
 OpenBabel03242516073D

 39 43  0  0  0  0  0  0  0  0999 V2000
   37.5480   30.0440   37.6140 C   0  0  0  0  0  0  0  0  0  0  0  0
   37.2790   28.8340   38.2630 C   0  0  0  0  0  0  0  0  0  0  0  0
   36.8500   27.7020   36.9100 S   0  0  0  0  0  0  0  0  0  0  0  0
   37.1100   29.0980   35.6210 C   0  0  0  0  0  0  0  0  0  0  0  0
   37.3970   29.9220   36.3200 N   0  0  0  0  0  0  0  0  0  0  0  0
   36.9490   28.9700   34.2090 N   0  0  0  0  0  0  0  0  0  0  0  0
   37.9080   28.8470   33.8160 H   0  0  0  0  0  0  0  0  0  0  0  0
   35.9380   29.0340   33.9680 H   0  0  0  0  0  0  0  0  0  0  0  0
   36.2050   28.5110   40.5090 C   0  0  0  0  0  3  0  0  0  0  0  0
   37.3080   28.4830   39.6690 C   0  0  0  0  0  0  0  0  0  0  0  0
   38.5160   28.0850   40.2480 C   0  0  0  0  0  0  0  0  0  0  0  0
   39.4170   28.0480   39.6230 H   0  0  0  0  0  0  0  0  0  0  0  0
   38.6200   27.7400   41.5780 C   0  0  0  0  0  0  0  0  0  0  0  0
   39.6160   27.3320   42.3860 N   0  0  0  0  0  0  0  0  0  0  0  0
   40.6170   27.1870   42.1120 H   0  0  0  0  0  0  0  0  0  0  0  0
   39.1380   27.1280   43.6390 C   0  0  0  0  0  0  0  0  0  0  0  0
   39.6480   26.8020   44.5340 H   0  0  0  0  0  0  0  0  0  0  0  0
   37.7750   27.4050   43.6800 C   0  0  0  0  0  3  0  0  0  0  0  0
   37.4870   27.7870   42.3650 C   0  0  0  0  0  0  0  0  0  0  0  0
   36.2700   28.1710   41.8440 C   0  0  0  0  0  3  0  0  0  0  0  0
   40.4270   30.5870   37.6840 Cl  0  0  0  0  0  0  0  0  0  0  0  0
   39.2700   31.6410   38.4470 C   0  0  0  0  0  0  0  0  0  0  0  0
   39.6300   32.7780   39.1210 C   0  0  0  0  0  0  0  0  0  0  0  0
   38.6300   33.5190   39.6760 C   0  0  0  0  0  0  0  0  0  0  0  0
   37.3290   33.1810   39.5880 C   0  0  0  0  0  0  0  0  0  0  0  0
   36.9480   32.0540   38.9210 C   0  0  0  0  0  0  0  0  0  0  0  0
   37.9480   31.2720   38.3410 C   0  0  0  0  0  0  0  0  0  0  0  0
   38.9050   34.4190   40.2110 H   0  0  0  0  0  0  0  0  0  0  0  0
   36.5820   33.8050   40.0450 H   0  0  0  0  0  0  0  0  0  0  0  0
   35.9050   31.7760   38.8450 H   0  0  0  0  0  0  0  0  0  0  0  0
   43.0670   34.1610   38.3000 C   0  0  0  0  0  0  0  0  0  0  0  0
   41.7050   33.8700   38.2160 C   0  0  0  0  0  0  0  0  0  0  0  0
   41.0480   33.0940   39.1870 C   0  0  0  0  0  0  0  0  0  0  0  0
   41.8400   32.6610   40.1950 N   0  0  0  0  0  0  0  0  0  0  0  0
   43.1540   32.9500   40.2620 C   0  0  0  0  0  0  0  0  0  0  0  0
   43.7570   33.6920   39.3240 N   0  0  0  0  0  0  0  0  0  0  0  0
   43.4590   34.7730   37.4830 H   0  0  0  0  0  0  0  0  0  0  0  0
   41.0540   34.2140   37.4070 H   0  0  0  0  0  0  0  0  0  0  0  0
   43.7470   32.5760   41.0940 H   0  0  0  0  0  0  0  0  0  0  0  0
  1  2  2  0  0  0  0
  1 27  1  0  0  0  0
  2 10  1  0  0  0  0
  3  2  1  0  0  0  0
  4  5  2  0  0  0  0
  4  3  1  0  0  0  0
  5  1  1  0  0  0  0
  6  4  1  0  0  0  0
  7  6  1  0  0  0  0
  8  6  1  0  0  0  0
  9 20  1  0  0  0  0
 10 11  1  0  0  0  0
 10  9  2  0  0  0  0
 11 13  2  0  0  0  0
 12 11  1  0  0  0  0
 13 19  1  0  0  0  0
 13 14  1  0  0  0  0
 14 16  1  0  0  0  0
 15 14  1  0  0  0  0
 16 18  2  0  0  0  0
 16 17  1  0  0  0  0
 19 18  1  0  0  0  0
 20 19  2  0  0  0  0
 21 22  1  0  0  0  0
 22 23  1  0  0  0  0
 23 33  1  0  0  0  0
 23 24  2  0  0  0  0
 24 28  1  0  0  0  0
 25 24  1  0  0  0  0
 25 29  1  0  0  0  0
 26 25  2  0  0  0  0
 27 22  2  0  0  0  0
 27 26  1  0  0  0  0
 30 26  1  0  0  0  0
 31 36  1  0  0  0  0
 32 31  2  0  0  0  0
 32 33  1  0  0  0  0
 33 34  2  0  0  0  0
 34 35  1  0  0  0  0
 35 39  1  0  0  0  0
 36 35  2  0  0  0  0
 37 31  1  0  0  0  0
 38 32  1  0  0  0  0
M  END
>  <minimizedAffinity>
-6.61881638

$$$$

 OpenBabel03242516073D

 39 43  0  0  0  0  0  0  0  0999 V2000
   35.1750   28.2070   36.7250 C   0  0  0  0  0  0  0  0  0  0  0  0
   34.0670   28.4550   35.9080 C   0  0  0  0  0  0  0  0  0  0  0  0
   34.3370   27.3750   34.4730 S   0  0  0  0  0  0  0  0  0  0  0  0
   35.9750   26.7290   35.2310 C   0  0  0  0  0  0  0  0  0  0  0  0
   35.9690   27.3230   36.1770 N   0  0  0  0  0  0  0  0  0  0  0  0
   36.8440   25.7650   34.6390 N   0  0  0  0  0  0  0  0  0  0  0  0
   36.6280   24.8540   35.1020 H   0  0  0  0  0  0  0  0  0  0  0  0
   37.4410   26.2270   33.9230 H   0  0  0  0  0  0  0  0  0  0  0  0
   32.4690   30.2230   35.1210 C   0  0  0  0  0  3  0  0  0  0  0  0
   32.9340   29.3420   36.0850 C   0  0  0  0  0  0  0  0  0  0  0  0
   32.2440   29.3340   37.3000 C   0  0  0  0  0  0  0  0  0  0  0  0
   32.5760   28.6530   38.0930 H   0  0  0  0  0  0  0  0  0  0  0  0
   31.1610   30.1520   37.5390 C   0  0  0  0  0  0  0  0  0  0  0  0
   30.3270   30.3560   38.5760 N   0  0  0  0  0  0  0  0  0  0  0  0
   30.3590   29.8680   39.5030 H   0  0  0  0  0  0  0  0  0  0  0  0
   29.4140   31.3060   38.2530 C   0  0  0  0  0  0  0  0  0  0  0  0
   28.6030   31.7180   38.8350 H   0  0  0  0  0  0  0  0  0  0  0  0
   29.6370   31.7580   36.9550 C   0  0  0  0  0  3  0  0  0  0  0  0
   30.7430   31.0080   36.5410 C   0  0  0  0  0  0  0  0  0  0  0  0
   31.3890   31.0560   35.3230 C   0  0  0  0  0  3  0  0  0  0  0  0
   37.1370   30.3840   36.7310 Cl  0  0  0  0  0  0  0  0  0  0  0  0
   36.2690   29.9200   38.1680 C   0  0  0  0  0  0  0  0  0  0  0  0
   36.4480   30.5370   39.3780 C   0  0  0  0  0  0  0  0  0  0  0  0
   35.7080   30.0800   40.4270 C   0  0  0  0  0  0  0  0  0  0  0  0
   34.8280   29.0660   40.3210 C   0  0  0  0  0  0  0  0  0  0  0  0
   34.6340   28.4380   39.1260 C   0  0  0  0  0  0  0  0  0  0  0  0
   35.3750   28.8810   38.0290 C   0  0  0  0  0  0  0  0  0  0  0  0
   35.8430   30.5610   41.3880 H   0  0  0  0  0  0  0  0  0  0  0  0
   34.2710   28.7470   41.1840 H   0  0  0  0  0  0  0  0  0  0  0  0
   33.9280   27.6230   39.0310 H   0  0  0  0  0  0  0  0  0  0  0  0
   37.9850   33.9900   39.7090 C   0  0  0  0  0  0  0  0  0  0  0  0
   37.0420   32.9630   39.6570 C   0  0  0  0  0  0  0  0  0  0  0  0
   37.4110   31.6240   39.4370 C   0  0  0  0  0  0  0  0  0  0  0  0
   38.7400   31.4220   39.2840 N   0  0  0  0  0  0  0  0  0  0  0  0
   39.6390   32.4250   39.3380 C   0  0  0  0  0  0  0  0  0  0  0  0
   39.2610   33.6920   39.5480 N   0  0  0  0  0  0  0  0  0  0  0  0
   37.5720   34.9870   39.8850 H   0  0  0  0  0  0  0  0  0  0  0  0
   35.9650   33.1130   39.7780 H   0  0  0  0  0  0  0  0  0  0  0  0
   40.6970   32.2080   39.2080 H   0  0  0  0  0  0  0  0  0  0  0  0
  1 27  1  0  0  0  0
  2 10  1  0  0  0  0
  2  1  2  0  0  0  0
  3  4  1  0  0  0  0
  3  2  1  0  0  0  0
  4  5  2  0  0  0  0
  5  1  1  0  0  0  0
  6  7  1  0  0  0  0
  6  4  1  0  0  0  0
  8  6  1  0  0  0  0
  9 20  2  0  0  0  0
  9 10  1  0  0  0  0
 10 11  2  0  0  0  0
 11 13  1  0  0  0  0
 11 12  1  0  0  0  0
 13 14  1  0  0  0  0
 14 15  1  0  0  0  0
 16 14  1  0  0  0  0
 16 17  1  0  0  0  0
 18 16  2  0  0  0  0
 19 18  1  0  0  0  0
 19 13  2  0  0  0  0
 20 19  1  0  0  0  0
 21 22  1  0  0  0  0
 22 23  1  0  0  0  0
 23 33  1  0  0  0  0
 23 24  2  0  0  0  0
 24 28  1  0  0  0  0
 25 24  1  0  0  0  0
 25 29  1  0  0  0  0
 26 25  2  0  0  0  0
 27 22  2  0  0  0  0
 27 26  1  0  0  0  0
 30 26  1  0  0  0  0
 31 37  1  0  0  0  0
 32 31  1  0  0  0  0
 32 38  1  0  0  0  0
 33 32  2  0  0  0  0
 34 35  2  0  0  0  0
 34 33  1  0  0  0  0
 35 36  1  0  0  0  0
 36 31  2  0  0  0  0
 39 35  1  0  0  0  0
M  END
>  <minimizedAffinity>
-6.5560379

$$$$

 OpenBabel03242516073D

 39 43  0  0  0  0  0  0  0  0999 V2000
   36.9100   27.4770   39.6790 C   0  0  0  0  0  0  0  0  0  0  0  0
   37.1410   28.5340   38.7920 C   0  0  0  0  0  0  0  0  0  0  0  0
   36.3880   27.9690   37.2400 S   0  0  0  0  0  0  0  0  0  0  0  0
   35.8560   26.3210   38.0620 C   0  0  0  0  0  0  0  0  0  0  0  0
   36.2620   26.5050   39.0870 N   0  0  0  0  0  0  0  0  0  0  0  0
   35.1490   25.2610   37.4230 N   0  0  0  0  0  0  0  0  0  0  0  0
   34.1480   25.3680   37.7010 H   0  0  0  0  0  0  0  0  0  0  0  0
   35.8140   24.6850   36.8670 H   0  0  0  0  0  0  0  0  0  0  0  0
   39.1170   30.0690   38.6000 C   0  0  0  0  0  3  0  0  0  0  0  0
   37.8110   29.8050   38.9830 C   0  0  0  0  0  0  0  0  0  0  0  0
   37.1200   30.8560   39.5930 C   0  0  0  0  0  0  0  0  0  0  0  0
   36.0840   30.6940   39.9130 H   0  0  0  0  0  0  0  0  0  0  0  0
   37.6950   32.0900   39.8080 C   0  0  0  0  0  0  0  0  0  0  0  0
   37.2890   33.2520   40.3540 N   0  0  0  0  0  0  0  0  0  0  0  0
   36.3450   33.4490   40.7630 H   0  0  0  0  0  0  0  0  0  0  0  0
   38.2940   34.1610   40.3020 C   0  0  0  0  0  0  0  0  0  0  0  0
   38.3250   35.1860   40.6420 H   0  0  0  0  0  0  0  0  0  0  0  0
   39.4160   33.5960   39.7010 C   0  0  0  0  0  3  0  0  0  0  0  0
   38.9990   32.2940   39.4060 C   0  0  0  0  0  0  0  0  0  0  0  0
   39.7250   31.2910   38.7980 C   0  0  0  0  0  3  0  0  0  0  0  0
   39.7430   26.8650   40.1140 Cl  0  0  0  0  0  0  0  0  0  0  0  0
   38.6650   27.2330   41.4310 C   0  0  0  0  0  0  0  0  0  0  0  0
   39.0710   27.2590   42.7390 C   0  0  0  0  0  0  0  0  0  0  0  0
   38.1310   27.5600   43.6790 C   0  0  0  0  0  0  0  0  0  0  0  0
   36.8460   27.8270   43.3750 C   0  0  0  0  0  0  0  0  0  0  0  0
   36.4210   27.8070   42.0790 C   0  0  0  0  0  0  0  0  0  0  0  0
   37.3580   27.5020   41.0910 C   0  0  0  0  0  0  0  0  0  0  0  0
   38.4410   27.5820   44.7160 H   0  0  0  0  0  0  0  0  0  0  0  0
   36.1470   28.0580   44.1590 H   0  0  0  0  0  0  0  0  0  0  0  0
   35.3910   28.0200   41.8260 H   0  0  0  0  0  0  0  0  0  0  0  0
   42.7750   27.6510   43.4650 C   0  0  0  0  0  0  0  0  0  0  0  0
   41.4390   27.9600   43.2050 C   0  0  0  0  0  0  0  0  0  0  0  0
   40.4680   26.9620   43.0120 C   0  0  0  0  0  0  0  0  0  0  0  0
   40.9340   25.6950   43.0990 N   0  0  0  0  0  0  0  0  0  0  0  0
   42.2270   25.4120   43.3510 C   0  0  0  0  0  0  0  0  0  0  0  0
   43.1340   26.3820   43.5310 N   0  0  0  0  0  0  0  0  0  0  0  0
   43.4310   28.5150   43.5950 H   0  0  0  0  0  0  0  0  0  0  0  0
   41.0500   28.9800   43.1310 H   0  0  0  0  0  0  0  0  0  0  0  0
   42.5510   24.3750   43.4110 H   0  0  0  0  0  0  0  0  0  0  0  0
  1 27  1  0  0  0  0
  2 10  1  0  0  0  0
  2  1  2  0  0  0  0
  3  4  1  0  0  0  0
  3  2  1  0  0  0  0
  4  5  2  0  0  0  0
  5  1  1  0  0  0  0
  6  7  1  0  0  0  0
  6  4  1  0  0  0  0
  8  6  1  0  0  0  0
  9 20  2  0  0  0  0
  9 10  1  0  0  0  0
 10 11  2  0  0  0  0
 11 13  1  0  0  0  0
 11 12  1  0  0  0  0
 13 14  1  0  0  0  0
 14 15  1  0  0  0  0
 16 14  1  0  0  0  0
 16 17  1  0  0  0  0
 18 16  2  0  0  0  0
 19 18  1  0  0  0  0
 19 13  2  0  0  0  0
 20 19  1  0  0  0  0
 21 22  1  0  0  0  0
 22 23  1  0  0  0  0
 23 33  1  0  0  0  0
 23 24  2  0  0  0  0
 24 28  1  0  0  0  0
 25 24  1  0  0  0  0
 25 29  1  0  0  0  0
 26 25  2  0  0  0  0
 27 22  2  0  0  0  0
 27 26  1  0  0  0  0
 30 26  1  0  0  0  0
 31 36  1  0  0  0  0
 31 37  1  0  0  0  0
 32 31  2  0  0  0  0
 33 34  2  0  0  0  0
 33 32  1  0  0  0  0
 34 35  1  0  0  0  0
 35 39  1  0  0  0  0
 35 36  2  0  0  0  0
 38 32  1  0  0  0  0
M  END
>  <minimizedAffinity>
-6.52616596

$$$$

 OpenBabel03242516073D

 39 43  0  0  0  0  0  0  0  0999 V2000
   40.2050   30.7820   38.0310 C   0  0  0  0  0  0  0  0  0  0  0  0
   40.3930   30.9160   39.4110 C   0  0  0  0  0  0  0  0  0  0  0  0
   41.3590   32.4450   39.5700 S   0  0  0  0  0  0  0  0  0  0  0  0
   41.3620   32.6770   37.6660 C   0  0  0  0  0  0  0  0  0  0  0  0
   40.7740   31.7690   37.3850 N   0  0  0  0  0  0  0  0  0  0  0  0
   41.9780   33.7500   36.9580 N   0  0  0  0  0  0  0  0  0  0  0  0
   41.2150   34.4260   36.7320 H   0  0  0  0  0  0  0  0  0  0  0  0
   42.9980   33.5660   36.8650 H   0  0  0  0  0  0  0  0  0  0  0  0
   40.7510   29.1330   41.1400 C   0  0  0  0  0  3  0  0  0  0  0  0
   39.9580   30.0830   40.5140 C   0  0  0  0  0  0  0  0  0  0  0  0
   38.6570   30.2230   41.0030 C   0  0  0  0  0  0  0  0  0  0  0  0
   37.9930   30.9620   40.5390 H   0  0  0  0  0  0  0  0  0  0  0  0
   38.1750   29.4630   42.0480 C   0  0  0  0  0  0  0  0  0  0  0  0
   37.0060   29.3790   42.7090 N   0  0  0  0  0  0  0  0  0  0  0  0
   36.1460   29.9470   42.5240 H   0  0  0  0  0  0  0  0  0  0  0  0
   37.0910   28.4310   43.6770 C   0  0  0  0  0  0  0  0  0  0  0  0
   36.3540   28.0980   44.3920 H   0  0  0  0  0  0  0  0  0  0  0  0
   38.3600   27.8580   43.6700 C   0  0  0  0  0  3  0  0  0  0  0  0
   39.0100   28.5330   42.6310 C   0  0  0  0  0  0  0  0  0  0  0  0
   40.3040   28.3560   42.1880 C   0  0  0  0  0  3  0  0  0  0  0  0
   37.3260   31.2170   37.7020 Cl  0  0  0  0  0  0  0  0  0  0  0  0
   38.0960   29.7310   37.2210 C   0  0  0  0  0  0  0  0  0  0  0  0
   37.4100   28.6830   36.6650 C   0  0  0  0  0  0  0  0  0  0  0  0
   38.1280   27.5740   36.3310 C   0  0  0  0  0  0  0  0  0  0  0  0
   39.4560   27.4720   36.5250 C   0  0  0  0  0  0  0  0  0  0  0  0
   40.1590   28.5020   37.0770 C   0  0  0  0  0  0  0  0  0  0  0  0
   39.4550   29.6550   37.4300 C   0  0  0  0  0  0  0  0  0  0  0  0
   37.5950   26.7400   35.8920 H   0  0  0  0  0  0  0  0  0  0  0  0
   39.9720   26.5710   36.2420 H   0  0  0  0  0  0  0  0  0  0  0  0
   41.2270   28.4290   37.2350 H   0  0  0  0  0  0  0  0  0  0  0  0
   34.0180   29.3050   35.0830 C   0  0  0  0  0  0  0  0  0  0  0  0
   35.3960   29.1530   35.2360 C   0  0  0  0  0  0  0  0  0  0  0  0
   35.9770   28.8460   36.4790 C   0  0  0  0  0  0  0  0  0  0  0  0
   35.0960   28.7120   37.4980 N   0  0  0  0  0  0  0  0  0  0  0  0
   33.7670   28.8620   37.3330 C   0  0  0  0  0  0  0  0  0  0  0  0
   33.2380   29.1550   36.1380 N   0  0  0  0  0  0  0  0  0  0  0  0
   33.6900   29.5440   34.0670 H   0  0  0  0  0  0  0  0  0  0  0  0
   36.1180   29.2590   34.4220 H   0  0  0  0  0  0  0  0  0  0  0  0
   33.1020   28.7440   38.1860 H   0  0  0  0  0  0  0  0  0  0  0  0
  1  2  2  0  0  0  0
  2  3  1  0  0  0  0
  2 10  1  0  0  0  0
  4  3  1  0  0  0  0
  5  4  2  0  0  0  0
  5  1  1  0  0  0  0
  6  4  1  0  0  0  0
  7  6  1  0  0  0  0
  8  6  1  0  0  0  0
  9 20  1  0  0  0  0
 10 11  1  0  0  0  0
 10  9  2  0  0  0  0
 11 13  2  0  0  0  0
 12 11  1  0  0  0  0
 13 19  1  0  0  0  0
 13 14  1  0  0  0  0
 14 16  1  0  0  0  0
 15 14  1  0  0  0  0
 16 17  1  0  0  0  0
 18 16  2  0  0  0  0
 19 18  1  0  0  0  0
 20 19  2  0  0  0  0
 22 27  1  0  0  0  0
 22 21  1  0  0  0  0
 23 22  2  0  0  0  0
 24 25  2  0  0  0  0
 24 23  1  0  0  0  0
 25 26  1  0  0  0  0
 26 30  1  0  0  0  0
 26 27  2  0  0  0  0
 27  1  1  0  0  0  0
 28 24  1  0  0  0  0
 29 25  1  0  0  0  0
 31 32  2  0  0  0  0
 31 36  1  0  0  0  0
 32 33  1  0  0  0  0
 33 23  1  0  0  0  0
 33 34  2  0  0  0  0
 35 34  1  0  0  0  0
 35 39  1  0  0  0  0
 36 35  2  0  0  0  0
 37 31  1  0  0  0  0
 38 32  1  0  0  0  0
M  END
>  <minimizedAffinity>
-6.34014988

$$$$

 OpenBabel03242516073D

 39 43  0  0  0  0  0  0  0  0999 V2000
   37.6270   25.6420   40.7010 C   0  0  0  0  0  0  0  0  0  0  0  0
   38.8550   25.0440   40.3990 C   0  0  0  0  0  0  0  0  0  0  0  0
   38.4040   23.6360   39.3440 S   0  0  0  0  0  0  0  0  0  0  0  0
   36.5470   24.0920   39.4790 C   0  0  0  0  0  0  0  0  0  0  0  0
   36.6410   24.9930   40.1340 N   0  0  0  0  0  0  0  0  0  0  0  0
   35.4690   23.3890   38.8630 N   0  0  0  0  0  0  0  0  0  0  0  0
   35.2240   23.9280   38.0030 H   0  0  0  0  0  0  0  0  0  0  0  0
   35.2310   22.5500   39.4310 H   0  0  0  0  0  0  0  0  0  0  0  0
   41.0570   26.1960   40.0470 C   0  0  0  0  0  3  0  0  0  0  0  0
   40.2050   25.3950   40.7930 C   0  0  0  0  0  0  0  0  0  0  0  0
   40.7130   24.9080   42.0000 C   0  0  0  0  0  0  0  0  0  0  0  0
   40.0750   24.2700   42.6230 H   0  0  0  0  0  0  0  0  0  0  0  0
   41.9870   25.1990   42.4360 C   0  0  0  0  0  0  0  0  0  0  0  0
   42.7230   24.8830   43.5180 N   0  0  0  0  0  0  0  0  0  0  0  0
   42.4190   24.2830   44.3220 H   0  0  0  0  0  0  0  0  0  0  0  0
   43.9470   25.4600   43.4270 C   0  0  0  0  0  0  0  0  0  0  0  0
   44.7860   25.4240   44.1060 H   0  0  0  0  0  0  0  0  0  0  0  0
   44.0410   26.1920   42.2460 C   0  0  0  0  0  3  0  0  0  0  0  0
   42.7890   26.0020   41.6520 C   0  0  0  0  0  0  0  0  0  0  0  0
   42.3380   26.5090   40.4520 C   0  0  0  0  0  3  0  0  0  0  0  0
   38.0890   28.1950   39.3380 Cl  0  0  0  0  0  0  0  0  0  0  0  0
   37.7040   28.1100   41.0330 C   0  0  0  0  0  0  0  0  0  0  0  0
   37.5950   29.2210   41.8280 C   0  0  0  0  0  0  0  0  0  0  0  0
   37.2890   29.0220   43.1410 C   0  0  0  0  0  0  0  0  0  0  0  0
   37.0950   27.8000   43.6740 C   0  0  0  0  0  0  0  0  0  0  0  0
   37.1990   26.6810   42.9010 C   0  0  0  0  0  0  0  0  0  0  0  0
   37.5110   26.8490   41.5510 C   0  0  0  0  0  0  0  0  0  0  0  0
   37.2010   29.8930   43.7780 H   0  0  0  0  0  0  0  0  0  0  0  0
   36.8560   27.7030   44.7180 H   0  0  0  0  0  0  0  0  0  0  0  0
   37.0440   25.6960   43.3210 H   0  0  0  0  0  0  0  0  0  0  0  0
   37.0570   32.4320   39.8800 C   0  0  0  0  0  0  0  0  0  0  0  0
   36.8220   31.1910   40.4720 C   0  0  0  0  0  0  0  0  0  0  0  0
   37.8150   30.5140   41.2020 C   0  0  0  0  0  0  0  0  0  0  0  0
   39.0000   31.1630   41.2790 N   0  0  0  0  0  0  0  0  0  0  0  0
   39.2120   32.3610   40.7010 C   0  0  0  0  0  0  0  0  0  0  0  0
   38.2490   32.9850   40.0110 N   0  0  0  0  0  0  0  0  0  0  0  0
   36.2050   32.8540   39.3390 H   0  0  0  0  0  0  0  0  0  0  0  0
   35.8690   30.6560   40.4170 H   0  0  0  0  0  0  0  0  0  0  0  0
   40.1840   32.8400   40.7930 H   0  0  0  0  0  0  0  0  0  0  0  0
  1 27  1  0  0  0  0
  2  1  2  0  0  0  0
  2 10  1  0  0  0  0
  3  4  1  0  0  0  0
  3  2  1  0  0  0  0
  4  5  2  0  0  0  0
  5  1  1  0  0  0  0
  6  8  1  0  0  0  0
  6  4  1  0  0  0  0
  7  6  1  0  0  0  0
  9 20  2  0  0  0  0
  9 10  1  0  0  0  0
 10 11  2  0  0  0  0
 11 13  1  0  0  0  0
 11 12  1  0  0  0  0
 13 14  1  0  0  0  0
 14 15  1  0  0  0  0
 16 14  1  0  0  0  0
 16 17  1  0  0  0  0
 18 16  2  0  0  0  0
 19 18  1  0  0  0  0
 19 13  2  0  0  0  0
 20 19  1  0  0  0  0
 21 22  1  0  0  0  0
 22 27  2  0  0  0  0
 22 23  1  0  0  0  0
 23 24  2  0  0  0  0
 24 25  1  0  0  0  0
 24 28  1  0  0  0  0
 25 29  1  0  0  0  0
 26 30  1  0  0  0  0
 26 25  2  0  0  0  0
 27 26  1  0  0  0  0
 31 36  2  0  0  0  0
 31 32  1  0  0  0  0
 32 33  2  0  0  0  0
 33 34  1  0  0  0  0
 33 23  1  0  0  0  0
 35 39  1  0  0  0  0
 35 34  2  0  0  0  0
 36 35  1  0  0  0  0
 37 31  1  0  0  0  0
 38 32  1  0  0  0  0
M  END
>  <minimizedAffinity>
-6.33813477

$$$$

 OpenBabel03242516073D

 39 43  0  0  0  0  0  0  0  0999 V2000
   37.7510   30.6730   40.6480 C   0  0  0  0  0  0  0  0  0  0  0  0
   37.2910   30.7650   39.3300 C   0  0  0  0  0  0  0  0  0  0  0  0
   37.5310   32.5140   38.9080 S   0  0  0  0  0  0  0  0  0  0  0  0
   38.2460   32.8680   40.6510 C   0  0  0  0  0  0  0  0  0  0  0  0
   38.1690   31.8370   41.0770 N   0  0  0  0  0  0  0  0  0  0  0  0
   38.7050   34.1330   41.1240 N   0  0  0  0  0  0  0  0  0  0  0  0
   39.7450   34.1170   41.0360 H   0  0  0  0  0  0  0  0  0  0  0  0
   37.8900   34.7100   41.4190 H   0  0  0  0  0  0  0  0  0  0  0  0
   37.4640   29.0830   37.4750 C   0  0  0  0  0  3  0  0  0  0  0  0
   36.7380   29.7590   38.4440 C   0  0  0  0  0  0  0  0  0  0  0  0
   35.3860   29.4260   38.5490 C   0  0  0  0  0  0  0  0  0  0  0  0
   34.7720   29.9350   39.3020 H   0  0  0  0  0  0  0  0  0  0  0  0
   34.7930   28.4810   37.7390 C   0  0  0  0  0  0  0  0  0  0  0  0
   33.5540   27.9710   37.6140 N   0  0  0  0  0  0  0  0  0  0  0  0
   32.7140   28.2340   38.1820 H   0  0  0  0  0  0  0  0  0  0  0  0
   33.5360   27.0420   36.6250 C   0  0  0  0  0  0  0  0  0  0  0  0
   32.7230   26.4360   36.2540 H   0  0  0  0  0  0  0  0  0  0  0  0
   34.8040   26.9200   36.0650 C   0  0  0  0  0  3  0  0  0  0  0  0
   35.5650   27.8410   36.7920 C   0  0  0  0  0  0  0  0  0  0  0  0
   36.9060   28.1320   36.6470 C   0  0  0  0  0  3  0  0  0  0  0  0
   40.3400   29.3160   40.8580 Cl  0  0  0  0  0  0  0  0  0  0  0  0
   38.8970   28.6690   41.5860 C   0  0  0  0  0  0  0  0  0  0  0  0
   38.8820   27.4960   42.2940 C   0  0  0  0  0  0  0  0  0  0  0  0
   37.6880   27.0950   42.8140 C   0  0  0  0  0  0  0  0  0  0  0  0
   36.5470   27.7940   42.6600 C   0  0  0  0  0  0  0  0  0  0  0  0
   36.5390   28.9640   41.9590 C   0  0  0  0  0  0  0  0  0  0  0  0
   37.7450   29.4040   41.4120 C   0  0  0  0  0  0  0  0  0  0  0  0
   37.6660   26.1700   43.3750 H   0  0  0  0  0  0  0  0  0  0  0  0
   35.6320   27.4290   43.0920 H   0  0  0  0  0  0  0  0  0  0  0  0
   35.6270   29.5320   41.8300 H   0  0  0  0  0  0  0  0  0  0  0  0
   42.1590   26.1760   43.6790 C   0  0  0  0  0  0  0  0  0  0  0  0
   40.9540   26.8710   43.5730 C   0  0  0  0  0  0  0  0  0  0  0  0
   40.1410   26.7820   42.4290 C   0  0  0  0  0  0  0  0  0  0  0  0
   40.6220   25.9730   41.4560 N   0  0  0  0  0  0  0  0  0  0  0  0
   41.7880   25.3080   41.5740 C   0  0  0  0  0  0  0  0  0  0  0  0
   42.5440   25.4110   42.6740 N   0  0  0  0  0  0  0  0  0  0  0  0
   42.6990   26.3300   44.6180 H   0  0  0  0  0  0  0  0  0  0  0  0
   40.5550   27.5280   44.3510 H   0  0  0  0  0  0  0  0  0  0  0  0
   42.1300   24.6710   40.7610 H   0  0  0  0  0  0  0  0  0  0  0  0
  1  5  1  0  0  0  0
  1 27  1  0  0  0  0
  2  1  2  0  0  0  0
  3  2  1  0  0  0  0
  3  4  1  0  0  0  0
  4  5  2  0  0  0  0
  4  6  1  0  0  0  0
  6  8  1  0  0  0  0
  7  6  1  0  0  0  0
  9 10  1  0  0  0  0
 10 11  2  0  0  0  0
 10  2  1  0  0  0  0
 11 12  1  0  0  0  0
 13 11  1  0  0  0  0
 14 13  1  0  0  0  0
 14 15  1  0  0  0  0
 16 14  1  0  0  0  0
 17 16  1  0  0  0  0
 18 16  2  0  0  0  0
 18 19  1  0  0  0  0
 19 13  2  0  0  0  0
 20 19  1  0  0  0  0
 20  9  2  0  0  0  0
 21 22  1  0  0  0  0
 22 23  1  0  0  0  0
 23 33  1  0  0  0  0
 23 24  2  0  0  0  0
 24 28  1  0  0  0  0
 25 24  1  0  0  0  0
 25 29  1  0  0  0  0
 26 25  2  0  0  0  0
 27 22  2  0  0  0  0
 27 26  1  0  0  0  0
 30 26  1  0  0  0  0
 31 37  1  0  0  0  0
 32 31  1  0  0  0  0
 32 38  1  0  0  0  0
 33 32  2  0  0  0  0
 34 35  2  0  0  0  0
 34 33  1  0  0  0  0
 35 36  1  0  0  0  0
 36 31  2  0  0  0  0
 39 35  1  0  0  0  0
M  END
>  <minimizedAffinity>
-6.31286526

$$$$

 OpenBabel03242516073D

 39 43  0  0  0  0  0  0  0  0999 V2000
   38.4530   30.6530   41.3890 C   0  0  0  0  0  0  0  0  0  0  0  0
   39.7540   31.1600   41.4760 C   0  0  0  0  0  0  0  0  0  0  0  0
   39.6270   32.8120   40.7340 S   0  0  0  0  0  0  0  0  0  0  0  0
   37.7560   32.5530   40.4050 C   0  0  0  0  0  0  0  0  0  0  0  0
   37.6520   31.5220   40.8250 N   0  0  0  0  0  0  0  0  0  0  0  0
   36.8780   33.4960   39.7930 N   0  0  0  0  0  0  0  0  0  0  0  0
   36.3640   33.9630   40.5720 H   0  0  0  0  0  0  0  0  0  0  0  0
   36.9920   33.4570   38.7600 H   0  0  0  0  0  0  0  0  0  0  0  0
   41.7010   31.1100   43.0600 C   0  0  0  0  0  3  0  0  0  0  0  0
   40.9680   30.5750   42.0110 C   0  0  0  0  0  0  0  0  0  0  0  0
   41.4590   29.3920   41.4530 C   0  0  0  0  0  0  0  0  0  0  0  0
   40.9120   28.9320   40.6210 H   0  0  0  0  0  0  0  0  0  0  0  0
   42.6070   28.7810   41.9090 C   0  0  0  0  0  0  0  0  0  0  0  0
   43.2970   27.6740   41.5780 N   0  0  0  0  0  0  0  0  0  0  0  0
   43.0530   26.9940   40.8190 H   0  0  0  0  0  0  0  0  0  0  0  0
   44.3830   27.5510   42.3820 C   0  0  0  0  0  0  0  0  0  0  0  0
   45.1520   26.7930   42.4020 H   0  0  0  0  0  0  0  0  0  0  0  0
   44.4280   28.6090   43.2860 C   0  0  0  0  0  3  0  0  0  0  0  0
   43.2950   29.3600   42.9560 C   0  0  0  0  0  0  0  0  0  0  0  0
   42.8540   30.5270   43.5430 C   0  0  0  0  0  3  0  0  0  0  0  0
   38.4440   28.5260   39.3720 Cl  0  0  0  0  0  0  0  0  0  0  0  0
   38.0400   28.2210   41.0380 C   0  0  0  0  0  0  0  0  0  0  0  0
   37.6950   26.9800   41.5050 C   0  0  0  0  0  0  0  0  0  0  0  0
   37.4000   26.8710   42.8310 C   0  0  0  0  0  0  0  0  0  0  0  0
   37.4330   27.9160   43.6800 C   0  0  0  0  0  0  0  0  0  0  0  0
   37.7730   29.1600   43.2370 C   0  0  0  0  0  0  0  0  0  0  0  0
   38.0820   29.3070   41.8830 C   0  0  0  0  0  0  0  0  0  0  0  0
   37.1260   25.8950   43.2090 H   0  0  0  0  0  0  0  0  0  0  0  0
   37.1890   27.7710   44.7170 H   0  0  0  0  0  0  0  0  0  0  0  0
   37.8030   30.0050   43.9120 H   0  0  0  0  0  0  0  0  0  0  0  0
   36.5450   24.5150   38.8590 C   0  0  0  0  0  0  0  0  0  0  0  0
   36.5420   25.5680   39.7740 C   0  0  0  0  0  0  0  0  0  0  0  0
   37.6740   25.8880   40.5450 C   0  0  0  0  0  0  0  0  0  0  0  0
   38.7500   25.0970   40.3250 N   0  0  0  0  0  0  0  0  0  0  0  0
   38.7370   24.0840   39.4370 C   0  0  0  0  0  0  0  0  0  0  0  0
   37.6450   23.7990   38.7150 N   0  0  0  0  0  0  0  0  0  0  0  0
   35.6040   24.3670   38.3230 H   0  0  0  0  0  0  0  0  0  0  0  0
   35.6800   26.2140   39.9620 H   0  0  0  0  0  0  0  0  0  0  0  0
   39.6300   23.4770   39.2980 H   0  0  0  0  0  0  0  0  0  0  0  0
  1  2  2  0  0  0  0
  1 27  1  0  0  0  0
  2 10  1  0  0  0  0
  3  2  1  0  0  0  0
  4  3  1  0  0  0  0
  4  5  2  0  0  0  0
  5  1  1  0  0  0  0
  6  4  1  0  0  0  0
  6  7  1  0  0  0  0
  8  6  1  0  0  0  0
  9 20  1  0  0  0  0
 10  9  2  0  0  0  0
 11 13  2  0  0  0  0
 11 10  1  0  0  0  0
 12 11  1  0  0  0  0
 13 19  1  0  0  0  0
 14 13  1  0  0  0  0
 14 16  1  0  0  0  0
 15 14  1  0  0  0  0
 16 17  1  0  0  0  0
 16 18  2  0  0  0  0
 19 18  1  0  0  0  0
 19 20  2  0  0  0  0
 21 22  1  0  0  0  0
 22 23  2  0  0  0  0
 22 27  1  0  0  0  0
 23 24  1  0  0  0  0
 24 28  1  0  0  0  0
 24 25  2  0  0  0  0
 25 29  1  0  0  0  0
 26 25  1  0  0  0  0
 26 30  1  0  0  0  0
 27 26  2  0  0  0  0
 31 32  1  0  0  0  0
 32 38  1  0  0  0  0
 32 33  2  0  0  0  0
 33 23  1  0  0  0  0
 34 33  1  0  0  0  0
 35 34  2  0  0  0  0
 36 31  2  0  0  0  0
 36 35  1  0  0  0  0
 37 31  1  0  0  0  0
 39 35  1  0  0  0  0
M  END
>  <minimizedAffinity>
-6.15942669

$$$$

 OpenBabel03242516073D

 39 43  0  0  0  0  0  0  0  0999 V2000
   38.8970   30.9410   40.9610 C   0  0  0  0  0  0  0  0  0  0  0  0
   37.8710   31.2760   40.0700 C   0  0  0  0  0  0  0  0  0  0  0  0
   38.1940   33.0190   39.6740 S   0  0  0  0  0  0  0  0  0  0  0  0
   39.7290   33.0260   40.8220 C   0  0  0  0  0  0  0  0  0  0  0  0
   39.6820   31.9670   41.1750 N   0  0  0  0  0  0  0  0  0  0  0  0
   40.5890   34.1400   41.0580 N   0  0  0  0  0  0  0  0  0  0  0  0
   41.4250   33.9960   40.4500 H   0  0  0  0  0  0  0  0  0  0  0  0
   40.1520   34.7750   41.7570 H   0  0  0  0  0  0  0  0  0  0  0  0
   35.7180   30.0080   40.2970 C   0  0  0  0  0  3  0  0  0  0  0  0
   36.7760   30.4870   39.5410 C   0  0  0  0  0  0  0  0  0  0  0  0
   36.7580   30.1710   38.1800 C   0  0  0  0  0  0  0  0  0  0  0  0
   37.5750   30.5290   37.5420 H   0  0  0  0  0  0  0  0  0  0  0  0
   35.7510   29.4240   37.6090 C   0  0  0  0  0  0  0  0  0  0  0  0
   35.4760   28.9770   36.3700 N   0  0  0  0  0  0  0  0  0  0  0  0
   36.0530   29.1380   35.5100 H   0  0  0  0  0  0  0  0  0  0  0  0
   34.3190   28.2680   36.3810 C   0  0  0  0  0  0  0  0  0  0  0  0
   33.8010   27.7690   35.5760 H   0  0  0  0  0  0  0  0  0  0  0  0
   33.7940   28.2360   37.6700 C   0  0  0  0  0  3  0  0  0  0  0  0
   34.7230   28.9730   38.4120 C   0  0  0  0  0  0  0  0  0  0  0  0
   34.6920   29.2580   39.7610 C   0  0  0  0  0  3  0  0  0  0  0  0
   40.3030   28.9720   39.3070 Cl  0  0  0  0  0  0  0  0  0  0  0  0
   39.6730   28.5740   40.8810 C   0  0  0  0  0  0  0  0  0  0  0  0
   39.7940   27.3290   41.4390 C   0  0  0  0  0  0  0  0  0  0  0  0
   39.2570   27.1440   42.6770 C   0  0  0  0  0  0  0  0  0  0  0  0
   38.6260   28.1190   43.3580 C   0  0  0  0  0  0  0  0  0  0  0  0
   38.4940   29.3670   42.8230 C   0  0  0  0  0  0  0  0  0  0  0  0
   39.0330   29.5910   41.5550 C   0  0  0  0  0  0  0  0  0  0  0  0
   39.3470   26.1630   43.1260 H   0  0  0  0  0  0  0  0  0  0  0  0
   38.2210   27.9160   44.3340 H   0  0  0  0  0  0  0  0  0  0  0  0
   37.9890   30.1560   43.3630 H   0  0  0  0  0  0  0  0  0  0  0  0
   40.4920   24.4160   39.1090 C   0  0  0  0  0  0  0  0  0  0  0  0
   39.8100   25.3830   39.8480 C   0  0  0  0  0  0  0  0  0  0  0  0
   40.4830   26.3130   40.6600 C   0  0  0  0  0  0  0  0  0  0  0  0
   41.8300   26.1900   40.6610 N   0  0  0  0  0  0  0  0  0  0  0  0
   42.4750   25.2510   39.9420 C   0  0  0  0  0  0  0  0  0  0  0  0
   41.8110   24.3760   39.1760 N   0  0  0  0  0  0  0  0  0  0  0  0
   39.8550   23.7520   38.5180 H   0  0  0  0  0  0  0  0  0  0  0  0
   38.7210   25.4920   39.8550 H   0  0  0  0  0  0  0  0  0  0  0  0
   43.5610   25.1950   39.9790 H   0  0  0  0  0  0  0  0  0  0  0  0
  1  5  1  0  0  0  0
  1 27  1  0  0  0  0
  2  1  2  0  0  0  0
  3  2  1  0  0  0  0
  3  4  1  0  0  0  0
  4  6  1  0  0  0  0
  4  5  2  0  0  0  0
  6  8  1  0  0  0  0
  7  6  1  0  0  0  0
 10  2  1  0  0  0  0
 10  9  2  0  0  0  0
 11 10  1  0  0  0  0
 12 11  1  0  0  0  0
 13 11  2  0  0  0  0
 13 19  1  0  0  0  0
 14 16  1  0  0  0  0
 14 13  1  0  0  0  0
 15 14  1  0  0  0  0
 16 18  2  0  0  0  0
 17 16  1  0  0  0  0
 18 19  1  0  0  0  0
 19 20  2  0  0  0  0
 20  9  1  0  0  0  0
 21 22  1  0  0  0  0
 22 23  2  0  0  0  0
 22 27  1  0  0  0  0
 23 24  1  0  0  0  0
 24 28  1  0  0  0  0
 24 25  2  0  0  0  0
 25 29  1  0  0  0  0
 26 25  1  0  0  0  0
 26 30  1  0  0  0  0
 27 26  2  0  0  0  0
 31 36  2  0  0  0  0
 31 32  1  0  0  0  0
 32 38  1  0  0  0  0
 32 33  2  0  0  0  0
 33 34  1  0  0  0  0
 33 23  1  0  0  0  0
 35 39  1  0  0  0  0
 35 34  2  0  0  0  0
 36 35  1  0  0  0  0
 37 31  1  0  0  0  0
M  END
>  <minimizedAffinity>
-6.1381669

$$$$

 OpenBabel03242516073D

 39 43  0  0  0  0  0  0  0  0999 V2000
   37.8830   29.2800   40.8640 C   0  0  0  0  0  0  0  0  0  0  0  0
   38.5540   28.1620   41.3720 C   0  0  0  0  0  0  0  0  0  0  0  0
   39.9500   28.8730   42.2890 S   0  0  0  0  0  0  0  0  0  0  0  0
   39.3890   30.6470   41.8260 C   0  0  0  0  0  0  0  0  0  0  0  0
   38.4850   30.3860   41.2230 N   0  0  0  0  0  0  0  0  0  0  0  0
   40.0390   31.8560   42.2150 N   0  0  0  0  0  0  0  0  0  0  0  0
   39.5010   32.2270   43.0290 H   0  0  0  0  0  0  0  0  0  0  0  0
   40.8540   32.0280   41.5920 H   0  0  0  0  0  0  0  0  0  0  0  0
   37.3710   26.0490   42.0310 C   0  0  0  0  0  3  0  0  0  0  0  0
   38.2730   26.7460   41.2420 C   0  0  0  0  0  0  0  0  0  0  0  0
   38.9420   26.0040   40.2640 C   0  0  0  0  0  0  0  0  0  0  0  0
   39.6650   26.5130   39.6160 H   0  0  0  0  0  0  0  0  0  0  0  0
   38.7270   24.6550   40.0860 C   0  0  0  0  0  0  0  0  0  0  0  0
   39.2080   23.7110   39.2550 N   0  0  0  0  0  0  0  0  0  0  0  0
   39.9230   23.8530   38.5020 H   0  0  0  0  0  0  0  0  0  0  0  0
   38.6290   22.5160   39.5310 C   0  0  0  0  0  0  0  0  0  0  0  0
   38.7730   21.5500   39.0700 H   0  0  0  0  0  0  0  0  0  0  0  0
   37.7260   22.6560   40.5810 C   0  0  0  0  0  3  0  0  0  0  0  0
   37.8170   24.0140   40.9020 C   0  0  0  0  0  0  0  0  0  0  0  0
   37.1290   24.6990   41.8810 C   0  0  0  0  0  3  0  0  0  0  0  0
   38.3280   29.0110   37.9800 Cl  0  0  0  0  0  0  0  0  0  0  0  0
   36.7290   29.0430   38.6690 C   0  0  0  0  0  0  0  0  0  0  0  0
   35.5910   28.9450   37.9130 C   0  0  0  0  0  0  0  0  0  0  0  0
   34.3980   28.9830   38.5710 C   0  0  0  0  0  0  0  0  0  0  0  0
   34.3000   29.1100   39.9080 C   0  0  0  0  0  0  0  0  0  0  0  0
   35.4200   29.2090   40.6800 C   0  0  0  0  0  0  0  0  0  0  0  0
   36.6580   29.1730   40.0380 C   0  0  0  0  0  0  0  0  0  0  0  0
   33.4930   28.9070   37.9830 H   0  0  0  0  0  0  0  0  0  0  0  0
   33.3310   29.1340   40.3750 H   0  0  0  0  0  0  0  0  0  0  0  0
   35.3510   29.3110   41.7550 H   0  0  0  0  0  0  0  0  0  0  0  0
   35.6910   27.4990   34.4060 C   0  0  0  0  0  0  0  0  0  0  0  0
   35.5270   27.6040   35.7870 C   0  0  0  0  0  0  0  0  0  0  0  0
   35.7540   28.8100   36.4750 C   0  0  0  0  0  0  0  0  0  0  0  0
   36.1380   29.8440   35.6900 N   0  0  0  0  0  0  0  0  0  0  0  0
   36.2910   29.7260   34.3570 C   0  0  0  0  0  0  0  0  0  0  0  0
   36.0690   28.5660   33.7260 N   0  0  0  0  0  0  0  0  0  0  0  0
   35.4850   26.5080   33.9910 H   0  0  0  0  0  0  0  0  0  0  0  0
   35.2180   26.7770   36.4320 H   0  0  0  0  0  0  0  0  0  0  0  0
   36.6020   30.5890   33.7710 H   0  0  0  0  0  0  0  0  0  0  0  0
  1  5  1  0  0  0  0
  1  2  2  0  0  0  0
  2  3  1  0  0  0  0
  4  6  1  0  0  0  0
  4  3  1  0  0  0  0
  5  4  2  0  0  0  0
  6  7  1  0  0  0  0
  8  6  1  0  0  0  0
 10  2  1  0  0  0  0
 10  9  2  0  0  0  0
 11 10  1  0  0  0  0
 12 11  1  0  0  0  0
 13 11  2  0  0  0  0
 13 19  1  0  0  0  0
 14 16  1  0  0  0  0
 14 13  1  0  0  0  0
 15 14  1  0  0  0  0
 16 18  2  0  0  0  0
 17 16  1  0  0  0  0
 18 19  1  0  0  0  0
 19 20  2  0  0  0  0
 20  9  1  0  0  0  0
 21 22  1  0  0  0  0
 22 27  1  0  0  0  0
 23 24  1  0  0  0  0
 23 22  2  0  0  0  0
 24 25  2  0  0  0  0
 25 29  1  0  0  0  0
 25 26  1  0  0  0  0
 26 30  1  0  0  0  0
 27 26  2  0  0  0  0
 27  1  1  0  0  0  0
 28 24  1  0  0  0  0
 31 32  1  0  0  0  0
 32 38  1  0  0  0  0
 32 33  2  0  0  0  0
 33 23  1  0  0  0  0
 34 33  1  0  0  0  0
 35 34  2  0  0  0  0
 36 35  1  0  0  0  0
 36 31  2  0  0  0  0
 37 31  1  0  0  0  0
 39 35  1  0  0  0  0
M  END
>  <minimizedAffinity>
-6.12108421

$$$$
