
 OpenBabel03252502463D

 48 52  0  0  1  0  0  0  0  0999 V2000
   48.2630   35.6670   41.8320 C   0  0  0  0  0  0  0  0  0  0  0  0
   48.3450   35.9900   42.8900 H   0  0  0  0  0  0  0  0  0  0  0  0
   48.3100   36.6120   41.2420 H   0  0  0  0  0  0  0  0  0  0  0  0
   49.3870   34.7340   41.5260 C   0  0  1  0  0  0  0  0  0  0  0  0
   50.3830   34.4650   42.6140 C   0  0  0  0  0  0  0  0  0  0  0  0
   49.3940   33.4390   42.1970 C   0  0  2  0  0  0  0  0  0  0  0  0
   49.8220   34.8800   40.5430 H   0  0  0  0  0  0  0  0  0  0  0  0
   51.4590   34.3800   42.3710 H   0  0  0  0  0  0  0  0  0  0  0  0
   50.2300   35.0130   43.5760 H   0  0  0  0  0  0  0  0  0  0  0  0
   48.7090   33.1230   42.9740 H   0  0  0  0  0  0  0  0  0  0  0  0
   49.9800   32.3760   41.3830 N   0  0  0  0  0  0  0  0  0  0  0  0
   49.2950   32.1120   40.1710 C   0  0  0  0  0  0  0  0  0  0  0  0
   50.0560   30.9790   39.5040 C   0  0  0  0  0  0  0  0  0  0  0  0
   50.0190   29.7910   40.2820 N   0  0  0  0  0  0  0  0  0  0  0  0
   49.8950   30.0170   41.7090 C   0  0  0  0  0  0  0  0  0  0  0  0
   50.5860   31.3280   42.0870 C   0  0  0  0  0  0  0  0  0  0  0  0
   49.3780   32.9910   39.4880 H   0  0  0  0  0  0  0  0  0  0  0  0
   48.2440   31.8600   40.3650 H   0  0  0  0  0  0  0  0  0  0  0  0
   49.5930   30.8050   38.5040 H   0  0  0  0  0  0  0  0  0  0  0  0
   51.0640   31.3830   39.2910 H   0  0  0  0  0  0  0  0  0  0  0  0
   50.7820   29.1370   40.0350 H   0  0  0  0  0  0  0  0  0  0  0  0
   48.8420   30.1340   42.0030 H   0  0  0  0  0  0  0  0  0  0  0  0
   50.3490   29.1570   42.2070 H   0  0  0  0  0  0  0  0  0  0  0  0
   50.5520   31.4690   43.1680 H   0  0  0  0  0  0  0  0  0  0  0  0
   51.6690   31.1960   41.8130 H   0  0  0  0  0  0  0  0  0  0  0  0
   46.9890   34.8940   41.6340 C   0  0  0  0  0  0  0  0  0  0  0  0
   46.3770   35.5040   40.9090 H   0  0  0  0  0  0  0  0  0  0  0  0
   47.0700   33.9140   41.1940 H   0  0  0  0  0  0  0  0  0  0  0  0
   44.6890   36.1050   44.3370 C   0  0  0  0  0  0  0  0  0  0  0  0
   45.4270   36.0560   43.1330 C   0  0  0  0  0  0  0  0  0  0  0  0
   46.1970   34.9580   42.9040 C   0  0  0  0  0  0  0  0  0  0  0  0
   46.2310   33.9560   43.8300 N   0  0  0  0  0  0  0  0  0  0  0  0
   45.5410   34.0120   44.9460 C   0  0  0  0  0  0  0  0  0  0  0  0
   44.7640   35.0810   45.2150 N   0  0  0  0  0  0  0  0  0  0  0  0
   44.0640   36.9510   44.5660 H   0  0  0  0  0  0  0  0  0  0  0  0
   45.3220   36.9070   42.4740 H   0  0  0  0  0  0  0  0  0  0  0  0
   45.2700   33.1610   47.2470 C   0  0  0  0  0  3  0  0  0  0  0  0
   45.5950   32.9180   45.9290 C   0  0  0  0  0  0  0  0  0  0  0  0
   45.9730   31.6390   45.5400 C   0  0  0  0  0  0  0  0  0  0  0  0
   46.2210   31.4630   44.5230 H   0  0  0  0  0  0  0  0  0  0  0  0
   45.9940   30.6740   46.5380 C   0  0  0  0  0  0  0  0  0  0  0  0
   46.3340   29.3860   46.3410 N   0  0  0  0  0  0  0  0  0  0  0  0
   46.6330   28.8810   45.4550 H   0  0  0  0  0  0  0  0  0  0  0  0
   46.2450   28.7500   47.5090 C   0  0  0  0  0  0  0  0  0  0  0  0
   46.4440   27.7060   47.7220 H   0  0  0  0  0  0  0  0  0  0  0  0
   45.8350   29.6520   48.4900 C   0  0  0  0  0  3  0  0  0  0  0  0
   45.6760   30.8820   47.8580 C   0  0  0  0  0  0  0  0  0  0  0  0
   45.3030   32.1640   48.2300 C   0  0  0  0  0  3  0  0  0  0  0  0
  1  2  1  0  0  0  0
  3  1  1  0  0  0  0
  4  7  1  6  0  0  0
  4  1  1  0  0  0  0
  4  6  1  0  0  0  0
  4  5  1  0  0  0  0
  5  9  1  0  0  0  0
  6  5  1  0  0  0  0
  6 10  1  1  0  0  0
  8  5  1  0  0  0  0
 11 16  1  0  0  0  0
 11  6  1  0  0  0  0
 12 18  1  0  0  0  0
 12 11  1  0  0  0  0
 13 12  1  0  0  0  0
 13 14  1  0  0  0  0
 14 15  1  0  0  0  0
 15 22  1  0  0  0  0
 15 16  1  0  0  0  0
 15 23  1  0  0  0  0
 16 24  1  0  0  0  0
 17 12  1  0  0  0  0
 19 13  1  0  0  0  0
 20 13  1  0  0  0  0
 21 14  1  0  0  0  0
 25 16  1  0  0  0  0
 26  1  1  0  0  0  0
 26 31  1  0  0  0  0
 27 26  1  0  0  0  0
 28 26  1  0  0  0  0
 29 35  1  0  0  0  0
 29 34  1  0  0  0  0
 30 29  2  0  0  0  0
 31 30  1  0  0  0  0
 31 32  2  0  0  0  0
 32 33  1  0  0  0  0
 33 34  2  0  0  0  0
 33 38  1  0  0  0  0
 36 30  1  0  0  0  0
 37 48  1  0  0  0  0
 38 37  2  0  0  0  0
 39 38  1  0  0  0  0
 39 41  2  0  0  0  0
 40 39  1  0  0  0  0
 41 47  1  0  0  0  0
 42 41  1  0  0  0  0
 42 44  1  0  0  0  0
 43 42  1  0  0  0  0
 44 45  1  0  0  0  0
 44 46  2  0  0  0  0
 47 48  2  0  0  0  0
 47 46  1  0  0  0  0
M  END
>  <minimizedAffinity>
-5.71695471

>  <minimizedRMSD>
0.930380225

$$$$
