
 OpenBabel03252502003D

 37 41  0  0  0  0  0  0  0  0999 V2000
   47.1280   32.3620   47.9400 C   0  0  0  0  0  0  0  0  0  0  0  0
   46.6190   31.0760   48.0170 C   0  0  0  0  0  0  0  0  0  0  0  0
   45.8300   30.6780   46.9790 C   0  0  0  0  0  0  0  0  0  0  0  0
   45.5820   31.5070   45.9600 N   0  0  0  0  0  0  0  0  0  0  0  0
   46.0670   32.7370   45.8840 C   0  0  0  0  0  0  0  0  0  0  0  0
   46.8360   33.1250   46.8940 N   0  0  0  0  0  0  0  0  0  0  0  0
   47.7630   32.6760   48.7800 H   0  0  0  0  0  0  0  0  0  0  0  0
   45.9230   33.7890   44.8790 C   0  0  0  0  0  0  0  0  0  0  0  0
   44.9690   34.7470   44.9090 N   0  0  0  0  0  0  0  0  0  0  0  0
   44.8120   35.7150   44.0130 C   0  0  0  0  0  0  0  0  0  0  0  0
   45.6520   35.7990   42.9600 N   0  0  0  0  0  0  0  0  0  0  0  0
   46.6520   34.9010   42.8130 C   0  0  0  0  0  0  0  0  0  0  0  0
   47.5150   34.9870   41.7310 C   0  0  0  0  0  0  0  0  0  0  0  0
   48.5320   34.0880   41.5650 C   0  0  0  0  0  0  0  0  0  0  0  0
   48.6600   33.1020   42.5130 C   0  0  0  0  0  0  0  0  0  0  0  0
   47.7830   33.0500   43.5730 C   0  0  0  0  0  0  0  0  0  0  0  0
   46.7420   33.9340   43.7830 C   0  0  0  0  0  0  0  0  0  0  0  0
   44.0050   36.4380   44.1330 H   0  0  0  0  0  0  0  0  0  0  0  0
   47.3250   35.8000   41.0430 H   0  0  0  0  0  0  0  0  0  0  0  0
   49.1770   34.1800   40.7260 H   0  0  0  0  0  0  0  0  0  0  0  0
   49.4480   32.3610   42.4350 H   0  0  0  0  0  0  0  0  0  0  0  0
   47.9350   32.2380   44.3010 H   0  0  0  0  0  0  0  0  0  0  0  0
   44.1660   28.9630   46.1860 C   0  0  0  0  0  0  0  0  0  0  0  0
   45.2450   29.3600   46.9490 C   0  0  0  0  0  0  0  0  0  0  0  0
   45.8640   28.4310   47.7940 C   0  0  0  0  0  0  0  0  0  0  0  0
   46.7010   28.6770   48.4090 H   0  0  0  0  0  0  0  0  0  0  0  0
   45.3820   27.1390   47.8430 C   0  0  0  0  0  0  0  0  0  0  0  0
   45.7420   26.0380   48.5280 N   0  0  0  0  0  0  0  0  0  0  0  0
   46.5240   25.9600   49.2110 H   0  0  0  0  0  0  0  0  0  0  0  0
   44.9720   24.9770   48.2540 C   0  0  0  0  0  0  0  0  0  0  0  0
   45.0390   23.9790   48.6590 H   0  0  0  0  0  0  0  0  0  0  0  0
   44.0190   25.3830   47.3160 C   0  0  0  0  0  0  0  0  0  0  0  0
   44.3050   26.7150   47.0880 C   0  0  0  0  0  0  0  0  0  0  0  0
   43.7240   27.6800   46.2650 C   0  0  0  0  0  0  0  0  0  0  0  0
   46.9170   30.2530   49.1160 N   0  0  0  0  0  0  0  0  0  0  0  0
   46.9030   30.6200   50.1120 H   0  0  0  0  0  0  0  0  0  0  0  0
   47.1630   29.2450   48.9560 H   0  0  0  0  0  0  0  0  0  0  0  0
  1  2  1  0  0  0  0
  1  7  1  0  0  0  0
  2 35  1  0  0  0  0
  3  2  2  0  0  0  0
  4  3  1  0  0  0  0
  5  4  2  0  0  0  0
  5  6  1  0  0  0  0
  6  1  2  0  0  0  0
  8  9  1  0  0  0  0
  8  5  1  0  0  0  0
 10 18  1  0  0  0  0
 10  9  2  0  0  0  0
 11 10  1  0  0  0  0
 12 11  2  0  0  0  0
 12 17  1  0  0  0  0
 13 12  1  0  0  0  0
 14 13  2  0  0  0  0
 14 15  1  0  0  0  0
 15 16  2  0  0  0  0
 16 17  1  0  0  0  0
 16 22  1  0  0  0  0
 17  8  2  0  0  0  0
 19 13  1  0  0  0  0
 20 14  1  0  0  0  0
 21 15  1  0  0  0  0
 23 34  2  0  0  0  0
 23 24  1  0  0  0  0
 24  3  1  0  0  0  0
 24 25  2  0  0  0  0
 25 27  1  0  0  0  0
 25 26  1  0  0  0  0
 27 28  1  0  0  0  0
 28 29  1  0  0  0  0
 30 28  1  0  0  0  0
 30 31  1  0  0  0  0
 32 30  2  0  0  0  0
 33 32  1  0  0  0  0
 33 27  2  0  0  0  0
 34 33  1  0  0  0  0
 35 36  1  0  0  0  0
 37 35  1  0  0  0  0
M  END
>  <minimizedAffinity>
-7.11861134

>  <minimizedRMSD>
0.798556805

$$$$
