
 OpenBabel03252502463D

 48 52  0  0  1  0  0  0  0  0999 V2000
   48.1110   35.6450   41.7760 C   0  0  0  0  0  0  0  0  0  0  0  0
   48.2090   36.0240   42.8140 H   0  0  0  0  0  0  0  0  0  0  0  0
   48.0800   36.5610   41.1400 H   0  0  0  0  0  0  0  0  0  0  0  0
   49.2810   34.7670   41.4730 C   0  0  1  0  0  0  0  0  0  0  0  0
   50.2750   34.5320   42.5690 C   0  0  0  0  0  0  0  0  0  0  0  0
   49.3390   33.4670   42.1300 C   0  0  2  0  0  0  0  0  0  0  0  0
   49.7190   34.9440   40.4960 H   0  0  0  0  0  0  0  0  0  0  0  0
   51.3560   34.4980   42.3390 H   0  0  0  0  0  0  0  0  0  0  0  0
   50.0870   35.0610   43.5360 H   0  0  0  0  0  0  0  0  0  0  0  0
   48.6600   33.1110   42.8960 H   0  0  0  0  0  0  0  0  0  0  0  0
   49.9810   32.4400   41.3130 N   0  0  0  0  0  0  0  0  0  0  0  0
   49.3520   32.1950   40.0670 C   0  0  0  0  0  0  0  0  0  0  0  0
   50.1650   31.0980   39.4020 C   0  0  0  0  0  0  0  0  0  0  0  0
   50.1260   29.8890   40.1450 N   0  0  0  0  0  0  0  0  0  0  0  0
   49.9400   30.0720   41.5720 C   0  0  0  0  0  0  0  0  0  0  0  0
   50.5840   31.3880   42.0120 C   0  0  0  0  0  0  0  0  0  0  0  0
   49.4400   33.0940   39.4120 H   0  0  0  0  0  0  0  0  0  0  0  0
   48.3000   31.9130   40.2120 H   0  0  0  0  0  0  0  0  0  0  0  0
   49.7460   30.9410   38.3790 H   0  0  0  0  0  0  0  0  0  0  0  0
   51.1710   31.5310   39.2400 H   0  0  0  0  0  0  0  0  0  0  0  0
   50.9130   29.2590   39.9120 H   0  0  0  0  0  0  0  0  0  0  0  0
   48.8740   30.1560   41.8270 H   0  0  0  0  0  0  0  0  0  0  0  0
   50.3940   29.2090   42.0640 H   0  0  0  0  0  0  0  0  0  0  0  0
   50.5040   31.4980   43.0940 H   0  0  0  0  0  0  0  0  0  0  0  0
   51.6790   31.2880   41.7780 H   0  0  0  0  0  0  0  0  0  0  0  0
   46.8820   34.7880   41.6600 C   0  0  0  0  0  0  0  0  0  0  0  0
   46.2150   35.3160   40.9190 H   0  0  0  0  0  0  0  0  0  0  0  0
   47.0110   33.7900   41.2750 H   0  0  0  0  0  0  0  0  0  0  0  0
   44.4490   35.9130   44.2830 C   0  0  0  0  0  0  0  0  0  0  0  0
   45.1560   35.8340   43.0620 C   0  0  0  0  0  0  0  0  0  0  0  0
   46.1210   34.8810   42.9470 C   0  0  0  0  0  0  0  0  0  0  0  0
   46.3700   34.0480   43.9980 N   0  0  0  0  0  0  0  0  0  0  0  0
   45.7080   34.1310   45.1290 C   0  0  0  0  0  0  0  0  0  0  0  0
   44.7430   35.0580   45.2880 N   0  0  0  0  0  0  0  0  0  0  0  0
   43.6760   36.6490   44.4250 H   0  0  0  0  0  0  0  0  0  0  0  0
   44.8720   36.5460   42.3000 H   0  0  0  0  0  0  0  0  0  0  0  0
   45.2080   33.2460   47.3780 C   0  0  0  0  0  3  0  0  0  0  0  0
   45.9960   33.2190   46.2480 C   0  0  0  0  0  0  0  0  0  0  0  0
   47.0600   32.3280   46.1750 C   0  0  0  0  0  0  0  0  0  0  0  0
   47.6620   32.3160   45.2990 H   0  0  0  0  0  0  0  0  0  0  0  0
   47.2530   31.5080   47.2810 C   0  0  0  0  0  0  0  0  0  0  0  0
   48.2320   30.5900   47.3810 N   0  0  0  0  0  0  0  0  0  0  0  0
   48.9980   30.3210   46.6950 H   0  0  0  0  0  0  0  0  0  0  0  0
   48.1200   29.9930   48.5670 C   0  0  0  0  0  0  0  0  0  0  0  0
   48.7360   29.2060   48.9830 H   0  0  0  0  0  0  0  0  0  0  0  0
   47.0350   30.5410   49.2520 C   0  0  0  0  0  3  0  0  0  0  0  0
   46.4860   31.5110   48.4200 C   0  0  0  0  0  0  0  0  0  0  0  0
   45.4290   32.4060   48.4760 C   0  0  0  0  0  3  0  0  0  0  0  0
  1  2  1  0  0  0  0
  3  1  1  0  0  0  0
  4  7  1  6  0  0  0
  4  1  1  0  0  0  0
  4  6  1  0  0  0  0
  4  5  1  0  0  0  0
  5  9  1  0  0  0  0
  6  5  1  0  0  0  0
  6 10  1  1  0  0  0
  8  5  1  0  0  0  0
 11 16  1  0  0  0  0
 11  6  1  0  0  0  0
 12 18  1  0  0  0  0
 12 11  1  0  0  0  0
 13 12  1  0  0  0  0
 13 14  1  0  0  0  0
 14 15  1  0  0  0  0
 15 22  1  0  0  0  0
 15 16  1  0  0  0  0
 15 23  1  0  0  0  0
 16 24  1  0  0  0  0
 17 12  1  0  0  0  0
 19 13  1  0  0  0  0
 20 13  1  0  0  0  0
 21 14  1  0  0  0  0
 25 16  1  0  0  0  0
 26  1  1  0  0  0  0
 26 31  1  0  0  0  0
 27 26  1  0  0  0  0
 28 26  1  0  0  0  0
 29 35  1  0  0  0  0
 29 34  1  0  0  0  0
 30 29  2  0  0  0  0
 31 30  1  0  0  0  0
 31 32  2  0  0  0  0
 32 33  1  0  0  0  0
 33 34  2  0  0  0  0
 33 38  1  0  0  0  0
 36 30  1  0  0  0  0
 37 48  1  0  0  0  0
 38 37  2  0  0  0  0
 39 38  1  0  0  0  0
 39 41  2  0  0  0  0
 40 39  1  0  0  0  0
 41 42  1  0  0  0  0
 41 47  1  0  0  0  0
 42 44  1  0  0  0  0
 43 42  1  0  0  0  0
 44 45  1  0  0  0  0
 44 46  2  0  0  0  0
 47 48  2  0  0  0  0
 47 46  1  0  0  0  0
M  END
>  <minimizedAffinity>
-6.01595354

>  <minimizedRMSD>
0.69036752

$$$$
