
 OpenBabel03242513103D

 44 49  0  0  0  0  0  0  0  0999 V2000
   39.0770   27.8520   40.2870 C   0  0  0  0  0  0  0  0  0  0  0  0
   38.5930   27.3380   41.4970 C   0  0  0  0  0  0  0  0  0  0  0  0
   38.0590   28.2440   42.3910 C   0  0  0  0  0  0  0  0  0  0  0  0
   38.0450   29.5610   42.0300 N   0  0  0  0  0  0  0  0  0  0  0  0
   38.5120   30.0330   40.8700 C   0  0  0  0  0  0  0  0  0  0  0  0
   39.0370   29.1700   39.9840 N   0  0  0  0  0  0  0  0  0  0  0  0
   39.4980   27.1480   39.5780 H   0  0  0  0  0  0  0  0  0  0  0  0
   37.3590   31.9940   39.9470 C   0  0  0  0  0  0  0  0  0  0  0  0
   38.4470   31.4520   40.5900 C   0  0  0  0  0  0  0  0  0  0  0  0
   39.5490   32.2240   41.0090 C   0  0  0  0  0  0  0  0  0  0  0  0
   39.5500   33.5950   40.7700 C   0  0  0  0  0  0  0  0  0  0  0  0
   40.3970   34.6220   41.0160 N   0  0  0  0  0  0  0  0  0  0  0  0
   39.8270   35.7660   40.5300 C   0  0  0  0  0  0  0  0  0  0  0  0
   38.6380   35.4230   39.9910 N   0  0  0  0  0  0  0  0  0  0  0  0
   38.4480   34.1010   40.1270 C   0  0  0  0  0  0  0  0  0  0  0  0
   37.3520   33.3670   39.7040 C   0  0  0  0  0  0  0  0  0  0  0  0
   36.5500   31.3400   39.6540 H   0  0  0  0  0  0  0  0  0  0  0  0
   40.4010   31.7860   41.5140 H   0  0  0  0  0  0  0  0  0  0  0  0
   41.3210   34.5230   41.4980 H   0  0  0  0  0  0  0  0  0  0  0  0
   40.2640   36.7580   40.5770 H   0  0  0  0  0  0  0  0  0  0  0  0
   36.5100   33.8190   39.2010 H   0  0  0  0  0  0  0  0  0  0  0  0
   37.5300   27.7650   43.6890 C   0  0  0  0  0  0  0  0  0  0  0  0
   37.0980   28.8510   44.4680 F   0  0  0  0  0  0  0  0  0  0  0  0
   36.4240   26.9710   43.4940 F   0  0  0  0  0  0  0  0  0  0  0  0
   38.5330   27.0910   44.3440 F   0  0  0  0  0  0  0  0  0  0  0  0
   38.6690   26.0030   41.7260 O   0  0  0  0  0  0  0  0  0  0  0  0
   37.9090   25.0900   41.0400 C   0  0  0  0  0  0  0  0  0  0  0  0
   38.7100   23.9490   41.0330 C   0  0  0  0  0  0  0  0  0  0  0  0
   37.6770   22.7330   40.1090 S   0  0  0  0  0  0  0  0  0  0  0  0
   36.3280   23.9970   39.8920 C   0  0  0  0  0  0  0  0  0  0  0  0
   36.8000   24.8460   40.4160 N   0  0  0  0  0  0  0  0  0  0  0  0
   39.7160   23.4560   41.3500 H   0  0  0  0  0  0  0  0  0  0  0  0
   34.8450   24.0800   37.9040 C   0  0  0  0  0  3  0  0  0  0  0  0
   35.0900   23.6250   39.1610 C   0  0  0  0  0  0  0  0  0  0  0  0
   34.2810   22.8130   39.8840 C   0  0  0  0  0  0  0  0  0  0  0  0
   34.4840   22.4540   40.8840 H   0  0  0  0  0  0  0  0  0  0  0  0
   33.0880   22.3820   39.3320 C   0  0  0  0  0  0  0  0  0  0  0  0
   32.0900   21.5930   39.7710 N   0  0  0  0  0  0  0  0  0  0  0  0
   32.0820   21.1360   40.7240 H   0  0  0  0  0  0  0  0  0  0  0  0
   31.1320   21.4890   38.8200 C   0  0  0  0  0  0  0  0  0  0  0  0
   30.2470   20.8980   38.9820 H   0  0  0  0  0  0  0  0  0  0  0  0
   31.5580   22.2470   37.7440 C   0  0  0  0  0  3  0  0  0  0  0  0
   32.7850   22.8190   38.0410 C   0  0  0  0  0  0  0  0  0  0  0  0
   33.6480   23.6510   37.3450 C   0  0  0  0  0  3  0  0  0  0  0  0
  1  2  1  0  0  0  0
  2 26  1  0  0  0  0
  2  3  2  0  0  0  0
  3 22  1  0  0  0  0
  4  3  1  0  0  0  0
  5  4  2  0  0  0  0
  6  1  2  0  0  0  0
  6  5  1  0  0  0  0
  7  1  1  0  0  0  0
  8  9  1  0  0  0  0
  9  5  1  0  0  0  0
  9 10  2  0  0  0  0
 10 18  1  0  0  0  0
 11 10  1  0  0  0  0
 11 12  1  0  0  0  0
 12 19  1  0  0  0  0
 13 20  1  0  0  0  0
 13 12  1  0  0  0  0
 14 15  1  0  0  0  0
 14 13  2  0  0  0  0
 15 11  2  0  0  0  0
 16  8  2  0  0  0  0
 16 15  1  0  0  0  0
 17  8  1  0  0  0  0
 21 16  1  0  0  0  0
 22 25  1  0  0  0  0
 22 23  1  0  0  0  0
 24 22  1  0  0  0  0
 27 26  1  0  0  0  0
 28 27  2  0  0  0  0
 28 32  1  0  0  0  0
 29 28  1  0  0  0  0
 30 29  1  0  0  0  0
 30 31  2  0  0  0  0
 31 27  1  0  0  0  0
 33 34  1  0  0  0  0
 34 35  2  0  0  0  0
 34 30  1  0  0  0  0
 35 36  1  0  0  0  0
 37 38  1  0  0  0  0
 37 35  1  0  0  0  0
 38 39  1  0  0  0  0
 40 41  1  0  0  0  0
 40 38  1  0  0  0  0
 42 43  1  0  0  0  0
 42 40  2  0  0  0  0
 43 37  2  0  0  0  0
 44 33  2  0  0  0  0
 44 43  1  0  0  0  0
M  END
>  <minimizedAffinity>
-7.70082664

$$$$

 OpenBabel03242513103D

 44 49  0  0  0  0  0  0  0  0999 V2000
   39.0800   27.8550   40.3290 C   0  0  0  0  0  0  0  0  0  0  0  0
   38.5980   27.3470   41.5420 C   0  0  0  0  0  0  0  0  0  0  0  0
   38.0630   28.2580   42.4300 C   0  0  0  0  0  0  0  0  0  0  0  0
   38.0440   29.5730   42.0610 N   0  0  0  0  0  0  0  0  0  0  0  0
   38.5100   30.0390   40.8970 C   0  0  0  0  0  0  0  0  0  0  0  0
   39.0360   29.1710   40.0160 N   0  0  0  0  0  0  0  0  0  0  0  0
   39.5030   27.1480   39.6240 H   0  0  0  0  0  0  0  0  0  0  0  0
   37.3360   31.9950   39.9910 C   0  0  0  0  0  0  0  0  0  0  0  0
   38.4400   31.4550   40.6070 C   0  0  0  0  0  0  0  0  0  0  0  0
   39.5560   32.2270   40.9890 C   0  0  0  0  0  0  0  0  0  0  0  0
   39.5530   33.5970   40.7390 C   0  0  0  0  0  0  0  0  0  0  0  0
   40.4090   34.6230   40.9540 N   0  0  0  0  0  0  0  0  0  0  0  0
   39.8280   35.7640   40.4740 C   0  0  0  0  0  0  0  0  0  0  0  0
   38.6250   35.4210   39.9720 N   0  0  0  0  0  0  0  0  0  0  0  0
   38.4350   34.1000   40.1230 C   0  0  0  0  0  0  0  0  0  0  0  0
   37.3260   33.3660   39.7370 C   0  0  0  0  0  0  0  0  0  0  0  0
   36.5180   31.3410   39.7260 H   0  0  0  0  0  0  0  0  0  0  0  0
   40.4200   31.7910   41.4740 H   0  0  0  0  0  0  0  0  0  0  0  0
   41.3460   34.5250   41.4100 H   0  0  0  0  0  0  0  0  0  0  0  0
   40.2690   36.7560   40.5010 H   0  0  0  0  0  0  0  0  0  0  0  0
   36.4710   33.8160   39.2540 H   0  0  0  0  0  0  0  0  0  0  0  0
   37.5360   27.7870   43.7320 C   0  0  0  0  0  0  0  0  0  0  0  0
   37.1230   28.8780   44.5140 F   0  0  0  0  0  0  0  0  0  0  0  0
   36.4190   27.0080   43.5450 F   0  0  0  0  0  0  0  0  0  0  0  0
   38.5350   27.1000   44.3800 F   0  0  0  0  0  0  0  0  0  0  0  0
   38.6790   26.0140   41.7810 O   0  0  0  0  0  0  0  0  0  0  0  0
   37.9160   25.0950   41.1060 C   0  0  0  0  0  0  0  0  0  0  0  0
   38.7270   23.9620   41.0850 C   0  0  0  0  0  0  0  0  0  0  0  0
   37.6910   22.7370   40.1760 S   0  0  0  0  0  0  0  0  0  0  0  0
   36.3270   23.9890   39.9820 C   0  0  0  0  0  0  0  0  0  0  0  0
   36.7990   24.8420   40.4990 N   0  0  0  0  0  0  0  0  0  0  0  0
   39.7420   23.4770   41.3860 H   0  0  0  0  0  0  0  0  0  0  0  0
   34.1780   22.7590   39.8300 C   0  0  0  0  0  3  0  0  0  0  0  0
   35.0800   23.6060   39.2710 C   0  0  0  0  0  0  0  0  0  0  0  0
   34.9760   24.1880   38.0520 C   0  0  0  0  0  0  0  0  0  0  0  0
   35.6990   24.8630   37.6150 H   0  0  0  0  0  0  0  0  0  0  0  0
   33.8650   23.9250   37.2710 C   0  0  0  0  0  0  0  0  0  0  0  0
   33.4670   24.3310   36.0510 N   0  0  0  0  0  0  0  0  0  0  0  0
   34.0240   24.9930   35.4440 H   0  0  0  0  0  0  0  0  0  0  0  0
   32.2750   23.7670   35.7430 C   0  0  0  0  0  0  0  0  0  0  0  0
   31.7890   23.9690   34.8050 H   0  0  0  0  0  0  0  0  0  0  0  0
   31.9200   22.9780   36.8230 C   0  0  0  0  0  3  0  0  0  0  0  0
   32.9030   23.0600   37.7960 C   0  0  0  0  0  0  0  0  0  0  0  0
   33.0600   22.4910   39.0500 C   0  0  0  0  0  3  0  0  0  0  0  0
  1  2  1  0  0  0  0
  2 26  1  0  0  0  0
  2  3  2  0  0  0  0
  3 22  1  0  0  0  0
  4  3  1  0  0  0  0
  5  4  2  0  0  0  0
  6  1  2  0  0  0  0
  6  5  1  0  0  0  0
  7  1  1  0  0  0  0
  8  9  1  0  0  0  0
  9  5  1  0  0  0  0
  9 10  2  0  0  0  0
 10 18  1  0  0  0  0
 11 12  1  0  0  0  0
 11 10  1  0  0  0  0
 12 19  1  0  0  0  0
 13 20  1  0  0  0  0
 13 12  1  0  0  0  0
 14 15  1  0  0  0  0
 14 13  2  0  0  0  0
 15 11  2  0  0  0  0
 16  8  2  0  0  0  0
 16 15  1  0  0  0  0
 17  8  1  0  0  0  0
 21 16  1  0  0  0  0
 22 25  1  0  0  0  0
 22 23  1  0  0  0  0
 24 22  1  0  0  0  0
 27 26  1  0  0  0  0
 28 27  2  0  0  0  0
 28 32  1  0  0  0  0
 29 28  1  0  0  0  0
 30 29  1  0  0  0  0
 30 31  2  0  0  0  0
 31 27  1  0  0  0  0
 34 33  1  0  0  0  0
 34 30  1  0  0  0  0
 35 34  2  0  0  0  0
 36 35  1  0  0  0  0
 37 43  2  0  0  0  0
 37 35  1  0  0  0  0
 38 37  1  0  0  0  0
 39 38  1  0  0  0  0
 40 38  1  0  0  0  0
 40 42  2  0  0  0  0
 41 40  1  0  0  0  0
 42 43  1  0  0  0  0
 43 44  1  0  0  0  0
 44 33  2  0  0  0  0
M  END
>  <minimizedAffinity>
-7.43852711

$$$$

 OpenBabel03242513103D

 44 49  0  0  0  0  0  0  0  0999 V2000
   37.1980   27.9160   40.0110 C   0  0  0  0  0  0  0  0  0  0  0  0
   37.1160   27.4280   41.3210 C   0  0  0  0  0  0  0  0  0  0  0  0
   37.2880   28.3430   42.3390 C   0  0  0  0  0  0  0  0  0  0  0  0
   37.5220   29.6430   41.9940 N   0  0  0  0  0  0  0  0  0  0  0  0
   37.5970   30.0910   40.7370 C   0  0  0  0  0  0  0  0  0  0  0  0
   37.4330   29.2190   39.7280 N   0  0  0  0  0  0  0  0  0  0  0  0
   37.0650   27.2050   39.2030 H   0  0  0  0  0  0  0  0  0  0  0  0
   36.9560   32.2530   39.7650 C   0  0  0  0  0  0  0  0  0  0  0  0
   37.8500   31.4930   40.4840 C   0  0  0  0  0  0  0  0  0  0  0  0
   39.0470   32.0180   41.0110 C   0  0  0  0  0  0  0  0  0  0  0  0
   39.3510   33.3610   40.8040 C   0  0  0  0  0  0  0  0  0  0  0  0
   40.3670   34.1890   41.1440 N   0  0  0  0  0  0  0  0  0  0  0  0
   40.0890   35.4280   40.6370 C   0  0  0  0  0  0  0  0  0  0  0  0
   38.9070   35.3420   39.9940 N   0  0  0  0  0  0  0  0  0  0  0  0
   38.4370   34.0870   40.0830 C   0  0  0  0  0  0  0  0  0  0  0  0
   37.2540   33.5980   39.5530 C   0  0  0  0  0  0  0  0  0  0  0  0
   36.0580   31.7820   39.3910 H   0  0  0  0  0  0  0  0  0  0  0  0
   39.7430   31.4110   41.5760 H   0  0  0  0  0  0  0  0  0  0  0  0
   41.2060   33.8980   41.6990 H   0  0  0  0  0  0  0  0  0  0  0  0
   40.7160   36.3070   40.7430 H   0  0  0  0  0  0  0  0  0  0  0  0
   36.5700   34.2180   38.9920 H   0  0  0  0  0  0  0  0  0  0  0  0
   37.2130   27.8910   43.7480 C   0  0  0  0  0  0  0  0  0  0  0  0
   37.2160   28.9970   44.6150 F   0  0  0  0  0  0  0  0  0  0  0  0
   36.0310   27.2290   43.9800 F   0  0  0  0  0  0  0  0  0  0  0  0
   38.3040   27.0940   44.0050 F   0  0  0  0  0  0  0  0  0  0  0  0
   36.8770   26.1070   41.5210 O   0  0  0  0  0  0  0  0  0  0  0  0
   37.5170   25.1250   40.8090 C   0  0  0  0  0  0  0  0  0  0  0  0
   36.6380   24.0460   40.8950 C   0  0  0  0  0  0  0  0  0  0  0  0
   37.5090   22.7340   39.9350 S   0  0  0  0  0  0  0  0  0  0  0  0
   38.9250   23.8890   39.5820 C   0  0  0  0  0  0  0  0  0  0  0  0
   38.5560   24.7830   40.1140 N   0  0  0  0  0  0  0  0  0  0  0  0
   35.6260   23.6360   41.2990 H   0  0  0  0  0  0  0  0  0  0  0  0
   40.0440   22.2070   38.1430 C   0  0  0  0  0  3  0  0  0  0  0  0
   40.0760   23.4090   38.7750 C   0  0  0  0  0  0  0  0  0  0  0  0
   41.1050   24.2900   38.7580 C   0  0  0  0  0  0  0  0  0  0  0  0
   41.1200   25.2460   39.2640 H   0  0  0  0  0  0  0  0  0  0  0  0
   42.2480   23.9790   38.0450 C   0  0  0  0  0  0  0  0  0  0  0  0
   43.4140   24.6160   37.8310 N   0  0  0  0  0  0  0  0  0  0  0  0
   43.6440   25.5670   38.2320 H   0  0  0  0  0  0  0  0  0  0  0  0
   44.2150   23.8600   37.0420 C   0  0  0  0  0  0  0  0  0  0  0  0
   45.1950   24.1990   36.7570 H   0  0  0  0  0  0  0  0  0  0  0  0
   43.5110   22.7050   36.7560 C   0  0  0  0  0  3  0  0  0  0  0  0
   42.2730   22.7550   37.3750 C   0  0  0  0  0  0  0  0  0  0  0  0
   41.1910   21.8890   37.4260 C   0  0  0  0  0  3  0  0  0  0  0  0
  1  2  1  0  0  0  0
  2 26  1  0  0  0  0
  2  3  2  0  0  0  0
  3 22  1  0  0  0  0
  4  3  1  0  0  0  0
  5  4  2  0  0  0  0
  6  1  2  0  0  0  0
  6  5  1  0  0  0  0
  7  1  1  0  0  0  0
  8  9  1  0  0  0  0
  9  5  1  0  0  0  0
  9 10  2  0  0  0  0
 10 18  1  0  0  0  0
 11 10  1  0  0  0  0
 11 12  1  0  0  0  0
 12 19  1  0  0  0  0
 13 20  1  0  0  0  0
 13 12  1  0  0  0  0
 14 15  1  0  0  0  0
 14 13  2  0  0  0  0
 15 11  2  0  0  0  0
 16  8  2  0  0  0  0
 16 15  1  0  0  0  0
 17  8  1  0  0  0  0
 21 16  1  0  0  0  0
 22 24  1  0  0  0  0
 22 25  1  0  0  0  0
 22 23  1  0  0  0  0
 27 28  2  0  0  0  0
 27 26  1  0  0  0  0
 28 32  1  0  0  0  0
 29 28  1  0  0  0  0
 30 29  1  0  0  0  0
 30 31  2  0  0  0  0
 31 27  1  0  0  0  0
 33 34  1  0  0  0  0
 34 30  1  0  0  0  0
 35 34  2  0  0  0  0
 35 36  1  0  0  0  0
 37 35  1  0  0  0  0
 38 37  1  0  0  0  0
 38 39  1  0  0  0  0
 40 38  1  0  0  0  0
 41 40  1  0  0  0  0
 42 40  2  0  0  0  0
 42 43  1  0  0  0  0
 43 44  1  0  0  0  0
 43 37  2  0  0  0  0
 44 33  2  0  0  0  0
M  END
>  <minimizedAffinity>
-7.20669842

$$$$

 OpenBabel03242513103D

 44 49  0  0  0  0  0  0  0  0999 V2000
   37.1600   28.0120   39.9000 C   0  0  0  0  0  0  0  0  0  0  0  0
   37.0760   27.4960   41.2000 C   0  0  0  0  0  0  0  0  0  0  0  0
   37.2690   28.3860   42.2370 C   0  0  0  0  0  0  0  0  0  0  0  0
   37.5240   29.6900   41.9200 N   0  0  0  0  0  0  0  0  0  0  0  0
   37.6010   30.1640   40.6720 C   0  0  0  0  0  0  0  0  0  0  0  0
   37.4170   29.3160   39.6450 N   0  0  0  0  0  0  0  0  0  0  0  0
   37.0110   27.3210   39.0780 H   0  0  0  0  0  0  0  0  0  0  0  0
   36.9860   32.3600   39.7650 C   0  0  0  0  0  0  0  0  0  0  0  0
   37.8770   31.5660   40.4480 C   0  0  0  0  0  0  0  0  0  0  0  0
   39.0940   32.0540   40.9650 C   0  0  0  0  0  0  0  0  0  0  0  0
   39.4210   33.3960   40.7840 C   0  0  0  0  0  0  0  0  0  0  0  0
   40.4600   34.1940   41.1250 N   0  0  0  0  0  0  0  0  0  0  0  0
   40.1970   35.4510   40.6540 C   0  0  0  0  0  0  0  0  0  0  0  0
   39.0020   35.4040   40.0310 N   0  0  0  0  0  0  0  0  0  0  0  0
   38.5080   34.1570   40.0990 C   0  0  0  0  0  0  0  0  0  0  0  0
   37.3060   33.7050   39.5800 C   0  0  0  0  0  0  0  0  0  0  0  0
   36.0720   31.9170   39.3970 H   0  0  0  0  0  0  0  0  0  0  0  0
   39.7880   31.4200   41.5010 H   0  0  0  0  0  0  0  0  0  0  0  0
   41.3030   33.8740   41.6560 H   0  0  0  0  0  0  0  0  0  0  0  0
   40.8430   36.3150   40.7690 H   0  0  0  0  0  0  0  0  0  0  0  0
   36.6240   34.3510   39.0470 H   0  0  0  0  0  0  0  0  0  0  0  0
   37.1930   27.9050   43.6360 C   0  0  0  0  0  0  0  0  0  0  0  0
   37.2210   28.9910   44.5270 F   0  0  0  0  0  0  0  0  0  0  0  0
   36.0000   27.2600   43.8600 F   0  0  0  0  0  0  0  0  0  0  0  0
   38.2700   27.0830   43.8700 F   0  0  0  0  0  0  0  0  0  0  0  0
   36.8150   26.1760   41.3730 O   0  0  0  0  0  0  0  0  0  0  0  0
   37.5520   25.1920   40.7650 C   0  0  0  0  0  0  0  0  0  0  0  0
   36.8770   24.0250   41.1180 C   0  0  0  0  0  0  0  0  0  0  0  0
   37.8770   22.7120   40.2950 S   0  0  0  0  0  0  0  0  0  0  0  0
   39.0470   23.9880   39.6110 C   0  0  0  0  0  0  0  0  0  0  0  0
   38.5760   24.8950   40.0270 N   0  0  0  0  0  0  0  0  0  0  0  0
   35.9830   23.5440   41.6890 H   0  0  0  0  0  0  0  0  0  0  0  0
   41.3010   24.3280   38.6320 C   0  0  0  0  0  3  0  0  0  0  0  0
   40.1930   23.5530   38.7740 C   0  0  0  0  0  0  0  0  0  0  0  0
   39.9920   22.3410   38.2010 C   0  0  0  0  0  0  0  0  0  0  0  0
   39.1070   21.7310   38.3210 H   0  0  0  0  0  0  0  0  0  0  0  0
   40.9760   21.8050   37.3910 C   0  0  0  0  0  0  0  0  0  0  0  0
   41.0860   20.6590   36.6950 N   0  0  0  0  0  0  0  0  0  0  0  0
   40.3360   19.9150   36.6690 H   0  0  0  0  0  0  0  0  0  0  0  0
   42.2790   20.6200   36.0550 C   0  0  0  0  0  0  0  0  0  0  0  0
   42.5560   19.7810   35.4420 H   0  0  0  0  0  0  0  0  0  0  0  0
   42.9360   21.7960   36.3710 C   0  0  0  0  0  3  0  0  0  0  0  0
   42.1370   22.5580   37.2100 C   0  0  0  0  0  0  0  0  0  0  0  0
   42.2930   23.7930   37.8190 C   0  0  0  0  0  3  0  0  0  0  0  0
  1  2  1  0  0  0  0
  2 26  1  0  0  0  0
  2  3  2  0  0  0  0
  3 22  1  0  0  0  0
  4  3  1  0  0  0  0
  5  4  2  0  0  0  0
  6  1  2  0  0  0  0
  6  5  1  0  0  0  0
  7  1  1  0  0  0  0
  8  9  1  0  0  0  0
  9  5  1  0  0  0  0
  9 10  2  0  0  0  0
 10 18  1  0  0  0  0
 11 10  1  0  0  0  0
 11 12  1  0  0  0  0
 12 19  1  0  0  0  0
 13 20  1  0  0  0  0
 13 12  1  0  0  0  0
 14 15  1  0  0  0  0
 14 13  2  0  0  0  0
 15 11  2  0  0  0  0
 16  8  2  0  0  0  0
 16 15  1  0  0  0  0
 17  8  1  0  0  0  0
 21 16  1  0  0  0  0
 22 24  1  0  0  0  0
 22 25  1  0  0  0  0
 22 23  1  0  0  0  0
 27 28  2  0  0  0  0
 27 26  1  0  0  0  0
 28 32  1  0  0  0  0
 29 28  1  0  0  0  0
 30 31  2  0  0  0  0
 30 29  1  0  0  0  0
 31 27  1  0  0  0  0
 33 34  1  0  0  0  0
 34 30  1  0  0  0  0
 35 36  1  0  0  0  0
 35 34  2  0  0  0  0
 37 35  1  0  0  0  0
 38 37  1  0  0  0  0
 39 38  1  0  0  0  0
 40 42  2  0  0  0  0
 40 38  1  0  0  0  0
 41 40  1  0  0  0  0
 42 43  1  0  0  0  0
 43 37  2  0  0  0  0
 43 44  1  0  0  0  0
 44 33  2  0  0  0  0
M  END
>  <minimizedAffinity>
-7.15088987

$$$$

 OpenBabel03242513103D

 44 49  0  0  0  0  0  0  0  0999 V2000
   39.8930   25.1360   42.1850 C   0  0  0  0  0  0  0  0  0  0  0  0
   39.2700   26.2050   42.8410 C   0  0  0  0  0  0  0  0  0  0  0  0
   37.9070   26.3340   42.6670 C   0  0  0  0  0  0  0  0  0  0  0  0
   37.2760   25.4170   41.8750 N   0  0  0  0  0  0  0  0  0  0  0  0
   37.8890   24.4020   41.2570 C   0  0  0  0  0  0  0  0  0  0  0  0
   39.2160   24.2560   41.4110 N   0  0  0  0  0  0  0  0  0  0  0  0
   40.9640   25.0260   42.3150 H   0  0  0  0  0  0  0  0  0  0  0  0
   35.8560   23.8110   40.0160 C   0  0  0  0  0  0  0  0  0  0  0  0
   37.1230   23.4860   40.4400 C   0  0  0  0  0  0  0  0  0  0  0  0
   37.7470   22.2650   40.1150 C   0  0  0  0  0  0  0  0  0  0  0  0
   37.0640   21.3380   39.3320 C   0  0  0  0  0  0  0  0  0  0  0  0
   37.3280   20.1070   38.8350 N   0  0  0  0  0  0  0  0  0  0  0  0
   36.2360   19.6970   38.1210 C   0  0  0  0  0  0  0  0  0  0  0  0
   35.3180   20.6830   38.1920 N   0  0  0  0  0  0  0  0  0  0  0  0
   35.8030   21.6970   38.9270 C   0  0  0  0  0  0  0  0  0  0  0  0
   35.1650   22.8880   39.2300 C   0  0  0  0  0  0  0  0  0  0  0  0
   35.4410   24.7660   40.3040 H   0  0  0  0  0  0  0  0  0  0  0  0
   38.7460   22.0200   40.4550 H   0  0  0  0  0  0  0  0  0  0  0  0
   38.2240   19.5870   38.9890 H   0  0  0  0  0  0  0  0  0  0  0  0
   36.1420   18.7500   37.6000 H   0  0  0  0  0  0  0  0  0  0  0  0
   34.1680   23.1180   38.8840 H   0  0  0  0  0  0  0  0  0  0  0  0
   37.1860   27.4430   43.3330 C   0  0  0  0  0  0  0  0  0  0  0  0
   35.8230   27.1300   43.4630 F   0  0  0  0  0  0  0  0  0  0  0  0
   37.6580   27.6260   44.6110 F   0  0  0  0  0  0  0  0  0  0  0  0
   37.3330   28.5760   42.5680 F   0  0  0  0  0  0  0  0  0  0  0  0
   40.0190   27.0440   43.5990 O   0  0  0  0  0  0  0  0  0  0  0  0
   40.5840   28.1880   43.0960 C   0  0  0  0  0  0  0  0  0  0  0  0
   41.9520   27.9540   43.2300 C   0  0  0  0  0  0  0  0  0  0  0  0
   42.6980   29.4970   42.5510 S   0  0  0  0  0  0  0  0  0  0  0  0
   41.0090   30.1970   42.2010 C   0  0  0  0  0  0  0  0  0  0  0  0
   40.3940   29.3560   42.5670 N   0  0  0  0  0  0  0  0  0  0  0  0
   42.7920   27.2250   43.5760 H   0  0  0  0  0  0  0  0  0  0  0  0
   41.9870   32.2610   41.2340 C   0  0  0  0  0  3  0  0  0  0  0  0
   40.8890   31.5460   41.5920 C   0  0  0  0  0  0  0  0  0  0  0  0
   39.6010   31.9420   41.4510 C   0  0  0  0  0  0  0  0  0  0  0  0
   38.7330   31.3650   41.7380 H   0  0  0  0  0  0  0  0  0  0  0  0
   39.3320   33.1800   40.8960 C   0  0  0  0  0  0  0  0  0  0  0  0
   38.1980   33.8520   40.6250 N   0  0  0  0  0  0  0  0  0  0  0  0
   37.2320   33.4750   40.8250 H   0  0  0  0  0  0  0  0  0  0  0  0
   38.4950   35.0520   40.0700 C   0  0  0  0  0  0  0  0  0  0  0  0
   37.7190   35.7390   39.7820 H   0  0  0  0  0  0  0  0  0  0  0  0
   39.8740   35.1240   39.9960 C   0  0  0  0  0  3  0  0  0  0  0  0
   40.4240   33.9590   40.5090 C   0  0  0  0  0  0  0  0  0  0  0  0
   41.7230   33.5060   40.6760 C   0  0  0  0  0  3  0  0  0  0  0  0
  1  7  1  0  0  0  0
  1  2  1  0  0  0  0
  2 26  1  0  0  0  0
  3  2  2  0  0  0  0
  3 22  1  0  0  0  0
  4  3  1  0  0  0  0
  5  6  1  0  0  0  0
  5  4  2  0  0  0  0
  6  1  2  0  0  0  0
  8 17  1  0  0  0  0
  8  9  1  0  0  0  0
  9  5  1  0  0  0  0
 10  9  2  0  0  0  0
 10 18  1  0  0  0  0
 11 10  1  0  0  0  0
 12 19  1  0  0  0  0
 12 11  1  0  0  0  0
 13 14  2  0  0  0  0
 13 12  1  0  0  0  0
 14 15  1  0  0  0  0
 15 16  1  0  0  0  0
 15 11  2  0  0  0  0
 16  8  2  0  0  0  0
 20 13  1  0  0  0  0
 21 16  1  0  0  0  0
 22 23  1  0  0  0  0
 22 24  1  0  0  0  0
 25 22  1  0  0  0  0
 27 28  2  0  0  0  0
 27 26  1  0  0  0  0
 28 32  1  0  0  0  0
 29 28  1  0  0  0  0
 30 29  1  0  0  0  0
 30 31  2  0  0  0  0
 31 27  1  0  0  0  0
 33 34  1  0  0  0  0
 34 30  1  0  0  0  0
 35 34  2  0  0  0  0
 35 36  1  0  0  0  0
 37 35  1  0  0  0  0
 38 39  1  0  0  0  0
 38 37  1  0  0  0  0
 40 38  1  0  0  0  0
 41 40  1  0  0  0  0
 42 40  2  0  0  0  0
 42 43  1  0  0  0  0
 43 44  1  0  0  0  0
 43 37  2  0  0  0  0
 44 33  2  0  0  0  0
M  END
>  <minimizedAffinity>
-7.10041714

$$$$

 OpenBabel03242513103D

 44 49  0  0  0  0  0  0  0  0999 V2000
   36.8610   28.1320   41.5370 C   0  0  0  0  0  0  0  0  0  0  0  0
   37.9250   27.4990   42.1920 C   0  0  0  0  0  0  0  0  0  0  0  0
   39.0680   28.2470   42.3900 C   0  0  0  0  0  0  0  0  0  0  0  0
   39.0740   29.5350   41.9370 N   0  0  0  0  0  0  0  0  0  0  0  0
   38.0470   30.1220   41.3130 C   0  0  0  0  0  0  0  0  0  0  0  0
   36.9230   29.4140   41.1080 N   0  0  0  0  0  0  0  0  0  0  0  0
   35.9580   27.5530   41.3750 H   0  0  0  0  0  0  0  0  0  0  0  0
   37.1600   32.0850   40.1370 C   0  0  0  0  0  0  0  0  0  0  0  0
   38.1600   31.4960   40.8740 C   0  0  0  0  0  0  0  0  0  0  0  0
   39.3390   32.1760   41.2420 C   0  0  0  0  0  0  0  0  0  0  0  0
   39.5110   33.5010   40.8510 C   0  0  0  0  0  0  0  0  0  0  0  0
   40.4700   34.4420   41.0110 N   0  0  0  0  0  0  0  0  0  0  0  0
   40.0530   35.5810   40.3790 C   0  0  0  0  0  0  0  0  0  0  0  0
   38.8440   35.3220   39.8420 N   0  0  0  0  0  0  0  0  0  0  0  0
   38.4920   34.0560   40.1180 C   0  0  0  0  0  0  0  0  0  0  0  0
   37.3240   33.4120   39.7410 C   0  0  0  0  0  0  0  0  0  0  0  0
   36.2840   31.5020   39.8910 H   0  0  0  0  0  0  0  0  0  0  0  0
   40.1200   31.7020   41.8230 H   0  0  0  0  0  0  0  0  0  0  0  0
   41.3650   34.2910   41.5330 H   0  0  0  0  0  0  0  0  0  0  0  0
   40.6070   36.5140   40.3300 H   0  0  0  0  0  0  0  0  0  0  0  0
   36.5540   33.9000   39.1610 H   0  0  0  0  0  0  0  0  0  0  0  0
   40.2310   27.6370   43.0770 C   0  0  0  0  0  0  0  0  0  0  0  0
   41.1510   28.6300   43.4510 F   0  0  0  0  0  0  0  0  0  0  0  0
   39.8350   27.0250   44.2420 F   0  0  0  0  0  0  0  0  0  0  0  0
   40.8280   26.7500   42.2120 F   0  0  0  0  0  0  0  0  0  0  0  0
   37.7840   26.2100   42.5900 O   0  0  0  0  0  0  0  0  0  0  0  0
   37.4240   25.2050   41.7290 C   0  0  0  0  0  0  0  0  0  0  0  0
   38.5760   24.4230   41.6520 C   0  0  0  0  0  0  0  0  0  0  0  0
   38.0780   23.0790   40.4920 S   0  0  0  0  0  0  0  0  0  0  0  0
   36.3800   23.8200   40.3130 C   0  0  0  0  0  0  0  0  0  0  0  0
   36.4990   24.6910   40.9800 N   0  0  0  0  0  0  0  0  0  0  0  0
   39.6770   24.2640   41.9950 H   0  0  0  0  0  0  0  0  0  0  0  0
   35.6720   22.8590   38.1380 C   0  0  0  0  0  3  0  0  0  0  0  0
   35.3840   23.1590   39.4320 C   0  0  0  0  0  0  0  0  0  0  0  0
   34.2110   22.9110   40.0640 C   0  0  0  0  0  0  0  0  0  0  0  0
   33.9910   23.1530   41.0940 H   0  0  0  0  0  0  0  0  0  0  0  0
   33.1850   22.2980   39.3670 C   0  0  0  0  0  0  0  0  0  0  0  0
   31.9340   21.9220   39.6920 N   0  0  0  0  0  0  0  0  0  0  0  0
   31.5110   22.0630   40.6490 H   0  0  0  0  0  0  0  0  0  0  0  0
   31.3320   21.3510   38.6210 C   0  0  0  0  0  0  0  0  0  0  0  0
   30.3220   20.9840   38.6810 H   0  0  0  0  0  0  0  0  0  0  0  0
   32.2530   21.3760   37.5890 C   0  0  0  0  0  3  0  0  0  0  0  0
   33.4250   21.9660   38.0330 C   0  0  0  0  0  0  0  0  0  0  0  0
   34.6450   22.2430   37.4340 C   0  0  0  0  0  3  0  0  0  0  0  0
  1  2  1  0  0  0  0
  2  3  2  0  0  0  0
  2 26  1  0  0  0  0
  3 22  1  0  0  0  0
  4  3  1  0  0  0  0
  5  4  2  0  0  0  0
  6  5  1  0  0  0  0
  6  1  2  0  0  0  0
  7  1  1  0  0  0  0
  8  9  1  0  0  0  0
  9 10  2  0  0  0  0
  9  5  1  0  0  0  0
 10 18  1  0  0  0  0
 11 12  1  0  0  0  0
 11 10  1  0  0  0  0
 12 19  1  0  0  0  0
 13 12  1  0  0  0  0
 14 15  1  0  0  0  0
 14 13  2  0  0  0  0
 15 11  2  0  0  0  0
 16 15  1  0  0  0  0
 16  8  2  0  0  0  0
 17  8  1  0  0  0  0
 20 13  1  0  0  0  0
 21 16  1  0  0  0  0
 22 23  1  0  0  0  0
 22 24  1  0  0  0  0
 25 22  1  0  0  0  0
 27 26  1  0  0  0  0
 28 27  2  0  0  0  0
 28 32  1  0  0  0  0
 29 28  1  0  0  0  0
 30 29  1  0  0  0  0
 30 31  2  0  0  0  0
 31 27  1  0  0  0  0
 33 34  1  0  0  0  0
 34 35  2  0  0  0  0
 34 30  1  0  0  0  0
 35 36  1  0  0  0  0
 37 38  1  0  0  0  0
 37 35  1  0  0  0  0
 38 39  1  0  0  0  0
 40 41  1  0  0  0  0
 40 38  1  0  0  0  0
 42 43  1  0  0  0  0
 42 40  2  0  0  0  0
 43 37  2  0  0  0  0
 44 43  1  0  0  0  0
 44 33  2  0  0  0  0
M  END
>  <minimizedAffinity>
-7.08375883

$$$$

 OpenBabel03242513103D

 44 49  0  0  0  0  0  0  0  0999 V2000
   37.1260   27.9500   39.9860 C   0  0  0  0  0  0  0  0  0  0  0  0
   37.0470   27.4500   41.2920 C   0  0  0  0  0  0  0  0  0  0  0  0
   37.2410   28.3520   42.3180 C   0  0  0  0  0  0  0  0  0  0  0  0
   37.4930   29.6520   41.9850 N   0  0  0  0  0  0  0  0  0  0  0  0
   37.5650   30.1120   40.7310 C   0  0  0  0  0  0  0  0  0  0  0  0
   37.3800   29.2520   39.7150 N   0  0  0  0  0  0  0  0  0  0  0  0
   36.9760   27.2500   39.1720 H   0  0  0  0  0  0  0  0  0  0  0  0
   36.9460   32.2950   39.7960 C   0  0  0  0  0  0  0  0  0  0  0  0
   37.8380   31.5120   40.4900 C   0  0  0  0  0  0  0  0  0  0  0  0
   39.0530   32.0100   41.0030 C   0  0  0  0  0  0  0  0  0  0  0  0
   39.3770   33.3500   40.8060 C   0  0  0  0  0  0  0  0  0  0  0  0
   40.4120   34.1560   41.1380 N   0  0  0  0  0  0  0  0  0  0  0  0
   40.1470   35.4060   40.6510 C   0  0  0  0  0  0  0  0  0  0  0  0
   38.9530   35.3480   40.0270 N   0  0  0  0  0  0  0  0  0  0  0  0
   38.4630   34.1000   40.1100 C   0  0  0  0  0  0  0  0  0  0  0  0
   37.2630   33.6380   39.5950 C   0  0  0  0  0  0  0  0  0  0  0  0
   36.0330   31.8440   39.4320 H   0  0  0  0  0  0  0  0  0  0  0  0
   39.7480   31.3840   41.5490 H   0  0  0  0  0  0  0  0  0  0  0  0
   41.2550   33.8440   41.6750 H   0  0  0  0  0  0  0  0  0  0  0  0
   40.7910   36.2730   40.7560 H   0  0  0  0  0  0  0  0  0  0  0  0
   36.5800   34.2760   39.0530 H   0  0  0  0  0  0  0  0  0  0  0  0
   37.1710   27.8870   43.7230 C   0  0  0  0  0  0  0  0  0  0  0  0
   37.1990   28.9830   44.6010 F   0  0  0  0  0  0  0  0  0  0  0  0
   35.9800   27.2420   43.9580 F   0  0  0  0  0  0  0  0  0  0  0  0
   38.2500   27.0690   43.9630 F   0  0  0  0  0  0  0  0  0  0  0  0
   36.7890   26.1310   41.4810 O   0  0  0  0  0  0  0  0  0  0  0  0
   37.2200   25.1620   40.6100 C   0  0  0  0  0  0  0  0  0  0  0  0
   37.7290   24.1780   41.4560 C   0  0  0  0  0  0  0  0  0  0  0  0
   38.3030   22.8840   40.2750 S   0  0  0  0  0  0  0  0  0  0  0  0
   37.7470   23.9140   38.8270 C   0  0  0  0  0  0  0  0  0  0  0  0
   37.3500   24.7850   39.3770 N   0  0  0  0  0  0  0  0  0  0  0  0
   37.9390   23.8380   42.5500 H   0  0  0  0  0  0  0  0  0  0  0  0
   38.6120   22.2430   37.2110 C   0  0  0  0  0  3  0  0  0  0  0  0
   37.9370   23.3990   37.4480 C   0  0  0  0  0  0  0  0  0  0  0  0
   37.3760   24.1990   36.5100 C   0  0  0  0  0  0  0  0  0  0  0  0
   36.8400   25.1170   36.7080 H   0  0  0  0  0  0  0  0  0  0  0  0
   37.4730   23.8470   35.1760 C   0  0  0  0  0  0  0  0  0  0  0  0
   37.0380   24.4050   34.0310 N   0  0  0  0  0  0  0  0  0  0  0  0
   36.4910   25.3090   33.9920 H   0  0  0  0  0  0  0  0  0  0  0  0
   37.4060   23.6410   32.9750 C   0  0  0  0  0  0  0  0  0  0  0  0
   37.1510   23.9210   31.9690 H   0  0  0  0  0  0  0  0  0  0  0  0
   38.1000   22.5610   33.4920 C   0  0  0  0  0  3  0  0  0  0  0  0
   38.1560   22.6680   34.8720 C   0  0  0  0  0  0  0  0  0  0  0  0
   38.7120   21.8850   35.8720 C   0  0  0  0  0  3  0  0  0  0  0  0
  1  2  1  0  0  0  0
  2 26  1  0  0  0  0
  2  3  2  0  0  0  0
  3 22  1  0  0  0  0
  4  3  1  0  0  0  0
  5  4  2  0  0  0  0
  6  1  2  0  0  0  0
  6  5  1  0  0  0  0
  7  1  1  0  0  0  0
  8  9  1  0  0  0  0
  9  5  1  0  0  0  0
  9 10  2  0  0  0  0
 10 18  1  0  0  0  0
 11 10  1  0  0  0  0
 11 12  1  0  0  0  0
 12 19  1  0  0  0  0
 13 20  1  0  0  0  0
 13 12  1  0  0  0  0
 14 15  1  0  0  0  0
 14 13  2  0  0  0  0
 15 11  2  0  0  0  0
 16  8  2  0  0  0  0
 16 15  1  0  0  0  0
 17  8  1  0  0  0  0
 21 16  1  0  0  0  0
 22 24  1  0  0  0  0
 22 25  1  0  0  0  0
 22 23  1  0  0  0  0
 27 28  2  0  0  0  0
 27 26  1  0  0  0  0
 28 32  1  0  0  0  0
 29 28  1  0  0  0  0
 30 31  2  0  0  0  0
 30 29  1  0  0  0  0
 31 27  1  0  0  0  0
 33 34  1  0  0  0  0
 34 30  1  0  0  0  0
 35 36  1  0  0  0  0
 35 34  2  0  0  0  0
 37 35  1  0  0  0  0
 38 37  1  0  0  0  0
 39 38  1  0  0  0  0
 40 42  2  0  0  0  0
 40 38  1  0  0  0  0
 41 40  1  0  0  0  0
 42 43  1  0  0  0  0
 43 37  2  0  0  0  0
 43 44  1  0  0  0  0
 44 33  2  0  0  0  0
M  END
>  <minimizedAffinity>
-7.04671097

$$$$

 OpenBabel03242513103D

 44 49  0  0  0  0  0  0  0  0999 V2000
   38.4730   29.5780   42.5800 C   0  0  0  0  0  0  0  0  0  0  0  0
   37.3760   29.0210   41.9110 C   0  0  0  0  0  0  0  0  0  0  0  0
   36.9680   29.6490   40.7520 C   0  0  0  0  0  0  0  0  0  0  0  0
   37.6590   30.7560   40.3500 N   0  0  0  0  0  0  0  0  0  0  0  0
   38.7050   31.2740   41.0030 C   0  0  0  0  0  0  0  0  0  0  0  0
   39.1210   30.6800   42.1350 N   0  0  0  0  0  0  0  0  0  0  0  0
   38.8010   29.0930   43.4930 H   0  0  0  0  0  0  0  0  0  0  0  0
   38.9610   33.7120   40.8670 C   0  0  0  0  0  0  0  0  0  0  0  0
   39.3660   32.4530   40.4870 C   0  0  0  0  0  0  0  0  0  0  0  0
   40.4290   32.2320   39.5880 C   0  0  0  0  0  0  0  0  0  0  0  0
   41.1080   33.3240   39.0550 C   0  0  0  0  0  0  0  0  0  0  0  0
   42.1390   33.4990   38.1960 N   0  0  0  0  0  0  0  0  0  0  0  0
   42.3520   34.8430   38.0600 C   0  0  0  0  0  0  0  0  0  0  0  0
   41.4480   35.4730   38.8390 N   0  0  0  0  0  0  0  0  0  0  0  0
   40.6770   34.5640   39.4570 C   0  0  0  0  0  0  0  0  0  0  0  0
   39.6360   34.8110   40.3370 C   0  0  0  0  0  0  0  0  0  0  0  0
   38.1380   33.8050   41.5610 H   0  0  0  0  0  0  0  0  0  0  0  0
   40.7390   31.2370   39.2970 H   0  0  0  0  0  0  0  0  0  0  0  0
   42.6610   32.7190   37.7320 H   0  0  0  0  0  0  0  0  0  0  0  0
   43.1130   35.3010   37.4370 H   0  0  0  0  0  0  0  0  0  0  0  0
   39.3390   35.8110   40.6180 H   0  0  0  0  0  0  0  0  0  0  0  0
   35.8140   29.1100   39.9960 C   0  0  0  0  0  0  0  0  0  0  0  0
   35.4590   29.9880   38.9590 F   0  0  0  0  0  0  0  0  0  0  0  0
   36.1460   27.9220   39.3920 F   0  0  0  0  0  0  0  0  0  0  0  0
   34.7580   28.9640   40.8640 F   0  0  0  0  0  0  0  0  0  0  0  0
   36.7810   27.9150   42.4230 O   0  0  0  0  0  0  0  0  0  0  0  0
   37.1770   26.6430   42.0950 C   0  0  0  0  0  0  0  0  0  0  0  0
   38.3040   26.4450   42.8920 C   0  0  0  0  0  0  0  0  0  0  0  0
   38.8250   24.7350   42.4410 S   0  0  0  0  0  0  0  0  0  0  0  0
   37.4110   24.5870   41.2390 C   0  0  0  0  0  0  0  0  0  0  0  0
   36.9580   25.5830   41.3820 N   0  0  0  0  0  0  0  0  0  0  0  0
   39.0280   26.8830   43.6910 H   0  0  0  0  0  0  0  0  0  0  0  0
   38.1790   22.3510   40.4890 C   0  0  0  0  0  3  0  0  0  0  0  0
   37.2390   23.3320   40.4650 C   0  0  0  0  0  0  0  0  0  0  0  0
   36.0760   23.3030   39.7700 C   0  0  0  0  0  0  0  0  0  0  0  0
   35.3330   24.0890   39.7580 H   0  0  0  0  0  0  0  0  0  0  0  0
   35.7770   22.1930   39.0000 C   0  0  0  0  0  0  0  0  0  0  0  0
   34.7370   21.8590   38.2140 N   0  0  0  0  0  0  0  0  0  0  0  0
   33.8980   22.4810   38.0570 H   0  0  0  0  0  0  0  0  0  0  0  0
   34.9420   20.6330   37.6760 C   0  0  0  0  0  0  0  0  0  0  0  0
   34.2190   20.1870   37.0150 H   0  0  0  0  0  0  0  0  0  0  0  0
   36.1620   20.1900   38.1520 C   0  0  0  0  0  3  0  0  0  0  0  0
   36.7080   21.1530   38.9860 C   0  0  0  0  0  0  0  0  0  0  0  0
   37.8830   21.2340   39.7170 C   0  0  0  0  0  3  0  0  0  0  0  0
  1  7  1  0  0  0  0
  2 26  1  0  0  0  0
  2  1  2  0  0  0  0
  3  2  1  0  0  0  0
  4  3  2  0  0  0  0
  4  5  1  0  0  0  0
  5  6  2  0  0  0  0
  6  1  1  0  0  0  0
  8 17  1  0  0  0  0
  9  8  1  0  0  0  0
  9  5  1  0  0  0  0
 10  9  2  0  0  0  0
 11 15  2  0  0  0  0
 11 10  1  0  0  0  0
 12 11  1  0  0  0  0
 13 12  1  0  0  0  0
 13 14  2  0  0  0  0
 14 15  1  0  0  0  0
 15 16  1  0  0  0  0
 16 21  1  0  0  0  0
 16  8  2  0  0  0  0
 18 10  1  0  0  0  0
 19 12  1  0  0  0  0
 20 13  1  0  0  0  0
 22  3  1  0  0  0  0
 22 25  1  0  0  0  0
 23 22  1  0  0  0  0
 24 22  1  0  0  0  0
 27 26  1  0  0  0  0
 27 28  2  0  0  0  0
 28 32  1  0  0  0  0
 29 28  1  0  0  0  0
 30 31  2  0  0  0  0
 30 29  1  0  0  0  0
 31 27  1  0  0  0  0
 34 33  1  0  0  0  0
 34 30  1  0  0  0  0
 35 34  2  0  0  0  0
 36 35  1  0  0  0  0
 37 35  1  0  0  0  0
 38 37  1  0  0  0  0
 39 38  1  0  0  0  0
 40 42  2  0  0  0  0
 40 38  1  0  0  0  0
 41 40  1  0  0  0  0
 42 43  1  0  0  0  0
 43 37  2  0  0  0  0
 43 44  1  0  0  0  0
 44 33  2  0  0  0  0
M  END
>  <minimizedAffinity>
-6.8663888

$$$$

 OpenBabel03242513103D

 44 49  0  0  0  0  0  0  0  0999 V2000
   40.0580   27.3200   40.5650 C   0  0  0  0  0  0  0  0  0  0  0  0
   39.5530   27.4140   41.8680 C   0  0  0  0  0  0  0  0  0  0  0  0
   38.2590   27.8740   42.0040 C   0  0  0  0  0  0  0  0  0  0  0  0
   37.5760   28.2000   40.8670 N   0  0  0  0  0  0  0  0  0  0  0  0
   38.0760   28.1030   39.6300 C   0  0  0  0  0  0  0  0  0  0  0  0
   39.3340   27.6580   39.4730 N   0  0  0  0  0  0  0  0  0  0  0  0
   41.0740   26.9590   40.4480 H   0  0  0  0  0  0  0  0  0  0  0  0
   35.9660   28.9020   38.6620 C   0  0  0  0  0  0  0  0  0  0  0  0
   37.2630   28.4760   38.4920 C   0  0  0  0  0  0  0  0  0  0  0  0
   37.8750   28.3760   37.2270 C   0  0  0  0  0  0  0  0  0  0  0  0
   37.1480   28.7190   36.0900 C   0  0  0  0  0  0  0  0  0  0  0  0
   37.3880   28.7510   34.7580 N   0  0  0  0  0  0  0  0  0  0  0  0
   36.2530   29.1890   34.1350 C   0  0  0  0  0  0  0  0  0  0  0  0
   35.3330   29.4200   35.0940 N   0  0  0  0  0  0  0  0  0  0  0  0
   35.8580   29.1400   36.2970 C   0  0  0  0  0  0  0  0  0  0  0  0
   35.2320   29.2480   37.5280 C   0  0  0  0  0  0  0  0  0  0  0  0
   35.5630   28.9530   39.6630 H   0  0  0  0  0  0  0  0  0  0  0  0
   38.8970   28.0390   37.1060 H   0  0  0  0  0  0  0  0  0  0  0  0
   38.2970   28.4790   34.3150 H   0  0  0  0  0  0  0  0  0  0  0  0
   36.1320   29.3210   33.0640 H   0  0  0  0  0  0  0  0  0  0  0  0
   34.2110   29.5850   37.6320 H   0  0  0  0  0  0  0  0  0  0  0  0
   37.6650   27.9970   43.3550 C   0  0  0  0  0  0  0  0  0  0  0  0
   36.2770   27.7830   43.2980 F   0  0  0  0  0  0  0  0  0  0  0  0
   38.1660   27.0290   44.1920 F   0  0  0  0  0  0  0  0  0  0  0  0
   37.9220   29.2630   43.8280 F   0  0  0  0  0  0  0  0  0  0  0  0
   40.3430   27.0550   42.9120 O   0  0  0  0  0  0  0  0  0  0  0  0
   41.3820   27.8350   43.3530 C   0  0  0  0  0  0  0  0  0  0  0  0
   42.0630   26.9900   44.2280 C   0  0  0  0  0  0  0  0  0  0  0  0
   43.4550   28.0490   44.8140 S   0  0  0  0  0  0  0  0  0  0  0  0
   42.8630   29.4640   43.7600 C   0  0  0  0  0  0  0  0  0  0  0  0
   41.9790   28.9840   43.3050 N   0  0  0  0  0  0  0  0  0  0  0  0
   42.1260   25.9400   44.7280 H   0  0  0  0  0  0  0  0  0  0  0  0
   44.7870   30.8740   44.4410 C   0  0  0  0  0  3  0  0  0  0  0  0
   43.6130   30.7450   43.7690 C   0  0  0  0  0  0  0  0  0  0  0  0
   42.9970   31.7160   43.0530 C   0  0  0  0  0  0  0  0  0  0  0  0
   42.0620   31.6050   42.5200 H   0  0  0  0  0  0  0  0  0  0  0  0
   43.5800   32.9680   42.9700 C   0  0  0  0  0  0  0  0  0  0  0  0
   43.2360   34.1160   42.3580 N   0  0  0  0  0  0  0  0  0  0  0  0
   42.3590   34.2320   41.7810 H   0  0  0  0  0  0  0  0  0  0  0  0
   44.1730   35.0650   42.5970 C   0  0  0  0  0  0  0  0  0  0  0  0
   44.0780   36.0570   42.1910 H   0  0  0  0  0  0  0  0  0  0  0  0
   45.1380   34.4750   43.3930 C   0  0  0  0  0  3  0  0  0  0  0  0
   44.7880   33.1570   43.6420 C   0  0  0  0  0  0  0  0  0  0  0  0
   45.3770   32.1290   44.3610 C   0  0  0  0  0  3  0  0  0  0  0  0
  1  2  1  0  0  0  0
  2  3  2  0  0  0  0
  2 26  1  0  0  0  0
  3 22  1  0  0  0  0
  4  3  1  0  0  0  0
  5  4  2  0  0  0  0
  6  5  1  0  0  0  0
  6  1  2  0  0  0  0
  7  1  1  0  0  0  0
  8 17  1  0  0  0  0
  9  8  1  0  0  0  0
  9  5  1  0  0  0  0
 10  9  2  0  0  0  0
 11 15  2  0  0  0  0
 11 10  1  0  0  0  0
 12 11  1  0  0  0  0
 13 12  1  0  0  0  0
 13 14  2  0  0  0  0
 14 15  1  0  0  0  0
 15 16  1  0  0  0  0
 16 21  1  0  0  0  0
 16  8  2  0  0  0  0
 18 10  1  0  0  0  0
 19 12  1  0  0  0  0
 20 13  1  0  0  0  0
 22 25  1  0  0  0  0
 22 24  1  0  0  0  0
 23 22  1  0  0  0  0
 26 27  1  0  0  0  0
 27 28  2  0  0  0  0
 28 32  1  0  0  0  0
 28 29  1  0  0  0  0
 30 34  1  0  0  0  0
 30 29  1  0  0  0  0
 31 27  1  0  0  0  0
 31 30  2  0  0  0  0
 34 33  2  0  0  0  0
 35 34  1  0  0  0  0
 36 35  1  0  0  0  0
 37 35  2  0  0  0  0
 37 43  1  0  0  0  0
 38 40  1  0  0  0  0
 38 37  1  0  0  0  0
 39 38  1  0  0  0  0
 40 42  2  0  0  0  0
 41 40  1  0  0  0  0
 42 43  1  0  0  0  0
 43 44  2  0  0  0  0
 44 33  1  0  0  0  0
M  END
>  <minimizedAffinity>
-6.85095644

$$$$
