
 OpenBabel03252502463D

 48 52  0  0  1  0  0  0  0  0999 V2000
   48.3350   35.7370   41.7800 C   0  0  0  0  0  0  0  0  0  0  0  0
   48.4150   36.0100   42.8530 H   0  0  0  0  0  0  0  0  0  0  0  0
   48.4430   36.7020   41.2320 H   0  0  0  0  0  0  0  0  0  0  0  0
   49.4130   34.7580   41.4530 C   0  0  1  0  0  0  0  0  0  0  0  0
   50.3680   34.3830   42.5450 C   0  0  0  0  0  0  0  0  0  0  0  0
   49.3340   33.4350   42.0600 C   0  0  2  0  0  0  0  0  0  0  0  0
   49.8770   34.9250   40.4860 H   0  0  0  0  0  0  0  0  0  0  0  0
   51.4430   34.2490   42.3200 H   0  0  0  0  0  0  0  0  0  0  0  0
   50.2240   34.8920   43.5300 H   0  0  0  0  0  0  0  0  0  0  0  0
   48.6150   33.1210   42.8070 H   0  0  0  0  0  0  0  0  0  0  0  0
   49.8790   32.3800   41.2080 N   0  0  0  0  0  0  0  0  0  0  0  0
   49.1390   32.1320   40.0250 C   0  0  0  0  0  0  0  0  0  0  0  0
   49.8650   31.0050   39.3110 C   0  0  0  0  0  0  0  0  0  0  0  0
   49.8610   29.8080   40.0760 N   0  0  0  0  0  0  0  0  0  0  0  0
   49.8030   30.0170   41.5100 C   0  0  0  0  0  0  0  0  0  0  0  0
   50.5140   31.3230   41.8710 C   0  0  0  0  0  0  0  0  0  0  0  0
   49.1930   33.0180   39.3500 H   0  0  0  0  0  0  0  0  0  0  0  0
   48.0970   31.8800   40.2650 H   0  0  0  0  0  0  0  0  0  0  0  0
   49.3560   30.8430   38.3310 H   0  0  0  0  0  0  0  0  0  0  0  0
   50.8640   31.4090   39.0570 H   0  0  0  0  0  0  0  0  0  0  0  0
   50.6090   29.1550   39.7870 H   0  0  0  0  0  0  0  0  0  0  0  0
   48.7640   30.1330   41.8540 H   0  0  0  0  0  0  0  0  0  0  0  0
   50.2770   29.1510   41.9770 H   0  0  0  0  0  0  0  0  0  0  0  0
   50.5300   31.4510   42.9540 H   0  0  0  0  0  0  0  0  0  0  0  0
   51.5820   31.1910   41.5460 H   0  0  0  0  0  0  0  0  0  0  0  0
   47.0250   35.0430   41.5280 C   0  0  0  0  0  0  0  0  0  0  0  0
   46.4490   35.7290   40.8430 H   0  0  0  0  0  0  0  0  0  0  0  0
   47.0610   34.0910   41.0250 H   0  0  0  0  0  0  0  0  0  0  0  0
   44.5490   36.0440   44.1600 C   0  0  0  0  0  0  0  0  0  0  0  0
   45.2890   36.0340   42.9570 C   0  0  0  0  0  0  0  0  0  0  0  0
   46.2300   35.0640   42.7980 C   0  0  0  0  0  0  0  0  0  0  0  0
   46.4250   34.1480   43.7900 N   0  0  0  0  0  0  0  0  0  0  0  0
   45.7320   34.1680   44.9060 C   0  0  0  0  0  0  0  0  0  0  0  0
   44.7890   35.1100   45.1060 N   0  0  0  0  0  0  0  0  0  0  0  0
   43.7930   36.7900   44.3360 H   0  0  0  0  0  0  0  0  0  0  0  0
   45.0470   36.8080   42.2420 H   0  0  0  0  0  0  0  0  0  0  0  0
   47.0000   32.2660   45.8380 C   0  0  0  0  0  3  0  0  0  0  0  0
   45.9630   33.1680   45.9610 C   0  0  0  0  0  0  0  0  0  0  0  0
   45.1430   33.1220   47.0810 C   0  0  0  0  0  0  0  0  0  0  0  0
   44.3480   33.8210   47.1660 H   0  0  0  0  0  0  0  0  0  0  0  0
   45.4400   32.1440   48.0220 C   0  0  0  0  0  0  0  0  0  0  0  0
   44.7530   31.9570   49.1630 N   0  0  0  0  0  0  0  0  0  0  0  0
   43.9100   32.4740   49.5530 H   0  0  0  0  0  0  0  0  0  0  0  0
   45.3090   30.9400   49.8210 C   0  0  0  0  0  0  0  0  0  0  0  0
   45.0170   30.5150   50.7740 H   0  0  0  0  0  0  0  0  0  0  0  0
   46.3880   30.4550   49.0820 C   0  0  0  0  0  3  0  0  0  0  0  0
   46.4640   31.2330   47.9300 C   0  0  0  0  0  0  0  0  0  0  0  0
   47.2720   31.2910   46.8050 C   0  0  0  0  0  3  0  0  0  0  0  0
  1  2  1  0  0  0  0
  3  1  1  0  0  0  0
  4  7  1  6  0  0  0
  4  1  1  0  0  0  0
  4  6  1  0  0  0  0
  4  5  1  0  0  0  0
  5  9  1  0  0  0  0
  6  5  1  0  0  0  0
  6 10  1  1  0  0  0
  8  5  1  0  0  0  0
 11 16  1  0  0  0  0
 11  6  1  0  0  0  0
 12 18  1  0  0  0  0
 12 11  1  0  0  0  0
 13 12  1  0  0  0  0
 13 14  1  0  0  0  0
 14 15  1  0  0  0  0
 15 22  1  0  0  0  0
 15 16  1  0  0  0  0
 15 23  1  0  0  0  0
 16 24  1  0  0  0  0
 17 12  1  0  0  0  0
 19 13  1  0  0  0  0
 20 13  1  0  0  0  0
 21 14  1  0  0  0  0
 25 16  1  0  0  0  0
 26  1  1  0  0  0  0
 26 31  1  0  0  0  0
 27 26  1  0  0  0  0
 28 26  1  0  0  0  0
 29 35  1  0  0  0  0
 29 34  1  0  0  0  0
 30 29  2  0  0  0  0
 31 30  1  0  0  0  0
 31 32  2  0  0  0  0
 32 33  1  0  0  0  0
 33 34  2  0  0  0  0
 33 38  1  0  0  0  0
 36 30  1  0  0  0  0
 37 38  2  0  0  0  0
 37 48  1  0  0  0  0
 38 39  1  0  0  0  0
 39 40  1  0  0  0  0
 39 41  2  0  0  0  0
 41 42  1  0  0  0  0
 42 43  1  0  0  0  0
 42 44  1  0  0  0  0
 44 45  1  0  0  0  0
 46 44  2  0  0  0  0
 47 41  1  0  0  0  0
 47 46  1  0  0  0  0
 48 47  2  0  0  0  0
M  END
>  <minimizedAffinity>
-5.93815994

>  <minimizedRMSD>
0.946483195

$$$$
