
 OpenBabel03252502463D

 48 52  0  0  1  0  0  0  0  0999 V2000
   48.4970   35.6310   41.8450 C   0  0  0  0  0  0  0  0  0  0  0  0
   48.5490   35.8590   42.9290 H   0  0  0  0  0  0  0  0  0  0  0  0
   48.7130   36.6020   41.3390 H   0  0  0  0  0  0  0  0  0  0  0  0
   49.5030   34.5750   41.5280 C   0  0  1  0  0  0  0  0  0  0  0  0
   50.5370   34.2650   42.5670 C   0  0  0  0  0  0  0  0  0  0  0  0
   49.4280   33.3230   42.2710 C   0  0  2  0  0  0  0  0  0  0  0  0
   49.8850   34.6240   40.5130 H   0  0  0  0  0  0  0  0  0  0  0  0
   51.5810   34.0590   42.2660 H   0  0  0  0  0  0  0  0  0  0  0  0
   50.5010   34.8740   43.5030 H   0  0  0  0  0  0  0  0  0  0  0  0
   48.7670   33.1180   43.1050 H   0  0  0  0  0  0  0  0  0  0  0  0
   49.8530   32.1650   41.4880 N   0  0  0  0  0  0  0  0  0  0  0  0
   49.2660   32.0720   40.2020 C   0  0  0  0  0  0  0  0  0  0  0  0
   49.8290   30.8050   39.5810 C   0  0  0  0  0  0  0  0  0  0  0  0
   49.4480   29.6470   40.3090 N   0  0  0  0  0  0  0  0  0  0  0  0
   49.2190   29.8800   41.7220 C   0  0  0  0  0  0  0  0  0  0  0  0
   50.1330   31.0020   42.2150 C   0  0  0  0  0  0  0  0  0  0  0  0
   49.6140   32.9170   39.5620 H   0  0  0  0  0  0  0  0  0  0  0  0
   48.1700   32.0560   40.2750 H   0  0  0  0  0  0  0  0  0  0  0  0
   49.4530   30.7480   38.5310 H   0  0  0  0  0  0  0  0  0  0  0  0
   50.9190   30.9780   39.4900 H   0  0  0  0  0  0  0  0  0  0  0  0
   50.0710   28.8430   40.1220 H   0  0  0  0  0  0  0  0  0  0  0  0
   48.1900   30.2240   41.9070 H   0  0  0  0  0  0  0  0  0  0  0  0
   49.4150   28.9360   42.2350 H   0  0  0  0  0  0  0  0  0  0  0  0
   50.0120   31.1360   43.2910 H   0  0  0  0  0  0  0  0  0  0  0  0
   51.1850   30.6370   42.0530 H   0  0  0  0  0  0  0  0  0  0  0  0
   47.1470   35.0630   41.5080 C   0  0  0  0  0  0  0  0  0  0  0  0
   46.6580   35.8260   40.8360 H   0  0  0  0  0  0  0  0  0  0  0  0
   47.1250   34.1350   40.9580 H   0  0  0  0  0  0  0  0  0  0  0  0
   44.7060   36.1760   44.1270 C   0  0  0  0  0  0  0  0  0  0  0  0
   45.4930   36.1620   42.9540 C   0  0  0  0  0  0  0  0  0  0  0  0
   46.3030   35.0890   42.7450 C   0  0  0  0  0  0  0  0  0  0  0  0
   46.3280   34.0780   43.6610 N   0  0  0  0  0  0  0  0  0  0  0  0
   45.5930   34.1020   44.7490 C   0  0  0  0  0  0  0  0  0  0  0  0
   44.7750   35.1440   44.9970 N   0  0  0  0  0  0  0  0  0  0  0  0
   44.0480   37.0020   44.3390 H   0  0  0  0  0  0  0  0  0  0  0  0
   45.3900   37.0170   42.3010 H   0  0  0  0  0  0  0  0  0  0  0  0
   45.9850   31.7300   45.3050 C   0  0  0  0  0  3  0  0  0  0  0  0
   45.6380   32.9980   45.7220 C   0  0  0  0  0  0  0  0  0  0  0  0
   45.3360   33.2220   47.0580 C   0  0  0  0  0  0  0  0  0  0  0  0
   45.0700   34.2030   47.3670 H   0  0  0  0  0  0  0  0  0  0  0  0
   45.4070   32.1180   47.8990 C   0  0  0  0  0  0  0  0  0  0  0  0
   45.1470   32.1540   49.2190 N   0  0  0  0  0  0  0  0  0  0  0  0
   44.8570   32.9630   49.8430 H   0  0  0  0  0  0  0  0  0  0  0  0
   45.3130   30.9240   49.7070 C   0  0  0  0  0  0  0  0  0  0  0  0
   45.1880   30.5850   50.7290 H   0  0  0  0  0  0  0  0  0  0  0  0
   45.6910   30.0700   48.6720 C   0  0  0  0  0  3  0  0  0  0  0  0
   45.7480   30.8440   47.5170 C   0  0  0  0  0  0  0  0  0  0  0  0
   46.0480   30.6380   46.1790 C   0  0  0  0  0  3  0  0  0  0  0  0
  1  2  1  0  0  0  0
  3  1  1  0  0  0  0
  4  7  1  6  0  0  0
  4  1  1  0  0  0  0
  4  6  1  0  0  0  0
  4  5  1  0  0  0  0
  5  9  1  0  0  0  0
  6  5  1  0  0  0  0
  6 10  1  1  0  0  0
  8  5  1  0  0  0  0
 11 16  1  0  0  0  0
 11  6  1  0  0  0  0
 12 18  1  0  0  0  0
 12 11  1  0  0  0  0
 13 12  1  0  0  0  0
 13 14  1  0  0  0  0
 14 15  1  0  0  0  0
 15 22  1  0  0  0  0
 15 16  1  0  0  0  0
 15 23  1  0  0  0  0
 16 24  1  0  0  0  0
 17 12  1  0  0  0  0
 19 13  1  0  0  0  0
 20 13  1  0  0  0  0
 21 14  1  0  0  0  0
 25 16  1  0  0  0  0
 26  1  1  0  0  0  0
 26 31  1  0  0  0  0
 27 26  1  0  0  0  0
 28 26  1  0  0  0  0
 29 35  1  0  0  0  0
 29 34  1  0  0  0  0
 30 29  2  0  0  0  0
 31 30  1  0  0  0  0
 31 32  2  0  0  0  0
 32 33  1  0  0  0  0
 33 34  2  0  0  0  0
 33 38  1  0  0  0  0
 36 30  1  0  0  0  0
 37 38  2  0  0  0  0
 37 48  1  0  0  0  0
 38 39  1  0  0  0  0
 39 40  1  0  0  0  0
 39 41  2  0  0  0  0
 41 42  1  0  0  0  0
 42 44  1  0  0  0  0
 42 43  1  0  0  0  0
 44 45  1  0  0  0  0
 46 44  2  0  0  0  0
 47 41  1  0  0  0  0
 47 46  1  0  0  0  0
 48 47  2  0  0  0  0
M  END
>  <minimizedAffinity>
-5.90676928

>  <minimizedRMSD>
1.14697146

$$$$
