
 OpenBabel03252502463D

 48 52  0  0  1  0  0  0  0  0999 V2000
   46.5990   35.2730   42.5340 C   0  0  0  0  0  0  0  0  0  0  0  0
   46.9740   35.5590   43.5370 H   0  0  0  0  0  0  0  0  0  0  0  0
   46.0650   36.1780   42.1600 H   0  0  0  0  0  0  0  0  0  0  0  0
   47.7610   34.8900   41.6780 C   0  0  1  0  0  0  0  0  0  0  0  0
   48.9190   35.8390   41.6140 C   0  0  0  0  0  0  0  0  0  0  0  0
   49.0110   34.5510   42.3470 C   0  0  2  0  0  0  0  0  0  0  0  0
   47.4780   34.4580   40.7230 H   0  0  0  0  0  0  0  0  0  0  0  0
   49.4430   36.0090   40.6550 H   0  0  0  0  0  0  0  0  0  0  0  0
   48.8170   36.7900   42.1910 H   0  0  0  0  0  0  0  0  0  0  0  0
   49.2090   34.6420   43.4080 H   0  0  0  0  0  0  0  0  0  0  0  0
   49.7870   33.5390   41.6330 N   0  0  0  0  0  0  0  0  0  0  0  0
   49.0160   32.6500   40.8430 C   0  0  0  0  0  0  0  0  0  0  0  0
   50.0090   31.6890   40.2130 C   0  0  0  0  0  0  0  0  0  0  0  0
   50.6850   30.9130   41.1920 N   0  0  0  0  0  0  0  0  0  0  0  0
   50.8240   31.5670   42.4800 C   0  0  0  0  0  0  0  0  0  0  0  0
   50.9400   33.0790   42.2800 C   0  0  0  0  0  0  0  0  0  0  0  0
   48.5390   33.2050   40.0010 H   0  0  0  0  0  0  0  0  0  0  0  0
   48.2630   32.1380   41.4570 H   0  0  0  0  0  0  0  0  0  0  0  0
   49.4420   31.0280   39.5150 H   0  0  0  0  0  0  0  0  0  0  0  0
   50.6550   32.3110   39.5640 H   0  0  0  0  0  0  0  0  0  0  0  0
   51.5710   30.5170   40.8370 H   0  0  0  0  0  0  0  0  0  0  0  0
   49.9310   31.4120   43.1030 H   0  0  0  0  0  0  0  0  0  0  0  0
   51.7130   31.1480   42.9550 H   0  0  0  0  0  0  0  0  0  0  0  0
   51.1100   33.5700   43.2390 H   0  0  0  0  0  0  0  0  0  0  0  0
   51.8690   33.2390   41.6670 H   0  0  0  0  0  0  0  0  0  0  0  0
   45.7210   34.0580   42.6460 C   0  0  0  0  0  0  0  0  0  0  0  0
   44.6730   34.4230   42.4450 H   0  0  0  0  0  0  0  0  0  0  0  0
   45.8910   33.2600   41.9410 H   0  0  0  0  0  0  0  0  0  0  0  0
   45.1760   34.1190   46.3550 C   0  0  0  0  0  0  0  0  0  0  0  0
   45.2060   34.5250   45.0030 C   0  0  0  0  0  0  0  0  0  0  0  0
   45.6790   33.6390   44.0840 C   0  0  0  0  0  0  0  0  0  0  0  0
   46.1020   32.4080   44.4930 N   0  0  0  0  0  0  0  0  0  0  0  0
   46.0700   32.0410   45.7530 C   0  0  0  0  0  0  0  0  0  0  0  0
   45.6090   32.8850   46.6980 N   0  0  0  0  0  0  0  0  0  0  0  0
   44.8110   34.7810   47.1210 H   0  0  0  0  0  0  0  0  0  0  0  0
   44.8460   35.5230   44.7960 H   0  0  0  0  0  0  0  0  0  0  0  0
   47.8110   30.2930   45.8530 C   0  0  0  0  0  3  0  0  0  0  0  0
   46.5320   30.7070   46.1680 C   0  0  0  0  0  0  0  0  0  0  0  0
   45.6920   29.8570   46.8770 C   0  0  0  0  0  0  0  0  0  0  0  0
   44.7100   30.1860   47.1140 H   0  0  0  0  0  0  0  0  0  0  0  0
   46.2180   28.6190   47.2230 C   0  0  0  0  0  0  0  0  0  0  0  0
   45.5460   27.6750   47.9080 N   0  0  0  0  0  0  0  0  0  0  0  0
   44.5560   27.6780   48.2940 H   0  0  0  0  0  0  0  0  0  0  0  0
   46.3500   26.6240   48.0630 C   0  0  0  0  0  0  0  0  0  0  0  0
   46.1410   25.6860   48.5630 H   0  0  0  0  0  0  0  0  0  0  0  0
   47.5790   26.8960   47.4610 C   0  0  0  0  0  3  0  0  0  0  0  0
   47.4840   28.1780   46.9260 C   0  0  0  0  0  0  0  0  0  0  0  0
   48.3090   29.0380   46.2180 C   0  0  0  0  0  3  0  0  0  0  0  0
  1 26  1  0  0  0  0
  1  2  1  0  0  0  0
  3  1  1  0  0  0  0
  4  7  1  6  0  0  0
  4  6  1  0  0  0  0
  4  1  1  0  0  0  0
  5  4  1  0  0  0  0
  5  9  1  0  0  0  0
  5  6  1  0  0  0  0
  6 10  1  1  0  0  0
  8  5  1  0  0  0  0
 11 16  1  0  0  0  0
 11  6  1  0  0  0  0
 12 18  1  0  0  0  0
 12 11  1  0  0  0  0
 13 12  1  0  0  0  0
 13 14  1  0  0  0  0
 14 15  1  0  0  0  0
 15 23  1  0  0  0  0
 15 22  1  0  0  0  0
 16 15  1  0  0  0  0
 16 24  1  0  0  0  0
 17 12  1  0  0  0  0
 19 13  1  0  0  0  0
 20 13  1  0  0  0  0
 21 14  1  0  0  0  0
 25 16  1  0  0  0  0
 26 31  1  0  0  0  0
 27 26  1  0  0  0  0
 28 26  1  0  0  0  0
 29 34  1  0  0  0  0
 29 35  1  0  0  0  0
 30 29  2  0  0  0  0
 31 32  2  0  0  0  0
 31 30  1  0  0  0  0
 32 33  1  0  0  0  0
 33 38  1  0  0  0  0
 33 34  2  0  0  0  0
 36 30  1  0  0  0  0
 37 38  2  0  0  0  0
 37 48  1  0  0  0  0
 38 39  1  0  0  0  0
 39 40  1  0  0  0  0
 39 41  2  0  0  0  0
 41 42  1  0  0  0  0
 42 44  1  0  0  0  0
 42 43  1  0  0  0  0
 44 45  1  0  0  0  0
 46 44  2  0  0  0  0
 47 41  1  0  0  0  0
 47 46  1  0  0  0  0
 48 47  2  0  0  0  0
M  END
>  <minimizedAffinity>
-5.37471914

>  <minimizedRMSD>
2.84814978

$$$$
