
 OpenBabel03252505593D

 39 42  0  0  0  0  0  0  0  0999 V2000
   39.5010   31.9420   41.5050 C   0  0  0  0  0  0  0  0  0  0  0  0
   38.7120   31.7760   40.3620 C   0  0  0  0  0  0  0  0  0  0  0  0
   38.0590   30.5520   40.2130 C   0  0  0  0  0  0  0  0  0  0  0  0
   38.2160   29.6040   41.1630 N   0  0  0  0  0  0  0  0  0  0  0  0
   38.9820   29.8010   42.2440 C   0  0  0  0  0  0  0  0  0  0  0  0
   39.6180   30.9520   42.4170 N   0  0  0  0  0  0  0  0  0  0  0  0
   39.9990   32.8970   41.6020 H   0  0  0  0  0  0  0  0  0  0  0  0
   35.8210   29.8540   39.0910 C   0  0  0  0  0  3  0  0  0  0  0  0
   37.1740   30.0850   39.1660 C   0  0  0  0  0  0  0  0  0  0  0  0
   37.8500   29.7470   37.9820 C   0  0  0  0  0  0  0  0  0  0  0  0
   38.9390   29.8690   37.8650 H   0  0  0  0  0  0  0  0  0  0  0  0
   37.2600   29.2350   36.8460 C   0  0  0  0  0  0  0  0  0  0  0  0
   37.6800   28.8500   35.6430 N   0  0  0  0  0  0  0  0  0  0  0  0
   38.6690   28.8770   35.3130 H   0  0  0  0  0  0  0  0  0  0  0  0
   36.6350   28.4200   34.9150 C   0  0  0  0  0  0  0  0  0  0  0  0
   36.6430   28.0410   33.8930 H   0  0  0  0  0  0  0  0  0  0  0  0
   35.4740   28.5190   35.6530 C   0  0  0  0  0  3  0  0  0  0  0  0
   35.8950   29.0330   36.8600 C   0  0  0  0  0  0  0  0  0  0  0  0
   35.1920   29.3490   37.9950 C   0  0  0  0  0  3  0  0  0  0  0  0
   38.5720   32.8930   39.3980 C   0  0  0  0  0  0  0  0  0  0  0  0
   39.0520   33.9930   40.0930 F   0  0  0  0  0  0  0  0  0  0  0  0
   37.1960   33.0830   39.1900 F   0  0  0  0  0  0  0  0  0  0  0  0
   39.2160   32.6180   38.2630 F   0  0  0  0  0  0  0  0  0  0  0  0
   39.1550   28.8360   43.2280 O   0  0  0  0  0  0  0  0  0  0  0  0
   38.1650   27.8990   43.5090 C   0  0  0  0  0  0  0  0  0  0  0  0
   37.2630   28.1380   42.9060 H   0  0  0  0  0  0  0  0  0  0  0  0
   37.8850   28.0120   44.5730 H   0  0  0  0  0  0  0  0  0  0  0  0
   38.6890   26.5670   43.1710 C   0  0  0  0  0  0  0  0  0  0  0  0
   39.8500   25.9530   43.5900 C   0  0  0  0  0  0  0  0  0  0  0  0
   40.1040   24.7020   43.1250 C   0  0  0  0  0  0  0  0  0  0  0  0
   39.2930   24.0630   42.2990 N   0  0  0  0  0  0  0  0  0  0  0  0
   38.1670   24.6670   41.8970 C   0  0  0  0  0  0  0  0  0  0  0  0
   37.8540   25.9220   42.3280 N   0  0  0  0  0  0  0  0  0  0  0  0
   40.4340   26.5530   44.2550 H   0  0  0  0  0  0  0  0  0  0  0  0
   41.0360   24.2520   43.4830 H   0  0  0  0  0  0  0  0  0  0  0  0
   37.3090   23.8790   40.9680 C   0  0  0  0  0  0  0  0  0  0  0  0
   37.6750   22.5450   40.9520 F   0  0  0  0  0  0  0  0  0  0  0  0
   37.4080   24.4040   39.6760 F   0  0  0  0  0  0  0  0  0  0  0  0
   35.9790   23.9410   41.3230 F   0  0  0  0  0  0  0  0  0  0  0  0
  1  7  1  0  0  0  0
  1  6  1  0  0  0  0
  2  1  2  0  0  0  0
  3  2  1  0  0  0  0
  3  4  2  0  0  0  0
  4  5  1  0  0  0  0
  5  6  2  0  0  0  0
  5 24  1  0  0  0  0
  8  9  1  0  0  0  0
  9  3  1  0  0  0  0
 10  9  2  0  0  0  0
 11 10  1  0  0  0  0
 12 18  2  0  0  0  0
 12 10  1  0  0  0  0
 13 12  1  0  0  0  0
 14 13  1  0  0  0  0
 15 13  1  0  0  0  0
 15 17  2  0  0  0  0
 16 15  1  0  0  0  0
 17 18  1  0  0  0  0
 18 19  1  0  0  0  0
 19  8  2  0  0  0  0
 20 21  1  0  0  0  0
 20  2  1  0  0  0  0
 22 20  1  0  0  0  0
 23 20  1  0  0  0  0
 24 25  1  0  0  0  0
 25 27  1  0  0  0  0
 26 25  1  0  0  0  0
 28 25  1  0  0  0  0
 28 29  1  0  0  0  0
 29 34  1  0  0  0  0
 30 35  1  0  0  0  0
 30 29  2  0  0  0  0
 31 30  1  0  0  0  0
 32 31  2  0  0  0  0
 32 33  1  0  0  0  0
 33 28  2  0  0  0  0
 36 39  1  0  0  0  0
 36 32  1  0  0  0  0
 37 36  1  0  0  0  0
 38 36  1  0  0  0  0
M  END
>  <minimizedAffinity>
-6.5389142

$$$$

 OpenBabel03252505593D

 39 42  0  0  0  0  0  0  0  0999 V2000
   39.5810   26.6210   42.9840 C   0  0  0  0  0  0  0  0  0  0  0  0
   38.3980   26.7180   42.2460 C   0  0  0  0  0  0  0  0  0  0  0  0
   38.1610   27.9200   41.5800 C   0  0  0  0  0  0  0  0  0  0  0  0
   39.0710   28.9150   41.6780 N   0  0  0  0  0  0  0  0  0  0  0  0
   40.1930   28.7840   42.3960 C   0  0  0  0  0  0  0  0  0  0  0  0
   40.4500   27.6550   43.0430 N   0  0  0  0  0  0  0  0  0  0  0  0
   39.7460   25.6810   43.4930 H   0  0  0  0  0  0  0  0  0  0  0  0
   35.7570   28.7060   40.9810 C   0  0  0  0  0  3  0  0  0  0  0  0
   37.0540   28.3210   40.7360 C   0  0  0  0  0  0  0  0  0  0  0  0
   37.3530   28.2570   39.3660 C   0  0  0  0  0  0  0  0  0  0  0  0
   38.3470   27.9680   38.9890 H   0  0  0  0  0  0  0  0  0  0  0  0
   36.4710   28.5390   38.3440 C   0  0  0  0  0  0  0  0  0  0  0  0
   36.5240   28.5470   37.0140 N   0  0  0  0  0  0  0  0  0  0  0  0
   37.3620   28.3070   36.4420 H   0  0  0  0  0  0  0  0  0  0  0  0
   35.3290   28.9110   36.5160 C   0  0  0  0  0  0  0  0  0  0  0  0
   35.0450   29.0150   35.4690 H   0  0  0  0  0  0  0  0  0  0  0  0
   34.4450   29.1560   37.5460 C   0  0  0  0  0  3  0  0  0  0  0  0
   35.1870   28.9150   38.6810 C   0  0  0  0  0  0  0  0  0  0  0  0
   34.8490   28.9930   40.0080 C   0  0  0  0  0  3  0  0  0  0  0  0
   37.4830   25.5540   42.1690 C   0  0  0  0  0  0  0  0  0  0  0  0
   36.3960   25.9370   42.9400 F   0  0  0  0  0  0  0  0  0  0  0  0
   38.1220   24.4880   42.8230 F   0  0  0  0  0  0  0  0  0  0  0  0
   37.1980   25.2620   40.8990 F   0  0  0  0  0  0  0  0  0  0  0  0
   41.1370   29.7970   42.5080 O   0  0  0  0  0  0  0  0  0  0  0  0
   40.7630   31.1130   42.7680 C   0  0  0  0  0  0  0  0  0  0  0  0
   41.5800   31.6130   43.3300 H   0  0  0  0  0  0  0  0  0  0  0  0
   39.8790   31.0870   43.4310 H   0  0  0  0  0  0  0  0  0  0  0  0
   40.5210   31.7810   41.4800 C   0  0  0  0  0  0  0  0  0  0  0  0
   41.4260   32.3290   40.5970 C   0  0  0  0  0  0  0  0  0  0  0  0
   40.9360   32.8940   39.4620 C   0  0  0  0  0  0  0  0  0  0  0  0
   39.6450   32.9370   39.1800 N   0  0  0  0  0  0  0  0  0  0  0  0
   38.7730   32.4020   40.0450 C   0  0  0  0  0  0  0  0  0  0  0  0
   39.2000   31.8200   41.2000 N   0  0  0  0  0  0  0  0  0  0  0  0
   42.4420   32.2420   40.9180 H   0  0  0  0  0  0  0  0  0  0  0  0
   41.6890   33.3160   38.7890 H   0  0  0  0  0  0  0  0  0  0  0  0
   37.3390   32.4920   39.6510 C   0  0  0  0  0  0  0  0  0  0  0  0
   36.9490   33.8050   39.4570 F   0  0  0  0  0  0  0  0  0  0  0  0
   36.5410   31.9120   40.6410 F   0  0  0  0  0  0  0  0  0  0  0  0
   37.0850   31.8070   38.4830 F   0  0  0  0  0  0  0  0  0  0  0  0
  1  6  1  0  0  0  0
  1  7  1  0  0  0  0
  2  1  2  0  0  0  0
  3  4  2  0  0  0  0
  3  2  1  0  0  0  0
  4  5  1  0  0  0  0
  5 24  1  0  0  0  0
  5  6  2  0  0  0  0
  9  8  1  0  0  0  0
  9  3  1  0  0  0  0
 10  9  2  0  0  0  0
 11 10  1  0  0  0  0
 12 18  2  0  0  0  0
 12 10  1  0  0  0  0
 13 12  1  0  0  0  0
 14 13  1  0  0  0  0
 15 13  1  0  0  0  0
 15 17  2  0  0  0  0
 16 15  1  0  0  0  0
 17 18  1  0  0  0  0
 18 19  1  0  0  0  0
 19  8  2  0  0  0  0
 20  2  1  0  0  0  0
 20 22  1  0  0  0  0
 20 21  1  0  0  0  0
 23 20  1  0  0  0  0
 24 25  1  0  0  0  0
 25 26  1  0  0  0  0
 25 27  1  0  0  0  0
 28 25  1  0  0  0  0
 29 34  1  0  0  0  0
 29 28  2  0  0  0  0
 30 29  1  0  0  0  0
 31 30  2  0  0  0  0
 31 32  1  0  0  0  0
 32 33  2  0  0  0  0
 33 28  1  0  0  0  0
 35 30  1  0  0  0  0
 36 32  1  0  0  0  0
 36 38  1  0  0  0  0
 37 36  1  0  0  0  0
 39 36  1  0  0  0  0
M  END
>  <minimizedAffinity>
-6.45669889

$$$$

 OpenBabel03252505593D

 39 42  0  0  0  0  0  0  0  0999 V2000
   39.3470   31.8920   41.4450 C   0  0  0  0  0  0  0  0  0  0  0  0
   38.6680   31.6990   40.2380 C   0  0  0  0  0  0  0  0  0  0  0  0
   38.0030   30.4850   40.0700 C   0  0  0  0  0  0  0  0  0  0  0  0
   38.0450   29.5700   41.0640 N   0  0  0  0  0  0  0  0  0  0  0  0
   38.7070   29.7920   42.2060 C   0  0  0  0  0  0  0  0  0  0  0  0
   39.3510   30.9350   42.3990 N   0  0  0  0  0  0  0  0  0  0  0  0
   39.8570   32.8400   41.5560 H   0  0  0  0  0  0  0  0  0  0  0  0
   37.4560   29.8190   37.6170 C   0  0  0  0  0  3  0  0  0  0  0  0
   37.2120   29.9970   38.9590 C   0  0  0  0  0  0  0  0  0  0  0  0
   35.8920   29.6800   39.3180 C   0  0  0  0  0  0  0  0  0  0  0  0
   35.5230   29.7630   40.3530 H   0  0  0  0  0  0  0  0  0  0  0  0
   34.9150   29.2390   38.4520 C   0  0  0  0  0  0  0  0  0  0  0  0
   33.6350   28.8880   38.5560 N   0  0  0  0  0  0  0  0  0  0  0  0
   33.0800   28.8890   39.4390 H   0  0  0  0  0  0  0  0  0  0  0  0
   33.1630   28.5310   37.3490 C   0  0  0  0  0  0  0  0  0  0  0  0
   32.1580   28.1940   37.0970 H   0  0  0  0  0  0  0  0  0  0  0  0
   34.1590   28.6460   36.4020 C   0  0  0  0  0  3  0  0  0  0  0  0
   35.2470   29.0910   37.1210 C   0  0  0  0  0  0  0  0  0  0  0  0
   36.5260   29.3880   36.7230 C   0  0  0  0  0  3  0  0  0  0  0  0
   38.6490   32.7820   39.2250 C   0  0  0  0  0  0  0  0  0  0  0  0
   39.1520   33.8810   39.9060 F   0  0  0  0  0  0  0  0  0  0  0  0
   37.3010   33.0390   38.9270 F   0  0  0  0  0  0  0  0  0  0  0  0
   39.3420   32.4250   38.1420 F   0  0  0  0  0  0  0  0  0  0  0  0
   38.7610   28.8620   43.2370 O   0  0  0  0  0  0  0  0  0  0  0  0
   37.7910   27.8730   43.3740 C   0  0  0  0  0  0  0  0  0  0  0  0
   36.9590   28.0850   42.6680 H   0  0  0  0  0  0  0  0  0  0  0  0
   37.3780   27.9450   44.3970 H   0  0  0  0  0  0  0  0  0  0  0  0
   38.4180   26.5760   43.0770 C   0  0  0  0  0  0  0  0  0  0  0  0
   39.5920   26.0420   43.5630 C   0  0  0  0  0  0  0  0  0  0  0  0
   39.9530   24.8070   43.1240 C   0  0  0  0  0  0  0  0  0  0  0  0
   39.2310   24.1120   42.2610 N   0  0  0  0  0  0  0  0  0  0  0  0
   38.0920   24.6390   41.7930 C   0  0  0  0  0  0  0  0  0  0  0  0
   37.6750   25.8730   42.1950 N   0  0  0  0  0  0  0  0  0  0  0  0
   40.0990   26.6820   44.2530 H   0  0  0  0  0  0  0  0  0  0  0  0
   40.8910   24.4210   43.5350 H   0  0  0  0  0  0  0  0  0  0  0  0
   37.3390   23.7920   40.8270 C   0  0  0  0  0  0  0  0  0  0  0  0
   37.5510   24.2020   39.5230 F   0  0  0  0  0  0  0  0  0  0  0  0
   35.9720   23.8480   41.1160 F   0  0  0  0  0  0  0  0  0  0  0  0
   37.7100   22.4670   40.9110 F   0  0  0  0  0  0  0  0  0  0  0  0
  1  7  1  0  0  0  0
  1  6  1  0  0  0  0
  2  1  2  0  0  0  0
  3  2  1  0  0  0  0
  3  4  2  0  0  0  0
  4  5  1  0  0  0  0
  5  6  2  0  0  0  0
  5 24  1  0  0  0  0
  8  9  1  0  0  0  0
  9 10  2  0  0  0  0
  9  3  1  0  0  0  0
 10 11  1  0  0  0  0
 12 13  1  0  0  0  0
 12 10  1  0  0  0  0
 13 14  1  0  0  0  0
 15 13  1  0  0  0  0
 16 15  1  0  0  0  0
 17 18  1  0  0  0  0
 17 15  2  0  0  0  0
 18 12  2  0  0  0  0
 19 18  1  0  0  0  0
 19  8  2  0  0  0  0
 20 21  1  0  0  0  0
 20  2  1  0  0  0  0
 22 20  1  0  0  0  0
 23 20  1  0  0  0  0
 24 25  1  0  0  0  0
 25 27  1  0  0  0  0
 26 25  1  0  0  0  0
 28 25  1  0  0  0  0
 28 29  1  0  0  0  0
 29 34  1  0  0  0  0
 30 35  1  0  0  0  0
 30 29  2  0  0  0  0
 31 30  1  0  0  0  0
 32 33  1  0  0  0  0
 32 31  2  0  0  0  0
 33 28  2  0  0  0  0
 36 39  1  0  0  0  0
 36 38  1  0  0  0  0
 36 32  1  0  0  0  0
 37 36  1  0  0  0  0
M  END
>  <minimizedAffinity>
-6.39818144

$$$$

 OpenBabel03252505593D

 39 42  0  0  0  0  0  0  0  0999 V2000
   41.7560   31.1110   41.6900 C   0  0  0  0  0  0  0  0  0  0  0  0
   41.1400   29.9340   42.1240 C   0  0  0  0  0  0  0  0  0  0  0  0
   39.7560   29.8470   41.9720 C   0  0  0  0  0  0  0  0  0  0  0  0
   39.0900   30.8860   41.4200 N   0  0  0  0  0  0  0  0  0  0  0  0
   39.7170   31.9970   41.0160 C   0  0  0  0  0  0  0  0  0  0  0  0
   41.0310   32.1140   41.1470 N   0  0  0  0  0  0  0  0  0  0  0  0
   42.8290   31.1590   41.8170 H   0  0  0  0  0  0  0  0  0  0  0  0
   38.0320   28.5080   43.3830 C   0  0  0  0  0  3  0  0  0  0  0  0
   38.8430   28.7730   42.3050 C   0  0  0  0  0  0  0  0  0  0  0  0
   38.8140   27.7540   41.3400 C   0  0  0  0  0  0  0  0  0  0  0  0
   39.4030   27.8010   40.4100 H   0  0  0  0  0  0  0  0  0  0  0  0
   38.0700   26.5970   41.4260 C   0  0  0  0  0  0  0  0  0  0  0  0
   37.8870   25.5210   40.6620 N   0  0  0  0  0  0  0  0  0  0  0  0
   38.3420   25.3520   39.7390 H   0  0  0  0  0  0  0  0  0  0  0  0
   37.0240   24.6820   41.2610 C   0  0  0  0  0  0  0  0  0  0  0  0
   36.6670   23.7190   40.8980 H   0  0  0  0  0  0  0  0  0  0  0  0
   36.6140   25.2110   42.4670 C   0  0  0  0  0  3  0  0  0  0  0  0
   37.2850   26.4120   42.5450 C   0  0  0  0  0  0  0  0  0  0  0  0
   37.2800   27.3820   43.5150 C   0  0  0  0  0  3  0  0  0  0  0  0
   41.9650   28.8350   42.6800 C   0  0  0  0  0  0  0  0  0  0  0  0
   43.1500   29.4600   43.0390 F   0  0  0  0  0  0  0  0  0  0  0  0
   42.2440   27.9570   41.6200 F   0  0  0  0  0  0  0  0  0  0  0  0
   41.3250   28.2250   43.6800 F   0  0  0  0  0  0  0  0  0  0  0  0
   39.0460   33.0740   40.4480 O   0  0  0  0  0  0  0  0  0  0  0  0
   37.6640   33.0650   40.2860 C   0  0  0  0  0  0  0  0  0  0  0  0
   37.3410   34.0570   39.9030 H   0  0  0  0  0  0  0  0  0  0  0  0
   37.2080   32.9370   41.2850 H   0  0  0  0  0  0  0  0  0  0  0  0
   37.3230   31.9950   39.3360 C   0  0  0  0  0  0  0  0  0  0  0  0
   37.6750   31.8600   38.0100 C   0  0  0  0  0  0  0  0  0  0  0  0
   37.2250   30.7620   37.3470 C   0  0  0  0  0  0  0  0  0  0  0  0
   36.4740   29.8350   37.9180 N   0  0  0  0  0  0  0  0  0  0  0  0
   36.1370   29.9750   39.2070 C   0  0  0  0  0  0  0  0  0  0  0  0
   36.5570   31.0530   39.9270 N   0  0  0  0  0  0  0  0  0  0  0  0
   38.2820   32.6610   37.6460 H   0  0  0  0  0  0  0  0  0  0  0  0
   37.5280   30.6940   36.2980 H   0  0  0  0  0  0  0  0  0  0  0  0
   35.2910   28.8880   39.7730 C   0  0  0  0  0  0  0  0  0  0  0  0
   33.9710   29.0180   39.3800 F   0  0  0  0  0  0  0  0  0  0  0  0
   35.3660   28.9100   41.1680 F   0  0  0  0  0  0  0  0  0  0  0  0
   35.7220   27.6420   39.3710 F   0  0  0  0  0  0  0  0  0  0  0  0
  1  7  1  0  0  0  0
  1  2  1  0  0  0  0
  2 20  1  0  0  0  0
  3  2  2  0  0  0  0
  3  9  1  0  0  0  0
  4  3  1  0  0  0  0
  5  6  1  0  0  0  0
  5  4  2  0  0  0  0
  6  1  2  0  0  0  0
  8 19  1  0  0  0  0
  9  8  2  0  0  0  0
 10 12  2  0  0  0  0
 10  9  1  0  0  0  0
 11 10  1  0  0  0  0
 12 18  1  0  0  0  0
 13 15  1  0  0  0  0
 13 12  1  0  0  0  0
 14 13  1  0  0  0  0
 15 17  2  0  0  0  0
 16 15  1  0  0  0  0
 17 18  1  0  0  0  0
 18 19  2  0  0  0  0
 20 21  1  0  0  0  0
 20 23  1  0  0  0  0
 22 20  1  0  0  0  0
 24  5  1  0  0  0  0
 25 24  1  0  0  0  0
 25 27  1  0  0  0  0
 26 25  1  0  0  0  0
 28 33  1  0  0  0  0
 28 25  1  0  0  0  0
 29 28  2  0  0  0  0
 30 31  2  0  0  0  0
 30 29  1  0  0  0  0
 31 32  1  0  0  0  0
 32 36  1  0  0  0  0
 32 33  2  0  0  0  0
 34 29  1  0  0  0  0
 35 30  1  0  0  0  0
 36 38  1  0  0  0  0
 37 36  1  0  0  0  0
 39 36  1  0  0  0  0
M  END
>  <minimizedAffinity>
-6.36218262

$$$$

 OpenBabel03252505593D

 39 42  0  0  0  0  0  0  0  0999 V2000
   33.7430   26.3680   36.7520 C   0  0  0  0  0  0  0  0  0  0  0  0
   34.1830   27.6950   36.7850 C   0  0  0  0  0  0  0  0  0  0  0  0
   35.4050   27.9450   37.4100 C   0  0  0  0  0  0  0  0  0  0  0  0
   36.0940   26.9100   37.9410 N   0  0  0  0  0  0  0  0  0  0  0  0
   35.6390   25.6520   37.8890 C   0  0  0  0  0  0  0  0  0  0  0  0
   34.4810   25.3790   37.3040 N   0  0  0  0  0  0  0  0  0  0  0  0
   32.7940   26.1960   36.2640 H   0  0  0  0  0  0  0  0  0  0  0  0
   36.9730   29.9260   36.8020 C   0  0  0  0  0  3  0  0  0  0  0  0
   36.1260   29.1880   37.5930 C   0  0  0  0  0  0  0  0  0  0  0  0
   35.9650   29.7350   38.8760 C   0  0  0  0  0  0  0  0  0  0  0  0
   35.3200   29.2740   39.6410 H   0  0  0  0  0  0  0  0  0  0  0  0
   36.5730   30.8850   39.3340 C   0  0  0  0  0  0  0  0  0  0  0  0
   36.5750   31.5750   40.4720 N   0  0  0  0  0  0  0  0  0  0  0  0
   36.0370   31.3250   41.3300 H   0  0  0  0  0  0  0  0  0  0  0  0
   37.3760   32.6480   40.3500 C   0  0  0  0  0  0  0  0  0  0  0  0
   37.5910   33.4110   41.0980 H   0  0  0  0  0  0  0  0  0  0  0  0
   37.9310   32.6790   39.0880 C   0  0  0  0  0  3  0  0  0  0  0  0
   37.4110   31.5620   38.4710 C   0  0  0  0  0  0  0  0  0  0  0  0
   37.5980   31.0650   37.2070 C   0  0  0  0  0  3  0  0  0  0  0  0
   33.3720   28.7540   36.1380 C   0  0  0  0  0  0  0  0  0  0  0  0
   32.9790   29.5630   37.1940 F   0  0  0  0  0  0  0  0  0  0  0  0
   32.2230   28.1310   35.6230 F   0  0  0  0  0  0  0  0  0  0  0  0
   34.0750   29.3700   35.1870 F   0  0  0  0  0  0  0  0  0  0  0  0
   36.3340   24.5790   38.4320 O   0  0  0  0  0  0  0  0  0  0  0  0
   35.9910   24.0420   39.6700 C   0  0  0  0  0  0  0  0  0  0  0  0
   35.9920   22.9340   39.5930 H   0  0  0  0  0  0  0  0  0  0  0  0
   34.9550   24.3530   39.8970 H   0  0  0  0  0  0  0  0  0  0  0  0
   36.9800   24.5050   40.6560 C   0  0  0  0  0  0  0  0  0  0  0  0
   38.1820   23.9370   41.0200 C   0  0  0  0  0  0  0  0  0  0  0  0
   38.9180   24.5740   41.9690 C   0  0  0  0  0  0  0  0  0  0  0  0
   38.5290   25.6970   42.5470 N   0  0  0  0  0  0  0  0  0  0  0  0
   37.3580   26.2410   42.1880 C   0  0  0  0  0  0  0  0  0  0  0  0
   36.5740   25.6520   41.2420 N   0  0  0  0  0  0  0  0  0  0  0  0
   38.4040   23.0340   40.4940 H   0  0  0  0  0  0  0  0  0  0  0  0
   39.8650   24.0900   42.2270 H   0  0  0  0  0  0  0  0  0  0  0  0
   36.9940   27.5060   42.8860 C   0  0  0  0  0  0  0  0  0  0  0  0
   38.0320   27.9620   43.6790 F   0  0  0  0  0  0  0  0  0  0  0  0
   35.8610   27.2970   43.6780 F   0  0  0  0  0  0  0  0  0  0  0  0
   36.6790   28.5090   41.9970 F   0  0  0  0  0  0  0  0  0  0  0  0
  1  2  2  0  0  0  0
  1  6  1  0  0  0  0
  2  3  1  0  0  0  0
  3  9  1  0  0  0  0
  3  4  2  0  0  0  0
  5  4  1  0  0  0  0
  5 24  1  0  0  0  0
  6  5  2  0  0  0  0
  7  1  1  0  0  0  0
  8 19  2  0  0  0  0
  8  9  1  0  0  0  0
  9 10  2  0  0  0  0
 10 12  1  0  0  0  0
 10 11  1  0  0  0  0
 12 13  1  0  0  0  0
 13 14  1  0  0  0  0
 15 13  1  0  0  0  0
 15 16  1  0  0  0  0
 17 15  2  0  0  0  0
 18 17  1  0  0  0  0
 18 12  2  0  0  0  0
 19 18  1  0  0  0  0
 20  2  1  0  0  0  0
 20 21  1  0  0  0  0
 22 20  1  0  0  0  0
 23 20  1  0  0  0  0
 24 25  1  0  0  0  0
 25 27  1  0  0  0  0
 25 28  1  0  0  0  0
 26 25  1  0  0  0  0
 28 29  2  0  0  0  0
 28 33  1  0  0  0  0
 29 30  1  0  0  0  0
 30 35  1  0  0  0  0
 30 31  2  0  0  0  0
 32 31  1  0  0  0  0
 32 36  1  0  0  0  0
 33 32  2  0  0  0  0
 34 29  1  0  0  0  0
 36 38  1  0  0  0  0
 36 37  1  0  0  0  0
 39 36  1  0  0  0  0
M  END
>  <minimizedAffinity>
-6.29495859

$$$$

 OpenBabel03252505593D

 39 42  0  0  0  0  0  0  0  0999 V2000
   36.3410   29.6000   40.0510 C   0  0  0  0  0  0  0  0  0  0  0  0
   37.2210   30.5840   39.5900 C   0  0  0  0  0  0  0  0  0  0  0  0
   38.1780   31.0520   40.4910 C   0  0  0  0  0  0  0  0  0  0  0  0
   38.2090   30.5400   41.7410 N   0  0  0  0  0  0  0  0  0  0  0  0
   37.3480   29.5980   42.1440 C   0  0  0  0  0  0  0  0  0  0  0  0
   36.4240   29.1310   41.3150 N   0  0  0  0  0  0  0  0  0  0  0  0
   35.6060   29.2500   39.3380 H   0  0  0  0  0  0  0  0  0  0  0  0
   39.2560   33.4140   40.3710 C   0  0  0  0  0  3  0  0  0  0  0  0
   39.2220   32.0410   40.3170 C   0  0  0  0  0  0  0  0  0  0  0  0
   40.4610   31.4790   39.9700 C   0  0  0  0  0  0  0  0  0  0  0  0
   40.6160   30.3920   39.8820 H   0  0  0  0  0  0  0  0  0  0  0  0
   41.6110   32.1910   39.7020 C   0  0  0  0  0  0  0  0  0  0  0  0
   42.8630   31.8890   39.3630 N   0  0  0  0  0  0  0  0  0  0  0  0
   43.2340   30.9240   39.2240 H   0  0  0  0  0  0  0  0  0  0  0  0
   43.5800   33.0180   39.2250 C   0  0  0  0  0  0  0  0  0  0  0  0
   44.6310   33.1140   38.9560 H   0  0  0  0  0  0  0  0  0  0  0  0
   42.7830   34.1150   39.4810 C   0  0  0  0  0  3  0  0  0  0  0  0
   41.5540   33.5670   39.7780 C   0  0  0  0  0  0  0  0  0  0  0  0
   40.3640   34.1610   40.1140 C   0  0  0  0  0  3  0  0  0  0  0  0
   37.1300   31.0520   38.1870 C   0  0  0  0  0  0  0  0  0  0  0  0
   36.0930   30.3010   37.6540 F   0  0  0  0  0  0  0  0  0  0  0  0
   38.3180   30.6610   37.5480 F   0  0  0  0  0  0  0  0  0  0  0  0
   36.9500   32.3730   38.1420 F   0  0  0  0  0  0  0  0  0  0  0  0
   37.3650   29.0620   43.4260 O   0  0  0  0  0  0  0  0  0  0  0  0
   36.9160   27.7690   43.6790 C   0  0  0  0  0  0  0  0  0  0  0  0
   35.9830   27.5930   43.1010 H   0  0  0  0  0  0  0  0  0  0  0  0
   36.6520   27.7070   44.7510 H   0  0  0  0  0  0  0  0  0  0  0  0
   37.9740   26.8310   43.2730 C   0  0  0  0  0  0  0  0  0  0  0  0
   39.2900   26.7700   43.6800 C   0  0  0  0  0  0  0  0  0  0  0  0
   40.0700   25.7940   43.1460 C   0  0  0  0  0  0  0  0  0  0  0  0
   39.6210   24.9150   42.2650 N   0  0  0  0  0  0  0  0  0  0  0  0
   38.3400   24.9830   41.8760 C   0  0  0  0  0  0  0  0  0  0  0  0
   37.5060   25.9390   42.3740 N   0  0  0  0  0  0  0  0  0  0  0  0
   39.5520   27.5230   44.3920 H   0  0  0  0  0  0  0  0  0  0  0  0
   41.1070   25.7810   43.4960 H   0  0  0  0  0  0  0  0  0  0  0  0
   37.9150   23.9570   40.8820 C   0  0  0  0  0  0  0  0  0  0  0  0
   36.5730   23.6500   41.0180 F   0  0  0  0  0  0  0  0  0  0  0  0
   38.6770   22.7970   41.0470 F   0  0  0  0  0  0  0  0  0  0  0  0
   38.1140   24.3850   39.5880 F   0  0  0  0  0  0  0  0  0  0  0  0
  1  6  1  0  0  0  0
  2  1  2  0  0  0  0
  2  3  1  0  0  0  0
  3  4  2  0  0  0  0
  4  5  1  0  0  0  0
  5 24  1  0  0  0  0
  6  5  2  0  0  0  0
  7  1  1  0  0  0  0
  9  8  1  0  0  0  0
  9  3  1  0  0  0  0
 10  9  2  0  0  0  0
 11 10  1  0  0  0  0
 12 18  2  0  0  0  0
 12 10  1  0  0  0  0
 13 12  1  0  0  0  0
 14 13  1  0  0  0  0
 15 13  1  0  0  0  0
 15 17  2  0  0  0  0
 16 15  1  0  0  0  0
 17 18  1  0  0  0  0
 18 19  1  0  0  0  0
 19  8  2  0  0  0  0
 20  2  1  0  0  0  0
 21 20  1  0  0  0  0
 22 20  1  0  0  0  0
 23 20  1  0  0  0  0
 24 25  1  0  0  0  0
 25 27  1  0  0  0  0
 26 25  1  0  0  0  0
 28 25  1  0  0  0  0
 28 29  1  0  0  0  0
 29 34  1  0  0  0  0
 30 35  1  0  0  0  0
 30 29  2  0  0  0  0
 31 30  1  0  0  0  0
 32 31  2  0  0  0  0
 32 33  1  0  0  0  0
 33 28  2  0  0  0  0
 36 37  1  0  0  0  0
 36 38  1  0  0  0  0
 36 32  1  0  0  0  0
 39 36  1  0  0  0  0
M  END
>  <minimizedAffinity>
-6.21047544

$$$$

 OpenBabel03252505593D

 39 42  0  0  0  0  0  0  0  0999 V2000
   36.9640   26.1070   40.7430 C   0  0  0  0  0  0  0  0  0  0  0  0
   37.4170   27.3470   41.2040 C   0  0  0  0  0  0  0  0  0  0  0  0
   37.8490   28.2620   40.2450 C   0  0  0  0  0  0  0  0  0  0  0  0
   37.8070   27.9140   38.9390 N   0  0  0  0  0  0  0  0  0  0  0  0
   37.3670   26.7160   38.5370 C   0  0  0  0  0  0  0  0  0  0  0  0
   36.9500   25.8200   39.4230 N   0  0  0  0  0  0  0  0  0  0  0  0
   36.6340   25.4110   41.5030 H   0  0  0  0  0  0  0  0  0  0  0  0
   39.4880   30.1490   40.9570 C   0  0  0  0  0  3  0  0  0  0  0  0
   38.3540   29.6110   40.3980 C   0  0  0  0  0  0  0  0  0  0  0  0
   37.4700   30.5890   39.9140 C   0  0  0  0  0  0  0  0  0  0  0  0
   36.5110   30.3370   39.4330 H   0  0  0  0  0  0  0  0  0  0  0  0
   37.6770   31.9510   39.9750 C   0  0  0  0  0  0  0  0  0  0  0  0
   37.0060   33.0360   39.5960 N   0  0  0  0  0  0  0  0  0  0  0  0
   36.0770   33.0360   39.1220 H   0  0  0  0  0  0  0  0  0  0  0  0
   37.7060   34.1380   39.9180 C   0  0  0  0  0  0  0  0  0  0  0  0
   37.4340   35.1780   39.7440 H   0  0  0  0  0  0  0  0  0  0  0  0
   38.8880   33.7800   40.5330 C   0  0  0  0  0  3  0  0  0  0  0  0
   38.8440   32.4030   40.5550 C   0  0  0  0  0  0  0  0  0  0  0  0
   39.7390   31.4840   41.0420 C   0  0  0  0  0  3  0  0  0  0  0  0
   37.3860   27.6470   42.6550 C   0  0  0  0  0  0  0  0  0  0  0  0
   36.5740   26.6530   43.1810 F   0  0  0  0  0  0  0  0  0  0  0  0
   36.7170   28.8740   42.8040 F   0  0  0  0  0  0  0  0  0  0  0  0
   38.6220   27.6880   43.1540 F   0  0  0  0  0  0  0  0  0  0  0  0
   37.3190   26.3410   37.2000 O   0  0  0  0  0  0  0  0  0  0  0  0
   37.7330   27.2050   36.1890 C   0  0  0  0  0  0  0  0  0  0  0  0
   38.2050   26.6080   35.3790 H   0  0  0  0  0  0  0  0  0  0  0  0
   38.5150   27.8640   36.6080 H   0  0  0  0  0  0  0  0  0  0  0  0
   36.5510   27.9260   35.6940 C   0  0  0  0  0  0  0  0  0  0  0  0
   35.2160   27.6140   35.8330 C   0  0  0  0  0  0  0  0  0  0  0  0
   34.3090   28.4590   35.2740 C   0  0  0  0  0  0  0  0  0  0  0  0
   34.6560   29.5500   34.6120 N   0  0  0  0  0  0  0  0  0  0  0  0
   35.9560   29.8450   34.4810 C   0  0  0  0  0  0  0  0  0  0  0  0
   36.9150   29.0380   35.0190 N   0  0  0  0  0  0  0  0  0  0  0  0
   35.0430   26.7150   36.3840 H   0  0  0  0  0  0  0  0  0  0  0  0
   33.2610   28.1740   35.4080 H   0  0  0  0  0  0  0  0  0  0  0  0
   36.2610   31.0900   33.7220 C   0  0  0  0  0  0  0  0  0  0  0  0
   35.1040   31.7310   33.3180 F   0  0  0  0  0  0  0  0  0  0  0  0
   37.0380   30.7810   32.6020 F   0  0  0  0  0  0  0  0  0  0  0  0
   36.9890   31.9840   34.4770 F   0  0  0  0  0  0  0  0  0  0  0  0
  1  2  1  0  0  0  0
  1  7  1  0  0  0  0
  2 20  1  0  0  0  0
  3  9  1  0  0  0  0
  3  2  2  0  0  0  0
  4  3  1  0  0  0  0
  5  4  2  0  0  0  0
  5  6  1  0  0  0  0
  6  1  2  0  0  0  0
  8 19  1  0  0  0  0
  9  8  2  0  0  0  0
 10 12  2  0  0  0  0
 10  9  1  0  0  0  0
 11 10  1  0  0  0  0
 12 18  1  0  0  0  0
 13 15  1  0  0  0  0
 13 12  1  0  0  0  0
 14 13  1  0  0  0  0
 15 17  2  0  0  0  0
 16 15  1  0  0  0  0
 17 18  1  0  0  0  0
 18 19  2  0  0  0  0
 20 22  1  0  0  0  0
 20 23  1  0  0  0  0
 20 21  1  0  0  0  0
 24  5  1  0  0  0  0
 25 27  1  0  0  0  0
 25 24  1  0  0  0  0
 26 25  1  0  0  0  0
 28 29  1  0  0  0  0
 28 25  1  0  0  0  0
 29 34  1  0  0  0  0
 30 35  1  0  0  0  0
 30 29  2  0  0  0  0
 31 30  1  0  0  0  0
 32 31  2  0  0  0  0
 32 33  1  0  0  0  0
 33 28  2  0  0  0  0
 36 39  1  0  0  0  0
 36 32  1  0  0  0  0
 37 36  1  0  0  0  0
 38 36  1  0  0  0  0
M  END
>  <minimizedAffinity>
-6.16062403

$$$$

 OpenBabel03252505593D

 39 42  0  0  0  0  0  0  0  0999 V2000
   39.4060   28.6520   42.9190 C   0  0  0  0  0  0  0  0  0  0  0  0
   39.0900   27.3600   42.4900 C   0  0  0  0  0  0  0  0  0  0  0  0
   37.9280   27.2070   41.7340 C   0  0  0  0  0  0  0  0  0  0  0  0
   37.1780   28.2970   41.4550 N   0  0  0  0  0  0  0  0  0  0  0  0
   37.5140   29.5190   41.8860 C   0  0  0  0  0  0  0  0  0  0  0  0
   38.6110   29.7000   42.6080 N   0  0  0  0  0  0  0  0  0  0  0  0
   40.3100   28.7490   43.5050 H   0  0  0  0  0  0  0  0  0  0  0  0
   36.9180   24.8140   41.6400 C   0  0  0  0  0  3  0  0  0  0  0  0
   37.3470   26.0210   41.1400 C   0  0  0  0  0  0  0  0  0  0  0  0
   37.2400   26.0990   39.7420 C   0  0  0  0  0  0  0  0  0  0  0  0
   37.5370   26.9950   39.1730 H   0  0  0  0  0  0  0  0  0  0  0  0
   36.7660   25.0980   38.9220 C   0  0  0  0  0  0  0  0  0  0  0  0
   36.5780   24.9450   37.6130 N   0  0  0  0  0  0  0  0  0  0  0  0
   36.7890   25.6620   36.8860 H   0  0  0  0  0  0  0  0  0  0  0  0
   36.0740   23.7230   37.3670 C   0  0  0  0  0  0  0  0  0  0  0  0
   35.8100   23.2900   36.4020 H   0  0  0  0  0  0  0  0  0  0  0  0
   35.9180   23.0320   38.5500 C   0  0  0  0  0  3  0  0  0  0  0  0
   36.3590   23.9170   39.5100 C   0  0  0  0  0  0  0  0  0  0  0  0
   36.4440   23.7950   40.8730 C   0  0  0  0  0  3  0  0  0  0  0  0
   40.0000   26.2360   42.8140 C   0  0  0  0  0  0  0  0  0  0  0  0
   41.1480   26.8620   43.2780 F   0  0  0  0  0  0  0  0  0  0  0  0
   40.3160   25.6020   41.6000 F   0  0  0  0  0  0  0  0  0  0  0  0
   39.4250   25.3990   43.6800 F   0  0  0  0  0  0  0  0  0  0  0  0
   36.7530   30.6490   41.6100 O   0  0  0  0  0  0  0  0  0  0  0  0
   37.1410   31.5660   40.6370 C   0  0  0  0  0  0  0  0  0  0  0  0
   38.2070   31.8350   40.8020 H   0  0  0  0  0  0  0  0  0  0  0  0
   36.5460   32.4860   40.7840 H   0  0  0  0  0  0  0  0  0  0  0  0
   36.9520   30.9400   39.3200 C   0  0  0  0  0  0  0  0  0  0  0  0
   37.7680   30.9790   38.2090 C   0  0  0  0  0  0  0  0  0  0  0  0
   37.3580   30.3060   37.1020 C   0  0  0  0  0  0  0  0  0  0  0  0
   36.2240   29.6280   37.0510 N   0  0  0  0  0  0  0  0  0  0  0  0
   35.4370   29.5960   38.1350 C   0  0  0  0  0  0  0  0  0  0  0  0
   35.7920   30.2500   39.2770 N   0  0  0  0  0  0  0  0  0  0  0  0
   38.6580   31.5520   38.3540 H   0  0  0  0  0  0  0  0  0  0  0  0
   38.0350   30.3630   36.2440 H   0  0  0  0  0  0  0  0  0  0  0  0
   34.1790   28.8110   37.9950 C   0  0  0  0  0  0  0  0  0  0  0  0
   34.4280   27.4500   38.0200 F   0  0  0  0  0  0  0  0  0  0  0  0
   33.5450   29.1460   36.7960 F   0  0  0  0  0  0  0  0  0  0  0  0
   33.2870   29.0880   39.0080 F   0  0  0  0  0  0  0  0  0  0  0  0
  1  7  1  0  0  0  0
  2 20  1  0  0  0  0
  2  1  2  0  0  0  0
  3  2  1  0  0  0  0
  4  3  2  0  0  0  0
  4  5  1  0  0  0  0
  5  6  2  0  0  0  0
  6  1  1  0  0  0  0
  9  8  1  0  0  0  0
  9  3  1  0  0  0  0
 10  9  2  0  0  0  0
 11 10  1  0  0  0  0
 12 18  2  0  0  0  0
 12 10  1  0  0  0  0
 13 12  1  0  0  0  0
 14 13  1  0  0  0  0
 15 13  1  0  0  0  0
 15 17  2  0  0  0  0
 16 15  1  0  0  0  0
 17 18  1  0  0  0  0
 18 19  1  0  0  0  0
 19  8  2  0  0  0  0
 20 21  1  0  0  0  0
 20 23  1  0  0  0  0
 22 20  1  0  0  0  0
 24  5  1  0  0  0  0
 25 27  1  0  0  0  0
 25 26  1  0  0  0  0
 25 24  1  0  0  0  0
 28 25  1  0  0  0  0
 29 34  1  0  0  0  0
 29 28  2  0  0  0  0
 30 29  1  0  0  0  0
 31 30  2  0  0  0  0
 31 32  1  0  0  0  0
 32 33  2  0  0  0  0
 33 28  1  0  0  0  0
 35 30  1  0  0  0  0
 36 37  1  0  0  0  0
 36 32  1  0  0  0  0
 36 39  1  0  0  0  0
 38 36  1  0  0  0  0
M  END
>  <minimizedAffinity>
-6.04564667

$$$$

 OpenBabel03252505593D

 39 42  0  0  0  0  0  0  0  0999 V2000
   37.0290   24.7840   40.6980 C   0  0  0  0  0  0  0  0  0  0  0  0
   36.4560   25.2690   39.5180 C   0  0  0  0  0  0  0  0  0  0  0  0
   36.4100   26.6540   39.3570 C   0  0  0  0  0  0  0  0  0  0  0  0
   36.9150   27.4450   40.3300 N   0  0  0  0  0  0  0  0  0  0  0  0
   37.4550   26.9420   41.4460 C   0  0  0  0  0  0  0  0  0  0  0  0
   37.5140   25.6300   41.6330 N   0  0  0  0  0  0  0  0  0  0  0  0
   37.0540   23.7080   40.8040 H   0  0  0  0  0  0  0  0  0  0  0  0
   34.6800   28.0130   37.9730 C   0  0  0  0  0  3  0  0  0  0  0  0
   35.9020   27.4520   38.2610 C   0  0  0  0  0  0  0  0  0  0  0  0
   36.8480   27.6600   37.2440 C   0  0  0  0  0  0  0  0  0  0  0  0
   37.8800   27.2800   37.3080 H   0  0  0  0  0  0  0  0  0  0  0  0
   36.6180   28.3430   36.0690 C   0  0  0  0  0  0  0  0  0  0  0  0
   37.3340   28.6580   34.9920 N   0  0  0  0  0  0  0  0  0  0  0  0
   38.3340   28.4030   34.8370 H   0  0  0  0  0  0  0  0  0  0  0  0
   36.5750   29.3570   34.1310 C   0  0  0  0  0  0  0  0  0  0  0  0
   36.8630   29.7610   33.1610 H   0  0  0  0  0  0  0  0  0  0  0  0
   35.3050   29.5170   34.6460 C   0  0  0  0  0  3  0  0  0  0  0  0
   35.3600   28.8720   35.8630 C   0  0  0  0  0  0  0  0  0  0  0  0
   34.4030   28.6950   36.8290 C   0  0  0  0  0  3  0  0  0  0  0  0
   35.9670   24.3160   38.4930 C   0  0  0  0  0  0  0  0  0  0  0  0
   34.6330   24.6600   38.3310 F   0  0  0  0  0  0  0  0  0  0  0  0
   36.0150   23.0360   39.0690 F   0  0  0  0  0  0  0  0  0  0  0  0
   36.7070   24.3950   37.3870 F   0  0  0  0  0  0  0  0  0  0  0  0
   37.9760   27.7410   42.4560 O   0  0  0  0  0  0  0  0  0  0  0  0
   37.3980   28.9640   42.7850 C   0  0  0  0  0  0  0  0  0  0  0  0
   37.4180   29.0850   43.8890 H   0  0  0  0  0  0  0  0  0  0  0  0
   36.3360   28.9290   42.4800 H   0  0  0  0  0  0  0  0  0  0  0  0
   38.1710   30.0260   42.1230 C   0  0  0  0  0  0  0  0  0  0  0  0
   39.3870   30.5710   42.4760 C   0  0  0  0  0  0  0  0  0  0  0  0
   39.8910   31.5530   41.6840 C   0  0  0  0  0  0  0  0  0  0  0  0
   39.2690   31.9980   40.6050 N   0  0  0  0  0  0  0  0  0  0  0  0
   38.0870   31.4630   40.2700 C   0  0  0  0  0  0  0  0  0  0  0  0
   37.5280   30.4740   41.0230 N   0  0  0  0  0  0  0  0  0  0  0  0
   39.8060   30.1430   43.3610 H   0  0  0  0  0  0  0  0  0  0  0  0
   40.8580   31.9580   42.0000 H   0  0  0  0  0  0  0  0  0  0  0  0
   37.4530   32.0190   39.0420 C   0  0  0  0  0  0  0  0  0  0  0  0
   36.5140   31.1480   38.5190 F   0  0  0  0  0  0  0  0  0  0  0  0
   38.4350   32.2770   38.0800 F   0  0  0  0  0  0  0  0  0  0  0  0
   36.8170   33.2150   39.2920 F   0  0  0  0  0  0  0  0  0  0  0  0
  1  7  1  0  0  0  0
  1  6  1  0  0  0  0
  2  1  2  0  0  0  0
  3  2  1  0  0  0  0
  3  4  2  0  0  0  0
  4  5  1  0  0  0  0
  5  6  2  0  0  0  0
  5 24  1  0  0  0  0
  8  9  1  0  0  0  0
  9  3  1  0  0  0  0
 10 11  1  0  0  0  0
 10  9  2  0  0  0  0
 12 10  1  0  0  0  0
 13 12  1  0  0  0  0
 14 13  1  0  0  0  0
 15 17  2  0  0  0  0
 15 13  1  0  0  0  0
 16 15  1  0  0  0  0
 17 18  1  0  0  0  0
 18 12  2  0  0  0  0
 18 19  1  0  0  0  0
 19  8  2  0  0  0  0
 20 22  1  0  0  0  0
 20  2  1  0  0  0  0
 21 20  1  0  0  0  0
 23 20  1  0  0  0  0
 24 25  1  0  0  0  0
 25 26  1  0  0  0  0
 27 25  1  0  0  0  0
 28 29  1  0  0  0  0
 28 25  1  0  0  0  0
 29 34  1  0  0  0  0
 30 35  1  0  0  0  0
 30 29  2  0  0  0  0
 31 30  1  0  0  0  0
 32 31  2  0  0  0  0
 32 33  1  0  0  0  0
 33 28  2  0  0  0  0
 36 39  1  0  0  0  0
 36 32  1  0  0  0  0
 37 36  1  0  0  0  0
 38 36  1  0  0  0  0
M  END
>  <minimizedAffinity>
-6.04171562

$$$$
