
 OpenBabel03252509263D

 33 36  0  0  1  0  0  0  0  0999 V2000
   46.5090   34.9710   41.9210 C   0  0  1  0  0  0  0  0  0  0  0  0
   47.9850   35.4550   41.9040 C   0  0  0  0  0  0  0  0  0  0  0  0
   47.4590   34.0770   41.3990 C   0  0  2  0  0  0  0  0  0  0  0  0
   45.8600   35.6070   41.2940 H   0  0  0  0  0  0  0  0  0  0  0  0
   48.5580   35.4380   42.8360 H   0  0  0  0  0  0  0  0  0  0  0  0
   48.2380   36.1860   41.1190 H   0  0  0  0  0  0  0  0  0  0  0  0
   47.8040   33.2120   42.0410 H   0  0  0  0  0  0  0  0  0  0  0  0
   44.6590   35.4160   45.1550 C   0  0  0  0  0  0  0  0  0  0  0  0
   45.1000   35.6800   43.8300 C   0  0  0  0  0  0  0  0  0  0  0  0
   46.0210   34.8120   43.3430 C   0  0  0  0  0  0  0  0  0  0  0  0
   46.5010   33.7460   44.0800 N   0  0  0  0  0  0  0  0  0  0  0  0
   46.0540   33.5310   45.3420 C   0  0  0  0  0  0  0  0  0  0  0  0
   45.1270   34.3750   45.8790 N   0  0  0  0  0  0  0  0  0  0  0  0
   43.9220   36.1070   45.5490 H   0  0  0  0  0  0  0  0  0  0  0  0
   46.3810   32.7320   45.9660 H   0  0  0  0  0  0  0  0  0  0  0  0
   44.6350   36.7790   43.0910 N   0  0  0  0  0  0  0  0  0  0  0  0
   43.7150   36.9100   42.6130 H   0  0  0  0  0  0  0  0  0  0  0  0
   45.3550   37.5600   43.0410 H   0  0  0  0  0  0  0  0  0  0  0  0
   47.5330   33.7770   39.9210 C   0  0  0  0  0  0  0  0  0  0  0  0
   46.6140   33.2050   39.6830 H   0  0  0  0  0  0  0  0  0  0  0  0
   47.5210   34.7040   39.3130 H   0  0  0  0  0  0  0  0  0  0  0  0
   49.0920   32.4700   38.4130 C   0  0  0  0  0  3  0  0  0  0  0  0
   48.6910   32.9120   39.6500 C   0  0  0  0  0  0  0  0  0  0  0  0
   49.4370   32.5150   40.7540 C   0  0  0  0  0  0  0  0  0  0  0  0
   49.1980   32.8140   41.7650 H   0  0  0  0  0  0  0  0  0  0  0  0
   50.5490   31.7030   40.6420 C   0  0  0  0  0  0  0  0  0  0  0  0
   51.4230   31.1870   41.5220 N   0  0  0  0  0  0  0  0  0  0  0  0
   51.3730   31.3530   42.5660 H   0  0  0  0  0  0  0  0  0  0  0  0
   52.3500   30.4420   40.8940 C   0  0  0  0  0  0  0  0  0  0  0  0
   53.1510   29.9340   41.4200 H   0  0  0  0  0  0  0  0  0  0  0  0
   52.0840   30.4640   39.5400 C   0  0  0  0  0  3  0  0  0  0  0  0
   50.9520   31.2590   39.4050 C   0  0  0  0  0  0  0  0  0  0  0  0
   50.2070   31.6560   38.3090 C   0  0  0  0  0  3  0  0  0  0  0  0
  1  4  1  6  0  0  0
  1 10  1  0  0  0  0
  2  1  1  0  0  0  0
  2  5  1  0  0  0  0
  3  2  1  0  0  0  0
  3  1  1  0  0  0  0
  3  7  1  1  0  0  0
  6  2  1  0  0  0  0
  8 14  1  0  0  0  0
  8 13  1  0  0  0  0
  9  8  2  0  0  0  0
 10  9  1  0  0  0  0
 10 11  2  0  0  0  0
 11 12  1  0  0  0  0
 12 13  2  0  0  0  0
 12 15  1  0  0  0  0
 16  9  1  0  0  0  0
 17 16  1  0  0  0  0
 18 16  1  0  0  0  0
 19  3  1  0  0  0  0
 20 19  1  0  0  0  0
 21 19  1  0  0  0  0
 22 23  1  0  0  0  0
 23 19  1  0  0  0  0
 23 24  2  0  0  0  0
 24 25  1  0  0  0  0
 26 24  1  0  0  0  0
 26 27  1  0  0  0  0
 27 28  1  0  0  0  0
 29 30  1  0  0  0  0
 29 27  1  0  0  0  0
 31 29  2  0  0  0  0
 32 31  1  0  0  0  0
 32 26  2  0  0  0  0
 33 22  2  0  0  0  0
 33 32  1  0  0  0  0
M  END
>  <minimizedAffinity>
-5.21857786

>  <minimizedRMSD>
1.08897936

$$$$
