
 OpenBabel03252509263D

 33 36  0  0  1  0  0  0  0  0999 V2000
   46.1910   34.9190   42.2330 C   0  0  1  0  0  0  0  0  0  0  0  0
   47.7140   35.1260   42.0140 C   0  0  0  0  0  0  0  0  0  0  0  0
   46.8470   33.9660   41.4360 C   0  0  2  0  0  0  0  0  0  0  0  0
   45.5990   35.7550   41.8230 H   0  0  0  0  0  0  0  0  0  0  0  0
   48.4060   34.8530   42.8160 H   0  0  0  0  0  0  0  0  0  0  0  0
   47.9900   35.9170   41.2990 H   0  0  0  0  0  0  0  0  0  0  0  0
   47.1010   32.9600   41.8850 H   0  0  0  0  0  0  0  0  0  0  0  0
   44.7250   34.9620   45.6870 C   0  0  0  0  0  0  0  0  0  0  0  0
   44.9700   35.3540   44.3430 C   0  0  0  0  0  0  0  0  0  0  0  0
   45.9010   34.6190   43.6860 C   0  0  0  0  0  0  0  0  0  0  0  0
   46.5690   33.5640   44.2790 N   0  0  0  0  0  0  0  0  0  0  0  0
   46.3060   33.2240   45.5640 C   0  0  0  0  0  0  0  0  0  0  0  0
   45.3770   33.9310   46.2690 N   0  0  0  0  0  0  0  0  0  0  0  0
   43.9810   35.5460   46.2170 H   0  0  0  0  0  0  0  0  0  0  0  0
   46.7820   32.4240   46.0820 H   0  0  0  0  0  0  0  0  0  0  0  0
   44.3140   36.4440   43.7490 N   0  0  0  0  0  0  0  0  0  0  0  0
   43.3340   36.5090   43.3940 H   0  0  0  0  0  0  0  0  0  0  0  0
   44.9450   37.2970   43.6750 H   0  0  0  0  0  0  0  0  0  0  0  0
   46.6330   33.9040   39.9420 C   0  0  0  0  0  0  0  0  0  0  0  0
   45.5560   33.6850   39.8010 H   0  0  0  0  0  0  0  0  0  0  0  0
   46.8470   34.8780   39.4560 H   0  0  0  0  0  0  0  0  0  0  0  0
   46.9290   31.5160   39.1510 C   0  0  0  0  0  3  0  0  0  0  0  0
   47.4040   32.7850   39.3790 C   0  0  0  0  0  0  0  0  0  0  0  0
   48.7300   33.0500   39.0540 C   0  0  0  0  0  0  0  0  0  0  0  0
   49.1890   34.0180   39.1980 H   0  0  0  0  0  0  0  0  0  0  0  0
   49.5660   32.0890   38.5180 C   0  0  0  0  0  0  0  0  0  0  0  0
   50.8490   32.0800   38.1250 N   0  0  0  0  0  0  0  0  0  0  0  0
   51.4880   32.9250   38.1780 H   0  0  0  0  0  0  0  0  0  0  0  0
   51.1990   30.8680   37.6620 C   0  0  0  0  0  0  0  0  0  0  0  0
   52.1950   30.6430   37.2930 H   0  0  0  0  0  0  0  0  0  0  0  0
   50.1050   30.0330   37.7500 C   0  0  0  0  0  3  0  0  0  0  0  0
   49.0920   30.8190   38.2890 C   0  0  0  0  0  0  0  0  0  0  0  0
   47.7720   30.5590   38.6140 C   0  0  0  0  0  3  0  0  0  0  0  0
  1  4  1  6  0  0  0
  1 10  1  0  0  0  0
  2  1  1  0  0  0  0
  2  5  1  0  0  0  0
  3  7  1  1  0  0  0
  3  2  1  0  0  0  0
  3  1  1  0  0  0  0
  6  2  1  0  0  0  0
  8 14  1  0  0  0  0
  8 13  1  0  0  0  0
  9  8  2  0  0  0  0
 10 11  2  0  0  0  0
 10  9  1  0  0  0  0
 11 12  1  0  0  0  0
 12 15  1  0  0  0  0
 12 13  2  0  0  0  0
 16  9  1  0  0  0  0
 17 16  1  0  0  0  0
 18 16  1  0  0  0  0
 19  3  1  0  0  0  0
 20 19  1  0  0  0  0
 21 19  1  0  0  0  0
 22 23  1  0  0  0  0
 23 19  1  0  0  0  0
 24 25  1  0  0  0  0
 24 23  2  0  0  0  0
 26 24  1  0  0  0  0
 27 28  1  0  0  0  0
 27 26  1  0  0  0  0
 29 31  2  0  0  0  0
 29 27  1  0  0  0  0
 30 29  1  0  0  0  0
 31 32  1  0  0  0  0
 32 26  2  0  0  0  0
 32 33  1  0  0  0  0
 33 22  2  0  0  0  0
M  END
>  <minimizedAffinity>
-4.83768988

>  <minimizedRMSD>
0.87944901

$$$$
