
 OpenBabel03242520523D

 25 27  0  0  0  0  0  0  0  0999 V2000
   35.1910   27.7590   35.2450 C   0  0  0  0  0  0  0  0  0  0  0  0
   35.5770   28.1960   33.9830 C   0  0  0  0  0  0  0  0  0  0  0  0
   36.3500   29.3440   33.8630 C   0  0  0  0  0  0  0  0  0  0  0  0
   36.6870   29.9810   35.0130 N   0  0  0  0  0  0  0  0  0  0  0  0
   36.3080   29.5470   36.2220 C   0  0  0  0  0  0  0  0  0  0  0  0
   35.5560   28.4310   36.3360 N   0  0  0  0  0  0  0  0  0  0  0  0
   34.5850   26.8510   35.2600 H   0  0  0  0  0  0  0  0  0  0  0  0
   35.3290   27.7200   33.0670 H   0  0  0  0  0  0  0  0  0  0  0  0
   36.1200   29.9790   38.6370 C   0  0  0  0  0  3  0  0  0  0  0  0
   36.7060   30.2800   37.4220 C   0  0  0  0  0  0  0  0  0  0  0  0
   37.6660   31.2670   37.3200 C   0  0  0  0  0  0  0  0  0  0  0  0
   38.1560   31.5420   36.3950 H   0  0  0  0  0  0  0  0  0  0  0  0
   38.0520   31.9700   38.4550 C   0  0  0  0  0  0  0  0  0  0  0  0
   38.9410   32.9720   38.6970 N   0  0  0  0  0  0  0  0  0  0  0  0
   39.5120   33.3720   37.9240 H   0  0  0  0  0  0  0  0  0  0  0  0
   38.8960   33.2710   40.0240 C   0  0  0  0  0  0  0  0  0  0  0  0
   39.5540   34.0550   40.3680 H   0  0  0  0  0  0  0  0  0  0  0  0
   37.9660   32.4510   40.6410 C   0  0  0  0  0  3  0  0  0  0  0  0
   37.4350   31.6300   39.6410 C   0  0  0  0  0  0  0  0  0  0  0  0
   36.4710   30.6560   39.8050 C   0  0  0  0  0  3  0  0  0  0  0  0
   36.8130   29.9070   32.6940 O   0  0  0  0  0  0  0  0  0  0  0  0
   36.4930   31.2890   32.4830 C   0  0  0  0  0  0  0  0  0  0  0  0
   37.5880   32.0790   32.8140 F   0  0  0  0  0  0  0  0  0  0  0  0
   36.2240   31.4660   31.1210 F   0  0  0  0  0  0  0  0  0  0  0  0
   35.3500   31.6500   33.1970 F   0  0  0  0  0  0  0  0  0  0  0  0
  1  7  1  0  0  0  0
  1  6  1  0  0  0  0
  2  1  2  0  0  0  0
  3  2  1  0  0  0  0
  3  4  2  0  0  0  0
  4  5  1  0  0  0  0
  5  6  2  0  0  0  0
  5 10  1  0  0  0  0
  8  2  1  0  0  0  0
  9 20  1  0  0  0  0
 10  9  2  0  0  0  0
 11 10  1  0  0  0  0
 11 13  2  0  0  0  0
 12 11  1  0  0  0  0
 13 14  1  0  0  0  0
 13 19  1  0  0  0  0
 14 16  1  0  0  0  0
 15 14  1  0  0  0  0
 16 17  1  0  0  0  0
 16 18  2  0  0  0  0
 19 20  2  0  0  0  0
 19 18  1  0  0  0  0
 21  3  1  0  0  0  0
 22 21  1  0  0  0  0
 22 23  1  0  0  0  0
 22 25  1  0  0  0  0
 24 22  1  0  0  0  0
M  END
>  <minimizedAffinity>
-5.67137527

$$$$

 OpenBabel03242520523D

 25 27  0  0  0  0  0  0  0  0999 V2000
   39.8640   27.2070   43.4890 C   0  0  0  0  0  0  0  0  0  0  0  0
   38.9710   26.1500   43.3570 C   0  0  0  0  0  0  0  0  0  0  0  0
   37.8010   26.3300   42.6290 C   0  0  0  0  0  0  0  0  0  0  0  0
   37.6010   27.5550   42.0800 N   0  0  0  0  0  0  0  0  0  0  0  0
   38.4720   28.5630   42.2170 C   0  0  0  0  0  0  0  0  0  0  0  0
   39.6080   28.3860   42.9240 N   0  0  0  0  0  0  0  0  0  0  0  0
   40.7600   26.9910   44.0750 H   0  0  0  0  0  0  0  0  0  0  0  0
   39.1000   25.1830   43.7740 H   0  0  0  0  0  0  0  0  0  0  0  0
   37.0060   30.0580   40.9240 C   0  0  0  0  0  3  0  0  0  0  0  0
   38.1960   29.8580   41.5990 C   0  0  0  0  0  0  0  0  0  0  0  0
   39.1330   30.8670   41.7030 C   0  0  0  0  0  0  0  0  0  0  0  0
   40.0780   30.7650   42.2190 H   0  0  0  0  0  0  0  0  0  0  0  0
   38.8800   32.1040   41.1190 C   0  0  0  0  0  0  0  0  0  0  0  0
   39.5670   33.2750   41.0360 N   0  0  0  0  0  0  0  0  0  0  0  0
   40.5050   33.3710   41.4750 H   0  0  0  0  0  0  0  0  0  0  0  0
   38.8150   34.1610   40.3280 C   0  0  0  0  0  0  0  0  0  0  0  0
   39.2360   35.1440   40.1790 H   0  0  0  0  0  0  0  0  0  0  0  0
   37.6300   33.5510   39.9530 C   0  0  0  0  0  3  0  0  0  0  0  0
   37.6780   32.2470   40.4570 C   0  0  0  0  0  0  0  0  0  0  0  0
   36.7040   31.2790   40.3210 C   0  0  0  0  0  3  0  0  0  0  0  0
   36.8180   25.3910   42.4040 O   0  0  0  0  0  0  0  0  0  0  0  0
   37.0700   24.4450   41.3570 C   0  0  0  0  0  0  0  0  0  0  0  0
   37.9320   23.4550   41.8170 F   0  0  0  0  0  0  0  0  0  0  0  0
   35.8530   23.8390   41.0220 F   0  0  0  0  0  0  0  0  0  0  0  0
   37.5610   25.0810   40.2160 F   0  0  0  0  0  0  0  0  0  0  0  0
  1  7  1  0  0  0  0
  2  1  1  0  0  0  0
  2  8  1  0  0  0  0
  3  2  2  0  0  0  0
  4  5  2  0  0  0  0
  4  3  1  0  0  0  0
  5  6  1  0  0  0  0
  6  1  2  0  0  0  0
  9 10  1  0  0  0  0
 10 11  2  0  0  0  0
 10  5  1  0  0  0  0
 11 12  1  0  0  0  0
 13 11  1  0  0  0  0
 14 13  1  0  0  0  0
 14 15  1  0  0  0  0
 16 14  1  0  0  0  0
 17 16  1  0  0  0  0
 18 16  2  0  0  0  0
 18 19  1  0  0  0  0
 19 13  2  0  0  0  0
 20 19  1  0  0  0  0
 20  9  2  0  0  0  0
 21  3  1  0  0  0  0
 22 23  1  0  0  0  0
 22 21  1  0  0  0  0
 24 22  1  0  0  0  0
 25 22  1  0  0  0  0
M  END
>  <minimizedAffinity>
-5.54740286

$$$$

 OpenBabel03242520523D

 25 27  0  0  0  0  0  0  0  0999 V2000
   39.7750   26.7730   43.6030 C   0  0  0  0  0  0  0  0  0  0  0  0
   39.1290   25.8000   42.8510 C   0  0  0  0  0  0  0  0  0  0  0  0
   38.4720   26.1620   41.6820 C   0  0  0  0  0  0  0  0  0  0  0  0
   38.5030   27.4760   41.3410 N   0  0  0  0  0  0  0  0  0  0  0  0
   39.1310   28.4020   42.0770 C   0  0  0  0  0  0  0  0  0  0  0  0
   39.7690   28.0470   43.2120 N   0  0  0  0  0  0  0  0  0  0  0  0
   40.2690   26.4140   44.5080 H   0  0  0  0  0  0  0  0  0  0  0  0
   39.0860   24.7670   43.0920 H   0  0  0  0  0  0  0  0  0  0  0  0
   40.2860   30.5500   41.7440 C   0  0  0  0  0  3  0  0  0  0  0  0
   39.1270   29.8000   41.6530 C   0  0  0  0  0  0  0  0  0  0  0  0
   37.9590   30.3530   41.1650 C   0  0  0  0  0  0  0  0  0  0  0  0
   37.0270   29.8120   41.0720 H   0  0  0  0  0  0  0  0  0  0  0  0
   37.9450   31.6820   40.7590 C   0  0  0  0  0  0  0  0  0  0  0  0
   36.9940   32.5100   40.2470 N   0  0  0  0  0  0  0  0  0  0  0  0
   36.0250   32.1670   40.0850 H   0  0  0  0  0  0  0  0  0  0  0  0
   37.5600   33.7290   40.0340 C   0  0  0  0  0  0  0  0  0  0  0  0
   36.9200   34.4970   39.6250 H   0  0  0  0  0  0  0  0  0  0  0  0
   38.8900   33.6820   40.4130 C   0  0  0  0  0  3  0  0  0  0  0  0
   39.1280   32.3820   40.8720 C   0  0  0  0  0  0  0  0  0  0  0  0
   40.3240   31.8870   41.3500 C   0  0  0  0  0  3  0  0  0  0  0  0
   37.7870   25.3250   40.8270 O   0  0  0  0  0  0  0  0  0  0  0  0
   36.9430   24.3420   41.4410 C   0  0  0  0  0  0  0  0  0  0  0  0
   36.3720   24.8690   42.5950 F   0  0  0  0  0  0  0  0  0  0  0  0
   35.9120   24.0400   40.5450 F   0  0  0  0  0  0  0  0  0  0  0  0
   37.6500   23.1660   41.6950 F   0  0  0  0  0  0  0  0  0  0  0  0
  1  7  1  0  0  0  0
  2  8  1  0  0  0  0
  2  1  2  0  0  0  0
  3  2  1  0  0  0  0
  4  3  2  0  0  0  0
  4  5  1  0  0  0  0
  5  6  2  0  0  0  0
  6  1  1  0  0  0  0
 10  9  1  0  0  0  0
 10  5  1  0  0  0  0
 11 10  2  0  0  0  0
 12 11  1  0  0  0  0
 13 19  2  0  0  0  0
 13 11  1  0  0  0  0
 14 13  1  0  0  0  0
 15 14  1  0  0  0  0
 16 14  1  0  0  0  0
 16 18  2  0  0  0  0
 17 16  1  0  0  0  0
 18 19  1  0  0  0  0
 19 20  1  0  0  0  0
 20  9  2  0  0  0  0
 21 22  1  0  0  0  0
 21  3  1  0  0  0  0
 22 25  1  0  0  0  0
 22 23  1  0  0  0  0
 24 22  1  0  0  0  0
M  END
>  <minimizedAffinity>
-5.35684776

$$$$

 OpenBabel03242520523D

 25 27  0  0  0  0  0  0  0  0999 V2000
   36.6310   27.1580   43.4460 C   0  0  0  0  0  0  0  0  0  0  0  0
   36.8930   26.0910   42.5950 C   0  0  0  0  0  0  0  0  0  0  0  0
   37.5500   26.3190   41.3930 C   0  0  0  0  0  0  0  0  0  0  0  0
   37.9040   27.6010   41.1200 N   0  0  0  0  0  0  0  0  0  0  0  0
   37.6450   28.6190   41.9510 C   0  0  0  0  0  0  0  0  0  0  0  0
   37.0060   28.3940   43.1190 N   0  0  0  0  0  0  0  0  0  0  0  0
   36.1120   26.9020   44.3720 H   0  0  0  0  0  0  0  0  0  0  0  0
   36.6280   25.0790   42.7810 H   0  0  0  0  0  0  0  0  0  0  0  0
   39.3130   30.4280   41.9440 C   0  0  0  0  0  3  0  0  0  0  0  0
   38.0530   29.9760   41.5960 C   0  0  0  0  0  0  0  0  0  0  0  0
   37.1690   30.7890   40.9160 C   0  0  0  0  0  0  0  0  0  0  0  0
   36.1730   30.4860   40.6190 H   0  0  0  0  0  0  0  0  0  0  0  0
   37.5470   32.0820   40.5730 C   0  0  0  0  0  0  0  0  0  0  0  0
   36.9380   33.1110   39.9230 N   0  0  0  0  0  0  0  0  0  0  0  0
   35.9690   33.0080   39.5610 H   0  0  0  0  0  0  0  0  0  0  0  0
   37.8050   34.1590   39.8780 C   0  0  0  0  0  0  0  0  0  0  0  0
   37.4570   35.0560   39.3870 H   0  0  0  0  0  0  0  0  0  0  0  0
   38.9850   33.7980   40.5060 C   0  0  0  0  0  3  0  0  0  0  0  0
   38.8150   32.4810   40.9450 C   0  0  0  0  0  0  0  0  0  0  0  0
   39.7410   31.7160   41.6240 C   0  0  0  0  0  3  0  0  0  0  0  0
   37.8830   25.3780   40.4430 O   0  0  0  0  0  0  0  0  0  0  0  0
   38.8520   24.3960   40.8340 C   0  0  0  0  0  0  0  0  0  0  0  0
   38.2080   23.3010   41.4000 F   0  0  0  0  0  0  0  0  0  0  0  0
   39.5130   23.9620   39.6790 F   0  0  0  0  0  0  0  0  0  0  0  0
   39.8040   24.9480   41.6920 F   0  0  0  0  0  0  0  0  0  0  0  0
  1  7  1  0  0  0  0
  2  8  1  0  0  0  0
  2  1  2  0  0  0  0
  3  2  1  0  0  0  0
  4  3  2  0  0  0  0
  4  5  1  0  0  0  0
  5  6  2  0  0  0  0
  6  1  1  0  0  0  0
 10  9  2  0  0  0  0
 10  5  1  0  0  0  0
 11 10  1  0  0  0  0
 12 11  1  0  0  0  0
 13 11  2  0  0  0  0
 13 19  1  0  0  0  0
 14 13  1  0  0  0  0
 15 14  1  0  0  0  0
 16 14  1  0  0  0  0
 16 18  2  0  0  0  0
 17 16  1  0  0  0  0
 18 19  1  0  0  0  0
 19 20  2  0  0  0  0
 20  9  1  0  0  0  0
 21 22  1  0  0  0  0
 21  3  1  0  0  0  0
 22 23  1  0  0  0  0
 22 25  1  0  0  0  0
 24 22  1  0  0  0  0
M  END
>  <minimizedAffinity>
-5.33246803

$$$$

 OpenBabel03242520523D

 25 27  0  0  0  0  0  0  0  0999 V2000
   33.6180   28.8770   36.2730 C   0  0  0  0  0  0  0  0  0  0  0  0
   34.2690   29.1720   35.0810 C   0  0  0  0  0  0  0  0  0  0  0  0
   35.5990   29.5720   35.1080 C   0  0  0  0  0  0  0  0  0  0  0  0
   36.1910   29.6530   36.3260 N   0  0  0  0  0  0  0  0  0  0  0  0
   35.5500   29.3650   37.4660 C   0  0  0  0  0  0  0  0  0  0  0  0
   34.2580   28.9760   37.4370 N   0  0  0  0  0  0  0  0  0  0  0  0
   32.5750   28.5690   36.1730 H   0  0  0  0  0  0  0  0  0  0  0  0
   33.8320   29.1180   34.1150 H   0  0  0  0  0  0  0  0  0  0  0  0
   37.3370   30.3150   38.8660 C   0  0  0  0  0  3  0  0  0  0  0  0
   36.2480   29.4720   38.7460 C   0  0  0  0  0  0  0  0  0  0  0  0
   35.8050   28.7240   39.8190 C   0  0  0  0  0  0  0  0  0  0  0  0
   34.9600   28.0500   39.7790 H   0  0  0  0  0  0  0  0  0  0  0  0
   36.4620   28.8180   41.0410 C   0  0  0  0  0  0  0  0  0  0  0  0
   36.2900   28.2390   42.2600 N   0  0  0  0  0  0  0  0  0  0  0  0
   35.5220   27.5560   42.4180 H   0  0  0  0  0  0  0  0  0  0  0  0
   37.2500   28.7180   43.0980 C   0  0  0  0  0  0  0  0  0  0  0  0
   37.2390   28.3450   44.1110 H   0  0  0  0  0  0  0  0  0  0  0  0
   38.0460   29.6160   42.4080 C   0  0  0  0  0  3  0  0  0  0  0  0
   37.5420   29.6740   41.1040 C   0  0  0  0  0  0  0  0  0  0  0  0
   38.0300   30.4460   40.0700 C   0  0  0  0  0  3  0  0  0  0  0  0
   36.3830   29.8990   34.0230 O   0  0  0  0  0  0  0  0  0  0  0  0
   36.3690   31.2750   33.6190 C   0  0  0  0  0  0  0  0  0  0  0  0
   36.9860   32.0550   34.5910 F   0  0  0  0  0  0  0  0  0  0  0  0
   37.1110   31.3850   32.4380 F   0  0  0  0  0  0  0  0  0  0  0  0
   35.0680   31.7020   33.3500 F   0  0  0  0  0  0  0  0  0  0  0  0
  1  6  1  0  0  0  0
  2  3  1  0  0  0  0
  2  1  2  0  0  0  0
  3  4  2  0  0  0  0
  4  5  1  0  0  0  0
  5 10  1  0  0  0  0
  6  5  2  0  0  0  0
  7  1  1  0  0  0  0
  8  2  1  0  0  0  0
  9 20  1  0  0  0  0
 10  9  2  0  0  0  0
 10 11  1  0  0  0  0
 11 13  2  0  0  0  0
 12 11  1  0  0  0  0
 13 19  1  0  0  0  0
 13 14  1  0  0  0  0
 14 15  1  0  0  0  0
 14 16  1  0  0  0  0
 16 17  1  0  0  0  0
 18 16  2  0  0  0  0
 19 18  1  0  0  0  0
 20 19  2  0  0  0  0
 21  3  1  0  0  0  0
 22 21  1  0  0  0  0
 22 23  1  0  0  0  0
 24 22  1  0  0  0  0
 25 22  1  0  0  0  0
M  END
>  <minimizedAffinity>
-5.28315449

$$$$

 OpenBabel03242520523D

 25 27  0  0  0  0  0  0  0  0999 V2000
   36.6580   27.3950   43.2390 C   0  0  0  0  0  0  0  0  0  0  0  0
   37.1520   26.3110   42.5240 C   0  0  0  0  0  0  0  0  0  0  0  0
   37.8790   26.5320   41.3610 C   0  0  0  0  0  0  0  0  0  0  0  0
   38.0650   27.8240   40.9890 N   0  0  0  0  0  0  0  0  0  0  0  0
   37.5830   28.8590   41.6900 C   0  0  0  0  0  0  0  0  0  0  0  0
   36.8760   28.6410   42.8190 N   0  0  0  0  0  0  0  0  0  0  0  0
   36.0970   27.1440   44.1410 H   0  0  0  0  0  0  0  0  0  0  0  0
   37.0220   25.2910   42.7890 H   0  0  0  0  0  0  0  0  0  0  0  0
   36.8380   30.8940   40.5240 C   0  0  0  0  0  3  0  0  0  0  0  0
   37.8190   30.2270   41.2330 C   0  0  0  0  0  0  0  0  0  0  0  0
   39.0270   30.8330   41.5200 C   0  0  0  0  0  0  0  0  0  0  0  0
   39.8270   30.3570   42.0710 H   0  0  0  0  0  0  0  0  0  0  0  0
   39.2620   32.1340   41.0910 C   0  0  0  0  0  0  0  0  0  0  0  0
   40.3080   32.9970   41.2010 N   0  0  0  0  0  0  0  0  0  0  0  0
   41.1760   32.7160   41.7010 H   0  0  0  0  0  0  0  0  0  0  0  0
   39.9710   34.1570   40.5740 C   0  0  0  0  0  0  0  0  0  0  0  0
   40.7100   34.9440   40.5800 H   0  0  0  0  0  0  0  0  0  0  0  0
   38.6920   34.0370   40.0570 C   0  0  0  0  0  3  0  0  0  0  0  0
   38.2490   32.7520   40.3870 C   0  0  0  0  0  0  0  0  0  0  0  0
   37.0250   32.2000   40.0710 C   0  0  0  0  0  3  0  0  0  0  0  0
   38.4340   25.5740   40.5410 O   0  0  0  0  0  0  0  0  0  0  0  0
   39.5540   24.8530   41.0730 C   0  0  0  0  0  0  0  0  0  0  0  0
   39.1030   23.7400   41.7750 F   0  0  0  0  0  0  0  0  0  0  0  0
   40.3280   24.4050   39.9970 F   0  0  0  0  0  0  0  0  0  0  0  0
   40.3530   25.6820   41.8610 F   0  0  0  0  0  0  0  0  0  0  0  0
  1  7  1  0  0  0  0
  2  8  1  0  0  0  0
  2  1  2  0  0  0  0
  3  2  1  0  0  0  0
  4  3  2  0  0  0  0
  4  5  1  0  0  0  0
  5  6  2  0  0  0  0
  6  1  1  0  0  0  0
  9 10  1  0  0  0  0
 10 11  2  0  0  0  0
 10  5  1  0  0  0  0
 11 12  1  0  0  0  0
 13 14  1  0  0  0  0
 13 11  1  0  0  0  0
 14 15  1  0  0  0  0
 16 17  1  0  0  0  0
 16 14  1  0  0  0  0
 18 19  1  0  0  0  0
 18 16  2  0  0  0  0
 19 13  2  0  0  0  0
 20 19  1  0  0  0  0
 20  9  2  0  0  0  0
 21 22  1  0  0  0  0
 21  3  1  0  0  0  0
 22 23  1  0  0  0  0
 22 25  1  0  0  0  0
 24 22  1  0  0  0  0
M  END
>  <minimizedAffinity>
-5.18656969

$$$$

 OpenBabel03242520523D

 25 27  0  0  0  0  0  0  0  0999 V2000
   37.1070   30.0730   36.7780 C   0  0  0  0  0  0  0  0  0  0  0  0
   37.6390   31.2750   37.2310 C   0  0  0  0  0  0  0  0  0  0  0  0
   38.0770   31.3780   38.5450 C   0  0  0  0  0  0  0  0  0  0  0  0
   37.9560   30.2720   39.3210 N   0  0  0  0  0  0  0  0  0  0  0  0
   37.4420   29.1200   38.8710 C   0  0  0  0  0  0  0  0  0  0  0  0
   37.0170   29.0230   37.5930 N   0  0  0  0  0  0  0  0  0  0  0  0
   36.7840   30.0670   35.7360 H   0  0  0  0  0  0  0  0  0  0  0  0
   37.7460   32.1560   36.6470 H   0  0  0  0  0  0  0  0  0  0  0  0
   37.0590   28.1540   41.1010 C   0  0  0  0  0  3  0  0  0  0  0  0
   37.3400   27.9660   39.7600 C   0  0  0  0  0  0  0  0  0  0  0  0
   37.5270   26.6990   39.2440 C   0  0  0  0  0  0  0  0  0  0  0  0
   37.7480   26.4950   38.2040 H   0  0  0  0  0  0  0  0  0  0  0  0
   37.4320   25.5930   40.0820 C   0  0  0  0  0  0  0  0  0  0  0  0
   37.5560   24.2500   39.9020 N   0  0  0  0  0  0  0  0  0  0  0  0
   37.7700   23.8590   38.9620 H   0  0  0  0  0  0  0  0  0  0  0  0
   37.3560   23.6400   41.1020 C   0  0  0  0  0  0  0  0  0  0  0  0
   37.4240   22.5620   41.1150 H   0  0  0  0  0  0  0  0  0  0  0  0
   37.1000   24.6030   42.0630 C   0  0  0  0  0  3  0  0  0  0  0  0
   37.1500   25.8390   41.4090 C   0  0  0  0  0  0  0  0  0  0  0  0
   36.9530   27.0780   41.9830 C   0  0  0  0  0  3  0  0  0  0  0  0
   38.6250   32.4900   39.1460 O   0  0  0  0  0  0  0  0  0  0  0  0
   37.7660   33.2220   40.0310 C   0  0  0  0  0  0  0  0  0  0  0  0
   38.5350   33.9810   40.9070 F   0  0  0  0  0  0  0  0  0  0  0  0
   36.9970   34.0980   39.2570 F   0  0  0  0  0  0  0  0  0  0  0  0
   36.8950   32.3650   40.7030 F   0  0  0  0  0  0  0  0  0  0  0  0
  1  2  2  0  0  0  0
  1  6  1  0  0  0  0
  2  3  1  0  0  0  0
  3 21  1  0  0  0  0
  3  4  2  0  0  0  0
  5  4  1  0  0  0  0
  5 10  1  0  0  0  0
  6  5  2  0  0  0  0
  7  1  1  0  0  0  0
  8  2  1  0  0  0  0
  9 20  1  0  0  0  0
 10  9  2  0  0  0  0
 11 10  1  0  0  0  0
 11 13  2  0  0  0  0
 12 11  1  0  0  0  0
 13 19  1  0  0  0  0
 14 13  1  0  0  0  0
 14 16  1  0  0  0  0
 15 14  1  0  0  0  0
 16 17  1  0  0  0  0
 16 18  2  0  0  0  0
 19 20  2  0  0  0  0
 19 18  1  0  0  0  0
 21 22  1  0  0  0  0
 22 25  1  0  0  0  0
 22 23  1  0  0  0  0
 24 22  1  0  0  0  0
M  END
>  <minimizedAffinity>
-5.17030001

$$$$

 OpenBabel03242520523D

 25 27  0  0  0  0  0  0  0  0999 V2000
   38.5690   28.6860   43.3050 C   0  0  0  0  0  0  0  0  0  0  0  0
   38.6330   29.8680   42.5770 C   0  0  0  0  0  0  0  0  0  0  0  0
   38.1820   29.8890   41.2630 C   0  0  0  0  0  0  0  0  0  0  0  0
   37.6960   28.7260   40.7620 N   0  0  0  0  0  0  0  0  0  0  0  0
   37.6400   27.5940   41.4760 C   0  0  0  0  0  0  0  0  0  0  0  0
   38.0790   27.5760   42.7530 N   0  0  0  0  0  0  0  0  0  0  0  0
   38.9410   28.7450   44.3290 H   0  0  0  0  0  0  0  0  0  0  0  0
   39.0090   30.7920   42.9420 H   0  0  0  0  0  0  0  0  0  0  0  0
   37.0820   25.2010   41.6050 C   0  0  0  0  0  3  0  0  0  0  0  0
   37.1030   26.3750   40.8760 C   0  0  0  0  0  0  0  0  0  0  0  0
   36.6230   26.4170   39.5810 C   0  0  0  0  0  0  0  0  0  0  0  0
   36.6160   27.3070   38.9670 H   0  0  0  0  0  0  0  0  0  0  0  0
   36.1110   25.2620   39.0000 C   0  0  0  0  0  0  0  0  0  0  0  0
   35.5750   24.9670   37.7850 N   0  0  0  0  0  0  0  0  0  0  0  0
   35.4840   25.7000   37.0540 H   0  0  0  0  0  0  0  0  0  0  0  0
   35.2390   23.6480   37.7770 C   0  0  0  0  0  0  0  0  0  0  0  0
   34.7970   23.2650   36.8690 H   0  0  0  0  0  0  0  0  0  0  0  0
   35.5620   23.0910   39.0030 C   0  0  0  0  0  3  0  0  0  0  0  0
   36.1150   24.1200   39.7730 C   0  0  0  0  0  0  0  0  0  0  0  0
   36.5790   24.0160   41.0690 C   0  0  0  0  0  3  0  0  0  0  0  0
   38.1770   30.9720   40.4110 O   0  0  0  0  0  0  0  0  0  0  0  0
   36.8970   31.5550   40.1320 C   0  0  0  0  0  0  0  0  0  0  0  0
   36.0390   31.3370   41.2040 F   0  0  0  0  0  0  0  0  0  0  0  0
   37.0750   32.9360   39.9910 F   0  0  0  0  0  0  0  0  0  0  0  0
   36.3760   31.0650   38.9340 F   0  0  0  0  0  0  0  0  0  0  0  0
  1  7  1  0  0  0  0
  2  8  1  0  0  0  0
  2  1  2  0  0  0  0
  3  2  1  0  0  0  0
  4  3  2  0  0  0  0
  4  5  1  0  0  0  0
  5  6  2  0  0  0  0
  6  1  1  0  0  0  0
 10  5  1  0  0  0  0
 10  9  2  0  0  0  0
 11 10  1  0  0  0  0
 12 11  1  0  0  0  0
 13 11  2  0  0  0  0
 13 19  1  0  0  0  0
 14 13  1  0  0  0  0
 15 14  1  0  0  0  0
 16 14  1  0  0  0  0
 16 18  2  0  0  0  0
 17 16  1  0  0  0  0
 18 19  1  0  0  0  0
 19 20  2  0  0  0  0
 20  9  1  0  0  0  0
 21  3  1  0  0  0  0
 22 21  1  0  0  0  0
 22 23  1  0  0  0  0
 24 22  1  0  0  0  0
 25 22  1  0  0  0  0
M  END
>  <minimizedAffinity>
-5.1619935

$$$$

 OpenBabel03242520523D

 25 27  0  0  0  0  0  0  0  0999 V2000
   35.6080   29.5360   38.6640 C   0  0  0  0  0  0  0  0  0  0  0  0
   35.4220   28.7710   39.8100 C   0  0  0  0  0  0  0  0  0  0  0  0
   36.3080   28.9020   40.8720 C   0  0  0  0  0  0  0  0  0  0  0  0
   37.3230   29.7910   40.7190 N   0  0  0  0  0  0  0  0  0  0  0  0
   37.4880   30.5210   39.6090 C   0  0  0  0  0  0  0  0  0  0  0  0
   36.6260   30.3920   38.5790 N   0  0  0  0  0  0  0  0  0  0  0  0
   34.8730   29.3790   37.8730 H   0  0  0  0  0  0  0  0  0  0  0  0
   34.6400   28.0690   39.9570 H   0  0  0  0  0  0  0  0  0  0  0  0
   39.0260   32.1460   40.6330 C   0  0  0  0  0  3  0  0  0  0  0  0
   38.6030   31.4610   39.5100 C   0  0  0  0  0  0  0  0  0  0  0  0
   39.2180   31.6490   38.2880 C   0  0  0  0  0  0  0  0  0  0  0  0
   38.9280   31.1380   37.3790 H   0  0  0  0  0  0  0  0  0  0  0  0
   40.2800   32.5400   38.1830 C   0  0  0  0  0  0  0  0  0  0  0  0
   41.0820   32.9470   37.1620 N   0  0  0  0  0  0  0  0  0  0  0  0
   40.9540   32.5650   36.2030 H   0  0  0  0  0  0  0  0  0  0  0  0
   41.9680   33.8560   37.6530 C   0  0  0  0  0  0  0  0  0  0  0  0
   42.6770   34.2710   36.9510 H   0  0  0  0  0  0  0  0  0  0  0  0
   41.7320   34.0330   39.0050 C   0  0  0  0  0  3  0  0  0  0  0  0
   40.6600   33.1970   39.3350 C   0  0  0  0  0  0  0  0  0  0  0  0
   40.0860   33.0520   40.5810 C   0  0  0  0  0  3  0  0  0  0  0  0
   36.2650   28.2220   42.0690 O   0  0  0  0  0  0  0  0  0  0  0  0
   37.2120   27.1570   42.2300 C   0  0  0  0  0  0  0  0  0  0  0  0
   38.2740   27.5890   43.0180 F   0  0  0  0  0  0  0  0  0  0  0  0
   36.5710   26.1090   42.9000 F   0  0  0  0  0  0  0  0  0  0  0  0
   37.6380   26.6780   40.9910 F   0  0  0  0  0  0  0  0  0  0  0  0
  1  2  1  0  0  0  0
  2  8  1  0  0  0  0
  2  3  2  0  0  0  0
  3 21  1  0  0  0  0
  4  3  1  0  0  0  0
  5  4  2  0  0  0  0
  6  1  2  0  0  0  0
  6  5  1  0  0  0  0
  7  1  1  0  0  0  0
 10  5  1  0  0  0  0
 10  9  2  0  0  0  0
 11 10  1  0  0  0  0
 12 11  1  0  0  0  0
 13 11  2  0  0  0  0
 13 19  1  0  0  0  0
 14 16  1  0  0  0  0
 14 13  1  0  0  0  0
 15 14  1  0  0  0  0
 16 18  2  0  0  0  0
 17 16  1  0  0  0  0
 18 19  1  0  0  0  0
 19 20  2  0  0  0  0
 20  9  1  0  0  0  0
 21 22  1  0  0  0  0
 22 24  1  0  0  0  0
 22 23  1  0  0  0  0
 25 22  1  0  0  0  0
M  END
>  <minimizedAffinity>
-5.14053631

$$$$
