
 OpenBabel03252509263D

 33 36  0  0  1  0  0  0  0  0999 V2000
   46.5240   35.0080   41.9020 C   0  0  1  0  0  0  0  0  0  0  0  0
   48.0360   35.3630   41.8930 C   0  0  0  0  0  0  0  0  0  0  0  0
   47.3900   34.0570   41.3390 C   0  0  2  0  0  0  0  0  0  0  0  0
   45.9310   35.7220   41.3050 H   0  0  0  0  0  0  0  0  0  0  0  0
   48.6090   35.2580   42.8190 H   0  0  0  0  0  0  0  0  0  0  0  0
   48.3490   36.0990   41.1360 H   0  0  0  0  0  0  0  0  0  0  0  0
   47.6610   33.1400   41.9430 H   0  0  0  0  0  0  0  0  0  0  0  0
   44.6580   35.4230   45.1310 C   0  0  0  0  0  0  0  0  0  0  0  0
   45.1060   35.6990   43.8110 C   0  0  0  0  0  0  0  0  0  0  0  0
   46.0290   34.8360   43.3200 C   0  0  0  0  0  0  0  0  0  0  0  0
   46.5060   33.7640   44.0500 N   0  0  0  0  0  0  0  0  0  0  0  0
   46.0530   33.5370   45.3080 C   0  0  0  0  0  0  0  0  0  0  0  0
   45.1230   34.3750   45.8470 N   0  0  0  0  0  0  0  0  0  0  0  0
   43.9200   36.1100   45.5280 H   0  0  0  0  0  0  0  0  0  0  0  0
   46.3770   32.7320   45.9250 H   0  0  0  0  0  0  0  0  0  0  0  0
   44.6430   36.8040   43.0790 N   0  0  0  0  0  0  0  0  0  0  0  0
   43.7260   36.9400   42.5980 H   0  0  0  0  0  0  0  0  0  0  0  0
   45.3640   37.5860   43.0400 H   0  0  0  0  0  0  0  0  0  0  0  0
   47.4320   33.8100   39.8490 C   0  0  0  0  0  0  0  0  0  0  0  0
   46.5030   33.2560   39.6090 H   0  0  0  0  0  0  0  0  0  0  0  0
   47.4180   34.7590   39.2760 H   0  0  0  0  0  0  0  0  0  0  0  0
   49.3450   32.2560   40.4300 C   0  0  0  0  0  3  0  0  0  0  0  0
   48.5770   32.9440   39.5240 C   0  0  0  0  0  0  0  0  0  0  0  0
   48.8950   32.8220   38.1750 C   0  0  0  0  0  0  0  0  0  0  0  0
   48.3460   33.3270   37.3930 H   0  0  0  0  0  0  0  0  0  0  0  0
   49.9440   32.0420   37.7320 C   0  0  0  0  0  0  0  0  0  0  0  0
   50.4530   31.7580   36.5210 N   0  0  0  0  0  0  0  0  0  0  0  0
   50.0670   32.1470   35.6160 H   0  0  0  0  0  0  0  0  0  0  0  0
   51.5030   30.9250   36.6280 C   0  0  0  0  0  0  0  0  0  0  0  0
   52.0610   30.5690   35.7680 H   0  0  0  0  0  0  0  0  0  0  0  0
   51.7030   30.6410   37.9620 C   0  0  0  0  0  3  0  0  0  0  0  0
   50.7160   31.3510   38.6370 C   0  0  0  0  0  0  0  0  0  0  0  0
   50.3960   31.4750   39.9770 C   0  0  0  0  0  3  0  0  0  0  0  0
  1  4  1  6  0  0  0
  1 10  1  0  0  0  0
  2  1  1  0  0  0  0
  2  5  1  0  0  0  0
  3  2  1  0  0  0  0
  3  1  1  0  0  0  0
  3  7  1  1  0  0  0
  6  2  1  0  0  0  0
  8 14  1  0  0  0  0
  8 13  1  0  0  0  0
  9  8  2  0  0  0  0
 10  9  1  0  0  0  0
 10 11  2  0  0  0  0
 11 12  1  0  0  0  0
 12 13  2  0  0  0  0
 12 15  1  0  0  0  0
 16  9  1  0  0  0  0
 17 16  1  0  0  0  0
 18 16  1  0  0  0  0
 19  3  1  0  0  0  0
 20 19  1  0  0  0  0
 21 19  1  0  0  0  0
 23 19  1  0  0  0  0
 23 22  2  0  0  0  0
 24 23  1  0  0  0  0
 25 24  1  0  0  0  0
 26 24  2  0  0  0  0
 26 32  1  0  0  0  0
 27 29  1  0  0  0  0
 27 26  1  0  0  0  0
 28 27  1  0  0  0  0
 29 31  2  0  0  0  0
 30 29  1  0  0  0  0
 31 32  1  0  0  0  0
 32 33  2  0  0  0  0
 33 22  1  0  0  0  0
M  END
>  <minimizedAffinity>
-5.48444748

>  <minimizedRMSD>
0.476834118

$$$$
