
 OpenBabel03242513323D

 40 44  0  0  0  0  0  0  0  0999 V2000
   41.5040   34.6700   40.7540 C   0  0  0  0  0  0  0  0  0  0  0  0
   41.9320   35.8170   41.3860 C   0  0  0  0  0  0  0  0  0  0  0  0
   41.1470   36.9260   41.2550 C   0  0  0  0  0  0  0  0  0  0  0  0
   39.9680   36.9100   40.5220 C   0  0  0  0  0  0  0  0  0  0  0  0
   39.5550   35.7630   39.8990 C   0  0  0  0  0  0  0  0  0  0  0  0
   40.3360   34.6020   40.0110 C   0  0  0  0  0  0  0  0  0  0  0  0
   41.4480   37.8550   41.7390 H   0  0  0  0  0  0  0  0  0  0  0  0
   39.3620   37.8010   40.4320 H   0  0  0  0  0  0  0  0  0  0  0  0
   38.6470   35.6980   39.3160 H   0  0  0  0  0  0  0  0  0  0  0  0
   44.5490   36.3180   44.0400 C   0  0  0  0  0  0  0  0  0  0  0  0
   43.3270   36.3940   43.3540 C   0  0  0  0  0  0  0  0  0  0  0  0
   43.1630   35.7730   42.1330 C   0  0  0  0  0  0  0  0  0  0  0  0
   44.2600   35.1090   41.6840 N   0  0  0  0  0  0  0  0  0  0  0  0
   45.4260   35.0320   42.3290 C   0  0  0  0  0  0  0  0  0  0  0  0
   45.5720   35.6400   43.5120 N   0  0  0  0  0  0  0  0  0  0  0  0
   44.6110   36.8320   44.9980 H   0  0  0  0  0  0  0  0  0  0  0  0
   42.4760   36.9360   43.7510 H   0  0  0  0  0  0  0  0  0  0  0  0
   46.2180   34.4680   41.8520 H   0  0  0  0  0  0  0  0  0  0  0  0
   42.2690   33.5080   40.8550 O   0  0  0  0  0  0  0  0  0  0  0  0
   41.8830   32.5840   40.9760 H   0  0  0  0  0  0  0  0  0  0  0  0
   39.9690   33.4240   39.4050 O   0  0  0  0  0  0  0  0  0  0  0  0
   39.1890   32.4730   39.9320 C   0  0  0  0  0  0  0  0  0  0  0  0
   37.8500   32.5100   40.2590 C   0  0  0  0  0  0  0  0  0  0  0  0
   37.2600   31.3880   40.7970 C   0  0  0  0  0  0  0  0  0  0  0  0
   38.1100   30.2550   40.9750 C   0  0  0  0  0  0  0  0  0  0  0  0
   39.7320   30.8190   40.3680 S   0  0  0  0  0  0  0  0  0  0  0  0
   37.2850   33.4150   40.0870 H   0  0  0  0  0  0  0  0  0  0  0  0
   36.2220   31.3140   41.0870 H   0  0  0  0  0  0  0  0  0  0  0  0
   37.4940   28.7820   42.8440 C   0  0  0  0  0  3  0  0  0  0  0  0
   37.7550   28.9890   41.5050 C   0  0  0  0  0  0  0  0  0  0  0  0
   37.6840   27.9540   40.5740 C   0  0  0  0  0  0  0  0  0  0  0  0
   37.8840   28.0930   39.5260 H   0  0  0  0  0  0  0  0  0  0  0  0
   37.3450   26.6610   40.9660 C   0  0  0  0  0  0  0  0  0  0  0  0
   37.2010   25.4920   40.3180 N   0  0  0  0  0  0  0  0  0  0  0  0
   37.3290   25.3220   39.2990 H   0  0  0  0  0  0  0  0  0  0  0  0
   36.8530   24.5170   41.1910 C   0  0  0  0  0  0  0  0  0  0  0  0
   36.6550   23.4620   41.0260 H   0  0  0  0  0  0  0  0  0  0  0  0
   36.7810   25.1200   42.4300 C   0  0  0  0  0  3  0  0  0  0  0  0
   37.0860   26.4620   42.3150 C   0  0  0  0  0  0  0  0  0  0  0  0
   37.1580   27.5030   43.2380 C   0  0  0  0  0  3  0  0  0  0  0  0
  1 19  1  0  0  0  0
  1  2  1  0  0  0  0
  2 12  1  0  0  0  0
  3  2  2  0  0  0  0
  3  7  1  0  0  0  0
  4  3  1  0  0  0  0
  5  6  1  0  0  0  0
  5  4  2  0  0  0  0
  6  1  2  0  0  0  0
  8  4  1  0  0  0  0
  9  5  1  0  0  0  0
 10 16  1  0  0  0  0
 11 17  1  0  0  0  0
 11 10  2  0  0  0  0
 12 11  1  0  0  0  0
 13 12  2  0  0  0  0
 13 14  1  0  0  0  0
 14 15  2  0  0  0  0
 15 10  1  0  0  0  0
 18 14  1  0  0  0  0
 19 20  1  0  0  0  0
 21 22  1  0  0  0  0
 21  6  1  0  0  0  0
 22 23  2  0  0  0  0
 22 26  1  0  0  0  0
 23 24  1  0  0  0  0
 24 25  2  0  0  0  0
 24 28  1  0  0  0  0
 25 30  1  0  0  0  0
 26 25  1  0  0  0  0
 27 23  1  0  0  0  0
 29 40  1  0  0  0  0
 30 29  2  0  0  0  0
 31 33  2  0  0  0  0
 31 30  1  0  0  0  0
 32 31  1  0  0  0  0
 33 39  1  0  0  0  0
 34 33  1  0  0  0  0
 34 36  1  0  0  0  0
 35 34  1  0  0  0  0
 36 38  2  0  0  0  0
 37 36  1  0  0  0  0
 39 38  1  0  0  0  0
 39 40  2  0  0  0  0
M  END
>  <minimizedAffinity>
-7.61368322

$$$$

 OpenBabel03242513323D

 40 44  0  0  0  0  0  0  0  0999 V2000
   42.2610   34.6320   40.6640 C   0  0  0  0  0  0  0  0  0  0  0  0
   42.7010   35.4870   41.6520 C   0  0  0  0  0  0  0  0  0  0  0  0
   41.9410   36.5930   41.8970 C   0  0  0  0  0  0  0  0  0  0  0  0
   40.7740   36.8560   41.1900 C   0  0  0  0  0  0  0  0  0  0  0  0
   40.3500   35.9980   40.2120 C   0  0  0  0  0  0  0  0  0  0  0  0
   41.1050   34.8480   39.9310 C   0  0  0  0  0  0  0  0  0  0  0  0
   42.2510   37.2960   42.6700 H   0  0  0  0  0  0  0  0  0  0  0  0
   40.1880   37.7390   41.4020 H   0  0  0  0  0  0  0  0  0  0  0  0
   39.4500   36.1570   39.6330 H   0  0  0  0  0  0  0  0  0  0  0  0
   46.1210   35.6840   43.2020 C   0  0  0  0  0  0  0  0  0  0  0  0
   44.9580   36.0540   42.5110 C   0  0  0  0  0  0  0  0  0  0  0  0
   43.9180   35.1620   42.3520 C   0  0  0  0  0  0  0  0  0  0  0  0
   44.1270   33.9410   42.9110 N   0  0  0  0  0  0  0  0  0  0  0  0
   45.2300   33.5810   43.5700 C   0  0  0  0  0  0  0  0  0  0  0  0
   46.2320   34.4560   43.7170 N   0  0  0  0  0  0  0  0  0  0  0  0
   46.9040   36.4360   43.2910 H   0  0  0  0  0  0  0  0  0  0  0  0
   44.8320   37.0410   42.0800 H   0  0  0  0  0  0  0  0  0  0  0  0
   45.2630   32.5730   43.9650 H   0  0  0  0  0  0  0  0  0  0  0  0
   43.0000   33.4860   40.3730 O   0  0  0  0  0  0  0  0  0  0  0  0
   42.5940   32.5860   40.1700 H   0  0  0  0  0  0  0  0  0  0  0  0
   40.7240   33.9540   38.9590 O   0  0  0  0  0  0  0  0  0  0  0  0
   40.0390   32.8210   39.1500 C   0  0  0  0  0  0  0  0  0  0  0  0
   39.5850   31.8990   38.2320 C   0  0  0  0  0  0  0  0  0  0  0  0
   38.8910   30.7960   38.6770 C   0  0  0  0  0  0  0  0  0  0  0  0
   38.6980   30.7020   40.0890 C   0  0  0  0  0  0  0  0  0  0  0  0
   39.5130   32.1920   40.7460 S   0  0  0  0  0  0  0  0  0  0  0  0
   39.7800   32.0540   37.1800 H   0  0  0  0  0  0  0  0  0  0  0  0
   38.4940   30.0170   38.0420 H   0  0  0  0  0  0  0  0  0  0  0  0
   37.4670   28.5770   40.1780 C   0  0  0  0  0  3  0  0  0  0  0  0
   38.0240   29.6760   40.7980 C   0  0  0  0  0  0  0  0  0  0  0  0
   37.9600   29.8520   42.1790 C   0  0  0  0  0  0  0  0  0  0  0  0
   38.3870   30.7020   42.6820 H   0  0  0  0  0  0  0  0  0  0  0  0
   37.3240   28.9150   42.9910 C   0  0  0  0  0  0  0  0  0  0  0  0
   37.1070   28.8140   44.3130 N   0  0  0  0  0  0  0  0  0  0  0  0
   37.4060   29.4880   45.0490 H   0  0  0  0  0  0  0  0  0  0  0  0
   36.4220   27.6790   44.5860 C   0  0  0  0  0  0  0  0  0  0  0  0
   36.0760   27.2750   45.5340 H   0  0  0  0  0  0  0  0  0  0  0  0
   36.2110   27.0580   43.3730 C   0  0  0  0  0  3  0  0  0  0  0  0
   36.7660   27.8130   42.3580 C   0  0  0  0  0  0  0  0  0  0  0  0
   36.8360   27.6450   40.9770 C   0  0  0  0  0  3  0  0  0  0  0  0
  1  2  1  0  0  0  0
  2  3  2  0  0  0  0
  2 12  1  0  0  0  0
  3  7  1  0  0  0  0
  4  8  1  0  0  0  0
  4  3  1  0  0  0  0
  5  4  2  0  0  0  0
  6  5  1  0  0  0  0
  6  1  2  0  0  0  0
  9  5  1  0  0  0  0
 10 16  1  0  0  0  0
 10 15  1  0  0  0  0
 11 10  2  0  0  0  0
 12 11  1  0  0  0  0
 12 13  2  0  0  0  0
 13 14  1  0  0  0  0
 14 15  2  0  0  0  0
 14 18  1  0  0  0  0
 17 11  1  0  0  0  0
 19  1  1  0  0  0  0
 20 19  1  0  0  0  0
 21 22  1  0  0  0  0
 21  6  1  0  0  0  0
 22 26  1  0  0  0  0
 23 24  1  0  0  0  0
 23 22  2  0  0  0  0
 24 25  2  0  0  0  0
 25 26  1  0  0  0  0
 25 30  1  0  0  0  0
 27 23  1  0  0  0  0
 28 24  1  0  0  0  0
 29 30  2  0  0  0  0
 29 40  1  0  0  0  0
 30 31  1  0  0  0  0
 31 32  1  0  0  0  0
 31 33  2  0  0  0  0
 33 34  1  0  0  0  0
 34 36  1  0  0  0  0
 34 35  1  0  0  0  0
 36 37  1  0  0  0  0
 38 36  2  0  0  0  0
 39 33  1  0  0  0  0
 39 38  1  0  0  0  0
 40 39  2  0  0  0  0
M  END
>  <minimizedAffinity>
-7.57419634

$$$$

 OpenBabel03242513323D

 40 44  0  0  0  0  0  0  0  0999 V2000
   43.0440   34.6830   41.0870 C   0  0  0  0  0  0  0  0  0  0  0  0
   44.2870   34.8250   41.6650 C   0  0  0  0  0  0  0  0  0  0  0  0
   45.3660   34.4760   40.9070 C   0  0  0  0  0  0  0  0  0  0  0  0
   45.2310   33.9970   39.6100 C   0  0  0  0  0  0  0  0  0  0  0  0
   43.9900   33.8610   39.0490 C   0  0  0  0  0  0  0  0  0  0  0  0
   42.8550   34.2110   39.7970 C   0  0  0  0  0  0  0  0  0  0  0  0
   46.3680   34.5730   41.3250 H   0  0  0  0  0  0  0  0  0  0  0  0
   46.1010   33.7270   39.0290 H   0  0  0  0  0  0  0  0  0  0  0  0
   43.8300   33.4940   38.0440 H   0  0  0  0  0  0  0  0  0  0  0  0
   45.1370   35.2420   45.3040 C   0  0  0  0  0  0  0  0  0  0  0  0
   45.0950   34.7090   44.0070 C   0  0  0  0  0  0  0  0  0  0  0  0
   44.3650   35.3270   43.0140 C   0  0  0  0  0  0  0  0  0  0  0  0
   43.7180   36.4560   43.4040 N   0  0  0  0  0  0  0  0  0  0  0  0
   43.7520   36.9700   44.6360 C   0  0  0  0  0  0  0  0  0  0  0  0
   44.4640   36.3600   45.5900 N   0  0  0  0  0  0  0  0  0  0  0  0
   45.7320   34.7040   46.0410 H   0  0  0  0  0  0  0  0  0  0  0  0
   45.6280   33.8040   43.7380 H   0  0  0  0  0  0  0  0  0  0  0  0
   43.1870   37.8780   44.8090 H   0  0  0  0  0  0  0  0  0  0  0  0
   41.9060   35.0260   41.8170 O   0  0  0  0  0  0  0  0  0  0  0  0
   41.1070   35.5040   41.4310 H   0  0  0  0  0  0  0  0  0  0  0  0
   41.5860   34.0940   39.2820 O   0  0  0  0  0  0  0  0  0  0  0  0
   40.7920   33.0200   39.3700 C   0  0  0  0  0  0  0  0  0  0  0  0
   40.1570   32.3090   38.3750 C   0  0  0  0  0  0  0  0  0  0  0  0
   39.3800   31.2240   38.7170 C   0  0  0  0  0  0  0  0  0  0  0  0
   39.3000   30.9230   40.1100 C   0  0  0  0  0  0  0  0  0  0  0  0
   40.3360   32.1980   40.8980 S   0  0  0  0  0  0  0  0  0  0  0  0
   40.2770   32.6110   37.3440 H   0  0  0  0  0  0  0  0  0  0  0  0
   38.8420   30.6030   38.0160 H   0  0  0  0  0  0  0  0  0  0  0  0
   38.1590   28.7480   40.0360 C   0  0  0  0  0  3  0  0  0  0  0  0
   38.5740   29.8710   40.7220 C   0  0  0  0  0  0  0  0  0  0  0  0
   38.3050   30.0440   42.0790 C   0  0  0  0  0  0  0  0  0  0  0  0
   38.6190   30.9120   42.6320 H   0  0  0  0  0  0  0  0  0  0  0  0
   37.5990   29.0820   42.7970 C   0  0  0  0  0  0  0  0  0  0  0  0
   37.1990   28.9720   44.0750 N   0  0  0  0  0  0  0  0  0  0  0  0
   37.3600   29.6580   44.8410 H   0  0  0  0  0  0  0  0  0  0  0  0
   36.5300   27.8090   44.2550 C   0  0  0  0  0  0  0  0  0  0  0  0
   36.0690   27.3910   45.1460 H   0  0  0  0  0  0  0  0  0  0  0  0
   36.5220   27.1790   43.0280 C   0  0  0  0  0  3  0  0  0  0  0  0
   37.1850   27.9560   42.0980 C   0  0  0  0  0  0  0  0  0  0  0  0
   37.4600   27.7910   40.7420 C   0  0  0  0  0  3  0  0  0  0  0  0
  1  2  1  0  0  0  0
  1 19  1  0  0  0  0
  2 12  1  0  0  0  0
  3  7  1  0  0  0  0
  3  2  2  0  0  0  0
  4  3  1  0  0  0  0
  5  4  2  0  0  0  0
  5  6  1  0  0  0  0
  6  1  2  0  0  0  0
  8  4  1  0  0  0  0
  9  5  1  0  0  0  0
 10 15  1  0  0  0  0
 10 16  1  0  0  0  0
 11 10  2  0  0  0  0
 12 13  2  0  0  0  0
 12 11  1  0  0  0  0
 13 14  1  0  0  0  0
 14 18  1  0  0  0  0
 14 15  2  0  0  0  0
 17 11  1  0  0  0  0
 20 19  1  0  0  0  0
 21 22  1  0  0  0  0
 21  6  1  0  0  0  0
 22 26  1  0  0  0  0
 23 24  1  0  0  0  0
 23 22  2  0  0  0  0
 24 25  2  0  0  0  0
 25 30  1  0  0  0  0
 25 26  1  0  0  0  0
 27 23  1  0  0  0  0
 28 24  1  0  0  0  0
 29 30  2  0  0  0  0
 29 40  1  0  0  0  0
 30 31  1  0  0  0  0
 31 32  1  0  0  0  0
 31 33  2  0  0  0  0
 33 34  1  0  0  0  0
 34 36  1  0  0  0  0
 34 35  1  0  0  0  0
 36 37  1  0  0  0  0
 38 36  2  0  0  0  0
 39 33  1  0  0  0  0
 39 38  1  0  0  0  0
 40 39  2  0  0  0  0
M  END
>  <minimizedAffinity>
-7.47070694

$$$$

 OpenBabel03242513323D

 40 44  0  0  0  0  0  0  0  0999 V2000
   38.7630   31.9860   41.1250 C   0  0  0  0  0  0  0  0  0  0  0  0
   38.6100   33.0270   40.2350 C   0  0  0  0  0  0  0  0  0  0  0  0
   37.6160   32.9090   39.3080 C   0  0  0  0  0  0  0  0  0  0  0  0
   36.7890   31.7950   39.2540 C   0  0  0  0  0  0  0  0  0  0  0  0
   36.9520   30.7680   40.1450 C   0  0  0  0  0  0  0  0  0  0  0  0
   37.9640   30.8540   41.1140 C   0  0  0  0  0  0  0  0  0  0  0  0
   37.4610   33.7090   38.5850 H   0  0  0  0  0  0  0  0  0  0  0  0
   36.0080   31.7230   38.5100 H   0  0  0  0  0  0  0  0  0  0  0  0
   36.3350   29.8790   40.1460 H   0  0  0  0  0  0  0  0  0  0  0  0
   39.9650   36.5270   40.4680 C   0  0  0  0  0  0  0  0  0  0  0  0
   39.0560   35.4640   40.3650 C   0  0  0  0  0  0  0  0  0  0  0  0
   39.4980   34.1580   40.3400 C   0  0  0  0  0  0  0  0  0  0  0  0
   40.8460   34.0140   40.4230 N   0  0  0  0  0  0  0  0  0  0  0  0
   41.7190   35.0200   40.5210 C   0  0  0  0  0  0  0  0  0  0  0  0
   41.2760   36.2820   40.5440 N   0  0  0  0  0  0  0  0  0  0  0  0
   39.5490   37.5350   40.4820 H   0  0  0  0  0  0  0  0  0  0  0  0
   37.9860   35.6240   40.3010 H   0  0  0  0  0  0  0  0  0  0  0  0
   42.7680   34.7600   40.5790 H   0  0  0  0  0  0  0  0  0  0  0  0
   39.7630   32.0560   42.0950 O   0  0  0  0  0  0  0  0  0  0  0  0
   39.6500   31.7530   43.0490 H   0  0  0  0  0  0  0  0  0  0  0  0
   38.1710   29.8520   42.0320 O   0  0  0  0  0  0  0  0  0  0  0  0
   37.8000   28.5730   41.9050 C   0  0  0  0  0  0  0  0  0  0  0  0
   37.2250   27.7250   42.8270 C   0  0  0  0  0  0  0  0  0  0  0  0
   36.9300   26.4320   42.4560 C   0  0  0  0  0  0  0  0  0  0  0  0
   37.2560   26.0730   41.1130 C   0  0  0  0  0  0  0  0  0  0  0  0
   37.9750   27.5930   40.4120 S   0  0  0  0  0  0  0  0  0  0  0  0
   37.0120   28.0860   43.8230 H   0  0  0  0  0  0  0  0  0  0  0  0
   36.4800   25.6900   43.1000 H   0  0  0  0  0  0  0  0  0  0  0  0
   36.1630   24.6270   39.4540 C   0  0  0  0  0  3  0  0  0  0  0  0
   37.0580   24.8170   40.4860 C   0  0  0  0  0  0  0  0  0  0  0  0
   37.8370   23.7740   40.9860 C   0  0  0  0  0  0  0  0  0  0  0  0
   38.5400   23.9010   41.7910 H   0  0  0  0  0  0  0  0  0  0  0  0
   37.7370   22.4900   40.4570 C   0  0  0  0  0  0  0  0  0  0  0  0
   38.3380   21.3170   40.7220 N   0  0  0  0  0  0  0  0  0  0  0  0
   39.0620   21.1360   41.4470 H   0  0  0  0  0  0  0  0  0  0  0  0
   37.8650   20.3550   39.8950 C   0  0  0  0  0  0  0  0  0  0  0  0
   38.1180   19.3010   39.8220 H   0  0  0  0  0  0  0  0  0  0  0  0
   36.9320   20.9700   39.0860 C   0  0  0  0  0  3  0  0  0  0  0  0
   36.8330   22.3070   39.4190 C   0  0  0  0  0  0  0  0  0  0  0  0
   36.0600   23.3560   38.9250 C   0  0  0  0  0  3  0  0  0  0  0  0
  1 19  1  0  0  0  0
  2 12  1  0  0  0  0
  2  1  2  0  0  0  0
  3  2  1  0  0  0  0
  4  3  2  0  0  0  0
  4  5  1  0  0  0  0
  5  9  1  0  0  0  0
  5  6  2  0  0  0  0
  6  1  1  0  0  0  0
  6 21  1  0  0  0  0
  7  3  1  0  0  0  0
  8  4  1  0  0  0  0
 10 16  1  0  0  0  0
 10 15  1  0  0  0  0
 11 10  2  0  0  0  0
 12 11  1  0  0  0  0
 12 13  2  0  0  0  0
 13 14  1  0  0  0  0
 14 15  2  0  0  0  0
 14 18  1  0  0  0  0
 17 11  1  0  0  0  0
 19 20  1  0  0  0  0
 22 21  1  0  0  0  0
 22 23  2  0  0  0  0
 23 27  1  0  0  0  0
 24 23  1  0  0  0  0
 24 28  1  0  0  0  0
 25 24  2  0  0  0  0
 26 25  1  0  0  0  0
 26 22  1  0  0  0  0
 29 30  1  0  0  0  0
 30 31  2  0  0  0  0
 30 25  1  0  0  0  0
 31 32  1  0  0  0  0
 33 34  1  0  0  0  0
 33 31  1  0  0  0  0
 34 35  1  0  0  0  0
 36 34  1  0  0  0  0
 37 36  1  0  0  0  0
 38 39  1  0  0  0  0
 38 36  2  0  0  0  0
 39 33  2  0  0  0  0
 40 39  1  0  0  0  0
 40 29  2  0  0  0  0
M  END
>  <minimizedAffinity>
-7.2709465

$$$$

 OpenBabel03242513323D

 40 44  0  0  0  0  0  0  0  0999 V2000
   39.5850   33.4510   40.3430 C   0  0  0  0  0  0  0  0  0  0  0  0
   40.8380   33.8810   39.9630 C   0  0  0  0  0  0  0  0  0  0  0  0
   41.3100   33.4330   38.7640 C   0  0  0  0  0  0  0  0  0  0  0  0
   40.5700   32.5820   37.9540 C   0  0  0  0  0  0  0  0  0  0  0  0
   39.3270   32.1630   38.3430 C   0  0  0  0  0  0  0  0  0  0  0  0
   38.8070   32.6030   39.5710 C   0  0  0  0  0  0  0  0  0  0  0  0
   42.2960   33.7490   38.4250 H   0  0  0  0  0  0  0  0  0  0  0  0
   40.9650   32.2400   37.0070 H   0  0  0  0  0  0  0  0  0  0  0  0
   38.7110   31.5000   37.7500 H   0  0  0  0  0  0  0  0  0  0  0  0
   43.4380   35.3420   42.2540 C   0  0  0  0  0  0  0  0  0  0  0  0
   42.7790   34.4440   41.4020 C   0  0  0  0  0  0  0  0  0  0  0  0
   41.5590   34.7650   40.8450 C   0  0  0  0  0  0  0  0  0  0  0  0
   41.0820   35.9890   41.1920 N   0  0  0  0  0  0  0  0  0  0  0  0
   41.7010   36.8500   42.0020 C   0  0  0  0  0  0  0  0  0  0  0  0
   42.8840   36.5250   42.5360 N   0  0  0  0  0  0  0  0  0  0  0  0
   44.3980   35.0260   42.6600 H   0  0  0  0  0  0  0  0  0  0  0  0
   43.1970   33.4750   41.1510 H   0  0  0  0  0  0  0  0  0  0  0  0
   41.2040   37.7930   42.1940 H   0  0  0  0  0  0  0  0  0  0  0  0
   39.0540   33.8800   41.5590 O   0  0  0  0  0  0  0  0  0  0  0  0
   38.0900   34.1390   41.6960 H   0  0  0  0  0  0  0  0  0  0  0  0
   37.5640   32.2120   40.0100 O   0  0  0  0  0  0  0  0  0  0  0  0
   37.1700   30.9580   40.2570 C   0  0  0  0  0  0  0  0  0  0  0  0
   35.9220   30.4740   40.5860 C   0  0  0  0  0  0  0  0  0  0  0  0
   35.7620   29.1220   40.7960 C   0  0  0  0  0  0  0  0  0  0  0  0
   36.9340   28.3190   40.6500 C   0  0  0  0  0  0  0  0  0  0  0  0
   38.2370   29.5160   40.2160 S   0  0  0  0  0  0  0  0  0  0  0  0
   35.0910   31.1590   40.6730 H   0  0  0  0  0  0  0  0  0  0  0  0
   34.8300   28.6430   41.0570 H   0  0  0  0  0  0  0  0  0  0  0  0
   37.1260   26.3060   42.0450 C   0  0  0  0  0  3  0  0  0  0  0  0
   37.0390   26.9150   40.8110 C   0  0  0  0  0  0  0  0  0  0  0  0
   37.0500   26.1810   39.6260 C   0  0  0  0  0  0  0  0  0  0  0  0
   36.9840   26.6360   38.6530 H   0  0  0  0  0  0  0  0  0  0  0  0
   37.1490   24.7910   39.6460 C   0  0  0  0  0  0  0  0  0  0  0  0
   37.1840   23.8400   38.6980 N   0  0  0  0  0  0  0  0  0  0  0  0
   37.1380   23.9820   37.6680 H   0  0  0  0  0  0  0  0  0  0  0  0
   37.2910   22.6170   39.2700 C   0  0  0  0  0  0  0  0  0  0  0  0
   37.3460   21.6300   38.8180 H   0  0  0  0  0  0  0  0  0  0  0  0
   37.3240   22.8330   40.6320 C   0  0  0  0  0  3  0  0  0  0  0  0
   37.2370   24.1870   40.8930 C   0  0  0  0  0  0  0  0  0  0  0  0
   37.2240   24.9290   42.0720 C   0  0  0  0  0  3  0  0  0  0  0  0
  1 19  1  0  0  0  0
  2  1  1  0  0  0  0
  2 12  1  0  0  0  0
  3  2  2  0  0  0  0
  4  5  2  0  0  0  0
  4  3  1  0  0  0  0
  5  6  1  0  0  0  0
  6 21  1  0  0  0  0
  6  1  2  0  0  0  0
  7  3  1  0  0  0  0
  8  4  1  0  0  0  0
  9  5  1  0  0  0  0
 10 15  1  0  0  0  0
 10 16  1  0  0  0  0
 11 10  2  0  0  0  0
 12 13  2  0  0  0  0
 12 11  1  0  0  0  0
 13 14  1  0  0  0  0
 14 18  1  0  0  0  0
 14 15  2  0  0  0  0
 17 11  1  0  0  0  0
 19 20  1  0  0  0  0
 21 22  1  0  0  0  0
 22 23  2  0  0  0  0
 23 27  1  0  0  0  0
 23 24  1  0  0  0  0
 24 28  1  0  0  0  0
 25 24  2  0  0  0  0
 25 30  1  0  0  0  0
 26 22  1  0  0  0  0
 26 25  1  0  0  0  0
 29 40  1  0  0  0  0
 30 29  2  0  0  0  0
 31 33  2  0  0  0  0
 31 30  1  0  0  0  0
 32 31  1  0  0  0  0
 33 39  1  0  0  0  0
 34 36  1  0  0  0  0
 34 33  1  0  0  0  0
 35 34  1  0  0  0  0
 36 38  2  0  0  0  0
 37 36  1  0  0  0  0
 38 39  1  0  0  0  0
 39 40  2  0  0  0  0
M  END
>  <minimizedAffinity>
-7.07452202

$$$$

 OpenBabel03242513323D

 40 44  0  0  0  0  0  0  0  0999 V2000
   42.4310   34.4490   40.4700 C   0  0  0  0  0  0  0  0  0  0  0  0
   43.8020   34.3240   40.4050 C   0  0  0  0  0  0  0  0  0  0  0  0
   44.3470   34.1060   39.1740 C   0  0  0  0  0  0  0  0  0  0  0  0
   43.5660   34.0130   38.0290 C   0  0  0  0  0  0  0  0  0  0  0  0
   42.2050   34.1390   38.1080 C   0  0  0  0  0  0  0  0  0  0  0  0
   41.6070   34.3650   39.3580 C   0  0  0  0  0  0  0  0  0  0  0  0
   45.4270   34.0010   39.0770 H   0  0  0  0  0  0  0  0  0  0  0  0
   44.0200   33.8400   37.0640 H   0  0  0  0  0  0  0  0  0  0  0  0
   41.5520   34.0750   37.2480 H   0  0  0  0  0  0  0  0  0  0  0  0
   46.1320   35.5310   43.0990 C   0  0  0  0  0  0  0  0  0  0  0  0
   45.4170   35.4780   41.8930 C   0  0  0  0  0  0  0  0  0  0  0  0
   44.5610   34.4300   41.6260 C   0  0  0  0  0  0  0  0  0  0  0  0
   44.4840   33.4960   42.6100 N   0  0  0  0  0  0  0  0  0  0  0  0
   45.1600   33.5380   43.7600 C   0  0  0  0  0  0  0  0  0  0  0  0
   45.9880   34.5600   44.0060 N   0  0  0  0  0  0  0  0  0  0  0  0
   46.7910   36.3860   43.2460 H   0  0  0  0  0  0  0  0  0  0  0  0
   45.5090   36.2470   41.1340 H   0  0  0  0  0  0  0  0  0  0  0  0
   45.0030   32.7240   44.4560 H   0  0  0  0  0  0  0  0  0  0  0  0
   41.8220   34.6740   41.7040 O   0  0  0  0  0  0  0  0  0  0  0  0
   41.0490   35.3040   41.8480 H   0  0  0  0  0  0  0  0  0  0  0  0
   40.2460   34.4990   39.4940 O   0  0  0  0  0  0  0  0  0  0  0  0
   39.3840   33.5290   39.8190 C   0  0  0  0  0  0  0  0  0  0  0  0
   38.0060   33.5520   39.8630 C   0  0  0  0  0  0  0  0  0  0  0  0
   37.3290   32.4110   40.2340 C   0  0  0  0  0  0  0  0  0  0  0  0
   38.1340   31.2750   40.5490 C   0  0  0  0  0  0  0  0  0  0  0  0
   39.8410   31.8650   40.3070 S   0  0  0  0  0  0  0  0  0  0  0  0
   37.4800   34.4600   39.6060 H   0  0  0  0  0  0  0  0  0  0  0  0
   36.2540   32.3240   40.3010 H   0  0  0  0  0  0  0  0  0  0  0  0
   36.3580   29.6370   40.9920 C   0  0  0  0  0  3  0  0  0  0  0  0
   37.6900   29.9920   40.9550 C   0  0  0  0  0  0  0  0  0  0  0  0
   38.6990   29.1020   41.3190 C   0  0  0  0  0  0  0  0  0  0  0  0
   39.7440   29.3590   41.2990 H   0  0  0  0  0  0  0  0  0  0  0  0
   38.3950   27.8090   41.7380 C   0  0  0  0  0  0  0  0  0  0  0  0
   39.1290   26.7560   42.1400 N   0  0  0  0  0  0  0  0  0  0  0  0
   40.1660   26.7120   42.2200 H   0  0  0  0  0  0  0  0  0  0  0  0
   38.3190   25.7140   42.4420 C   0  0  0  0  0  0  0  0  0  0  0  0
   38.5590   24.7150   42.7950 H   0  0  0  0  0  0  0  0  0  0  0  0
   37.0310   26.1510   42.2130 C   0  0  0  0  0  3  0  0  0  0  0  0
   37.0520   27.4600   41.7720 C   0  0  0  0  0  0  0  0  0  0  0  0
   36.0510   28.3560   41.4050 C   0  0  0  0  0  3  0  0  0  0  0  0
  1 19  1  0  0  0  0
  2  1  1  0  0  0  0
  2 12  1  0  0  0  0
  3  2  2  0  0  0  0
  4  5  2  0  0  0  0
  4  3  1  0  0  0  0
  5  6  1  0  0  0  0
  6 21  1  0  0  0  0
  6  1  2  0  0  0  0
  7  3  1  0  0  0  0
  8  4  1  0  0  0  0
  9  5  1  0  0  0  0
 10 16  1  0  0  0  0
 10 15  1  0  0  0  0
 11 10  2  0  0  0  0
 12 11  1  0  0  0  0
 12 13  2  0  0  0  0
 13 14  1  0  0  0  0
 14 15  2  0  0  0  0
 14 18  1  0  0  0  0
 17 11  1  0  0  0  0
 19 20  1  0  0  0  0
 21 22  1  0  0  0  0
 22 23  2  0  0  0  0
 22 26  1  0  0  0  0
 23 24  1  0  0  0  0
 24 28  1  0  0  0  0
 24 25  2  0  0  0  0
 25 30  1  0  0  0  0
 26 25  1  0  0  0  0
 27 23  1  0  0  0  0
 29 40  1  0  0  0  0
 30 29  2  0  0  0  0
 30 31  1  0  0  0  0
 31 33  2  0  0  0  0
 32 31  1  0  0  0  0
 33 39  1  0  0  0  0
 33 34  1  0  0  0  0
 34 35  1  0  0  0  0
 34 36  1  0  0  0  0
 36 37  1  0  0  0  0
 38 36  2  0  0  0  0
 39 38  1  0  0  0  0
 40 39  2  0  0  0  0
M  END
>  <minimizedAffinity>
-6.8747797

$$$$

 OpenBabel03242513323D

 40 44  0  0  0  0  0  0  0  0999 V2000
   41.5480   34.1880   41.2780 C   0  0  0  0  0  0  0  0  0  0  0  0
   41.8670   35.5220   41.4080 C   0  0  0  0  0  0  0  0  0  0  0  0
   41.0540   36.4180   40.7780 C   0  0  0  0  0  0  0  0  0  0  0  0
   39.9510   36.0160   40.0370 C   0  0  0  0  0  0  0  0  0  0  0  0
   39.6450   34.6880   39.9160 C   0  0  0  0  0  0  0  0  0  0  0  0
   40.4580   33.7350   40.5500 C   0  0  0  0  0  0  0  0  0  0  0  0
   41.2700   37.4840   40.8550 H   0  0  0  0  0  0  0  0  0  0  0  0
   39.3200   36.7450   39.5460 H   0  0  0  0  0  0  0  0  0  0  0  0
   38.7980   34.3230   39.3510 H   0  0  0  0  0  0  0  0  0  0  0  0
   44.1130   36.9730   44.0530 C   0  0  0  0  0  0  0  0  0  0  0  0
   42.9540   36.6550   43.3290 C   0  0  0  0  0  0  0  0  0  0  0  0
   43.0240   35.8800   42.1900 C   0  0  0  0  0  0  0  0  0  0  0  0
   44.2770   35.4720   41.8570 N   0  0  0  0  0  0  0  0  0  0  0  0
   45.3840   35.7700   42.5400 C   0  0  0  0  0  0  0  0  0  0  0  0
   45.3020   36.5240   43.6420 N   0  0  0  0  0  0  0  0  0  0  0  0
   43.9870   37.5890   44.9420 H   0  0  0  0  0  0  0  0  0  0  0  0
   41.9720   37.0010   43.6310 H   0  0  0  0  0  0  0  0  0  0  0  0
   46.3190   35.3780   42.1600 H   0  0  0  0  0  0  0  0  0  0  0  0
   42.3450   33.2300   41.9020 O   0  0  0  0  0  0  0  0  0  0  0  0
   41.9880   32.4090   42.3660 H   0  0  0  0  0  0  0  0  0  0  0  0
   40.1970   32.3890   40.4610 O   0  0  0  0  0  0  0  0  0  0  0  0
   39.0800   31.8290   39.9820 C   0  0  0  0  0  0  0  0  0  0  0  0
   37.8050   31.8190   40.5030 C   0  0  0  0  0  0  0  0  0  0  0  0
   36.8050   31.1650   39.8160 C   0  0  0  0  0  0  0  0  0  0  0  0
   37.1890   30.5390   38.5920 C   0  0  0  0  0  0  0  0  0  0  0  0
   38.9690   30.8980   38.4520 S   0  0  0  0  0  0  0  0  0  0  0  0
   37.6070   32.3230   41.4380 H   0  0  0  0  0  0  0  0  0  0  0  0
   35.7760   31.0980   40.1370 H   0  0  0  0  0  0  0  0  0  0  0  0
   35.0730   29.4280   38.0200 C   0  0  0  0  0  3  0  0  0  0  0  0
   36.3610   29.8080   37.7040 C   0  0  0  0  0  0  0  0  0  0  0  0
   36.9390   29.4950   36.4750 C   0  0  0  0  0  0  0  0  0  0  0  0
   37.9420   29.7810   36.2090 H   0  0  0  0  0  0  0  0  0  0  0  0
   36.2300   28.7790   35.5130 C   0  0  0  0  0  0  0  0  0  0  0  0
   36.5120   28.3410   34.2740 N   0  0  0  0  0  0  0  0  0  0  0  0
   37.4040   28.4700   33.7530 H   0  0  0  0  0  0  0  0  0  0  0  0
   35.4470   27.6810   33.7610 C   0  0  0  0  0  0  0  0  0  0  0  0
   35.3150   27.1980   32.7960 H   0  0  0  0  0  0  0  0  0  0  0  0
   34.4690   27.7180   34.7330 C   0  0  0  0  0  3  0  0  0  0  0  0
   34.9350   28.4000   35.8400 C   0  0  0  0  0  0  0  0  0  0  0  0
   34.3660   28.7190   37.0710 C   0  0  0  0  0  3  0  0  0  0  0  0
  1  2  1  0  0  0  0
  1 19  1  0  0  0  0
  2 12  1  0  0  0  0
  3  7  1  0  0  0  0
  3  2  2  0  0  0  0
  4  3  1  0  0  0  0
  5  4  2  0  0  0  0
  5  6  1  0  0  0  0
  6  1  2  0  0  0  0
  8  4  1  0  0  0  0
  9  5  1  0  0  0  0
 10 16  1  0  0  0  0
 11 17  1  0  0  0  0
 11 10  2  0  0  0  0
 12 11  1  0  0  0  0
 13 12  2  0  0  0  0
 13 14  1  0  0  0  0
 14 15  2  0  0  0  0
 15 10  1  0  0  0  0
 18 14  1  0  0  0  0
 19 20  1  0  0  0  0
 21  6  1  0  0  0  0
 22 21  1  0  0  0  0
 22 23  2  0  0  0  0
 23 27  1  0  0  0  0
 24 28  1  0  0  0  0
 24 23  1  0  0  0  0
 25 24  2  0  0  0  0
 26 25  1  0  0  0  0
 26 22  1  0  0  0  0
 30 29  1  0  0  0  0
 30 25  1  0  0  0  0
 31 30  2  0  0  0  0
 32 31  1  0  0  0  0
 33 39  2  0  0  0  0
 33 31  1  0  0  0  0
 34 33  1  0  0  0  0
 35 34  1  0  0  0  0
 36 34  1  0  0  0  0
 36 38  2  0  0  0  0
 37 36  1  0  0  0  0
 38 39  1  0  0  0  0
 39 40  1  0  0  0  0
 40 29  2  0  0  0  0
M  END
>  <minimizedAffinity>
-6.85901976

$$$$

 OpenBabel03242513323D

 40 44  0  0  0  0  0  0  0  0999 V2000
   40.8860   33.7160   39.5470 C   0  0  0  0  0  0  0  0  0  0  0  0
   41.8130   34.5900   40.0710 C   0  0  0  0  0  0  0  0  0  0  0  0
   41.3320   35.6740   40.7460 C   0  0  0  0  0  0  0  0  0  0  0  0
   39.9700   35.8960   40.9040 C   0  0  0  0  0  0  0  0  0  0  0  0
   39.0600   35.0200   40.3790 C   0  0  0  0  0  0  0  0  0  0  0  0
   39.5170   33.8920   39.6780 C   0  0  0  0  0  0  0  0  0  0  0  0
   42.0300   36.3900   41.1770 H   0  0  0  0  0  0  0  0  0  0  0  0
   39.6120   36.7620   41.4430 H   0  0  0  0  0  0  0  0  0  0  0  0
   37.9900   35.1470   40.4740 H   0  0  0  0  0  0  0  0  0  0  0  0
   45.4730   33.9600   40.6640 C   0  0  0  0  0  0  0  0  0  0  0  0
   44.1210   34.2400   40.9120 C   0  0  0  0  0  0  0  0  0  0  0  0
   43.2130   34.3070   39.8760 C   0  0  0  0  0  0  0  0  0  0  0  0
   43.7410   34.0830   38.6440 N   0  0  0  0  0  0  0  0  0  0  0  0
   45.0250   33.8170   38.3990 C   0  0  0  0  0  0  0  0  0  0  0  0
   45.8960   33.7550   39.4130 N   0  0  0  0  0  0  0  0  0  0  0  0
   46.1370   33.9220   41.5270 H   0  0  0  0  0  0  0  0  0  0  0  0
   43.7420   34.4120   41.9130 H   0  0  0  0  0  0  0  0  0  0  0  0
   45.3090   33.6600   37.3660 H   0  0  0  0  0  0  0  0  0  0  0  0
   41.3240   32.5920   38.8490 O   0  0  0  0  0  0  0  0  0  0  0  0
   40.9040   31.6790   38.9240 H   0  0  0  0  0  0  0  0  0  0  0  0
   38.6460   32.9810   39.1300 O   0  0  0  0  0  0  0  0  0  0  0  0
   38.0820   31.9460   39.7620 C   0  0  0  0  0  0  0  0  0  0  0  0
   36.8940   31.8790   40.4580 C   0  0  0  0  0  0  0  0  0  0  0  0
   36.5200   30.6830   41.0310 C   0  0  0  0  0  0  0  0  0  0  0  0
   37.4200   29.5900   40.8490 C   0  0  0  0  0  0  0  0  0  0  0  0
   38.7790   30.2960   39.8630 S   0  0  0  0  0  0  0  0  0  0  0  0
   36.2760   32.7610   40.5430 H   0  0  0  0  0  0  0  0  0  0  0  0
   35.6130   30.5250   41.5950 H   0  0  0  0  0  0  0  0  0  0  0  0
   36.8840   27.9780   42.6240 C   0  0  0  0  0  3  0  0  0  0  0  0
   37.2730   28.2660   41.3320 C   0  0  0  0  0  0  0  0  0  0  0  0
   37.5490   27.2610   40.4060 C   0  0  0  0  0  0  0  0  0  0  0  0
   37.8540   27.4630   39.3940 H   0  0  0  0  0  0  0  0  0  0  0  0
   37.4420   25.9170   40.7560 C   0  0  0  0  0  0  0  0  0  0  0  0
   37.6370   24.7590   40.1010 N   0  0  0  0  0  0  0  0  0  0  0  0
   37.9350   24.6440   39.1110 H   0  0  0  0  0  0  0  0  0  0  0  0
   37.3890   23.7130   40.9240 C   0  0  0  0  0  0  0  0  0  0  0  0
   37.4420   22.6430   40.7400 H   0  0  0  0  0  0  0  0  0  0  0  0
   37.0240   24.2580   42.1380 C   0  0  0  0  0  3  0  0  0  0  0  0
   37.0510   25.6360   42.0580 C   0  0  0  0  0  0  0  0  0  0  0  0
   36.7750   26.6480   42.9760 C   0  0  0  0  0  3  0  0  0  0  0  0
  1  6  2  0  0  0  0
  1  2  1  0  0  0  0
  2  3  2  0  0  0  0
  3  4  1  0  0  0  0
  3  7  1  0  0  0  0
  4  8  1  0  0  0  0
  5  9  1  0  0  0  0
  5  4  2  0  0  0  0
  6  5  1  0  0  0  0
 10 11  1  0  0  0  0
 10 16  1  0  0  0  0
 11 17  1  0  0  0  0
 12  2  1  0  0  0  0
 12 11  2  0  0  0  0
 13 12  1  0  0  0  0
 14 13  2  0  0  0  0
 14 15  1  0  0  0  0
 15 10  2  0  0  0  0
 18 14  1  0  0  0  0
 19 20  1  0  0  0  0
 19  1  1  0  0  0  0
 21  6  1  0  0  0  0
 21 22  1  0  0  0  0
 22 26  1  0  0  0  0
 22 23  2  0  0  0  0
 23 27  1  0  0  0  0
 23 24  1  0  0  0  0
 24 28  1  0  0  0  0
 25 24  2  0  0  0  0
 25 30  1  0  0  0  0
 26 25  1  0  0  0  0
 29 40  1  0  0  0  0
 30 29  2  0  0  0  0
 31 33  2  0  0  0  0
 31 30  1  0  0  0  0
 32 31  1  0  0  0  0
 33 39  1  0  0  0  0
 34 33  1  0  0  0  0
 34 36  1  0  0  0  0
 35 34  1  0  0  0  0
 36 38  2  0  0  0  0
 37 36  1  0  0  0  0
 39 38  1  0  0  0  0
 39 40  2  0  0  0  0
M  END
>  <minimizedAffinity>
-6.79309368

$$$$

 OpenBabel03242513323D

 40 44  0  0  0  0  0  0  0  0999 V2000
   36.7090   25.4650   39.9570 C   0  0  0  0  0  0  0  0  0  0  0  0
   36.9500   24.3550   40.7370 C   0  0  0  0  0  0  0  0  0  0  0  0
   37.1700   24.5680   42.0670 C   0  0  0  0  0  0  0  0  0  0  0  0
   37.1530   25.8420   42.6200 C   0  0  0  0  0  0  0  0  0  0  0  0
   36.9110   26.9350   41.8330 C   0  0  0  0  0  0  0  0  0  0  0  0
   36.6800   26.7560   40.4600 C   0  0  0  0  0  0  0  0  0  0  0  0
   37.3640   23.7190   42.7210 H   0  0  0  0  0  0  0  0  0  0  0  0
   37.3290   25.9860   43.6770 H   0  0  0  0  0  0  0  0  0  0  0  0
   36.8880   27.9470   42.2140 H   0  0  0  0  0  0  0  0  0  0  0  0
   37.9650   20.9290   39.5650 C   0  0  0  0  0  0  0  0  0  0  0  0
   38.0140   22.1800   40.1980 C   0  0  0  0  0  0  0  0  0  0  0  0
   36.9550   23.0590   40.1070 C   0  0  0  0  0  0  0  0  0  0  0  0
   35.9040   22.6070   39.3730 N   0  0  0  0  0  0  0  0  0  0  0  0
   35.8500   21.4190   38.7670 C   0  0  0  0  0  0  0  0  0  0  0  0
   36.8840   20.5760   38.8630 N   0  0  0  0  0  0  0  0  0  0  0  0
   38.8360   20.2830   39.6760 H   0  0  0  0  0  0  0  0  0  0  0  0
   38.8730   22.5000   40.7760 H   0  0  0  0  0  0  0  0  0  0  0  0
   34.9480   21.1880   38.2130 H   0  0  0  0  0  0  0  0  0  0  0  0
   36.4770   25.3030   38.5910 O   0  0  0  0  0  0  0  0  0  0  0  0
   35.7880   25.8200   38.0680 H   0  0  0  0  0  0  0  0  0  0  0  0
   36.4340   27.8190   39.6240 O   0  0  0  0  0  0  0  0  0  0  0  0
   36.8170   29.0860   39.8210 C   0  0  0  0  0  0  0  0  0  0  0  0
   36.0610   30.2000   40.1170 C   0  0  0  0  0  0  0  0  0  0  0  0
   36.6910   31.4150   40.2750 C   0  0  0  0  0  0  0  0  0  0  0  0
   38.1100   31.4130   40.1130 C   0  0  0  0  0  0  0  0  0  0  0  0
   38.5090   29.6750   39.7390 S   0  0  0  0  0  0  0  0  0  0  0  0
   34.9900   30.1050   40.2230 H   0  0  0  0  0  0  0  0  0  0  0  0
   36.1930   32.3440   40.5070 H   0  0  0  0  0  0  0  0  0  0  0  0
   40.3260   32.3870   40.5360 C   0  0  0  0  0  3  0  0  0  0  0  0
   38.9890   32.5190   40.2210 C   0  0  0  0  0  0  0  0  0  0  0  0
   38.4090   33.7640   39.9850 C   0  0  0  0  0  0  0  0  0  0  0  0
   37.3690   33.8900   39.7390 H   0  0  0  0  0  0  0  0  0  0  0  0
   39.1650   34.9320   40.0600 C   0  0  0  0  0  0  0  0  0  0  0  0
   38.8940   36.2370   39.8900 N   0  0  0  0  0  0  0  0  0  0  0  0
   37.9740   36.6570   39.6450 H   0  0  0  0  0  0  0  0  0  0  0  0
   40.0140   36.9730   40.0840 C   0  0  0  0  0  0  0  0  0  0  0  0
   40.1690   38.0470   40.0300 H   0  0  0  0  0  0  0  0  0  0  0  0
   41.0160   36.0740   40.3870 C   0  0  0  0  0  3  0  0  0  0  0  0
   40.5090   34.7890   40.3780 C   0  0  0  0  0  0  0  0  0  0  0  0
   41.0800   33.5400   40.6120 C   0  0  0  0  0  3  0  0  0  0  0  0
  1  6  2  0  0  0  0
  1  2  1  0  0  0  0
  2  3  2  0  0  0  0
  3  4  1  0  0  0  0
  3  7  1  0  0  0  0
  4  8  1  0  0  0  0
  5  9  1  0  0  0  0
  5  4  2  0  0  0  0
  6  5  1  0  0  0  0
 10 16  1  0  0  0  0
 10 11  1  0  0  0  0
 11 17  1  0  0  0  0
 12 11  2  0  0  0  0
 12  2  1  0  0  0  0
 13 12  1  0  0  0  0
 14 15  1  0  0  0  0
 14 13  2  0  0  0  0
 15 10  2  0  0  0  0
 18 14  1  0  0  0  0
 19  1  1  0  0  0  0
 20 19  1  0  0  0  0
 21 22  1  0  0  0  0
 21  6  1  0  0  0  0
 22 23  2  0  0  0  0
 23 27  1  0  0  0  0
 23 24  1  0  0  0  0
 24 28  1  0  0  0  0
 25 30  1  0  0  0  0
 25 24  2  0  0  0  0
 26 22  1  0  0  0  0
 26 25  1  0  0  0  0
 29 40  1  0  0  0  0
 30 29  2  0  0  0  0
 31 33  2  0  0  0  0
 31 30  1  0  0  0  0
 32 31  1  0  0  0  0
 33 39  1  0  0  0  0
 34 33  1  0  0  0  0
 34 36  1  0  0  0  0
 35 34  1  0  0  0  0
 36 38  2  0  0  0  0
 37 36  1  0  0  0  0
 39 38  1  0  0  0  0
 39 40  2  0  0  0  0
M  END
>  <minimizedAffinity>
-6.68206978

$$$$
