
 OpenBabel03242512503D

 47 52  0  0  1  0  0  0  0  0999 V2000
   47.9170   34.0330   43.0760 N   0  0  0  0  0  0  0  0  0  0  0  0
   49.2960   33.6960   42.7010 C   0  0  0  0  0  0  0  0  0  0  0  0
   49.7690   35.1010   42.3920 C   0  0  0  0  0  0  0  0  0  0  0  0
   48.6940   35.5570   41.4400 C   0  0  0  0  0  0  0  0  0  0  0  0
   47.4290   35.0030   42.0620 C   0  0  1  0  0  0  0  0  0  0  0  0
   49.2620   33.1040   41.7750 H   0  0  0  0  0  0  0  0  0  0  0  0
   49.8320   33.2460   43.5400 H   0  0  0  0  0  0  0  0  0  0  0  0
   49.7640   35.6640   43.3500 H   0  0  0  0  0  0  0  0  0  0  0  0
   50.7740   35.0890   41.9210 H   0  0  0  0  0  0  0  0  0  0  0  0
   48.6710   36.6810   41.3830 H   0  0  0  0  0  0  0  0  0  0  0  0
   48.8800   35.0930   40.4610 H   0  0  0  0  0  0  0  0  0  0  0  0
   47.0020   35.7620   42.6560 H   0  0  0  0  0  0  0  0  0  0  0  0
   46.6250   34.2220   41.1430 C   0  0  0  0  0  0  0  0  0  0  0  0
   47.1820   33.2770   40.3460 N   0  0  0  0  0  0  0  0  0  0  0  0
   46.5040   32.5150   39.4640 C   0  0  0  0  0  0  0  0  0  0  0  0
   45.1760   32.6950   39.3570 N   0  0  0  0  0  0  0  0  0  0  0  0
   44.5790   33.6060   40.1140 C   0  0  0  0  0  0  0  0  0  0  0  0
   43.2080   33.7460   39.9620 C   0  0  0  0  0  0  0  0  0  0  0  0
   42.5850   34.7060   40.7600 C   0  0  0  0  0  0  0  0  0  0  0  0
   43.2330   35.5210   41.6840 C   0  0  0  0  0  0  0  0  0  0  0  0
   44.5950   35.3100   41.7640 C   0  0  0  0  0  0  0  0  0  0  0  0
   45.2690   34.4000   41.0280 C   0  0  0  0  0  0  0  0  0  0  0  0
   47.0600   31.8030   38.8910 H   0  0  0  0  0  0  0  0  0  0  0  0
   42.6630   33.1520   39.2720 H   0  0  0  0  0  0  0  0  0  0  0  0
   41.5070   34.7920   40.6200 H   0  0  0  0  0  0  0  0  0  0  0  0
   42.6500   36.2340   42.2530 H   0  0  0  0  0  0  0  0  0  0  0  0
   45.0650   35.9700   42.4680 H   0  0  0  0  0  0  0  0  0  0  0  0
   45.4380   33.8570   45.8350 C   0  0  0  0  0  0  0  0  0  0  0  0
   46.1760   34.3880   44.7870 C   0  0  0  0  0  0  0  0  0  0  0  0
   47.1200   33.5980   44.1470 C   0  0  0  0  0  0  0  0  0  0  0  0
   47.2830   32.3210   44.5820 N   0  0  0  0  0  0  0  0  0  0  0  0
   46.5620   31.8000   45.6090 C   0  0  0  0  0  0  0  0  0  0  0  0
   45.6420   32.5770   46.2280 N   0  0  0  0  0  0  0  0  0  0  0  0
   44.6970   34.4380   46.3540 H   0  0  0  0  0  0  0  0  0  0  0  0
   46.0060   35.4100   44.5160 H   0  0  0  0  0  0  0  0  0  0  0  0
   47.9100   29.7580   45.6180 C   0  0  0  0  0  0  0  0  0  0  0  0
   46.7770   30.4220   46.0380 C   0  0  0  0  0  0  0  0  0  0  0  0
   45.8420   29.8190   46.8540 C   0  0  0  0  0  0  0  0  0  0  0  0
   44.9630   30.3630   47.1670 H   0  0  0  0  0  0  0  0  0  0  0  0
   46.0370   28.5070   47.2680 C   0  0  0  0  0  0  0  0  0  0  0  0
   45.3410   27.6530   48.0400 N   0  0  0  0  0  0  0  0  0  0  0  0
   44.4300   27.8520   48.5140 H   0  0  0  0  0  0  0  0  0  0  0  0
   46.0390   26.4810   48.0900 C   0  0  0  0  0  0  0  0  0  0  0  0
   45.6720   25.6180   48.6650 H   0  0  0  0  0  0  0  0  0  0  0  0
   47.1920   26.5950   47.3400 C   0  0  0  0  0  0  0  0  0  0  0  0
   47.1870   27.8930   46.8170 C   0  0  0  0  0  0  0  0  0  0  0  0
   48.1600   28.4350   46.0030 C   0  0  0  0  0  0  0  0  0  0  0  0
  1 30  1  0  0  0  0
  2  1  1  0  0  0  0
  2  7  1  0  0  0  0
  3  2  1  0  0  0  0
  3  8  1  0  0  0  0
  4  5  1  0  0  0  0
  4  3  1  0  0  0  0
  5 12  1  1  0  0  0
  5  1  1  0  0  0  0
  6  2  1  0  0  0  0
  9  3  1  0  0  0  0
 10  4  1  0  0  0  0
 11  4  1  0  0  0  0
 13  5  1  0  0  0  0
 14 13  2  0  0  0  0
 15 14  1  0  0  0  0
 16 15  2  0  0  0  0
 16 17  1  0  0  0  0
 17 22  1  0  0  0  0
 18 17  2  0  0  0  0
 18 19  1  0  0  0  0
 19 20  2  0  0  0  0
 20 21  1  0  0  0  0
 20 26  1  0  0  0  0
 21 27  1  0  0  0  0
 22 13  1  0  0  0  0
 22 21  2  0  0  0  0
 23 15  1  0  0  0  0
 24 18  1  0  0  0  0
 25 19  1  0  0  0  0
 28 33  1  0  0  0  0
 28 34  1  0  0  0  0
 29 28  2  0  0  0  0
 30 31  2  0  0  0  0
 30 29  1  0  0  0  0
 31 32  1  0  0  0  0
 32 37  1  0  0  0  0
 32 33  2  0  0  0  0
 35 29  1  0  0  0  0
 36 47  2  0  0  0  0
 36 37  1  0  0  0  0
 37 38  2  0  0  0  0
 38 39  1  0  0  0  0
 38 40  1  0  0  0  0
 40 41  1  0  0  0  0
 41 43  1  0  0  0  0
 41 42  1  0  0  0  0
 43 44  1  0  0  0  0
 45 43  2  0  0  0  0
 46 40  2  0  0  0  0
 46 45  1  0  0  0  0
 47 46  1  0  0  0  0
M  END
>  <minimizedAffinity>
-6.86605358

>  <minimizedRMSD>
2.61400628

$$$$
