
 OpenBabel03252501123D

 23 25  0  0  0  0  0  0  0  0999 V2000
   35.9760   28.8340   41.0990 C   0  0  0  0  0  3  0  0  0  0  0  0
   37.0190   28.6800   41.9970 C   0  0  0  0  0  0  0  0  0  0  0  0
   37.9840   29.6710   42.0520 C   0  0  0  0  0  0  0  0  0  0  0  0
   38.8160   29.5930   42.7360 H   0  0  0  0  0  0  0  0  0  0  0  0
   37.8280   30.7410   41.1970 C   0  0  0  0  0  0  0  0  0  0  0  0
   38.6380   31.8250   41.0690 N   0  0  0  0  0  0  0  0  0  0  0  0
   39.5140   32.0350   41.5910 H   0  0  0  0  0  0  0  0  0  0  0  0
   38.1380   32.6590   40.1150 C   0  0  0  0  0  0  0  0  0  0  0  0
   38.4960   33.6070   39.7370 H   0  0  0  0  0  0  0  0  0  0  0  0
   36.9630   32.0860   39.6150 C   0  0  0  0  0  3  0  0  0  0  0  0
   36.7970   30.9020   40.3020 C   0  0  0  0  0  0  0  0  0  0  0  0
   35.8190   29.9100   40.2380 C   0  0  0  0  0  3  0  0  0  0  0  0
   37.1050   27.5120   42.8700 C   0  0  0  0  0  0  0  0  0  0  0  0
   36.0660   27.4090   43.6020 O   0  0  0  0  0  0  0  0  0  0  0  0
   39.0980   24.4650   42.1800 C   0  0  0  0  0  0  0  0  0  0  0  0
   38.0780   25.4230   42.1660 C   0  0  0  0  0  0  0  0  0  0  0  0
   38.1870   26.5790   42.9340 C   0  0  0  0  0  0  0  0  0  0  0  0
   39.3130   26.7180   43.6780 N   0  0  0  0  0  0  0  0  0  0  0  0
   40.2880   25.7740   43.6750 C   0  0  0  0  0  0  0  0  0  0  0  0
   40.1910   24.6480   42.9330 N   0  0  0  0  0  0  0  0  0  0  0  0
   38.9830   23.5760   41.5710 H   0  0  0  0  0  0  0  0  0  0  0  0
   37.2140   25.2150   41.5320 H   0  0  0  0  0  0  0  0  0  0  0  0
   41.1660   25.9430   44.2930 H   0  0  0  0  0  0  0  0  0  0  0  0
  1  2  1  0  0  0  0
  2  3  2  0  0  0  0
  2 13  1  0  0  0  0
  3  4  1  0  0  0  0
  5  3  1  0  0  0  0
  6  5  1  0  0  0  0
  6  7  1  0  0  0  0
  8  6  1  0  0  0  0
  9  8  1  0  0  0  0
 10  8  2  0  0  0  0
 10 11  1  0  0  0  0
 11  5  2  0  0  0  0
 12 11  1  0  0  0  0
 12  1  2  0  0  0  0
 13 17  1  0  0  0  0
 13 14  2  0  0  0  0
 15 20  1  0  0  0  0
 16 15  2  0  0  0  0
 16 17  1  0  0  0  0
 17 18  2  0  0  0  0
 19 18  1  0  0  0  0
 19 23  1  0  0  0  0
 20 19  2  0  0  0  0
 21 15  1  0  0  0  0
 22 16  1  0  0  0  0
M  END
>  <minimizedAffinity>
-5.23122597

$$$$

 OpenBabel03252501123D

 23 25  0  0  0  0  0  0  0  0999 V2000
   36.5100   27.9410   42.1620 C   0  0  0  0  0  3  0  0  0  0  0  0
   36.2290   28.0480   40.8110 C   0  0  0  0  0  0  0  0  0  0  0  0
   36.4840   26.9550   40.0020 C   0  0  0  0  0  0  0  0  0  0  0  0
   36.2810   26.9940   38.9420 H   0  0  0  0  0  0  0  0  0  0  0  0
   37.0050   25.8350   40.6140 C   0  0  0  0  0  0  0  0  0  0  0  0
   37.3350   24.6510   40.0350 N   0  0  0  0  0  0  0  0  0  0  0  0
   37.2520   24.3830   39.0320 H   0  0  0  0  0  0  0  0  0  0  0  0
   37.8170   23.7980   40.9800 C   0  0  0  0  0  0  0  0  0  0  0  0
   38.1760   22.7790   40.9070 H   0  0  0  0  0  0  0  0  0  0  0  0
   37.7940   24.4620   42.2120 C   0  0  0  0  0  3  0  0  0  0  0  0
   37.2880   25.7190   41.9540 C   0  0  0  0  0  0  0  0  0  0  0  0
   37.0340   26.8150   42.7790 C   0  0  0  0  0  3  0  0  0  0  0  0
   35.6740   29.2760   40.2450 C   0  0  0  0  0  0  0  0  0  0  0  0
   34.4110   29.1830   40.0980 O   0  0  0  0  0  0  0  0  0  0  0  0
   37.4830   31.7190   38.1240 C   0  0  0  0  0  0  0  0  0  0  0  0
   36.7640   30.5950   38.5480 C   0  0  0  0  0  0  0  0  0  0  0  0
   36.4070   30.4510   39.8850 C   0  0  0  0  0  0  0  0  0  0  0  0
   36.7880   31.4400   40.7330 N   0  0  0  0  0  0  0  0  0  0  0  0
   37.4850   32.5190   40.2970 C   0  0  0  0  0  0  0  0  0  0  0  0
   37.8370   32.6690   39.0000 N   0  0  0  0  0  0  0  0  0  0  0  0
   37.7450   31.8010   37.0760 H   0  0  0  0  0  0  0  0  0  0  0  0
   36.5060   29.8570   37.7850 H   0  0  0  0  0  0  0  0  0  0  0  0
   37.7620   33.2790   41.0250 H   0  0  0  0  0  0  0  0  0  0  0  0
  1 12  1  0  0  0  0
  2  1  2  0  0  0  0
  3  5  2  0  0  0  0
  3  2  1  0  0  0  0
  4  3  1  0  0  0  0
  5 11  1  0  0  0  0
  6  5  1  0  0  0  0
  6  8  1  0  0  0  0
  7  6  1  0  0  0  0
  8 10  2  0  0  0  0
  9  8  1  0  0  0  0
 11 10  1  0  0  0  0
 11 12  2  0  0  0  0
 13  2  1  0  0  0  0
 14 13  2  0  0  0  0
 15 16  2  0  0  0  0
 15 20  1  0  0  0  0
 16 17  1  0  0  0  0
 17 13  1  0  0  0  0
 17 18  2  0  0  0  0
 19 18  1  0  0  0  0
 19 23  1  0  0  0  0
 20 19  2  0  0  0  0
 21 15  1  0  0  0  0
 22 16  1  0  0  0  0
M  END
>  <minimizedAffinity>
-5.22225952

$$$$

 OpenBabel03252501123D

 23 25  0  0  0  0  0  0  0  0999 V2000
   37.2510   28.3040   40.0410 C   0  0  0  0  0  3  0  0  0  0  0  0
   37.1400   28.6600   41.3740 C   0  0  0  0  0  0  0  0  0  0  0  0
   37.0590   30.0060   41.6860 C   0  0  0  0  0  0  0  0  0  0  0  0
   36.9720   30.3300   42.7130 H   0  0  0  0  0  0  0  0  0  0  0  0
   37.0970   30.8930   40.6320 C   0  0  0  0  0  0  0  0  0  0  0  0
   37.0350   32.2500   40.6870 N   0  0  0  0  0  0  0  0  0  0  0  0
   36.9470   32.8540   41.5310 H   0  0  0  0  0  0  0  0  0  0  0  0
   37.1040   32.7620   39.4270 C   0  0  0  0  0  0  0  0  0  0  0  0
   37.0850   33.7840   39.0700 H   0  0  0  0  0  0  0  0  0  0  0  0
   37.2140   31.6920   38.5320 C   0  0  0  0  0  3  0  0  0  0  0  0
   37.2080   30.5500   39.3050 C   0  0  0  0  0  0  0  0  0  0  0  0
   37.2900   29.1960   38.9800 C   0  0  0  0  0  3  0  0  0  0  0  0
   37.1030   27.6510   42.4300 C   0  0  0  0  0  0  0  0  0  0  0  0
   36.0750   27.7970   43.1680 O   0  0  0  0  0  0  0  0  0  0  0  0
   40.1650   25.9770   43.6800 C   0  0  0  0  0  0  0  0  0  0  0  0
   39.1790   26.9380   43.4250 C   0  0  0  0  0  0  0  0  0  0  0  0
   38.0690   26.6170   42.6490 C   0  0  0  0  0  0  0  0  0  0  0  0
   38.0000   25.3510   42.1670 N   0  0  0  0  0  0  0  0  0  0  0  0
   38.9690   24.4380   42.4280 C   0  0  0  0  0  0  0  0  0  0  0  0
   40.0520   24.7390   43.1800 N   0  0  0  0  0  0  0  0  0  0  0  0
   41.0170   26.2580   44.2870 H   0  0  0  0  0  0  0  0  0  0  0  0
   39.3300   27.9280   43.8600 H   0  0  0  0  0  0  0  0  0  0  0  0
   38.8570   23.4390   42.0140 H   0  0  0  0  0  0  0  0  0  0  0  0
  1  2  1  0  0  0  0
  2  3  2  0  0  0  0
  2 13  1  0  0  0  0
  3  4  1  0  0  0  0
  5  6  1  0  0  0  0
  5  3  1  0  0  0  0
  6  7  1  0  0  0  0
  8  6  1  0  0  0  0
  9  8  1  0  0  0  0
 10 11  1  0  0  0  0
 10  8  2  0  0  0  0
 11  5  2  0  0  0  0
 12 11  1  0  0  0  0
 12  1  2  0  0  0  0
 13 17  1  0  0  0  0
 13 14  2  0  0  0  0
 15 21  1  0  0  0  0
 16 15  1  0  0  0  0
 16 22  1  0  0  0  0
 17 16  2  0  0  0  0
 18 19  2  0  0  0  0
 18 17  1  0  0  0  0
 19 20  1  0  0  0  0
 20 15  2  0  0  0  0
 23 19  1  0  0  0  0
M  END
>  <minimizedAffinity>
-5.13010025

$$$$

 OpenBabel03252501123D

 23 25  0  0  0  0  0  0  0  0999 V2000
   36.6440   27.9310   42.4880 C   0  0  0  0  0  3  0  0  0  0  0  0
   36.6010   28.2750   41.1480 C   0  0  0  0  0  0  0  0  0  0  0  0
   36.8140   27.2780   40.2110 C   0  0  0  0  0  0  0  0  0  0  0  0
   36.7900   27.5010   39.1540 H   0  0  0  0  0  0  0  0  0  0  0  0
   37.0550   26.0100   40.6940 C   0  0  0  0  0  0  0  0  0  0  0  0
   37.2900   24.8800   39.9770 N   0  0  0  0  0  0  0  0  0  0  0  0
   37.3290   24.7750   38.9420 H   0  0  0  0  0  0  0  0  0  0  0  0
   37.4810   23.8310   40.8250 C   0  0  0  0  0  0  0  0  0  0  0  0
   37.6890   22.7870   40.6330 H   0  0  0  0  0  0  0  0  0  0  0  0
   37.3630   24.3100   42.1350 C   0  0  0  0  0  3  0  0  0  0  0  0
   37.1000   25.6590   42.0230 C   0  0  0  0  0  0  0  0  0  0  0  0
   36.8870   26.6550   42.9750 C   0  0  0  0  0  3  0  0  0  0  0  0
   36.3360   29.6470   40.7230 C   0  0  0  0  0  0  0  0  0  0  0  0
   35.1400   29.7720   40.2980 O   0  0  0  0  0  0  0  0  0  0  0  0
   37.7540   33.0080   40.0660 C   0  0  0  0  0  0  0  0  0  0  0  0
   36.8990   31.8990   40.0770 C   0  0  0  0  0  0  0  0  0  0  0  0
   37.2590   30.7400   40.7580 C   0  0  0  0  0  0  0  0  0  0  0  0
   38.4570   30.7470   41.3940 N   0  0  0  0  0  0  0  0  0  0  0  0
   39.2680   31.8350   41.3680 C   0  0  0  0  0  0  0  0  0  0  0  0
   38.9280   32.9660   40.7100 N   0  0  0  0  0  0  0  0  0  0  0  0
   37.4450   33.8960   39.5270 H   0  0  0  0  0  0  0  0  0  0  0  0
   35.9570   31.9970   39.5330 H   0  0  0  0  0  0  0  0  0  0  0  0
   40.2160   31.7790   41.8980 H   0  0  0  0  0  0  0  0  0  0  0  0
  1 12  1  0  0  0  0
  2  1  2  0  0  0  0
  3  5  2  0  0  0  0
  3  2  1  0  0  0  0
  4  3  1  0  0  0  0
  5 11  1  0  0  0  0
  6  5  1  0  0  0  0
  6  8  1  0  0  0  0
  7  6  1  0  0  0  0
  8 10  2  0  0  0  0
  9  8  1  0  0  0  0
 11 10  1  0  0  0  0
 11 12  2  0  0  0  0
 13 17  1  0  0  0  0
 13  2  1  0  0  0  0
 14 13  2  0  0  0  0
 15 16  2  0  0  0  0
 15 20  1  0  0  0  0
 16 17  1  0  0  0  0
 17 18  2  0  0  0  0
 19 18  1  0  0  0  0
 19 23  1  0  0  0  0
 20 19  2  0  0  0  0
 21 15  1  0  0  0  0
 22 16  1  0  0  0  0
M  END
>  <minimizedAffinity>
-5.12779856

$$$$

 OpenBabel03252501123D

 23 25  0  0  0  0  0  0  0  0999 V2000
   34.8340   29.1430   39.2030 C   0  0  0  0  0  3  0  0  0  0  0  0
   36.0620   29.7050   39.5060 C   0  0  0  0  0  0  0  0  0  0  0  0
   36.9180   30.0070   38.4610 C   0  0  0  0  0  0  0  0  0  0  0  0
   37.8870   30.4450   38.6510 H   0  0  0  0  0  0  0  0  0  0  0  0
   36.4740   29.7180   37.1890 C   0  0  0  0  0  0  0  0  0  0  0  0
   37.1290   29.9210   36.0160 N   0  0  0  0  0  0  0  0  0  0  0  0
   38.0770   30.3290   35.8730 H   0  0  0  0  0  0  0  0  0  0  0  0
   36.3510   29.5030   34.9790 C   0  0  0  0  0  0  0  0  0  0  0  0
   36.5250   29.5030   33.9110 H   0  0  0  0  0  0  0  0  0  0  0  0
   35.1520   29.0140   35.5100 C   0  0  0  0  0  3  0  0  0  0  0  0
   35.2570   29.1600   36.8770 C   0  0  0  0  0  0  0  0  0  0  0  0
   34.3860   28.8520   37.9220 C   0  0  0  0  0  3  0  0  0  0  0  0
   36.4510   29.9810   40.8870 C   0  0  0  0  0  0  0  0  0  0  0  0
   36.0540   31.1350   41.2540 O   0  0  0  0  0  0  0  0  0  0  0  0
   37.2060   27.0300   42.9980 C   0  0  0  0  0  0  0  0  0  0  0  0
   36.5520   27.9310   42.1500 C   0  0  0  0  0  0  0  0  0  0  0  0
   37.1820   29.1070   41.7530 C   0  0  0  0  0  0  0  0  0  0  0  0
   38.4360   29.3220   42.2240 N   0  0  0  0  0  0  0  0  0  0  0  0
   39.0480   28.4320   43.0460 C   0  0  0  0  0  0  0  0  0  0  0  0
   38.4450   27.2870   43.4380 N   0  0  0  0  0  0  0  0  0  0  0  0
   36.6880   26.1230   43.2890 H   0  0  0  0  0  0  0  0  0  0  0  0
   35.5440   27.6640   41.8270 H   0  0  0  0  0  0  0  0  0  0  0  0
   40.0540   28.6610   43.3900 H   0  0  0  0  0  0  0  0  0  0  0  0
  1  2  1  0  0  0  0
  2 13  1  0  0  0  0
  3  4  1  0  0  0  0
  3  2  2  0  0  0  0
  5  3  1  0  0  0  0
  6  5  1  0  0  0  0
  7  6  1  0  0  0  0
  8 10  2  0  0  0  0
  8  6  1  0  0  0  0
  9  8  1  0  0  0  0
 10 11  1  0  0  0  0
 11  5  2  0  0  0  0
 11 12  1  0  0  0  0
 12  1  2  0  0  0  0
 13 14  2  0  0  0  0
 13 17  1  0  0  0  0
 15 21  1  0  0  0  0
 15 20  1  0  0  0  0
 16 15  2  0  0  0  0
 17 16  1  0  0  0  0
 17 18  2  0  0  0  0
 18 19  1  0  0  0  0
 19 23  1  0  0  0  0
 19 20  2  0  0  0  0
 22 16  1  0  0  0  0
M  END
>  <minimizedAffinity>
-4.99987173

$$$$

 OpenBabel03252501123D

 23 25  0  0  0  0  0  0  0  0999 V2000
   37.1780   28.4710   42.9400 C   0  0  0  0  0  3  0  0  0  0  0  0
   38.2220   28.7870   42.0880 C   0  0  0  0  0  0  0  0  0  0  0  0
   38.7910   27.7680   41.3450 C   0  0  0  0  0  0  0  0  0  0  0  0
   39.6090   27.9680   40.6690 H   0  0  0  0  0  0  0  0  0  0  0  0
   38.2670   26.5040   41.5170 C   0  0  0  0  0  0  0  0  0  0  0  0
   38.6550   25.3550   40.9050 N   0  0  0  0  0  0  0  0  0  0  0  0
   39.4130   25.2270   40.2030 H   0  0  0  0  0  0  0  0  0  0  0  0
   37.8870   24.3200   41.3460 C   0  0  0  0  0  0  0  0  0  0  0  0
   37.8940   23.2680   41.0930 H   0  0  0  0  0  0  0  0  0  0  0  0
   36.9720   24.8280   42.2750 C   0  0  0  0  0  3  0  0  0  0  0  0
   37.2310   26.1800   42.3600 C   0  0  0  0  0  0  0  0  0  0  0  0
   36.6500   27.2000   43.1130 C   0  0  0  0  0  3  0  0  0  0  0  0
   38.7140   30.1580   41.9650 C   0  0  0  0  0  0  0  0  0  0  0  0
   39.6330   30.3930   42.8170 O   0  0  0  0  0  0  0  0  0  0  0  0
   36.8780   31.6330   39.1040 C   0  0  0  0  0  0  0  0  0  0  0  0
   37.3650   30.7240   40.0510 C   0  0  0  0  0  0  0  0  0  0  0  0
   38.2590   31.1420   41.0320 C   0  0  0  0  0  0  0  0  0  0  0  0
   38.6220   32.4500   41.0170 N   0  0  0  0  0  0  0  0  0  0  0  0
   38.1360   33.3110   40.0870 C   0  0  0  0  0  0  0  0  0  0  0  0
   37.2670   32.9150   39.1300 N   0  0  0  0  0  0  0  0  0  0  0  0
   36.1830   31.2760   38.3530 H   0  0  0  0  0  0  0  0  0  0  0  0
   37.0100   29.6950   39.9760 H   0  0  0  0  0  0  0  0  0  0  0  0
   38.4640   34.3460   40.1270 H   0  0  0  0  0  0  0  0  0  0  0  0
  1 12  1  0  0  0  0
  2  1  2  0  0  0  0
  3  5  2  0  0  0  0
  3  2  1  0  0  0  0
  4  3  1  0  0  0  0
  5 11  1  0  0  0  0
  6  8  1  0  0  0  0
  6  5  1  0  0  0  0
  7  6  1  0  0  0  0
  8 10  2  0  0  0  0
  9  8  1  0  0  0  0
 10 11  1  0  0  0  0
 11 12  2  0  0  0  0
 13  2  1  0  0  0  0
 13 14  2  0  0  0  0
 15 20  2  0  0  0  0
 15 16  1  0  0  0  0
 16 17  2  0  0  0  0
 17 13  1  0  0  0  0
 18 17  1  0  0  0  0
 19 23  1  0  0  0  0
 19 18  2  0  0  0  0
 20 19  1  0  0  0  0
 21 15  1  0  0  0  0
 22 16  1  0  0  0  0
M  END
>  <minimizedAffinity>
-4.98307896

$$$$

 OpenBabel03252501123D

 23 25  0  0  0  0  0  0  0  0999 V2000
   39.2680   29.9610   41.6520 C   0  0  0  0  0  3  0  0  0  0  0  0
   37.9280   29.6450   41.7960 C   0  0  0  0  0  0  0  0  0  0  0  0
   36.9900   30.5490   41.3280 C   0  0  0  0  0  0  0  0  0  0  0  0
   35.9340   30.3460   41.4200 H   0  0  0  0  0  0  0  0  0  0  0  0
   37.4730   31.7040   40.7500 C   0  0  0  0  0  0  0  0  0  0  0  0
   36.7550   32.7300   40.2220 N   0  0  0  0  0  0  0  0  0  0  0  0
   35.7190   32.8230   40.1630 H   0  0  0  0  0  0  0  0  0  0  0  0
   37.6020   33.6860   39.7490 C   0  0  0  0  0  0  0  0  0  0  0  0
   37.4100   34.6350   39.2660 H   0  0  0  0  0  0  0  0  0  0  0  0
   38.9120   33.2530   39.9830 C   0  0  0  0  0  3  0  0  0  0  0  0
   38.8010   32.0260   40.6020 C   0  0  0  0  0  0  0  0  0  0  0  0
   39.7550   31.1220   41.0700 C   0  0  0  0  0  3  0  0  0  0  0  0
   37.5050   28.3940   42.4200 C   0  0  0  0  0  0  0  0  0  0  0  0
   37.2830   28.5550   43.6650 O   0  0  0  0  0  0  0  0  0  0  0  0
   36.8470   24.7720   41.9930 C   0  0  0  0  0  0  0  0  0  0  0  0
   37.0170   26.0390   42.5640 C   0  0  0  0  0  0  0  0  0  0  0  0
   37.3460   27.1310   41.7670 C   0  0  0  0  0  0  0  0  0  0  0  0
   37.4880   26.9020   40.4370 N   0  0  0  0  0  0  0  0  0  0  0  0
   37.3190   25.6640   39.9080 C   0  0  0  0  0  0  0  0  0  0  0  0
   37.0000   24.5960   40.6730 N   0  0  0  0  0  0  0  0  0  0  0  0
   36.5910   23.9420   42.6400 H   0  0  0  0  0  0  0  0  0  0  0  0
   36.8790   26.1160   43.6440 H   0  0  0  0  0  0  0  0  0  0  0  0
   37.4470   25.5440   38.8350 H   0  0  0  0  0  0  0  0  0  0  0  0
  1  2  1  0  0  0  0
  2 13  1  0  0  0  0
  3  4  1  0  0  0  0
  3  2  2  0  0  0  0
  5  3  1  0  0  0  0
  6  5  1  0  0  0  0
  7  6  1  0  0  0  0
  8 10  2  0  0  0  0
  8  6  1  0  0  0  0
  9  8  1  0  0  0  0
 10 11  1  0  0  0  0
 11  5  2  0  0  0  0
 11 12  1  0  0  0  0
 12  1  2  0  0  0  0
 13 14  2  0  0  0  0
 15 16  1  0  0  0  0
 15 21  1  0  0  0  0
 16 22  1  0  0  0  0
 17 13  1  0  0  0  0
 17 16  2  0  0  0  0
 18 17  1  0  0  0  0
 19 18  2  0  0  0  0
 19 20  1  0  0  0  0
 20 15  2  0  0  0  0
 23 19  1  0  0  0  0
M  END
>  <minimizedAffinity>
-4.92705202

$$$$

 OpenBabel03252501123D

 23 25  0  0  0  0  0  0  0  0999 V2000
   36.5340   29.7340   38.4240 C   0  0  0  0  0  3  0  0  0  0  0  0
   35.7480   29.5740   39.5510 C   0  0  0  0  0  0  0  0  0  0  0  0
   34.4420   29.1490   39.3820 C   0  0  0  0  0  0  0  0  0  0  0  0
   33.7910   29.0110   40.2330 H   0  0  0  0  0  0  0  0  0  0  0  0
   34.0250   28.9160   38.0880 C   0  0  0  0  0  0  0  0  0  0  0  0
   32.8010   28.4980   37.6740 N   0  0  0  0  0  0  0  0  0  0  0  0
   31.9660   28.2800   38.2580 H   0  0  0  0  0  0  0  0  0  0  0  0
   32.7900   28.3880   36.3160 C   0  0  0  0  0  0  0  0  0  0  0  0
   32.0090   28.0870   35.6300 H   0  0  0  0  0  0  0  0  0  0  0  0
   34.0570   28.7510   35.8450 C   0  0  0  0  0  3  0  0  0  0  0  0
   34.7980   29.0720   36.9620 C   0  0  0  0  0  0  0  0  0  0  0  0
   36.1160   29.5010   37.1220 C   0  0  0  0  0  3  0  0  0  0  0  0
   36.2730   29.8410   40.8890 C   0  0  0  0  0  0  0  0  0  0  0  0
   36.0580   31.0490   41.2330 O   0  0  0  0  0  0  0  0  0  0  0  0
   38.8160   28.4830   43.2170 C   0  0  0  0  0  0  0  0  0  0  0  0
   38.1040   29.3440   42.3730 C   0  0  0  0  0  0  0  0  0  0  0  0
   36.9460   28.9060   41.7370 C   0  0  0  0  0  0  0  0  0  0  0  0
   36.5580   27.6280   41.9770 N   0  0  0  0  0  0  0  0  0  0  0  0
   37.2660   26.8140   42.7990 C   0  0  0  0  0  0  0  0  0  0  0  0
   38.3920   27.2280   43.4220 N   0  0  0  0  0  0  0  0  0  0  0  0
   39.7140   28.8540   43.6980 H   0  0  0  0  0  0  0  0  0  0  0  0
   38.5010   30.3530   42.2480 H   0  0  0  0  0  0  0  0  0  0  0  0
   36.9040   25.8000   42.9520 H   0  0  0  0  0  0  0  0  0  0  0  0
  1  2  1  0  0  0  0
  2 13  1  0  0  0  0
  3  2  2  0  0  0  0
  3  4  1  0  0  0  0
  5  3  1  0  0  0  0
  6  5  1  0  0  0  0
  6  7  1  0  0  0  0
  8  6  1  0  0  0  0
  9  8  1  0  0  0  0
 10  8  2  0  0  0  0
 10 11  1  0  0  0  0
 11 12  1  0  0  0  0
 11  5  2  0  0  0  0
 12  1  2  0  0  0  0
 13 14  2  0  0  0  0
 13 17  1  0  0  0  0
 15 20  1  0  0  0  0
 15 21  1  0  0  0  0
 16 15  2  0  0  0  0
 17 18  2  0  0  0  0
 17 16  1  0  0  0  0
 18 19  1  0  0  0  0
 19 23  1  0  0  0  0
 19 20  2  0  0  0  0
 22 16  1  0  0  0  0
M  END
>  <minimizedAffinity>
-4.89434004

$$$$

 OpenBabel03252501123D

 23 25  0  0  0  0  0  0  0  0999 V2000
   37.6910   29.1630   39.4350 C   0  0  0  0  0  3  0  0  0  0  0  0
   37.7320   30.4180   40.0180 C   0  0  0  0  0  0  0  0  0  0  0  0
   37.5560   30.5070   41.3880 C   0  0  0  0  0  0  0  0  0  0  0  0
   37.5800   31.4650   41.8860 H   0  0  0  0  0  0  0  0  0  0  0  0
   37.3520   29.3250   42.0680 C   0  0  0  0  0  0  0  0  0  0  0  0
   37.1560   29.1590   43.4020 N   0  0  0  0  0  0  0  0  0  0  0  0
   37.1260   29.8920   44.1420 H   0  0  0  0  0  0  0  0  0  0  0  0
   36.9920   27.8360   43.6800 C   0  0  0  0  0  0  0  0  0  0  0  0
   36.8170   27.3190   44.6140 H   0  0  0  0  0  0  0  0  0  0  0  0
   37.0860   27.1290   42.4760 C   0  0  0  0  0  3  0  0  0  0  0  0
   37.3090   28.0750   41.4980 C   0  0  0  0  0  0  0  0  0  0  0  0
   37.4850   27.9740   40.1180 C   0  0  0  0  0  3  0  0  0  0  0  0
   37.9580   31.6210   39.2200 C   0  0  0  0  0  0  0  0  0  0  0  0
   36.8550   32.1290   38.8350 O   0  0  0  0  0  0  0  0  0  0  0  0
   41.1160   32.2070   37.3700 C   0  0  0  0  0  0  0  0  0  0  0  0
   39.8710   31.6970   37.7560 C   0  0  0  0  0  0  0  0  0  0  0  0
   39.2280   32.1910   38.8870 C   0  0  0  0  0  0  0  0  0  0  0  0
   39.8630   33.1720   39.5760 N   0  0  0  0  0  0  0  0  0  0  0  0
   41.0710   33.6490   39.1820 C   0  0  0  0  0  0  0  0  0  0  0  0
   41.7040   33.1760   38.0850 N   0  0  0  0  0  0  0  0  0  0  0  0
   41.5900   31.8010   36.4850 H   0  0  0  0  0  0  0  0  0  0  0  0
   39.4450   30.9090   37.1320 H   0  0  0  0  0  0  0  0  0  0  0  0
   41.5290   34.4360   39.7760 H   0  0  0  0  0  0  0  0  0  0  0  0
  1  2  2  0  0  0  0
  1 12  1  0  0  0  0
  2  3  1  0  0  0  0
  3  4  1  0  0  0  0
  3  5  2  0  0  0  0
  5  6  1  0  0  0  0
  6  8  1  0  0  0  0
  6  7  1  0  0  0  0
  8  9  1  0  0  0  0
 10  8  2  0  0  0  0
 11  5  1  0  0  0  0
 11 10  1  0  0  0  0
 12 11  2  0  0  0  0
 13  2  1  0  0  0  0
 14 13  2  0  0  0  0
 15 16  2  0  0  0  0
 15 20  1  0  0  0  0
 16 17  1  0  0  0  0
 17 13  1  0  0  0  0
 17 18  2  0  0  0  0
 19 18  1  0  0  0  0
 19 23  1  0  0  0  0
 20 19  2  0  0  0  0
 21 15  1  0  0  0  0
 22 16  1  0  0  0  0
M  END
>  <minimizedAffinity>
-4.81492424

$$$$
