
 OpenBabel03252501103D

 23 25  0  0  0  0  0  0  0  0999 V2000
   46.2610   33.7200   40.2890 C   0  0  0  0  0  0  0  0  0  0  0  0
   47.3710   34.4790   40.6150 C   0  0  0  0  0  0  0  0  0  0  0  0
   48.3530   34.6460   39.6540 C   0  0  0  0  0  0  0  0  0  0  0  0
   49.2370   35.2290   39.8640 H   0  0  0  0  0  0  0  0  0  0  0  0
   48.1420   34.0350   38.4360 C   0  0  0  0  0  0  0  0  0  0  0  0
   48.9550   34.0550   37.3470 N   0  0  0  0  0  0  0  0  0  0  0  0
   49.8740   34.5330   37.2420 H   0  0  0  0  0  0  0  0  0  0  0  0
   48.3900   33.3300   36.3420 C   0  0  0  0  0  0  0  0  0  0  0  0
   48.7300   33.1180   35.3360 H   0  0  0  0  0  0  0  0  0  0  0  0
   47.1690   32.8280   36.8060 C   0  0  0  0  0  0  0  0  0  0  0  0
   47.0430   33.2800   38.1030 C   0  0  0  0  0  0  0  0  0  0  0  0
   46.0480   33.1050   39.0640 C   0  0  0  0  0  0  0  0  0  0  0  0
   47.5120   35.0940   41.9330 C   0  0  0  0  0  0  0  0  0  0  0  0
   48.5600   35.8180   41.9910 O   0  0  0  0  0  0  0  0  0  0  0  0
   44.6780   35.7650   44.2250 C   0  0  0  0  0  0  0  0  0  0  0  0
   45.5860   35.8580   43.1640 C   0  0  0  0  0  0  0  0  0  0  0  0
   46.6220   34.9360   43.0420 C   0  0  0  0  0  0  0  0  0  0  0  0
   46.6990   33.9680   43.9900 N   0  0  0  0  0  0  0  0  0  0  0  0
   45.8060   33.9010   45.0100 C   0  0  0  0  0  0  0  0  0  0  0  0
   44.7960   34.7910   45.1370 N   0  0  0  0  0  0  0  0  0  0  0  0
   43.8820   36.4980   44.2920 H   0  0  0  0  0  0  0  0  0  0  0  0
   45.4360   36.6740   42.4550 H   0  0  0  0  0  0  0  0  0  0  0  0
   45.9200   33.1010   45.7380 H   0  0  0  0  0  0  0  0  0  0  0  0
  1  2  1  0  0  0  0
  2 13  1  0  0  0  0
  3  4  1  0  0  0  0
  3  2  2  0  0  0  0
  5  3  1  0  0  0  0
  6  5  1  0  0  0  0
  7  6  1  0  0  0  0
  8 10  2  0  0  0  0
  8  6  1  0  0  0  0
  9  8  1  0  0  0  0
 10 11  1  0  0  0  0
 11  5  2  0  0  0  0
 11 12  1  0  0  0  0
 12  1  2  0  0  0  0
 13 14  2  0  0  0  0
 13 17  1  0  0  0  0
 15 21  1  0  0  0  0
 15 20  1  0  0  0  0
 16 15  2  0  0  0  0
 17 16  1  0  0  0  0
 17 18  2  0  0  0  0
 18 19  1  0  0  0  0
 19 20  2  0  0  0  0
 19 23  1  0  0  0  0
 22 16  1  0  0  0  0
M  END
>  <minimizedAffinity>
-5.26347065

>  <minimizedRMSD>
1.09299314

$$$$
