
 OpenBabel03252509263D

 33 36  0  0  1  0  0  0  0  0999 V2000
   46.6730   35.0690   41.9740 C   0  0  1  0  0  0  0  0  0  0  0  0
   48.1860   35.4180   41.9690 C   0  0  0  0  0  0  0  0  0  0  0  0
   47.5220   34.1800   41.2930 C   0  0  2  0  0  0  0  0  0  0  0  0
   46.0700   35.8430   41.4710 H   0  0  0  0  0  0  0  0  0  0  0  0
   48.7800   35.2140   42.8650 H   0  0  0  0  0  0  0  0  0  0  0  0
   48.4860   36.2300   41.2880 H   0  0  0  0  0  0  0  0  0  0  0  0
   47.8020   33.2030   41.7910 H   0  0  0  0  0  0  0  0  0  0  0  0
   44.8060   35.0690   45.2290 C   0  0  0  0  0  0  0  0  0  0  0  0
   45.2130   35.4810   43.9320 C   0  0  0  0  0  0  0  0  0  0  0  0
   46.2100   34.7470   43.3770 C   0  0  0  0  0  0  0  0  0  0  0  0
   46.7920   33.6750   44.0250 N   0  0  0  0  0  0  0  0  0  0  0  0
   46.3740   33.3150   45.2640 C   0  0  0  0  0  0  0  0  0  0  0  0
   45.3740   34.0200   45.8650 N   0  0  0  0  0  0  0  0  0  0  0  0
   44.0090   35.6510   45.6770 H   0  0  0  0  0  0  0  0  0  0  0  0
   46.7770   32.5010   45.8200 H   0  0  0  0  0  0  0  0  0  0  0  0
   44.6430   36.5880   43.2840 N   0  0  0  0  0  0  0  0  0  0  0  0
   43.7130   36.6710   42.8160 H   0  0  0  0  0  0  0  0  0  0  0  0
   45.2860   37.4350   43.3010 H   0  0  0  0  0  0  0  0  0  0  0  0
   47.5290   34.0940   39.7860 C   0  0  0  0  0  0  0  0  0  0  0  0
   46.5270   33.7160   39.5010 H   0  0  0  0  0  0  0  0  0  0  0  0
   47.6600   35.0900   39.3180 H   0  0  0  0  0  0  0  0  0  0  0  0
   49.2480   32.2750   40.1760 C   0  0  0  0  0  3  0  0  0  0  0  0
   48.5290   33.1050   39.3520 C   0  0  0  0  0  0  0  0  0  0  0  0
   48.7550   33.0170   37.9830 C   0  0  0  0  0  0  0  0  0  0  0  0
   48.2370   33.6300   37.2600 H   0  0  0  0  0  0  0  0  0  0  0  0
   49.6670   32.1320   37.4410 C   0  0  0  0  0  0  0  0  0  0  0  0
   50.0670   31.8500   36.1890 N   0  0  0  0  0  0  0  0  0  0  0  0
   49.6880   32.3340   35.3280 H   0  0  0  0  0  0  0  0  0  0  0  0
   51.0020   30.8830   36.1940 C   0  0  0  0  0  0  0  0  0  0  0  0
   51.4600   30.5050   35.2860 H   0  0  0  0  0  0  0  0  0  0  0  0
   51.2340   30.5050   37.5000 C   0  0  0  0  0  3  0  0  0  0  0  0
   50.3870   31.2980   38.2650 C   0  0  0  0  0  0  0  0  0  0  0  0
   50.1600   31.3900   39.6260 C   0  0  0  0  0  3  0  0  0  0  0  0
  1  4  1  6  0  0  0
  1 10  1  0  0  0  0
  2  1  1  0  0  0  0
  2  5  1  0  0  0  0
  3  7  1  1  0  0  0
  3  2  1  0  0  0  0
  3  1  1  0  0  0  0
  6  2  1  0  0  0  0
  8 14  1  0  0  0  0
  8 13  1  0  0  0  0
  9  8  2  0  0  0  0
 10  9  1  0  0  0  0
 10 11  2  0  0  0  0
 11 12  1  0  0  0  0
 12 15  1  0  0  0  0
 12 13  2  0  0  0  0
 16 18  1  0  0  0  0
 16  9  1  0  0  0  0
 17 16  1  0  0  0  0
 19  3  1  0  0  0  0
 20 19  1  0  0  0  0
 21 19  1  0  0  0  0
 23 19  1  0  0  0  0
 23 22  2  0  0  0  0
 24 23  1  0  0  0  0
 25 24  1  0  0  0  0
 26 24  2  0  0  0  0
 26 32  1  0  0  0  0
 27 29  1  0  0  0  0
 27 26  1  0  0  0  0
 28 27  1  0  0  0  0
 29 31  2  0  0  0  0
 30 29  1  0  0  0  0
 31 32  1  0  0  0  0
 32 33  2  0  0  0  0
 33 22  1  0  0  0  0
M  END
>  <minimizedAffinity>
-5.40930271

>  <minimizedRMSD>
1.4766221

$$$$
