
 OpenBabel03242520503D

 25 27  0  0  0  0  0  0  0  0999 V2000
   44.6780   36.1120   43.8590 C   0  0  0  0  0  0  0  0  0  0  0  0
   45.6140   36.2290   42.8380 C   0  0  0  0  0  0  0  0  0  0  0  0
   46.6210   35.2800   42.7200 C   0  0  0  0  0  0  0  0  0  0  0  0
   46.6270   34.2740   43.6300 N   0  0  0  0  0  0  0  0  0  0  0  0
   45.7180   34.1740   44.6090 C   0  0  0  0  0  0  0  0  0  0  0  0
   44.7400   35.0980   44.7210 N   0  0  0  0  0  0  0  0  0  0  0  0
   43.9170   36.8940   43.8880 H   0  0  0  0  0  0  0  0  0  0  0  0
   45.6350   37.0040   42.1120 H   0  0  0  0  0  0  0  0  0  0  0  0
   46.1800   31.8130   45.1250 C   0  0  0  0  0  0  0  0  0  0  0  0
   45.7810   33.0640   45.5570 C   0  0  0  0  0  0  0  0  0  0  0  0
   45.4390   33.2860   46.8760 C   0  0  0  0  0  0  0  0  0  0  0  0
   45.1210   34.2440   47.2670 H   0  0  0  0  0  0  0  0  0  0  0  0
   45.4970   32.2370   47.7870 C   0  0  0  0  0  0  0  0  0  0  0  0
   45.2360   32.1170   49.1170 N   0  0  0  0  0  0  0  0  0  0  0  0
   44.9150   32.9370   49.6700 H   0  0  0  0  0  0  0  0  0  0  0  0
   45.4700   30.8270   49.4830 C   0  0  0  0  0  0  0  0  0  0  0  0
   45.3050   30.5790   50.5200 H   0  0  0  0  0  0  0  0  0  0  0  0
   45.8870   30.1110   48.3730 C   0  0  0  0  0  0  0  0  0  0  0  0
   45.9010   31.0100   47.3020 C   0  0  0  0  0  0  0  0  0  0  0  0
   46.2550   30.7280   45.9990 C   0  0  0  0  0  0  0  0  0  0  0  0
   47.6200   35.2520   41.7710 O   0  0  0  0  0  0  0  0  0  0  0  0
   47.4330   34.3450   40.6760 C   0  0  0  0  0  0  0  0  0  0  0  0
   46.0840   34.2910   40.3390 F   0  0  0  0  0  0  0  0  0  0  0  0
   48.1360   34.8480   39.5760 F   0  0  0  0  0  0  0  0  0  0  0  0
   47.9510   33.0850   40.9780 F   0  0  0  0  0  0  0  0  0  0  0  0
  1  7  1  0  0  0  0
  1  6  1  0  0  0  0
  2  1  2  0  0  0  0
  3  2  1  0  0  0  0
  3  4  2  0  0  0  0
  4  5  1  0  0  0  0
  5  6  2  0  0  0  0
  5 10  1  0  0  0  0
  8  2  1  0  0  0  0
  9 10  2  0  0  0  0
  9 20  1  0  0  0  0
 10 11  1  0  0  0  0
 11 12  1  0  0  0  0
 11 13  2  0  0  0  0
 13 14  1  0  0  0  0
 14 16  1  0  0  0  0
 14 15  1  0  0  0  0
 16 17  1  0  0  0  0
 18 16  2  0  0  0  0
 19 13  1  0  0  0  0
 19 18  1  0  0  0  0
 20 19  2  0  0  0  0
 21  3  1  0  0  0  0
 22 25  1  0  0  0  0
 22 21  1  0  0  0  0
 23 22  1  0  0  0  0
 24 22  1  0  0  0  0
M  END
>  <minimizedAffinity>
-5.71266508

>  <minimizedRMSD>
0.708755195

$$$$
