
 OpenBabel03242512353D

 23 25  0  0  0  0  0  0  0  0999 V2000
   39.4530   31.1500   41.8600 C   0  0  0  0  0  3  0  0  0  0  0  0
   38.3890   31.3780   40.9920 C   0  0  0  0  0  0  0  0  0  0  0  0
   37.3070   30.5270   41.0530 C   0  0  0  0  0  0  0  0  0  0  0  0
   36.4730   30.6870   40.3890 H   0  0  0  0  0  0  0  0  0  0  0  0
   37.1910   29.4530   41.9140 C   0  0  0  0  0  0  0  0  0  0  0  0
   36.2440   28.5230   42.1260 N   0  0  0  0  0  0  0  0  0  0  0  0
   35.3340   28.4930   41.5810 H   0  0  0  0  0  0  0  0  0  0  0  0
   36.6590   27.7010   43.1010 C   0  0  0  0  0  0  0  0  0  0  0  0
   36.0850   26.8590   43.4740 H   0  0  0  0  0  0  0  0  0  0  0  0
   37.9160   28.1320   43.5190 C   0  0  0  0  0  3  0  0  0  0  0  0
   38.2620   29.2440   42.7700 C   0  0  0  0  0  0  0  0  0  0  0  0
   39.3630   30.0720   42.7430 C   0  0  0  0  0  3  0  0  0  0  0  0
   38.3430   32.4780   40.0060 C   0  0  0  0  0  0  0  0  0  0  0  0
   37.2410   33.0850   39.9770 O   0  0  0  0  0  0  0  0  0  0  0  0
   39.4980   32.7550   39.1990 C   0  0  0  0  0  0  0  0  0  0  0  0
   39.7140   31.8970   38.1230 C   0  0  0  0  0  0  0  0  0  0  0  0
   40.8490   32.1720   37.3340 C   0  0  0  0  0  0  0  0  0  0  0  0
   41.6470   33.2340   37.6610 N   0  0  0  0  0  0  0  0  0  0  0  0
   41.3810   34.0200   38.7130 C   0  0  0  0  0  0  0  0  0  0  0  0
   40.3020   33.7780   39.4820 N   0  0  0  0  0  0  0  0  0  0  0  0
   39.1170   31.0530   37.8260 H   0  0  0  0  0  0  0  0  0  0  0  0
   41.0830   31.5490   36.4790 H   0  0  0  0  0  0  0  0  0  0  0  0
   41.9820   34.8680   39.0090 H   0  0  0  0  0  0  0  0  0  0  0  0
  1 12  1  0  0  0  0
  2  3  1  0  0  0  0
  2  1  2  0  0  0  0
  3  5  2  0  0  0  0
  4  3  1  0  0  0  0
  5  6  1  0  0  0  0
  5 11  1  0  0  0  0
  6  8  1  0  0  0  0
  7  6  1  0  0  0  0
  8  9  1  0  0  0  0
  8 10  2  0  0  0  0
 11 10  1  0  0  0  0
 12 11  2  0  0  0  0
 13  2  1  0  0  0  0
 14 13  2  0  0  0  0
 15 20  1  0  0  0  0
 15 13  1  0  0  0  0
 16 15  2  0  0  0  0
 17 18  2  0  0  0  0
 17 16  1  0  0  0  0
 18 19  1  0  0  0  0
 19 23  1  0  0  0  0
 19 20  2  0  0  0  0
 21 16  1  0  0  0  0
 22 17  1  0  0  0  0
M  END
>  <minimizedAffinity>
-5.19207907

$$$$

 OpenBabel03242512353D

 23 25  0  0  0  0  0  0  0  0999 V2000
   35.8550   28.8600   41.0540 C   0  0  0  0  0  3  0  0  0  0  0  0
   36.9320   28.7010   41.9220 C   0  0  0  0  0  0  0  0  0  0  0  0
   37.8940   29.6880   41.9510 C   0  0  0  0  0  0  0  0  0  0  0  0
   38.7360   29.5840   42.6160 H   0  0  0  0  0  0  0  0  0  0  0  0
   37.8770   30.8340   41.1800 C   0  0  0  0  0  0  0  0  0  0  0  0
   38.6980   31.8920   41.0590 N   0  0  0  0  0  0  0  0  0  0  0  0
   39.5900   31.9960   41.6240 H   0  0  0  0  0  0  0  0  0  0  0  0
   38.1890   32.7290   40.1430 C   0  0  0  0  0  0  0  0  0  0  0  0
   38.6500   33.6660   39.8510 H   0  0  0  0  0  0  0  0  0  0  0  0
   37.0010   32.1760   39.6700 C   0  0  0  0  0  3  0  0  0  0  0  0
   36.7950   30.9710   40.3220 C   0  0  0  0  0  0  0  0  0  0  0  0
   35.8120   30.0090   40.2620 C   0  0  0  0  0  3  0  0  0  0  0  0
   37.1120   27.5400   42.8190 C   0  0  0  0  0  0  0  0  0  0  0  0
   36.1970   27.4150   43.6720 O   0  0  0  0  0  0  0  0  0  0  0  0
   38.2580   26.6900   42.6560 C   0  0  0  0  0  0  0  0  0  0  0  0
   39.2020   26.7300   43.6800 C   0  0  0  0  0  0  0  0  0  0  0  0
   40.3250   25.8950   43.5150 C   0  0  0  0  0  0  0  0  0  0  0  0
   40.4190   25.1180   42.3930 N   0  0  0  0  0  0  0  0  0  0  0  0
   39.4730   25.1290   41.4440 C   0  0  0  0  0  0  0  0  0  0  0  0
   38.3900   25.9180   41.5790 N   0  0  0  0  0  0  0  0  0  0  0  0
   39.1720   27.3210   44.5770 H   0  0  0  0  0  0  0  0  0  0  0  0
   41.1020   25.8700   44.2690 H   0  0  0  0  0  0  0  0  0  0  0  0
   39.5050   24.5330   40.5420 H   0  0  0  0  0  0  0  0  0  0  0  0
  1  2  1  0  0  0  0
  2  3  2  0  0  0  0
  2 13  1  0  0  0  0
  3  4  1  0  0  0  0
  5  3  1  0  0  0  0
  6  5  1  0  0  0  0
  6  7  1  0  0  0  0
  8  6  1  0  0  0  0
  9  8  1  0  0  0  0
 10  8  2  0  0  0  0
 10 11  1  0  0  0  0
 11  5  2  0  0  0  0
 12 11  1  0  0  0  0
 12  1  2  0  0  0  0
 13 14  2  0  0  0  0
 15 13  1  0  0  0  0
 15 16  1  0  0  0  0
 16 21  1  0  0  0  0
 17 16  2  0  0  0  0
 17 22  1  0  0  0  0
 18 17  1  0  0  0  0
 19 20  1  0  0  0  0
 19 18  2  0  0  0  0
 20 15  2  0  0  0  0
 23 19  1  0  0  0  0
M  END
>  <minimizedAffinity>
-5.13866138

$$$$

 OpenBabel03242512353D

 23 25  0  0  0  0  0  0  0  0999 V2000
   36.4510   28.0910   42.2080 C   0  0  0  0  0  3  0  0  0  0  0  0
   36.1630   28.1430   40.8470 C   0  0  0  0  0  0  0  0  0  0  0  0
   36.4700   27.0420   40.0760 C   0  0  0  0  0  0  0  0  0  0  0  0
   36.2550   27.0620   39.0200 H   0  0  0  0  0  0  0  0  0  0  0  0
   37.0500   25.8810   40.5480 C   0  0  0  0  0  0  0  0  0  0  0  0
   37.4230   24.7230   39.9760 N   0  0  0  0  0  0  0  0  0  0  0  0
   37.3010   24.5270   38.9400 H   0  0  0  0  0  0  0  0  0  0  0  0
   37.9430   23.9250   40.9200 C   0  0  0  0  0  0  0  0  0  0  0  0
   38.3230   22.9260   40.7320 H   0  0  0  0  0  0  0  0  0  0  0  0
   37.8950   24.6080   42.1330 C   0  0  0  0  0  3  0  0  0  0  0  0
   37.3290   25.8510   41.9060 C   0  0  0  0  0  0  0  0  0  0  0  0
   37.0370   26.9290   42.7140 C   0  0  0  0  0  3  0  0  0  0  0  0
   35.5440   29.3030   40.1730 C   0  0  0  0  0  0  0  0  0  0  0  0
   34.3100   29.1700   39.9690 O   0  0  0  0  0  0  0  0  0  0  0  0
   36.3560   30.4330   39.8200 C   0  0  0  0  0  0  0  0  0  0  0  0
   36.7230   30.5300   38.4790 C   0  0  0  0  0  0  0  0  0  0  0  0
   37.5210   31.6400   38.1380 C   0  0  0  0  0  0  0  0  0  0  0  0
   37.8770   32.5310   39.1140 N   0  0  0  0  0  0  0  0  0  0  0  0
   37.4900   32.3760   40.3860 C   0  0  0  0  0  0  0  0  0  0  0  0
   36.7270   31.3240   40.7380 N   0  0  0  0  0  0  0  0  0  0  0  0
   36.4690   29.8590   37.6790 H   0  0  0  0  0  0  0  0  0  0  0  0
   37.8460   31.7840   37.1150 H   0  0  0  0  0  0  0  0  0  0  0  0
   37.7470   33.0530   41.1900 H   0  0  0  0  0  0  0  0  0  0  0  0
  1 12  1  0  0  0  0
  2  1  2  0  0  0  0
  3  5  2  0  0  0  0
  3  2  1  0  0  0  0
  4  3  1  0  0  0  0
  5 11  1  0  0  0  0
  6  5  1  0  0  0  0
  6  8  1  0  0  0  0
  7  6  1  0  0  0  0
  8 10  2  0  0  0  0
  9  8  1  0  0  0  0
 11 10  1  0  0  0  0
 11 12  2  0  0  0  0
 13  2  1  0  0  0  0
 14 13  2  0  0  0  0
 15 13  1  0  0  0  0
 15 20  1  0  0  0  0
 16 15  2  0  0  0  0
 17 16  1  0  0  0  0
 17 18  2  0  0  0  0
 18 19  1  0  0  0  0
 19 20  2  0  0  0  0
 19 23  1  0  0  0  0
 21 16  1  0  0  0  0
 22 17  1  0  0  0  0
M  END
>  <minimizedAffinity>
-5.1384449

$$$$

 OpenBabel03242512353D

 23 25  0  0  0  0  0  0  0  0999 V2000
   39.0080   28.7940   40.7450 C   0  0  0  0  0  3  0  0  0  0  0  0
   38.0370   28.9940   41.7220 C   0  0  0  0  0  0  0  0  0  0  0  0
   37.2730   30.1400   41.6530 C   0  0  0  0  0  0  0  0  0  0  0  0
   36.5150   30.3130   42.4000 H   0  0  0  0  0  0  0  0  0  0  0  0
   37.3960   31.1170   40.6850 C   0  0  0  0  0  0  0  0  0  0  0  0
   36.7670   32.2810   40.4460 N   0  0  0  0  0  0  0  0  0  0  0  0
   35.9830   32.6480   41.0600 H   0  0  0  0  0  0  0  0  0  0  0  0
   37.2990   32.8400   39.3490 C   0  0  0  0  0  0  0  0  0  0  0  0
   36.9750   33.7870   38.9310 H   0  0  0  0  0  0  0  0  0  0  0  0
   38.3010   31.9950   38.8800 C   0  0  0  0  0  3  0  0  0  0  0  0
   38.3710   30.8980   39.7220 C   0  0  0  0  0  0  0  0  0  0  0  0
   39.1550   29.7660   39.7530 C   0  0  0  0  0  3  0  0  0  0  0  0
   37.7670   28.0550   42.8300 C   0  0  0  0  0  0  0  0  0  0  0  0
   36.9510   28.4970   43.6800 O   0  0  0  0  0  0  0  0  0  0  0  0
   38.4230   26.7780   42.8520 C   0  0  0  0  0  0  0  0  0  0  0  0
   39.5680   26.6900   43.6410 C   0  0  0  0  0  0  0  0  0  0  0  0
   40.2080   25.4340   43.6590 C   0  0  0  0  0  0  0  0  0  0  0  0
   39.6840   24.4080   42.9210 N   0  0  0  0  0  0  0  0  0  0  0  0
   38.5790   24.5620   42.1820 C   0  0  0  0  0  0  0  0  0  0  0  0
   37.9480   25.7520   42.1480 N   0  0  0  0  0  0  0  0  0  0  0  0
   40.0160   27.4640   44.2370 H   0  0  0  0  0  0  0  0  0  0  0  0
   41.1040   25.2870   44.2500 H   0  0  0  0  0  0  0  0  0  0  0  0
   38.1300   23.7810   41.5840 H   0  0  0  0  0  0  0  0  0  0  0  0
  1  2  1  0  0  0  0
  2 13  1  0  0  0  0
  3  2  2  0  0  0  0
  3  4  1  0  0  0  0
  5  3  1  0  0  0  0
  6  5  1  0  0  0  0
  6  7  1  0  0  0  0
  8  6  1  0  0  0  0
  9  8  1  0  0  0  0
 10  8  2  0  0  0  0
 10 11  1  0  0  0  0
 11 12  1  0  0  0  0
 11  5  2  0  0  0  0
 12  1  2  0  0  0  0
 13 15  1  0  0  0  0
 13 14  2  0  0  0  0
 15 16  1  0  0  0  0
 16 17  2  0  0  0  0
 16 21  1  0  0  0  0
 17 22  1  0  0  0  0
 18 17  1  0  0  0  0
 19 18  2  0  0  0  0
 20 19  1  0  0  0  0
 20 15  2  0  0  0  0
 23 19  1  0  0  0  0
M  END
>  <minimizedAffinity>
-4.9545269

$$$$

 OpenBabel03242512353D

 23 25  0  0  0  0  0  0  0  0999 V2000
   35.8940   29.0950   40.8520 C   0  0  0  0  0  3  0  0  0  0  0  0
   36.9320   28.6670   41.6760 C   0  0  0  0  0  0  0  0  0  0  0  0
   37.9800   29.5330   41.9040 C   0  0  0  0  0  0  0  0  0  0  0  0
   38.7930   29.2210   42.5390 H   0  0  0  0  0  0  0  0  0  0  0  0
   38.0860   30.8040   41.3740 C   0  0  0  0  0  0  0  0  0  0  0  0
   39.0030   31.7830   41.4690 N   0  0  0  0  0  0  0  0  0  0  0  0
   39.8880   31.6880   42.0470 H   0  0  0  0  0  0  0  0  0  0  0  0
   38.5950   32.8280   40.7350 C   0  0  0  0  0  0  0  0  0  0  0  0
   39.1480   33.7560   40.6350 H   0  0  0  0  0  0  0  0  0  0  0  0
   37.3730   32.4940   40.1560 C   0  0  0  0  0  3  0  0  0  0  0  0
   37.0420   31.2100   40.5560 C   0  0  0  0  0  0  0  0  0  0  0  0
   35.9750   30.3760   40.3030 C   0  0  0  0  0  3  0  0  0  0  0  0
   36.9830   27.3400   42.3260 C   0  0  0  0  0  0  0  0  0  0  0  0
   36.7090   27.3690   43.5540 O   0  0  0  0  0  0  0  0  0  0  0  0
   37.3250   26.1830   41.5480 C   0  0  0  0  0  0  0  0  0  0  0  0
   37.0130   24.9490   42.1150 C   0  0  0  0  0  0  0  0  0  0  0  0
   37.3510   23.8170   41.3470 C   0  0  0  0  0  0  0  0  0  0  0  0
   37.9470   23.9900   40.1280 N   0  0  0  0  0  0  0  0  0  0  0  0
   38.2200   25.2080   39.6430 C   0  0  0  0  0  0  0  0  0  0  0  0
   37.9070   26.3070   40.3570 N   0  0  0  0  0  0  0  0  0  0  0  0
   36.5460   24.7630   43.0650 H   0  0  0  0  0  0  0  0  0  0  0  0
   37.1390   22.8220   41.7210 H   0  0  0  0  0  0  0  0  0  0  0  0
   38.6900   25.3940   38.6860 H   0  0  0  0  0  0  0  0  0  0  0  0
  1  2  1  0  0  0  0
  2  3  2  0  0  0  0
  2 13  1  0  0  0  0
  3  4  1  0  0  0  0
  5  6  1  0  0  0  0
  5  3  1  0  0  0  0
  6  7  1  0  0  0  0
  8  6  1  0  0  0  0
  9  8  1  0  0  0  0
 10 11  1  0  0  0  0
 10  8  2  0  0  0  0
 11  5  2  0  0  0  0
 12 11  1  0  0  0  0
 12  1  2  0  0  0  0
 13 14  2  0  0  0  0
 15 16  1  0  0  0  0
 15 13  1  0  0  0  0
 16 21  1  0  0  0  0
 17 22  1  0  0  0  0
 17 16  2  0  0  0  0
 18 17  1  0  0  0  0
 19 18  2  0  0  0  0
 19 20  1  0  0  0  0
 20 15  2  0  0  0  0
 23 19  1  0  0  0  0
M  END
>  <minimizedAffinity>
-4.94228554

$$$$

 OpenBabel03242512353D

 23 25  0  0  0  0  0  0  0  0999 V2000
   34.7010   29.0790   39.3290 C   0  0  0  0  0  3  0  0  0  0  0  0
   35.9360   29.6670   39.5890 C   0  0  0  0  0  0  0  0  0  0  0  0
   36.7610   29.9460   38.5200 C   0  0  0  0  0  0  0  0  0  0  0  0
   37.7210   30.4010   38.7000 H   0  0  0  0  0  0  0  0  0  0  0  0
   36.4590   29.6850   37.1980 C   0  0  0  0  0  0  0  0  0  0  0  0
   37.1090   29.8720   36.0360 N   0  0  0  0  0  0  0  0  0  0  0  0
   38.0750   30.3090   35.9800 H   0  0  0  0  0  0  0  0  0  0  0  0
   36.3370   29.4260   35.0340 C   0  0  0  0  0  0  0  0  0  0  0  0
   36.6190   29.4580   33.9870 H   0  0  0  0  0  0  0  0  0  0  0  0
   35.1560   28.9380   35.5880 C   0  0  0  0  0  3  0  0  0  0  0  0
   35.2240   29.0980   36.9620 C   0  0  0  0  0  0  0  0  0  0  0  0
   34.3690   28.8040   38.0010 C   0  0  0  0  0  3  0  0  0  0  0  0
   36.4220   30.0160   40.9410 C   0  0  0  0  0  0  0  0  0  0  0  0
   36.1060   31.1770   41.3070 O   0  0  0  0  0  0  0  0  0  0  0  0
   37.1790   29.0530   41.6910 C   0  0  0  0  0  0  0  0  0  0  0  0
   36.4860   27.9190   42.1080 C   0  0  0  0  0  0  0  0  0  0  0  0
   37.2330   26.9780   42.8440 C   0  0  0  0  0  0  0  0  0  0  0  0
   38.5540   27.2260   43.0980 N   0  0  0  0  0  0  0  0  0  0  0  0
   39.1590   28.3400   42.6670 C   0  0  0  0  0  0  0  0  0  0  0  0
   38.4670   29.2550   41.9610 N   0  0  0  0  0  0  0  0  0  0  0  0
   35.4520   27.6800   41.9330 H   0  0  0  0  0  0  0  0  0  0  0  0
   36.7630   26.0690   43.2030 H   0  0  0  0  0  0  0  0  0  0  0  0
   40.1990   28.5780   42.8440 H   0  0  0  0  0  0  0  0  0  0  0  0
  1  2  1  0  0  0  0
  2 13  1  0  0  0  0
  3  4  1  0  0  0  0
  3  2  2  0  0  0  0
  5  3  1  0  0  0  0
  6  5  1  0  0  0  0
  7  6  1  0  0  0  0
  8 10  2  0  0  0  0
  8  6  1  0  0  0  0
  9  8  1  0  0  0  0
 10 11  1  0  0  0  0
 11  5  2  0  0  0  0
 11 12  1  0  0  0  0
 12  1  2  0  0  0  0
 13 14  2  0  0  0  0
 13 15  1  0  0  0  0
 15 20  2  0  0  0  0
 15 16  1  0  0  0  0
 16 17  2  0  0  0  0
 17 18  1  0  0  0  0
 17 22  1  0  0  0  0
 19 23  1  0  0  0  0
 19 18  2  0  0  0  0
 20 19  1  0  0  0  0
 21 16  1  0  0  0  0
M  END
>  <minimizedAffinity>
-4.92656088

$$$$

 OpenBabel03242512353D

 23 25  0  0  0  0  0  0  0  0999 V2000
   38.1910   28.5630   39.9660 C   0  0  0  0  0  3  0  0  0  0  0  0
   37.6850   28.8990   41.2190 C   0  0  0  0  0  0  0  0  0  0  0  0
   37.2590   30.1940   41.4210 C   0  0  0  0  0  0  0  0  0  0  0  0
   36.8630   30.4750   42.3830 H   0  0  0  0  0  0  0  0  0  0  0  0
   37.2950   31.1970   40.4720 C   0  0  0  0  0  0  0  0  0  0  0  0
   36.9380   32.4940   40.4670 N   0  0  0  0  0  0  0  0  0  0  0  0
   36.5230   32.9790   41.3150 H   0  0  0  0  0  0  0  0  0  0  0  0
   37.1970   33.0070   39.2560 C   0  0  0  0  0  0  0  0  0  0  0  0
   37.0030   34.0370   38.9760 H   0  0  0  0  0  0  0  0  0  0  0  0
   37.7370   31.9940   38.4670 C   0  0  0  0  0  3  0  0  0  0  0  0
   37.8030   30.8410   39.2310 C   0  0  0  0  0  0  0  0  0  0  0  0
   38.2400   29.5570   38.9870 C   0  0  0  0  0  3  0  0  0  0  0  0
   37.5730   27.9550   42.3500 C   0  0  0  0  0  0  0  0  0  0  0  0
   37.0250   28.4500   43.3690 O   0  0  0  0  0  0  0  0  0  0  0  0
   38.0710   26.6160   42.2070 C   0  0  0  0  0  0  0  0  0  0  0  0
   37.1110   25.6110   42.1160 C   0  0  0  0  0  0  0  0  0  0  0  0
   37.6050   24.2980   41.9760 C   0  0  0  0  0  0  0  0  0  0  0  0
   38.9580   24.0950   41.9390 N   0  0  0  0  0  0  0  0  0  0  0  0
   39.8270   25.1100   42.0330 C   0  0  0  0  0  0  0  0  0  0  0  0
   39.3800   26.3730   42.1670 N   0  0  0  0  0  0  0  0  0  0  0  0
   36.0420   25.7200   42.1390 H   0  0  0  0  0  0  0  0  0  0  0  0
   36.9200   23.4630   41.8980 H   0  0  0  0  0  0  0  0  0  0  0  0
   40.9020   24.9970   42.0100 H   0  0  0  0  0  0  0  0  0  0  0  0
  1  2  1  0  0  0  0
  2  3  2  0  0  0  0
  2 13  1  0  0  0  0
  3  4  1  0  0  0  0
  5  3  1  0  0  0  0
  6  5  1  0  0  0  0
  6  7  1  0  0  0  0
  8  6  1  0  0  0  0
  9  8  1  0  0  0  0
 10 11  1  0  0  0  0
 10  8  2  0  0  0  0
 11  5  2  0  0  0  0
 12 11  1  0  0  0  0
 12  1  2  0  0  0  0
 13 14  2  0  0  0  0
 15 13  1  0  0  0  0
 16 21  1  0  0  0  0
 16 15  2  0  0  0  0
 17 16  1  0  0  0  0
 18 17  2  0  0  0  0
 18 19  1  0  0  0  0
 19 20  2  0  0  0  0
 20 15  1  0  0  0  0
 22 17  1  0  0  0  0
 23 19  1  0  0  0  0
M  END
>  <minimizedAffinity>
-4.87646198

$$$$

 OpenBabel03242512353D

 23 25  0  0  0  0  0  0  0  0999 V2000
   36.5950   26.6940   39.9580 C   0  0  0  0  0  3  0  0  0  0  0  0
   36.9150   26.6660   41.3120 C   0  0  0  0  0  0  0  0  0  0  0  0
   37.3910   25.4870   41.8430 C   0  0  0  0  0  0  0  0  0  0  0  0
   37.6450   25.4450   42.8900 H   0  0  0  0  0  0  0  0  0  0  0  0
   37.5790   24.3170   41.1340 C   0  0  0  0  0  0  0  0  0  0  0  0
   38.0200   23.0880   41.4560 N   0  0  0  0  0  0  0  0  0  0  0  0
   38.3250   22.8260   42.4370 H   0  0  0  0  0  0  0  0  0  0  0  0
   37.9960   22.3210   40.3560 C   0  0  0  0  0  0  0  0  0  0  0  0
   38.3030   21.2810   40.3330 H   0  0  0  0  0  0  0  0  0  0  0  0
   37.5220   23.0970   39.3020 C   0  0  0  0  0  3  0  0  0  0  0  0
   37.2530   24.3670   39.7860 C   0  0  0  0  0  0  0  0  0  0  0  0
   36.7750   25.5250   39.2150 C   0  0  0  0  0  3  0  0  0  0  0  0
   36.7780   27.8230   42.2220 C   0  0  0  0  0  0  0  0  0  0  0  0
   36.3490   27.5190   43.3650 O   0  0  0  0  0  0  0  0  0  0  0  0
   37.1250   29.1360   41.7550 C   0  0  0  0  0  0  0  0  0  0  0  0
   38.4550   29.5140   41.9230 C   0  0  0  0  0  0  0  0  0  0  0  0
   38.7910   30.8040   41.4630 C   0  0  0  0  0  0  0  0  0  0  0  0
   37.8200   31.5840   40.8970 N   0  0  0  0  0  0  0  0  0  0  0  0
   36.5580   31.1570   40.7670 C   0  0  0  0  0  0  0  0  0  0  0  0
   36.2120   29.9290   41.1980 N   0  0  0  0  0  0  0  0  0  0  0  0
   39.2510   28.9390   42.3590 H   0  0  0  0  0  0  0  0  0  0  0  0
   39.8070   31.1690   41.5590 H   0  0  0  0  0  0  0  0  0  0  0  0
   35.7590   31.7380   40.3270 H   0  0  0  0  0  0  0  0  0  0  0  0
  1  2  1  0  0  0  0
  2  3  2  0  0  0  0
  2 13  1  0  0  0  0
  3  4  1  0  0  0  0
  5  6  1  0  0  0  0
  5  3  1  0  0  0  0
  6  7  1  0  0  0  0
  8  6  1  0  0  0  0
  9  8  1  0  0  0  0
 10 11  1  0  0  0  0
 10  8  2  0  0  0  0
 11  5  2  0  0  0  0
 12 11  1  0  0  0  0
 12  1  2  0  0  0  0
 13 14  2  0  0  0  0
 15 16  1  0  0  0  0
 15 13  1  0  0  0  0
 16 21  1  0  0  0  0
 17 22  1  0  0  0  0
 17 16  2  0  0  0  0
 18 17  1  0  0  0  0
 19 18  2  0  0  0  0
 19 20  1  0  0  0  0
 20 15  2  0  0  0  0
 23 19  1  0  0  0  0
M  END
>  <minimizedAffinity>
-4.85770655

$$$$

 OpenBabel03242512353D

 23 25  0  0  0  0  0  0  0  0999 V2000
   37.4640   28.6670   43.3280 C   0  0  0  0  0  3  0  0  0  0  0  0
   38.2280   28.9750   42.2050 C   0  0  0  0  0  0  0  0  0  0  0  0
   38.4310   27.9860   41.2670 C   0  0  0  0  0  0  0  0  0  0  0  0
   39.0190   28.2040   40.3900 H   0  0  0  0  0  0  0  0  0  0  0  0
   37.9350   26.7000   41.3510 C   0  0  0  0  0  0  0  0  0  0  0  0
   38.0170   25.6120   40.5650 N   0  0  0  0  0  0  0  0  0  0  0  0
   38.5500   25.6040   39.6470 H   0  0  0  0  0  0  0  0  0  0  0  0
   37.3340   24.6120   41.1410 C   0  0  0  0  0  0  0  0  0  0  0  0
   37.2350   23.6190   40.7170 H   0  0  0  0  0  0  0  0  0  0  0  0
   36.8010   25.0900   42.3360 C   0  0  0  0  0  3  0  0  0  0  0  0
   37.1780   26.4150   42.4780 C   0  0  0  0  0  0  0  0  0  0  0  0
   36.9500   27.3740   43.4400 C   0  0  0  0  0  3  0  0  0  0  0  0
   38.8350   30.2980   41.9510 C   0  0  0  0  0  0  0  0  0  0  0  0
   39.5680   30.7060   42.8880 O   0  0  0  0  0  0  0  0  0  0  0  0
   38.5570   30.9800   40.7180 C   0  0  0  0  0  0  0  0  0  0  0  0
   37.2670   31.4880   40.5760 C   0  0  0  0  0  0  0  0  0  0  0  0
   36.9990   32.1560   39.3640 C   0  0  0  0  0  0  0  0  0  0  0  0
   37.9910   32.2640   38.4280 N   0  0  0  0  0  0  0  0  0  0  0  0
   39.2110   31.7500   38.6300 C   0  0  0  0  0  0  0  0  0  0  0  0
   39.4930   31.1070   39.7800 N   0  0  0  0  0  0  0  0  0  0  0  0
   36.4580   31.4300   41.2810 H   0  0  0  0  0  0  0  0  0  0  0  0
   36.0190   32.5790   39.1810 H   0  0  0  0  0  0  0  0  0  0  0  0
   40.0250   31.8110   37.9200 H   0  0  0  0  0  0  0  0  0  0  0  0
  1 12  1  0  0  0  0
  2  1  2  0  0  0  0
  3  5  2  0  0  0  0
  3  2  1  0  0  0  0
  4  3  1  0  0  0  0
  5 11  1  0  0  0  0
  6  8  1  0  0  0  0
  6  5  1  0  0  0  0
  7  6  1  0  0  0  0
  8 10  2  0  0  0  0
  9  8  1  0  0  0  0
 10 11  1  0  0  0  0
 11 12  2  0  0  0  0
 13  2  1  0  0  0  0
 13 14  2  0  0  0  0
 15 13  1  0  0  0  0
 16 15  1  0  0  0  0
 16 21  1  0  0  0  0
 17 16  2  0  0  0  0
 18 19  2  0  0  0  0
 18 17  1  0  0  0  0
 19 20  1  0  0  0  0
 20 15  2  0  0  0  0
 22 17  1  0  0  0  0
 23 19  1  0  0  0  0
M  END
>  <minimizedAffinity>
-4.82805681

$$$$
