
 OpenBabel03252505563D

 39 42  0  0  0  0  0  0  0  0999 V2000
   44.9650   35.0490   45.1820 C   0  0  0  0  0  0  0  0  0  0  0  0
   45.6710   34.7380   44.0160 C   0  0  0  0  0  0  0  0  0  0  0  0
   46.4660   33.5930   44.0400 C   0  0  0  0  0  0  0  0  0  0  0  0
   46.5130   32.8500   45.1690 N   0  0  0  0  0  0  0  0  0  0  0  0
   45.8220   33.1810   46.2660 C   0  0  0  0  0  0  0  0  0  0  0  0
   45.0570   34.2640   46.2790 N   0  0  0  0  0  0  0  0  0  0  0  0
   44.3550   35.9410   45.1430 H   0  0  0  0  0  0  0  0  0  0  0  0
   47.0390   32.1980   41.9230 C   0  0  0  0  0  0  0  0  0  0  0  0
   47.2940   33.0050   43.0070 C   0  0  0  0  0  0  0  0  0  0  0  0
   48.6610   33.2790   43.1720 C   0  0  0  0  0  0  0  0  0  0  0  0
   49.0450   33.9110   43.9880 H   0  0  0  0  0  0  0  0  0  0  0  0
   49.6710   32.8070   42.3610 C   0  0  0  0  0  0  0  0  0  0  0  0
   50.9970   32.9270   42.3210 N   0  0  0  0  0  0  0  0  0  0  0  0
   51.5730   33.4770   42.9930 H   0  0  0  0  0  0  0  0  0  0  0  0
   51.4830   32.2290   41.2790 C   0  0  0  0  0  0  0  0  0  0  0  0
   52.5230   32.1250   40.9720 H   0  0  0  0  0  0  0  0  0  0  0  0
   50.4500   31.6210   40.5970 C   0  0  0  0  0  0  0  0  0  0  0  0
   49.3250   32.0000   41.2970 C   0  0  0  0  0  0  0  0  0  0  0  0
   48.0000   31.7060   41.0950 C   0  0  0  0  0  0  0  0  0  0  0  0
   45.5200   35.5960   42.8160 C   0  0  0  0  0  0  0  0  0  0  0  0
   44.8120   36.6940   43.2810 F   0  0  0  0  0  0  0  0  0  0  0  0
   44.6960   34.9000   41.9170 F   0  0  0  0  0  0  0  0  0  0  0  0
   46.7120   35.8780   42.2870 F   0  0  0  0  0  0  0  0  0  0  0  0
   45.8610   32.4300   47.4340 O   0  0  0  0  0  0  0  0  0  0  0  0
   45.4520   31.0990   47.4560 C   0  0  0  0  0  0  0  0  0  0  0  0
   44.9660   30.8570   46.4870 H   0  0  0  0  0  0  0  0  0  0  0  0
   44.6820   30.9960   48.2430 H   0  0  0  0  0  0  0  0  0  0  0  0
   46.6410   30.2600   47.6750 C   0  0  0  0  0  0  0  0  0  0  0  0
   46.8930   28.9740   47.2470 C   0  0  0  0  0  0  0  0  0  0  0  0
   48.0850   28.4190   47.5870 C   0  0  0  0  0  0  0  0  0  0  0  0
   48.9970   29.0560   48.3030 N   0  0  0  0  0  0  0  0  0  0  0  0
   48.7430   30.3050   48.7160 C   0  0  0  0  0  0  0  0  0  0  0  0
   47.5650   30.9180   48.4070 N   0  0  0  0  0  0  0  0  0  0  0  0
   46.0950   28.5500   46.6760 H   0  0  0  0  0  0  0  0  0  0  0  0
   48.2440   27.3980   47.2270 H   0  0  0  0  0  0  0  0  0  0  0  0
   49.8210   30.9510   49.5160 C   0  0  0  0  0  0  0  0  0  0  0  0
   49.7690   32.3290   49.4130 F   0  0  0  0  0  0  0  0  0  0  0  0
   51.0680   30.4980   49.0780 F   0  0  0  0  0  0  0  0  0  0  0  0
   49.7270   30.6310   50.8530 F   0  0  0  0  0  0  0  0  0  0  0  0
  1  6  1  0  0  0  0
  2  3  1  0  0  0  0
  2  1  2  0  0  0  0
  3  4  2  0  0  0  0
  4  5  1  0  0  0  0
  5  6  2  0  0  0  0
  5 24  1  0  0  0  0
  7  1  1  0  0  0  0
  8  9  1  0  0  0  0
  9 10  2  0  0  0  0
  9  3  1  0  0  0  0
 10 11  1  0  0  0  0
 12 10  1  0  0  0  0
 13 12  1  0  0  0  0
 13 14  1  0  0  0  0
 15 13  1  0  0  0  0
 16 15  1  0  0  0  0
 17 15  2  0  0  0  0
 17 18  1  0  0  0  0
 18 12  2  0  0  0  0
 19 18  1  0  0  0  0
 19  8  2  0  0  0  0
 20 21  1  0  0  0  0
 20  2  1  0  0  0  0
 22 20  1  0  0  0  0
 23 20  1  0  0  0  0
 24 25  1  0  0  0  0
 25 28  1  0  0  0  0
 25 27  1  0  0  0  0
 26 25  1  0  0  0  0
 28 33  1  0  0  0  0
 29 30  1  0  0  0  0
 29 28  2  0  0  0  0
 30 31  2  0  0  0  0
 31 32  1  0  0  0  0
 32 36  1  0  0  0  0
 33 32  2  0  0  0  0
 34 29  1  0  0  0  0
 35 30  1  0  0  0  0
 36 39  1  0  0  0  0
 37 36  1  0  0  0  0
 38 36  1  0  0  0  0
M  END
>  <minimizedAffinity>
-6.43732691

>  <minimizedRMSD>
0.80409956

$$$$
