
 OpenBabel03242513333D

 24 26  0  0  0  0  0  0  0  0999 V2000
   48.1310   32.5820   41.8010 C   0  0  0  0  0  0  0  0  0  0  0  0
   47.8130   33.9040   41.4830 C   0  0  0  0  0  0  0  0  0  0  0  0
   47.2070   34.6660   42.4920 C   0  0  0  0  0  0  0  0  0  0  0  0
   46.9650   34.0920   43.7020 N   0  0  0  0  0  0  0  0  0  0  0  0
   47.2950   32.8090   43.9500 C   0  0  0  0  0  0  0  0  0  0  0  0
   47.8800   32.0420   43.0050 N   0  0  0  0  0  0  0  0  0  0  0  0
   48.6040   31.9050   41.0920 H   0  0  0  0  0  0  0  0  0  0  0  0
   46.9640   35.6900   42.2340 H   0  0  0  0  0  0  0  0  0  0  0  0
   47.3960   30.9470   45.5580 C   0  0  0  0  0  0  0  0  0  0  0  0
   47.0140   32.2400   45.2620 C   0  0  0  0  0  0  0  0  0  0  0  0
   46.3640   32.9940   46.2160 C   0  0  0  0  0  0  0  0  0  0  0  0
   46.0470   34.0090   46.0270 H   0  0  0  0  0  0  0  0  0  0  0  0
   46.1270   32.3950   47.4410 C   0  0  0  0  0  0  0  0  0  0  0  0
   45.5260   32.8620   48.5560 N   0  0  0  0  0  0  0  0  0  0  0  0
   45.0950   33.7920   48.7530 H   0  0  0  0  0  0  0  0  0  0  0  0
   45.5220   31.9100   49.5260 C   0  0  0  0  0  0  0  0  0  0  0  0
   45.1210   31.9630   50.5300 H   0  0  0  0  0  0  0  0  0  0  0  0
   46.1340   30.8020   49.0330 C   0  0  0  0  0  0  0  0  0  0  0  0
   46.5140   31.0970   47.7330 C   0  0  0  0  0  0  0  0  0  0  0  0
   47.1700   30.3400   46.7680 C   0  0  0  0  0  0  0  0  0  0  0  0
   48.1390   34.3840   40.1230 C   0  0  0  0  0  0  0  0  0  0  0  0
   46.9580   34.3650   39.4100 F   0  0  0  0  0  0  0  0  0  0  0  0
   49.0440   33.5080   39.5660 F   0  0  0  0  0  0  0  0  0  0  0  0
   48.6850   35.6580   40.2390 F   0  0  0  0  0  0  0  0  0  0  0  0
  1  6  1  0  0  0  0
  2  1  2  0  0  0  0
  2  3  1  0  0  0  0
  3  4  2  0  0  0  0
  4  5  1  0  0  0  0
  5 10  1  0  0  0  0
  6  5  2  0  0  0  0
  7  1  1  0  0  0  0
  8  3  1  0  0  0  0
  9 20  1  0  0  0  0
 10  9  2  0  0  0  0
 10 11  1  0  0  0  0
 11 13  2  0  0  0  0
 12 11  1  0  0  0  0
 13 19  1  0  0  0  0
 13 14  1  0  0  0  0
 14 15  1  0  0  0  0
 14 16  1  0  0  0  0
 16 17  1  0  0  0  0
 18 16  2  0  0  0  0
 19 18  1  0  0  0  0
 20 19  2  0  0  0  0
 21 24  1  0  0  0  0
 21  2  1  0  0  0  0
 22 21  1  0  0  0  0
 23 21  1  0  0  0  0
M  END
>  <minimizedAffinity>
-5.54117775

>  <minimizedRMSD>
3.20007753

$$$$
