
 OpenBabel03252509263D

 33 36  0  0  1  0  0  0  0  0999 V2000
   46.6210   35.1210   41.9080 C   0  0  1  0  0  0  0  0  0  0  0  0
   48.1510   35.3850   41.9170 C   0  0  0  0  0  0  0  0  0  0  0  0
   47.4270   34.1720   41.2580 C   0  0  2  0  0  0  0  0  0  0  0  0
   46.0680   35.9170   41.3800 H   0  0  0  0  0  0  0  0  0  0  0  0
   48.7200   35.1680   42.8260 H   0  0  0  0  0  0  0  0  0  0  0  0
   48.5040   36.1640   41.2230 H   0  0  0  0  0  0  0  0  0  0  0  0
   47.6460   33.1920   41.7800 H   0  0  0  0  0  0  0  0  0  0  0  0
   44.7100   35.2910   45.1330 C   0  0  0  0  0  0  0  0  0  0  0  0
   45.1560   35.6510   43.8330 C   0  0  0  0  0  0  0  0  0  0  0  0
   46.1220   34.8560   43.3110 C   0  0  0  0  0  0  0  0  0  0  0  0
   46.6400   33.7720   43.9920 N   0  0  0  0  0  0  0  0  0  0  0  0
   46.1880   33.4630   45.2320 C   0  0  0  0  0  0  0  0  0  0  0  0
   45.2150   34.2310   45.8020 N   0  0  0  0  0  0  0  0  0  0  0  0
   43.9370   35.9230   45.5550 H   0  0  0  0  0  0  0  0  0  0  0  0
   46.5420   32.6440   45.8140 H   0  0  0  0  0  0  0  0  0  0  0  0
   44.6500   36.7700   43.1510 N   0  0  0  0  0  0  0  0  0  0  0  0
   43.7320   36.8870   42.6670 H   0  0  0  0  0  0  0  0  0  0  0  0
   45.3340   37.5840   43.1590 H   0  0  0  0  0  0  0  0  0  0  0  0
   47.4490   34.0520   39.7530 C   0  0  0  0  0  0  0  0  0  0  0  0
   46.4590   33.6440   39.4690 H   0  0  0  0  0  0  0  0  0  0  0  0
   47.5590   35.0410   39.2640 H   0  0  0  0  0  0  0  0  0  0  0  0
   49.1910   32.2690   40.1960 C   0  0  0  0  0  3  0  0  0  0  0  0
   48.4770   33.0800   39.3490 C   0  0  0  0  0  0  0  0  0  0  0  0
   48.7370   32.9870   37.9860 C   0  0  0  0  0  0  0  0  0  0  0  0
   48.2240   33.5870   37.2470 H   0  0  0  0  0  0  0  0  0  0  0  0
   49.6780   32.1150   37.4710 C   0  0  0  0  0  0  0  0  0  0  0  0
   50.1120   31.8340   36.2320 N   0  0  0  0  0  0  0  0  0  0  0  0
   49.7450   32.3060   35.3580 H   0  0  0  0  0  0  0  0  0  0  0  0
   51.0630   30.8850   36.2630 C   0  0  0  0  0  0  0  0  0  0  0  0
   51.5510   30.5090   35.3690 H   0  0  0  0  0  0  0  0  0  0  0  0
   51.2720   30.5180   37.5780 C   0  0  0  0  0  3  0  0  0  0  0  0
   50.3940   31.3020   38.3170 C   0  0  0  0  0  0  0  0  0  0  0  0
   50.1310   31.3970   39.6720 C   0  0  0  0  0  3  0  0  0  0  0  0
  1  4  1  6  0  0  0
  1  2  1  0  0  0  0
  1 10  1  0  0  0  0
  2  5  1  0  0  0  0
  3  7  1  1  0  0  0
  3  1  1  0  0  0  0
  3  2  1  0  0  0  0
  6  2  1  0  0  0  0
  8 14  1  0  0  0  0
  8 13  1  0  0  0  0
  9  8  2  0  0  0  0
 10  9  1  0  0  0  0
 10 11  2  0  0  0  0
 11 12  1  0  0  0  0
 12 13  2  0  0  0  0
 12 15  1  0  0  0  0
 16 18  1  0  0  0  0
 16  9  1  0  0  0  0
 17 16  1  0  0  0  0
 19  3  1  0  0  0  0
 20 19  1  0  0  0  0
 21 19  1  0  0  0  0
 23 19  1  0  0  0  0
 23 22  2  0  0  0  0
 24 23  1  0  0  0  0
 25 24  1  0  0  0  0
 26 24  2  0  0  0  0
 26 32  1  0  0  0  0
 27 29  1  0  0  0  0
 27 26  1  0  0  0  0
 28 27  1  0  0  0  0
 29 31  2  0  0  0  0
 30 29  1  0  0  0  0
 31 32  1  0  0  0  0
 32 33  2  0  0  0  0
 33 22  1  0  0  0  0
M  END
>  <minimizedAffinity>
-5.43004942

>  <minimizedRMSD>
1.09588909

$$$$
