
 OpenBabel03252505523D

 36 39  0  0  0  0  0  0  0  0999 V2000
   46.9750   30.5660   47.4310 C   0  0  0  0  0  0  0  0  0  0  0  0
   47.4850   29.6600   46.5300 C   0  0  0  0  0  0  0  0  0  0  0  0
   48.7370   29.1640   46.6920 C   0  0  0  0  0  0  0  0  0  0  0  0
   49.4950   29.5500   47.7320 N   0  0  0  0  0  0  0  0  0  0  0  0
   49.0140   30.4310   48.6170 C   0  0  0  0  0  0  0  0  0  0  0  0
   47.7600   30.9410   48.4730 N   0  0  0  0  0  0  0  0  0  0  0  0
   46.7960   29.4200   45.7350 H   0  0  0  0  0  0  0  0  0  0  0  0
   49.0640   28.4570   45.9410 H   0  0  0  0  0  0  0  0  0  0  0  0
   50.3990   32.1200   49.7650 C   0  0  0  0  0  0  0  0  0  0  0  0
   49.8520   30.8540   49.7620 C   0  0  0  0  0  0  0  0  0  0  0  0
   50.0160   29.9130   50.7560 C   0  0  0  0  0  0  0  0  0  0  0  0
   49.5700   28.9290   50.7180 H   0  0  0  0  0  0  0  0  0  0  0  0
   50.8010   30.3190   51.8200 C   0  0  0  0  0  0  0  0  0  0  0  0
   51.1840   29.6910   52.9600 N   0  0  0  0  0  0  0  0  0  0  0  0
   50.9430   28.7270   53.2630 H   0  0  0  0  0  0  0  0  0  0  0  0
   51.9600   30.5130   53.6950 C   0  0  0  0  0  0  0  0  0  0  0  0
   52.4340   30.3210   54.6640 H   0  0  0  0  0  0  0  0  0  0  0  0
   52.1090   31.7320   53.0380 C   0  0  0  0  0  0  0  0  0  0  0  0
   51.3690   31.5780   51.8620 C   0  0  0  0  0  0  0  0  0  0  0  0
   51.1720   32.4940   50.8300 C   0  0  0  0  0  0  0  0  0  0  0  0
   45.6700   31.2310   47.4650 C   0  0  0  0  0  0  0  0  0  0  0  0
   44.9920   30.8970   46.6540 H   0  0  0  0  0  0  0  0  0  0  0  0
   45.1820   30.9840   48.4400 H   0  0  0  0  0  0  0  0  0  0  0  0
   45.8960   32.6210   47.4380 O   0  0  0  0  0  0  0  0  0  0  0  0
   44.9560   35.0090   44.9710 C   0  0  0  0  0  0  0  0  0  0  0  0
   45.8220   34.7550   43.9160 C   0  0  0  0  0  0  0  0  0  0  0  0
   46.7510   33.7240   44.0810 C   0  0  0  0  0  0  0  0  0  0  0  0
   46.7760   33.0310   45.2250 N   0  0  0  0  0  0  0  0  0  0  0  0
   45.9070   33.3160   46.2290 C   0  0  0  0  0  0  0  0  0  0  0  0
   45.0040   34.2930   46.1130 N   0  0  0  0  0  0  0  0  0  0  0  0
   44.2100   35.7980   44.9060 H   0  0  0  0  0  0  0  0  0  0  0  0
   47.4230   33.5350   43.2500 H   0  0  0  0  0  0  0  0  0  0  0  0
   45.7050   35.5970   42.6790 C   0  0  0  0  0  0  0  0  0  0  0  0
   45.2910   36.8310   43.1240 F   0  0  0  0  0  0  0  0  0  0  0  0
   44.7030   35.0030   41.9010 F   0  0  0  0  0  0  0  0  0  0  0  0
   46.8980   35.6120   42.0360 F   0  0  0  0  0  0  0  0  0  0  0  0
  1 21  1  0  0  0  0
  1  6  1  0  0  0  0
  2  3  1  0  0  0  0
  2  1  2  0  0  0  0
  3  4  2  0  0  0  0
  4  5  1  0  0  0  0
  5 10  1  0  0  0  0
  6  5  2  0  0  0  0
  7  2  1  0  0  0  0
  8  3  1  0  0  0  0
  9 20  1  0  0  0  0
 10  9  2  0  0  0  0
 10 11  1  0  0  0  0
 11 13  2  0  0  0  0
 12 11  1  0  0  0  0
 13 19  1  0  0  0  0
 13 14  1  0  0  0  0
 14 15  1  0  0  0  0
 14 16  1  0  0  0  0
 16 17  1  0  0  0  0
 18 16  2  0  0  0  0
 19 18  1  0  0  0  0
 20 19  2  0  0  0  0
 21 23  1  0  0  0  0
 22 21  1  0  0  0  0
 24 21  1  0  0  0  0
 25 30  1  0  0  0  0
 26 27  1  0  0  0  0
 26 25  2  0  0  0  0
 27 28  2  0  0  0  0
 28 29  1  0  0  0  0
 29 24  1  0  0  0  0
 30 29  2  0  0  0  0
 31 25  1  0  0  0  0
 32 27  1  0  0  0  0
 33 34  1  0  0  0  0
 33 26  1  0  0  0  0
 35 33  1  0  0  0  0
 36 33  1  0  0  0  0
M  END
>  <minimizedAffinity>
-6.73830366

>  <minimizedRMSD>
1.0575124

$$$$
