
 OpenBabel03252508533D

 46 50  0  0  1  0  0  0  0  0999 V2000
   43.3880   34.5010   40.7360 C   0  0  0  0  0  0  0  0  0  0  0  0
   43.3580   35.7230   40.3690 O   0  0  0  0  0  0  0  0  0  0  0  0
   42.0030   34.1240   40.4910 N   0  0  0  0  0  0  0  0  0  0  0  0
   41.5780   34.2600   39.1180 C   0  0  0  0  0  0  0  0  0  0  0  0
   40.8100   35.5980   39.0660 C   0  0  0  0  0  0  0  0  0  0  0  0
   40.0820   35.7330   40.4150 C   0  0  0  0  0  0  0  0  0  0  0  0
   39.7180   34.3670   40.9490 C   0  0  0  0  0  0  0  0  0  0  0  0
   40.9940   33.6390   41.4130 C   0  0  1  0  0  0  0  0  0  0  0  0
   40.9390   33.4290   38.7760 H   0  0  0  0  0  0  0  0  0  0  0  0
   42.4060   34.3720   38.3940 H   0  0  0  0  0  0  0  0  0  0  0  0
   40.0590   35.5070   38.2790 H   0  0  0  0  0  0  0  0  0  0  0  0
   41.5330   36.4160   38.9550 H   0  0  0  0  0  0  0  0  0  0  0  0
   40.7620   36.2020   41.1500 H   0  0  0  0  0  0  0  0  0  0  0  0
   39.1480   36.3100   40.3010 H   0  0  0  0  0  0  0  0  0  0  0  0
   38.9610   34.4410   41.7230 H   0  0  0  0  0  0  0  0  0  0  0  0
   39.3500   33.7380   40.1010 H   0  0  0  0  0  0  0  0  0  0  0  0
   41.2350   33.9630   42.4280 H   0  0  0  0  0  0  0  0  0  0  0  0
   40.1490   31.3340   42.1090 C   0  0  0  0  0  3  0  0  0  0  0  0
   40.8230   32.1720   41.2580 C   0  0  0  0  0  0  0  0  0  0  0  0
   41.3960   31.5850   40.1480 C   0  0  0  0  0  0  0  0  0  0  0  0
   41.9610   32.0770   39.3710 H   0  0  0  0  0  0  0  0  0  0  0  0
   41.3020   30.2150   39.8950 C   0  0  0  0  0  0  0  0  0  0  0  0
   41.7290   29.3610   38.9440 N   0  0  0  0  0  0  0  0  0  0  0  0
   42.2920   29.6560   38.1140 H   0  0  0  0  0  0  0  0  0  0  0  0
   41.3290   28.1080   39.2260 C   0  0  0  0  0  0  0  0  0  0  0  0
   41.5570   27.2370   38.5940 H   0  0  0  0  0  0  0  0  0  0  0  0
   40.6070   28.0970   40.4010 C   0  0  0  0  0  3  0  0  0  0  0  0
   40.6020   29.4170   40.8000 C   0  0  0  0  0  0  0  0  0  0  0  0
   40.0230   29.9860   41.9160 C   0  0  0  0  0  3  0  0  0  0  0  0
   44.4600   33.8150   41.2130 O   0  0  0  0  0  0  0  0  0  0  0  0
   45.7870   34.1360   41.0750 C   0  0  0  0  0  0  0  0  0  0  0  0
   46.4200   34.7540   42.1560 C   0  0  0  0  0  0  0  0  0  0  0  0
   47.7750   35.0730   41.9900 C   0  0  0  0  0  0  0  0  0  0  0  0
   48.3850   34.7650   40.7970 N   0  0  0  0  0  0  0  0  0  0  0  0
   47.7310   34.1800   39.8120 C   0  0  0  0  0  0  0  0  0  0  0  0
   46.4330   33.8610   39.9380 N   0  0  0  0  0  0  0  0  0  0  0  0
   48.2490   35.5470   42.8250 H   0  0  0  0  0  0  0  0  0  0  0  0
   48.3080   33.9790   38.9090 H   0  0  0  0  0  0  0  0  0  0  0  0
   45.6840   35.0330   43.3660 C   0  0  0  0  0  0  0  0  0  0  0  0
   45.0350   36.2390   43.6030 C   0  0  0  0  0  0  0  0  0  0  0  0
   44.4750   36.0790   44.8430 C   0  0  0  0  0  0  0  0  0  0  0  0
   44.7590   34.8550   45.3370 N   0  0  0  0  0  0  0  0  0  0  0  0
   45.4870   34.2530   44.4260 N   0  0  0  0  0  0  0  0  0  0  0  0
   44.9670   37.1240   42.9740 H   0  0  0  0  0  0  0  0  0  0  0  0
   43.8760   36.7710   45.4260 H   0  0  0  0  0  0  0  0  0  0  0  0
   44.4830   34.4280   46.2480 H   0  0  0  0  0  0  0  0  0  0  0  0
  1 30  1  0  0  0  0
  2  1  2  0  0  0  0
  3  1  1  0  0  0  0
  3  8  1  0  0  0  0
  4  3  1  0  0  0  0
  5  4  1  0  0  0  0
  5  6  1  0  0  0  0
  6  7  1  0  0  0  0
  6 13  1  0  0  0  0
  7  8  1  0  0  0  0
  7 15  1  0  0  0  0
  8 17  1  1  0  0  0
  9  4  1  0  0  0  0
 10  4  1  0  0  0  0
 11  5  1  0  0  0  0
 12  5  1  0  0  0  0
 14  6  1  0  0  0  0
 16  7  1  0  0  0  0
 19  8  1  0  0  0  0
 19 18  2  0  0  0  0
 20 19  1  0  0  0  0
 21 20  1  0  0  0  0
 22 20  2  0  0  0  0
 22 28  1  0  0  0  0
 23 25  1  0  0  0  0
 23 22  1  0  0  0  0
 24 23  1  0  0  0  0
 25 27  2  0  0  0  0
 26 25  1  0  0  0  0
 27 28  1  0  0  0  0
 28 29  2  0  0  0  0
 29 18  1  0  0  0  0
 31 30  1  0  0  0  0
 31 32  1  0  0  0  0
 32 39  1  0  0  0  0
 33 32  2  0  0  0  0
 33 37  1  0  0  0  0
 34 33  1  0  0  0  0
 35 36  1  0  0  0  0
 35 34  2  0  0  0  0
 36 31  2  0  0  0  0
 38 35  1  0  0  0  0
 39 40  1  0  0  0  0
 39 43  2  0  0  0  0
 40 41  2  0  0  0  0
 41 42  1  0  0  0  0
 41 45  1  0  0  0  0
 42 46  1  0  0  0  0
 43 42  1  0  0  0  0
 44 40  1  0  0  0  0
M  END
>  <minimizedAffinity>
-6.78126621

>  <minimizedRMSD>
0.438939065

$$$$
