
 OpenBabel03252508563D

 46 50  0  0  1  0  0  0  0  0999 V2000
   37.1980   28.8920   40.1120 C   0  0  0  0  0  0  0  0  0  0  0  0
   36.1630   28.1460   40.0470 O   0  0  0  0  0  0  0  0  0  0  0  0
   37.7810   28.4150   41.3580 N   0  0  0  0  0  0  0  0  0  0  0  0
   38.1310   27.0150   41.3600 C   0  0  0  0  0  0  0  0  0  0  0  0
   36.9690   26.3120   42.0950 C   0  0  0  0  0  0  0  0  0  0  0  0
   36.4980   27.2840   43.1910 C   0  0  0  0  0  0  0  0  0  0  0  0
   37.6580   28.1200   43.6790 C   0  0  0  0  0  0  0  0  0  0  0  0
   38.0590   29.1320   42.5880 C   0  0  1  0  0  0  0  0  0  0  0  0
   39.0920   26.8070   41.8590 H   0  0  0  0  0  0  0  0  0  0  0  0
   38.1620   26.5510   40.3570 H   0  0  0  0  0  0  0  0  0  0  0  0
   37.3850   25.4260   42.5790 H   0  0  0  0  0  0  0  0  0  0  0  0
   36.1540   26.1390   41.3810 H   0  0  0  0  0  0  0  0  0  0  0  0
   35.7510   27.9780   42.7640 H   0  0  0  0  0  0  0  0  0  0  0  0
   36.0920   26.7330   44.0560 H   0  0  0  0  0  0  0  0  0  0  0  0
   37.4280   28.5860   44.6320 H   0  0  0  0  0  0  0  0  0  0  0  0
   38.5580   27.4630   43.7730 H   0  0  0  0  0  0  0  0  0  0  0  0
   37.4080   30.0060   42.6620 H   0  0  0  0  0  0  0  0  0  0  0  0
   40.5160   28.5290   42.9200 C   0  0  0  0  0  3  0  0  0  0  0  0
   39.5100   29.4320   42.6880 C   0  0  0  0  0  0  0  0  0  0  0  0
   39.8930   30.7490   42.5350 C   0  0  0  0  0  0  0  0  0  0  0  0
   39.2490   31.5960   42.3460 H   0  0  0  0  0  0  0  0  0  0  0  0
   41.2270   31.1540   42.6080 C   0  0  0  0  0  0  0  0  0  0  0  0
   41.9090   32.3110   42.5070 N   0  0  0  0  0  0  0  0  0  0  0  0
   41.4550   33.2350   42.3270 H   0  0  0  0  0  0  0  0  0  0  0  0
   43.2270   32.0950   42.6690 C   0  0  0  0  0  0  0  0  0  0  0  0
   43.9860   32.8890   42.6280 H   0  0  0  0  0  0  0  0  0  0  0  0
   43.4610   30.7520   42.8870 C   0  0  0  0  0  3  0  0  0  0  0  0
   42.2040   30.1860   42.8450 C   0  0  0  0  0  0  0  0  0  0  0  0
   41.8400   28.8640   43.0020 C   0  0  0  0  0  3  0  0  0  0  0  0
   37.5770   29.8450   39.2210 O   0  0  0  0  0  0  0  0  0  0  0  0
   38.7960   29.9740   38.6030 C   0  0  0  0  0  0  0  0  0  0  0  0
   39.3880   31.2400   38.5980 C   0  0  0  0  0  0  0  0  0  0  0  0
   40.6330   31.3460   37.9600 C   0  0  0  0  0  0  0  0  0  0  0  0
   41.1820   30.2220   37.3910 N   0  0  0  0  0  0  0  0  0  0  0  0
   40.5710   29.0530   37.4300 C   0  0  0  0  0  0  0  0  0  0  0  0
   39.3790   28.9160   38.0330 N   0  0  0  0  0  0  0  0  0  0  0  0
   41.0760   32.3210   37.9630 H   0  0  0  0  0  0  0  0  0  0  0  0
   41.0930   28.2250   36.9490 H   0  0  0  0  0  0  0  0  0  0  0  0
   38.7230   32.3560   39.2270 C   0  0  0  0  0  0  0  0  0  0  0  0
   39.3840   33.2950   40.0090 C   0  0  0  0  0  0  0  0  0  0  0  0
   38.3950   34.1610   40.3980 C   0  0  0  0  0  0  0  0  0  0  0  0
   37.2050   33.7800   39.8870 N   0  0  0  0  0  0  0  0  0  0  0  0
   37.4360   32.6930   39.1890 N   0  0  0  0  0  0  0  0  0  0  0  0
   40.4370   33.3580   40.2720 H   0  0  0  0  0  0  0  0  0  0  0  0
   38.4580   35.0480   41.0190 H   0  0  0  0  0  0  0  0  0  0  0  0
   36.2660   34.2230   39.9950 H   0  0  0  0  0  0  0  0  0  0  0  0
  1  3  1  0  0  0  0
  2  1  2  0  0  0  0
  3  4  1  0  0  0  0
  3  8  1  0  0  0  0
  4  9  1  0  0  0  0
  4  5  1  0  0  0  0
  5 11  1  0  0  0  0
  5  6  1  0  0  0  0
  6  7  1  0  0  0  0
  6 14  1  0  0  0  0
  7 16  1  0  0  0  0
  7 15  1  0  0  0  0
  8 17  1  1  0  0  0
  8 19  1  0  0  0  0
  8  7  1  0  0  0  0
 10  4  1  0  0  0  0
 12  5  1  0  0  0  0
 13  6  1  0  0  0  0
 18 29  1  0  0  0  0
 19 18  2  0  0  0  0
 20 22  2  0  0  0  0
 20 19  1  0  0  0  0
 21 20  1  0  0  0  0
 22 28  1  0  0  0  0
 23 22  1  0  0  0  0
 23 25  1  0  0  0  0
 24 23  1  0  0  0  0
 25 27  2  0  0  0  0
 26 25  1  0  0  0  0
 28 27  1  0  0  0  0
 28 29  2  0  0  0  0
 30  1  1  0  0  0  0
 31 30  1  0  0  0  0
 32 31  1  0  0  0  0
 32 39  1  0  0  0  0
 33 37  1  0  0  0  0
 33 32  2  0  0  0  0
 34 35  2  0  0  0  0
 34 33  1  0  0  0  0
 35 36  1  0  0  0  0
 36 31  2  0  0  0  0
 38 35  1  0  0  0  0
 39 40  1  0  0  0  0
 40 44  1  0  0  0  0
 40 41  2  0  0  0  0
 41 45  1  0  0  0  0
 42 46  1  0  0  0  0
 42 41  1  0  0  0  0
 43 39  2  0  0  0  0
 43 42  1  0  0  0  0
M  END
>  <minimizedAffinity>
-6.984478

$$$$

 OpenBabel03252508563D

 46 50  0  0  1  0  0  0  0  0999 V2000
   35.8100   27.3980   38.7130 C   0  0  0  0  0  0  0  0  0  0  0  0
   35.1680   26.7080   37.8520 O   0  0  0  0  0  0  0  0  0  0  0  0
   36.0050   28.6300   37.9630 N   0  0  0  0  0  0  0  0  0  0  0  0
   34.7840   29.2850   37.5570 C   0  0  0  0  0  0  0  0  0  0  0  0
   34.5840   28.8820   36.0800 C   0  0  0  0  0  0  0  0  0  0  0  0
   35.9910   28.7930   35.4620 C   0  0  0  0  0  0  0  0  0  0  0  0
   36.9200   29.7760   36.1350 C   0  0  0  0  0  0  0  0  0  0  0  0
   37.2320   29.2920   37.5650 C   0  0  1  0  0  0  0  0  0  0  0  0
   34.8230   30.3820   37.6620 H   0  0  0  0  0  0  0  0  0  0  0  0
   33.8780   28.9260   38.0800 H   0  0  0  0  0  0  0  0  0  0  0  0
   34.0480   29.7000   35.5940 H   0  0  0  0  0  0  0  0  0  0  0  0
   34.1040   27.8960   36.0450 H   0  0  0  0  0  0  0  0  0  0  0  0
   36.4010   27.7810   35.6370 H   0  0  0  0  0  0  0  0  0  0  0  0
   35.9630   29.0390   34.3860 H   0  0  0  0  0  0  0  0  0  0  0  0
   37.8090   29.9450   35.5360 H   0  0  0  0  0  0  0  0  0  0  0  0
   36.3690   30.7350   36.2960 H   0  0  0  0  0  0  0  0  0  0  0  0
   38.0460   28.5650   37.5200 H   0  0  0  0  0  0  0  0  0  0  0  0
   36.7440   30.8490   39.5270 C   0  0  0  0  0  3  0  0  0  0  0  0
   37.4940   30.4590   38.4460 C   0  0  0  0  0  0  0  0  0  0  0  0
   38.5980   31.2330   38.1550 C   0  0  0  0  0  0  0  0  0  0  0  0
   39.3030   31.0850   37.3510 H   0  0  0  0  0  0  0  0  0  0  0  0
   38.9460   32.3550   38.9110 C   0  0  0  0  0  0  0  0  0  0  0  0
   39.9190   33.2860   38.8960 N   0  0  0  0  0  0  0  0  0  0  0  0
   40.6890   33.3050   38.1900 H   0  0  0  0  0  0  0  0  0  0  0  0
   39.7460   34.1610   39.9030 C   0  0  0  0  0  0  0  0  0  0  0  0
   40.4160   35.0110   40.0960 H   0  0  0  0  0  0  0  0  0  0  0  0
   38.6240   33.8240   40.6330 C   0  0  0  0  0  3  0  0  0  0  0  0
   38.1420   32.6980   39.9990 C   0  0  0  0  0  0  0  0  0  0  0  0
   37.0330   31.9360   40.3050 C   0  0  0  0  0  3  0  0  0  0  0  0
   36.1730   27.0120   39.9650 O   0  0  0  0  0  0  0  0  0  0  0  0
   37.0370   26.0040   40.3120 C   0  0  0  0  0  0  0  0  0  0  0  0
   37.8030   26.1760   41.4670 C   0  0  0  0  0  0  0  0  0  0  0  0
   38.6780   25.1320   41.7990 C   0  0  0  0  0  0  0  0  0  0  0  0
   38.7290   24.0270   40.9840 N   0  0  0  0  0  0  0  0  0  0  0  0
   37.9780   23.9240   39.9040 C   0  0  0  0  0  0  0  0  0  0  0  0
   37.1290   24.9050   39.5570 N   0  0  0  0  0  0  0  0  0  0  0  0
   39.2600   25.2760   42.6880 H   0  0  0  0  0  0  0  0  0  0  0  0
   38.0940   23.0070   39.3270 H   0  0  0  0  0  0  0  0  0  0  0  0
   37.6720   27.3800   42.2530 C   0  0  0  0  0  0  0  0  0  0  0  0
   38.5410   28.4580   42.1470 C   0  0  0  0  0  0  0  0  0  0  0  0
   38.0600   29.3660   43.0530 C   0  0  0  0  0  0  0  0  0  0  0  0
   36.9650   28.8790   43.6750 N   0  0  0  0  0  0  0  0  0  0  0  0
   36.7590   27.6850   43.1720 N   0  0  0  0  0  0  0  0  0  0  0  0
   39.4120   28.5850   41.5060 H   0  0  0  0  0  0  0  0  0  0  0  0
   38.4300   30.3540   43.3060 H   0  0  0  0  0  0  0  0  0  0  0  0
   36.3700   29.3200   44.4100 H   0  0  0  0  0  0  0  0  0  0  0  0
  1 30  1  0  0  0  0
  2  1  2  0  0  0  0
  3  1  1  0  0  0  0
  4  9  1  0  0  0  0
  4  3  1  0  0  0  0
  4 10  1  0  0  0  0
  5  4  1  0  0  0  0
  6 13  1  0  0  0  0
  6  5  1  0  0  0  0
  6  7  1  0  0  0  0
  7 16  1  0  0  0  0
  7  8  1  0  0  0  0
  8 17  1  1  0  0  0
  8  3  1  0  0  0  0
  8 19  1  0  0  0  0
 11  5  1  0  0  0  0
 12  5  1  0  0  0  0
 14  6  1  0  0  0  0
 15  7  1  0  0  0  0
 18 29  1  0  0  0  0
 19 18  2  0  0  0  0
 20 19  1  0  0  0  0
 20 22  2  0  0  0  0
 21 20  1  0  0  0  0
 22 28  1  0  0  0  0
 23 22  1  0  0  0  0
 23 25  1  0  0  0  0
 24 23  1  0  0  0  0
 25 26  1  0  0  0  0
 25 27  2  0  0  0  0
 28 29  2  0  0  0  0
 28 27  1  0  0  0  0
 30 31  1  0  0  0  0
 31 32  1  0  0  0  0
 32 33  2  0  0  0  0
 32 39  1  0  0  0  0
 33 37  1  0  0  0  0
 34 33  1  0  0  0  0
 35 34  2  0  0  0  0
 36 35  1  0  0  0  0
 36 31  2  0  0  0  0
 38 35  1  0  0  0  0
 39 43  2  0  0  0  0
 40 39  1  0  0  0  0
 40 41  2  0  0  0  0
 41 45  1  0  0  0  0
 41 42  1  0  0  0  0
 42 46  1  0  0  0  0
 43 42  1  0  0  0  0
 44 40  1  0  0  0  0
M  END
>  <minimizedAffinity>
-6.72370529

$$$$

 OpenBabel03252508563D

 46 50  0  0  1  0  0  0  0  0999 V2000
   39.2840   29.3060   40.9640 C   0  0  0  0  0  0  0  0  0  0  0  0
   39.9750   29.1510   42.0260 O   0  0  0  0  0  0  0  0  0  0  0  0
   38.0620   28.6140   41.3480 N   0  0  0  0  0  0  0  0  0  0  0  0
   37.3970   29.1670   42.5040 C   0  0  0  0  0  0  0  0  0  0  0  0
   37.8140   28.2580   43.6800 C   0  0  0  0  0  0  0  0  0  0  0  0
   37.9260   26.8340   43.1070 C   0  0  0  0  0  0  0  0  0  0  0  0
   36.9470   26.6500   41.9710 C   0  0  0  0  0  0  0  0  0  0  0  0
   37.4190   27.4610   40.7480 C   0  0  1  0  0  0  0  0  0  0  0  0
   36.3000   29.1980   42.4010 H   0  0  0  0  0  0  0  0  0  0  0  0
   37.7400   30.1800   42.7860 H   0  0  0  0  0  0  0  0  0  0  0  0
   36.9950   28.2720   44.4020 H   0  0  0  0  0  0  0  0  0  0  0  0
   38.7940   28.5840   44.0490 H   0  0  0  0  0  0  0  0  0  0  0  0
   38.9410   26.6880   42.6920 H   0  0  0  0  0  0  0  0  0  0  0  0
   37.6920   26.0810   43.8790 H   0  0  0  0  0  0  0  0  0  0  0  0
   36.7950   25.5980   41.7540 H   0  0  0  0  0  0  0  0  0  0  0  0
   35.9800   27.1350   42.2510 H   0  0  0  0  0  0  0  0  0  0  0  0
   38.1560   26.8710   40.1980 H   0  0  0  0  0  0  0  0  0  0  0  0
   35.4060   28.9370   40.2220 C   0  0  0  0  0  3  0  0  0  0  0  0
   36.2460   27.8890   39.9440 C   0  0  0  0  0  0  0  0  0  0  0  0
   35.9670   27.1660   38.8020 C   0  0  0  0  0  0  0  0  0  0  0  0
   36.5120   26.3150   38.4220 H   0  0  0  0  0  0  0  0  0  0  0  0
   34.8920   27.4740   37.9660 C   0  0  0  0  0  0  0  0  0  0  0  0
   34.3660   26.9890   36.8250 N   0  0  0  0  0  0  0  0  0  0  0  0
   34.7580   26.1680   36.3120 H   0  0  0  0  0  0  0  0  0  0  0  0
   33.2880   27.7090   36.4620 C   0  0  0  0  0  0  0  0  0  0  0  0
   32.6910   27.5040   35.5630 H   0  0  0  0  0  0  0  0  0  0  0  0
   33.0660   28.7170   37.3780 C   0  0  0  0  0  3  0  0  0  0  0  0
   34.0740   28.5530   38.3040 C   0  0  0  0  0  0  0  0  0  0  0  0
   34.3370   29.2870   39.4430 C   0  0  0  0  0  3  0  0  0  0  0  0
   39.6610   29.9530   39.8290 O   0  0  0  0  0  0  0  0  0  0  0  0
   38.8820   30.2500   38.7380 C   0  0  0  0  0  0  0  0  0  0  0  0
   38.4460   31.5690   38.5940 C   0  0  0  0  0  0  0  0  0  0  0  0
   37.6510   31.8460   37.4720 C   0  0  0  0  0  0  0  0  0  0  0  0
   37.3560   30.8240   36.6020 N   0  0  0  0  0  0  0  0  0  0  0  0
   37.8000   29.5960   36.7950 C   0  0  0  0  0  0  0  0  0  0  0  0
   38.5630   29.2960   37.8580 N   0  0  0  0  0  0  0  0  0  0  0  0
   37.3220   32.8610   37.3720 H   0  0  0  0  0  0  0  0  0  0  0  0
   37.5090   28.8600   36.0460 H   0  0  0  0  0  0  0  0  0  0  0  0
   38.8140   32.5680   39.5690 C   0  0  0  0  0  0  0  0  0  0  0  0
   39.9650   33.3400   39.4710 C   0  0  0  0  0  0  0  0  0  0  0  0
   39.9250   34.1410   40.5820 C   0  0  0  0  0  0  0  0  0  0  0  0
   38.8210   33.8790   41.3140 N   0  0  0  0  0  0  0  0  0  0  0  0
   38.1760   32.9300   40.6790 N   0  0  0  0  0  0  0  0  0  0  0  0
   40.7390   33.3360   38.7060 H   0  0  0  0  0  0  0  0  0  0  0  0
   40.6240   34.9020   40.9120 H   0  0  0  0  0  0  0  0  0  0  0  0
   38.5010   34.3130   42.2080 H   0  0  0  0  0  0  0  0  0  0  0  0
  1  3  1  0  0  0  0
  1  2  2  0  0  0  0
  3  4  1  0  0  0  0
  4 10  1  0  0  0  0
  4  5  1  0  0  0  0
  5 12  1  0  0  0  0
  5 11  1  0  0  0  0
  6  5  1  0  0  0  0
  6 14  1  0  0  0  0
  7 16  1  0  0  0  0
  7  6  1  0  0  0  0
  8 17  1  6  0  0  0
  8  3  1  0  0  0  0
  8  7  1  0  0  0  0
  9  4  1  0  0  0  0
 13  6  1  0  0  0  0
 15  7  1  0  0  0  0
 19 18  1  0  0  0  0
 19  8  1  0  0  0  0
 20 19  2  0  0  0  0
 21 20  1  0  0  0  0
 22 28  2  0  0  0  0
 22 20  1  0  0  0  0
 23 22  1  0  0  0  0
 24 23  1  0  0  0  0
 25 23  1  0  0  0  0
 25 27  2  0  0  0  0
 26 25  1  0  0  0  0
 27 28  1  0  0  0  0
 28 29  1  0  0  0  0
 29 18  2  0  0  0  0
 30  1  1  0  0  0  0
 31 30  1  0  0  0  0
 32 31  1  0  0  0  0
 32 39  1  0  0  0  0
 33 32  2  0  0  0  0
 34 35  2  0  0  0  0
 34 33  1  0  0  0  0
 35 36  1  0  0  0  0
 36 31  2  0  0  0  0
 37 33  1  0  0  0  0
 38 35  1  0  0  0  0
 39 43  2  0  0  0  0
 40 39  1  0  0  0  0
 40 41  2  0  0  0  0
 41 45  1  0  0  0  0
 41 42  1  0  0  0  0
 42 46  1  0  0  0  0
 43 42  1  0  0  0  0
 44 40  1  0  0  0  0
M  END
>  <minimizedAffinity>
-6.66228819

$$$$

 OpenBabel03252508563D

 46 50  0  0  1  0  0  0  0  0999 V2000
   37.0190   27.5840   38.7690 C   0  0  0  0  0  0  0  0  0  0  0  0
   36.2630   26.7820   38.1250 O   0  0  0  0  0  0  0  0  0  0  0  0
   36.6900   28.8380   38.1050 N   0  0  0  0  0  0  0  0  0  0  0  0
   35.3010   29.2210   38.1990 C   0  0  0  0  0  0  0  0  0  0  0  0
   34.6770   28.7990   36.8510 C   0  0  0  0  0  0  0  0  0  0  0  0
   35.7640   29.0190   35.7830 C   0  0  0  0  0  0  0  0  0  0  0  0
   36.6580   30.1720   36.1790 C   0  0  0  0  0  0  0  0  0  0  0  0
   37.5420   29.7510   37.3690 C   0  0  1  0  0  0  0  0  0  0  0  0
   35.1580   30.2990   38.3770 H   0  0  0  0  0  0  0  0  0  0  0  0
   34.7270   28.6700   38.9680 H   0  0  0  0  0  0  0  0  0  0  0  0
   33.8540   29.4880   36.6490 H   0  0  0  0  0  0  0  0  0  0  0  0
   34.4190   27.7340   36.8980 H   0  0  0  0  0  0  0  0  0  0  0  0
   36.4000   28.1180   35.7200 H   0  0  0  0  0  0  0  0  0  0  0  0
   35.3110   29.2650   34.8070 H   0  0  0  0  0  0  0  0  0  0  0  0
   37.2260   30.5330   35.3290 H   0  0  0  0  0  0  0  0  0  0  0  0
   36.0210   30.9890   36.6000 H   0  0  0  0  0  0  0  0  0  0  0  0
   38.4150   29.2160   36.9870 H   0  0  0  0  0  0  0  0  0  0  0  0
   36.9610   31.7770   38.8070 C   0  0  0  0  0  3  0  0  0  0  0  0
   37.8620   30.9380   38.2030 C   0  0  0  0  0  0  0  0  0  0  0  0
   39.1970   31.2320   38.3930 C   0  0  0  0  0  0  0  0  0  0  0  0
   40.0450   30.6910   38.0020 H   0  0  0  0  0  0  0  0  0  0  0  0
   39.6210   32.3220   39.1580 C   0  0  0  0  0  0  0  0  0  0  0  0
   40.7970   32.8640   39.5260 N   0  0  0  0  0  0  0  0  0  0  0  0
   41.7250   32.4780   39.2410 H   0  0  0  0  0  0  0  0  0  0  0  0
   40.5930   33.9490   40.2960 C   0  0  0  0  0  0  0  0  0  0  0  0
   41.4040   34.5600   40.7170 H   0  0  0  0  0  0  0  0  0  0  0  0
   39.2400   34.1600   40.4630 C   0  0  0  0  0  3  0  0  0  0  0  0
   38.6540   33.1370   39.7470 C   0  0  0  0  0  0  0  0  0  0  0  0
   37.3140   32.8580   39.5670 C   0  0  0  0  0  3  0  0  0  0  0  0
   37.8680   27.2730   39.7840 O   0  0  0  0  0  0  0  0  0  0  0  0
   37.8140   27.7100   41.0830 C   0  0  0  0  0  0  0  0  0  0  0  0
   37.8300   26.7450   42.0930 C   0  0  0  0  0  0  0  0  0  0  0  0
   37.7730   27.2170   43.4120 C   0  0  0  0  0  0  0  0  0  0  0  0
   37.7050   28.5730   43.6260 N   0  0  0  0  0  0  0  0  0  0  0  0
   37.6920   29.4350   42.6280 C   0  0  0  0  0  0  0  0  0  0  0  0
   37.7460   29.0170   41.3530 N   0  0  0  0  0  0  0  0  0  0  0  0
   37.7870   26.4670   44.1770 H   0  0  0  0  0  0  0  0  0  0  0  0
   37.6360   30.4880   42.9070 H   0  0  0  0  0  0  0  0  0  0  0  0
   37.9040   25.3420   41.7560 C   0  0  0  0  0  0  0  0  0  0  0  0
   36.8400   24.6310   41.2160 C   0  0  0  0  0  0  0  0  0  0  0  0
   37.3330   23.3640   41.0540 C   0  0  0  0  0  0  0  0  0  0  0  0
   38.6170   23.2990   41.4660 N   0  0  0  0  0  0  0  0  0  0  0  0
   38.9300   24.5040   41.8820 N   0  0  0  0  0  0  0  0  0  0  0  0
   35.8360   24.9700   40.9680 H   0  0  0  0  0  0  0  0  0  0  0  0
   36.8470   22.4770   40.6620 H   0  0  0  0  0  0  0  0  0  0  0  0
   39.2700   22.4850   41.4750 H   0  0  0  0  0  0  0  0  0  0  0  0
  1 30  1  0  0  0  0
  2  1  2  0  0  0  0
  3  4  1  0  0  0  0
  3  1  1  0  0  0  0
  4  9  1  0  0  0  0
  4 10  1  0  0  0  0
  5 12  1  0  0  0  0
  5  4  1  0  0  0  0
  6  7  1  0  0  0  0
  6  5  1  0  0  0  0
  7 16  1  0  0  0  0
  7  8  1  0  0  0  0
  8 17  1  6  0  0  0
  8  3  1  0  0  0  0
  8 19  1  0  0  0  0
 11  5  1  0  0  0  0
 13  6  1  0  0  0  0
 14  6  1  0  0  0  0
 15  7  1  0  0  0  0
 18 29  1  0  0  0  0
 19 20  1  0  0  0  0
 19 18  2  0  0  0  0
 20 22  2  0  0  0  0
 21 20  1  0  0  0  0
 22 23  1  0  0  0  0
 22 28  1  0  0  0  0
 23 25  1  0  0  0  0
 24 23  1  0  0  0  0
 25 27  2  0  0  0  0
 25 26  1  0  0  0  0
 28 27  1  0  0  0  0
 29 28  2  0  0  0  0
 30 31  1  0  0  0  0
 31 36  2  0  0  0  0
 31 32  1  0  0  0  0
 32 33  2  0  0  0  0
 33 34  1  0  0  0  0
 33 37  1  0  0  0  0
 35 38  1  0  0  0  0
 35 34  2  0  0  0  0
 36 35  1  0  0  0  0
 39 43  2  0  0  0  0
 39 32  1  0  0  0  0
 40 39  1  0  0  0  0
 41 40  2  0  0  0  0
 41 42  1  0  0  0  0
 42 46  1  0  0  0  0
 42 43  1  0  0  0  0
 44 40  1  0  0  0  0
 45 41  1  0  0  0  0
M  END
>  <minimizedAffinity>
-6.62599373

$$$$

 OpenBabel03252508563D

 46 50  0  0  1  0  0  0  0  0999 V2000
   37.8420   29.9530   37.7290 C   0  0  0  0  0  0  0  0  0  0  0  0
   37.4220   30.4480   36.6300 O   0  0  0  0  0  0  0  0  0  0  0  0
   36.7780   28.9980   38.0050 N   0  0  0  0  0  0  0  0  0  0  0  0
   36.6040   27.9830   36.9940 C   0  0  0  0  0  0  0  0  0  0  0  0
   35.4110   28.4670   36.1400 C   0  0  0  0  0  0  0  0  0  0  0  0
   34.4430   29.1700   37.1080 C   0  0  0  0  0  0  0  0  0  0  0  0
   34.5290   28.5410   38.4800 C   0  0  0  0  0  0  0  0  0  0  0  0
   35.8720   28.9170   39.1350 C   0  0  1  0  0  0  0  0  0  0  0  0
   36.4060   26.9820   37.4110 H   0  0  0  0  0  0  0  0  0  0  0  0
   37.4490   27.8950   36.2860 H   0  0  0  0  0  0  0  0  0  0  0  0
   34.9160   27.5770   35.7470 H   0  0  0  0  0  0  0  0  0  0  0  0
   35.7770   29.1880   35.3980 H   0  0  0  0  0  0  0  0  0  0  0  0
   34.7400   30.2290   37.2150 H   0  0  0  0  0  0  0  0  0  0  0  0
   33.4010   29.0740   36.7590 H   0  0  0  0  0  0  0  0  0  0  0  0
   33.6680   28.8060   39.0840 H   0  0  0  0  0  0  0  0  0  0  0  0
   34.5960   27.4310   38.3600 H   0  0  0  0  0  0  0  0  0  0  0  0
   35.7730   29.9000   39.6010 H   0  0  0  0  0  0  0  0  0  0  0  0
   36.5610   27.9650   41.4000 C   0  0  0  0  0  3  0  0  0  0  0  0
   36.3020   27.8370   40.0590 C   0  0  0  0  0  0  0  0  0  0  0  0
   36.4610   26.5750   39.5220 C   0  0  0  0  0  0  0  0  0  0  0  0
   36.3040   26.2800   38.4960 H   0  0  0  0  0  0  0  0  0  0  0  0
   36.8620   25.4800   40.2910 C   0  0  0  0  0  0  0  0  0  0  0  0
   37.1010   24.1710   40.0850 N   0  0  0  0  0  0  0  0  0  0  0  0
   37.0030   23.7060   39.1550 H   0  0  0  0  0  0  0  0  0  0  0  0
   37.4740   23.5760   41.2320 C   0  0  0  0  0  0  0  0  0  0  0  0
   37.7220   22.5080   41.3150 H   0  0  0  0  0  0  0  0  0  0  0  0
   37.4930   24.5000   42.2580 C   0  0  0  0  0  3  0  0  0  0  0  0
   37.1090   25.6770   41.6510 C   0  0  0  0  0  0  0  0  0  0  0  0
   36.9560   26.9310   42.2040 C   0  0  0  0  0  3  0  0  0  0  0  0
   38.9810   30.2820   38.3930 O   0  0  0  0  0  0  0  0  0  0  0  0
   39.3910   29.8330   39.6230 C   0  0  0  0  0  0  0  0  0  0  0  0
   39.2330   30.6940   40.7120 C   0  0  0  0  0  0  0  0  0  0  0  0
   39.6600   30.2120   41.9580 C   0  0  0  0  0  0  0  0  0  0  0  0
   40.1970   28.9500   42.0300 N   0  0  0  0  0  0  0  0  0  0  0  0
   40.3200   28.1840   40.9630 C   0  0  0  0  0  0  0  0  0  0  0  0
   39.9220   28.6130   39.7550 N   0  0  0  0  0  0  0  0  0  0  0  0
   39.5330   30.8820   42.7860 H   0  0  0  0  0  0  0  0  0  0  0  0
   40.7590   27.2000   41.1290 H   0  0  0  0  0  0  0  0  0  0  0  0
   38.6550   32.0040   40.5250 C   0  0  0  0  0  0  0  0  0  0  0  0
   39.4110   33.1670   40.4510 C   0  0  0  0  0  0  0  0  0  0  0  0
   38.4820   34.1580   40.2730 C   0  0  0  0  0  0  0  0  0  0  0  0
   37.2360   33.6390   40.2380 N   0  0  0  0  0  0  0  0  0  0  0  0
   37.3750   32.3430   40.3930 N   0  0  0  0  0  0  0  0  0  0  0  0
   40.4890   33.2970   40.5170 H   0  0  0  0  0  0  0  0  0  0  0  0
   38.6240   35.2280   40.1650 H   0  0  0  0  0  0  0  0  0  0  0  0
   36.3200   34.1230   40.1170 H   0  0  0  0  0  0  0  0  0  0  0  0
  1  3  1  0  0  0  0
  1 30  1  0  0  0  0
  2  1  2  0  0  0  0
  3  8  1  0  0  0  0
  4  9  1  0  0  0  0
  4  3  1  0  0  0  0
  5  4  1  0  0  0  0
  5  6  1  0  0  0  0
  6 13  1  0  0  0  0
  6  7  1  0  0  0  0
  7 15  1  0  0  0  0
  7  8  1  0  0  0  0
  8 17  1  1  0  0  0
  8 19  1  0  0  0  0
 10  4  1  0  0  0  0
 11  5  1  0  0  0  0
 12  5  1  0  0  0  0
 14  6  1  0  0  0  0
 16  7  1  0  0  0  0
 18 29  1  0  0  0  0
 19 18  2  0  0  0  0
 20 19  1  0  0  0  0
 20 22  2  0  0  0  0
 21 20  1  0  0  0  0
 22 28  1  0  0  0  0
 23 22  1  0  0  0  0
 23 25  1  0  0  0  0
 24 23  1  0  0  0  0
 25 26  1  0  0  0  0
 25 27  2  0  0  0  0
 28 29  2  0  0  0  0
 28 27  1  0  0  0  0
 30 31  1  0  0  0  0
 31 36  2  0  0  0  0
 31 32  1  0  0  0  0
 32 33  2  0  0  0  0
 33 34  1  0  0  0  0
 33 37  1  0  0  0  0
 35 38  1  0  0  0  0
 35 34  2  0  0  0  0
 36 35  1  0  0  0  0
 39 32  1  0  0  0  0
 40 44  1  0  0  0  0
 40 39  1  0  0  0  0
 41 40  2  0  0  0  0
 42 41  1  0  0  0  0
 42 43  1  0  0  0  0
 43 39  2  0  0  0  0
 45 41  1  0  0  0  0
 46 42  1  0  0  0  0
M  END
>  <minimizedAffinity>
-6.59768295

$$$$

 OpenBabel03252508563D

 46 50  0  0  1  0  0  0  0  0999 V2000
   38.8730   29.2960   41.8500 C   0  0  0  0  0  0  0  0  0  0  0  0
   39.0150   28.9380   43.0670 O   0  0  0  0  0  0  0  0  0  0  0  0
   37.7990   28.4000   41.4420 N   0  0  0  0  0  0  0  0  0  0  0  0
   36.5740   28.5510   42.1910 C   0  0  0  0  0  0  0  0  0  0  0  0
   36.5970   27.4110   43.2320 C   0  0  0  0  0  0  0  0  0  0  0  0
   37.2740   26.2110   42.5460 C   0  0  0  0  0  0  0  0  0  0  0  0
   36.9930   26.2330   41.0610 C   0  0  0  0  0  0  0  0  0  0  0  0
   37.7780   27.3860   40.4060 C   0  0  1  0  0  0  0  0  0  0  0  0
   35.6700   28.4900   41.5640 H   0  0  0  0  0  0  0  0  0  0  0  0
   36.5140   29.4830   42.7840 H   0  0  0  0  0  0  0  0  0  0  0  0
   35.5590   27.1450   43.4400 H   0  0  0  0  0  0  0  0  0  0  0  0
   37.1990   27.7300   44.0930 H   0  0  0  0  0  0  0  0  0  0  0  0
   38.3700   26.2900   42.6730 H   0  0  0  0  0  0  0  0  0  0  0  0
   36.8870   25.2590   42.9480 H   0  0  0  0  0  0  0  0  0  0  0  0
   37.1960   25.2670   40.6130 H   0  0  0  0  0  0  0  0  0  0  0  0
   35.9240   26.5200   40.9050 H   0  0  0  0  0  0  0  0  0  0  0  0
   38.7950   27.0470   40.2000 H   0  0  0  0  0  0  0  0  0  0  0  0
   35.6950   28.1390   39.1380 C   0  0  0  0  0  3  0  0  0  0  0  0
   37.0410   27.8850   39.2170 C   0  0  0  0  0  0  0  0  0  0  0  0
   37.7760   28.1190   38.0720 C   0  0  0  0  0  0  0  0  0  0  0  0
   38.8390   27.9800   37.9420 H   0  0  0  0  0  0  0  0  0  0  0  0
   37.1950   28.5890   36.8930 C   0  0  0  0  0  0  0  0  0  0  0  0
   37.6120   28.9080   35.6520 N   0  0  0  0  0  0  0  0  0  0  0  0
   38.6070   28.8370   35.3420 H   0  0  0  0  0  0  0  0  0  0  0  0
   36.5750   29.3210   34.9010 C   0  0  0  0  0  0  0  0  0  0  0  0
   36.6680   29.6360   33.8520 H   0  0  0  0  0  0  0  0  0  0  0  0
   35.4120   29.2860   35.6430 C   0  0  0  0  0  3  0  0  0  0  0  0
   35.8200   28.8290   36.8780 C   0  0  0  0  0  0  0  0  0  0  0  0
   35.0690   28.6000   38.0130 C   0  0  0  0  0  3  0  0  0  0  0  0
   39.5710   30.2580   41.1920 O   0  0  0  0  0  0  0  0  0  0  0  0
   40.0750   30.2000   39.9160 C   0  0  0  0  0  0  0  0  0  0  0  0
   39.6890   31.2020   39.0220 C   0  0  0  0  0  0  0  0  0  0  0  0
   40.2150   31.1210   37.7250 C   0  0  0  0  0  0  0  0  0  0  0  0
   41.0610   30.0820   37.4190 N   0  0  0  0  0  0  0  0  0  0  0  0
   41.3880   29.1650   38.3100 C   0  0  0  0  0  0  0  0  0  0  0  0
   40.9020   29.2130   39.5610 N   0  0  0  0  0  0  0  0  0  0  0  0
   39.9120   31.8950   37.0490 H   0  0  0  0  0  0  0  0  0  0  0  0
   42.0660   28.3840   37.9650 H   0  0  0  0  0  0  0  0  0  0  0  0
   38.7920   32.2510   39.4490 C   0  0  0  0  0  0  0  0  0  0  0  0
   39.2300   33.4840   39.9160 C   0  0  0  0  0  0  0  0  0  0  0  0
   38.0740   34.1610   40.2040 C   0  0  0  0  0  0  0  0  0  0  0  0
   36.9960   33.3960   39.9290 N   0  0  0  0  0  0  0  0  0  0  0  0
   37.4620   32.2550   39.4780 N   0  0  0  0  0  0  0  0  0  0  0  0
   40.2440   33.8580   40.0400 H   0  0  0  0  0  0  0  0  0  0  0  0
   37.9380   35.1640   40.5950 H   0  0  0  0  0  0  0  0  0  0  0  0
   35.9820   33.6170   40.0370 H   0  0  0  0  0  0  0  0  0  0  0  0
  1  2  2  0  0  0  0
  3  1  1  0  0  0  0
  3  4  1  0  0  0  0
  4 10  1  0  0  0  0
  4  5  1  0  0  0  0
  5 11  1  0  0  0  0
  5 12  1  0  0  0  0
  6 13  1  0  0  0  0
  6 14  1  0  0  0  0
  6  5  1  0  0  0  0
  7  6  1  0  0  0  0
  8 17  1  6  0  0  0
  8  7  1  0  0  0  0
  8  3  1  0  0  0  0
  9  4  1  0  0  0  0
 15  7  1  0  0  0  0
 16  7  1  0  0  0  0
 18 19  1  0  0  0  0
 19  8  1  0  0  0  0
 20 19  2  0  0  0  0
 21 20  1  0  0  0  0
 22 20  1  0  0  0  0
 23 22  1  0  0  0  0
 24 23  1  0  0  0  0
 25 27  2  0  0  0  0
 25 23  1  0  0  0  0
 26 25  1  0  0  0  0
 27 28  1  0  0  0  0
 28 22  2  0  0  0  0
 28 29  1  0  0  0  0
 29 18  2  0  0  0  0
 30  1  1  0  0  0  0
 31 30  1  0  0  0  0
 32 39  1  0  0  0  0
 32 31  2  0  0  0  0
 33 32  1  0  0  0  0
 34 33  2  0  0  0  0
 34 35  1  0  0  0  0
 35 36  2  0  0  0  0
 36 31  1  0  0  0  0
 37 33  1  0  0  0  0
 38 35  1  0  0  0  0
 39 43  2  0  0  0  0
 39 40  1  0  0  0  0
 40 44  1  0  0  0  0
 40 41  2  0  0  0  0
 41 45  1  0  0  0  0
 42 46  1  0  0  0  0
 42 41  1  0  0  0  0
 43 42  1  0  0  0  0
M  END
>  <minimizedAffinity>
-6.5420928

$$$$

 OpenBabel03252508563D

 46 50  0  0  1  0  0  0  0  0999 V2000
   38.2730   26.8720   40.1780 C   0  0  0  0  0  0  0  0  0  0  0  0
   38.5910   25.8250   40.8370 O   0  0  0  0  0  0  0  0  0  0  0  0
   38.3920   27.8790   41.2230 N   0  0  0  0  0  0  0  0  0  0  0  0
   39.7100   27.9910   41.8020 C   0  0  0  0  0  0  0  0  0  0  0  0
   39.6370   27.1970   43.1240 C   0  0  0  0  0  0  0  0  0  0  0  0
   38.2180   27.4100   43.6800 C   0  0  0  0  0  0  0  0  0  0  0  0
   37.6990   28.7710   43.2760 C   0  0  0  0  0  0  0  0  0  0  0  0
   37.3920   28.7780   41.7660 C   0  0  1  0  0  0  0  0  0  0  0  0
   40.0160   29.0340   41.9880 H   0  0  0  0  0  0  0  0  0  0  0  0
   40.5090   27.5020   41.2140 H   0  0  0  0  0  0  0  0  0  0  0  0
   40.3470   27.6560   43.8140 H   0  0  0  0  0  0  0  0  0  0  0  0
   39.7890   26.1320   42.9050 H   0  0  0  0  0  0  0  0  0  0  0  0
   37.5380   26.6580   43.2400 H   0  0  0  0  0  0  0  0  0  0  0  0
   38.2170   27.3630   44.7820 H   0  0  0  0  0  0  0  0  0  0  0  0
   36.8510   29.0620   43.8870 H   0  0  0  0  0  0  0  0  0  0  0  0
   38.5290   29.5140   43.3790 H   0  0  0  0  0  0  0  0  0  0  0  0
   36.3950   28.3600   41.6080 H   0  0  0  0  0  0  0  0  0  0  0  0
   36.7210   30.8190   40.3890 C   0  0  0  0  0  3  0  0  0  0  0  0
   37.5820   30.1450   41.2190 C   0  0  0  0  0  0  0  0  0  0  0  0
   38.7370   30.8110   41.5740 C   0  0  0  0  0  0  0  0  0  0  0  0
   39.5270   30.4470   42.2130 H   0  0  0  0  0  0  0  0  0  0  0  0
   39.0270   32.1000   41.1220 C   0  0  0  0  0  0  0  0  0  0  0  0
   40.0230   32.9940   41.2750 N   0  0  0  0  0  0  0  0  0  0  0  0
   40.8720   32.8170   41.8580 H   0  0  0  0  0  0  0  0  0  0  0  0
   39.7590   34.1150   40.5800 C   0  0  0  0  0  0  0  0  0  0  0  0
   40.4260   34.9880   40.5510 H   0  0  0  0  0  0  0  0  0  0  0  0
   38.5470   33.9920   39.9300 C   0  0  0  0  0  3  0  0  0  0  0  0
   38.1090   32.7320   40.2810 C   0  0  0  0  0  0  0  0  0  0  0  0
   36.9490   32.0810   39.9140 C   0  0  0  0  0  3  0  0  0  0  0  0
   37.9300   26.9410   38.8650 O   0  0  0  0  0  0  0  0  0  0  0  0
   36.9770   27.7430   38.2910 C   0  0  0  0  0  0  0  0  0  0  0  0
   37.4170   28.8170   37.5140 C   0  0  0  0  0  0  0  0  0  0  0  0
   36.4240   29.6230   36.9390 C   0  0  0  0  0  0  0  0  0  0  0  0
   35.1050   29.3130   37.1710 N   0  0  0  0  0  0  0  0  0  0  0  0
   34.7530   28.2830   37.9160 C   0  0  0  0  0  0  0  0  0  0  0  0
   35.6780   27.4910   38.4820 N   0  0  0  0  0  0  0  0  0  0  0  0
   36.7730   30.4440   36.3450 H   0  0  0  0  0  0  0  0  0  0  0  0
   33.6810   28.1250   38.0370 H   0  0  0  0  0  0  0  0  0  0  0  0
   38.8300   29.0540   37.3340 C   0  0  0  0  0  0  0  0  0  0  0  0
   39.5260   30.0560   37.9980 C   0  0  0  0  0  0  0  0  0  0  0  0
   40.8120   29.9270   37.5440 C   0  0  0  0  0  0  0  0  0  0  0  0
   40.9020   28.9120   36.6590 N   0  0  0  0  0  0  0  0  0  0  0  0
   39.6940   28.4080   36.5550 N   0  0  0  0  0  0  0  0  0  0  0  0
   39.1660   30.7890   38.7170 H   0  0  0  0  0  0  0  0  0  0  0  0
   41.6960   30.5030   37.7960 H   0  0  0  0  0  0  0  0  0  0  0  0
   41.7340   28.5590   36.1370 H   0  0  0  0  0  0  0  0  0  0  0  0
  1  2  2  0  0  0  0
  1  3  1  0  0  0  0
  3  8  1  0  0  0  0
  3  4  1  0  0  0  0
  4  9  1  0  0  0  0
  4  5  1  0  0  0  0
  5  6  1  0  0  0  0
  5 11  1  0  0  0  0
  6 14  1  0  0  0  0
  7 16  1  0  0  0  0
  7  6  1  0  0  0  0
  7 15  1  0  0  0  0
  8 17  1  6  0  0  0
  8  7  1  0  0  0  0
 10  4  1  0  0  0  0
 12  5  1  0  0  0  0
 13  6  1  0  0  0  0
 18 19  1  0  0  0  0
 19 20  2  0  0  0  0
 19  8  1  0  0  0  0
 20 21  1  0  0  0  0
 22 23  1  0  0  0  0
 22 20  1  0  0  0  0
 23 24  1  0  0  0  0
 25 23  1  0  0  0  0
 26 25  1  0  0  0  0
 27 28  1  0  0  0  0
 27 25  2  0  0  0  0
 28 22  2  0  0  0  0
 29 28  1  0  0  0  0
 29 18  2  0  0  0  0
 30  1  1  0  0  0  0
 31 36  1  0  0  0  0
 31 30  1  0  0  0  0
 32 31  2  0  0  0  0
 33 34  2  0  0  0  0
 33 32  1  0  0  0  0
 34 35  1  0  0  0  0
 35 38  1  0  0  0  0
 35 36  2  0  0  0  0
 37 33  1  0  0  0  0
 39 32  1  0  0  0  0
 39 40  1  0  0  0  0
 40 44  1  0  0  0  0
 41 45  1  0  0  0  0
 41 40  2  0  0  0  0
 42 41  1  0  0  0  0
 43 42  1  0  0  0  0
 43 39  2  0  0  0  0
 46 42  1  0  0  0  0
M  END
>  <minimizedAffinity>
-6.37237787

$$$$

 OpenBabel03252508563D

 46 50  0  0  1  0  0  0  0  0999 V2000
   37.0450   30.2860   36.5690 C   0  0  0  0  0  0  0  0  0  0  0  0
   36.5740   30.3830   35.3860 O   0  0  0  0  0  0  0  0  0  0  0  0
   36.1630   29.2650   37.1150 N   0  0  0  0  0  0  0  0  0  0  0  0
   36.2030   28.0010   36.4190 C   0  0  0  0  0  0  0  0  0  0  0  0
   34.9680   28.0130   35.4930 C   0  0  0  0  0  0  0  0  0  0  0  0
   33.8620   28.7630   36.2570 C   0  0  0  0  0  0  0  0  0  0  0  0
   34.0210   28.5530   37.7450 C   0  0  0  0  0  0  0  0  0  0  0  0
   35.2550   29.3280   38.2450 C   0  0  1  0  0  0  0  0  0  0  0  0
   36.1780   27.1310   37.0950 H   0  0  0  0  0  0  0  0  0  0  0  0
   37.0700   27.8810   35.7430 H   0  0  0  0  0  0  0  0  0  0  0  0
   34.6520   26.9760   35.3660 H   0  0  0  0  0  0  0  0  0  0  0  0
   35.2180   28.5620   34.5760 H   0  0  0  0  0  0  0  0  0  0  0  0
   33.9600   29.8480   36.0670 H   0  0  0  0  0  0  0  0  0  0  0  0
   32.8640   28.3900   35.9690 H   0  0  0  0  0  0  0  0  0  0  0  0
   33.1100   28.8100   38.2740 H   0  0  0  0  0  0  0  0  0  0  0  0
   34.2900   27.4830   37.9270 H   0  0  0  0  0  0  0  0  0  0  0  0
   34.9680   30.3660   38.4310 H   0  0  0  0  0  0  0  0  0  0  0  0
   36.1990   27.3090   39.4870 C   0  0  0  0  0  3  0  0  0  0  0  0
   35.8470   28.6330   39.4160 C   0  0  0  0  0  0  0  0  0  0  0  0
   36.0670   29.3860   40.5510 C   0  0  0  0  0  0  0  0  0  0  0  0
   35.8570   30.4370   40.6850 H   0  0  0  0  0  0  0  0  0  0  0  0
   36.6180   28.8440   41.7140 C   0  0  0  0  0  0  0  0  0  0  0  0
   36.9500   29.2860   42.9420 N   0  0  0  0  0  0  0  0  0  0  0  0
   36.8180   30.2740   43.2550 H   0  0  0  0  0  0  0  0  0  0  0  0
   37.4620   28.2840   43.6790 C   0  0  0  0  0  0  0  0  0  0  0  0
   37.8050   28.4020   44.7170 H   0  0  0  0  0  0  0  0  0  0  0  0
   37.4850   27.1190   42.9400 C   0  0  0  0  0  3  0  0  0  0  0  0
   36.9560   27.4900   41.7210 C   0  0  0  0  0  0  0  0  0  0  0  0
   36.7430   26.7200   40.5950 C   0  0  0  0  0  3  0  0  0  0  0  0
   38.0870   30.9830   37.0940 O   0  0  0  0  0  0  0  0  0  0  0  0
   38.1380   31.6240   38.3070 C   0  0  0  0  0  0  0  0  0  0  0  0
   39.0590   31.1590   39.2480 C   0  0  0  0  0  0  0  0  0  0  0  0
   39.0910   31.8300   40.4780 C   0  0  0  0  0  0  0  0  0  0  0  0
   38.2300   32.8820   40.6800 N   0  0  0  0  0  0  0  0  0  0  0  0
   37.3810   33.2740   39.7490 C   0  0  0  0  0  0  0  0  0  0  0  0
   37.3240   32.6540   38.5600 N   0  0  0  0  0  0  0  0  0  0  0  0
   39.8020   31.4640   41.1920 H   0  0  0  0  0  0  0  0  0  0  0  0
   36.7430   34.1190   40.0100 H   0  0  0  0  0  0  0  0  0  0  0  0
   39.9190   30.0420   38.9320 C   0  0  0  0  0  0  0  0  0  0  0  0
   39.6150   28.7280   39.2660 C   0  0  0  0  0  0  0  0  0  0  0  0
   40.6780   28.0080   38.7890 C   0  0  0  0  0  0  0  0  0  0  0  0
   41.5770   28.8250   38.2000 N   0  0  0  0  0  0  0  0  0  0  0  0
   41.0910   30.0400   38.3030 N   0  0  0  0  0  0  0  0  0  0  0  0
   38.7460   28.3290   39.7850 H   0  0  0  0  0  0  0  0  0  0  0  0
   40.8640   26.9400   38.8280 H   0  0  0  0  0  0  0  0  0  0  0  0
   42.4860   28.5910   37.7430 H   0  0  0  0  0  0  0  0  0  0  0  0
  1 30  1  0  0  0  0
  1  3  1  0  0  0  0
  2  1  2  0  0  0  0
  3  8  1  0  0  0  0
  4  9  1  0  0  0  0
  4  3  1  0  0  0  0
  5  6  1  0  0  0  0
  5  4  1  0  0  0  0
  6  7  1  0  0  0  0
  7 16  1  0  0  0  0
  7  8  1  0  0  0  0
  7 15  1  0  0  0  0
  8 17  1  1  0  0  0
  8 19  1  0  0  0  0
 10  4  1  0  0  0  0
 11  5  1  0  0  0  0
 12  5  1  0  0  0  0
 13  6  1  0  0  0  0
 14  6  1  0  0  0  0
 18 29  1  0  0  0  0
 19 18  2  0  0  0  0
 19 20  1  0  0  0  0
 20 21  1  0  0  0  0
 20 22  2  0  0  0  0
 22 28  1  0  0  0  0
 22 23  1  0  0  0  0
 23 24  1  0  0  0  0
 23 25  1  0  0  0  0
 25 26  1  0  0  0  0
 27 25  2  0  0  0  0
 28 27  1  0  0  0  0
 29 28  2  0  0  0  0
 30 31  1  0  0  0  0
 31 36  2  0  0  0  0
 31 32  1  0  0  0  0
 32 33  2  0  0  0  0
 33 34  1  0  0  0  0
 33 37  1  0  0  0  0
 35 38  1  0  0  0  0
 35 34  2  0  0  0  0
 36 35  1  0  0  0  0
 39 32  1  0  0  0  0
 39 40  1  0  0  0  0
 40 44  1  0  0  0  0
 41 45  1  0  0  0  0
 41 40  2  0  0  0  0
 42 43  1  0  0  0  0
 42 41  1  0  0  0  0
 43 39  2  0  0  0  0
 46 42  1  0  0  0  0
M  END
>  <minimizedAffinity>
-6.35740995

$$$$

 OpenBabel03252508563D

 46 50  0  0  1  0  0  0  0  0999 V2000
   39.9530   30.9070   41.3070 C   0  0  0  0  0  0  0  0  0  0  0  0
   40.7360   31.8350   41.7000 O   0  0  0  0  0  0  0  0  0  0  0  0
   39.1330   31.6460   40.3580 N   0  0  0  0  0  0  0  0  0  0  0  0
   39.8650   32.2290   39.2590 C   0  0  0  0  0  0  0  0  0  0  0  0
   40.0570   33.7110   39.6450 C   0  0  0  0  0  0  0  0  0  0  0  0
   38.7860   34.1280   40.4070 C   0  0  0  0  0  0  0  0  0  0  0  0
   37.5940   33.3520   39.8970 C   0  0  0  0  0  0  0  0  0  0  0  0
   37.7020   31.8840   40.3530 C   0  0  1  0  0  0  0  0  0  0  0  0
   39.3420   32.1410   38.2920 H   0  0  0  0  0  0  0  0  0  0  0  0
   40.8880   31.8290   39.1290 H   0  0  0  0  0  0  0  0  0  0  0  0
   40.1010   34.2820   38.7160 H   0  0  0  0  0  0  0  0  0  0  0  0
   40.9270   33.7940   40.3090 H   0  0  0  0  0  0  0  0  0  0  0  0
   38.9050   33.8790   41.4770 H   0  0  0  0  0  0  0  0  0  0  0  0
   38.5760   35.2020   40.2620 H   0  0  0  0  0  0  0  0  0  0  0  0
   36.6650   33.8260   40.1940 H   0  0  0  0  0  0  0  0  0  0  0  0
   37.6610   33.2870   38.7820 H   0  0  0  0  0  0  0  0  0  0  0  0
   37.3110   31.8020   41.3700 H   0  0  0  0  0  0  0  0  0  0  0  0
   36.0960   30.0390   39.6290 C   0  0  0  0  0  3  0  0  0  0  0  0
   37.0400   30.9980   39.3630 C   0  0  0  0  0  0  0  0  0  0  0  0
   37.4060   31.1460   38.0400 C   0  0  0  0  0  0  0  0  0  0  0  0
   38.1260   31.8430   37.6390 H   0  0  0  0  0  0  0  0  0  0  0  0
   36.8520   30.3710   37.0190 C   0  0  0  0  0  0  0  0  0  0  0  0
   36.9850   30.2680   35.6830 N   0  0  0  0  0  0  0  0  0  0  0  0
   37.6360   30.8600   35.1200 H   0  0  0  0  0  0  0  0  0  0  0  0
   36.1690   29.3120   35.2030 C   0  0  0  0  0  0  0  0  0  0  0  0
   36.1000   29.0450   34.1390 H   0  0  0  0  0  0  0  0  0  0  0  0
   35.4550   28.7390   36.2360 C   0  0  0  0  0  3  0  0  0  0  0  0
   35.8950   29.4130   37.3560 C   0  0  0  0  0  0  0  0  0  0  0  0
   35.5170   29.2500   38.6740 C   0  0  0  0  0  3  0  0  0  0  0  0
   39.9510   29.6100   41.7140 O   0  0  0  0  0  0  0  0  0  0  0  0
   38.8770   28.8680   42.1370 C   0  0  0  0  0  0  0  0  0  0  0  0
   38.4760   27.7940   41.3380 C   0  0  0  0  0  0  0  0  0  0  0  0
   37.3760   27.0520   41.7910 C   0  0  0  0  0  0  0  0  0  0  0  0
   36.7720   27.4190   42.9690 N   0  0  0  0  0  0  0  0  0  0  0  0
   37.1990   28.4460   43.6800 C   0  0  0  0  0  0  0  0  0  0  0  0
   38.2490   29.1770   43.2750 N   0  0  0  0  0  0  0  0  0  0  0  0
   37.0780   26.2320   41.1700 H   0  0  0  0  0  0  0  0  0  0  0  0
   36.6490   28.6520   44.5990 H   0  0  0  0  0  0  0  0  0  0  0  0
   39.1840   27.4950   40.1150 C   0  0  0  0  0  0  0  0  0  0  0  0
   40.2010   26.5520   40.0340 C   0  0  0  0  0  0  0  0  0  0  0  0
   40.5850   26.5870   38.7200 C   0  0  0  0  0  0  0  0  0  0  0  0
   39.8510   27.4900   38.0360 N   0  0  0  0  0  0  0  0  0  0  0  0
   39.0190   28.0180   38.9030 N   0  0  0  0  0  0  0  0  0  0  0  0
   40.6210   25.9180   40.8130 H   0  0  0  0  0  0  0  0  0  0  0  0
   41.3510   26.0150   38.2070 H   0  0  0  0  0  0  0  0  0  0  0  0
   39.8960   27.7530   37.0270 H   0  0  0  0  0  0  0  0  0  0  0  0
  1  2  2  0  0  0  0
  1 30  1  0  0  0  0
  3  1  1  0  0  0  0
  4  5  1  0  0  0  0
  4  3  1  0  0  0  0
  5 12  1  0  0  0  0
  5  6  1  0  0  0  0
  6 13  1  0  0  0  0
  7 15  1  0  0  0  0
  7  8  1  0  0  0  0
  7  6  1  0  0  0  0
  8  3  1  0  0  0  0
  8 17  1  1  0  0  0
  9  4  1  0  0  0  0
 10  4  1  0  0  0  0
 11  5  1  0  0  0  0
 14  6  1  0  0  0  0
 16  7  1  0  0  0  0
 19 18  1  0  0  0  0
 19  8  1  0  0  0  0
 20 19  2  0  0  0  0
 21 20  1  0  0  0  0
 22 28  2  0  0  0  0
 22 20  1  0  0  0  0
 23 22  1  0  0  0  0
 24 23  1  0  0  0  0
 25 23  1  0  0  0  0
 25 27  2  0  0  0  0
 26 25  1  0  0  0  0
 27 28  1  0  0  0  0
 28 29  1  0  0  0  0
 29 18  2  0  0  0  0
 30 31  1  0  0  0  0
 31 36  1  0  0  0  0
 32 33  1  0  0  0  0
 32 31  2  0  0  0  0
 33 34  2  0  0  0  0
 34 35  1  0  0  0  0
 35 38  1  0  0  0  0
 36 35  2  0  0  0  0
 37 33  1  0  0  0  0
 39 32  1  0  0  0  0
 40 39  1  0  0  0  0
 40 44  1  0  0  0  0
 41 40  2  0  0  0  0
 42 41  1  0  0  0  0
 42 43  1  0  0  0  0
 43 39  2  0  0  0  0
 45 41  1  0  0  0  0
 46 42  1  0  0  0  0
M  END
>  <minimizedAffinity>
-6.33492279

$$$$
