
 OpenBabel03242510143D

 45 49  0  0  1  0  0  0  0  0999 V2000
   38.7030   30.3550   40.5290 N   0  0  0  0  0  0  0  0  0  0  0  0
   40.0530   30.8530   40.2410 C   0  0  0  0  0  0  0  0  0  0  0  0
   40.0440   32.3490   39.9940 C   0  0  0  0  0  0  0  0  0  0  0  0
   39.2590   32.6960   38.8240 N   0  0  0  0  0  0  0  0  0  0  0  0
   38.4180   31.5610   38.5010 C   0  0  0  0  0  0  0  0  0  0  0  0
   37.7080   31.1150   39.7990 C   0  0  1  0  0  0  0  0  0  0  0  0
   40.5360   30.3490   39.4060 H   0  0  0  0  0  0  0  0  0  0  0  0
   40.6800   30.6820   41.1320 H   0  0  0  0  0  0  0  0  0  0  0  0
   41.0920   32.6170   39.7490 H   0  0  0  0  0  0  0  0  0  0  0  0
   39.7660   32.9290   40.8840 H   0  0  0  0  0  0  0  0  0  0  0  0
   39.8260   32.9860   38.0250 H   0  0  0  0  0  0  0  0  0  0  0  0
   39.0470   30.7800   38.0790 H   0  0  0  0  0  0  0  0  0  0  0  0
   37.6320   31.9550   37.8150 H   0  0  0  0  0  0  0  0  0  0  0  0
   37.4280   32.0420   40.3450 H   0  0  0  0  0  0  0  0  0  0  0  0
   35.4500   29.8690   40.0230 C   0  0  0  0  0  3  0  0  0  0  0  0
   36.5310   30.3600   39.3410 C   0  0  0  0  0  0  0  0  0  0  0  0
   36.4700   30.0930   37.9680 C   0  0  0  0  0  0  0  0  0  0  0  0
   37.2640   30.4260   37.3110 H   0  0  0  0  0  0  0  0  0  0  0  0
   35.4540   29.4150   37.3330 C   0  0  0  0  0  0  0  0  0  0  0  0
   35.2170   29.0670   36.0610 N   0  0  0  0  0  0  0  0  0  0  0  0
   35.8290   29.2710   35.2390 H   0  0  0  0  0  0  0  0  0  0  0  0
   34.0540   28.4050   36.0050 C   0  0  0  0  0  0  0  0  0  0  0  0
   33.6090   28.0030   35.1050 H   0  0  0  0  0  0  0  0  0  0  0  0
   33.5030   28.3080   37.2580 C   0  0  0  0  0  3  0  0  0  0  0  0
   34.4050   28.9530   38.0750 C   0  0  0  0  0  0  0  0  0  0  0  0
   34.4100   29.1860   39.4340 C   0  0  0  0  0  3  0  0  0  0  0  0
   38.7100   27.4970   39.2230 Br  0  0  0  0  0  0  0  0  0  0  0  0
   38.3190   27.9610   41.0420 C   0  0  0  0  0  0  0  0  0  0  0  0
   37.9980   26.9750   41.9320 C   0  0  0  0  0  0  0  0  0  0  0  0
   37.6930   27.2940   43.2600 C   0  0  0  0  0  0  0  0  0  0  0  0
   37.7290   28.6170   43.6270 C   0  0  0  0  0  0  0  0  0  0  0  0
   38.0580   29.5740   42.6930 C   0  0  0  0  0  0  0  0  0  0  0  0
   38.3540   29.2890   41.4140 C   0  0  0  0  0  0  0  0  0  0  0  0
   37.4500   26.4510   43.9030 H   0  0  0  0  0  0  0  0  0  0  0  0
   37.4820   28.7760   44.6670 H   0  0  0  0  0  0  0  0  0  0  0  0
   38.0110   30.5460   43.1640 H   0  0  0  0  0  0  0  0  0  0  0  0
   39.0570   23.5780   41.1380 C   0  0  0  0  0  0  0  0  0  0  0  0
   37.8720   22.9630   40.6420 C   0  0  0  0  0  0  0  0  0  0  0  0
   36.7350   23.7530   40.5970 C   0  0  0  0  0  0  0  0  0  0  0  0
   36.8060   25.0320   41.0170 N   0  0  0  0  0  0  0  0  0  0  0  0
   37.9710   25.5940   41.4920 C   0  0  0  0  0  0  0  0  0  0  0  0
   39.0800   24.8450   41.5420 N   0  0  0  0  0  0  0  0  0  0  0  0
   39.9390   22.9460   41.1660 H   0  0  0  0  0  0  0  0  0  0  0  0
   37.8560   21.9310   40.3130 H   0  0  0  0  0  0  0  0  0  0  0  0
   35.7970   23.3820   40.2410 H   0  0  0  0  0  0  0  0  0  0  0  0
  1 33  1  0  0  0  0
  2  1  1  0  0  0  0
  2  8  1  0  0  0  0
  3  2  1  0  0  0  0
  3 10  1  0  0  0  0
  4  3  1  0  0  0  0
  5  4  1  0  0  0  0
  5  6  1  0  0  0  0
  6 14  1  1  0  0  0
  6  1  1  0  0  0  0
  7  2  1  0  0  0  0
  9  3  1  0  0  0  0
 11  4  1  0  0  0  0
 12  5  1  0  0  0  0
 13  5  1  0  0  0  0
 16  6  1  0  0  0  0
 16 15  2  0  0  0  0
 17 16  1  0  0  0  0
 18 17  1  0  0  0  0
 19 17  2  0  0  0  0
 19 25  1  0  0  0  0
 20 19  1  0  0  0  0
 21 20  1  0  0  0  0
 22 20  1  0  0  0  0
 22 24  2  0  0  0  0
 23 22  1  0  0  0  0
 24 25  1  0  0  0  0
 25 26  2  0  0  0  0
 26 15  1  0  0  0  0
 27 28  1  0  0  0  0
 28 33  2  0  0  0  0
 28 29  1  0  0  0  0
 29 30  2  0  0  0  0
 30 31  1  0  0  0  0
 30 34  1  0  0  0  0
 31 35  1  0  0  0  0
 32 36  1  0  0  0  0
 32 31  2  0  0  0  0
 33 32  1  0  0  0  0
 37 43  1  0  0  0  0
 37 42  1  0  0  0  0
 38 37  2  0  0  0  0
 39 38  1  0  0  0  0
 39 40  2  0  0  0  0
 40 41  1  0  0  0  0
 41 42  2  0  0  0  0
 41 29  1  0  0  0  0
 44 38  1  0  0  0  0
 45 39  1  0  0  0  0
M  END
>  <minimizedAffinity>
-6.68751621

$$$$

 OpenBabel03242510143D

 45 49  0  0  1  0  0  0  0  0999 V2000
   38.4940   31.2050   40.9680 N   0  0  0  0  0  0  0  0  0  0  0  0
   39.4960   32.2610   40.7860 C   0  0  0  0  0  0  0  0  0  0  0  0
   38.8920   33.6330   41.0090 C   0  0  0  0  0  0  0  0  0  0  0  0
   37.8560   33.9300   40.0390 N   0  0  0  0  0  0  0  0  0  0  0  0
   37.4560   32.6820   39.4220 C   0  0  0  0  0  0  0  0  0  0  0  0
   37.1830   31.6640   40.5510 C   0  0  1  0  0  0  0  0  0  0  0  0
   39.9880   32.2340   39.8160 H   0  0  0  0  0  0  0  0  0  0  0  0
   40.2780   32.1290   41.5530 H   0  0  0  0  0  0  0  0  0  0  0  0
   39.7120   34.3550   40.8120 H   0  0  0  0  0  0  0  0  0  0  0  0
   38.5680   33.7960   42.0460 H   0  0  0  0  0  0  0  0  0  0  0  0
   38.1370   34.6240   39.3420 H   0  0  0  0  0  0  0  0  0  0  0  0
   38.2520   32.3610   38.7530 H   0  0  0  0  0  0  0  0  0  0  0  0
   36.4780   32.8920   38.9250 H   0  0  0  0  0  0  0  0  0  0  0  0
   36.6720   32.2190   41.3670 H   0  0  0  0  0  0  0  0  0  0  0  0
   35.3540   29.8320   40.4770 C   0  0  0  0  0  3  0  0  0  0  0  0
   36.3120   30.6480   39.9370 C   0  0  0  0  0  0  0  0  0  0  0  0
   36.4560   30.4730   38.5560 C   0  0  0  0  0  0  0  0  0  0  0  0
   37.1810   31.0560   38.0030 H   0  0  0  0  0  0  0  0  0  0  0  0
   35.7340   29.5880   37.7870 C   0  0  0  0  0  0  0  0  0  0  0  0
   35.7230   29.2790   36.4830 N   0  0  0  0  0  0  0  0  0  0  0  0
   36.3260   29.7000   35.7410 H   0  0  0  0  0  0  0  0  0  0  0  0
   34.8020   28.3280   36.2740 C   0  0  0  0  0  0  0  0  0  0  0  0
   34.5730   27.8840   35.3140 H   0  0  0  0  0  0  0  0  0  0  0  0
   34.1870   27.9950   37.4540 C   0  0  0  0  0  3  0  0  0  0  0  0
   34.7930   28.8040   38.3900 C   0  0  0  0  0  0  0  0  0  0  0  0
   34.6070   28.9330   39.7500 C   0  0  0  0  0  3  0  0  0  0  0  0
   39.8700   29.1900   38.9880 Br  0  0  0  0  0  0  0  0  0  0  0  0
   39.3220   28.8760   40.7990 C   0  0  0  0  0  0  0  0  0  0  0  0
   39.5280   27.6460   41.3580 C   0  0  0  0  0  0  0  0  0  0  0  0
   39.1210   27.3900   42.6720 C   0  0  0  0  0  0  0  0  0  0  0  0
   38.5160   28.4090   43.3660 C   0  0  0  0  0  0  0  0  0  0  0  0
   38.3300   29.6310   42.7590 C   0  0  0  0  0  0  0  0  0  0  0  0
   38.7140   29.8970   41.4990 C   0  0  0  0  0  0  0  0  0  0  0  0
   39.3240   26.3880   43.0420 H   0  0  0  0  0  0  0  0  0  0  0  0
   38.2340   28.1300   44.3710 H   0  0  0  0  0  0  0  0  0  0  0  0
   37.8240   30.2890   43.4520 H   0  0  0  0  0  0  0  0  0  0  0  0
   42.0900   25.5120   39.8820 C   0  0  0  0  0  0  0  0  0  0  0  0
   41.3470   24.5990   39.0800 C   0  0  0  0  0  0  0  0  0  0  0  0
   39.9700   24.7550   39.0770 C   0  0  0  0  0  0  0  0  0  0  0  0
   39.4170   25.7380   39.8150 N   0  0  0  0  0  0  0  0  0  0  0  0
   40.1680   26.6030   40.5800 C   0  0  0  0  0  0  0  0  0  0  0  0
   41.5010   26.4680   40.5950 N   0  0  0  0  0  0  0  0  0  0  0  0
   43.1670   25.3780   39.8740 H   0  0  0  0  0  0  0  0  0  0  0  0
   41.8290   23.8220   38.5000 H   0  0  0  0  0  0  0  0  0  0  0  0
   39.3260   24.1180   38.5070 H   0  0  0  0  0  0  0  0  0  0  0  0
  1 33  1  0  0  0  0
  2  1  1  0  0  0  0
  2  3  1  0  0  0  0
  2  8  1  0  0  0  0
  3 10  1  0  0  0  0
  4  3  1  0  0  0  0
  5  4  1  0  0  0  0
  5  6  1  0  0  0  0
  6  1  1  0  0  0  0
  6 14  1  1  0  0  0
  7  2  1  0  0  0  0
  9  3  1  0  0  0  0
 11  4  1  0  0  0  0
 12  5  1  0  0  0  0
 13  5  1  0  0  0  0
 16 15  1  0  0  0  0
 16  6  1  0  0  0  0
 17 16  2  0  0  0  0
 18 17  1  0  0  0  0
 19 25  2  0  0  0  0
 19 17  1  0  0  0  0
 20 19  1  0  0  0  0
 21 20  1  0  0  0  0
 22 20  1  0  0  0  0
 22 24  2  0  0  0  0
 23 22  1  0  0  0  0
 24 25  1  0  0  0  0
 25 26  1  0  0  0  0
 26 15  2  0  0  0  0
 27 28  1  0  0  0  0
 28 29  2  0  0  0  0
 28 33  1  0  0  0  0
 29 30  1  0  0  0  0
 30 34  1  0  0  0  0
 30 31  2  0  0  0  0
 31 35  1  0  0  0  0
 32 31  1  0  0  0  0
 32 36  1  0  0  0  0
 33 32  2  0  0  0  0
 37 42  1  0  0  0  0
 38 37  2  0  0  0  0
 39 38  1  0  0  0  0
 39 40  2  0  0  0  0
 40 41  1  0  0  0  0
 41 42  2  0  0  0  0
 41 29  1  0  0  0  0
 43 37  1  0  0  0  0
 44 38  1  0  0  0  0
 45 39  1  0  0  0  0
M  END
>  <minimizedAffinity>
-6.45645857

$$$$

 OpenBabel03242510143D

 45 49  0  0  1  0  0  0  0  0999 V2000
   37.0720   28.3820   38.0630 N   0  0  0  0  0  0  0  0  0  0  0  0
   36.3920   27.5690   37.0490 C   0  0  0  0  0  0  0  0  0  0  0  0
   37.2170   27.4740   35.7800 C   0  0  0  0  0  0  0  0  0  0  0  0
   37.3980   28.7720   35.1580 N   0  0  0  0  0  0  0  0  0  0  0  0
   37.0790   29.7850   36.1440 C   0  0  0  0  0  0  0  0  0  0  0  0
   37.8450   29.4390   37.4400 C   0  0  1  0  0  0  0  0  0  0  0  0
   35.3910   27.9180   36.8070 H   0  0  0  0  0  0  0  0  0  0  0  0
   36.2950   26.5420   37.4410 H   0  0  0  0  0  0  0  0  0  0  0  0
   36.6060   26.8790   35.0710 H   0  0  0  0  0  0  0  0  0  0  0  0
   38.1610   26.9310   35.9210 H   0  0  0  0  0  0  0  0  0  0  0  0
   36.8530   28.8930   34.3020 H   0  0  0  0  0  0  0  0  0  0  0  0
   36.0000   29.7950   36.2860 H   0  0  0  0  0  0  0  0  0  0  0  0
   37.5110   30.7350   35.7500 H   0  0  0  0  0  0  0  0  0  0  0  0
   38.8490   29.0760   37.1320 H   0  0  0  0  0  0  0  0  0  0  0  0
   36.9350   31.5820   38.5730 C   0  0  0  0  0  3  0  0  0  0  0  0
   37.9140   30.7080   38.1840 C   0  0  0  0  0  0  0  0  0  0  0  0
   39.1920   31.1110   38.5890 C   0  0  0  0  0  0  0  0  0  0  0  0
   40.0580   30.5090   38.3450 H   0  0  0  0  0  0  0  0  0  0  0  0
   39.4770   32.2530   39.3030 C   0  0  0  0  0  0  0  0  0  0  0  0
   40.6040   32.8010   39.7750 N   0  0  0  0  0  0  0  0  0  0  0  0
   41.5710   32.4170   39.6730 H   0  0  0  0  0  0  0  0  0  0  0  0
   40.2970   33.9400   40.4100 C   0  0  0  0  0  0  0  0  0  0  0  0
   41.0090   34.5970   40.8920 H   0  0  0  0  0  0  0  0  0  0  0  0
   38.9430   34.1590   40.3630 C   0  0  0  0  0  3  0  0  0  0  0  0
   38.4510   33.0810   39.6600 C   0  0  0  0  0  0  0  0  0  0  0  0
   37.1700   32.7350   39.2880 C   0  0  0  0  0  3  0  0  0  0  0  0
   39.6730   27.1230   39.2980 Br  0  0  0  0  0  0  0  0  0  0  0  0
   38.0810   27.6760   40.2140 C   0  0  0  0  0  0  0  0  0  0  0  0
   38.0040   27.5350   41.5700 C   0  0  0  0  0  0  0  0  0  0  0  0
   36.8460   27.9170   42.2560 C   0  0  0  0  0  0  0  0  0  0  0  0
   35.8060   28.4330   41.5220 C   0  0  0  0  0  0  0  0  0  0  0  0
   35.9310   28.5550   40.1550 C   0  0  0  0  0  0  0  0  0  0  0  0
   37.0350   28.1940   39.4790 C   0  0  0  0  0  0  0  0  0  0  0  0
   36.8670   27.7740   43.3340 H   0  0  0  0  0  0  0  0  0  0  0  0
   34.9520   28.7020   42.1250 H   0  0  0  0  0  0  0  0  0  0  0  0
   35.0100   28.9560   39.7580 H   0  0  0  0  0  0  0  0  0  0  0  0
   41.0900   27.2850   43.4950 C   0  0  0  0  0  0  0  0  0  0  0  0
   41.2600   25.8830   43.6800 C   0  0  0  0  0  0  0  0  0  0  0  0
   40.2900   25.0620   43.1250 C   0  0  0  0  0  0  0  0  0  0  0  0
   39.2610   25.6200   42.4570 N   0  0  0  0  0  0  0  0  0  0  0  0
   39.1300   26.9820   42.2980 C   0  0  0  0  0  0  0  0  0  0  0  0
   40.0580   27.7900   42.8280 N   0  0  0  0  0  0  0  0  0  0  0  0
   41.8580   27.9140   43.9340 H   0  0  0  0  0  0  0  0  0  0  0  0
   42.1020   25.4730   44.2230 H   0  0  0  0  0  0  0  0  0  0  0  0
   40.3290   23.9970   43.2100 H   0  0  0  0  0  0  0  0  0  0  0  0
  1 33  1  0  0  0  0
  2  8  1  0  0  0  0
  2  1  1  0  0  0  0
  3 10  1  0  0  0  0
  3  2  1  0  0  0  0
  4  3  1  0  0  0  0
  4  5  1  0  0  0  0
  5 12  1  0  0  0  0
  5  6  1  0  0  0  0
  6 14  1  6  0  0  0
  6  1  1  0  0  0  0
  6 16  1  0  0  0  0
  7  2  1  0  0  0  0
  9  3  1  0  0  0  0
 11  4  1  0  0  0  0
 13  5  1  0  0  0  0
 15 26  1  0  0  0  0
 16 15  2  0  0  0  0
 16 17  1  0  0  0  0
 17 19  2  0  0  0  0
 18 17  1  0  0  0  0
 19 25  1  0  0  0  0
 19 20  1  0  0  0  0
 20 22  1  0  0  0  0
 21 20  1  0  0  0  0
 22 23  1  0  0  0  0
 24 22  2  0  0  0  0
 25 24  1  0  0  0  0
 26 25  2  0  0  0  0
 27 28  1  0  0  0  0
 28 29  1  0  0  0  0
 29 30  2  0  0  0  0
 29 41  1  0  0  0  0
 30 34  1  0  0  0  0
 31 35  1  0  0  0  0
 31 30  1  0  0  0  0
 32 31  2  0  0  0  0
 33 32  1  0  0  0  0
 33 28  2  0  0  0  0
 36 32  1  0  0  0  0
 37 38  1  0  0  0  0
 37 43  1  0  0  0  0
 38 44  1  0  0  0  0
 39 45  1  0  0  0  0
 39 38  2  0  0  0  0
 40 39  1  0  0  0  0
 41 40  2  0  0  0  0
 41 42  1  0  0  0  0
 42 37  2  0  0  0  0
M  END
>  <minimizedAffinity>
-6.44494343

$$$$

 OpenBabel03242510143D

 45 49  0  0  1  0  0  0  0  0999 V2000
   37.9560   29.6670   41.1690 N   0  0  0  0  0  0  0  0  0  0  0  0
   37.9830   29.3160   42.5940 C   0  0  0  0  0  0  0  0  0  0  0  0
   38.5520   27.9260   42.8050 C   0  0  0  0  0  0  0  0  0  0  0  0
   37.7280   26.9070   42.1840 N   0  0  0  0  0  0  0  0  0  0  0  0
   36.8520   27.5630   41.2340 C   0  0  0  0  0  0  0  0  0  0  0  0
   37.7200   28.4900   40.3550 C   0  0  1  0  0  0  0  0  0  0  0  0
   37.0130   29.3890   43.0800 H   0  0  0  0  0  0  0  0  0  0  0  0
   38.6610   30.0180   43.1080 H   0  0  0  0  0  0  0  0  0  0  0  0
   38.4930   27.7430   43.8970 H   0  0  0  0  0  0  0  0  0  0  0  0
   39.6120   27.8490   42.5250 H   0  0  0  0  0  0  0  0  0  0  0  0
   37.2030   26.3430   42.8550 H   0  0  0  0  0  0  0  0  0  0  0  0
   36.0900   28.1050   41.7900 H   0  0  0  0  0  0  0  0  0  0  0  0
   36.4650   26.7510   40.5730 H   0  0  0  0  0  0  0  0  0  0  0  0
   38.6670   27.9450   40.1500 H   0  0  0  0  0  0  0  0  0  0  0  0
   35.5870   28.9390   38.9570 C   0  0  0  0  0  3  0  0  0  0  0  0
   36.9240   28.7030   39.1350 C   0  0  0  0  0  0  0  0  0  0  0  0
   37.6340   28.6790   37.9290 C   0  0  0  0  0  0  0  0  0  0  0  0
   38.7010   28.5010   37.9260 H   0  0  0  0  0  0  0  0  0  0  0  0
   37.0860   28.8670   36.6790 C   0  0  0  0  0  0  0  0  0  0  0  0
   37.5840   28.8810   35.4360 N   0  0  0  0  0  0  0  0  0  0  0  0
   38.5830   28.7360   35.1660 H   0  0  0  0  0  0  0  0  0  0  0  0
   36.5840   29.1150   34.5750 C   0  0  0  0  0  0  0  0  0  0  0  0
   36.6910   29.1810   33.5000 H   0  0  0  0  0  0  0  0  0  0  0  0
   35.3990   29.2600   35.2510 C   0  0  0  0  0  3  0  0  0  0  0  0
   35.7450   29.0990   36.5750 C   0  0  0  0  0  0  0  0  0  0  0  0
   34.9940   29.1340   37.7310 C   0  0  0  0  0  3  0  0  0  0  0  0
   40.8990   30.2780   40.2540 Br  0  0  0  0  0  0  0  0  0  0  0  0
   39.3620   31.4170   40.1210 C   0  0  0  0  0  0  0  0  0  0  0  0
   39.4940   32.6600   39.5690 C   0  0  0  0  0  0  0  0  0  0  0  0
   38.3890   33.5130   39.4770 C   0  0  0  0  0  0  0  0  0  0  0  0
   37.1850   33.0580   39.9560 C   0  0  0  0  0  0  0  0  0  0  0  0
   37.1030   31.7970   40.5050 C   0  0  0  0  0  0  0  0  0  0  0  0
   38.1520   30.9630   40.6020 C   0  0  0  0  0  0  0  0  0  0  0  0
   38.5790   34.4830   39.0220 H   0  0  0  0  0  0  0  0  0  0  0  0
   36.3850   33.7760   39.8470 H   0  0  0  0  0  0  0  0  0  0  0  0
   36.0890   31.6320   40.8420 H   0  0  0  0  0  0  0  0  0  0  0  0
   42.8520   34.0760   39.4620 C   0  0  0  0  0  0  0  0  0  0  0  0
   43.2470   33.9040   38.1040 C   0  0  0  0  0  0  0  0  0  0  0  0
   42.3280   33.2990   37.2630 C   0  0  0  0  0  0  0  0  0  0  0  0
   41.1370   32.9110   37.7600 N   0  0  0  0  0  0  0  0  0  0  0  0
   40.7890   33.0930   39.0800 C   0  0  0  0  0  0  0  0  0  0  0  0
   41.6650   33.6770   39.9080 N   0  0  0  0  0  0  0  0  0  0  0  0
   43.5830   34.5520   40.1080 H   0  0  0  0  0  0  0  0  0  0  0  0
   44.2150   34.2300   37.7430 H   0  0  0  0  0  0  0  0  0  0  0  0
   42.5320   33.1250   36.2270 H   0  0  0  0  0  0  0  0  0  0  0  0
  1  2  1  0  0  0  0
  2  3  1  0  0  0  0
  2  7  1  0  0  0  0
  2  8  1  0  0  0  0
  3  9  1  0  0  0  0
  4  3  1  0  0  0  0
  4 11  1  0  0  0  0
  5 12  1  0  0  0  0
  5  4  1  0  0  0  0
  6 14  1  6  0  0  0
  6  1  1  0  0  0  0
  6  5  1  0  0  0  0
 10  3  1  0  0  0  0
 13  5  1  0  0  0  0
 15 16  1  0  0  0  0
 16  6  1  0  0  0  0
 17 16  2  0  0  0  0
 18 17  1  0  0  0  0
 19 17  1  0  0  0  0
 20 19  1  0  0  0  0
 21 20  1  0  0  0  0
 22 24  2  0  0  0  0
 22 20  1  0  0  0  0
 23 22  1  0  0  0  0
 24 25  1  0  0  0  0
 25 19  2  0  0  0  0
 25 26  1  0  0  0  0
 26 15  2  0  0  0  0
 28 27  1  0  0  0  0
 28 33  1  0  0  0  0
 29 28  2  0  0  0  0
 30 29  1  0  0  0  0
 30 31  2  0  0  0  0
 31 32  1  0  0  0  0
 32 33  2  0  0  0  0
 32 36  1  0  0  0  0
 33  1  1  0  0  0  0
 34 30  1  0  0  0  0
 35 31  1  0  0  0  0
 37 42  1  0  0  0  0
 37 43  1  0  0  0  0
 38 37  2  0  0  0  0
 39 40  2  0  0  0  0
 39 38  1  0  0  0  0
 40 41  1  0  0  0  0
 41 29  1  0  0  0  0
 41 42  2  0  0  0  0
 44 38  1  0  0  0  0
 45 39  1  0  0  0  0
M  END
>  <minimizedAffinity>
-6.41356039

$$$$

 OpenBabel03242510143D

 45 49  0  0  1  0  0  0  0  0999 V2000
   37.5960   25.6790   40.6450 N   0  0  0  0  0  0  0  0  0  0  0  0
   36.5290   25.3150   39.7060 C   0  0  0  0  0  0  0  0  0  0  0  0
   36.3460   23.8110   39.6400 C   0  0  0  0  0  0  0  0  0  0  0  0
   37.5320   23.1470   39.1330 N   0  0  0  0  0  0  0  0  0  0  0  0
   38.6370   24.0800   39.2270 C   0  0  0  0  0  0  0  0  0  0  0  0
   38.6370   24.6690   40.6550 C   0  0  1  0  0  0  0  0  0  0  0  0
   36.6760   25.7080   38.7020 H   0  0  0  0  0  0  0  0  0  0  0  0
   35.5800   25.7330   40.0850 H   0  0  0  0  0  0  0  0  0  0  0  0
   35.5530   23.6400   38.8830 H   0  0  0  0  0  0  0  0  0  0  0  0
   35.9850   23.3810   40.5840 H   0  0  0  0  0  0  0  0  0  0  0  0
   37.4220   22.7850   38.1840 H   0  0  0  0  0  0  0  0  0  0  0  0
   38.5070   24.8410   38.4600 H   0  0  0  0  0  0  0  0  0  0  0  0
   39.5610   23.4620   39.1270 H   0  0  0  0  0  0  0  0  0  0  0  0
   38.3830   23.8360   41.3460 H   0  0  0  0  0  0  0  0  0  0  0  0
   40.8140   25.9430   40.0700 C   0  0  0  0  0  3  0  0  0  0  0  0
   40.0090   25.1630   40.8560 C   0  0  0  0  0  0  0  0  0  0  0  0
   40.6200   24.7990   42.0620 C   0  0  0  0  0  0  0  0  0  0  0  0
   40.0920   24.1810   42.7780 H   0  0  0  0  0  0  0  0  0  0  0  0
   41.8890   25.1640   42.4530 C   0  0  0  0  0  0  0  0  0  0  0  0
   42.6350   24.9240   43.5400 N   0  0  0  0  0  0  0  0  0  0  0  0
   42.3550   24.3570   44.3710 H   0  0  0  0  0  0  0  0  0  0  0  0
   43.8180   25.5360   43.3930 C   0  0  0  0  0  0  0  0  0  0  0  0
   44.6230   25.5160   44.1160 H   0  0  0  0  0  0  0  0  0  0  0  0
   43.8660   26.1950   42.1910 C   0  0  0  0  0  3  0  0  0  0  0  0
   42.6370   25.9440   41.6190 C   0  0  0  0  0  0  0  0  0  0  0  0
   42.0880   26.3340   40.4170 C   0  0  0  0  0  3  0  0  0  0  0  0
   38.1730   28.3680   39.1250 Br  0  0  0  0  0  0  0  0  0  0  0  0
   37.8670   28.1160   41.0020 C   0  0  0  0  0  0  0  0  0  0  0  0
   37.8880   29.1970   41.8350 C   0  0  0  0  0  0  0  0  0  0  0  0
   37.6830   29.0340   43.2100 C   0  0  0  0  0  0  0  0  0  0  0  0
   37.4650   27.7620   43.6800 C   0  0  0  0  0  0  0  0  0  0  0  0
   37.4540   26.7030   42.7990 C   0  0  0  0  0  0  0  0  0  0  0  0
   37.6480   26.8390   41.4760 C   0  0  0  0  0  0  0  0  0  0  0  0
   37.7130   29.9460   43.8030 H   0  0  0  0  0  0  0  0  0  0  0  0
   37.3160   27.7230   44.7490 H   0  0  0  0  0  0  0  0  0  0  0  0
   37.2890   25.7920   43.3560 H   0  0  0  0  0  0  0  0  0  0  0  0
   37.3330   32.4450   40.2730 C   0  0  0  0  0  0  0  0  0  0  0  0
   38.6280   33.0370   40.2570 C   0  0  0  0  0  0  0  0  0  0  0  0
   39.6610   32.2840   40.7930 C   0  0  0  0  0  0  0  0  0  0  0  0
   39.3930   31.0600   41.2900 N   0  0  0  0  0  0  0  0  0  0  0  0
   38.1260   30.5200   41.2890 C   0  0  0  0  0  0  0  0  0  0  0  0
   37.1160   31.2330   40.7750 N   0  0  0  0  0  0  0  0  0  0  0  0
   36.5350   33.0470   39.8500 H   0  0  0  0  0  0  0  0  0  0  0  0
   38.8030   34.0240   39.8480 H   0  0  0  0  0  0  0  0  0  0  0  0
   40.6690   32.6420   40.8270 H   0  0  0  0  0  0  0  0  0  0  0  0
  1  6  1  0  0  0  0
  1 33  1  0  0  0  0
  2  8  1  0  0  0  0
  2  1  1  0  0  0  0
  3  2  1  0  0  0  0
  3 10  1  0  0  0  0
  4  5  1  0  0  0  0
  4  3  1  0  0  0  0
  5  6  1  0  0  0  0
  6 16  1  0  0  0  0
  6 14  1  1  0  0  0
  7  2  1  0  0  0  0
  9  3  1  0  0  0  0
 11  4  1  0  0  0  0
 12  5  1  0  0  0  0
 13  5  1  0  0  0  0
 15 26  2  0  0  0  0
 15 16  1  0  0  0  0
 16 17  2  0  0  0  0
 17 19  1  0  0  0  0
 17 18  1  0  0  0  0
 19 20  1  0  0  0  0
 20 21  1  0  0  0  0
 22 20  1  0  0  0  0
 22 23  1  0  0  0  0
 24 22  2  0  0  0  0
 25 24  1  0  0  0  0
 25 19  2  0  0  0  0
 26 25  1  0  0  0  0
 27 28  1  0  0  0  0
 28 33  2  0  0  0  0
 28 29  1  0  0  0  0
 29 30  2  0  0  0  0
 30 31  1  0  0  0  0
 30 34  1  0  0  0  0
 31 35  1  0  0  0  0
 32 36  1  0  0  0  0
 32 31  2  0  0  0  0
 33 32  1  0  0  0  0
 37 42  1  0  0  0  0
 38 37  2  0  0  0  0
 38 39  1  0  0  0  0
 39 45  1  0  0  0  0
 39 40  2  0  0  0  0
 41 40  1  0  0  0  0
 41 29  1  0  0  0  0
 42 41  2  0  0  0  0
 43 37  1  0  0  0  0
 44 38  1  0  0  0  0
M  END
>  <minimizedAffinity>
-6.28175831

$$$$

 OpenBabel03242510143D

 45 49  0  0  1  0  0  0  0  0999 V2000
   36.7060   28.7540   36.8990 N   0  0  0  0  0  0  0  0  0  0  0  0
   36.0280   28.5870   35.6080 C   0  0  0  0  0  0  0  0  0  0  0  0
   34.6680   29.2560   35.6140 C   0  0  0  0  0  0  0  0  0  0  0  0
   33.7750   28.6530   36.5850 N   0  0  0  0  0  0  0  0  0  0  0  0
   34.5810   27.8790   37.5070 C   0  0  0  0  0  0  0  0  0  0  0  0
   35.7450   28.7760   37.9850 C   0  0  1  0  0  0  0  0  0  0  0  0
   35.9220   27.5480   35.3020 H   0  0  0  0  0  0  0  0  0  0  0  0
   36.6300   29.0960   34.8360 H   0  0  0  0  0  0  0  0  0  0  0  0
   34.2260   29.0410   34.6190 H   0  0  0  0  0  0  0  0  0  0  0  0
   34.7270   30.3490   35.7060 H   0  0  0  0  0  0  0  0  0  0  0  0
   33.0350   28.0880   36.1630 H   0  0  0  0  0  0  0  0  0  0  0  0
   34.9260   26.9850   36.9910 H   0  0  0  0  0  0  0  0  0  0  0  0
   33.9270   27.6900   38.3920 H   0  0  0  0  0  0  0  0  0  0  0  0
   35.3250   29.7950   38.1310 H   0  0  0  0  0  0  0  0  0  0  0  0
   36.5160   26.8780   39.5680 C   0  0  0  0  0  3  0  0  0  0  0  0
   36.1900   28.1690   39.2500 C   0  0  0  0  0  0  0  0  0  0  0  0
   36.3270   29.0440   40.3340 C   0  0  0  0  0  0  0  0  0  0  0  0
   36.1000   30.0960   40.2190 H   0  0  0  0  0  0  0  0  0  0  0  0
   36.7420   28.6870   41.5970 C   0  0  0  0  0  0  0  0  0  0  0  0
   36.9330   29.3580   42.7400 N   0  0  0  0  0  0  0  0  0  0  0  0
   36.7850   30.3820   42.8910 H   0  0  0  0  0  0  0  0  0  0  0  0
   37.3510   28.4990   43.6800 C   0  0  0  0  0  0  0  0  0  0  0  0
   37.5850   28.7610   44.7030 H   0  0  0  0  0  0  0  0  0  0  0  0
   37.4420   27.2340   43.1580 C   0  0  0  0  0  3  0  0  0  0  0  0
   37.0520   27.3810   41.8450 C   0  0  0  0  0  0  0  0  0  0  0  0
   36.9360   26.4720   40.8150 C   0  0  0  0  0  3  0  0  0  0  0  0
   37.6070   31.6280   37.7940 Br  0  0  0  0  0  0  0  0  0  0  0  0
   38.7030   30.0760   37.5330 C   0  0  0  0  0  0  0  0  0  0  0  0
   40.0500   30.1620   37.7480 C   0  0  0  0  0  0  0  0  0  0  0  0
   40.8700   29.0460   37.5480 C   0  0  0  0  0  0  0  0  0  0  0  0
   40.2760   27.8790   37.1340 C   0  0  0  0  0  0  0  0  0  0  0  0
   38.9140   27.8420   36.9300 C   0  0  0  0  0  0  0  0  0  0  0  0
   38.1100   28.9020   37.1170 C   0  0  0  0  0  0  0  0  0  0  0  0
   41.9290   29.1990   37.7420 H   0  0  0  0  0  0  0  0  0  0  0  0
   40.9770   27.0680   37.0040 H   0  0  0  0  0  0  0  0  0  0  0  0
   38.6420   26.8530   36.5900 H   0  0  0  0  0  0  0  0  0  0  0  0
   41.1740   32.8980   39.8790 C   0  0  0  0  0  0  0  0  0  0  0  0
   41.7400   33.8290   38.9620 C   0  0  0  0  0  0  0  0  0  0  0  0
   41.7130   33.4750   37.6230 C   0  0  0  0  0  0  0  0  0  0  0  0
   41.1660   32.2960   37.2650 N   0  0  0  0  0  0  0  0  0  0  0  0
   40.6280   31.4200   38.1810 C   0  0  0  0  0  0  0  0  0  0  0  0
   40.6450   31.7450   39.4800 N   0  0  0  0  0  0  0  0  0  0  0  0
   41.2020   33.1900   40.9240 H   0  0  0  0  0  0  0  0  0  0  0  0
   42.1700   34.7670   39.2900 H   0  0  0  0  0  0  0  0  0  0  0  0
   42.1140   34.1070   36.8580 H   0  0  0  0  0  0  0  0  0  0  0  0
  1 33  1  0  0  0  0
  1  6  1  0  0  0  0
  2  3  1  0  0  0  0
  2  1  1  0  0  0  0
  3 10  1  0  0  0  0
  3  4  1  0  0  0  0
  4  5  1  0  0  0  0
  5  6  1  0  0  0  0
  5 13  1  0  0  0  0
  6 14  1  1  0  0  0
  6 16  1  0  0  0  0
  7  2  1  0  0  0  0
  8  2  1  0  0  0  0
  9  3  1  0  0  0  0
 11  4  1  0  0  0  0
 12  5  1  0  0  0  0
 15 26  1  0  0  0  0
 16 15  2  0  0  0  0
 16 17  1  0  0  0  0
 17 19  2  0  0  0  0
 18 17  1  0  0  0  0
 19 25  1  0  0  0  0
 19 20  1  0  0  0  0
 20 21  1  0  0  0  0
 20 22  1  0  0  0  0
 22 23  1  0  0  0  0
 24 22  2  0  0  0  0
 25 24  1  0  0  0  0
 26 25  2  0  0  0  0
 28 29  1  0  0  0  0
 28 27  1  0  0  0  0
 29 41  1  0  0  0  0
 30 34  1  0  0  0  0
 30 29  2  0  0  0  0
 31 30  1  0  0  0  0
 32 33  1  0  0  0  0
 32 31  2  0  0  0  0
 33 28  2  0  0  0  0
 35 31  1  0  0  0  0
 36 32  1  0  0  0  0
 37 43  1  0  0  0  0
 38 44  1  0  0  0  0
 38 37  2  0  0  0  0
 39 38  1  0  0  0  0
 40 39  2  0  0  0  0
 40 41  1  0  0  0  0
 41 42  2  0  0  0  0
 42 37  1  0  0  0  0
 45 39  1  0  0  0  0
M  END
>  <minimizedAffinity>
-6.26593399

$$$$

 OpenBabel03242510143D

 45 49  0  0  1  0  0  0  0  0999 V2000
   38.8490   30.9660   39.6810 N   0  0  0  0  0  0  0  0  0  0  0  0
   39.4920   32.2330   40.0460 C   0  0  0  0  0  0  0  0  0  0  0  0
   38.5680   33.0950   40.8840 C   0  0  0  0  0  0  0  0  0  0  0  0
   37.3770   33.4780   40.1490 N   0  0  0  0  0  0  0  0  0  0  0  0
   37.2610   32.5990   39.0030 C   0  0  0  0  0  0  0  0  0  0  0  0
   37.4210   31.1470   39.5040 C   0  0  1  0  0  0  0  0  0  0  0  0
   39.8480   32.8050   39.1920 H   0  0  0  0  0  0  0  0  0  0  0  0
   40.3690   32.0050   40.6750 H   0  0  0  0  0  0  0  0  0  0  0  0
   39.1260   34.0360   41.0720 H   0  0  0  0  0  0  0  0  0  0  0  0
   38.3430   32.6560   41.8650 H   0  0  0  0  0  0  0  0  0  0  0  0
   37.3670   34.4620   39.8730 H   0  0  0  0  0  0  0  0  0  0  0  0
   38.0240   32.8790   38.2800 H   0  0  0  0  0  0  0  0  0  0  0  0
   36.2100   32.7090   38.6450 H   0  0  0  0  0  0  0  0  0  0  0  0
   36.8830   31.0820   40.4750 H   0  0  0  0  0  0  0  0  0  0  0  0
   35.9060   29.2800   38.5440 C   0  0  0  0  0  3  0  0  0  0  0  0
   36.7930   30.3190   38.4610 C   0  0  0  0  0  0  0  0  0  0  0  0
   37.1330   30.6370   37.1410 C   0  0  0  0  0  0  0  0  0  0  0  0
   37.8280   31.4400   36.9340 H   0  0  0  0  0  0  0  0  0  0  0  0
   36.6510   29.9990   36.0200 C   0  0  0  0  0  0  0  0  0  0  0  0
   36.8490   30.1490   34.7040 N   0  0  0  0  0  0  0  0  0  0  0  0
   37.4720   30.8530   34.2470 H   0  0  0  0  0  0  0  0  0  0  0  0
   36.1110   29.2410   34.0510 C   0  0  0  0  0  0  0  0  0  0  0  0
   36.0720   29.1270   32.9760 H   0  0  0  0  0  0  0  0  0  0  0  0
   35.4090   28.4700   34.9420 C   0  0  0  0  0  3  0  0  0  0  0  0
   35.7670   28.9690   36.1760 C   0  0  0  0  0  0  0  0  0  0  0  0
   35.3950   28.6120   37.4540 C   0  0  0  0  0  3  0  0  0  0  0  0
   38.4180   28.9780   42.0770 Br  0  0  0  0  0  0  0  0  0  0  0  0
   39.4000   28.6780   40.4560 C   0  0  0  0  0  0  0  0  0  0  0  0
   40.0090   27.4720   40.2550 C   0  0  0  0  0  0  0  0  0  0  0  0
   40.7430   27.2370   39.0880 C   0  0  0  0  0  0  0  0  0  0  0  0
   40.8250   28.2520   38.1660 C   0  0  0  0  0  0  0  0  0  0  0  0
   40.1940   29.4510   38.4150 C   0  0  0  0  0  0  0  0  0  0  0  0
   39.4840   29.6950   39.5290 C   0  0  0  0  0  0  0  0  0  0  0  0
   41.1950   26.2510   39.0050 H   0  0  0  0  0  0  0  0  0  0  0  0
   41.4080   27.9900   37.2960 H   0  0  0  0  0  0  0  0  0  0  0  0
   40.3900   30.1220   37.5910 H   0  0  0  0  0  0  0  0  0  0  0  0
   40.6830   25.4030   43.1810 C   0  0  0  0  0  0  0  0  0  0  0  0
   39.6360   24.4380   43.1600 C   0  0  0  0  0  0  0  0  0  0  0  0
   38.7220   24.5370   42.1240 C   0  0  0  0  0  0  0  0  0  0  0  0
   38.8670   25.5170   41.2100 N   0  0  0  0  0  0  0  0  0  0  0  0
   39.8940   26.4340   41.2620 C   0  0  0  0  0  0  0  0  0  0  0  0
   40.7870   26.3540   42.2570 N   0  0  0  0  0  0  0  0  0  0  0  0
   41.3920   25.3120   43.9980 H   0  0  0  0  0  0  0  0  0  0  0  0
   39.5540   23.6640   43.9130 H   0  0  0  0  0  0  0  0  0  0  0  0
   37.9000   23.8590   42.0220 H   0  0  0  0  0  0  0  0  0  0  0  0
  1  2  1  0  0  0  0
  2  8  1  0  0  0  0
  2  3  1  0  0  0  0
  3  9  1  0  0  0  0
  3 10  1  0  0  0  0
  4  3  1  0  0  0  0
  5  6  1  0  0  0  0
  5  4  1  0  0  0  0
  6  1  1  0  0  0  0
  6 14  1  1  0  0  0
  7  2  1  0  0  0  0
 11  4  1  0  0  0  0
 12  5  1  0  0  0  0
 13  5  1  0  0  0  0
 16 15  1  0  0  0  0
 16  6  1  0  0  0  0
 17 16  2  0  0  0  0
 18 17  1  0  0  0  0
 19 25  2  0  0  0  0
 19 17  1  0  0  0  0
 20 19  1  0  0  0  0
 21 20  1  0  0  0  0
 22 20  1  0  0  0  0
 22 24  2  0  0  0  0
 23 22  1  0  0  0  0
 24 25  1  0  0  0  0
 25 26  1  0  0  0  0
 26 15  2  0  0  0  0
 28 27  1  0  0  0  0
 29 28  1  0  0  0  0
 29 41  1  0  0  0  0
 30 29  2  0  0  0  0
 31 32  2  0  0  0  0
 31 30  1  0  0  0  0
 32 33  1  0  0  0  0
 33  1  1  0  0  0  0
 33 28  2  0  0  0  0
 34 30  1  0  0  0  0
 35 31  1  0  0  0  0
 36 32  1  0  0  0  0
 37 43  1  0  0  0  0
 38 37  1  0  0  0  0
 38 44  1  0  0  0  0
 39 38  2  0  0  0  0
 40 41  2  0  0  0  0
 40 39  1  0  0  0  0
 41 42  1  0  0  0  0
 42 37  2  0  0  0  0
 45 39  1  0  0  0  0
M  END
>  <minimizedAffinity>
-6.25818634

$$$$

 OpenBabel03242510143D

 45 49  0  0  1  0  0  0  0  0999 V2000
   37.5520   28.1070   40.8220 N   0  0  0  0  0  0  0  0  0  0  0  0
   37.7620   27.0140   41.7790 C   0  0  0  0  0  0  0  0  0  0  0  0
   36.7190   27.0410   42.8790 C   0  0  0  0  0  0  0  0  0  0  0  0
   36.8040   28.2530   43.6720 N   0  0  0  0  0  0  0  0  0  0  0  0
   37.5830   29.2190   42.9240 C   0  0  0  0  0  0  0  0  0  0  0  0
   37.0120   29.2760   41.4890 C   0  0  1  0  0  0  0  0  0  0  0  0
   38.7560   27.0050   42.2200 H   0  0  0  0  0  0  0  0  0  0  0  0
   37.6330   26.0590   41.2420 H   0  0  0  0  0  0  0  0  0  0  0  0
   36.9860   26.2090   43.5630 H   0  0  0  0  0  0  0  0  0  0  0  0
   35.7040   26.8390   42.5130 H   0  0  0  0  0  0  0  0  0  0  0  0
   37.1860   28.1020   44.6070 H   0  0  0  0  0  0  0  0  0  0  0  0
   38.6260   28.9070   42.9470 H   0  0  0  0  0  0  0  0  0  0  0  0
   37.3750   30.2060   43.4000 H   0  0  0  0  0  0  0  0  0  0  0  0
   35.9060   29.2130   41.5820 H   0  0  0  0  0  0  0  0  0  0  0  0
   36.8270   31.4850   40.1510 C   0  0  0  0  0  3  0  0  0  0  0  0
   37.4540   30.5780   40.9630 C   0  0  0  0  0  0  0  0  0  0  0  0
   38.7310   30.9950   41.3550 C   0  0  0  0  0  0  0  0  0  0  0  0
   39.3370   30.3700   41.9980 H   0  0  0  0  0  0  0  0  0  0  0  0
   39.3290   32.1800   40.9870 C   0  0  0  0  0  0  0  0  0  0  0  0
   40.5130   32.7480   41.2500 N   0  0  0  0  0  0  0  0  0  0  0  0
   41.2740   32.3480   41.8440 H   0  0  0  0  0  0  0  0  0  0  0  0
   40.5730   33.9300   40.6220 C   0  0  0  0  0  0  0  0  0  0  0  0
   41.4140   34.6100   40.6540 H   0  0  0  0  0  0  0  0  0  0  0  0
   39.4120   34.1580   39.9280 C   0  0  0  0  0  3  0  0  0  0  0  0
   38.6450   33.0400   40.1750 C   0  0  0  0  0  0  0  0  0  0  0  0
   37.3820   32.6820   39.7570 C   0  0  0  0  0  3  0  0  0  0  0  0
   40.5900   28.0840   40.0230 Br  0  0  0  0  0  0  0  0  0  0  0  0
   39.0650   28.0410   38.8620 C   0  0  0  0  0  0  0  0  0  0  0  0
   39.2530   27.9920   37.5100 C   0  0  0  0  0  0  0  0  0  0  0  0
   38.1540   27.9760   36.6430 C   0  0  0  0  0  0  0  0  0  0  0  0
   36.8990   28.0110   37.1990 C   0  0  0  0  0  0  0  0  0  0  0  0
   36.7610   28.0610   38.5680 C   0  0  0  0  0  0  0  0  0  0  0  0
   37.8030   28.0760   39.4170 C   0  0  0  0  0  0  0  0  0  0  0  0
   38.3910   27.9340   35.5820 H   0  0  0  0  0  0  0  0  0  0  0  0
   36.1080   27.9950   36.4630 H   0  0  0  0  0  0  0  0  0  0  0  0
   35.7080   28.1040   38.8090 H   0  0  0  0  0  0  0  0  0  0  0  0
   42.5170   29.0690   36.2920 C   0  0  0  0  0  0  0  0  0  0  0  0
   43.1680   27.8500   35.9500 C   0  0  0  0  0  0  0  0  0  0  0  0
   42.4490   26.6840   36.1540 C   0  0  0  0  0  0  0  0  0  0  0  0
   41.1990   26.7610   36.6540 N   0  0  0  0  0  0  0  0  0  0  0  0
   40.6010   27.9590   36.9740 C   0  0  0  0  0  0  0  0  0  0  0  0
   41.2810   29.0970   36.7830 N   0  0  0  0  0  0  0  0  0  0  0  0
   43.0930   29.9740   36.1260 H   0  0  0  0  0  0  0  0  0  0  0  0
   44.1740   27.8300   35.5500 H   0  0  0  0  0  0  0  0  0  0  0  0
   42.8520   25.7190   35.9290 H   0  0  0  0  0  0  0  0  0  0  0  0
  1  6  1  0  0  0  0
  1  2  1  0  0  0  0
  2  7  1  0  0  0  0
  2  3  1  0  0  0  0
  3  9  1  0  0  0  0
  3  4  1  0  0  0  0
  4 11  1  0  0  0  0
  5 12  1  0  0  0  0
  5 13  1  0  0  0  0
  5  4  1  0  0  0  0
  6 14  1  1  0  0  0
  6  5  1  0  0  0  0
  8  2  1  0  0  0  0
 10  3  1  0  0  0  0
 15 16  1  0  0  0  0
 16 17  2  0  0  0  0
 16  6  1  0  0  0  0
 17 18  1  0  0  0  0
 19 20  1  0  0  0  0
 19 17  1  0  0  0  0
 20 21  1  0  0  0  0
 22 23  1  0  0  0  0
 22 20  1  0  0  0  0
 24 25  1  0  0  0  0
 24 22  2  0  0  0  0
 25 19  2  0  0  0  0
 26 15  2  0  0  0  0
 26 25  1  0  0  0  0
 28 33  1  0  0  0  0
 28 27  1  0  0  0  0
 29 28  2  0  0  0  0
 30 31  2  0  0  0  0
 30 29  1  0  0  0  0
 31 32  1  0  0  0  0
 32 36  1  0  0  0  0
 32 33  2  0  0  0  0
 33  1  1  0  0  0  0
 34 30  1  0  0  0  0
 35 31  1  0  0  0  0
 37 42  1  0  0  0  0
 38 39  1  0  0  0  0
 38 37  2  0  0  0  0
 39 40  2  0  0  0  0
 40 41  1  0  0  0  0
 41 29  1  0  0  0  0
 42 41  2  0  0  0  0
 43 37  1  0  0  0  0
 44 38  1  0  0  0  0
 45 39  1  0  0  0  0
M  END
>  <minimizedAffinity>
-6.23138332

$$$$

 OpenBabel03242510143D

 45 49  0  0  1  0  0  0  0  0999 V2000
   36.1690   29.3760   37.2400 N   0  0  0  0  0  0  0  0  0  0  0  0
   35.7500   29.1820   35.8470 C   0  0  0  0  0  0  0  0  0  0  0  0
   34.2440   29.0410   35.7440 C   0  0  0  0  0  0  0  0  0  0  0  0
   33.7640   27.8660   36.4460 N   0  0  0  0  0  0  0  0  0  0  0  0
   34.8120   27.4270   37.3450 C   0  0  0  0  0  0  0  0  0  0  0  0
   35.2930   28.6580   38.1450 C   0  0  1  0  0  0  0  0  0  0  0  0
   36.2290   28.3350   35.3600 H   0  0  0  0  0  0  0  0  0  0  0  0
   36.0230   30.0860   35.2770 H   0  0  0  0  0  0  0  0  0  0  0  0
   34.0340   28.8610   34.6690 H   0  0  0  0  0  0  0  0  0  0  0  0
   33.7060   29.9570   36.0240 H   0  0  0  0  0  0  0  0  0  0  0  0
   33.4610   27.1140   35.8230 H   0  0  0  0  0  0  0  0  0  0  0  0
   35.6060   26.9790   36.7510 H   0  0  0  0  0  0  0  0  0  0  0  0
   34.3180   26.7370   38.0690 H   0  0  0  0  0  0  0  0  0  0  0  0
   34.3880   29.2560   38.3880 H   0  0  0  0  0  0  0  0  0  0  0  0
   36.4730   26.8640   39.5920 C   0  0  0  0  0  3  0  0  0  0  0  0
   35.9310   28.0980   39.3470 C   0  0  0  0  0  0  0  0  0  0  0  0
   36.0270   28.9590   40.4470 C   0  0  0  0  0  0  0  0  0  0  0  0
   35.6360   29.9660   40.3880 H   0  0  0  0  0  0  0  0  0  0  0  0
   36.5970   28.6400   41.6590 C   0  0  0  0  0  0  0  0  0  0  0  0
   36.7820   29.3060   42.8060 N   0  0  0  0  0  0  0  0  0  0  0  0
   36.4960   30.2920   43.0040 H   0  0  0  0  0  0  0  0  0  0  0  0
   37.4040   28.4990   43.6770 C   0  0  0  0  0  0  0  0  0  0  0  0
   37.6820   28.7700   44.6870 H   0  0  0  0  0  0  0  0  0  0  0  0
   37.6380   27.2750   43.1060 C   0  0  0  0  0  3  0  0  0  0  0  0
   37.1200   27.3910   41.8340 C   0  0  0  0  0  0  0  0  0  0  0  0
   37.0530   26.4990   40.7850 C   0  0  0  0  0  3  0  0  0  0  0  0
   38.9890   28.0170   36.9670 Br  0  0  0  0  0  0  0  0  0  0  0  0
   38.5820   29.7620   37.6510 C   0  0  0  0  0  0  0  0  0  0  0  0
   39.5970   30.5650   38.0880 C   0  0  0  0  0  0  0  0  0  0  0  0
   39.3210   31.8350   38.6050 C   0  0  0  0  0  0  0  0  0  0  0  0
   38.0090   32.2360   38.6560 C   0  0  0  0  0  0  0  0  0  0  0  0
   37.0200   31.3900   38.2030 C   0  0  0  0  0  0  0  0  0  0  0  0
   37.2650   30.1680   37.7020 C   0  0  0  0  0  0  0  0  0  0  0  0
   40.1860   32.4100   38.9290 H   0  0  0  0  0  0  0  0  0  0  0  0
   37.8820   33.2270   39.0670 H   0  0  0  0  0  0  0  0  0  0  0  0
   36.0620   31.8710   38.3430 H   0  0  0  0  0  0  0  0  0  0  0  0
   42.7400   28.9290   38.9510 C   0  0  0  0  0  0  0  0  0  0  0  0
   43.5830   29.2100   37.8380 C   0  0  0  0  0  0  0  0  0  0  0  0
   43.0300   29.9650   36.8160 C   0  0  0  0  0  0  0  0  0  0  0  0
   41.7530   30.3830   36.9240 N   0  0  0  0  0  0  0  0  0  0  0  0
   40.9670   30.0910   38.0170 C   0  0  0  0  0  0  0  0  0  0  0  0
   41.4850   29.3630   39.0140 N   0  0  0  0  0  0  0  0  0  0  0  0
   43.1880   28.3380   39.7430 H   0  0  0  0  0  0  0  0  0  0  0  0
   44.6050   28.8560   37.7880 H   0  0  0  0  0  0  0  0  0  0  0  0
   43.5820   30.2280   35.9380 H   0  0  0  0  0  0  0  0  0  0  0  0
  1 33  1  0  0  0  0
  1  6  1  0  0  0  0
  2  1  1  0  0  0  0
  3  2  1  0  0  0  0
  3 10  1  0  0  0  0
  3  4  1  0  0  0  0
  4  5  1  0  0  0  0
  5 13  1  0  0  0  0
  5  6  1  0  0  0  0
  6 14  1  1  0  0  0
  6 16  1  0  0  0  0
  7  2  1  0  0  0  0
  8  2  1  0  0  0  0
  9  3  1  0  0  0  0
 11  4  1  0  0  0  0
 12  5  1  0  0  0  0
 15 26  1  0  0  0  0
 16 15  2  0  0  0  0
 16 17  1  0  0  0  0
 17 19  2  0  0  0  0
 18 17  1  0  0  0  0
 19 25  1  0  0  0  0
 19 20  1  0  0  0  0
 20 21  1  0  0  0  0
 20 22  1  0  0  0  0
 22 23  1  0  0  0  0
 24 22  2  0  0  0  0
 25 24  1  0  0  0  0
 26 25  2  0  0  0  0
 27 28  1  0  0  0  0
 28 33  2  0  0  0  0
 28 29  1  0  0  0  0
 29 30  2  0  0  0  0
 30 31  1  0  0  0  0
 30 34  1  0  0  0  0
 31 35  1  0  0  0  0
 32 36  1  0  0  0  0
 32 31  2  0  0  0  0
 33 32  1  0  0  0  0
 37 42  1  0  0  0  0
 37 43  1  0  0  0  0
 38 37  2  0  0  0  0
 39 40  2  0  0  0  0
 39 38  1  0  0  0  0
 40 41  1  0  0  0  0
 41 29  1  0  0  0  0
 41 42  2  0  0  0  0
 44 38  1  0  0  0  0
 45 39  1  0  0  0  0
M  END
>  <minimizedAffinity>
-6.12674999

$$$$
