
 OpenBabel03252504283D

 30 32  0  0  0  0  0  0  0  0999 V2000
   42.2650   35.3520   40.7060 C   0  0  0  0  0  0  0  0  0  0  0  0
   40.9880   35.7970   40.7080 C   0  0  0  0  0  0  0  0  0  0  0  0
   39.9960   35.6660   39.6060 C   0  0  0  0  0  0  0  0  0  0  0  0
   39.1290   36.3030   39.9290 H   0  0  0  0  0  0  0  0  0  0  0  0
   40.3750   36.1160   38.6580 H   0  0  0  0  0  0  0  0  0  0  0  0
   39.6480   33.5660   38.2440 C   0  0  0  0  0  0  0  0  0  0  0  0
   39.5150   34.2880   39.4320 C   0  0  0  0  0  0  0  0  0  0  0  0
   38.8920   33.6640   40.5090 C   0  0  0  0  0  0  0  0  0  0  0  0
   38.7400   34.1390   41.4770 H   0  0  0  0  0  0  0  0  0  0  0  0
   38.4050   32.3760   40.4540 C   0  0  0  0  0  0  0  0  0  0  0  0
   37.7790   31.5440   41.3030 N   0  0  0  0  0  0  0  0  0  0  0  0
   37.5290   31.7710   42.2740 H   0  0  0  0  0  0  0  0  0  0  0  0
   37.5180   30.3650   40.7250 C   0  0  0  0  0  0  0  0  0  0  0  0
   37.0190   29.5190   41.2010 H   0  0  0  0  0  0  0  0  0  0  0  0
   37.9900   30.4150   39.4350 C   0  0  0  0  0  0  0  0  0  0  0  0
   38.5420   31.6760   39.2770 C   0  0  0  0  0  0  0  0  0  0  0  0
   39.1510   32.2850   38.2220 C   0  0  0  0  0  0  0  0  0  0  0  0
   43.0520   35.5620   41.8260 O   0  0  0  0  0  0  0  0  0  0  0  0
   44.3870   35.2970   42.0000 C   0  0  0  0  0  0  0  0  0  0  0  0
   44.7940   34.7690   41.1220 H   0  0  0  0  0  0  0  0  0  0  0  0
   44.9110   36.3160   41.9440 H   0  0  0  0  0  0  0  0  0  0  0  0
   44.4130   35.5720   44.3620 C   0  0  0  0  0  0  0  0  0  0  0  0
   44.7690   34.7450   43.2870 C   0  0  0  0  0  0  0  0  0  0  0  0
   45.4110   33.5810   43.6100 C   0  0  0  0  0  0  0  0  0  0  0  0
   45.6460   33.3210   44.9040 N   0  0  0  0  0  0  0  0  0  0  0  0
   45.3030   34.1130   45.9140 C   0  0  0  0  0  0  0  0  0  0  0  0
   44.6500   35.3120   45.6830 N   0  0  0  0  0  0  0  0  0  0  0  0
   43.8930   36.5380   44.2660 H   0  0  0  0  0  0  0  0  0  0  0  0
   45.6650   32.9770   42.7500 H   0  0  0  0  0  0  0  0  0  0  0  0
   45.5520   33.7880   46.9140 H   0  0  0  0  0  0  0  0  0  0  0  0
  1  2  2  0  0  0  0
  1 18  1  0  0  0  0
  3  4  1  0  0  0  0
  3  2  1  0  0  0  0
  5  3  1  0  0  0  0
  6  7  1  0  0  0  0
  7  3  1  0  0  0  0
  7  8  2  0  0  0  0
  8  9  1  0  0  0  0
 10  8  1  0  0  0  0
 10 11  1  0  0  0  0
 11 12  1  0  0  0  0
 13 14  1  0  0  0  0
 13 11  1  0  0  0  0
 15 13  2  0  0  0  0
 16 15  1  0  0  0  0
 16 10  2  0  0  0  0
 17  6  2  0  0  0  0
 17 16  1  0  0  0  0
 18 19  1  0  0  0  0
 19 23  1  0  0  0  0
 20 19  1  0  0  0  0
 21 19  1  0  0  0  0
 22 27  1  0  0  0  0
 23 24  1  0  0  0  0
 23 22  2  0  0  0  0
 24 25  2  0  0  0  0
 25 26  1  0  0  0  0
 26 30  1  0  0  0  0
 27 26  2  0  0  0  0
 28 22  1  0  0  0  0
 29 24  1  0  0  0  0
M  END
>  <minimizedAffinity>
-5.82671404

>  <minimizedRMSD>
1.94534731

$$$$
