
 OpenBabel03242514053D

 46 50  0  0  1  0  0  0  0  0999 V2000
   47.6830   33.1800   40.4600 C   0  0  1  0  0  0  0  0  0  0  0  0
   48.2160   34.5030   39.9960 C   0  0  0  0  0  0  0  0  0  0  0  0
   48.6970   35.1840   41.2910 C   0  0  0  0  0  0  0  0  0  0  0  0
   47.4240   35.5150   42.0650 C   0  0  0  0  0  0  0  0  0  0  0  0
   46.6320   34.3010   42.3710 C   0  0  0  0  0  0  0  0  0  0  0  0
   46.4890   33.2820   41.2980 C   0  0  1  0  0  0  0  0  0  0  0  0
   48.5010   32.7950   41.1660 H   0  0  0  0  0  0  0  0  0  0  0  0
   49.0670   34.3930   39.2900 H   0  0  0  0  0  0  0  0  0  0  0  0
   47.5130   35.2120   39.5820 H   0  0  0  0  0  0  0  0  0  0  0  0
   49.3500   34.4840   41.8440 H   0  0  0  0  0  0  0  0  0  0  0  0
   49.2030   36.1560   41.0650 H   0  0  0  0  0  0  0  0  0  0  0  0
   47.7830   35.9520   43.0280 H   0  0  0  0  0  0  0  0  0  0  0  0
   46.9050   36.3140   41.5340 H   0  0  0  0  0  0  0  0  0  0  0  0
   45.6020   34.6540   42.6550 H   0  0  0  0  0  0  0  0  0  0  0  0
   47.0150   33.8530   43.3330 H   0  0  0  0  0  0  0  0  0  0  0  0
   46.4060   32.3020   41.9180 H   0  0  0  0  0  0  0  0  0  0  0  0
   44.7930   33.4640   39.3940 C   0  0  0  0  0  0  0  0  0  0  0  0
   45.1740   33.4130   40.6900 C   0  0  0  0  0  0  0  0  0  0  0  0
   44.0620   33.5310   41.5490 C   0  0  0  0  0  0  0  0  0  0  0  0
   44.2400   33.5030   42.6380 H   0  0  0  0  0  0  0  0  0  0  0  0
   42.7540   33.6800   41.1430 C   0  0  0  0  0  0  0  0  0  0  0  0
   41.6180   33.8020   41.8490 N   0  0  0  0  0  0  0  0  0  0  0  0
   41.4950   33.8090   42.8950 H   0  0  0  0  0  0  0  0  0  0  0  0
   40.6180   33.9200   40.9590 C   0  0  0  0  0  0  0  0  0  0  0  0
   39.5890   34.0340   41.2220 H   0  0  0  0  0  0  0  0  0  0  0  0
   41.1120   33.8740   39.6960 C   0  0  0  0  0  0  0  0  0  0  0  0
   42.4670   33.7220   39.8130 C   0  0  0  0  0  0  0  0  0  0  0  0
   43.5020   33.6120   38.9360 C   0  0  0  0  0  0  0  0  0  0  0  0
   48.0670   31.4090   37.2550 C   0  0  0  0  0  0  0  0  0  0  0  0
   47.4580   30.2040   37.5680 C   0  0  0  0  0  0  0  0  0  0  0  0
   46.9110   29.9030   38.7910 C   0  0  0  0  0  0  0  0  0  0  0  0
   47.0040   30.9140   39.7350 C   0  0  0  0  0  0  0  0  0  0  0  0
   47.6140   32.1360   39.4360 C   0  0  0  0  0  0  0  0  0  0  0  0
   48.1310   32.3520   38.2010 N   0  0  0  0  0  0  0  0  0  0  0  0
   47.4210   29.4590   36.7810 H   0  0  0  0  0  0  0  0  0  0  0  0
   46.4430   28.9480   38.9970 H   0  0  0  0  0  0  0  0  0  0  0  0
   46.5740   30.6750   40.7010 H   0  0  0  0  0  0  0  0  0  0  0  0
   50.1900   31.0950   34.2880 C   0  0  0  0  0  0  0  0  0  0  0  0
   49.6580   32.0560   33.4070 C   0  0  0  0  0  0  0  0  0  0  0  0
   48.5550   32.8040   33.8750 C   0  0  0  0  0  0  0  0  0  0  0  0
   48.0670   32.5630   35.1380 N   0  0  0  0  0  0  0  0  0  0  0  0
   48.6210   31.6310   35.9260 C   0  0  0  0  0  0  0  0  0  0  0  0
   49.6660   30.9050   35.5130 N   0  0  0  0  0  0  0  0  0  0  0  0
   51.0290   30.5470   33.8930 H   0  0  0  0  0  0  0  0  0  0  0  0
   50.0510   32.2370   32.4180 H   0  0  0  0  0  0  0  0  0  0  0  0
   48.1040   33.5580   33.2420 H   0  0  0  0  0  0  0  0  0  0  0  0
  1  7  1  1  0  0  0
  1  6  1  0  0  0  0
  2  1  1  0  0  0  0
  2  3  1  0  0  0  0
  3 10  1  0  0  0  0
  3  4  1  0  0  0  0
  4  5  1  0  0  0  0
  4 12  1  0  0  0  0
  5 14  1  0  0  0  0
  5 15  1  0  0  0  0
  6 16  1  1  0  0  0
  6  5  1  0  0  0  0
  8  2  1  0  0  0  0
  9  2  1  0  0  0  0
 11  3  1  0  0  0  0
 13  4  1  0  0  0  0
 17 18  1  0  0  0  0
 18  6  1  0  0  0  0
 18 19  2  0  0  0  0
 19 20  1  0  0  0  0
 21 19  1  0  0  0  0
 21 22  1  0  0  0  0
 22 23  1  0  0  0  0
 24 25  1  0  0  0  0
 24 22  1  0  0  0  0
 26 27  1  0  0  0  0
 26 24  2  0  0  0  0
 27 21  2  0  0  0  0
 28 17  2  0  0  0  0
 28 27  1  0  0  0  0
 29 30  2  0  0  0  0
 29 34  1  0  0  0  0
 30 31  1  0  0  0  0
 31 36  1  0  0  0  0
 31 32  2  0  0  0  0
 32 37  1  0  0  0  0
 33 32  1  0  0  0  0
 33  1  1  0  0  0  0
 34 33  2  0  0  0  0
 35 30  1  0  0  0  0
 38 43  1  0  0  0  0
 39 40  1  0  0  0  0
 39 38  2  0  0  0  0
 40 41  2  0  0  0  0
 41 42  1  0  0  0  0
 42 29  1  0  0  0  0
 43 42  2  0  0  0  0
 44 38  1  0  0  0  0
 45 39  1  0  0  0  0
 46 40  1  0  0  0  0
M  END
>  <minimizedAffinity>
-5.3644495

>  <minimizedRMSD>
7.60826588

$$$$
