
 OpenBabel03252503583D

 23 25  0  0  0  0  0  0  0  0999 V2000
   36.7480   30.9710   40.6460 C   0  0  0  0  0  3  0  0  0  0  0  0
   37.7320   30.2780   41.3340 C   0  0  0  0  0  0  0  0  0  0  0  0
   38.9600   30.8710   41.5580 C   0  0  0  0  0  0  0  0  0  0  0  0
   39.7290   30.3140   42.1030 H   0  0  0  0  0  0  0  0  0  0  0  0
   39.1880   32.1490   41.0950 C   0  0  0  0  0  0  0  0  0  0  0  0
   40.2460   32.9750   41.1520 N   0  0  0  0  0  0  0  0  0  0  0  0
   41.1440   32.7120   41.6190 H   0  0  0  0  0  0  0  0  0  0  0  0
   39.9760   34.1410   40.5410 C   0  0  0  0  0  0  0  0  0  0  0  0
   40.6200   35.0050   40.4200 H   0  0  0  0  0  0  0  0  0  0  0  0
   38.6870   34.0920   40.0550 C   0  0  0  0  0  3  0  0  0  0  0  0
   38.1980   32.8490   40.4020 C   0  0  0  0  0  0  0  0  0  0  0  0
   36.9760   32.2490   40.1820 C   0  0  0  0  0  3  0  0  0  0  0  0
   37.0500   26.6920   41.2870 C   0  0  0  0  0  0  0  0  0  0  0  0
   36.8340   26.3720   42.6240 C   0  0  0  0  0  0  0  0  0  0  0  0
   36.9250   27.4030   43.5510 C   0  0  0  0  0  0  0  0  0  0  0  0
   37.2150   28.6530   43.1120 N   0  0  0  0  0  0  0  0  0  0  0  0
   37.4190   28.9220   41.7980 C   0  0  0  0  0  0  0  0  0  0  0  0
   37.3370   27.9430   40.8790 N   0  0  0  0  0  0  0  0  0  0  0  0
   36.6030   25.3800   42.9840 H   0  0  0  0  0  0  0  0  0  0  0  0
   36.7700   27.2330   44.6100 H   0  0  0  0  0  0  0  0  0  0  0  0
   36.9450   25.5830   40.3640 C   0  0  0  0  0  0  0  0  0  0  0  0
   37.8010   24.6510   40.2320 O   0  0  0  0  0  0  0  0  0  0  0  0
   36.1530   25.3680   39.6580 H   0  0  0  0  0  0  0  0  0  0  0  0
  1  2  1  0  0  0  0
  2  3  2  0  0  0  0
  2 17  1  0  0  0  0
  3  4  1  0  0  0  0
  5  6  1  0  0  0  0
  5  3  1  0  0  0  0
  6  7  1  0  0  0  0
  8  6  1  0  0  0  0
  9  8  1  0  0  0  0
 10 11  1  0  0  0  0
 10  8  2  0  0  0  0
 11  5  2  0  0  0  0
 12 11  1  0  0  0  0
 12  1  2  0  0  0  0
 13 14  1  0  0  0  0
 14 19  1  0  0  0  0
 14 15  2  0  0  0  0
 15 20  1  0  0  0  0
 16 15  1  0  0  0  0
 17 16  2  0  0  0  0
 18 13  2  0  0  0  0
 18 17  1  0  0  0  0
 21 13  1  0  0  0  0
 22 21  2  0  0  0  0
 23 21  1  0  0  0  0
M  END
>  <minimizedAffinity>
-4.95064878

$$$$

 OpenBabel03252503583D

 23 25  0  0  0  0  0  0  0  0999 V2000
   41.0990   29.0730   42.5640 C   0  0  0  0  0  3  0  0  0  0  0  0
   40.4750   30.3020   42.4170 C   0  0  0  0  0  0  0  0  0  0  0  0
   39.1200   30.4170   42.6610 C   0  0  0  0  0  0  0  0  0  0  0  0
   38.6380   31.3930   42.5420 H   0  0  0  0  0  0  0  0  0  0  0  0
   38.4060   29.3030   43.0490 C   0  0  0  0  0  0  0  0  0  0  0  0
   37.1140   29.0960   43.3520 N   0  0  0  0  0  0  0  0  0  0  0  0
   36.3980   29.8580   43.3270 H   0  0  0  0  0  0  0  0  0  0  0  0
   36.8990   27.8100   43.6800 C   0  0  0  0  0  0  0  0  0  0  0  0
   35.9700   27.3340   43.9710 H   0  0  0  0  0  0  0  0  0  0  0  0
   38.0950   27.1310   43.5910 C   0  0  0  0  0  3  0  0  0  0  0  0
   39.0340   28.0640   43.1980 C   0  0  0  0  0  0  0  0  0  0  0  0
   40.3860   27.9590   42.9520 C   0  0  0  0  0  3  0  0  0  0  0  0
   41.5790   33.2740   40.6080 C   0  0  0  0  0  0  0  0  0  0  0  0
   42.8040   33.5890   41.1910 C   0  0  0  0  0  0  0  0  0  0  0  0
   43.2520   32.7670   42.2180 C   0  0  0  0  0  0  0  0  0  0  0  0
   42.4850   31.7140   42.5950 N   0  0  0  0  0  0  0  0  0  0  0  0
   41.2970   31.4430   42.0010 C   0  0  0  0  0  0  0  0  0  0  0  0
   40.8380   32.2220   41.0040 N   0  0  0  0  0  0  0  0  0  0  0  0
   43.4220   34.4250   40.8980 H   0  0  0  0  0  0  0  0  0  0  0  0
   44.1950   32.9470   42.7200 H   0  0  0  0  0  0  0  0  0  0  0  0
   41.1580   34.1610   39.5450 C   0  0  0  0  0  0  0  0  0  0  0  0
   41.4640   34.0340   38.3160 O   0  0  0  0  0  0  0  0  0  0  0  0
   40.5390   35.0460   39.6120 H   0  0  0  0  0  0  0  0  0  0  0  0
  1 12  1  0  0  0  0
  2  1  2  0  0  0  0
  2  3  1  0  0  0  0
  3  5  2  0  0  0  0
  4  3  1  0  0  0  0
  5 11  1  0  0  0  0
  5  6  1  0  0  0  0
  6  8  1  0  0  0  0
  7  6  1  0  0  0  0
  8  9  1  0  0  0  0
 10  8  2  0  0  0  0
 11 10  1  0  0  0  0
 12 11  2  0  0  0  0
 13 18  2  0  0  0  0
 13 14  1  0  0  0  0
 14 15  2  0  0  0  0
 15 16  1  0  0  0  0
 15 20  1  0  0  0  0
 17  2  1  0  0  0  0
 17 16  2  0  0  0  0
 18 17  1  0  0  0  0
 19 14  1  0  0  0  0
 21 23  1  0  0  0  0
 21 13  1  0  0  0  0
 22 21  2  0  0  0  0
M  END
>  <minimizedAffinity>
-4.91798258

$$$$

 OpenBabel03252503583D

 23 25  0  0  0  0  0  0  0  0999 V2000
   37.1800   28.3390   42.6710 C   0  0  0  0  0  3  0  0  0  0  0  0
   37.9270   28.6100   41.5350 C   0  0  0  0  0  0  0  0  0  0  0  0
   38.2730   27.5810   40.6800 C   0  0  0  0  0  0  0  0  0  0  0  0
   38.8620   27.8080   39.7850 H   0  0  0  0  0  0  0  0  0  0  0  0
   37.8670   26.2960   40.9690 C   0  0  0  0  0  0  0  0  0  0  0  0
   38.0390   25.1150   40.3530 N   0  0  0  0  0  0  0  0  0  0  0  0
   38.5710   25.0160   39.4590 H   0  0  0  0  0  0  0  0  0  0  0  0
   37.4400   24.1260   41.0400 C   0  0  0  0  0  0  0  0  0  0  0  0
   37.3990   23.0690   40.8030 H   0  0  0  0  0  0  0  0  0  0  0  0
   36.8470   24.6680   42.1600 C   0  0  0  0  0  3  0  0  0  0  0  0
   37.1150   26.0210   42.1140 C   0  0  0  0  0  0  0  0  0  0  0  0
   36.7740   27.0540   42.9620 C   0  0  0  0  0  3  0  0  0  0  0  0
   37.9720   31.9860   40.1480 C   0  0  0  0  0  0  0  0  0  0  0  0
   39.0320   32.6060   40.8030 C   0  0  0  0  0  0  0  0  0  0  0  0
   39.7380   31.8520   41.7320 C   0  0  0  0  0  0  0  0  0  0  0  0
   39.3640   30.5670   41.9510 N   0  0  0  0  0  0  0  0  0  0  0  0
   38.3230   30.0010   41.2910 C   0  0  0  0  0  0  0  0  0  0  0  0
   37.6220   30.7080   40.3860 N   0  0  0  0  0  0  0  0  0  0  0  0
   39.3380   33.6290   40.6360 H   0  0  0  0  0  0  0  0  0  0  0  0
   40.5760   32.2640   42.2820 H   0  0  0  0  0  0  0  0  0  0  0  0
   37.2710   32.8150   39.1920 C   0  0  0  0  0  0  0  0  0  0  0  0
   36.9590   34.0370   39.3650 O   0  0  0  0  0  0  0  0  0  0  0  0
   36.9060   32.5470   38.2090 H   0  0  0  0  0  0  0  0  0  0  0  0
  1 12  1  0  0  0  0
  2  1  2  0  0  0  0
  3  5  2  0  0  0  0
  3  2  1  0  0  0  0
  4  3  1  0  0  0  0
  5 11  1  0  0  0  0
  6  5  1  0  0  0  0
  6  8  1  0  0  0  0
  7  6  1  0  0  0  0
  8 10  2  0  0  0  0
  9  8  1  0  0  0  0
 11 10  1  0  0  0  0
 11 12  2  0  0  0  0
 13 18  2  0  0  0  0
 13 14  1  0  0  0  0
 14 15  2  0  0  0  0
 15 16  1  0  0  0  0
 15 20  1  0  0  0  0
 17  2  1  0  0  0  0
 17 16  2  0  0  0  0
 18 17  1  0  0  0  0
 19 14  1  0  0  0  0
 21 22  2  0  0  0  0
 21 13  1  0  0  0  0
 23 21  1  0  0  0  0
M  END
>  <minimizedAffinity>
-4.76884365

$$$$

 OpenBabel03252503583D

 23 25  0  0  0  0  0  0  0  0999 V2000
   40.3370   29.8120   42.0270 C   0  0  0  0  0  3  0  0  0  0  0  0
   39.3230   30.6470   41.5850 C   0  0  0  0  0  0  0  0  0  0  0  0
   38.0040   30.3080   41.8180 C   0  0  0  0  0  0  0  0  0  0  0  0
   37.2120   30.9760   41.4650 H   0  0  0  0  0  0  0  0  0  0  0  0
   37.7150   29.1400   42.4910 C   0  0  0  0  0  0  0  0  0  0  0  0
   36.5660   28.5510   42.8620 N   0  0  0  0  0  0  0  0  0  0  0  0
   35.6280   28.9630   42.6580 H   0  0  0  0  0  0  0  0  0  0  0  0
   36.8090   27.3980   43.5100 C   0  0  0  0  0  0  0  0  0  0  0  0
   36.0960   26.6980   43.9310 H   0  0  0  0  0  0  0  0  0  0  0  0
   38.1720   27.2100   43.5730 C   0  0  0  0  0  3  0  0  0  0  0  0
   38.7360   28.2970   42.9370 C   0  0  0  0  0  0  0  0  0  0  0  0
   40.0490   28.6440   42.7000 C   0  0  0  0  0  3  0  0  0  0  0  0
   41.1490   32.9460   39.4150 C   0  0  0  0  0  0  0  0  0  0  0  0
   40.4530   34.1450   39.5320 C   0  0  0  0  0  0  0  0  0  0  0  0
   39.3430   34.1610   40.3670 C   0  0  0  0  0  0  0  0  0  0  0  0
   38.9980   33.0220   41.0180 N   0  0  0  0  0  0  0  0  0  0  0  0
   39.7050   31.8730   40.8760 C   0  0  0  0  0  0  0  0  0  0  0  0
   40.7840   31.8300   40.0730 N   0  0  0  0  0  0  0  0  0  0  0  0
   40.7190   35.0570   39.0180 H   0  0  0  0  0  0  0  0  0  0  0  0
   38.7500   35.0570   40.5100 H   0  0  0  0  0  0  0  0  0  0  0  0
   42.2950   32.9830   38.5330 C   0  0  0  0  0  0  0  0  0  0  0  0
   42.2550   33.2100   37.2810 O   0  0  0  0  0  0  0  0  0  0  0  0
   43.3380   32.8300   38.7780 H   0  0  0  0  0  0  0  0  0  0  0  0
  1 12  1  0  0  0  0
  2  3  1  0  0  0  0
  2  1  2  0  0  0  0
  3  5  2  0  0  0  0
  4  3  1  0  0  0  0
  5  6  1  0  0  0  0
  5 11  1  0  0  0  0
  6  8  1  0  0  0  0
  7  6  1  0  0  0  0
  8 10  2  0  0  0  0
  8  9  1  0  0  0  0
 11 10  1  0  0  0  0
 12 11  2  0  0  0  0
 13 14  2  0  0  0  0
 13 18  1  0  0  0  0
 14 15  1  0  0  0  0
 15 20  1  0  0  0  0
 15 16  2  0  0  0  0
 17 16  1  0  0  0  0
 17  2  1  0  0  0  0
 18 17  2  0  0  0  0
 19 14  1  0  0  0  0
 21 23  1  0  0  0  0
 21 13  1  0  0  0  0
 22 21  2  0  0  0  0
M  END
>  <minimizedAffinity>
-4.76332045

$$$$

 OpenBabel03252503583D

 23 25  0  0  0  0  0  0  0  0999 V2000
   36.4650   26.9020   39.5920 C   0  0  0  0  0  3  0  0  0  0  0  0
   35.9100   28.1640   39.4470 C   0  0  0  0  0  0  0  0  0  0  0  0
   35.9840   29.0700   40.4870 C   0  0  0  0  0  0  0  0  0  0  0  0
   35.5420   30.0640   40.3600 H   0  0  0  0  0  0  0  0  0  0  0  0
   36.6120   28.7050   41.6590 C   0  0  0  0  0  0  0  0  0  0  0  0
   36.8410   29.3420   42.8190 N   0  0  0  0  0  0  0  0  0  0  0  0
   36.5290   30.3240   42.9950 H   0  0  0  0  0  0  0  0  0  0  0  0
   37.5070   28.5500   43.6760 C   0  0  0  0  0  0  0  0  0  0  0  0
   37.8370   28.7730   44.6850 H   0  0  0  0  0  0  0  0  0  0  0  0
   37.7310   27.3350   43.0650 C   0  0  0  0  0  3  0  0  0  0  0  0
   37.1720   27.4340   41.8070 C   0  0  0  0  0  0  0  0  0  0  0  0
   37.0930   26.5360   40.7630 C   0  0  0  0  0  3  0  0  0  0  0  0
   35.4600   29.0460   35.9330 C   0  0  0  0  0  0  0  0  0  0  0  0
   34.0780   29.0860   35.7700 C   0  0  0  0  0  0  0  0  0  0  0  0
   33.2940   28.8050   36.8820 C   0  0  0  0  0  0  0  0  0  0  0  0
   33.9070   28.5110   38.0560 N   0  0  0  0  0  0  0  0  0  0  0  0
   35.2580   28.4830   38.1720 C   0  0  0  0  0  0  0  0  0  0  0  0
   36.0410   28.7510   37.1110 N   0  0  0  0  0  0  0  0  0  0  0  0
   33.5800   29.3180   34.8400 H   0  0  0  0  0  0  0  0  0  0  0  0
   32.2120   28.8170   36.8350 H   0  0  0  0  0  0  0  0  0  0  0  0
   36.2280   29.3450   34.7450 C   0  0  0  0  0  0  0  0  0  0  0  0
   36.0350   30.3390   33.9730 O   0  0  0  0  0  0  0  0  0  0  0  0
   37.0620   28.7960   34.3270 H   0  0  0  0  0  0  0  0  0  0  0  0
  1 12  1  0  0  0  0
  2  1  2  0  0  0  0
  2  3  1  0  0  0  0
  3  5  2  0  0  0  0
  4  3  1  0  0  0  0
  5 11  1  0  0  0  0
  5  6  1  0  0  0  0
  6  7  1  0  0  0  0
  6  8  1  0  0  0  0
  8  9  1  0  0  0  0
 10  8  2  0  0  0  0
 11 10  1  0  0  0  0
 12 11  2  0  0  0  0
 13 18  1  0  0  0  0
 14 13  2  0  0  0  0
 14 15  1  0  0  0  0
 15 16  2  0  0  0  0
 16 17  1  0  0  0  0
 17  2  1  0  0  0  0
 18 17  2  0  0  0  0
 19 14  1  0  0  0  0
 20 15  1  0  0  0  0
 21 13  1  0  0  0  0
 22 21  2  0  0  0  0
 23 21  1  0  0  0  0
M  END
>  <minimizedAffinity>
-4.72956276

$$$$

 OpenBabel03252503583D

 23 25  0  0  0  0  0  0  0  0999 V2000
   35.3010   28.9510   40.5600 C   0  0  0  0  0  3  0  0  0  0  0  0
   36.2300   27.9340   40.4040 C   0  0  0  0  0  0  0  0  0  0  0  0
   36.2830   27.2290   39.2170 C   0  0  0  0  0  0  0  0  0  0  0  0
   37.0220   26.4290   39.1060 H   0  0  0  0  0  0  0  0  0  0  0  0
   35.4080   27.5480   38.2010 C   0  0  0  0  0  0  0  0  0  0  0  0
   35.2150   27.0620   36.9640 N   0  0  0  0  0  0  0  0  0  0  0  0
   35.7830   26.2770   36.5700 H   0  0  0  0  0  0  0  0  0  0  0  0
   34.2200   27.7180   36.3410 C   0  0  0  0  0  0  0  0  0  0  0  0
   33.8300   27.5610   35.3420 H   0  0  0  0  0  0  0  0  0  0  0  0
   33.7290   28.6800   37.1970 C   0  0  0  0  0  3  0  0  0  0  0  0
   34.4700   28.5730   38.3560 C   0  0  0  0  0  0  0  0  0  0  0  0
   34.4250   29.2710   39.5440 C   0  0  0  0  0  3  0  0  0  0  0  0
   38.7760   26.3060   42.4510 C   0  0  0  0  0  0  0  0  0  0  0  0
   38.8270   27.0800   43.6060 C   0  0  0  0  0  0  0  0  0  0  0  0
   37.9750   28.1750   43.6800 C   0  0  0  0  0  0  0  0  0  0  0  0
   37.1470   28.4310   42.6360 N   0  0  0  0  0  0  0  0  0  0  0  0
   37.1290   27.6490   41.5270 C   0  0  0  0  0  0  0  0  0  0  0  0
   37.9440   26.5830   41.4300 N   0  0  0  0  0  0  0  0  0  0  0  0
   39.4820   26.8860   44.4430 H   0  0  0  0  0  0  0  0  0  0  0  0
   37.9550   28.8250   44.5460 H   0  0  0  0  0  0  0  0  0  0  0  0
   39.6840   25.1800   42.4260 C   0  0  0  0  0  0  0  0  0  0  0  0
   39.6800   24.2120   43.2530 O   0  0  0  0  0  0  0  0  0  0  0  0
   40.4860   24.9780   41.7280 H   0  0  0  0  0  0  0  0  0  0  0  0
  2  1  1  0  0  0  0
  2 17  1  0  0  0  0
  3  2  2  0  0  0  0
  4  3  1  0  0  0  0
  5 11  2  0  0  0  0
  5  3  1  0  0  0  0
  6  5  1  0  0  0  0
  7  6  1  0  0  0  0
  8  6  1  0  0  0  0
  8 10  2  0  0  0  0
  9  8  1  0  0  0  0
 10 11  1  0  0  0  0
 11 12  1  0  0  0  0
 12  1  2  0  0  0  0
 13 14  1  0  0  0  0
 14 15  2  0  0  0  0
 14 19  1  0  0  0  0
 15 20  1  0  0  0  0
 16 15  1  0  0  0  0
 17 16  2  0  0  0  0
 18 17  1  0  0  0  0
 18 13  2  0  0  0  0
 21 13  1  0  0  0  0
 21 22  2  0  0  0  0
 23 21  1  0  0  0  0
M  END
>  <minimizedAffinity>
-4.70287228

$$$$

 OpenBabel03252503583D

 23 25  0  0  0  0  0  0  0  0999 V2000
   37.7490   30.9390   37.6380 C   0  0  0  0  0  3  0  0  0  0  0  0
   37.9650   31.5100   38.8820 C   0  0  0  0  0  0  0  0  0  0  0  0
   37.1190   31.2090   39.9320 C   0  0  0  0  0  0  0  0  0  0  0  0
   37.2990   31.6660   40.9110 H   0  0  0  0  0  0  0  0  0  0  0  0
   36.0680   30.3400   39.7260 C   0  0  0  0  0  0  0  0  0  0  0  0
   35.0980   29.8610   40.5230 N   0  0  0  0  0  0  0  0  0  0  0  0
   35.0130   30.1250   41.5310 H   0  0  0  0  0  0  0  0  0  0  0  0
   34.2930   29.0240   39.8450 C   0  0  0  0  0  0  0  0  0  0  0  0
   33.4270   28.4820   40.2070 H   0  0  0  0  0  0  0  0  0  0  0  0
   34.7420   28.9420   38.5450 C   0  0  0  0  0  3  0  0  0  0  0  0
   35.8490   29.7630   38.4730 C   0  0  0  0  0  0  0  0  0  0  0  0
   36.6990   30.0700   37.4310 C   0  0  0  0  0  3  0  0  0  0  0  0
   41.1330   33.2010   38.2270 C   0  0  0  0  0  0  0  0  0  0  0  0
   41.2460   34.1210   39.2650 C   0  0  0  0  0  0  0  0  0  0  0  0
   40.2190   34.1590   40.2000 C   0  0  0  0  0  0  0  0  0  0  0  0
   39.1730   33.3080   40.0560 N   0  0  0  0  0  0  0  0  0  0  0  0
   39.1020   32.4260   39.0280 C   0  0  0  0  0  0  0  0  0  0  0  0
   40.0820   32.3680   38.1090 N   0  0  0  0  0  0  0  0  0  0  0  0
   42.0750   34.8020   39.3890 H   0  0  0  0  0  0  0  0  0  0  0  0
   40.2350   34.8470   41.0370 H   0  0  0  0  0  0  0  0  0  0  0  0
   42.2280   33.2030   37.2810 C   0  0  0  0  0  0  0  0  0  0  0  0
   43.4310   33.5250   37.5480 O   0  0  0  0  0  0  0  0  0  0  0  0
   42.2110   32.9440   36.2310 H   0  0  0  0  0  0  0  0  0  0  0  0
  1  2  1  0  0  0  0
  2 17  1  0  0  0  0
  2  3  2  0  0  0  0
  3  4  1  0  0  0  0
  5  3  1  0  0  0  0
  5  6  1  0  0  0  0
  6  7  1  0  0  0  0
  8  9  1  0  0  0  0
  8  6  1  0  0  0  0
 10  8  2  0  0  0  0
 11 10  1  0  0  0  0
 11  5  2  0  0  0  0
 12  1  2  0  0  0  0
 12 11  1  0  0  0  0
 13 14  1  0  0  0  0
 14 19  1  0  0  0  0
 14 15  2  0  0  0  0
 15 20  1  0  0  0  0
 16 15  1  0  0  0  0
 17 16  2  0  0  0  0
 18 13  2  0  0  0  0
 18 17  1  0  0  0  0
 21 22  2  0  0  0  0
 21 13  1  0  0  0  0
 23 21  1  0  0  0  0
M  END
>  <minimizedAffinity>
-4.69769573

$$$$

 OpenBabel03252503583D

 23 25  0  0  0  0  0  0  0  0999 V2000
   36.6990   28.9620   38.5630 C   0  0  0  0  0  3  0  0  0  0  0  0
   35.9690   28.9680   39.7410 C   0  0  0  0  0  0  0  0  0  0  0  0
   34.5890   28.9970   39.6940 C   0  0  0  0  0  0  0  0  0  0  0  0
   34.0230   29.0000   40.6320 H   0  0  0  0  0  0  0  0  0  0  0  0
   33.9540   29.0180   38.4700 C   0  0  0  0  0  0  0  0  0  0  0  0
   32.6620   29.0470   38.1020 N   0  0  0  0  0  0  0  0  0  0  0  0
   31.8780   29.0570   38.7930 H   0  0  0  0  0  0  0  0  0  0  0  0
   32.5470   29.0580   36.7620 C   0  0  0  0  0  0  0  0  0  0  0  0
   31.6440   29.0800   36.1630 H   0  0  0  0  0  0  0  0  0  0  0  0
   33.8120   29.0370   36.2150 C   0  0  0  0  0  3  0  0  0  0  0  0
   34.6880   29.0120   37.2810 C   0  0  0  0  0  0  0  0  0  0  0  0
   36.0650   28.9840   37.3380 C   0  0  0  0  0  3  0  0  0  0  0  0
   38.4350   29.7890   42.3050 C   0  0  0  0  0  0  0  0  0  0  0  0
   38.1250   28.9330   43.3580 C   0  0  0  0  0  0  0  0  0  0  0  0
   37.0550   28.0640   43.1820 C   0  0  0  0  0  0  0  0  0  0  0  0
   36.3750   28.0930   42.0080 N   0  0  0  0  0  0  0  0  0  0  0  0
   36.7110   28.9450   41.0070 C   0  0  0  0  0  0  0  0  0  0  0  0
   37.7420   29.7970   41.1510 N   0  0  0  0  0  0  0  0  0  0  0  0
   38.6590   28.9010   44.2960 H   0  0  0  0  0  0  0  0  0  0  0  0
   36.7530   27.3670   43.9540 H   0  0  0  0  0  0  0  0  0  0  0  0
   39.5560   30.6720   42.5410 C   0  0  0  0  0  0  0  0  0  0  0  0
   39.8370   31.7050   41.8510 O   0  0  0  0  0  0  0  0  0  0  0  0
   40.3140   30.6070   43.3100 H   0  0  0  0  0  0  0  0  0  0  0  0
  1  2  1  0  0  0  0
  2 17  1  0  0  0  0
  3  2  2  0  0  0  0
  3  4  1  0  0  0  0
  5  3  1  0  0  0  0
  6  5  1  0  0  0  0
  6  7  1  0  0  0  0
  8  6  1  0  0  0  0
  9  8  1  0  0  0  0
 10  8  2  0  0  0  0
 10 11  1  0  0  0  0
 11 12  1  0  0  0  0
 11  5  2  0  0  0  0
 12  1  2  0  0  0  0
 13 21  1  0  0  0  0
 13 14  1  0  0  0  0
 14 19  1  0  0  0  0
 15 14  2  0  0  0  0
 15 20  1  0  0  0  0
 16 15  1  0  0  0  0
 17 18  1  0  0  0  0
 17 16  2  0  0  0  0
 18 13  2  0  0  0  0
 21 23  1  0  0  0  0
 22 21  2  0  0  0  0
M  END
>  <minimizedAffinity>
-4.69705009

$$$$

 OpenBabel03252503583D

 23 25  0  0  0  0  0  0  0  0999 V2000
   37.3850   28.3750   42.0500 C   0  0  0  0  0  3  0  0  0  0  0  0
   37.2650   28.5030   40.6750 C   0  0  0  0  0  0  0  0  0  0  0  0
   37.0400   27.3840   39.8980 C   0  0  0  0  0  0  0  0  0  0  0  0
   36.9460   27.4980   38.8130 H   0  0  0  0  0  0  0  0  0  0  0  0
   36.9350   26.1500   40.5030 C   0  0  0  0  0  0  0  0  0  0  0  0
   36.7230   24.9080   40.0360 N   0  0  0  0  0  0  0  0  0  0  0  0
   36.5940   24.7020   39.0190 H   0  0  0  0  0  0  0  0  0  0  0  0
   36.7030   24.0160   41.0410 C   0  0  0  0  0  0  0  0  0  0  0  0
   36.5550   22.9430   40.9880 H   0  0  0  0  0  0  0  0  0  0  0  0
   36.9110   24.6870   42.2260 C   0  0  0  0  0  3  0  0  0  0  0  0
   37.0550   26.0180   41.8890 C   0  0  0  0  0  0  0  0  0  0  0  0
   37.2810   27.1410   42.6570 C   0  0  0  0  0  3  0  0  0  0  0  0
   38.1710   32.0200   40.2960 C   0  0  0  0  0  0  0  0  0  0  0  0
   37.6390   32.3730   39.0590 C   0  0  0  0  0  0  0  0  0  0  0  0
   36.9620   31.3890   38.3490 C   0  0  0  0  0  0  0  0  0  0  0  0
   36.8540   30.1500   38.8900 N   0  0  0  0  0  0  0  0  0  0  0  0
   37.3880   29.8470   40.0990 C   0  0  0  0  0  0  0  0  0  0  0  0
   38.0480   30.7810   40.8080 N   0  0  0  0  0  0  0  0  0  0  0  0
   37.7200   33.3570   38.6190 H   0  0  0  0  0  0  0  0  0  0  0  0
   36.5200   31.5880   37.3790 H   0  0  0  0  0  0  0  0  0  0  0  0
   38.8650   33.0800   40.9920 C   0  0  0  0  0  0  0  0  0  0  0  0
   40.0420   33.4880   40.7280 O   0  0  0  0  0  0  0  0  0  0  0  0
   38.5170   33.6810   41.8230 H   0  0  0  0  0  0  0  0  0  0  0  0
  1 12  1  0  0  0  0
  2  1  2  0  0  0  0
  3  5  2  0  0  0  0
  3  2  1  0  0  0  0
  4  3  1  0  0  0  0
  5 11  1  0  0  0  0
  6  5  1  0  0  0  0
  6  8  1  0  0  0  0
  7  6  1  0  0  0  0
  8 10  2  0  0  0  0
  9  8  1  0  0  0  0
 11 10  1  0  0  0  0
 11 12  2  0  0  0  0
 13 18  1  0  0  0  0
 13 21  1  0  0  0  0
 14 13  2  0  0  0  0
 15 16  2  0  0  0  0
 15 14  1  0  0  0  0
 16 17  1  0  0  0  0
 17  2  1  0  0  0  0
 17 18  2  0  0  0  0
 19 14  1  0  0  0  0
 20 15  1  0  0  0  0
 21 23  1  0  0  0  0
 22 21  2  0  0  0  0
M  END
>  <minimizedAffinity>
-4.65554953

$$$$
