
 OpenBabel03242510123D

 45 49  0  0  1  0  0  0  0  0999 V2000
   46.8740   33.0040   38.7610 N   0  0  0  0  0  0  0  0  0  0  0  0
   45.9350   33.3070   37.6740 C   0  0  0  0  0  0  0  0  0  0  0  0
   45.1750   32.0660   37.2460 C   0  0  0  0  0  0  0  0  0  0  0  0
   46.0600   31.0540   36.7040 N   0  0  0  0  0  0  0  0  0  0  0  0
   47.4120   31.3840   37.1060 C   0  0  0  0  0  0  0  0  0  0  0  0
   47.3980   31.6590   38.6270 C   0  0  1  0  0  0  0  0  0  0  0  0
   46.4040   33.7640   36.8060 H   0  0  0  0  0  0  0  0  0  0  0  0
   45.1860   34.0210   38.0560 H   0  0  0  0  0  0  0  0  0  0  0  0
   44.5280   32.3890   36.4050 H   0  0  0  0  0  0  0  0  0  0  0  0
   44.5100   31.6790   38.0290 H   0  0  0  0  0  0  0  0  0  0  0  0
   45.9830   30.9450   35.6900 H   0  0  0  0  0  0  0  0  0  0  0  0
   47.7390   32.2460   36.5280 H   0  0  0  0  0  0  0  0  0  0  0  0
   48.0100   30.4550   36.9460 H   0  0  0  0  0  0  0  0  0  0  0  0
   46.7120   30.9120   39.0810 H   0  0  0  0  0  0  0  0  0  0  0  0
   49.3230   30.9830   40.2210 C   0  0  0  0  0  0  0  0  0  0  0  0
   48.7930   31.4670   39.0550 C   0  0  0  0  0  0  0  0  0  0  0  0
   49.7740   31.8210   38.1210 C   0  0  0  0  0  0  0  0  0  0  0  0
   49.4910   32.2200   37.1550 H   0  0  0  0  0  0  0  0  0  0  0  0
   51.1330   31.7100   38.3140 C   0  0  0  0  0  0  0  0  0  0  0  0
   52.2070   31.9880   37.5630 N   0  0  0  0  0  0  0  0  0  0  0  0
   52.2020   32.3800   36.5940 H   0  0  0  0  0  0  0  0  0  0  0  0
   53.3100   31.6790   38.2580 C   0  0  0  0  0  0  0  0  0  0  0  0
   54.3250   31.7980   37.9010 H   0  0  0  0  0  0  0  0  0  0  0  0
   52.9700   31.1870   39.4930 C   0  0  0  0  0  0  0  0  0  0  0  0
   51.5930   31.2180   39.5010 C   0  0  0  0  0  0  0  0  0  0  0  0
   50.6730   30.8520   40.4600 C   0  0  0  0  0  0  0  0  0  0  0  0
   44.9910   32.8560   41.2720 Br  0  0  0  0  0  0  0  0  0  0  0  0
   46.5600   33.9340   41.0360 C   0  0  0  0  0  0  0  0  0  0  0  0
   46.9640   34.7600   42.0460 C   0  0  0  0  0  0  0  0  0  0  0  0
   48.0970   35.5670   41.8890 C   0  0  0  0  0  0  0  0  0  0  0  0
   48.7740   35.4960   40.6960 C   0  0  0  0  0  0  0  0  0  0  0  0
   48.3270   34.6480   39.7070 C   0  0  0  0  0  0  0  0  0  0  0  0
   47.2420   33.8650   39.8390 C   0  0  0  0  0  0  0  0  0  0  0  0
   48.3510   36.1930   42.7410 H   0  0  0  0  0  0  0  0  0  0  0  0
   49.6340   36.1490   40.6560 H   0  0  0  0  0  0  0  0  0  0  0  0
   48.9720   34.7490   38.8470 H   0  0  0  0  0  0  0  0  0  0  0  0
   45.7470   33.9270   45.3810 C   0  0  0  0  0  0  0  0  0  0  0  0
   44.7500   34.9130   45.6310 C   0  0  0  0  0  0  0  0  0  0  0  0
   44.5300   35.8420   44.6270 C   0  0  0  0  0  0  0  0  0  0  0  0
   45.2540   35.7680   43.4920 N   0  0  0  0  0  0  0  0  0  0  0  0
   46.2110   34.7990   43.2850 C   0  0  0  0  0  0  0  0  0  0  0  0
   46.4370   33.8930   44.2450 N   0  0  0  0  0  0  0  0  0  0  0  0
   45.9070   33.2070   46.1760 H   0  0  0  0  0  0  0  0  0  0  0  0
   44.1890   34.9390   46.5570 H   0  0  0  0  0  0  0  0  0  0  0  0
   43.8030   36.6220   44.7210 H   0  0  0  0  0  0  0  0  0  0  0  0
  1 33  1  0  0  0  0
  2  8  1  0  0  0  0
  2  1  1  0  0  0  0
  3  2  1  0  0  0  0
  3 10  1  0  0  0  0
  4  5  1  0  0  0  0
  4  3  1  0  0  0  0
  5  6  1  0  0  0  0
  6  1  1  0  0  0  0
  6 16  1  0  0  0  0
  6 14  1  1  0  0  0
  7  2  1  0  0  0  0
  9  3  1  0  0  0  0
 11  4  1  0  0  0  0
 12  5  1  0  0  0  0
 13  5  1  0  0  0  0
 15 26  1  0  0  0  0
 16 15  2  0  0  0  0
 17 19  2  0  0  0  0
 17 16  1  0  0  0  0
 18 17  1  0  0  0  0
 19 25  1  0  0  0  0
 20 22  1  0  0  0  0
 20 19  1  0  0  0  0
 21 20  1  0  0  0  0
 22 24  2  0  0  0  0
 23 22  1  0  0  0  0
 24 25  1  0  0  0  0
 25 26  2  0  0  0  0
 28 27  1  0  0  0  0
 28 29  1  0  0  0  0
 29 41  1  0  0  0  0
 30 29  2  0  0  0  0
 30 34  1  0  0  0  0
 31 30  1  0  0  0  0
 32 33  1  0  0  0  0
 32 31  2  0  0  0  0
 33 28  2  0  0  0  0
 35 31  1  0  0  0  0
 36 32  1  0  0  0  0
 37 38  1  0  0  0  0
 37 43  1  0  0  0  0
 38 44  1  0  0  0  0
 39 45  1  0  0  0  0
 39 38  2  0  0  0  0
 40 39  1  0  0  0  0
 41 40  2  0  0  0  0
 41 42  1  0  0  0  0
 42 37  2  0  0  0  0
M  END
>  <minimizedAffinity>
-6.71976185

>  <minimizedRMSD>
0.412011176

$$$$
