
 OpenBabel03252508533D

 46 50  0  0  1  0  0  0  0  0999 V2000
   42.9370   34.2080   40.4920 C   0  0  0  0  0  0  0  0  0  0  0  0
   42.9140   35.2260   39.7230 O   0  0  0  0  0  0  0  0  0  0  0  0
   41.5700   33.7330   40.3310 N   0  0  0  0  0  0  0  0  0  0  0  0
   41.2140   33.3740   38.9790 C   0  0  0  0  0  0  0  0  0  0  0  0
   40.4370   34.5910   38.4320 C   0  0  0  0  0  0  0  0  0  0  0  0
   39.6400   35.1640   39.6170 C   0  0  0  0  0  0  0  0  0  0  0  0
   39.2620   34.0580   40.5750 C   0  0  0  0  0  0  0  0  0  0  0  0
   40.5200   33.5700   41.3190 C   0  0  1  0  0  0  0  0  0  0  0  0
   40.6020   32.4590   38.9180 H   0  0  0  0  0  0  0  0  0  0  0  0
   42.0770   33.2510   38.2980 H   0  0  0  0  0  0  0  0  0  0  0  0
   39.7270   34.2130   37.6930 H   0  0  0  0  0  0  0  0  0  0  0  0
   41.1570   35.3390   38.0770 H   0  0  0  0  0  0  0  0  0  0  0  0
   40.2770   35.8760   40.1740 H   0  0  0  0  0  0  0  0  0  0  0  0
   38.7070   35.6410   39.2690 H   0  0  0  0  0  0  0  0  0  0  0  0
   38.4660   34.3750   41.2410 H   0  0  0  0  0  0  0  0  0  0  0  0
   38.9440   33.1650   39.9820 H   0  0  0  0  0  0  0  0  0  0  0  0
   40.7060   34.2310   42.1680 H   0  0  0  0  0  0  0  0  0  0  0  0
   39.2680   31.3520   41.4540 C   0  0  0  0  0  3  0  0  0  0  0  0
   40.3710   32.1350   41.6740 C   0  0  0  0  0  0  0  0  0  0  0  0
   41.4460   31.5230   42.2870 C   0  0  0  0  0  0  0  0  0  0  0  0
   42.3940   31.9740   42.5390 H   0  0  0  0  0  0  0  0  0  0  0  0
   41.4230   30.1790   42.6650 C   0  0  0  0  0  0  0  0  0  0  0  0
   42.2690   29.3120   43.2580 N   0  0  0  0  0  0  0  0  0  0  0  0
   43.2310   29.5690   43.5730 H   0  0  0  0  0  0  0  0  0  0  0  0
   41.6930   28.1020   43.3740 C   0  0  0  0  0  0  0  0  0  0  0  0
   42.1880   27.2310   43.8260 H   0  0  0  0  0  0  0  0  0  0  0  0
   40.4180   28.1340   42.8490 C   0  0  0  0  0  3  0  0  0  0  0  0
   40.2710   29.4350   42.4130 C   0  0  0  0  0  0  0  0  0  0  0  0
   39.1870   30.0300   41.8020 C   0  0  0  0  0  3  0  0  0  0  0  0
   43.9900   33.7580   41.2240 O   0  0  0  0  0  0  0  0  0  0  0  0
   45.3260   33.9430   40.9690 C   0  0  0  0  0  0  0  0  0  0  0  0
   46.1000   34.5360   41.9690 C   0  0  0  0  0  0  0  0  0  0  0  0
   47.4610   34.7150   41.6840 C   0  0  0  0  0  0  0  0  0  0  0  0
   47.9400   34.3050   40.4630 N   0  0  0  0  0  0  0  0  0  0  0  0
   47.1560   33.7500   39.5590 C   0  0  0  0  0  0  0  0  0  0  0  0
   45.8480   33.5640   39.7990 N   0  0  0  0  0  0  0  0  0  0  0  0
   48.0440   35.1710   42.4590 H   0  0  0  0  0  0  0  0  0  0  0  0
   47.6350   33.4600   38.6240 H   0  0  0  0  0  0  0  0  0  0  0  0
   45.4940   34.9310   43.2190 C   0  0  0  0  0  0  0  0  0  0  0  0
   45.0060   36.2100   43.4590 C   0  0  0  0  0  0  0  0  0  0  0  0
   44.5280   36.1490   44.7420 C   0  0  0  0  0  0  0  0  0  0  0  0
   44.7080   34.9140   45.2560 N   0  0  0  0  0  0  0  0  0  0  0  0
   45.2910   34.2070   44.3170 N   0  0  0  0  0  0  0  0  0  0  0  0
   44.9920   37.0790   42.8060 H   0  0  0  0  0  0  0  0  0  0  0  0
   44.0570   36.9200   45.3420 H   0  0  0  0  0  0  0  0  0  0  0  0
   44.4560   34.5460   46.2000 H   0  0  0  0  0  0  0  0  0  0  0  0
  1 30  1  0  0  0  0
  2  1  2  0  0  0  0
  3  1  1  0  0  0  0
  3  8  1  0  0  0  0
  4  3  1  0  0  0  0
  5  4  1  0  0  0  0
  5  6  1  0  0  0  0
  6 13  1  0  0  0  0
  6  7  1  0  0  0  0
  7 15  1  0  0  0  0
  7  8  1  0  0  0  0
  8 19  1  0  0  0  0
  8 17  1  1  0  0  0
  9  4  1  0  0  0  0
 10  4  1  0  0  0  0
 11  5  1  0  0  0  0
 12  5  1  0  0  0  0
 14  6  1  0  0  0  0
 16  7  1  0  0  0  0
 18 19  2  0  0  0  0
 18 29  1  0  0  0  0
 19 20  1  0  0  0  0
 20 21  1  0  0  0  0
 20 22  2  0  0  0  0
 22 23  1  0  0  0  0
 23 25  1  0  0  0  0
 23 24  1  0  0  0  0
 25 26  1  0  0  0  0
 27 25  2  0  0  0  0
 28 22  1  0  0  0  0
 28 27  1  0  0  0  0
 29 28  2  0  0  0  0
 31 30  1  0  0  0  0
 31 32  1  0  0  0  0
 32 39  1  0  0  0  0
 33 32  2  0  0  0  0
 33 37  1  0  0  0  0
 34 33  1  0  0  0  0
 35 36  1  0  0  0  0
 35 34  2  0  0  0  0
 36 31  2  0  0  0  0
 38 35  1  0  0  0  0
 39 40  1  0  0  0  0
 39 43  2  0  0  0  0
 40 41  2  0  0  0  0
 41 42  1  0  0  0  0
 41 45  1  0  0  0  0
 42 46  1  0  0  0  0
 43 42  1  0  0  0  0
 44 40  1  0  0  0  0
M  END
>  <minimizedAffinity>
-6.98447418

>  <minimizedRMSD>
1.1684283

$$$$
