
 OpenBabel03252503563D

 23 25  0  0  0  0  0  0  0  0999 V2000
   46.0480   31.6920   45.1410 C   0  0  0  0  0  0  0  0  0  0  0  0
   45.8000   32.9990   45.5290 C   0  0  0  0  0  0  0  0  0  0  0  0
   45.5190   33.2810   46.8510 C   0  0  0  0  0  0  0  0  0  0  0  0
   45.3250   34.3180   47.1460 H   0  0  0  0  0  0  0  0  0  0  0  0
   45.4900   32.2540   47.7710 C   0  0  0  0  0  0  0  0  0  0  0  0
   45.2550   32.2070   49.0920 N   0  0  0  0  0  0  0  0  0  0  0  0
   45.0360   33.0580   49.6590 H   0  0  0  0  0  0  0  0  0  0  0  0
   45.3430   30.9450   49.5480 C   0  0  0  0  0  0  0  0  0  0  0  0
   45.2070   30.5820   50.5610 H   0  0  0  0  0  0  0  0  0  0  0  0
   45.6480   30.1170   48.4900 C   0  0  0  0  0  0  0  0  0  0  0  0
   45.7400   30.9360   47.3820 C   0  0  0  0  0  0  0  0  0  0  0  0
   46.0190   30.6640   46.0590 C   0  0  0  0  0  0  0  0  0  0  0  0
   46.8920   34.9290   42.6280 C   0  0  0  0  0  0  0  0  0  0  0  0
   45.9720   35.9700   42.5500 C   0  0  0  0  0  0  0  0  0  0  0  0
   44.9650   36.0070   43.5070 C   0  0  0  0  0  0  0  0  0  0  0  0
   44.9300   35.0400   44.4570 N   0  0  0  0  0  0  0  0  0  0  0  0
   45.8470   34.0410   44.4970 C   0  0  0  0  0  0  0  0  0  0  0  0
   46.8330   33.9810   43.5820 N   0  0  0  0  0  0  0  0  0  0  0  0
   45.9910   36.7460   41.7980 H   0  0  0  0  0  0  0  0  0  0  0  0
   44.2130   36.7870   43.5120 H   0  0  0  0  0  0  0  0  0  0  0  0
   47.9180   34.9370   41.6090 C   0  0  0  0  0  0  0  0  0  0  0  0
   48.8240   35.8220   41.4820 O   0  0  0  0  0  0  0  0  0  0  0  0
   48.0820   34.2210   40.8130 H   0  0  0  0  0  0  0  0  0  0  0  0
  1  2  2  0  0  0  0
  1 12  1  0  0  0  0
  2  3  1  0  0  0  0
  3  4  1  0  0  0  0
  3  5  2  0  0  0  0
  5  6  1  0  0  0  0
  6  8  1  0  0  0  0
  6  7  1  0  0  0  0
  8  9  1  0  0  0  0
 10  8  2  0  0  0  0
 11  5  1  0  0  0  0
 11 10  1  0  0  0  0
 12 11  2  0  0  0  0
 13 18  1  0  0  0  0
 14 13  2  0  0  0  0
 14 15  1  0  0  0  0
 15 20  1  0  0  0  0
 15 16  2  0  0  0  0
 16 17  1  0  0  0  0
 17  2  1  0  0  0  0
 18 17  2  0  0  0  0
 19 14  1  0  0  0  0
 21 13  1  0  0  0  0
 22 21  2  0  0  0  0
 23 21  1  0  0  0  0
M  END
>  <minimizedAffinity>
-5.17161083

>  <minimizedRMSD>
0.933439672

$$$$
