
 OpenBabel03252509103D

 34 38  0  0  0  0  0  0  0  0999 V2000
   41.6090   29.6580   39.3880 C   0  0  0  0  0  0  0  0  0  0  0  0
   42.6270   30.3940   39.9680 C   0  0  0  0  0  0  0  0  0  0  0  0
   42.9190   30.3190   41.3140 C   0  0  0  0  0  0  0  0  0  0  0  0
   42.1610   29.4690   42.1380 C   0  0  0  0  0  0  0  0  0  0  0  0
   42.1680   29.1560   43.4620 N   0  0  0  0  0  0  0  0  0  0  0  0
   41.1760   28.2500   43.6880 C   0  0  0  0  0  0  0  0  0  0  0  0
   40.5720   28.0190   42.4880 N   0  0  0  0  0  0  0  0  0  0  0  0
   41.1550   28.7530   41.5260 C   0  0  0  0  0  0  0  0  0  0  0  0
   40.8490   28.8120   40.1910 C   0  0  0  0  0  0  0  0  0  0  0  0
   41.4020   29.7390   38.3190 H   0  0  0  0  0  0  0  0  0  0  0  0
   42.8460   29.5730   44.1460 H   0  0  0  0  0  0  0  0  0  0  0  0
   40.9710   27.8370   44.6700 H   0  0  0  0  0  0  0  0  0  0  0  0
   40.0420   28.2160   39.7850 H   0  0  0  0  0  0  0  0  0  0  0  0
   45.1350   30.3210   42.1280 C   0  0  0  0  0  3  0  0  0  0  0  0
   43.9670   31.0550   41.9940 C   0  0  0  0  0  0  0  0  0  0  0  0
   43.9120   32.3520   42.4950 C   0  0  0  0  0  0  0  0  0  0  0  0
   42.9560   32.8380   42.3410 H   0  0  0  0  0  0  0  0  0  0  0  0
   45.0210   32.8750   43.1120 C   0  0  0  0  0  0  0  0  0  0  0  0
   45.1800   34.0870   43.6570 N   0  0  0  0  0  0  0  0  0  0  0  0
   44.4950   34.8610   43.7180 H   0  0  0  0  0  0  0  0  0  0  0  0
   46.4430   34.1650   44.1530 C   0  0  0  0  0  0  0  0  0  0  0  0
   46.8580   35.0120   44.6450 H   0  0  0  0  0  0  0  0  0  0  0  0
   47.0860   32.9590   43.9030 C   0  0  0  0  0  3  0  0  0  0  0  0
   46.1840   32.1550   43.2490 C   0  0  0  0  0  0  0  0  0  0  0  0
   46.2430   30.8800   42.7590 C   0  0  0  0  0  3  0  0  0  0  0  0
   43.8460   33.3860   38.2180 C   0  0  0  0  0  0  0  0  0  0  0  0
   45.0070   32.9250   37.6000 C   0  0  0  0  0  0  0  0  0  0  0  0
   45.3650   31.5840   37.7880 C   0  0  0  0  0  0  0  0  0  0  0  0
   44.5550   30.8090   38.5670 N   0  0  0  0  0  0  0  0  0  0  0  0
   43.4340   31.2820   39.1550 C   0  0  0  0  0  0  0  0  0  0  0  0
   43.0940   32.5580   38.9760 N   0  0  0  0  0  0  0  0  0  0  0  0
   43.5120   34.4240   38.1100 H   0  0  0  0  0  0  0  0  0  0  0  0
   45.6040   33.5820   36.9990 H   0  0  0  0  0  0  0  0  0  0  0  0
   46.2610   31.1760   37.3270 H   0  0  0  0  0  0  0  0  0  0  0  0
  1  2  2  0  0  0  0
  1  9  1  0  0  0  0
  2  3  1  0  0  0  0
  3 15  1  0  0  0  0
  3  4  2  0  0  0  0
  4  5  1  0  0  0  0
  5  6  1  0  0  0  0
  5 11  1  0  0  0  0
  6 12  1  0  0  0  0
  7  6  2  0  0  0  0
  8  4  1  0  0  0  0
  8  7  1  0  0  0  0
  9  8  2  0  0  0  0
 10  1  1  0  0  0  0
 13  9  1  0  0  0  0
 14 25  1  0  0  0  0
 15 14  2  0  0  0  0
 15 16  1  0  0  0  0
 16 18  2  0  0  0  0
 17 16  1  0  0  0  0
 18 24  1  0  0  0  0
 18 19  1  0  0  0  0
 19 20  1  0  0  0  0
 19 21  1  0  0  0  0
 21 22  1  0  0  0  0
 23 21  2  0  0  0  0
 24 23  1  0  0  0  0
 25 24  2  0  0  0  0
 26 31  1  0  0  0  0
 27 28  1  0  0  0  0
 27 26  2  0  0  0  0
 28 29  2  0  0  0  0
 29 30  1  0  0  0  0
 30  2  1  0  0  0  0
 31 30  2  0  0  0  0
 32 26  1  0  0  0  0
 33 27  1  0  0  0  0
 34 28  1  0  0  0  0
M  END
>  <minimizedAffinity>
-3.02355194

>  <minimizedRMSD>
6.67327356

$$$$
