
 OpenBabel03242514073D

 46 50  0  0  1  0  0  0  0  0999 V2000
   37.0850   25.4140   41.2230 C   0  0  1  0  0  0  0  0  0  0  0  0
   36.7520   25.3040   39.7640 C   0  0  0  0  0  0  0  0  0  0  0  0
   36.1790   23.8820   39.6200 C   0  0  0  0  0  0  0  0  0  0  0  0
   37.3680   22.9480   39.8300 C   0  0  0  0  0  0  0  0  0  0  0  0
   37.9880   23.1350   41.1640 C   0  0  0  0  0  0  0  0  0  0  0  0
   38.1640   24.5270   41.6540 C   0  0  1  0  0  0  0  0  0  0  0  0
   36.1470   25.0040   41.7420 H   0  0  0  0  0  0  0  0  0  0  0  0
   35.9930   26.0500   39.4460 H   0  0  0  0  0  0  0  0  0  0  0  0
   37.5700   25.3210   39.0580 H   0  0  0  0  0  0  0  0  0  0  0  0
   35.3930   23.7330   40.3830 H   0  0  0  0  0  0  0  0  0  0  0  0
   35.8070   23.7060   38.5800 H   0  0  0  0  0  0  0  0  0  0  0  0
   36.9340   21.9210   39.7850 H   0  0  0  0  0  0  0  0  0  0  0  0
   38.0290   23.0470   38.9690 H   0  0  0  0  0  0  0  0  0  0  0  0
   39.0020   22.6510   41.1150 H   0  0  0  0  0  0  0  0  0  0  0  0
   37.4400   22.4890   41.9090 H   0  0  0  0  0  0  0  0  0  0  0  0
   38.0670   24.3820   42.8030 H   0  0  0  0  0  0  0  0  0  0  0  0
   40.2120   25.4020   40.3980 C   0  0  0  0  0  3  0  0  0  0  0  0
   39.5530   24.9210   41.4760 C   0  0  0  0  0  0  0  0  0  0  0  0
   40.4220   24.7830   42.5780 C   0  0  0  0  0  0  0  0  0  0  0  0
   40.0040   24.3980   43.5260 H   0  0  0  0  0  0  0  0  0  0  0  0
   41.7640   25.0900   42.5790 C   0  0  0  0  0  0  0  0  0  0  0  0
   42.6900   25.0050   43.5480 N   0  0  0  0  0  0  0  0  0  0  0  0
   42.5700   24.6750   44.5410 H   0  0  0  0  0  0  0  0  0  0  0  0
   43.8480   25.4330   43.0170 C   0  0  0  0  0  0  0  0  0  0  0  0
   44.7730   25.4810   43.5500 H   0  0  0  0  0  0  0  0  0  0  0  0
   43.6630   25.7870   41.7200 C   0  0  0  0  0  3  0  0  0  0  0  0
   42.3410   25.5690   41.4430 C   0  0  0  0  0  0  0  0  0  0  0  0
   41.5500   25.7240   40.3460 C   0  0  0  0  0  3  0  0  0  0  0  0
   37.2830   29.0870   41.3620 C   0  0  0  0  0  0  0  0  0  0  0  0
   37.3710   29.2750   42.7330 C   0  0  0  0  0  0  0  0  0  0  0  0
   37.3680   28.2610   43.6590 C   0  0  0  0  0  0  0  0  0  0  0  0
   37.2680   26.9860   43.1250 C   0  0  0  0  0  0  0  0  0  0  0  0
   37.1790   26.7790   41.7450 C   0  0  0  0  0  0  0  0  0  0  0  0
   37.1890   27.8380   40.8980 N   0  0  0  0  0  0  0  0  0  0  0  0
   37.4470   30.3000   43.0800 H   0  0  0  0  0  0  0  0  0  0  0  0
   37.4380   28.4490   44.7230 H   0  0  0  0  0  0  0  0  0  0  0  0
   37.2630   26.1860   43.8560 H   0  0  0  0  0  0  0  0  0  0  0  0
   37.0160   31.1040   38.3170 C   0  0  0  0  0  0  0  0  0  0  0  0
   37.3080   32.4050   38.7640 C   0  0  0  0  0  0  0  0  0  0  0  0
   37.5980   32.5540   40.1390 C   0  0  0  0  0  0  0  0  0  0  0  0
   37.5800   31.4450   40.9520 N   0  0  0  0  0  0  0  0  0  0  0  0
   37.2920   30.2320   40.4600 C   0  0  0  0  0  0  0  0  0  0  0  0
   37.0130   30.0570   39.1640 N   0  0  0  0  0  0  0  0  0  0  0  0
   36.8010   31.0340   37.2630 H   0  0  0  0  0  0  0  0  0  0  0  0
   37.3200   33.2680   38.1150 H   0  0  0  0  0  0  0  0  0  0  0  0
   37.8310   33.5310   40.5410 H   0  0  0  0  0  0  0  0  0  0  0  0
  1  6  1  0  0  0  0
  1  7  1  1  0  0  0
  1 33  1  0  0  0  0
  2  1  1  0  0  0  0
  3  2  1  0  0  0  0
  3  4  1  0  0  0  0
  3 10  1  0  0  0  0
  4  5  1  0  0  0  0
  5  6  1  0  0  0  0
  5 15  1  0  0  0  0
  6 16  1  1  0  0  0
  8  2  1  0  0  0  0
  9  2  1  0  0  0  0
 11  3  1  0  0  0  0
 12  4  1  0  0  0  0
 13  4  1  0  0  0  0
 14  5  1  0  0  0  0
 17 18  1  0  0  0  0
 18  6  1  0  0  0  0
 18 19  2  0  0  0  0
 19 21  1  0  0  0  0
 19 20  1  0  0  0  0
 21 22  1  0  0  0  0
 22 23  1  0  0  0  0
 24 22  1  0  0  0  0
 24 25  1  0  0  0  0
 26 24  2  0  0  0  0
 27 26  1  0  0  0  0
 27 21  2  0  0  0  0
 28 17  2  0  0  0  0
 28 27  1  0  0  0  0
 29 30  1  0  0  0  0
 30 35  1  0  0  0  0
 30 31  2  0  0  0  0
 31 36  1  0  0  0  0
 32 31  1  0  0  0  0
 32 37  1  0  0  0  0
 33 32  2  0  0  0  0
 34 29  2  0  0  0  0
 34 33  1  0  0  0  0
 38 39  2  0  0  0  0
 38 43  1  0  0  0  0
 39 40  1  0  0  0  0
 40 46  1  0  0  0  0
 40 41  2  0  0  0  0
 42 41  1  0  0  0  0
 42 29  1  0  0  0  0
 43 42  2  0  0  0  0
 44 38  1  0  0  0  0
 45 39  1  0  0  0  0
M  END
>  <minimizedAffinity>
-7.01981497

$$$$

 OpenBabel03242514073D

 46 50  0  0  1  0  0  0  0  0999 V2000
   36.5540   30.7430   38.9850 C   0  0  1  0  0  0  0  0  0  0  0  0
   36.7680   29.7690   37.8650 C   0  0  0  0  0  0  0  0  0  0  0  0
   35.3440   29.3100   37.4960 C   0  0  0  0  0  0  0  0  0  0  0  0
   34.8790   28.4640   38.6770 C   0  0  0  0  0  0  0  0  0  0  0  0
   34.8720   29.2370   39.9420 C   0  0  0  0  0  0  0  0  0  0  0  0
   36.0260   30.1370   40.2060 C   0  0  1  0  0  0  0  0  0  0  0  0
   35.7030   31.4100   38.6010 H   0  0  0  0  0  0  0  0  0  0  0  0
   37.2520   30.2390   36.9820 H   0  0  0  0  0  0  0  0  0  0  0  0
   37.2820   28.8460   38.0900 H   0  0  0  0  0  0  0  0  0  0  0  0
   34.7080   30.2010   37.3450 H   0  0  0  0  0  0  0  0  0  0  0  0
   35.3630   28.6380   36.6020 H   0  0  0  0  0  0  0  0  0  0  0  0
   33.8260   28.1860   38.4300 H   0  0  0  0  0  0  0  0  0  0  0  0
   35.4550   27.5380   38.6760 H   0  0  0  0  0  0  0  0  0  0  0  0
   34.8200   28.4830   40.7770 H   0  0  0  0  0  0  0  0  0  0  0  0
   33.8850   29.7750   40.0300 H   0  0  0  0  0  0  0  0  0  0  0  0
   35.5240   30.9780   40.8330 H   0  0  0  0  0  0  0  0  0  0  0  0
   37.6810   30.0050   42.1500 C   0  0  0  0  0  3  0  0  0  0  0  0
   36.9220   29.4940   41.1550 C   0  0  0  0  0  0  0  0  0  0  0  0
   37.0890   28.0980   41.0590 C   0  0  0  0  0  0  0  0  0  0  0  0
   36.5210   27.5570   40.2810 H   0  0  0  0  0  0  0  0  0  0  0  0
   37.9090   27.3360   41.8610 C   0  0  0  0  0  0  0  0  0  0  0  0
   38.1560   26.0150   41.8740 N   0  0  0  0  0  0  0  0  0  0  0  0
   37.7550   25.2690   41.2490 H   0  0  0  0  0  0  0  0  0  0  0  0
   39.0390   25.7950   42.8630 C   0  0  0  0  0  0  0  0  0  0  0  0
   39.4280   24.8330   43.1170 H   0  0  0  0  0  0  0  0  0  0  0  0
   39.3540   26.9640   43.4750 C   0  0  0  0  0  3  0  0  0  0  0  0
   38.6380   27.9410   42.8390 C   0  0  0  0  0  0  0  0  0  0  0  0
   38.5160   29.2900   42.9790 C   0  0  0  0  0  3  0  0  0  0  0  0
   39.9000   32.2770   38.9670 C   0  0  0  0  0  0  0  0  0  0  0  0
   39.6320   33.4570   39.6440 C   0  0  0  0  0  0  0  0  0  0  0  0
   38.3960   33.8140   40.1250 C   0  0  0  0  0  0  0  0  0  0  0  0
   37.3900   32.8900   39.8880 C   0  0  0  0  0  0  0  0  0  0  0  0
   37.6440   31.6950   39.2070 C   0  0  0  0  0  0  0  0  0  0  0  0
   38.8960   31.4200   38.7630 N   0  0  0  0  0  0  0  0  0  0  0  0
   40.4670   34.1330   39.7950 H   0  0  0  0  0  0  0  0  0  0  0  0
   38.2260   34.7460   40.6500 H   0  0  0  0  0  0  0  0  0  0  0  0
   36.4140   33.1730   40.2650 H   0  0  0  0  0  0  0  0  0  0  0  0
   42.6750   31.3220   36.7760 C   0  0  0  0  0  0  0  0  0  0  0  0
   43.8030   31.4580   37.6060 C   0  0  0  0  0  0  0  0  0  0  0  0
   43.5690   31.8850   38.9320 C   0  0  0  0  0  0  0  0  0  0  0  0
   42.2800   32.1410   39.3370 N   0  0  0  0  0  0  0  0  0  0  0  0
   41.2480   31.9910   38.4930 C   0  0  0  0  0  0  0  0  0  0  0  0
   41.4370   31.5900   37.2310 N   0  0  0  0  0  0  0  0  0  0  0  0
   42.8980   30.9950   35.7740 H   0  0  0  0  0  0  0  0  0  0  0  0
   44.8110   31.2530   37.2760 H   0  0  0  0  0  0  0  0  0  0  0  0
   44.3980   32.0060   39.6170 H   0  0  0  0  0  0  0  0  0  0  0  0
  1  7  1  6  0  0  0
  1 33  1  0  0  0  0
  1  6  1  0  0  0  0
  2  9  1  0  0  0  0
  2  1  1  0  0  0  0
  3  2  1  0  0  0  0
  3  4  1  0  0  0  0
  4  5  1  0  0  0  0
  5 15  1  0  0  0  0
  5  6  1  0  0  0  0
  5 14  1  0  0  0  0
  6 16  1  1  0  0  0
  6 18  1  0  0  0  0
  8  2  1  0  0  0  0
 10  3  1  0  0  0  0
 11  3  1  0  0  0  0
 12  4  1  0  0  0  0
 13  4  1  0  0  0  0
 17 28  1  0  0  0  0
 18 17  2  0  0  0  0
 19 18  1  0  0  0  0
 19 21  2  0  0  0  0
 20 19  1  0  0  0  0
 21 22  1  0  0  0  0
 21 27  1  0  0  0  0
 22 24  1  0  0  0  0
 23 22  1  0  0  0  0
 24 25  1  0  0  0  0
 24 26  2  0  0  0  0
 27 28  2  0  0  0  0
 27 26  1  0  0  0  0
 29 30  1  0  0  0  0
 30 35  1  0  0  0  0
 30 31  2  0  0  0  0
 31 36  1  0  0  0  0
 32 31  1  0  0  0  0
 32 37  1  0  0  0  0
 33 32  2  0  0  0  0
 34 29  2  0  0  0  0
 34 33  1  0  0  0  0
 38 43  2  0  0  0  0
 38 39  1  0  0  0  0
 39 40  2  0  0  0  0
 40 41  1  0  0  0  0
 40 46  1  0  0  0  0
 42 29  1  0  0  0  0
 42 41  2  0  0  0  0
 43 42  1  0  0  0  0
 44 38  1  0  0  0  0
 45 39  1  0  0  0  0
M  END
>  <minimizedAffinity>
-7.0034771

$$$$

 OpenBabel03242514073D

 46 50  0  0  1  0  0  0  0  0999 V2000
   36.6020   30.6700   39.1820 C   0  0  1  0  0  0  0  0  0  0  0  0
   37.1020   29.8460   38.0320 C   0  0  0  0  0  0  0  0  0  0  0  0
   35.8180   29.2870   37.3910 C   0  0  0  0  0  0  0  0  0  0  0  0
   35.2750   28.2770   38.3990 C   0  0  0  0  0  0  0  0  0  0  0  0
   34.9790   28.9080   39.7080 C   0  0  0  0  0  0  0  0  0  0  0  0
   35.9630   29.8880   40.2390 C   0  0  1  0  0  0  0  0  0  0  0  0
   35.7490   31.2840   38.7200 H   0  0  0  0  0  0  0  0  0  0  0  0
   37.6600   30.4540   37.2880 H   0  0  0  0  0  0  0  0  0  0  0  0
   37.6780   28.9620   38.2590 H   0  0  0  0  0  0  0  0  0  0  0  0
   35.1120   30.1190   37.2140 H   0  0  0  0  0  0  0  0  0  0  0  0
   36.0550   28.7180   36.4570 H   0  0  0  0  0  0  0  0  0  0  0  0
   34.3140   27.9220   37.9560 H   0  0  0  0  0  0  0  0  0  0  0  0
   35.9490   27.4200   38.4140 H   0  0  0  0  0  0  0  0  0  0  0  0
   34.8850   28.0700   40.4520 H   0  0  0  0  0  0  0  0  0  0  0  0
   33.9340   29.3310   39.6750 H   0  0  0  0  0  0  0  0  0  0  0  0
   35.2740   30.6030   40.8440 H   0  0  0  0  0  0  0  0  0  0  0  0
   37.1460   29.6610   42.4940 C   0  0  0  0  0  3  0  0  0  0  0  0
   36.7690   29.2440   41.2650 C   0  0  0  0  0  0  0  0  0  0  0  0
   37.2960   27.9670   40.9810 C   0  0  0  0  0  0  0  0  0  0  0  0
   37.0590   27.5120   40.0030 H   0  0  0  0  0  0  0  0  0  0  0  0
   38.0900   27.2270   41.8280 C   0  0  0  0  0  0  0  0  0  0  0  0
   38.6500   26.0150   41.6800 N   0  0  0  0  0  0  0  0  0  0  0  0
   38.5910   25.3620   40.8560 H   0  0  0  0  0  0  0  0  0  0  0  0
   39.3290   25.7610   42.8120 C   0  0  0  0  0  0  0  0  0  0  0  0
   39.8830   24.8650   42.9920 H   0  0  0  0  0  0  0  0  0  0  0  0
   39.2040   26.8010   43.6730 C   0  0  0  0  0  3  0  0  0  0  0  0
   38.4190   27.7310   43.0480 C   0  0  0  0  0  0  0  0  0  0  0  0
   37.9370   28.9610   43.3780 C   0  0  0  0  0  3  0  0  0  0  0  0
   39.5190   32.2800   40.7480 C   0  0  0  0  0  0  0  0  0  0  0  0
   39.1920   33.6140   40.5590 C   0  0  0  0  0  0  0  0  0  0  0  0
   38.0520   34.0540   39.9330 C   0  0  0  0  0  0  0  0  0  0  0  0
   37.2100   33.0500   39.4820 C   0  0  0  0  0  0  0  0  0  0  0  0
   37.5240   31.6990   39.6650 C   0  0  0  0  0  0  0  0  0  0  0  0
   38.6730   31.3490   40.2950 N   0  0  0  0  0  0  0  0  0  0  0  0
   39.8980   34.3460   40.9370 H   0  0  0  0  0  0  0  0  0  0  0  0
   37.8330   35.1070   39.8030 H   0  0  0  0  0  0  0  0  0  0  0  0
   36.3120   33.3970   38.9850 H   0  0  0  0  0  0  0  0  0  0  0  0
   41.8960   30.5450   42.9280 C   0  0  0  0  0  0  0  0  0  0  0  0
   43.1040   31.2270   42.6950 C   0  0  0  0  0  0  0  0  0  0  0  0
   43.0640   32.2930   41.7690 C   0  0  0  0  0  0  0  0  0  0  0  0
   41.8730   32.6050   41.1560 N   0  0  0  0  0  0  0  0  0  0  0  0
   40.7560   31.9140   41.4240 C   0  0  0  0  0  0  0  0  0  0  0  0
   40.7610   30.8980   42.2950 N   0  0  0  0  0  0  0  0  0  0  0  0
   41.9700   29.7400   43.6400 H   0  0  0  0  0  0  0  0  0  0  0  0
   44.0340   30.9720   43.1830 H   0  0  0  0  0  0  0  0  0  0  0  0
   43.9630   32.8540   41.5490 H   0  0  0  0  0  0  0  0  0  0  0  0
  1  7  1  6  0  0  0
  1 33  1  0  0  0  0
  1  6  1  0  0  0  0
  2  9  1  0  0  0  0
  2  1  1  0  0  0  0
  3  2  1  0  0  0  0
  3  4  1  0  0  0  0
  4 13  1  0  0  0  0
  4  5  1  0  0  0  0
  5  6  1  0  0  0  0
  5 14  1  0  0  0  0
  6 16  1  1  0  0  0
  6 18  1  0  0  0  0
  8  2  1  0  0  0  0
 10  3  1  0  0  0  0
 11  3  1  0  0  0  0
 12  4  1  0  0  0  0
 15  5  1  0  0  0  0
 17 28  1  0  0  0  0
 18 17  2  0  0  0  0
 19 18  1  0  0  0  0
 19 21  2  0  0  0  0
 20 19  1  0  0  0  0
 21 27  1  0  0  0  0
 22 21  1  0  0  0  0
 22 24  1  0  0  0  0
 23 22  1  0  0  0  0
 24 25  1  0  0  0  0
 24 26  2  0  0  0  0
 27 28  2  0  0  0  0
 27 26  1  0  0  0  0
 29 42  1  0  0  0  0
 30 29  1  0  0  0  0
 30 35  1  0  0  0  0
 31 30  2  0  0  0  0
 32 33  2  0  0  0  0
 32 31  1  0  0  0  0
 33 34  1  0  0  0  0
 34 29  2  0  0  0  0
 36 31  1  0  0  0  0
 37 32  1  0  0  0  0
 38 44  1  0  0  0  0
 39 38  1  0  0  0  0
 39 45  1  0  0  0  0
 40 39  2  0  0  0  0
 41 42  2  0  0  0  0
 41 40  1  0  0  0  0
 42 43  1  0  0  0  0
 43 38  2  0  0  0  0
 46 40  1  0  0  0  0
M  END
>  <minimizedAffinity>
-6.85334826

$$$$

 OpenBabel03242514073D

 46 50  0  0  1  0  0  0  0  0999 V2000
   38.3070   30.4470   41.4450 C   0  0  1  0  0  0  0  0  0  0  0  0
   39.6390   30.5690   40.7650 C   0  0  0  0  0  0  0  0  0  0  0  0
   39.9690   32.0710   40.8610 C   0  0  0  0  0  0  0  0  0  0  0  0
   38.9770   32.7580   39.9260 C   0  0  0  0  0  0  0  0  0  0  0  0
   37.5730   32.5010   40.3230 C   0  0  0  0  0  0  0  0  0  0  0  0
   37.2160   31.1190   40.7400 C   0  0  1  0  0  0  0  0  0  0  0  0
   38.4440   31.0530   42.4110 H   0  0  0  0  0  0  0  0  0  0  0  0
   40.4290   29.9770   41.2730 H   0  0  0  0  0  0  0  0  0  0  0  0
   39.6830   30.3670   39.7040 H   0  0  0  0  0  0  0  0  0  0  0  0
   39.8470   32.3980   41.9100 H   0  0  0  0  0  0  0  0  0  0  0  0
   40.9920   32.2790   40.4610 H   0  0  0  0  0  0  0  0  0  0  0  0
   39.1820   33.8490   40.0470 H   0  0  0  0  0  0  0  0  0  0  0  0
   39.2480   32.5020   38.9010 H   0  0  0  0  0  0  0  0  0  0  0  0
   36.9350   32.7730   39.4370 H   0  0  0  0  0  0  0  0  0  0  0  0
   37.2700   33.2680   41.0930 H   0  0  0  0  0  0  0  0  0  0  0  0
   36.3670   31.3200   41.5090 H   0  0  0  0  0  0  0  0  0  0  0  0
   35.4320   29.6670   39.6250 C   0  0  0  0  0  3  0  0  0  0  0  0
   36.5320   30.4530   39.6430 C   0  0  0  0  0  0  0  0  0  0  0  0
   37.0710   30.5960   38.3480 C   0  0  0  0  0  0  0  0  0  0  0  0
   37.9760   31.2180   38.2270 H   0  0  0  0  0  0  0  0  0  0  0  0
   36.5620   30.0220   37.2050 C   0  0  0  0  0  0  0  0  0  0  0  0
   36.9750   30.0780   35.9280 N   0  0  0  0  0  0  0  0  0  0  0  0
   37.8030   30.5930   35.5300 H   0  0  0  0  0  0  0  0  0  0  0  0
   36.1180   29.3340   35.2090 C   0  0  0  0  0  0  0  0  0  0  0  0
   36.1880   29.1870   34.1530 H   0  0  0  0  0  0  0  0  0  0  0  0
   35.1660   28.8070   36.0200 C   0  0  0  0  0  3  0  0  0  0  0  0
   35.4490   29.2430   37.2860 C   0  0  0  0  0  0  0  0  0  0  0  0
   34.8840   29.0690   38.5120 C   0  0  0  0  0  3  0  0  0  0  0  0
   37.9610   26.7880   41.6370 C   0  0  0  0  0  0  0  0  0  0  0  0
   37.3340   26.6660   42.8670 C   0  0  0  0  0  0  0  0  0  0  0  0
   37.0020   27.7220   43.6790 C   0  0  0  0  0  0  0  0  0  0  0  0
   37.3420   28.9700   43.1790 C   0  0  0  0  0  0  0  0  0  0  0  0
   37.9740   29.1100   41.9400 C   0  0  0  0  0  0  0  0  0  0  0  0
   38.2680   28.0130   41.1990 N   0  0  0  0  0  0  0  0  0  0  0  0
   37.0970   25.6590   43.1950 H   0  0  0  0  0  0  0  0  0  0  0  0
   36.5120   27.5850   44.6350 H   0  0  0  0  0  0  0  0  0  0  0  0
   37.0820   29.8030   43.8210 H   0  0  0  0  0  0  0  0  0  0  0  0
   38.4150   23.2820   40.6800 C   0  0  0  0  0  0  0  0  0  0  0  0
   38.8640   23.3660   39.3490 C   0  0  0  0  0  0  0  0  0  0  0  0
   39.0010   24.6620   38.8060 C   0  0  0  0  0  0  0  0  0  0  0  0
   38.6970   25.7530   39.5860 N   0  0  0  0  0  0  0  0  0  0  0  0
   38.2740   25.6020   40.8490 C   0  0  0  0  0  0  0  0  0  0  0  0
   38.1320   24.3880   41.3930 N   0  0  0  0  0  0  0  0  0  0  0  0
   38.3250   22.2760   41.0550 H   0  0  0  0  0  0  0  0  0  0  0  0
   39.1000   22.5020   38.7460 H   0  0  0  0  0  0  0  0  0  0  0  0
   39.3430   24.7900   37.7870 H   0  0  0  0  0  0  0  0  0  0  0  0
  1 33  1  0  0  0  0
  1  7  1  1  0  0  0
  2  3  1  0  0  0  0
  2  8  1  0  0  0  0
  2  1  1  0  0  0  0
  3 10  1  0  0  0  0
  4 12  1  0  0  0  0
  4  5  1  0  0  0  0
  4  3  1  0  0  0  0
  5  6  1  0  0  0  0
  5 15  1  0  0  0  0
  6  1  1  0  0  0  0
  6 16  1  1  0  0  0
  9  2  1  0  0  0  0
 11  3  1  0  0  0  0
 13  4  1  0  0  0  0
 14  5  1  0  0  0  0
 17 18  1  0  0  0  0
 18  6  1  0  0  0  0
 19 18  2  0  0  0  0
 20 19  1  0  0  0  0
 21 27  2  0  0  0  0
 21 19  1  0  0  0  0
 22 21  1  0  0  0  0
 23 22  1  0  0  0  0
 24 22  1  0  0  0  0
 24 26  2  0  0  0  0
 25 24  1  0  0  0  0
 26 27  1  0  0  0  0
 27 28  1  0  0  0  0
 28 17  2  0  0  0  0
 29 30  1  0  0  0  0
 30 35  1  0  0  0  0
 30 31  2  0  0  0  0
 31 36  1  0  0  0  0
 32 31  1  0  0  0  0
 32 37  1  0  0  0  0
 33 32  2  0  0  0  0
 34 29  2  0  0  0  0
 34 33  1  0  0  0  0
 38 44  1  0  0  0  0
 38 43  1  0  0  0  0
 39 38  2  0  0  0  0
 40 39  1  0  0  0  0
 40 41  2  0  0  0  0
 41 42  1  0  0  0  0
 42 43  2  0  0  0  0
 42 29  1  0  0  0  0
 45 39  1  0  0  0  0
 46 40  1  0  0  0  0
M  END
>  <minimizedAffinity>
-6.71913004

$$$$

 OpenBabel03242514073D

 46 50  0  0  1  0  0  0  0  0999 V2000
   36.5720   27.4720   40.4790 C   0  0  1  0  0  0  0  0  0  0  0  0
   37.6790   26.5100   40.7940 C   0  0  0  0  0  0  0  0  0  0  0  0
   37.2430   25.8630   42.1220 C   0  0  0  0  0  0  0  0  0  0  0  0
   37.3670   26.9710   43.1650 C   0  0  0  0  0  0  0  0  0  0  0  0
   36.5110   28.1360   42.8390 C   0  0  0  0  0  0  0  0  0  0  0  0
   36.4660   28.5840   41.4230 C   0  0  1  0  0  0  0  0  0  0  0  0
   35.6220   26.8530   40.6540 H   0  0  0  0  0  0  0  0  0  0  0  0
   37.7930   25.7270   40.0140 H   0  0  0  0  0  0  0  0  0  0  0  0
   38.6530   26.9190   41.0190 H   0  0  0  0  0  0  0  0  0  0  0  0
   36.2030   25.5020   42.0210 H   0  0  0  0  0  0  0  0  0  0  0  0
   37.9520   25.0530   42.4220 H   0  0  0  0  0  0  0  0  0  0  0  0
   36.9920   26.5130   44.1120 H   0  0  0  0  0  0  0  0  0  0  0  0
   38.4280   27.1740   43.3150 H   0  0  0  0  0  0  0  0  0  0  0  0
   36.8860   28.9930   43.4640 H   0  0  0  0  0  0  0  0  0  0  0  0
   35.4800   27.9540   43.2590 H   0  0  0  0  0  0  0  0  0  0  0  0
   35.3880   29.0120   41.3480 H   0  0  0  0  0  0  0  0  0  0  0  0
   38.6020   29.9780   41.6000 C   0  0  0  0  0  3  0  0  0  0  0  0
   37.3090   29.7590   41.2690 C   0  0  0  0  0  0  0  0  0  0  0  0
   36.7320   30.9130   40.7000 C   0  0  0  0  0  0  0  0  0  0  0  0
   35.6740   30.8640   40.3840 H   0  0  0  0  0  0  0  0  0  0  0  0
   37.3780   32.1120   40.4990 C   0  0  0  0  0  0  0  0  0  0  0  0
   36.9480   33.2720   39.9750 N   0  0  0  0  0  0  0  0  0  0  0  0
   35.9930   33.5050   39.5970 H   0  0  0  0  0  0  0  0  0  0  0  0
   37.9860   34.1240   40.0140 C   0  0  0  0  0  0  0  0  0  0  0  0
   37.9500   35.1330   39.6630 H   0  0  0  0  0  0  0  0  0  0  0  0
   39.0690   33.5140   40.5580 C   0  0  0  0  0  3  0  0  0  0  0  0
   38.6830   32.2380   40.8670 C   0  0  0  0  0  0  0  0  0  0  0  0
   39.2940   31.1560   41.4220 C   0  0  0  0  0  3  0  0  0  0  0  0
   35.1450   28.6010   37.2790 C   0  0  0  0  0  0  0  0  0  0  0  0
   36.2760   28.5530   36.4770 C   0  0  0  0  0  0  0  0  0  0  0  0
   37.5210   28.1700   36.9110 C   0  0  0  0  0  0  0  0  0  0  0  0
   37.5880   27.8180   38.2500 C   0  0  0  0  0  0  0  0  0  0  0  0
   36.4580   27.8600   39.0720 C   0  0  0  0  0  0  0  0  0  0  0  0
   35.2630   28.2520   38.5640 N   0  0  0  0  0  0  0  0  0  0  0  0
   36.1480   28.8420   35.4400 H   0  0  0  0  0  0  0  0  0  0  0  0
   38.3810   28.1460   36.2520 H   0  0  0  0  0  0  0  0  0  0  0  0
   38.5720   27.5180   38.5930 H   0  0  0  0  0  0  0  0  0  0  0  0
   32.5790   29.6320   34.8780 C   0  0  0  0  0  0  0  0  0  0  0  0
   31.4410   29.8220   35.6830 C   0  0  0  0  0  0  0  0  0  0  0  0
   31.5950   29.5840   37.0670 C   0  0  0  0  0  0  0  0  0  0  0  0
   32.8220   29.1880   37.5480 N   0  0  0  0  0  0  0  0  0  0  0  0
   33.8660   29.0250   36.7240 C   0  0  0  0  0  0  0  0  0  0  0  0
   33.7530   29.2410   35.4080 N   0  0  0  0  0  0  0  0  0  0  0  0
   32.4180   29.8240   33.8300 H   0  0  0  0  0  0  0  0  0  0  0  0
   30.4830   30.1340   35.2940 H   0  0  0  0  0  0  0  0  0  0  0  0
   30.7550   29.7140   37.7370 H   0  0  0  0  0  0  0  0  0  0  0  0
  1  7  1  1  0  0  0
  1  2  1  0  0  0  0
  1  6  1  0  0  0  0
  2  9  1  0  0  0  0
  2  3  1  0  0  0  0
  3 11  1  0  0  0  0
  3  4  1  0  0  0  0
  4 13  1  0  0  0  0
  4 12  1  0  0  0  0
  5  4  1  0  0  0  0
  5 15  1  0  0  0  0
  5 14  1  0  0  0  0
  6 16  1  6  0  0  0
  6  5  1  0  0  0  0
  8  2  1  0  0  0  0
 10  3  1  0  0  0  0
 18  6  1  0  0  0  0
 18 17  2  0  0  0  0
 19 18  1  0  0  0  0
 20 19  1  0  0  0  0
 21 19  2  0  0  0  0
 21 27  1  0  0  0  0
 22 24  1  0  0  0  0
 22 21  1  0  0  0  0
 23 22  1  0  0  0  0
 24 26  2  0  0  0  0
 25 24  1  0  0  0  0
 26 27  1  0  0  0  0
 27 28  2  0  0  0  0
 28 17  1  0  0  0  0
 29 34  1  0  0  0  0
 30 31  1  0  0  0  0
 30 29  2  0  0  0  0
 31 32  2  0  0  0  0
 32 37  1  0  0  0  0
 32 33  1  0  0  0  0
 33  1  1  0  0  0  0
 34 33  2  0  0  0  0
 35 30  1  0  0  0  0
 36 31  1  0  0  0  0
 38 43  2  0  0  0  0
 38 39  1  0  0  0  0
 39 40  2  0  0  0  0
 40 41  1  0  0  0  0
 40 46  1  0  0  0  0
 42 29  1  0  0  0  0
 42 41  2  0  0  0  0
 43 42  1  0  0  0  0
 44 38  1  0  0  0  0
 45 39  1  0  0  0  0
M  END
>  <minimizedAffinity>
-6.70880413

$$$$

 OpenBabel03242514073D

 46 50  0  0  1  0  0  0  0  0999 V2000
   36.2480   29.9670   37.3270 C   0  0  1  0  0  0  0  0  0  0  0  0
   36.5440   29.0880   36.1470 C   0  0  0  0  0  0  0  0  0  0  0  0
   35.1750   28.9100   35.4650 C   0  0  0  0  0  0  0  0  0  0  0  0
   34.3630   28.0370   36.4190 C   0  0  0  0  0  0  0  0  0  0  0  0
   34.2100   28.6700   37.7500 C   0  0  0  0  0  0  0  0  0  0  0  0
   35.4010   29.3370   38.3390 C   0  0  1  0  0  0  0  0  0  0  0  0
   35.5960   30.8010   36.8820 H   0  0  0  0  0  0  0  0  0  0  0  0
   37.2590   29.5580   35.4390 H   0  0  0  0  0  0  0  0  0  0  0  0
   36.8650   28.0750   36.3420 H   0  0  0  0  0  0  0  0  0  0  0  0
   34.7150   29.9030   35.3170 H   0  0  0  0  0  0  0  0  0  0  0  0
   35.2790   28.3370   34.5100 H   0  0  0  0  0  0  0  0  0  0  0  0
   33.3550   27.9630   35.9470 H   0  0  0  0  0  0  0  0  0  0  0  0
   34.7910   27.0340   36.4040 H   0  0  0  0  0  0  0  0  0  0  0  0
   33.8820   27.8560   38.4550 H   0  0  0  0  0  0  0  0  0  0  0  0
   33.3120   29.3520   37.7230 H   0  0  0  0  0  0  0  0  0  0  0  0
   34.9080   30.1820   38.9660 H   0  0  0  0  0  0  0  0  0  0  0  0
   36.5270   27.2290   39.2470 C   0  0  0  0  0  3  0  0  0  0  0  0
   35.9860   28.4640   39.3450 C   0  0  0  0  0  0  0  0  0  0  0  0
   36.0050   28.9190   40.6790 C   0  0  0  0  0  0  0  0  0  0  0  0
   35.5900   29.9200   40.8940 H   0  0  0  0  0  0  0  0  0  0  0  0
   36.5020   28.2170   41.7540 C   0  0  0  0  0  0  0  0  0  0  0  0
   36.5790   28.5320   43.0580 N   0  0  0  0  0  0  0  0  0  0  0  0
   36.2610   29.4140   43.5370 H   0  0  0  0  0  0  0  0  0  0  0  0
   37.1540   27.4870   43.6770 C   0  0  0  0  0  0  0  0  0  0  0  0
   37.3490   27.4430   44.7260 H   0  0  0  0  0  0  0  0  0  0  0  0
   37.4410   26.5130   42.7760 C   0  0  0  0  0  3  0  0  0  0  0  0
   37.0270   26.9760   41.5570 C   0  0  0  0  0  0  0  0  0  0  0  0
   37.0360   26.4850   40.2880 C   0  0  0  0  0  3  0  0  0  0  0  0
   39.7120   30.9930   38.0320 C   0  0  0  0  0  0  0  0  0  0  0  0
   39.4810   32.0540   38.8940 C   0  0  0  0  0  0  0  0  0  0  0  0
   38.2370   32.4860   39.2810 C   0  0  0  0  0  0  0  0  0  0  0  0
   37.1790   31.7730   38.7390 C   0  0  0  0  0  0  0  0  0  0  0  0
   37.3940   30.6990   37.8690 C   0  0  0  0  0  0  0  0  0  0  0  0
   38.6580   30.3370   37.5370 N   0  0  0  0  0  0  0  0  0  0  0  0
   40.3560   32.5670   39.2800 H   0  0  0  0  0  0  0  0  0  0  0  0
   38.0980   33.3210   39.9570 H   0  0  0  0  0  0  0  0  0  0  0  0
   36.1960   32.1160   39.0420 H   0  0  0  0  0  0  0  0  0  0  0  0
   42.8230   29.0760   37.7900 C   0  0  0  0  0  0  0  0  0  0  0  0
   43.6500   29.9010   37.0060 C   0  0  0  0  0  0  0  0  0  0  0  0
   43.0980   31.1260   36.5730 C   0  0  0  0  0  0  0  0  0  0  0  0
   41.8090   31.4460   36.9300 N   0  0  0  0  0  0  0  0  0  0  0  0
   41.0740   30.6130   37.6810 C   0  0  0  0  0  0  0  0  0  0  0  0
   41.5670   29.4440   38.1060 N   0  0  0  0  0  0  0  0  0  0  0  0
   43.2820   28.1520   38.1000 H   0  0  0  0  0  0  0  0  0  0  0  0
   44.6620   29.6400   36.7320 H   0  0  0  0  0  0  0  0  0  0  0  0
   43.6870   31.8030   35.9670 H   0  0  0  0  0  0  0  0  0  0  0  0
  1  7  1  6  0  0  0
  1 33  1  0  0  0  0
  1  6  1  0  0  0  0
  2  9  1  0  0  0  0
  2  1  1  0  0  0  0
  3  2  1  0  0  0  0
  3  4  1  0  0  0  0
  4  5  1  0  0  0  0
  5  6  1  0  0  0  0
  5 14  1  0  0  0  0
  6 16  1  1  0  0  0
  6 18  1  0  0  0  0
  8  2  1  0  0  0  0
 10  3  1  0  0  0  0
 11  3  1  0  0  0  0
 12  4  1  0  0  0  0
 13  4  1  0  0  0  0
 15  5  1  0  0  0  0
 17 18  2  0  0  0  0
 17 28  1  0  0  0  0
 18 19  1  0  0  0  0
 19 20  1  0  0  0  0
 19 21  2  0  0  0  0
 21 22  1  0  0  0  0
 22 23  1  0  0  0  0
 22 24  1  0  0  0  0
 24 25  1  0  0  0  0
 26 24  2  0  0  0  0
 27 21  1  0  0  0  0
 27 26  1  0  0  0  0
 28 27  2  0  0  0  0
 29 30  1  0  0  0  0
 30 35  1  0  0  0  0
 30 31  2  0  0  0  0
 31 36  1  0  0  0  0
 32 37  1  0  0  0  0
 32 31  1  0  0  0  0
 33 32  2  0  0  0  0
 34 33  1  0  0  0  0
 34 29  2  0  0  0  0
 38 44  1  0  0  0  0
 38 43  1  0  0  0  0
 39 38  2  0  0  0  0
 40 41  2  0  0  0  0
 40 39  1  0  0  0  0
 41 42  1  0  0  0  0
 42 29  1  0  0  0  0
 42 43  2  0  0  0  0
 45 39  1  0  0  0  0
 46 40  1  0  0  0  0
M  END
>  <minimizedAffinity>
-6.58033514

$$$$

 OpenBabel03242514073D

 46 50  0  0  1  0  0  0  0  0999 V2000
   38.0620   29.6750   40.8920 C   0  0  1  0  0  0  0  0  0  0  0  0
   36.9680   29.5560   41.9120 C   0  0  0  0  0  0  0  0  0  0  0  0
   37.2650   28.2220   42.6220 C   0  0  0  0  0  0  0  0  0  0  0  0
   36.9640   27.1420   41.5850 C   0  0  0  0  0  0  0  0  0  0  0  0
   37.8020   27.2920   40.3720 C   0  0  0  0  0  0  0  0  0  0  0  0
   38.0020   28.6640   39.8360 C   0  0  1  0  0  0  0  0  0  0  0  0
   39.0100   29.4170   41.4860 H   0  0  0  0  0  0  0  0  0  0  0  0
   36.9850   30.3870   42.6490 H   0  0  0  0  0  0  0  0  0  0  0  0
   35.9560   29.4330   41.5530 H   0  0  0  0  0  0  0  0  0  0  0  0
   38.3240   28.2120   42.9380 H   0  0  0  0  0  0  0  0  0  0  0  0
   36.5600   28.0600   43.4740 H   0  0  0  0  0  0  0  0  0  0  0  0
   37.2390   26.1840   42.0860 H   0  0  0  0  0  0  0  0  0  0  0  0
   35.8850   27.1160   41.4310 H   0  0  0  0  0  0  0  0  0  0  0  0
   37.3150   26.6720   39.5690 H   0  0  0  0  0  0  0  0  0  0  0  0
   38.7800   26.7560   40.5420 H   0  0  0  0  0  0  0  0  0  0  0  0
   39.0610   28.5780   39.3660 H   0  0  0  0  0  0  0  0  0  0  0  0
   35.8030   29.0810   38.6010 C   0  0  0  0  0  3  0  0  0  0  0  0
   37.1330   28.8560   38.6860 C   0  0  0  0  0  0  0  0  0  0  0  0
   37.7160   28.7880   37.4030 C   0  0  0  0  0  0  0  0  0  0  0  0
   38.8030   28.6090   37.3350 H   0  0  0  0  0  0  0  0  0  0  0  0
   37.0400   28.9290   36.2120 C   0  0  0  0  0  0  0  0  0  0  0  0
   37.4710   28.8850   34.9400 N   0  0  0  0  0  0  0  0  0  0  0  0
   38.4500   28.7300   34.5860 H   0  0  0  0  0  0  0  0  0  0  0  0
   36.3950   29.0830   34.1590 C   0  0  0  0  0  0  0  0  0  0  0  0
   36.4230   29.1020   33.0910 H   0  0  0  0  0  0  0  0  0  0  0  0
   35.2880   29.2500   34.9250 C   0  0  0  0  0  3  0  0  0  0  0  0
   35.6970   29.1520   36.2270 C   0  0  0  0  0  0  0  0  0  0  0  0
   35.0800   29.2280   37.4380 C   0  0  0  0  0  3  0  0  0  0  0  0
   39.8350   32.6160   39.5660 C   0  0  0  0  0  0  0  0  0  0  0  0
   38.8010   33.5400   39.5560 C   0  0  0  0  0  0  0  0  0  0  0  0
   37.5170   33.2740   39.9600 C   0  0  0  0  0  0  0  0  0  0  0  0
   37.3010   31.9760   40.3970 C   0  0  0  0  0  0  0  0  0  0  0  0
   38.3320   31.0320   40.4140 C   0  0  0  0  0  0  0  0  0  0  0  0
   39.5750   31.3770   39.9960 N   0  0  0  0  0  0  0  0  0  0  0  0
   39.0430   34.5360   39.2020 H   0  0  0  0  0  0  0  0  0  0  0  0
   36.7360   34.0240   39.9370 H   0  0  0  0  0  0  0  0  0  0  0  0
   36.2860   31.7650   40.7140 H   0  0  0  0  0  0  0  0  0  0  0  0
   42.5690   33.7740   37.4220 C   0  0  0  0  0  0  0  0  0  0  0  0
   43.6900   33.7180   38.2700 C   0  0  0  0  0  0  0  0  0  0  0  0
   43.4660   33.2690   39.5910 C   0  0  0  0  0  0  0  0  0  0  0  0
   42.1920   32.9180   39.9730 N   0  0  0  0  0  0  0  0  0  0  0  0
   41.1670   32.9960   39.1140 C   0  0  0  0  0  0  0  0  0  0  0  0
   41.3460   33.4180   37.8570 N   0  0  0  0  0  0  0  0  0  0  0  0
   42.7840   34.1210   36.4250 H   0  0  0  0  0  0  0  0  0  0  0  0
   44.6860   33.9960   37.9580 H   0  0  0  0  0  0  0  0  0  0  0  0
   44.2910   33.2040   40.2890 H   0  0  0  0  0  0  0  0  0  0  0  0
  1  7  1  1  0  0  0
  1  2  1  0  0  0  0
  2  3  1  0  0  0  0
  2  8  1  0  0  0  0
  3 10  1  0  0  0  0
  3 11  1  0  0  0  0
  4 12  1  0  0  0  0
  4  3  1  0  0  0  0
  5 15  1  0  0  0  0
  5  4  1  0  0  0  0
  6 16  1  6  0  0  0
  6  5  1  0  0  0  0
  6  1  1  0  0  0  0
  9  2  1  0  0  0  0
 13  4  1  0  0  0  0
 14  5  1  0  0  0  0
 17 18  1  0  0  0  0
 18  6  1  0  0  0  0
 19 18  2  0  0  0  0
 20 19  1  0  0  0  0
 21 27  2  0  0  0  0
 21 19  1  0  0  0  0
 22 21  1  0  0  0  0
 23 22  1  0  0  0  0
 24 26  2  0  0  0  0
 24 22  1  0  0  0  0
 25 24  1  0  0  0  0
 26 27  1  0  0  0  0
 27 28  1  0  0  0  0
 28 17  2  0  0  0  0
 29 34  1  0  0  0  0
 30 29  2  0  0  0  0
 30 31  1  0  0  0  0
 31 32  2  0  0  0  0
 32 33  1  0  0  0  0
 32 37  1  0  0  0  0
 33  1  1  0  0  0  0
 34 33  2  0  0  0  0
 35 30  1  0  0  0  0
 36 31  1  0  0  0  0
 38 43  2  0  0  0  0
 38 39  1  0  0  0  0
 39 40  2  0  0  0  0
 40 41  1  0  0  0  0
 40 46  1  0  0  0  0
 42 29  1  0  0  0  0
 42 41  2  0  0  0  0
 43 42  1  0  0  0  0
 44 38  1  0  0  0  0
 45 39  1  0  0  0  0
M  END
>  <minimizedAffinity>
-6.49392843

$$$$

 OpenBabel03242514073D

 46 50  0  0  1  0  0  0  0  0999 V2000
   36.9350   25.7190   40.6160 C   0  0  1  0  0  0  0  0  0  0  0  0
   36.6730   25.9860   39.1630 C   0  0  0  0  0  0  0  0  0  0  0  0
   36.0230   24.6840   38.6580 C   0  0  0  0  0  0  0  0  0  0  0  0
   37.1420   23.6460   38.6770 C   0  0  0  0  0  0  0  0  0  0  0  0
   37.7010   23.4620   40.0370 C   0  0  0  0  0  0  0  0  0  0  0  0
   37.9360   24.6800   40.8570 C   0  0  1  0  0  0  0  0  0  0  0  0
   35.9490   25.2630   40.9860 H   0  0  0  0  0  0  0  0  0  0  0  0
   35.9770   26.8390   39.0090 H   0  0  0  0  0  0  0  0  0  0  0  0
   37.5260   26.1140   38.5120 H   0  0  0  0  0  0  0  0  0  0  0  0
   35.1910   24.4130   39.3330 H   0  0  0  0  0  0  0  0  0  0  0  0
   35.6960   24.7900   37.5940 H   0  0  0  0  0  0  0  0  0  0  0  0
   36.6500   22.6930   38.3680 H   0  0  0  0  0  0  0  0  0  0  0  0
   37.8510   23.9010   37.8890 H   0  0  0  0  0  0  0  0  0  0  0  0
   38.6860   22.9340   39.9080 H   0  0  0  0  0  0  0  0  0  0  0  0
   37.0780   22.6960   40.5830 H   0  0  0  0  0  0  0  0  0  0  0  0
   37.7710   24.2700   41.9330 H   0  0  0  0  0  0  0  0  0  0  0  0
   40.1510   25.4280   39.8250 C   0  0  0  0  0  3  0  0  0  0  0  0
   39.3530   25.0050   40.8300 C   0  0  0  0  0  0  0  0  0  0  0  0
   40.0850   24.8560   42.0260 C   0  0  0  0  0  0  0  0  0  0  0  0
   39.5450   24.5150   42.9280 H   0  0  0  0  0  0  0  0  0  0  0  0
   41.4310   25.1010   42.1730 C   0  0  0  0  0  0  0  0  0  0  0  0
   42.2380   24.9990   43.2430 N   0  0  0  0  0  0  0  0  0  0  0  0
   41.9910   24.6990   44.2220 H   0  0  0  0  0  0  0  0  0  0  0  0
   43.4670   25.3600   42.8380 C   0  0  0  0  0  0  0  0  0  0  0  0
   44.3270   25.3790   43.4720 H   0  0  0  0  0  0  0  0  0  0  0  0
   43.4460   25.6890   41.5220 C   0  0  0  0  0  3  0  0  0  0  0  0
   42.1550   25.5240   41.1000 C   0  0  0  0  0  0  0  0  0  0  0  0
   41.5010   25.6870   39.9180 C   0  0  0  0  0  3  0  0  0  0  0  0
   37.4630   29.2110   41.6540 C   0  0  0  0  0  0  0  0  0  0  0  0
   37.3710   29.0730   43.0300 C   0  0  0  0  0  0  0  0  0  0  0  0
   37.1390   27.8860   43.6790 C   0  0  0  0  0  0  0  0  0  0  0  0
   36.9940   26.7860   42.8470 C   0  0  0  0  0  0  0  0  0  0  0  0
   37.0840   26.9070   41.4570 C   0  0  0  0  0  0  0  0  0  0  0  0
   37.3160   28.1200   40.8950 N   0  0  0  0  0  0  0  0  0  0  0  0
   37.4940   29.9760   43.6190 H   0  0  0  0  0  0  0  0  0  0  0  0
   37.0730   27.8190   44.7580 H   0  0  0  0  0  0  0  0  0  0  0  0
   36.8080   25.8490   43.3590 H   0  0  0  0  0  0  0  0  0  0  0  0
   39.0780   32.3900   40.8210 C   0  0  0  0  0  0  0  0  0  0  0  0
   38.1720   32.9890   39.9270 C   0  0  0  0  0  0  0  0  0  0  0  0
   36.9980   32.2600   39.6300 C   0  0  0  0  0  0  0  0  0  0  0  0
   36.8050   31.0310   40.2150 N   0  0  0  0  0  0  0  0  0  0  0  0
   37.7110   30.5180   41.0600 C   0  0  0  0  0  0  0  0  0  0  0  0
   38.8320   31.1820   41.3610 N   0  0  0  0  0  0  0  0  0  0  0  0
   39.9590   32.9780   41.0200 H   0  0  0  0  0  0  0  0  0  0  0  0
   38.3350   33.9550   39.4730 H   0  0  0  0  0  0  0  0  0  0  0  0
   36.2640   32.6710   38.9490 H   0  0  0  0  0  0  0  0  0  0  0  0
  1  6  1  0  0  0  0
  1  7  1  1  0  0  0
  1 33  1  0  0  0  0
  2  1  1  0  0  0  0
  3  4  1  0  0  0  0
  3  2  1  0  0  0  0
  3 10  1  0  0  0  0
  4  5  1  0  0  0  0
  5 15  1  0  0  0  0
  5  6  1  0  0  0  0
  6 16  1  1  0  0  0
  8  2  1  0  0  0  0
  9  2  1  0  0  0  0
 11  3  1  0  0  0  0
 12  4  1  0  0  0  0
 13  4  1  0  0  0  0
 14  5  1  0  0  0  0
 17 28  2  0  0  0  0
 17 18  1  0  0  0  0
 18  6  1  0  0  0  0
 18 19  2  0  0  0  0
 19 21  1  0  0  0  0
 19 20  1  0  0  0  0
 21 22  1  0  0  0  0
 22 23  1  0  0  0  0
 24 22  1  0  0  0  0
 24 25  1  0  0  0  0
 26 24  2  0  0  0  0
 27 26  1  0  0  0  0
 27 21  2  0  0  0  0
 28 27  1  0  0  0  0
 29 30  1  0  0  0  0
 30 35  1  0  0  0  0
 30 31  2  0  0  0  0
 31 36  1  0  0  0  0
 32 37  1  0  0  0  0
 32 31  1  0  0  0  0
 33 32  2  0  0  0  0
 34 33  1  0  0  0  0
 34 29  2  0  0  0  0
 38 44  1  0  0  0  0
 38 43  1  0  0  0  0
 39 38  2  0  0  0  0
 40 39  1  0  0  0  0
 40 41  2  0  0  0  0
 41 42  1  0  0  0  0
 42 43  2  0  0  0  0
 42 29  1  0  0  0  0
 45 39  1  0  0  0  0
 46 40  1  0  0  0  0
M  END
>  <minimizedAffinity>
-6.44369125

$$$$

 OpenBabel03242514073D

 46 50  0  0  1  0  0  0  0  0999 V2000
   38.2520   29.0250   41.3570 C   0  0  1  0  0  0  0  0  0  0  0  0
   37.7020   29.5000   42.6690 C   0  0  0  0  0  0  0  0  0  0  0  0
   37.8670   28.2840   43.6010 C   0  0  0  0  0  0  0  0  0  0  0  0
   36.8600   27.2540   43.0960 C   0  0  0  0  0  0  0  0  0  0  0  0
   37.1180   26.8760   41.6860 C   0  0  0  0  0  0  0  0  0  0  0  0
   37.4650   27.9620   40.7330 C   0  0  1  0  0  0  0  0  0  0  0  0
   39.2410   28.5210   41.6470 H   0  0  0  0  0  0  0  0  0  0  0  0
   38.2670   30.3650   43.0760 H   0  0  0  0  0  0  0  0  0  0  0  0
   36.6460   29.7200   42.7230 H   0  0  0  0  0  0  0  0  0  0  0  0
   38.9070   27.9180   43.5330 H   0  0  0  0  0  0  0  0  0  0  0  0
   37.5690   28.5430   44.6480 H   0  0  0  0  0  0  0  0  0  0  0  0
   37.0280   26.3560   43.7360 H   0  0  0  0  0  0  0  0  0  0  0  0
   35.8590   27.6200   43.3260 H   0  0  0  0  0  0  0  0  0  0  0  0
   36.1830   26.3720   41.3150 H   0  0  0  0  0  0  0  0  0  0  0  0
   37.8750   26.0400   41.6700 H   0  0  0  0  0  0  0  0  0  0  0  0
   38.1550   27.4020   39.9840 H   0  0  0  0  0  0  0  0  0  0  0  0
   35.1430   28.9230   40.2610 C   0  0  0  0  0  3  0  0  0  0  0  0
   36.2920   28.2890   39.9360 C   0  0  0  0  0  0  0  0  0  0  0  0
   36.2800   27.8810   38.5860 C   0  0  0  0  0  0  0  0  0  0  0  0
   37.1650   27.3490   38.1950 H   0  0  0  0  0  0  0  0  0  0  0  0
   35.2480   28.0910   37.7000 C   0  0  0  0  0  0  0  0  0  0  0  0
   35.1120   27.7580   36.4050 N   0  0  0  0  0  0  0  0  0  0  0  0
   35.7950   27.2500   35.7850 H   0  0  0  0  0  0  0  0  0  0  0  0
   33.9050   28.2010   36.0150 C   0  0  0  0  0  0  0  0  0  0  0  0
   33.5110   28.0820   35.0290 H   0  0  0  0  0  0  0  0  0  0  0  0
   33.2750   28.8110   37.0510 C   0  0  0  0  0  3  0  0  0  0  0  0
   34.1270   28.7400   38.1190 C   0  0  0  0  0  0  0  0  0  0  0  0
   34.0820   29.1580   39.4140 C   0  0  0  0  0  3  0  0  0  0  0  0
   40.0950   30.8170   38.7210 C   0  0  0  0  0  0  0  0  0  0  0  0
   39.4530   32.0450   38.7670 C   0  0  0  0  0  0  0  0  0  0  0  0
   38.4220   32.3530   39.6190 C   0  0  0  0  0  0  0  0  0  0  0  0
   38.0420   31.3250   40.4680 C   0  0  0  0  0  0  0  0  0  0  0  0
   38.6790   30.0800   40.4360 C   0  0  0  0  0  0  0  0  0  0  0  0
   39.6910   29.8580   39.5610 N   0  0  0  0  0  0  0  0  0  0  0  0
   39.8040   32.8020   38.0730 H   0  0  0  0  0  0  0  0  0  0  0  0
   37.9460   33.3250   39.6230 H   0  0  0  0  0  0  0  0  0  0  0  0
   37.2260   31.5670   41.1390 H   0  0  0  0  0  0  0  0  0  0  0  0
   43.0980   31.3520   36.6950 C   0  0  0  0  0  0  0  0  0  0  0  0
   43.2330   30.1410   35.9900 C   0  0  0  0  0  0  0  0  0  0  0  0
   42.2580   29.1500   36.2400 C   0  0  0  0  0  0  0  0  0  0  0  0
   41.2490   29.4110   37.1380 N   0  0  0  0  0  0  0  0  0  0  0  0
   41.1810   30.5870   37.7760 C   0  0  0  0  0  0  0  0  0  0  0  0
   42.0880   31.5470   37.5630 N   0  0  0  0  0  0  0  0  0  0  0  0
   43.8610   32.0800   36.4750 H   0  0  0  0  0  0  0  0  0  0  0  0
   44.0290   29.9480   35.2870 H   0  0  0  0  0  0  0  0  0  0  0  0
   42.3090   28.1980   35.7270 H   0  0  0  0  0  0  0  0  0  0  0  0
  1  7  1  1  0  0  0
  1  2  1  0  0  0  0
  2  9  1  0  0  0  0
  2  8  1  0  0  0  0
  2  3  1  0  0  0  0
  3 11  1  0  0  0  0
  4 13  1  0  0  0  0
  4  3  1  0  0  0  0
  4 12  1  0  0  0  0
  5  4  1  0  0  0  0
  6 16  1  6  0  0  0
  6  1  1  0  0  0  0
  6  5  1  0  0  0  0
 10  3  1  0  0  0  0
 14  5  1  0  0  0  0
 15  5  1  0  0  0  0
 18 17  1  0  0  0  0
 18  6  1  0  0  0  0
 19 18  2  0  0  0  0
 20 19  1  0  0  0  0
 21 27  2  0  0  0  0
 21 19  1  0  0  0  0
 22 21  1  0  0  0  0
 23 22  1  0  0  0  0
 24 22  1  0  0  0  0
 24 26  2  0  0  0  0
 25 24  1  0  0  0  0
 26 27  1  0  0  0  0
 27 28  1  0  0  0  0
 28 17  2  0  0  0  0
 29 30  2  0  0  0  0
 29 34  1  0  0  0  0
 30 31  1  0  0  0  0
 31 36  1  0  0  0  0
 31 32  2  0  0  0  0
 32 37  1  0  0  0  0
 33 32  1  0  0  0  0
 33  1  1  0  0  0  0
 34 33  2  0  0  0  0
 35 30  1  0  0  0  0
 38 43  1  0  0  0  0
 39 40  1  0  0  0  0
 39 38  2  0  0  0  0
 40 41  2  0  0  0  0
 41 42  1  0  0  0  0
 42 29  1  0  0  0  0
 43 42  2  0  0  0  0
 44 38  1  0  0  0  0
 45 39  1  0  0  0  0
 46 40  1  0  0  0  0
M  END
>  <minimizedAffinity>
-6.39336538

$$$$
