
 OpenBabel03252507443D

 34 37  0  0  0  0  0  0  0  0999 V2000
   37.2280   29.6400   41.7940 C   0  0  0  0  0  0  0  0  0  0  0  0
   36.1080   29.6520   40.9050 C   0  0  0  0  0  0  0  0  0  0  0  0
   36.6120   30.9100   39.6430 S   0  0  0  0  0  0  0  0  0  0  0  0
   38.2380   31.1930   40.5330 C   0  0  0  0  0  0  0  0  0  0  0  0
   38.1670   30.4780   41.4190 N   0  0  0  0  0  0  0  0  0  0  0  0
   35.2040   29.0140   41.0430 H   0  0  0  0  0  0  0  0  0  0  0  0
   39.5860   33.2610   40.7590 C   0  0  0  0  0  3  0  0  0  0  0  0
   39.2440   32.1490   40.0570 C   0  0  0  0  0  0  0  0  0  0  0  0
   39.8640   31.8960   38.8420 C   0  0  0  0  0  0  0  0  0  0  0  0
   39.6130   31.0160   38.2540 H   0  0  0  0  0  0  0  0  0  0  0  0
   40.8270   32.7320   38.2970 C   0  0  0  0  0  0  0  0  0  0  0  0
   41.5510   32.7020   37.1680 N   0  0  0  0  0  0  0  0  0  0  0  0
   41.5030   31.9530   36.4170 H   0  0  0  0  0  0  0  0  0  0  0  0
   42.3410   33.7960   37.1710 C   0  0  0  0  0  0  0  0  0  0  0  0
   43.0310   34.0030   36.3530 H   0  0  0  0  0  0  0  0  0  0  0  0
   42.1150   34.5360   38.3250 C   0  0  0  0  0  3  0  0  0  0  0  0
   41.1530   33.8610   39.0420 C   0  0  0  0  0  0  0  0  0  0  0  0
   40.5380   34.1070   40.2430 C   0  0  0  0  0  3  0  0  0  0  0  0
   37.2660   28.7580   42.9820 C   0  0  0  0  0  0  0  0  0  0  0  0
   36.3220   28.9690   43.5600 H   0  0  0  0  0  0  0  0  0  0  0  0
   38.0840   29.0420   43.6890 H   0  0  0  0  0  0  0  0  0  0  0  0
   37.3420   27.3030   42.7060 C   0  0  0  0  0  0  0  0  0  0  0  0
   37.2310   27.1850   41.5870 H   0  0  0  0  0  0  0  0  0  0  0  0
   36.5300   26.7240   43.1310 H   0  0  0  0  0  0  0  0  0  0  0  0
   38.6650   26.7160   43.0080 C   0  0  0  0  0  0  0  0  0  0  0  0
   38.8470   25.3570   42.6960 C   0  0  0  0  0  0  0  0  0  0  0  0
   40.0600   24.7540   42.9550 C   0  0  0  0  0  0  0  0  0  0  0  0
   41.0500   25.5120   43.5110 N   0  0  0  0  0  0  0  0  0  0  0  0
   40.8460   26.8100   43.7990 C   0  0  0  0  0  0  0  0  0  0  0  0
   39.6740   27.3880   43.5470 N   0  0  0  0  0  0  0  0  0  0  0  0
   40.2460   23.7300   42.7370 H   0  0  0  0  0  0  0  0  0  0  0  0
   41.5860   27.4680   44.2410 H   0  0  0  0  0  0  0  0  0  0  0  0
   37.4990   24.4110   41.9610 S   0  0  0  0  0  0  0  0  0  0  0  0
   37.4330   23.1770   42.6730 H   0  0  0  0  0  0  0  0  0  0  0  0
  1 19  1  0  0  0  0
  2  6  1  0  0  0  0
  2  1  2  0  0  0  0
  3  4  1  0  0  0  0
  3  2  1  0  0  0  0
  4  5  2  0  0  0  0
  5  1  1  0  0  0  0
  8  4  1  0  0  0  0
  8  7  2  0  0  0  0
  9  8  1  0  0  0  0
 10  9  1  0  0  0  0
 11  9  2  0  0  0  0
 11 17  1  0  0  0  0
 12 14  1  0  0  0  0
 12 11  1  0  0  0  0
 13 12  1  0  0  0  0
 14 16  2  0  0  0  0
 15 14  1  0  0  0  0
 16 17  1  0  0  0  0
 17 18  2  0  0  0  0
 18  7  1  0  0  0  0
 19 20  1  0  0  0  0
 19 21  1  0  0  0  0
 22 19  1  0  0  0  0
 22 25  1  0  0  0  0
 22 24  1  0  0  0  0
 23 22  1  0  0  0  0
 25 30  1  0  0  0  0
 26 27  1  0  0  0  0
 26 25  2  0  0  0  0
 27 28  2  0  0  0  0
 28 29  1  0  0  0  0
 29 32  1  0  0  0  0
 30 29  2  0  0  0  0
 31 27  1  0  0  0  0
 33 34  1  0  0  0  0
 33 26  1  0  0  0  0
M  END
>  <minimizedAffinity>
-5.75362253

$$$$

 OpenBabel03252507443D

 34 37  0  0  0  0  0  0  0  0999 V2000
   34.2450   28.5450   36.5470 C   0  0  0  0  0  0  0  0  0  0  0  0
   35.3120   29.0740   35.7560 C   0  0  0  0  0  0  0  0  0  0  0  0
   36.7590   28.9530   36.9060 S   0  0  0  0  0  0  0  0  0  0  0  0
   35.6720   28.2110   38.2410 C   0  0  0  0  0  0  0  0  0  0  0  0
   34.6470   28.1790   37.7420 N   0  0  0  0  0  0  0  0  0  0  0  0
   35.1830   29.4430   34.7120 H   0  0  0  0  0  0  0  0  0  0  0  0
   36.5650   26.5530   39.8540 C   0  0  0  0  0  3  0  0  0  0  0  0
   36.1900   27.8250   39.5590 C   0  0  0  0  0  0  0  0  0  0  0  0
   36.2960   28.8070   40.5330 C   0  0  0  0  0  0  0  0  0  0  0  0
   36.0040   29.8350   40.3310 H   0  0  0  0  0  0  0  0  0  0  0  0
   36.7700   28.5550   41.8120 C   0  0  0  0  0  0  0  0  0  0  0  0
   36.9610   29.3170   42.8990 N   0  0  0  0  0  0  0  0  0  0  0  0
   36.7580   30.3560   42.9740 H   0  0  0  0  0  0  0  0  0  0  0  0
   37.4540   28.5170   43.8660 C   0  0  0  0  0  0  0  0  0  0  0  0
   37.6950   28.9020   44.8570 H   0  0  0  0  0  0  0  0  0  0  0  0
   37.5790   27.2190   43.3860 C   0  0  0  0  0  3  0  0  0  0  0  0
   37.1450   27.2410   42.0800 C   0  0  0  0  0  0  0  0  0  0  0  0
   37.0380   26.2740   41.1130 C   0  0  0  0  0  3  0  0  0  0  0  0
   32.8650   28.4450   36.0200 C   0  0  0  0  0  0  0  0  0  0  0  0
   32.2250   28.0950   36.8790 H   0  0  0  0  0  0  0  0  0  0  0  0
   32.7630   27.6320   35.2600 H   0  0  0  0  0  0  0  0  0  0  0  0
   32.2870   29.6970   35.4750 C   0  0  0  0  0  0  0  0  0  0  0  0
   31.6560   29.3950   34.5870 H   0  0  0  0  0  0  0  0  0  0  0  0
   33.0180   30.3910   35.0770 H   0  0  0  0  0  0  0  0  0  0  0  0
   31.3350   30.3550   36.3960 C   0  0  0  0  0  0  0  0  0  0  0  0
   30.7340   31.5440   35.9500 C   0  0  0  0  0  0  0  0  0  0  0  0
   29.8370   32.2040   36.7660 C   0  0  0  0  0  0  0  0  0  0  0  0
   29.5660   31.6640   37.9910 N   0  0  0  0  0  0  0  0  0  0  0  0
   30.1570   30.5250   38.3900 C   0  0  0  0  0  0  0  0  0  0  0  0
   31.0220   29.8930   37.6000 N   0  0  0  0  0  0  0  0  0  0  0  0
   29.3570   33.1060   36.4740 H   0  0  0  0  0  0  0  0  0  0  0  0
   29.9890   30.0430   39.3460 H   0  0  0  0  0  0  0  0  0  0  0  0
   31.1350   32.2040   34.3200 S   0  0  0  0  0  0  0  0  0  0  0  0
   31.3710   33.5990   34.4920 H   0  0  0  0  0  0  0  0  0  0  0  0
  1  5  1  0  0  0  0
  2  1  2  0  0  0  0
  2  3  1  0  0  0  0
  3  4  1  0  0  0  0
  4  8  1  0  0  0  0
  5  4  2  0  0  0  0
  6  2  1  0  0  0  0
  7 18  1  0  0  0  0
  8  7  2  0  0  0  0
  8  9  1  0  0  0  0
  9 11  2  0  0  0  0
 10  9  1  0  0  0  0
 11 17  1  0  0  0  0
 11 12  1  0  0  0  0
 12 13  1  0  0  0  0
 12 14  1  0  0  0  0
 14 15  1  0  0  0  0
 16 14  2  0  0  0  0
 17 16  1  0  0  0  0
 18 17  2  0  0  0  0
 19  1  1  0  0  0  0
 19 20  1  0  0  0  0
 21 19  1  0  0  0  0
 22 19  1  0  0  0  0
 22 25  1  0  0  0  0
 23 22  1  0  0  0  0
 24 22  1  0  0  0  0
 25 30  1  0  0  0  0
 26 25  2  0  0  0  0
 26 27  1  0  0  0  0
 27 28  2  0  0  0  0
 28 29  1  0  0  0  0
 29 32  1  0  0  0  0
 30 29  2  0  0  0  0
 31 27  1  0  0  0  0
 33 34  1  0  0  0  0
 33 26  1  0  0  0  0
M  END
>  <minimizedAffinity>
-5.70625353

$$$$

 OpenBabel03252507443D

 34 37  0  0  0  0  0  0  0  0999 V2000
   38.4350   32.5510   40.3900 C   0  0  0  0  0  0  0  0  0  0  0  0
   37.0470   32.5140   40.0460 C   0  0  0  0  0  0  0  0  0  0  0  0
   36.5060   30.8840   40.7430 S   0  0  0  0  0  0  0  0  0  0  0  0
   38.2390   30.5460   41.3720 C   0  0  0  0  0  0  0  0  0  0  0  0
   38.8130   31.4760   41.0430 N   0  0  0  0  0  0  0  0  0  0  0  0
   36.5280   33.3280   39.4900 H   0  0  0  0  0  0  0  0  0  0  0  0
   37.7730   28.7510   43.0180 C   0  0  0  0  0  3  0  0  0  0  0  0
   38.5930   29.3190   42.0960 C   0  0  0  0  0  0  0  0  0  0  0  0
   39.8160   28.7250   41.8170 C   0  0  0  0  0  0  0  0  0  0  0  0
   40.4960   29.1540   41.0850 H   0  0  0  0  0  0  0  0  0  0  0  0
   40.2520   27.5660   42.4410 C   0  0  0  0  0  0  0  0  0  0  0  0
   41.3640   26.8210   42.3440 N   0  0  0  0  0  0  0  0  0  0  0  0
   42.1890   27.0140   41.7050 H   0  0  0  0  0  0  0  0  0  0  0  0
   41.2310   25.7930   43.2070 C   0  0  0  0  0  0  0  0  0  0  0  0
   42.0100   25.0380   43.3180 H   0  0  0  0  0  0  0  0  0  0  0  0
   40.0110   25.8850   43.8660 C   0  0  0  0  0  3  0  0  0  0  0  0
   39.3870   27.0110   43.3810 C   0  0  0  0  0  0  0  0  0  0  0  0
   38.1790   27.6020   43.6520 C   0  0  0  0  0  3  0  0  0  0  0  0
   39.2940   33.6990   40.0260 C   0  0  0  0  0  0  0  0  0  0  0  0
   38.7570   34.6210   40.3890 H   0  0  0  0  0  0  0  0  0  0  0  0
   39.3560   33.8420   38.9190 H   0  0  0  0  0  0  0  0  0  0  0  0
   40.6630   33.6900   40.5950 C   0  0  0  0  0  0  0  0  0  0  0  0
   40.8090   32.6680   41.0560 H   0  0  0  0  0  0  0  0  0  0  0  0
   40.8140   34.3890   41.4100 H   0  0  0  0  0  0  0  0  0  0  0  0
   41.7260   33.7870   39.5710 C   0  0  0  0  0  0  0  0  0  0  0  0
   43.0540   33.8170   40.0310 C   0  0  0  0  0  0  0  0  0  0  0  0
   44.0890   33.9070   39.1220 C   0  0  0  0  0  0  0  0  0  0  0  0
   43.7760   33.9630   37.7940 N   0  0  0  0  0  0  0  0  0  0  0  0
   42.4960   33.9320   37.3850 C   0  0  0  0  0  0  0  0  0  0  0  0
   41.5010   33.8450   38.2650 N   0  0  0  0  0  0  0  0  0  0  0  0
   45.1090   33.9330   39.4210 H   0  0  0  0  0  0  0  0  0  0  0  0
   42.1760   33.9730   36.3500 H   0  0  0  0  0  0  0  0  0  0  0  0
   43.4010   33.7390   41.7990 S   0  0  0  0  0  0  0  0  0  0  0  0
   44.3690   34.7500   42.0690 H   0  0  0  0  0  0  0  0  0  0  0  0
  1  5  1  0  0  0  0
  2  1  2  0  0  0  0
  2  3  1  0  0  0  0
  3  4  1  0  0  0  0
  4  8  1  0  0  0  0
  5  4  2  0  0  0  0
  6  2  1  0  0  0  0
  7 18  1  0  0  0  0
  8  7  2  0  0  0  0
  9  8  1  0  0  0  0
  9 11  2  0  0  0  0
 10  9  1  0  0  0  0
 11 17  1  0  0  0  0
 12 11  1  0  0  0  0
 12 14  1  0  0  0  0
 13 12  1  0  0  0  0
 14 15  1  0  0  0  0
 14 16  2  0  0  0  0
 17 18  2  0  0  0  0
 17 16  1  0  0  0  0
 19 20  1  0  0  0  0
 19  1  1  0  0  0  0
 19 22  1  0  0  0  0
 21 19  1  0  0  0  0
 22 23  1  0  0  0  0
 22 24  1  0  0  0  0
 25 26  1  0  0  0  0
 25 22  1  0  0  0  0
 26 33  1  0  0  0  0
 27 31  1  0  0  0  0
 27 26  2  0  0  0  0
 28 27  1  0  0  0  0
 29 28  2  0  0  0  0
 29 30  1  0  0  0  0
 30 25  2  0  0  0  0
 32 29  1  0  0  0  0
 33 34  1  0  0  0  0
M  END
>  <minimizedAffinity>
-5.68017149

$$$$

 OpenBabel03252507443D

 34 37  0  0  0  0  0  0  0  0999 V2000
   36.8220   29.4210   41.4670 C   0  0  0  0  0  0  0  0  0  0  0  0
   37.5740   29.3260   42.6790 C   0  0  0  0  0  0  0  0  0  0  0  0
   38.0140   27.5270   42.7380 S   0  0  0  0  0  0  0  0  0  0  0  0
   37.1110   27.2260   41.1230 C   0  0  0  0  0  0  0  0  0  0  0  0
   36.7170   28.2630   40.8570 N   0  0  0  0  0  0  0  0  0  0  0  0
   37.7800   30.1940   43.3480 H   0  0  0  0  0  0  0  0  0  0  0  0
   36.3510   25.6760   39.3420 C   0  0  0  0  0  3  0  0  0  0  0  0
   37.0320   25.9010   40.4960 C   0  0  0  0  0  0  0  0  0  0  0  0
   37.6830   24.8440   41.1160 C   0  0  0  0  0  0  0  0  0  0  0  0
   38.2370   24.9890   42.0410 H   0  0  0  0  0  0  0  0  0  0  0  0
   37.6740   23.5520   40.6140 C   0  0  0  0  0  0  0  0  0  0  0  0
   38.2140   22.3930   41.0210 N   0  0  0  0  0  0  0  0  0  0  0  0
   38.8030   22.2530   41.8930 H   0  0  0  0  0  0  0  0  0  0  0  0
   37.8660   21.4520   40.1190 C   0  0  0  0  0  0  0  0  0  0  0  0
   38.1850   20.4150   40.2260 H   0  0  0  0  0  0  0  0  0  0  0  0
   37.0900   22.0230   39.1180 C   0  0  0  0  0  3  0  0  0  0  0  0
   36.9660   23.3580   39.4310 C   0  0  0  0  0  0  0  0  0  0  0  0
   36.3240   24.4050   38.8210 C   0  0  0  0  0  3  0  0  0  0  0  0
   36.2550   30.7070   41.0040 C   0  0  0  0  0  0  0  0  0  0  0  0
   36.5600   31.4780   41.7680 H   0  0  0  0  0  0  0  0  0  0  0  0
   35.1380   30.7140   41.0470 H   0  0  0  0  0  0  0  0  0  0  0  0
   36.6950   31.1640   39.6640 C   0  0  0  0  0  0  0  0  0  0  0  0
   35.8150   31.7120   39.2110 H   0  0  0  0  0  0  0  0  0  0  0  0
   36.9160   30.3630   38.9680 H   0  0  0  0  0  0  0  0  0  0  0  0
   37.7720   32.1760   39.7130 C   0  0  0  0  0  0  0  0  0  0  0  0
   39.0400   31.7820   39.2510 C   0  0  0  0  0  0  0  0  0  0  0  0
   40.0850   32.6830   39.2720 C   0  0  0  0  0  0  0  0  0  0  0  0
   39.8400   33.9400   39.7470 N   0  0  0  0  0  0  0  0  0  0  0  0
   38.6170   34.2880   40.1830 C   0  0  0  0  0  0  0  0  0  0  0  0
   37.6120   33.4150   40.1600 N   0  0  0  0  0  0  0  0  0  0  0  0
   41.0610   32.4330   38.9340 H   0  0  0  0  0  0  0  0  0  0  0  0
   38.3540   35.2650   40.5720 H   0  0  0  0  0  0  0  0  0  0  0  0
   39.2970   30.1060   38.6340 S   0  0  0  0  0  0  0  0  0  0  0  0
   40.5030   29.6350   39.2290 H   0  0  0  0  0  0  0  0  0  0  0  0
  1  2  2  0  0  0  0
  2  3  1  0  0  0  0
  2  6  1  0  0  0  0
  4  3  1  0  0  0  0
  5  4  2  0  0  0  0
  5  1  1  0  0  0  0
  7  8  1  0  0  0  0
  8  9  2  0  0  0  0
  8  4  1  0  0  0  0
  9 10  1  0  0  0  0
 11 12  1  0  0  0  0
 11  9  1  0  0  0  0
 12 13  1  0  0  0  0
 14 15  1  0  0  0  0
 14 12  1  0  0  0  0
 16 17  1  0  0  0  0
 16 14  2  0  0  0  0
 17 11  2  0  0  0  0
 18  7  2  0  0  0  0
 18 17  1  0  0  0  0
 19 21  1  0  0  0  0
 19  1  1  0  0  0  0
 19 20  1  0  0  0  0
 22 25  1  0  0  0  0
 22 19  1  0  0  0  0
 23 22  1  0  0  0  0
 24 22  1  0  0  0  0
 25 30  1  0  0  0  0
 26 27  1  0  0  0  0
 26 25  2  0  0  0  0
 27 28  2  0  0  0  0
 28 29  1  0  0  0  0
 29 32  1  0  0  0  0
 30 29  2  0  0  0  0
 31 27  1  0  0  0  0
 33 34  1  0  0  0  0
 33 26  1  0  0  0  0
M  END
>  <minimizedAffinity>
-5.58235264

$$$$

 OpenBabel03252507443D

 34 37  0  0  0  0  0  0  0  0999 V2000
   42.2640   33.3660   41.2060 C   0  0  0  0  0  0  0  0  0  0  0  0
   43.5020   33.3150   41.9200 C   0  0  0  0  0  0  0  0  0  0  0  0
   43.3390   31.7460   42.8920 S   0  0  0  0  0  0  0  0  0  0  0  0
   41.6390   31.4400   42.1640 C   0  0  0  0  0  0  0  0  0  0  0  0
   41.4930   32.3390   41.4770 N   0  0  0  0  0  0  0  0  0  0  0  0
   44.2970   34.0910   41.8330 H   0  0  0  0  0  0  0  0  0  0  0  0
   41.3670   29.0340   42.7000 C   0  0  0  0  0  3  0  0  0  0  0  0
   40.8280   30.2660   42.5130 C   0  0  0  0  0  0  0  0  0  0  0  0
   39.4590   30.4370   42.6550 C   0  0  0  0  0  0  0  0  0  0  0  0
   38.9940   31.4100   42.5120 H   0  0  0  0  0  0  0  0  0  0  0  0
   38.5980   29.4000   42.9820 C   0  0  0  0  0  0  0  0  0  0  0  0
   37.2720   29.3170   43.1710 N   0  0  0  0  0  0  0  0  0  0  0  0
   36.5810   30.1190   43.0920 H   0  0  0  0  0  0  0  0  0  0  0  0
   36.9920   28.0330   43.4740 C   0  0  0  0  0  0  0  0  0  0  0  0
   35.9720   27.7040   43.6740 H   0  0  0  0  0  0  0  0  0  0  0  0
   38.1620   27.2840   43.4790 C   0  0  0  0  0  3  0  0  0  0  0  0
   39.1840   28.1510   43.1660 C   0  0  0  0  0  0  0  0  0  0  0  0
   40.5380   27.9870   43.0250 C   0  0  0  0  0  3  0  0  0  0  0  0
   41.9480   34.4760   40.2800 C   0  0  0  0  0  0  0  0  0  0  0  0
   42.9100   35.0430   40.1300 H   0  0  0  0  0  0  0  0  0  0  0  0
   41.2620   35.2270   40.7430 H   0  0  0  0  0  0  0  0  0  0  0  0
   41.4160   34.0810   38.9530 C   0  0  0  0  0  0  0  0  0  0  0  0
   41.3370   35.0330   38.3470 H   0  0  0  0  0  0  0  0  0  0  0  0
   40.4100   33.6790   38.9760 H   0  0  0  0  0  0  0  0  0  0  0  0
   42.3420   33.2280   38.1780 C   0  0  0  0  0  0  0  0  0  0  0  0
   41.7970   32.0860   37.5660 C   0  0  0  0  0  0  0  0  0  0  0  0
   42.6130   31.2510   36.8300 C   0  0  0  0  0  0  0  0  0  0  0  0
   43.9360   31.5740   36.7250 N   0  0  0  0  0  0  0  0  0  0  0  0
   44.4280   32.6720   37.3220 C   0  0  0  0  0  0  0  0  0  0  0  0
   43.6370   33.4750   38.0310 N   0  0  0  0  0  0  0  0  0  0  0  0
   42.2480   30.3760   36.3480 H   0  0  0  0  0  0  0  0  0  0  0  0
   45.4650   32.9870   37.2800 H   0  0  0  0  0  0  0  0  0  0  0  0
   40.0400   31.7170   37.7430 S   0  0  0  0  0  0  0  0  0  0  0  0
   39.9460   30.3300   38.0590 H   0  0  0  0  0  0  0  0  0  0  0  0
  1  5  1  0  0  0  0
  1  2  2  0  0  0  0
  2  3  1  0  0  0  0
  4  8  1  0  0  0  0
  4  3  1  0  0  0  0
  5  4  2  0  0  0  0
  6  2  1  0  0  0  0
  7 18  1  0  0  0  0
  8  9  1  0  0  0  0
  8  7  2  0  0  0  0
  9 11  2  0  0  0  0
 10  9  1  0  0  0  0
 11 17  1  0  0  0  0
 11 12  1  0  0  0  0
 12 14  1  0  0  0  0
 13 12  1  0  0  0  0
 14 16  2  0  0  0  0
 14 15  1  0  0  0  0
 17 16  1  0  0  0  0
 18 17  2  0  0  0  0
 19 21  1  0  0  0  0
 19  1  1  0  0  0  0
 20 19  1  0  0  0  0
 22 24  1  0  0  0  0
 22 19  1  0  0  0  0
 23 22  1  0  0  0  0
 25 22  1  0  0  0  0
 26 33  1  0  0  0  0
 26 25  2  0  0  0  0
 27 26  1  0  0  0  0
 28 27  2  0  0  0  0
 28 29  1  0  0  0  0
 29 30  2  0  0  0  0
 30 25  1  0  0  0  0
 31 27  1  0  0  0  0
 32 29  1  0  0  0  0
 33 34  1  0  0  0  0
M  END
>  <minimizedAffinity>
-5.53100586

$$$$

 OpenBabel03252507443D

 34 37  0  0  0  0  0  0  0  0999 V2000
   37.8660   29.1920   42.1910 C   0  0  0  0  0  0  0  0  0  0  0  0
   38.7690   30.2960   42.0970 C   0  0  0  0  0  0  0  0  0  0  0  0
   38.4610   30.9200   40.3800 S   0  0  0  0  0  0  0  0  0  0  0  0
   37.1740   29.5860   40.0970 C   0  0  0  0  0  0  0  0  0  0  0  0
   37.1760   29.0200   41.0880 N   0  0  0  0  0  0  0  0  0  0  0  0
   39.4480   30.6110   42.9240 H   0  0  0  0  0  0  0  0  0  0  0  0
   35.1340   29.0740   38.7840 C   0  0  0  0  0  3  0  0  0  0  0  0
   36.4380   29.4520   38.8340 C   0  0  0  0  0  0  0  0  0  0  0  0
   37.1120   29.7250   37.6530 C   0  0  0  0  0  0  0  0  0  0  0  0
   38.1560   30.0290   37.6580 H   0  0  0  0  0  0  0  0  0  0  0  0
   36.5170   29.6300   36.4040 C   0  0  0  0  0  0  0  0  0  0  0  0
   36.9480   29.8370   35.1500 N   0  0  0  0  0  0  0  0  0  0  0  0
   37.9270   30.1400   34.8710 H   0  0  0  0  0  0  0  0  0  0  0  0
   35.9110   29.5860   34.3250 C   0  0  0  0  0  0  0  0  0  0  0  0
   36.0080   29.6830   33.2430 H   0  0  0  0  0  0  0  0  0  0  0  0
   34.7980   29.2130   35.0670 C   0  0  0  0  0  3  0  0  0  0  0  0
   35.1800   29.2400   36.3890 C   0  0  0  0  0  0  0  0  0  0  0  0
   34.5180   28.9710   37.5600 C   0  0  0  0  0  3  0  0  0  0  0  0
   37.7670   28.3740   43.4210 C   0  0  0  0  0  0  0  0  0  0  0  0
   36.7300   27.9310   43.4200 H   0  0  0  0  0  0  0  0  0  0  0  0
   37.7910   29.0010   44.3450 H   0  0  0  0  0  0  0  0  0  0  0  0
   38.7540   27.2750   43.5500 C   0  0  0  0  0  0  0  0  0  0  0  0
   38.7380   26.9600   44.6360 H   0  0  0  0  0  0  0  0  0  0  0  0
   39.7800   27.5700   43.3590 H   0  0  0  0  0  0  0  0  0  0  0  0
   38.3760   26.0540   42.8070 C   0  0  0  0  0  0  0  0  0  0  0  0
   39.4120   25.1680   42.4640 C   0  0  0  0  0  0  0  0  0  0  0  0
   39.1200   24.0120   41.7700 C   0  0  0  0  0  0  0  0  0  0  0  0
   37.8170   23.7720   41.4400 N   0  0  0  0  0  0  0  0  0  0  0  0
   36.8480   24.6380   41.7800 C   0  0  0  0  0  0  0  0  0  0  0  0
   37.1340   25.7520   42.4500 N   0  0  0  0  0  0  0  0  0  0  0  0
   39.8690   23.3110   41.4890 H   0  0  0  0  0  0  0  0  0  0  0  0
   35.7960   24.5110   41.5510 H   0  0  0  0  0  0  0  0  0  0  0  0
   41.1130   25.5430   42.9320 S   0  0  0  0  0  0  0  0  0  0  0  0
   41.9150   25.3000   41.7780 H   0  0  0  0  0  0  0  0  0  0  0  0
  1 19  1  0  0  0  0
  2  1  2  0  0  0  0
  2  6  1  0  0  0  0
  3  2  1  0  0  0  0
  4  3  1  0  0  0  0
  4  5  2  0  0  0  0
  5  1  1  0  0  0  0
  7  8  1  0  0  0  0
  8  4  1  0  0  0  0
  9 10  1  0  0  0  0
  9  8  2  0  0  0  0
 11  9  1  0  0  0  0
 12 11  1  0  0  0  0
 13 12  1  0  0  0  0
 14 16  2  0  0  0  0
 14 12  1  0  0  0  0
 15 14  1  0  0  0  0
 16 17  1  0  0  0  0
 17 11  2  0  0  0  0
 17 18  1  0  0  0  0
 18  7  2  0  0  0  0
 19 22  1  0  0  0  0
 19 21  1  0  0  0  0
 20 19  1  0  0  0  0
 22 23  1  0  0  0  0
 24 22  1  0  0  0  0
 25 22  1  0  0  0  0
 26 25  1  0  0  0  0
 26 33  1  0  0  0  0
 27 26  2  0  0  0  0
 28 27  1  0  0  0  0
 28 29  2  0  0  0  0
 29 30  1  0  0  0  0
 30 25  2  0  0  0  0
 31 27  1  0  0  0  0
 32 29  1  0  0  0  0
 34 33  1  0  0  0  0
M  END
>  <minimizedAffinity>
-5.51450348

$$$$

 OpenBabel03252507443D

 34 37  0  0  0  0  0  0  0  0999 V2000
   37.4850   31.9450   39.3700 C   0  0  0  0  0  0  0  0  0  0  0  0
   37.3320   31.6790   37.9740 C   0  0  0  0  0  0  0  0  0  0  0  0
   37.0930   29.8430   37.9400 S   0  0  0  0  0  0  0  0  0  0  0  0
   37.2400   29.7610   39.8070 C   0  0  0  0  0  0  0  0  0  0  0  0
   37.4060   30.8530   40.0940 N   0  0  0  0  0  0  0  0  0  0  0  0
   37.3680   32.4690   37.1880 H   0  0  0  0  0  0  0  0  0  0  0  0
   37.0490   28.4600   41.9090 C   0  0  0  0  0  3  0  0  0  0  0  0
   37.1410   28.5010   40.5540 C   0  0  0  0  0  0  0  0  0  0  0  0
   37.1430   27.3140   39.8370 C   0  0  0  0  0  0  0  0  0  0  0  0
   37.2170   27.3120   38.7510 H   0  0  0  0  0  0  0  0  0  0  0  0
   37.0560   26.0680   40.4380 C   0  0  0  0  0  0  0  0  0  0  0  0
   37.0390   24.8100   39.9710 N   0  0  0  0  0  0  0  0  0  0  0  0
   37.0970   24.5240   38.9510 H   0  0  0  0  0  0  0  0  0  0  0  0
   36.9360   23.9900   41.0380 C   0  0  0  0  0  0  0  0  0  0  0  0
   36.9030   22.9060   40.9230 H   0  0  0  0  0  0  0  0  0  0  0  0
   36.8870   24.7400   42.2060 C   0  0  0  0  0  3  0  0  0  0  0  0
   36.9630   26.0610   41.8270 C   0  0  0  0  0  0  0  0  0  0  0  0
   36.9610   27.2380   42.5320 C   0  0  0  0  0  3  0  0  0  0  0  0
   37.7050   33.3170   39.8790 C   0  0  0  0  0  0  0  0  0  0  0  0
   36.7290   33.6400   40.3430 H   0  0  0  0  0  0  0  0  0  0  0  0
   37.8650   34.0520   39.0520 H   0  0  0  0  0  0  0  0  0  0  0  0
   38.7840   33.4700   40.8850 C   0  0  0  0  0  0  0  0  0  0  0  0
   38.8030   32.5080   41.4790 H   0  0  0  0  0  0  0  0  0  0  0  0
   38.6050   34.2490   41.6180 H   0  0  0  0  0  0  0  0  0  0  0  0
   40.1340   33.5610   40.2890 C   0  0  0  0  0  0  0  0  0  0  0  0
   41.0670   32.5820   40.6710 C   0  0  0  0  0  0  0  0  0  0  0  0
   42.3440   32.6150   40.1480 C   0  0  0  0  0  0  0  0  0  0  0  0
   42.6530   33.6130   39.2680 N   0  0  0  0  0  0  0  0  0  0  0  0
   41.7390   34.5360   38.9230 C   0  0  0  0  0  0  0  0  0  0  0  0
   40.5080   34.4990   39.4290 N   0  0  0  0  0  0  0  0  0  0  0  0
   43.0850   31.8970   40.4060 H   0  0  0  0  0  0  0  0  0  0  0  0
   41.9150   35.3530   38.2320 H   0  0  0  0  0  0  0  0  0  0  0  0
   40.5960   31.2900   41.8380 S   0  0  0  0  0  0  0  0  0  0  0  0
   41.6530   31.1970   42.7900 H   0  0  0  0  0  0  0  0  0  0  0  0
  1 19  1  0  0  0  0
  1  5  1  0  0  0  0
  2  1  2  0  0  0  0
  3  2  1  0  0  0  0
  3  4  1  0  0  0  0
  4  5  2  0  0  0  0
  4  8  1  0  0  0  0
  6  2  1  0  0  0  0
  7 18  1  0  0  0  0
  8  7  2  0  0  0  0
  9 11  2  0  0  0  0
  9  8  1  0  0  0  0
 10  9  1  0  0  0  0
 11 17  1  0  0  0  0
 12 11  1  0  0  0  0
 12 14  1  0  0  0  0
 13 12  1  0  0  0  0
 14 16  2  0  0  0  0
 15 14  1  0  0  0  0
 17 16  1  0  0  0  0
 17 18  2  0  0  0  0
 19 20  1  0  0  0  0
 19 22  1  0  0  0  0
 21 19  1  0  0  0  0
 22 23  1  0  0  0  0
 22 24  1  0  0  0  0
 25 26  1  0  0  0  0
 25 22  1  0  0  0  0
 26 33  1  0  0  0  0
 27 31  1  0  0  0  0
 27 26  2  0  0  0  0
 28 27  1  0  0  0  0
 29 28  2  0  0  0  0
 29 30  1  0  0  0  0
 30 25  2  0  0  0  0
 32 29  1  0  0  0  0
 33 34  1  0  0  0  0
M  END
>  <minimizedAffinity>
-5.47192907

$$$$

 OpenBabel03252507443D

 34 37  0  0  0  0  0  0  0  0999 V2000
   37.8280   26.5690   42.3840 C   0  0  0  0  0  0  0  0  0  0  0  0
   39.1120   26.5660   43.0130 C   0  0  0  0  0  0  0  0  0  0  0  0
   39.7270   28.2810   42.6770 S   0  0  0  0  0  0  0  0  0  0  0  0
   38.1480   28.6950   41.7550 C   0  0  0  0  0  0  0  0  0  0  0  0
   37.5540   27.7240   41.8230 N   0  0  0  0  0  0  0  0  0  0  0  0
   39.5360   25.6830   43.5460 H   0  0  0  0  0  0  0  0  0  0  0  0
   36.8890   30.2420   40.2810 C   0  0  0  0  0  3  0  0  0  0  0  0
   37.9080   30.0110   41.1500 C   0  0  0  0  0  0  0  0  0  0  0  0
   38.7610   31.0520   41.4870 C   0  0  0  0  0  0  0  0  0  0  0  0
   39.5880   30.9010   42.1780 H   0  0  0  0  0  0  0  0  0  0  0  0
   38.6290   32.3340   40.9750 C   0  0  0  0  0  0  0  0  0  0  0  0
   39.3110   33.4770   41.1450 N   0  0  0  0  0  0  0  0  0  0  0  0
   40.1610   33.6080   41.7660 H   0  0  0  0  0  0  0  0  0  0  0  0
   38.7130   34.4140   40.3810 C   0  0  0  0  0  0  0  0  0  0  0  0
   39.0830   35.4400   40.3440 H   0  0  0  0  0  0  0  0  0  0  0  0
   37.6300   33.8580   39.7120 C   0  0  0  0  0  3  0  0  0  0  0  0
   37.5750   32.5350   40.0880 C   0  0  0  0  0  0  0  0  0  0  0  0
   36.7330   31.5030   39.7580 C   0  0  0  0  0  3  0  0  0  0  0  0
   36.9530   25.3760   42.4000 C   0  0  0  0  0  0  0  0  0  0  0  0
   36.0040   25.6740   41.8700 H   0  0  0  0  0  0  0  0  0  0  0  0
   36.6140   25.1170   43.4330 H   0  0  0  0  0  0  0  0  0  0  0  0
   37.5010   24.1620   41.7480 C   0  0  0  0  0  0  0  0  0  0  0  0
   37.1120   23.2800   42.3400 H   0  0  0  0  0  0  0  0  0  0  0  0
   38.5810   24.0770   41.7960 H   0  0  0  0  0  0  0  0  0  0  0  0
   36.9830   23.9440   40.3810 C   0  0  0  0  0  0  0  0  0  0  0  0
   37.9000   24.0710   39.3230 C   0  0  0  0  0  0  0  0  0  0  0  0
   37.4740   23.8790   38.0240 C   0  0  0  0  0  0  0  0  0  0  0  0
   36.1610   23.5690   37.8170 N   0  0  0  0  0  0  0  0  0  0  0  0
   35.3070   23.4540   38.8500 C   0  0  0  0  0  0  0  0  0  0  0  0
   35.7220   23.6400   40.1000 N   0  0  0  0  0  0  0  0  0  0  0  0
   38.1290   23.9650   37.1910 H   0  0  0  0  0  0  0  0  0  0  0  0
   34.2550   23.2110   38.7580 H   0  0  0  0  0  0  0  0  0  0  0  0
   39.6220   24.4830   39.6640 S   0  0  0  0  0  0  0  0  0  0  0  0
   39.9860   25.5060   38.7400 H   0  0  0  0  0  0  0  0  0  0  0  0
  1 19  1  0  0  0  0
  1  2  2  0  0  0  0
  2  6  1  0  0  0  0
  3  2  1  0  0  0  0
  4  5  2  0  0  0  0
  4  3  1  0  0  0  0
  5  1  1  0  0  0  0
  7  8  1  0  0  0  0
  8  9  2  0  0  0  0
  8  4  1  0  0  0  0
  9 10  1  0  0  0  0
 11 12  1  0  0  0  0
 11  9  1  0  0  0  0
 12 13  1  0  0  0  0
 14 12  1  0  0  0  0
 15 14  1  0  0  0  0
 16 17  1  0  0  0  0
 16 14  2  0  0  0  0
 17 11  2  0  0  0  0
 18 17  1  0  0  0  0
 18  7  2  0  0  0  0
 19 21  1  0  0  0  0
 20 19  1  0  0  0  0
 22 24  1  0  0  0  0
 22 23  1  0  0  0  0
 22 19  1  0  0  0  0
 25 22  1  0  0  0  0
 26 33  1  0  0  0  0
 26 25  2  0  0  0  0
 27 26  1  0  0  0  0
 28 27  2  0  0  0  0
 28 29  1  0  0  0  0
 29 30  2  0  0  0  0
 30 25  1  0  0  0  0
 31 27  1  0  0  0  0
 32 29  1  0  0  0  0
 34 33  1  0  0  0  0
M  END
>  <minimizedAffinity>
-5.46077728

$$$$

 OpenBabel03252507443D

 34 37  0  0  0  0  0  0  0  0999 V2000
   37.1300   27.2110   39.2420 C   0  0  0  0  0  0  0  0  0  0  0  0
   36.8050   27.0930   37.8550 C   0  0  0  0  0  0  0  0  0  0  0  0
   37.0320   28.8270   37.2430 S   0  0  0  0  0  0  0  0  0  0  0  0
   37.5250   29.3980   38.9590 C   0  0  0  0  0  0  0  0  0  0  0  0
   37.4580   28.4380   39.5720 N   0  0  0  0  0  0  0  0  0  0  0  0
   36.4990   26.1360   37.3720 H   0  0  0  0  0  0  0  0  0  0  0  0
   36.9670   31.7970   39.2440 C   0  0  0  0  0  3  0  0  0  0  0  0
   37.8790   30.7910   39.2580 C   0  0  0  0  0  0  0  0  0  0  0  0
   39.2010   31.0770   39.5660 C   0  0  0  0  0  0  0  0  0  0  0  0
   39.9580   30.2950   39.5840 H   0  0  0  0  0  0  0  0  0  0  0  0
   39.6480   32.3560   39.8630 C   0  0  0  0  0  0  0  0  0  0  0  0
   40.8450   32.8710   40.1830 N   0  0  0  0  0  0  0  0  0  0  0  0
   41.7530   32.3280   40.2710 H   0  0  0  0  0  0  0  0  0  0  0  0
   40.6720   34.1960   40.3670 C   0  0  0  0  0  0  0  0  0  0  0  0
   41.5040   34.8470   40.6370 H   0  0  0  0  0  0  0  0  0  0  0  0
   39.3400   34.5310   40.1600 C   0  0  0  0  0  3  0  0  0  0  0  0
   38.6870   33.3630   39.8390 C   0  0  0  0  0  0  0  0  0  0  0  0
   37.3810   33.0750   39.5350 C   0  0  0  0  0  3  0  0  0  0  0  0
   37.0860   26.0440   40.1510 C   0  0  0  0  0  0  0  0  0  0  0  0
   38.0410   25.4720   39.9750 H   0  0  0  0  0  0  0  0  0  0  0  0
   36.2830   25.3200   39.8670 H   0  0  0  0  0  0  0  0  0  0  0  0
   36.9750   26.3530   41.5970 C   0  0  0  0  0  0  0  0  0  0  0  0
   36.1880   25.6540   42.0120 H   0  0  0  0  0  0  0  0  0  0  0  0
   36.6070   27.3490   41.8160 H   0  0  0  0  0  0  0  0  0  0  0  0
   38.1970   26.0270   42.3640 C   0  0  0  0  0  0  0  0  0  0  0  0
   38.7770   27.0660   43.1110 C   0  0  0  0  0  0  0  0  0  0  0  0
   39.9190   26.8220   43.8460 C   0  0  0  0  0  0  0  0  0  0  0  0
   40.4460   25.5620   43.8170 N   0  0  0  0  0  0  0  0  0  0  0  0
   39.8680   24.5890   43.0920 C   0  0  0  0  0  0  0  0  0  0  0  0
   38.7670   24.8290   42.3850 N   0  0  0  0  0  0  0  0  0  0  0  0
   40.3960   27.5740   44.4270 H   0  0  0  0  0  0  0  0  0  0  0  0
   40.2320   23.5700   43.0240 H   0  0  0  0  0  0  0  0  0  0  0  0
   38.0310   28.7080   43.1080 S   0  0  0  0  0  0  0  0  0  0  0  0
   39.0960   29.6380   42.9170 H   0  0  0  0  0  0  0  0  0  0  0  0
  1  5  1  0  0  0  0
  1 19  1  0  0  0  0
  2  1  2  0  0  0  0
  3  2  1  0  0  0  0
  3  4  1  0  0  0  0
  4  8  1  0  0  0  0
  4  5  2  0  0  0  0
  6  2  1  0  0  0  0
  7  8  2  0  0  0  0
  7 18  1  0  0  0  0
  8  9  1  0  0  0  0
  9 10  1  0  0  0  0
  9 11  2  0  0  0  0
 11 12  1  0  0  0  0
 12 13  1  0  0  0  0
 12 14  1  0  0  0  0
 14 15  1  0  0  0  0
 16 14  2  0  0  0  0
 17 11  1  0  0  0  0
 17 16  1  0  0  0  0
 18 17  2  0  0  0  0
 19 22  1  0  0  0  0
 20 19  1  0  0  0  0
 21 19  1  0  0  0  0
 22 24  1  0  0  0  0
 22 23  1  0  0  0  0
 22 25  1  0  0  0  0
 25 30  2  0  0  0  0
 25 26  1  0  0  0  0
 26 27  2  0  0  0  0
 27 31  1  0  0  0  0
 28 27  1  0  0  0  0
 29 28  2  0  0  0  0
 30 29  1  0  0  0  0
 32 29  1  0  0  0  0
 33 26  1  0  0  0  0
 34 33  1  0  0  0  0
M  END
>  <minimizedAffinity>
-5.43552923

$$$$
