
 OpenBabel03252506083D

 33 36  0  0  0  0  0  0  0  0999 V2000
   45.1230   33.3120   41.0070 F   0  0  0  0  0  0  0  0  0  0  0  0
   46.2890   33.9240   40.8300 C   0  0  0  0  0  0  0  0  0  0  0  0
   46.8040   34.7130   41.8230 C   0  0  0  0  0  0  0  0  0  0  0  0
   48.0130   35.3770   41.7050 C   0  0  0  0  0  0  0  0  0  0  0  0
   48.7630   35.2650   40.5470 C   0  0  0  0  0  0  0  0  0  0  0  0
   48.2000   34.4500   39.5630 C   0  0  0  0  0  0  0  0  0  0  0  0
   46.9920   33.7740   39.6560 C   0  0  0  0  0  0  0  0  0  0  0  0
   48.4370   36.0060   42.4790 H   0  0  0  0  0  0  0  0  0  0  0  0
   49.6980   35.7470   40.3920 H   0  0  0  0  0  0  0  0  0  0  0  0
   48.7580   34.3330   38.6330 H   0  0  0  0  0  0  0  0  0  0  0  0
   46.4520   31.5680   38.6950 C   0  0  0  0  0  0  0  0  0  0  0  0
   46.5230   32.9590   38.5530 C   0  0  0  0  0  0  0  0  0  0  0  0
   46.1390   33.5250   37.3530 C   0  0  0  0  0  0  0  0  0  0  0  0
   46.1800   34.6120   37.2000 H   0  0  0  0  0  0  0  0  0  0  0  0
   45.6900   32.7660   36.2900 C   0  0  0  0  0  0  0  0  0  0  0  0
   45.2580   32.9950   35.0350 N   0  0  0  0  0  0  0  0  0  0  0  0
   45.2240   33.9770   34.7040 H   0  0  0  0  0  0  0  0  0  0  0  0
   44.9390   31.8250   34.4400 C   0  0  0  0  0  0  0  0  0  0  0  0
   44.5780   31.8780   33.4250 H   0  0  0  0  0  0  0  0  0  0  0  0
   45.1660   30.7640   35.3230 C   0  0  0  0  0  0  0  0  0  0  0  0
   45.6320   31.3910   36.4650 C   0  0  0  0  0  0  0  0  0  0  0  0
   46.0050   30.7660   37.6520 C   0  0  0  0  0  0  0  0  0  0  0  0
   45.4420   34.1020   45.1920 C   0  0  0  0  0  0  0  0  0  0  0  0
   44.6600   35.2570   45.4010 C   0  0  0  0  0  0  0  0  0  0  0  0
   44.6040   36.2340   44.3910 C   0  0  0  0  0  0  0  0  0  0  0  0
   45.3250   35.9910   43.2550 N   0  0  0  0  0  0  0  0  0  0  0  0
   46.0630   34.8800   43.0830 C   0  0  0  0  0  0  0  0  0  0  0  0
   46.1140   33.9590   44.0390 N   0  0  0  0  0  0  0  0  0  0  0  0
   44.0950   35.4300   46.3100 H   0  0  0  0  0  0  0  0  0  0  0  0
   44.0180   37.1410   44.5020 H   0  0  0  0  0  0  0  0  0  0  0  0
   45.4980   33.1200   46.2060 N   0  0  0  0  0  0  0  0  0  0  0  0
   44.5710   32.7150   46.5050 H   0  0  0  0  0  0  0  0  0  0  0  0
   46.3280   32.7330   46.7050 H   0  0  0  0  0  0  0  0  0  0  0  0
  2  1  1  0  0  0  0
  2  3  1  0  0  0  0
  3 27  1  0  0  0  0
  4  3  2  0  0  0  0
  4  8  1  0  0  0  0
  5  4  1  0  0  0  0
  6  7  1  0  0  0  0
  6  5  2  0  0  0  0
  7  2  2  0  0  0  0
  9  5  1  0  0  0  0
 10  6  1  0  0  0  0
 12 11  1  0  0  0  0
 12  7  1  0  0  0  0
 13 12  2  0  0  0  0
 14 13  1  0  0  0  0
 15 21  2  0  0  0  0
 15 13  1  0  0  0  0
 16 15  1  0  0  0  0
 17 16  1  0  0  0  0
 18 16  1  0  0  0  0
 18 20  2  0  0  0  0
 19 18  1  0  0  0  0
 20 21  1  0  0  0  0
 21 22  1  0  0  0  0
 22 11  2  0  0  0  0
 23 24  1  0  0  0  0
 23 31  1  0  0  0  0
 24 29  1  0  0  0  0
 25 30  1  0  0  0  0
 25 24  2  0  0  0  0
 26 25  1  0  0  0  0
 27 26  2  0  0  0  0
 27 28  1  0  0  0  0
 28 23  2  0  0  0  0
 31 32  1  0  0  0  0
 31 33  1  0  0  0  0
M  END
>  <minimizedAffinity>
-6.93483353

>  <minimizedRMSD>
0.23226507

$$$$
