
 OpenBabel03252504503D

 27 29  0  0  0  0  0  0  0  0999 V2000
   37.1730   27.1220   42.8420 C   0  0  0  0  0  0  0  0  0  0  0  0
   37.0500   26.1550   41.8400 C   0  0  0  0  0  0  0  0  0  0  0  0
   37.1690   26.6110   40.5170 C   0  0  0  0  0  0  0  0  0  0  0  0
   37.3920   27.9430   40.3210 N   0  0  0  0  0  0  0  0  0  0  0  0
   37.5020   28.8250   41.3170 C   0  0  0  0  0  0  0  0  0  0  0  0
   37.3900   28.4080   42.5840 N   0  0  0  0  0  0  0  0  0  0  0  0
   37.0790   26.7590   43.8770 H   0  0  0  0  0  0  0  0  0  0  0  0
   37.0770   25.8820   39.7340 H   0  0  0  0  0  0  0  0  0  0  0  0
   36.7200   30.8920   40.3040 C   0  0  0  0  0  3  0  0  0  0  0  0
   37.7410   30.2200   40.9620 C   0  0  0  0  0  0  0  0  0  0  0  0
   38.9570   30.7770   41.3010 C   0  0  0  0  0  0  0  0  0  0  0  0
   39.7240   30.2150   41.8130 H   0  0  0  0  0  0  0  0  0  0  0  0
   39.1590   32.1110   40.9500 C   0  0  0  0  0  0  0  0  0  0  0  0
   40.2050   32.9530   41.1210 N   0  0  0  0  0  0  0  0  0  0  0  0
   41.1010   32.6720   41.5960 H   0  0  0  0  0  0  0  0  0  0  0  0
   39.9040   34.1610   40.5970 C   0  0  0  0  0  0  0  0  0  0  0  0
   40.5270   35.0480   40.5730 H   0  0  0  0  0  0  0  0  0  0  0  0
   38.6440   34.1030   40.0770 C   0  0  0  0  0  3  0  0  0  0  0  0
   38.1650   32.8390   40.2860 C   0  0  0  0  0  0  0  0  0  0  0  0
   36.9530   32.2170   39.9700 C   0  0  0  0  0  3  0  0  0  0  0  0
   36.8140   24.7700   42.1810 C   0  0  0  0  0  0  0  0  0  0  0  0
   37.6390   24.2750   42.7340 H   0  0  0  0  0  0  0  0  0  0  0  0
   35.9170   24.6850   42.8030 H   0  0  0  0  0  0  0  0  0  0  0  0
   36.5660   23.9880   40.8970 C   0  0  0  0  0  0  0  0  0  0  0  0
   35.7990   23.1950   41.0850 H   0  0  0  0  0  0  0  0  0  0  0  0
   37.5190   23.5950   40.5060 H   0  0  0  0  0  0  0  0  0  0  0  0
   36.1040   24.7000   40.1560 H   0  0  0  0  0  0  0  0  0  0  0  0
  1  7  1  0  0  0  0
  2 21  1  0  0  0  0
  2  1  2  0  0  0  0
  3  2  1  0  0  0  0
  4  3  2  0  0  0  0
  4  5  1  0  0  0  0
  5  6  2  0  0  0  0
  6  1  1  0  0  0  0
  8  3  1  0  0  0  0
  9 10  1  0  0  0  0
 10 11  2  0  0  0  0
 10  5  1  0  0  0  0
 11 12  1  0  0  0  0
 13 14  1  0  0  0  0
 13 11  1  0  0  0  0
 14 15  1  0  0  0  0
 16 14  1  0  0  0  0
 17 16  1  0  0  0  0
 18 19  1  0  0  0  0
 18 16  2  0  0  0  0
 19 13  2  0  0  0  0
 20 19  1  0  0  0  0
 20  9  2  0  0  0  0
 21 22  1  0  0  0  0
 21 23  1  0  0  0  0
 24 25  1  0  0  0  0
 24 21  1  0  0  0  0
 26 24  1  0  0  0  0
 27 24  1  0  0  0  0
M  END
>  <minimizedAffinity>
-5.20821953

$$$$

 OpenBabel03252504503D

 27 29  0  0  0  0  0  0  0  0999 V2000
   38.0600   26.2270   40.8640 C   0  0  0  0  0  0  0  0  0  0  0  0
   37.3040   25.8250   41.9690 C   0  0  0  0  0  0  0  0  0  0  0  0
   36.8820   26.8440   42.8390 C   0  0  0  0  0  0  0  0  0  0  0  0
   37.2390   28.1260   42.5380 N   0  0  0  0  0  0  0  0  0  0  0  0
   37.9640   28.4540   41.4660 C   0  0  0  0  0  0  0  0  0  0  0  0
   38.3750   27.4960   40.6270 N   0  0  0  0  0  0  0  0  0  0  0  0
   38.3880   25.4240   40.1860 H   0  0  0  0  0  0  0  0  0  0  0  0
   36.3000   26.5530   43.6930 H   0  0  0  0  0  0  0  0  0  0  0  0
   39.5120   30.3140   41.7040 C   0  0  0  0  0  3  0  0  0  0  0  0
   38.2740   29.8670   41.2660 C   0  0  0  0  0  0  0  0  0  0  0  0
   37.3210   30.6600   40.6590 C   0  0  0  0  0  0  0  0  0  0  0  0
   36.3690   30.2690   40.3340 H   0  0  0  0  0  0  0  0  0  0  0  0
   37.6430   32.0060   40.4810 C   0  0  0  0  0  0  0  0  0  0  0  0
   36.9650   33.0430   39.9360 N   0  0  0  0  0  0  0  0  0  0  0  0
   35.9970   32.9530   39.5340 H   0  0  0  0  0  0  0  0  0  0  0  0
   37.7200   34.1610   40.0020 C   0  0  0  0  0  0  0  0  0  0  0  0
   37.4650   35.1550   39.6540 H   0  0  0  0  0  0  0  0  0  0  0  0
   38.9060   33.8450   40.5970 C   0  0  0  0  0  3  0  0  0  0  0  0
   38.8780   32.5120   40.9020 C   0  0  0  0  0  0  0  0  0  0  0  0
   39.8010   31.6560   41.5110 C   0  0  0  0  0  3  0  0  0  0  0  0
   36.9910   24.4280   42.1760 C   0  0  0  0  0  0  0  0  0  0  0  0
   37.4910   23.9600   43.0500 H   0  0  0  0  0  0  0  0  0  0  0  0
   35.9140   24.3030   42.3200 H   0  0  0  0  0  0  0  0  0  0  0  0
   37.3890   23.6500   40.9280 C   0  0  0  0  0  0  0  0  0  0  0  0
   36.6520   22.8260   40.7510 H   0  0  0  0  0  0  0  0  0  0  0  0
   38.4300   23.2980   41.0190 H   0  0  0  0  0  0  0  0  0  0  0  0
   37.2900   24.3510   40.0510 H   0  0  0  0  0  0  0  0  0  0  0  0
  1  2  1  0  0  0  0
  2 21  1  0  0  0  0
  2  3  2  0  0  0  0
  3  8  1  0  0  0  0
  4  3  1  0  0  0  0
  5  4  2  0  0  0  0
  6  1  2  0  0  0  0
  6  5  1  0  0  0  0
  7  1  1  0  0  0  0
 10  5  1  0  0  0  0
 10  9  2  0  0  0  0
 11 10  1  0  0  0  0
 12 11  1  0  0  0  0
 13 11  2  0  0  0  0
 13 19  1  0  0  0  0
 14 16  1  0  0  0  0
 14 13  1  0  0  0  0
 15 14  1  0  0  0  0
 16 18  2  0  0  0  0
 17 16  1  0  0  0  0
 18 19  1  0  0  0  0
 19 20  2  0  0  0  0
 20  9  1  0  0  0  0
 21 23  1  0  0  0  0
 21 22  1  0  0  0  0
 24 26  1  0  0  0  0
 24 21  1  0  0  0  0
 25 24  1  0  0  0  0
 27 24  1  0  0  0  0
M  END
>  <minimizedAffinity>
-5.0962081

$$$$

 OpenBabel03252504503D

 27 29  0  0  0  0  0  0  0  0999 V2000
   38.0610   31.6840   41.0510 C   0  0  0  0  0  0  0  0  0  0  0  0
   37.3350   32.1330   39.9450 C   0  0  0  0  0  0  0  0  0  0  0  0
   36.5770   31.1660   39.2630 C   0  0  0  0  0  0  0  0  0  0  0  0
   36.6110   29.8860   39.7320 N   0  0  0  0  0  0  0  0  0  0  0  0
   37.3240   29.5110   40.7970 C   0  0  0  0  0  0  0  0  0  0  0  0
   38.0530   30.4180   41.4570 N   0  0  0  0  0  0  0  0  0  0  0  0
   38.6540   32.4460   41.5810 H   0  0  0  0  0  0  0  0  0  0  0  0
   36.0120   31.4940   38.4110 H   0  0  0  0  0  0  0  0  0  0  0  0
   36.9000   27.8240   42.4960 C   0  0  0  0  0  3  0  0  0  0  0  0
   37.2680   28.1060   41.1870 C   0  0  0  0  0  0  0  0  0  0  0  0
   37.5850   27.1550   40.2380 C   0  0  0  0  0  0  0  0  0  0  0  0
   37.8680   27.4210   39.2300 H   0  0  0  0  0  0  0  0  0  0  0  0
   37.5250   25.8200   40.6380 C   0  0  0  0  0  0  0  0  0  0  0  0
   37.7640   24.6590   39.9850 N   0  0  0  0  0  0  0  0  0  0  0  0
   38.0600   24.6140   38.9770 H   0  0  0  0  0  0  0  0  0  0  0  0
   37.5630   23.6190   40.8240 C   0  0  0  0  0  0  0  0  0  0  0  0
   37.6700   22.5630   40.6080 H   0  0  0  0  0  0  0  0  0  0  0  0
   37.1870   24.1130   42.0390 C   0  0  0  0  0  3  0  0  0  0  0  0
   37.1580   25.4770   41.9440 C   0  0  0  0  0  0  0  0  0  0  0  0
   36.8490   26.4880   42.8600 C   0  0  0  0  0  3  0  0  0  0  0  0
   37.3830   33.5240   39.5490 C   0  0  0  0  0  0  0  0  0  0  0  0
   37.4090   33.6990   38.4530 H   0  0  0  0  0  0  0  0  0  0  0  0
   36.5080   34.0540   39.9370 H   0  0  0  0  0  0  0  0  0  0  0  0
   38.6230   34.1610   40.1620 C   0  0  0  0  0  0  0  0  0  0  0  0
   38.3950   35.2180   40.4520 H   0  0  0  0  0  0  0  0  0  0  0  0
   39.4770   34.0680   39.4700 H   0  0  0  0  0  0  0  0  0  0  0  0
   38.8400   33.6140   41.1240 H   0  0  0  0  0  0  0  0  0  0  0  0
  1  6  1  0  0  0  0
  1  7  1  0  0  0  0
  2  1  2  0  0  0  0
  3  4  2  0  0  0  0
  3  2  1  0  0  0  0
  4  5  1  0  0  0  0
  5 10  1  0  0  0  0
  5  6  2  0  0  0  0
  8  3  1  0  0  0  0
  9 20  1  0  0  0  0
 10  9  2  0  0  0  0
 11 13  2  0  0  0  0
 11 10  1  0  0  0  0
 12 11  1  0  0  0  0
 13 19  1  0  0  0  0
 14 13  1  0  0  0  0
 14 16  1  0  0  0  0
 15 14  1  0  0  0  0
 16 18  2  0  0  0  0
 17 16  1  0  0  0  0
 19 18  1  0  0  0  0
 19 20  2  0  0  0  0
 21 23  1  0  0  0  0
 21  2  1  0  0  0  0
 21 24  1  0  0  0  0
 22 21  1  0  0  0  0
 24 25  1  0  0  0  0
 24 27  1  0  0  0  0
 26 24  1  0  0  0  0
M  END
>  <minimizedAffinity>
-4.89361763

$$$$

 OpenBabel03252504503D

 27 29  0  0  0  0  0  0  0  0999 V2000
   36.4950   27.8550   35.5650 C   0  0  0  0  0  0  0  0  0  0  0  0
   36.5820   29.1940   35.1710 C   0  0  0  0  0  0  0  0  0  0  0  0
   36.7560   30.1350   36.2000 C   0  0  0  0  0  0  0  0  0  0  0  0
   36.8270   29.6710   37.4810 N   0  0  0  0  0  0  0  0  0  0  0  0
   36.7380   28.3780   37.8000 C   0  0  0  0  0  0  0  0  0  0  0  0
   36.5710   27.4680   36.8340 N   0  0  0  0  0  0  0  0  0  0  0  0
   36.3580   27.1220   34.7550 H   0  0  0  0  0  0  0  0  0  0  0  0
   36.8250   31.1680   35.9160 H   0  0  0  0  0  0  0  0  0  0  0  0
   36.8130   26.6710   39.5310 C   0  0  0  0  0  3  0  0  0  0  0  0
   36.8300   28.0220   39.2130 C   0  0  0  0  0  0  0  0  0  0  0  0
   36.9250   29.0450   40.1350 C   0  0  0  0  0  0  0  0  0  0  0  0
   36.9340   30.0850   39.8420 H   0  0  0  0  0  0  0  0  0  0  0  0
   37.0110   28.6780   41.4780 C   0  0  0  0  0  0  0  0  0  0  0  0
   37.1140   29.4000   42.6180 N   0  0  0  0  0  0  0  0  0  0  0  0
   37.1450   30.4510   42.6350 H   0  0  0  0  0  0  0  0  0  0  0  0
   37.1660   28.5640   43.6780 C   0  0  0  0  0  0  0  0  0  0  0  0
   37.2480   28.8280   44.7270 H   0  0  0  0  0  0  0  0  0  0  0  0
   37.0960   27.2820   43.2200 C   0  0  0  0  0  3  0  0  0  0  0  0
   36.9990   27.3310   41.8570 C   0  0  0  0  0  0  0  0  0  0  0  0
   36.9000   26.3400   40.8740 C   0  0  0  0  0  3  0  0  0  0  0  0
   36.4920   29.5570   33.7740 C   0  0  0  0  0  0  0  0  0  0  0  0
   37.4120   29.3720   33.1810 H   0  0  0  0  0  0  0  0  0  0  0  0
   35.6850   28.9960   33.2930 H   0  0  0  0  0  0  0  0  0  0  0  0
   36.1540   31.0390   33.6770 C   0  0  0  0  0  0  0  0  0  0  0  0
   35.4750   31.2100   32.8030 H   0  0  0  0  0  0  0  0  0  0  0  0
   37.0800   31.6360   33.6400 H   0  0  0  0  0  0  0  0  0  0  0  0
   35.5540   31.3060   34.5940 H   0  0  0  0  0  0  0  0  0  0  0  0
  1  6  1  0  0  0  0
  2  1  2  0  0  0  0
  2  3  1  0  0  0  0
  3  4  2  0  0  0  0
  4  5  1  0  0  0  0
  5 10  1  0  0  0  0
  6  5  2  0  0  0  0
  7  1  1  0  0  0  0
  8  3  1  0  0  0  0
  9 20  1  0  0  0  0
 10  9  2  0  0  0  0
 10 11  1  0  0  0  0
 11 13  2  0  0  0  0
 12 11  1  0  0  0  0
 13 19  1  0  0  0  0
 13 14  1  0  0  0  0
 14 15  1  0  0  0  0
 14 16  1  0  0  0  0
 16 17  1  0  0  0  0
 18 16  2  0  0  0  0
 19 18  1  0  0  0  0
 20 19  2  0  0  0  0
 21  2  1  0  0  0  0
 22 21  1  0  0  0  0
 23 21  1  0  0  0  0
 24 21  1  0  0  0  0
 24 27  1  0  0  0  0
 25 24  1  0  0  0  0
 26 24  1  0  0  0  0
M  END
>  <minimizedAffinity>
-4.61862326

$$$$

 OpenBabel03252504503D

 27 29  0  0  0  0  0  0  0  0999 V2000
   38.6430   27.4500   41.2270 C   0  0  0  0  0  0  0  0  0  0  0  0
   37.8470   27.6570   42.3570 C   0  0  0  0  0  0  0  0  0  0  0  0
   36.5550   28.1580   42.1250 C   0  0  0  0  0  0  0  0  0  0  0  0
   36.1890   28.3980   40.8330 N   0  0  0  0  0  0  0  0  0  0  0  0
   36.9920   28.1820   39.7890 C   0  0  0  0  0  0  0  0  0  0  0  0
   38.2260   27.7060   39.9920 N   0  0  0  0  0  0  0  0  0  0  0  0
   39.6550   27.0580   41.4150 H   0  0  0  0  0  0  0  0  0  0  0  0
   35.9290   28.3220   42.9820 H   0  0  0  0  0  0  0  0  0  0  0  0
   35.1130   28.7560   38.3570 C   0  0  0  0  0  3  0  0  0  0  0  0
   36.4700   28.4840   38.4600 C   0  0  0  0  0  0  0  0  0  0  0  0
   37.3530   28.4770   37.3990 C   0  0  0  0  0  0  0  0  0  0  0  0
   38.4030   28.2580   37.5260 H   0  0  0  0  0  0  0  0  0  0  0  0
   36.8280   28.7680   36.1400 C   0  0  0  0  0  0  0  0  0  0  0  0
   37.3900   28.8480   34.9110 N   0  0  0  0  0  0  0  0  0  0  0  0
   38.4130   28.6800   34.7330 H   0  0  0  0  0  0  0  0  0  0  0  0
   36.4440   29.1670   34.0010 C   0  0  0  0  0  0  0  0  0  0  0  0
   36.5710   29.3040   32.9340 H   0  0  0  0  0  0  0  0  0  0  0  0
   35.2500   29.2950   34.6480 C   0  0  0  0  0  3  0  0  0  0  0  0
   35.4670   29.0520   35.9770 C   0  0  0  0  0  0  0  0  0  0  0  0
   34.6240   29.0420   37.0920 C   0  0  0  0  0  3  0  0  0  0  0  0
   38.3550   27.3610   43.6790 C   0  0  0  0  0  0  0  0  0  0  0  0
   38.5430   28.2480   44.3190 H   0  0  0  0  0  0  0  0  0  0  0  0
   37.6480   26.7230   44.2180 H   0  0  0  0  0  0  0  0  0  0  0  0
   39.6630   26.5920   43.5360 C   0  0  0  0  0  0  0  0  0  0  0  0
   39.7390   25.8310   44.3540 H   0  0  0  0  0  0  0  0  0  0  0  0
   40.5120   27.2940   43.5070 H   0  0  0  0  0  0  0  0  0  0  0  0
   39.6050   26.0100   42.5730 H   0  0  0  0  0  0  0  0  0  0  0  0
  1  7  1  0  0  0  0
  1  2  1  0  0  0  0
  2 21  1  0  0  0  0
  3  2  2  0  0  0  0
  3  8  1  0  0  0  0
  4  3  1  0  0  0  0
  5  6  1  0  0  0  0
  5  4  2  0  0  0  0
  6  1  2  0  0  0  0
  9 10  1  0  0  0  0
 10  5  1  0  0  0  0
 11 12  1  0  0  0  0
 11 10  2  0  0  0  0
 13 11  1  0  0  0  0
 14 13  1  0  0  0  0
 15 14  1  0  0  0  0
 16 18  2  0  0  0  0
 16 14  1  0  0  0  0
 17 16  1  0  0  0  0
 18 19  1  0  0  0  0
 19 13  2  0  0  0  0
 19 20  1  0  0  0  0
 20  9  2  0  0  0  0
 21 23  1  0  0  0  0
 21 22  1  0  0  0  0
 24 21  1  0  0  0  0
 24 25  1  0  0  0  0
 26 24  1  0  0  0  0
 27 24  1  0  0  0  0
M  END
>  <minimizedAffinity>
-4.6145072

$$$$

 OpenBabel03252504503D

 27 29  0  0  0  0  0  0  0  0999 V2000
   38.9590   27.8680   43.1600 C   0  0  0  0  0  0  0  0  0  0  0  0
   37.6090   27.9840   42.8170 C   0  0  0  0  0  0  0  0  0  0  0  0
   37.2360   29.1580   42.1420 C   0  0  0  0  0  0  0  0  0  0  0  0
   38.2100   30.0770   41.8800 N   0  0  0  0  0  0  0  0  0  0  0  0
   39.4870   29.9150   42.2310 C   0  0  0  0  0  0  0  0  0  0  0  0
   39.8600   28.8030   42.8760 N   0  0  0  0  0  0  0  0  0  0  0  0
   39.2450   26.9460   43.6890 H   0  0  0  0  0  0  0  0  0  0  0  0
   36.2030   29.2630   41.8700 H   0  0  0  0  0  0  0  0  0  0  0  0
   40.2230   31.6400   40.6830 C   0  0  0  0  0  3  0  0  0  0  0  0
   40.4240   30.9810   41.8880 C   0  0  0  0  0  0  0  0  0  0  0  0
   41.4430   31.2600   42.7760 C   0  0  0  0  0  0  0  0  0  0  0  0
   41.5620   30.7200   43.7030 H   0  0  0  0  0  0  0  0  0  0  0  0
   42.3240   32.2830   42.4230 C   0  0  0  0  0  0  0  0  0  0  0  0
   43.4080   32.8090   43.0400 N   0  0  0  0  0  0  0  0  0  0  0  0
   43.7620   32.4720   43.9710 H   0  0  0  0  0  0  0  0  0  0  0  0
   43.9260   33.7960   42.2780 C   0  0  0  0  0  0  0  0  0  0  0  0
   44.7930   34.4120   42.4910 H   0  0  0  0  0  0  0  0  0  0  0  0
   43.1680   33.9130   41.1510 C   0  0  0  0  0  3  0  0  0  0  0  0
   42.1690   32.9820   41.2210 C   0  0  0  0  0  0  0  0  0  0  0  0
   41.1150   32.6510   40.3630 C   0  0  0  0  0  3  0  0  0  0  0  0
   36.6730   26.9340   43.1530 C   0  0  0  0  0  0  0  0  0  0  0  0
   36.6520   26.6490   44.2260 H   0  0  0  0  0  0  0  0  0  0  0  0
   35.6570   27.2380   42.8830 H   0  0  0  0  0  0  0  0  0  0  0  0
   37.0200   25.6940   42.3390 C   0  0  0  0  0  0  0  0  0  0  0  0
   36.0780   25.1610   42.0510 H   0  0  0  0  0  0  0  0  0  0  0  0
   37.7300   25.0620   42.8980 H   0  0  0  0  0  0  0  0  0  0  0  0
   37.4860   26.0460   41.3750 H   0  0  0  0  0  0  0  0  0  0  0  0
  1  7  1  0  0  0  0
  2 21  1  0  0  0  0
  2  1  2  0  0  0  0
  3  2  1  0  0  0  0
  4  3  2  0  0  0  0
  4  5  1  0  0  0  0
  5  6  2  0  0  0  0
  6  1  1  0  0  0  0
  8  3  1  0  0  0  0
  9 10  1  0  0  0  0
 10  5  1  0  0  0  0
 10 11  2  0  0  0  0
 11 12  1  0  0  0  0
 13 11  1  0  0  0  0
 13 14  1  0  0  0  0
 14 15  1  0  0  0  0
 16 17  1  0  0  0  0
 16 14  1  0  0  0  0
 18 19  1  0  0  0  0
 18 16  2  0  0  0  0
 19 13  2  0  0  0  0
 20  9  2  0  0  0  0
 20 19  1  0  0  0  0
 21 22  1  0  0  0  0
 23 21  1  0  0  0  0
 24 26  1  0  0  0  0
 24 21  1  0  0  0  0
 25 24  1  0  0  0  0
 27 24  1  0  0  0  0
M  END
>  <minimizedAffinity>
-4.50563478

$$$$

 OpenBabel03252504503D

 27 29  0  0  0  0  0  0  0  0999 V2000
   37.2470   28.3890   41.1070 C   0  0  0  0  0  0  0  0  0  0  0  0
   37.3360   28.2400   42.4940 C   0  0  0  0  0  0  0  0  0  0  0  0
   38.1740   29.1450   43.1650 C   0  0  0  0  0  0  0  0  0  0  0  0
   38.8230   30.0840   42.4180 N   0  0  0  0  0  0  0  0  0  0  0  0
   38.7010   30.1830   41.0930 C   0  0  0  0  0  0  0  0  0  0  0  0
   37.9080   29.3270   40.4370 N   0  0  0  0  0  0  0  0  0  0  0  0
   36.5890   27.6760   40.5860 H   0  0  0  0  0  0  0  0  0  0  0  0
   38.2540   29.0450   44.2310 H   0  0  0  0  0  0  0  0  0  0  0  0
   39.5170   32.4730   41.0460 C   0  0  0  0  0  3  0  0  0  0  0  0
   39.4550   31.2360   40.4200 C   0  0  0  0  0  0  0  0  0  0  0  0
   40.0520   30.9360   39.2120 C   0  0  0  0  0  0  0  0  0  0  0  0
   39.9770   29.9580   38.7600 H   0  0  0  0  0  0  0  0  0  0  0  0
   40.7650   31.9610   38.5910 C   0  0  0  0  0  0  0  0  0  0  0  0
   41.4590   32.0180   37.4290 N   0  0  0  0  0  0  0  0  0  0  0  0
   41.5560   31.2010   36.7740 H   0  0  0  0  0  0  0  0  0  0  0  0
   41.9760   33.2560   37.2720 C   0  0  0  0  0  0  0  0  0  0  0  0
   42.5790   33.6220   36.4490 H   0  0  0  0  0  0  0  0  0  0  0  0
   41.6150   34.0130   38.3470 C   0  0  0  0  0  3  0  0  0  0  0  0
   40.8620   33.2280   39.1770 C   0  0  0  0  0  0  0  0  0  0  0  0
   40.2340   33.4690   40.4030 C   0  0  0  0  0  3  0  0  0  0  0  0
   36.5930   27.1990   43.1700 C   0  0  0  0  0  0  0  0  0  0  0  0
   36.7790   27.1230   44.2620 H   0  0  0  0  0  0  0  0  0  0  0  0
   35.5190   27.3600   43.0390 H   0  0  0  0  0  0  0  0  0  0  0  0
   36.9440   25.8590   42.5350 C   0  0  0  0  0  0  0  0  0  0  0  0
   36.0360   25.2050   42.5180 H   0  0  0  0  0  0  0  0  0  0  0  0
   37.8040   25.4080   43.0570 H   0  0  0  0  0  0  0  0  0  0  0  0
   37.2050   26.0590   41.4560 H   0  0  0  0  0  0  0  0  0  0  0  0
  1  2  1  0  0  0  0
  2  3  2  0  0  0  0
  2 21  1  0  0  0  0
  3  8  1  0  0  0  0
  4  3  1  0  0  0  0
  5  4  2  0  0  0  0
  6  5  1  0  0  0  0
  6  1  2  0  0  0  0
  7  1  1  0  0  0  0
 10  9  1  0  0  0  0
 10  5  1  0  0  0  0
 11 10  2  0  0  0  0
 12 11  1  0  0  0  0
 13 19  2  0  0  0  0
 13 11  1  0  0  0  0
 14 13  1  0  0  0  0
 15 14  1  0  0  0  0
 16 14  1  0  0  0  0
 16 18  2  0  0  0  0
 17 16  1  0  0  0  0
 18 19  1  0  0  0  0
 19 20  1  0  0  0  0
 20  9  2  0  0  0  0
 21 22  1  0  0  0  0
 23 21  1  0  0  0  0
 24 26  1  0  0  0  0
 24 21  1  0  0  0  0
 25 24  1  0  0  0  0
 27 24  1  0  0  0  0
M  END
>  <minimizedAffinity>
-4.47356319

$$$$

 OpenBabel03252504503D

 27 29  0  0  0  0  0  0  0  0999 V2000
   36.1770   28.0800   35.1230 C   0  0  0  0  0  0  0  0  0  0  0  0
   36.4870   29.3500   34.6300 C   0  0  0  0  0  0  0  0  0  0  0  0
   36.7720   30.3380   35.5880 C   0  0  0  0  0  0  0  0  0  0  0  0
   36.7230   29.9800   36.9040 N   0  0  0  0  0  0  0  0  0  0  0  0
   36.4210   28.7480   37.3200 C   0  0  0  0  0  0  0  0  0  0  0  0
   36.1460   27.7950   36.4210 N   0  0  0  0  0  0  0  0  0  0  0  0
   35.9540   27.3100   34.3680 H   0  0  0  0  0  0  0  0  0  0  0  0
   37.0120   31.3200   35.2270 H   0  0  0  0  0  0  0  0  0  0  0  0
   35.7460   29.4310   39.5540 C   0  0  0  0  0  3  0  0  0  0  0  0
   36.4060   28.5040   38.7590 C   0  0  0  0  0  0  0  0  0  0  0  0
   37.0450   27.3760   39.2330 C   0  0  0  0  0  0  0  0  0  0  0  0
   37.5480   26.6810   38.5760 H   0  0  0  0  0  0  0  0  0  0  0  0
   37.0150   27.1680   40.6120 C   0  0  0  0  0  0  0  0  0  0  0  0
   37.5250   26.1920   41.4000 N   0  0  0  0  0  0  0  0  0  0  0  0
   38.0710   25.3750   41.0260 H   0  0  0  0  0  0  0  0  0  0  0  0
   37.2200   26.4490   42.6900 C   0  0  0  0  0  0  0  0  0  0  0  0
   37.4820   25.8610   43.5630 H   0  0  0  0  0  0  0  0  0  0  0  0
   36.5020   27.6060   42.7410 C   0  0  0  0  0  3  0  0  0  0  0  0
   36.3640   28.0690   41.4610 C   0  0  0  0  0  0  0  0  0  0  0  0
   35.7350   29.1940   40.9190 C   0  0  0  0  0  3  0  0  0  0  0  0
   36.5050   29.6020   33.2060 C   0  0  0  0  0  0  0  0  0  0  0  0
   37.3930   29.2060   32.6700 H   0  0  0  0  0  0  0  0  0  0  0  0
   35.6230   29.1560   32.7360 H   0  0  0  0  0  0  0  0  0  0  0  0
   36.4440   31.1070   32.9770 C   0  0  0  0  0  0  0  0  0  0  0  0
   35.8330   31.3210   32.0630 H   0  0  0  0  0  0  0  0  0  0  0  0
   37.4640   31.5230   32.9330 H   0  0  0  0  0  0  0  0  0  0  0  0
   35.8770   31.5550   33.8420 H   0  0  0  0  0  0  0  0  0  0  0  0
  1  6  1  0  0  0  0
  2  1  2  0  0  0  0
  2  3  1  0  0  0  0
  3  4  2  0  0  0  0
  4  5  1  0  0  0  0
  5 10  1  0  0  0  0
  6  5  2  0  0  0  0
  7  1  1  0  0  0  0
  8  3  1  0  0  0  0
  9 20  1  0  0  0  0
 10 11  1  0  0  0  0
 10  9  2  0  0  0  0
 11 13  2  0  0  0  0
 12 11  1  0  0  0  0
 13 14  1  0  0  0  0
 13 19  1  0  0  0  0
 14 16  1  0  0  0  0
 15 14  1  0  0  0  0
 16 18  2  0  0  0  0
 16 17  1  0  0  0  0
 19 18  1  0  0  0  0
 20 19  2  0  0  0  0
 21  2  1  0  0  0  0
 22 21  1  0  0  0  0
 23 21  1  0  0  0  0
 24 21  1  0  0  0  0
 24 27  1  0  0  0  0
 25 24  1  0  0  0  0
 26 24  1  0  0  0  0
M  END
>  <minimizedAffinity>
-4.40671158

$$$$

 OpenBabel03252504503D

 27 29  0  0  0  0  0  0  0  0999 V2000
   36.8000   28.1590   42.2440 C   0  0  0  0  0  0  0  0  0  0  0  0
   38.1830   28.3360   42.1460 C   0  0  0  0  0  0  0  0  0  0  0  0
   38.6800   28.6630   40.8740 C   0  0  0  0  0  0  0  0  0  0  0  0
   37.7840   28.7790   39.8520 N   0  0  0  0  0  0  0  0  0  0  0  0
   36.4700   28.5990   40.0020 C   0  0  0  0  0  0  0  0  0  0  0  0
   35.9790   28.2860   41.2070 N   0  0  0  0  0  0  0  0  0  0  0  0
   36.4160   27.9030   43.2440 H   0  0  0  0  0  0  0  0  0  0  0  0
   39.7400   28.8030   40.7800 H   0  0  0  0  0  0  0  0  0  0  0  0
   36.2590   28.7760   37.5860 C   0  0  0  0  0  3  0  0  0  0  0  0
   35.6260   28.7540   38.8210 C   0  0  0  0  0  0  0  0  0  0  0  0
   34.2630   28.8700   39.0080 C   0  0  0  0  0  0  0  0  0  0  0  0
   33.8140   28.8490   39.9900 H   0  0  0  0  0  0  0  0  0  0  0  0
   33.4810   29.0180   37.8630 C   0  0  0  0  0  0  0  0  0  0  0  0
   32.1460   29.1560   37.6800 N   0  0  0  0  0  0  0  0  0  0  0  0
   31.4530   29.1700   38.4710 H   0  0  0  0  0  0  0  0  0  0  0  0
   31.8810   29.2660   36.3600 C   0  0  0  0  0  0  0  0  0  0  0  0
   30.9130   29.3880   35.8860 H   0  0  0  0  0  0  0  0  0  0  0  0
   33.0590   29.1990   35.6760 C   0  0  0  0  0  3  0  0  0  0  0  0
   34.0640   29.0460   36.5920 C   0  0  0  0  0  0  0  0  0  0  0  0
   35.4520   28.9240   36.4690 C   0  0  0  0  0  3  0  0  0  0  0  0
   39.0280   28.1840   43.3110 C   0  0  0  0  0  0  0  0  0  0  0  0
   39.9960   28.7250   43.2620 H   0  0  0  0  0  0  0  0  0  0  0  0
   38.5060   28.5450   44.2020 H   0  0  0  0  0  0  0  0  0  0  0  0
   39.3200   26.7020   43.5090 C   0  0  0  0  0  0  0  0  0  0  0  0
   39.3610   26.4740   44.6050 H   0  0  0  0  0  0  0  0  0  0  0  0
   40.2380   26.4230   42.9660 H   0  0  0  0  0  0  0  0  0  0  0  0
   38.4380   26.1300   43.1040 H   0  0  0  0  0  0  0  0  0  0  0  0
  1  7  1  0  0  0  0
  2  1  1  0  0  0  0
  2 21  1  0  0  0  0
  3  2  2  0  0  0  0
  4  5  2  0  0  0  0
  4  3  1  0  0  0  0
  5  6  1  0  0  0  0
  6  1  2  0  0  0  0
  8  3  1  0  0  0  0
  9 10  1  0  0  0  0
 10 11  2  0  0  0  0
 10  5  1  0  0  0  0
 11 12  1  0  0  0  0
 13 11  1  0  0  0  0
 14 13  1  0  0  0  0
 14 15  1  0  0  0  0
 16 14  1  0  0  0  0
 17 16  1  0  0  0  0
 18 16  2  0  0  0  0
 18 19  1  0  0  0  0
 19 13  2  0  0  0  0
 20 19  1  0  0  0  0
 20  9  2  0  0  0  0
 21 24  1  0  0  0  0
 21 23  1  0  0  0  0
 22 21  1  0  0  0  0
 24 25  1  0  0  0  0
 26 24  1  0  0  0  0
 27 24  1  0  0  0  0
M  END
>  <minimizedAffinity>
-4.38396502

$$$$
