
 OpenBabel03242513133D

 33 36  0  0  0  0  0  0  0  0999 V2000
   44.1990   31.8900   42.9350 Cl  0  0  0  0  0  0  0  0  0  0  0  0
   45.5680   32.9890   42.8890 C   0  0  0  0  0  0  0  0  0  0  0  0
   46.6740   32.7300   43.6520 C   0  0  0  0  0  0  0  0  0  0  0  0
   47.7230   33.6110   43.5750 C   0  0  0  0  0  0  0  0  0  0  0  0
   47.6730   34.7160   42.7670 C   0  0  0  0  0  0  0  0  0  0  0  0
   46.5260   34.9750   41.9850 C   0  0  0  0  0  0  0  0  0  0  0  0
   45.4550   34.0830   42.0550 C   0  0  0  0  0  0  0  0  0  0  0  0
   48.6650   33.5750   44.0730 H   0  0  0  0  0  0  0  0  0  0  0  0
   48.4290   35.4750   42.6260 H   0  0  0  0  0  0  0  0  0  0  0  0
   46.4370   35.8480   41.3210 H   0  0  0  0  0  0  0  0  0  0  0  0
   44.0100   33.8970   39.9700 C   0  0  0  0  0  0  0  0  0  0  0  0
   44.2720   34.3560   41.2450 C   0  0  0  0  0  0  0  0  0  0  0  0
   43.3200   35.1750   41.8630 C   0  0  0  0  0  0  0  0  0  0  0  0
   43.4390   35.5870   42.8730 H   0  0  0  0  0  0  0  0  0  0  0  0
   42.1410   35.5380   41.2470 C   0  0  0  0  0  0  0  0  0  0  0  0
   41.0680   36.2810   41.5640 N   0  0  0  0  0  0  0  0  0  0  0  0
   40.9280   36.7870   42.4670 H   0  0  0  0  0  0  0  0  0  0  0  0
   40.1940   36.2730   40.5220 C   0  0  0  0  0  0  0  0  0  0  0  0
   39.2320   36.7760   40.4600 H   0  0  0  0  0  0  0  0  0  0  0  0
   40.7110   35.5040   39.5000 C   0  0  0  0  0  0  0  0  0  0  0  0
   41.9200   35.0590   39.9780 C   0  0  0  0  0  0  0  0  0  0  0  0
   42.8380   34.2430   39.3270 C   0  0  0  0  0  0  0  0  0  0  0  0
   46.7020   31.5630   44.5100 C   0  0  0  0  0  0  0  0  0  0  0  0
   47.2840   30.5380   44.0420 O   0  0  0  0  0  0  0  0  0  0  0  0
   45.1890   30.3360   47.5670 C   0  0  0  0  0  0  0  0  0  0  0  0
   44.9730   31.4810   48.3460 C   0  0  0  0  0  0  0  0  0  0  0  0
   45.3700   32.6830   47.7670 C   0  0  0  0  0  0  0  0  0  0  0  0
   45.9260   32.6780   46.5230 N   0  0  0  0  0  0  0  0  0  0  0  0
   46.1080   31.5520   45.8230 C   0  0  0  0  0  0  0  0  0  0  0  0
   45.7360   30.3830   46.3540 N   0  0  0  0  0  0  0  0  0  0  0  0
   44.9100   29.3350   47.9320 H   0  0  0  0  0  0  0  0  0  0  0  0
   44.5250   31.3980   49.3270 H   0  0  0  0  0  0  0  0  0  0  0  0
   45.2070   33.5750   48.3630 H   0  0  0  0  0  0  0  0  0  0  0  0
  2  1  1  0  0  0  0
  2  3  1  0  0  0  0
  3 23  1  0  0  0  0
  4  3  2  0  0  0  0
  4  8  1  0  0  0  0
  5  4  1  0  0  0  0
  6  7  1  0  0  0  0
  6  5  2  0  0  0  0
  7  2  2  0  0  0  0
  9  5  1  0  0  0  0
 10  6  1  0  0  0  0
 11 12  1  0  0  0  0
 12 13  2  0  0  0  0
 12  7  1  0  0  0  0
 13 14  1  0  0  0  0
 15 16  1  0  0  0  0
 15 13  1  0  0  0  0
 16 17  1  0  0  0  0
 18 16  1  0  0  0  0
 19 18  1  0  0  0  0
 20 21  1  0  0  0  0
 20 18  2  0  0  0  0
 21 15  2  0  0  0  0
 22 11  2  0  0  0  0
 22 21  1  0  0  0  0
 23 29  1  0  0  0  0
 24 23  2  0  0  0  0
 25 31  1  0  0  0  0
 25 26  1  0  0  0  0
 26 32  1  0  0  0  0
 27 26  2  0  0  0  0
 27 33  1  0  0  0  0
 28 27  1  0  0  0  0
 29 30  1  0  0  0  0
 29 28  2  0  0  0  0
 30 25  2  0  0  0  0
M  END
>  <minimizedAffinity>
-6.52480221

>  <minimizedRMSD>
8.71070099

$$$$
