
 OpenBabel03252508593D

 48 51  0  0  1  0  0  0  0  0999 V2000
   46.9420   34.3160   43.3350 N   0  0  0  0  0  0  0  0  0  0  0  0
   46.4980   35.5120   42.7130 C   0  0  0  0  0  0  0  0  0  0  0  0
   45.0230   35.7980   42.8470 C   0  0  0  0  0  0  0  0  0  0  0  0
   44.4040   35.3080   44.1300 C   0  0  0  0  0  0  0  0  0  0  0  0
   45.4460   34.7400   45.0640 C   0  0  0  0  0  0  0  0  0  0  0  0
   46.1230   33.6130   44.2020 C   0  0  2  0  0  0  0  0  0  0  0  0
   47.0210   36.3500   43.2390 H   0  0  0  0  0  0  0  0  0  0  0  0
   46.7490   35.6220   41.6560 H   0  0  0  0  0  0  0  0  0  0  0  0
   44.8750   36.9180   42.8450 H   0  0  0  0  0  0  0  0  0  0  0  0
   44.4620   35.4380   41.9570 H   0  0  0  0  0  0  0  0  0  0  0  0
   43.7590   36.0260   44.6380 H   0  0  0  0  0  0  0  0  0  0  0  0
   43.7370   34.4510   43.8500 H   0  0  0  0  0  0  0  0  0  0  0  0
   46.2060   35.4630   45.3700 H   0  0  0  0  0  0  0  0  0  0  0  0
   44.9460   34.1950   45.8830 H   0  0  0  0  0  0  0  0  0  0  0  0
   45.2970   33.0030   43.7830 H   0  0  0  0  0  0  0  0  0  0  0  0
   47.9390   33.6020   42.5920 C   0  0  0  0  0  0  0  0  0  0  0  0
   48.6330   34.3310   42.1370 H   0  0  0  0  0  0  0  0  0  0  0  0
   48.5110   32.9680   43.3090 H   0  0  0  0  0  0  0  0  0  0  0  0
   47.2590   32.7000   41.6140 C   0  0  0  0  0  0  0  0  0  0  0  0
   47.3120   31.6310   41.8740 H   0  0  0  0  0  0  0  0  0  0  0  0
   46.1760   32.9670   41.5180 H   0  0  0  0  0  0  0  0  0  0  0  0
   49.2760   32.1680   38.4850 C   0  0  0  0  0  0  0  0  0  0  0  0
   48.7130   31.9790   39.7610 C   0  0  0  0  0  0  0  0  0  0  0  0
   47.8440   32.9170   40.2640 C   0  0  0  0  0  0  0  0  0  0  0  0
   47.5700   33.9850   39.5020 N   0  0  0  0  0  0  0  0  0  0  0  0
   48.1110   34.1640   38.2790 C   0  0  0  0  0  0  0  0  0  0  0  0
   48.9610   33.2680   37.7630 N   0  0  0  0  0  0  0  0  0  0  0  0
   49.9550   31.4410   38.0840 H   0  0  0  0  0  0  0  0  0  0  0  0
   48.9690   31.0960   40.3350 H   0  0  0  0  0  0  0  0  0  0  0  0
   47.8340   35.0570   37.7320 H   0  0  0  0  0  0  0  0  0  0  0  0
   46.8540   32.9260   45.1610 O   0  0  0  0  0  0  0  0  0  0  0  0
   45.3420   30.9140   44.3010 O   0  0  0  0  0  0  0  0  0  0  0  0
   46.2790   31.3700   45.4280 P   0  0  2  0  0  0  0  0  0  0  0  0
   45.2740   31.4660   46.8110 O   0  0  0  0  0  0  0  0  0  0  0  0
   44.6010   30.7650   46.7610 H   0  0  0  0  0  0  0  0  0  0  0  0
   47.4910   30.2780   45.7400 O   0  0  0  0  0  0  0  0  0  0  0  0
   47.4720   28.4710   47.2470 C   0  0  0  0  0  3  0  0  0  0  0  0
   47.3680   28.9310   45.9360 C   0  0  0  0  0  0  0  0  0  0  0  0
   47.1500   27.9670   44.9640 C   0  0  0  0  0  0  0  0  0  0  0  0
   47.0700   28.3250   43.9450 H   0  0  0  0  0  0  0  0  0  0  0  0
   47.0380   26.6330   45.2380 C   0  0  0  0  0  0  0  0  0  0  0  0
   46.8320   25.5580   44.4720 N   0  0  0  0  0  0  0  0  0  0  0  0
   46.7070   25.5280   43.4380 H   0  0  0  0  0  0  0  0  0  0  0  0
   46.8060   24.4740   45.2620 C   0  0  0  0  0  0  0  0  0  0  0  0
   46.6560   23.4580   44.9120 H   0  0  0  0  0  0  0  0  0  0  0  0
   46.9990   24.8160   46.5880 C   0  0  0  0  0  3  0  0  0  0  0  0
   47.1430   26.1930   46.5440 C   0  0  0  0  0  0  0  0  0  0  0  0
   47.3610   27.1370   47.5380 C   0  0  0  0  0  3  0  0  0  0  0  0
  1  6  1  0  0  0  0
  2  3  1  0  0  0  0
  2  7  1  0  0  0  0
  2  1  1  0  0  0  0
  3  4  1  0  0  0  0
  4 11  1  0  0  0  0
  4  5  1  0  0  0  0
  5 13  1  0  0  0  0
  5 14  1  0  0  0  0
  6 15  1  6  0  0  0
  6  5  1  0  0  0  0
  6 31  1  0  0  0  0
  8  2  1  0  0  0  0
  9  3  1  0  0  0  0
 10  3  1  0  0  0  0
 12  4  1  0  0  0  0
 16 18  1  0  0  0  0
 16  1  1  0  0  0  0
 17 16  1  0  0  0  0
 19 20  1  0  0  0  0
 19 16  1  0  0  0  0
 21 19  1  0  0  0  0
 22 23  1  0  0  0  0
 23 24  2  0  0  0  0
 23 29  1  0  0  0  0
 24 19  1  0  0  0  0
 25 24  1  0  0  0  0
 26 25  2  0  0  0  0
 27 26  1  0  0  0  0
 27 22  2  0  0  0  0
 28 22  1  0  0  0  0
 30 26  1  0  0  0  0
 31 33  1  0  0  0  0
 33 32  2  6  0  0  0
 33 36  1  0  0  0  0
 33 34  1  0  0  0  0
 35 34  1  0  0  0  0
 36 38  1  0  0  0  0
 37 48  1  0  0  0  0
 38 37  2  0  0  0  0
 39 41  2  0  0  0  0
 39 38  1  0  0  0  0
 40 39  1  0  0  0  0
 41 47  1  0  0  0  0
 42 41  1  0  0  0  0
 42 44  1  0  0  0  0
 43 42  1  0  0  0  0
 44 46  2  0  0  0  0
 45 44  1  0  0  0  0
 47 46  1  0  0  0  0
 47 48  2  0  0  0  0
M  END
>  <minimizedAffinity>
-4.04084253

>  <minimizedRMSD>
0.749988437

$$$$
