
 OpenBabel03252508593D

 48 51  0  0  1  0  0  0  0  0999 V2000
   46.9170   34.3940   43.3030 N   0  0  0  0  0  0  0  0  0  0  0  0
   46.4210   35.5260   42.6050 C   0  0  0  0  0  0  0  0  0  0  0  0
   44.9320   35.7470   42.7110 C   0  0  0  0  0  0  0  0  0  0  0  0
   44.3250   35.3050   44.0170 C   0  0  0  0  0  0  0  0  0  0  0  0
   45.3840   34.8480   44.9920 C   0  0  0  0  0  0  0  0  0  0  0  0
   46.1240   33.7050   44.2060 C   0  0  2  0  0  0  0  0  0  0  0  0
   46.8970   36.4190   43.0820 H   0  0  0  0  0  0  0  0  0  0  0  0
   46.6760   35.5830   41.5450 H   0  0  0  0  0  0  0  0  0  0  0  0
   44.7300   36.8560   42.6390 H   0  0  0  0  0  0  0  0  0  0  0  0
   44.3990   35.3050   41.8410 H   0  0  0  0  0  0  0  0  0  0  0  0
   43.6400   36.0210   44.4750 H   0  0  0  0  0  0  0  0  0  0  0  0
   43.7040   34.4020   43.7860 H   0  0  0  0  0  0  0  0  0  0  0  0
   46.1040   35.6250   45.2580 H   0  0  0  0  0  0  0  0  0  0  0  0
   44.9020   34.3300   45.8390 H   0  0  0  0  0  0  0  0  0  0  0  0
   45.3330   33.0310   43.8190 H   0  0  0  0  0  0  0  0  0  0  0  0
   47.9540   33.6860   42.6120 C   0  0  0  0  0  0  0  0  0  0  0  0
   48.6210   34.4190   42.1230 H   0  0  0  0  0  0  0  0  0  0  0  0
   48.5460   33.1200   43.3710 H   0  0  0  0  0  0  0  0  0  0  0  0
   47.3290   32.6990   41.6800 C   0  0  0  0  0  0  0  0  0  0  0  0
   47.4600   31.6480   41.9820 H   0  0  0  0  0  0  0  0  0  0  0  0
   46.2290   32.8860   41.5880 H   0  0  0  0  0  0  0  0  0  0  0  0
   49.2790   32.1340   38.5150 C   0  0  0  0  0  0  0  0  0  0  0  0
   48.7450   31.9600   39.8050 C   0  0  0  0  0  0  0  0  0  0  0  0
   47.8840   32.9010   40.3150 C   0  0  0  0  0  0  0  0  0  0  0  0
   47.5900   33.9580   39.5460 N   0  0  0  0  0  0  0  0  0  0  0  0
   48.1030   34.1230   38.3100 C   0  0  0  0  0  0  0  0  0  0  0  0
   48.9440   33.2230   37.7860 N   0  0  0  0  0  0  0  0  0  0  0  0
   49.9520   31.4040   38.1080 H   0  0  0  0  0  0  0  0  0  0  0  0
   49.0170   31.0850   40.3850 H   0  0  0  0  0  0  0  0  0  0  0  0
   47.8100   35.0080   37.7570 H   0  0  0  0  0  0  0  0  0  0  0  0
   46.8780   33.1150   45.2100 O   0  0  0  0  0  0  0  0  0  0  0  0
   45.4900   30.9430   44.5530 O   0  0  0  0  0  0  0  0  0  0  0  0
   46.2760   31.6210   45.6850 P   0  0  2  0  0  0  0  0  0  0  0  0
   45.1030   31.9420   46.8900 O   0  0  0  0  0  0  0  0  0  0  0  0
   44.4420   31.2280   46.8850 H   0  0  0  0  0  0  0  0  0  0  0  0
   47.4400   30.6350   46.3420 O   0  0  0  0  0  0  0  0  0  0  0  0
   48.3600   28.4790   46.5600 C   0  0  0  0  0  3  0  0  0  0  0  0
   47.2920   29.3470   46.7770 C   0  0  0  0  0  0  0  0  0  0  0  0
   46.1840   28.8080   47.4140 C   0  0  0  0  0  0  0  0  0  0  0  0
   45.3540   29.4830   47.5830 H   0  0  0  0  0  0  0  0  0  0  0  0
   46.1090   27.5070   47.8210 C   0  0  0  0  0  0  0  0  0  0  0  0
   45.1620   26.7960   48.4390 N   0  0  0  0  0  0  0  0  0  0  0  0
   44.2250   27.1250   48.7540 H   0  0  0  0  0  0  0  0  0  0  0  0
   45.6110   25.5430   48.6040 C   0  0  0  0  0  0  0  0  0  0  0  0
   45.0520   24.7430   49.0780 H   0  0  0  0  0  0  0  0  0  0  0  0
   46.8860   25.3970   48.0900 C   0  0  0  0  0  3  0  0  0  0  0  0
   47.1780   26.6590   47.5990 C   0  0  0  0  0  0  0  0  0  0  0  0
   48.3000   27.1720   46.9630 C   0  0  0  0  0  3  0  0  0  0  0  0
  1  6  1  0  0  0  0
  2  3  1  0  0  0  0
  2  7  1  0  0  0  0
  2  1  1  0  0  0  0
  3  4  1  0  0  0  0
  4 11  1  0  0  0  0
  4  5  1  0  0  0  0
  5 13  1  0  0  0  0
  5 14  1  0  0  0  0
  6 15  1  6  0  0  0
  6  5  1  0  0  0  0
  6 31  1  0  0  0  0
  8  2  1  0  0  0  0
  9  3  1  0  0  0  0
 10  3  1  0  0  0  0
 12  4  1  0  0  0  0
 16  1  1  0  0  0  0
 16 18  1  0  0  0  0
 17 16  1  0  0  0  0
 19 20  1  0  0  0  0
 19 16  1  0  0  0  0
 21 19  1  0  0  0  0
 22 23  1  0  0  0  0
 23 24  2  0  0  0  0
 23 29  1  0  0  0  0
 24 19  1  0  0  0  0
 25 24  1  0  0  0  0
 26 25  2  0  0  0  0
 27 26  1  0  0  0  0
 27 22  2  0  0  0  0
 28 22  1  0  0  0  0
 30 26  1  0  0  0  0
 31 33  1  0  0  0  0
 33 32  2  6  0  0  0
 33 36  1  0  0  0  0
 33 34  1  0  0  0  0
 35 34  1  0  0  0  0
 36 38  1  0  0  0  0
 37 38  2  0  0  0  0
 37 48  1  0  0  0  0
 38 39  1  0  0  0  0
 39 40  1  0  0  0  0
 39 41  2  0  0  0  0
 41 42  1  0  0  0  0
 42 44  1  0  0  0  0
 42 43  1  0  0  0  0
 44 45  1  0  0  0  0
 46 44  2  0  0  0  0
 47 41  1  0  0  0  0
 47 46  1  0  0  0  0
 48 47  2  0  0  0  0
M  END
>  <minimizedAffinity>
-4.60262108

>  <minimizedRMSD>
1.38178515

$$$$
