
 OpenBabel03252508593D

 48 51  0  0  1  0  0  0  0  0999 V2000
   46.6210   34.5420   43.6240 N   0  0  0  0  0  0  0  0  0  0  0  0
   46.1390   35.5320   42.7280 C   0  0  0  0  0  0  0  0  0  0  0  0
   44.6410   35.7140   42.7160 C   0  0  0  0  0  0  0  0  0  0  0  0
   43.9690   35.4620   44.0390 C   0  0  0  0  0  0  0  0  0  0  0  0
   44.9790   35.2010   45.1310 C   0  0  0  0  0  0  0  0  0  0  0  0
   45.7940   33.9760   44.5790 C   0  0  2  0  0  0  0  0  0  0  0  0
   46.5620   36.5050   43.0840 H   0  0  0  0  0  0  0  0  0  0  0  0
   46.4570   35.4320   41.6890 H   0  0  0  0  0  0  0  0  0  0  0  0
   44.4150   36.7910   42.4570 H   0  0  0  0  0  0  0  0  0  0  0  0
   44.1740   35.1230   41.8980 H   0  0  0  0  0  0  0  0  0  0  0  0
   43.2390   36.2160   44.3390 H   0  0  0  0  0  0  0  0  0  0  0  0
   43.3860   34.5120   43.9210 H   0  0  0  0  0  0  0  0  0  0  0  0
   45.6610   36.0340   45.3100 H   0  0  0  0  0  0  0  0  0  0  0  0
   44.4600   34.8050   46.0220 H   0  0  0  0  0  0  0  0  0  0  0  0
   45.0450   33.2210   44.2600 H   0  0  0  0  0  0  0  0  0  0  0  0
   47.7170   33.7710   43.1120 C   0  0  0  0  0  0  0  0  0  0  0  0
   48.4200   34.4500   42.5980 H   0  0  0  0  0  0  0  0  0  0  0  0
   48.2430   33.3070   43.9800 H   0  0  0  0  0  0  0  0  0  0  0  0
   47.1770   32.6730   42.2550 C   0  0  0  0  0  0  0  0  0  0  0  0
   47.3840   31.6600   42.6360 H   0  0  0  0  0  0  0  0  0  0  0  0
   46.0680   32.7680   42.1440 H   0  0  0  0  0  0  0  0  0  0  0  0
   49.3060   32.1220   39.2040 C   0  0  0  0  0  0  0  0  0  0  0  0
   48.7720   32.0030   40.5010 C   0  0  0  0  0  0  0  0  0  0  0  0
   47.7300   32.8130   40.8810 C   0  0  0  0  0  0  0  0  0  0  0  0
   47.2640   33.6920   39.9830 N   0  0  0  0  0  0  0  0  0  0  0  0
   47.7780   33.8040   38.7410 C   0  0  0  0  0  0  0  0  0  0  0  0
   48.7940   33.0290   38.3420 N   0  0  0  0  0  0  0  0  0  0  0  0
   50.1200   31.4930   38.8980 H   0  0  0  0  0  0  0  0  0  0  0  0
   49.1870   31.2740   41.1870 H   0  0  0  0  0  0  0  0  0  0  0  0
   47.3400   34.5430   38.0800 H   0  0  0  0  0  0  0  0  0  0  0  0
   46.5010   33.5770   45.7040 O   0  0  0  0  0  0  0  0  0  0  0  0
   45.5800   31.1840   44.9980 O   0  0  0  0  0  0  0  0  0  0  0  0
   46.1600   31.9970   46.1630 P   0  0  2  0  0  0  0  0  0  0  0  0
   44.8810   32.0980   47.2970 O   0  0  0  0  0  0  0  0  0  0  0  0
   44.3650   31.2730   47.2640 H   0  0  0  0  0  0  0  0  0  0  0  0
   47.4470   31.2460   46.8960 O   0  0  0  0  0  0  0  0  0  0  0  0
   46.7170   29.0590   47.3690 C   0  0  0  0  0  3  0  0  0  0  0  0
   47.7270   29.9080   46.9200 C   0  0  0  0  0  0  0  0  0  0  0  0
   48.9160   29.3010   46.5440 C   0  0  0  0  0  0  0  0  0  0  0  0
   49.7010   29.9620   46.1950 H   0  0  0  0  0  0  0  0  0  0  0  0
   49.1210   27.9520   46.5960 C   0  0  0  0  0  0  0  0  0  0  0  0
   50.1640   27.1750   46.2900 N   0  0  0  0  0  0  0  0  0  0  0  0
   51.0930   27.4720   45.9220 H   0  0  0  0  0  0  0  0  0  0  0  0
   49.8280   25.8990   46.5310 C   0  0  0  0  0  0  0  0  0  0  0  0
   50.4810   25.0470   46.3730 H   0  0  0  0  0  0  0  0  0  0  0  0
   48.5350   25.8050   47.0110 C   0  0  0  0  0  3  0  0  0  0  0  0
   48.1100   27.1230   47.0430 C   0  0  0  0  0  0  0  0  0  0  0  0
   46.9090   27.7030   47.4260 C   0  0  0  0  0  3  0  0  0  0  0  0
  1  6  1  0  0  0  0
  2  7  1  0  0  0  0
  2  1  1  0  0  0  0
  3  2  1  0  0  0  0
  3  4  1  0  0  0  0
  4 11  1  0  0  0  0
  4  5  1  0  0  0  0
  5 13  1  0  0  0  0
  5 14  1  0  0  0  0
  6 15  1  6  0  0  0
  6  5  1  0  0  0  0
  6 31  1  0  0  0  0
  8  2  1  0  0  0  0
  9  3  1  0  0  0  0
 10  3  1  0  0  0  0
 12  4  1  0  0  0  0
 16  1  1  0  0  0  0
 16 18  1  0  0  0  0
 17 16  1  0  0  0  0
 19 20  1  0  0  0  0
 19 16  1  0  0  0  0
 21 19  1  0  0  0  0
 22 23  1  0  0  0  0
 23 24  2  0  0  0  0
 23 29  1  0  0  0  0
 24 19  1  0  0  0  0
 25 24  1  0  0  0  0
 26 25  2  0  0  0  0
 27 26  1  0  0  0  0
 27 22  2  0  0  0  0
 28 22  1  0  0  0  0
 30 26  1  0  0  0  0
 31 33  1  0  0  0  0
 33 32  2  6  0  0  0
 33 36  1  0  0  0  0
 33 34  1  0  0  0  0
 35 34  1  0  0  0  0
 36 38  1  0  0  0  0
 37 48  1  0  0  0  0
 38 37  2  0  0  0  0
 39 41  2  0  0  0  0
 39 38  1  0  0  0  0
 40 39  1  0  0  0  0
 41 47  1  0  0  0  0
 42 44  1  0  0  0  0
 42 41  1  0  0  0  0
 43 42  1  0  0  0  0
 44 46  2  0  0  0  0
 45 44  1  0  0  0  0
 46 47  1  0  0  0  0
 47 48  2  0  0  0  0
M  END
>  <minimizedAffinity>
-4.39881706

>  <minimizedRMSD>
1.47109818

$$$$
