
 OpenBabel03252508313D

 35 38  0  0  1  0  0  0  0  0999 V2000
   44.8950   34.6540   42.5440 N   0  0  0  0  0  0  0  0  0  0  0  0
   45.5150   33.7410   41.6660 C   0  0  1  0  0  0  0  0  0  0  0  0
   45.2640   33.9610   40.2200 C   0  0  0  0  0  0  0  0  0  0  0  0
   44.0200   34.4760   39.8390 N   0  0  0  0  0  0  0  0  0  0  0  0
   43.3240   35.2690   40.7650 C   0  0  0  0  0  0  0  0  0  0  0  0
   44.2610   35.7470   41.8660 C   0  0  0  0  0  0  0  0  0  0  0  0
   45.1000   32.7190   41.9100 H   0  0  0  0  0  0  0  0  0  0  0  0
   46.0460   34.6970   39.8670 H   0  0  0  0  0  0  0  0  0  0  0  0
   45.5090   33.0230   39.6810 H   0  0  0  0  0  0  0  0  0  0  0  0
   43.3990   33.7220   39.4260 H   0  0  0  0  0  0  0  0  0  0  0  0
   42.7410   36.1090   40.3840 H   0  0  0  0  0  0  0  0  0  0  0  0
   42.5900   34.5980   41.2970 H   0  0  0  0  0  0  0  0  0  0  0  0
   45.0980   36.2540   41.2920 H   0  0  0  0  0  0  0  0  0  0  0  0
   43.8310   36.5300   42.4770 H   0  0  0  0  0  0  0  0  0  0  0  0
   47.7110   34.7570   41.7660 C   0  0  0  0  0  0  0  0  0  0  0  0
   46.9870   33.5880   41.8210 C   0  0  0  0  0  0  0  0  0  0  0  0
   47.7170   32.4190   41.9990 C   0  0  0  0  0  0  0  0  0  0  0  0
   47.0870   31.5190   42.0350 H   0  0  0  0  0  0  0  0  0  0  0  0
   49.0900   32.4420   42.1130 C   0  0  0  0  0  0  0  0  0  0  0  0
   49.9060   31.3690   42.2890 N   0  0  0  0  0  0  0  0  0  0  0  0
   49.6280   30.3580   42.3670 H   0  0  0  0  0  0  0  0  0  0  0  0
   51.1740   31.8650   42.3470 C   0  0  0  0  0  0  0  0  0  0  0  0
   52.0560   31.2560   42.4830 H   0  0  0  0  0  0  0  0  0  0  0  0
   51.1350   33.2380   42.2080 C   0  0  0  0  0  0  0  0  0  0  0  0
   49.8110   33.6020   42.0590 C   0  0  0  0  0  0  0  0  0  0  0  0
   49.0960   34.7700   41.8820 C   0  0  0  0  0  0  0  0  0  0  0  0
   44.4500   35.4570   44.7440 C   0  0  0  0  0  0  0  0  0  0  0  0
   44.9570   34.4340   43.9310 C   0  0  0  0  0  0  0  0  0  0  0  0
   45.4790   33.3180   44.5570 C   0  0  0  0  0  0  0  0  0  0  0  0
   45.5020   33.2160   45.9090 N   0  0  0  0  0  0  0  0  0  0  0  0
   45.0010   34.2280   46.6810 C   0  0  0  0  0  0  0  0  0  0  0  0
   44.4860   35.3260   46.0980 N   0  0  0  0  0  0  0  0  0  0  0  0
   44.0040   36.3960   44.4650 H   0  0  0  0  0  0  0  0  0  0  0  0
   45.8660   32.5210   43.9470 H   0  0  0  0  0  0  0  0  0  0  0  0
   45.0350   34.1160   47.7560 H   0  0  0  0  0  0  0  0  0  0  0  0
  1 28  1  0  0  0  0
  2 16  1  0  0  0  0
  2  7  1  1  0  0  0
  2  1  1  0  0  0  0
  3  2  1  0  0  0  0
  4  3  1  0  0  0  0
  4  5  1  0  0  0  0
  5 12  1  0  0  0  0
  5  6  1  0  0  0  0
  6 14  1  0  0  0  0
  6  1  1  0  0  0  0
  8  3  1  0  0  0  0
  9  3  1  0  0  0  0
 10  4  1  0  0  0  0
 11  5  1  0  0  0  0
 13  6  1  0  0  0  0
 15 16  2  0  0  0  0
 15 26  1  0  0  0  0
 16 17  1  0  0  0  0
 17 18  1  0  0  0  0
 17 19  2  0  0  0  0
 19 20  1  0  0  0  0
 20 22  1  0  0  0  0
 20 21  1  0  0  0  0
 22 23  1  0  0  0  0
 24 22  2  0  0  0  0
 25 19  1  0  0  0  0
 25 24  1  0  0  0  0
 26 25  2  0  0  0  0
 27 32  1  0  0  0  0
 28 29  1  0  0  0  0
 28 27  2  0  0  0  0
 29 30  2  0  0  0  0
 30 31  1  0  0  0  0
 31 35  1  0  0  0  0
 32 31  2  0  0  0  0
 33 27  1  0  0  0  0
 34 29  1  0  0  0  0
M  END
>  <minimizedAffinity>
-5.25135994

>  <minimizedRMSD>
1.78682685

$$$$
