
 OpenBabel03252508333D

 35 38  0  0  1  0  0  0  0  0999 V2000
   38.4270   30.5840   40.9810 N   0  0  0  0  0  0  0  0  0  0  0  0
   37.1730   31.1560   40.6800 C   0  0  1  0  0  0  0  0  0  0  0  0
   37.2040   32.5450   40.1580 C   0  0  0  0  0  0  0  0  0  0  0  0
   38.2060   33.4020   40.6270 N   0  0  0  0  0  0  0  0  0  0  0  0
   39.4090   32.8280   41.0690 C   0  0  0  0  0  0  0  0  0  0  0  0
   39.5320   31.3970   40.5660 C   0  0  0  0  0  0  0  0  0  0  0  0
   36.5890   31.1910   41.6460 H   0  0  0  0  0  0  0  0  0  0  0  0
   37.3390   32.4640   39.0380 H   0  0  0  0  0  0  0  0  0  0  0  0
   36.1920   32.9820   40.2800 H   0  0  0  0  0  0  0  0  0  0  0  0
   37.8230   34.0970   41.3300 H   0  0  0  0  0  0  0  0  0  0  0  0
   40.3360   33.3700   40.8770 H   0  0  0  0  0  0  0  0  0  0  0  0
   39.3380   32.7230   42.1900 H   0  0  0  0  0  0  0  0  0  0  0  0
   39.4050   31.5040   39.4440 H   0  0  0  0  0  0  0  0  0  0  0  0
   40.5260   30.9880   40.6930 H   0  0  0  0  0  0  0  0  0  0  0  0
   35.2280   29.7540   40.3380 C   0  0  0  0  0  3  0  0  0  0  0  0
   36.3090   30.3760   39.7540 C   0  0  0  0  0  0  0  0  0  0  0  0
   36.4640   30.1850   38.3860 C   0  0  0  0  0  0  0  0  0  0  0  0
   37.3420   30.7040   37.9760 H   0  0  0  0  0  0  0  0  0  0  0  0
   35.5790   29.4150   37.6650 C   0  0  0  0  0  0  0  0  0  0  0  0
   35.6280   29.1580   36.3310 N   0  0  0  0  0  0  0  0  0  0  0  0
   36.3410   29.5020   35.6380 H   0  0  0  0  0  0  0  0  0  0  0  0
   34.5580   28.3590   36.0600 C   0  0  0  0  0  0  0  0  0  0  0  0
   34.3200   27.9790   35.0760 H   0  0  0  0  0  0  0  0  0  0  0  0
   33.8550   28.1260   37.2250 C   0  0  0  0  0  3  0  0  0  0  0  0
   34.5050   28.7970   38.2420 C   0  0  0  0  0  0  0  0  0  0  0  0
   34.3400   28.9780   39.6020 C   0  0  0  0  0  3  0  0  0  0  0  0
   37.9650   29.2740   42.9190 C   0  0  0  0  0  0  0  0  0  0  0  0
   38.4820   29.3320   41.6170 C   0  0  0  0  0  0  0  0  0  0  0  0
   39.0080   28.1700   41.0860 C   0  0  0  0  0  0  0  0  0  0  0  0
   39.0240   27.0150   41.7970 N   0  0  0  0  0  0  0  0  0  0  0  0
   38.5130   26.9850   43.0660 C   0  0  0  0  0  0  0  0  0  0  0  0
   37.9950   28.1020   43.6080 N   0  0  0  0  0  0  0  0  0  0  0  0
   37.5160   30.0530   43.5120 H   0  0  0  0  0  0  0  0  0  0  0  0
   39.4020   28.1950   40.0850 H   0  0  0  0  0  0  0  0  0  0  0  0
   38.5420   26.0490   43.6070 H   0  0  0  0  0  0  0  0  0  0  0  0
  1 28  1  0  0  0  0
  2  1  1  0  0  0  0
  2  7  1  1  0  0  0
  3  9  1  0  0  0  0
  3  4  1  0  0  0  0
  3  2  1  0  0  0  0
  4  5  1  0  0  0  0
  4 10  1  0  0  0  0
  5 12  1  0  0  0  0
  6 14  1  0  0  0  0
  6  1  1  0  0  0  0
  6  5  1  0  0  0  0
  8  3  1  0  0  0  0
 11  5  1  0  0  0  0
 13  6  1  0  0  0  0
 16 15  1  0  0  0  0
 16  2  1  0  0  0  0
 17 16  2  0  0  0  0
 18 17  1  0  0  0  0
 19 25  2  0  0  0  0
 19 17  1  0  0  0  0
 20 19  1  0  0  0  0
 21 20  1  0  0  0  0
 22 20  1  0  0  0  0
 22 24  2  0  0  0  0
 23 22  1  0  0  0  0
 24 25  1  0  0  0  0
 25 26  1  0  0  0  0
 26 15  2  0  0  0  0
 27 33  1  0  0  0  0
 27 32  1  0  0  0  0
 28 27  2  0  0  0  0
 29 28  1  0  0  0  0
 29 30  2  0  0  0  0
 30 31  1  0  0  0  0
 31 35  1  0  0  0  0
 31 32  2  0  0  0  0
 34 29  1  0  0  0  0
M  END
>  <minimizedAffinity>
-5.68714571

$$$$

 OpenBabel03252508333D

 35 38  0  0  1  0  0  0  0  0999 V2000
   38.9670   30.7560   40.8290 N   0  0  0  0  0  0  0  0  0  0  0  0
   37.7910   30.4060   41.5260 C   0  0  1  0  0  0  0  0  0  0  0  0
   36.5320   30.9980   41.0100 C   0  0  0  0  0  0  0  0  0  0  0  0
   36.5890   32.2790   40.4480 N   0  0  0  0  0  0  0  0  0  0  0  0
   37.8040   32.6950   39.8810 C   0  0  0  0  0  0  0  0  0  0  0  0
   38.7110   31.4990   39.6290 C   0  0  0  0  0  0  0  0  0  0  0  0
   37.9130   30.7850   42.5830 H   0  0  0  0  0  0  0  0  0  0  0  0
   36.1580   30.3010   40.2030 H   0  0  0  0  0  0  0  0  0  0  0  0
   35.7660   30.9280   41.8090 H   0  0  0  0  0  0  0  0  0  0  0  0
   36.1960   33.0090   41.1090 H   0  0  0  0  0  0  0  0  0  0  0  0
   37.7650   33.3230   38.9890 H   0  0  0  0  0  0  0  0  0  0  0  0
   38.3510   33.2980   40.6610 H   0  0  0  0  0  0  0  0  0  0  0  0
   38.0660   30.8110   38.9980 H   0  0  0  0  0  0  0  0  0  0  0  0
   39.5600   31.7360   39.0000 H   0  0  0  0  0  0  0  0  0  0  0  0
   37.4830   28.4950   42.9820 C   0  0  0  0  0  3  0  0  0  0  0  0
   37.5400   28.9480   41.6830 C   0  0  0  0  0  0  0  0  0  0  0  0
   37.3720   27.9920   40.6890 C   0  0  0  0  0  0  0  0  0  0  0  0
   37.4280   28.4110   39.6740 H   0  0  0  0  0  0  0  0  0  0  0  0
   37.1600   26.6660   40.9980 C   0  0  0  0  0  0  0  0  0  0  0  0
   36.9830   25.6460   40.1170 N   0  0  0  0  0  0  0  0  0  0  0  0
   36.9780   25.7010   39.0670 H   0  0  0  0  0  0  0  0  0  0  0  0
   36.8100   24.5240   40.8680 C   0  0  0  0  0  0  0  0  0  0  0  0
   36.6440   23.5380   40.4550 H   0  0  0  0  0  0  0  0  0  0  0  0
   36.8800   24.8530   42.2060 C   0  0  0  0  0  3  0  0  0  0  0  0
   37.1030   26.2140   42.2870 C   0  0  0  0  0  0  0  0  0  0  0  0
   37.2690   27.1550   43.2840 C   0  0  0  0  0  3  0  0  0  0  0  0
   40.6420   31.0040   42.5070 C   0  0  0  0  0  0  0  0  0  0  0  0
   40.2170   30.3620   41.3360 C   0  0  0  0  0  0  0  0  0  0  0  0
   41.0610   29.4190   40.7820 C   0  0  0  0  0  0  0  0  0  0  0  0
   42.2580   29.1260   41.3490 N   0  0  0  0  0  0  0  0  0  0  0  0
   42.6500   29.7660   42.4930 C   0  0  0  0  0  0  0  0  0  0  0  0
   41.8470   30.6890   43.0530 N   0  0  0  0  0  0  0  0  0  0  0  0
   40.1440   31.7590   43.0930 H   0  0  0  0  0  0  0  0  0  0  0  0
   40.7480   28.9120   39.8870 H   0  0  0  0  0  0  0  0  0  0  0  0
   43.6100   29.5100   42.9190 H   0  0  0  0  0  0  0  0  0  0  0  0
  1 28  1  0  0  0  0
  1  2  1  0  0  0  0
  2 16  1  0  0  0  0
  2  7  1  1  0  0  0
  3  2  1  0  0  0  0
  3  9  1  0  0  0  0
  4  3  1  0  0  0  0
  4 10  1  0  0  0  0
  5  4  1  0  0  0  0
  5 12  1  0  0  0  0
  6  5  1  0  0  0  0
  6  1  1  0  0  0  0
  8  3  1  0  0  0  0
 11  5  1  0  0  0  0
 13  6  1  0  0  0  0
 14  6  1  0  0  0  0
 15 26  1  0  0  0  0
 16 15  2  0  0  0  0
 17 19  2  0  0  0  0
 17 16  1  0  0  0  0
 18 17  1  0  0  0  0
 19 25  1  0  0  0  0
 20 22  1  0  0  0  0
 20 19  1  0  0  0  0
 21 20  1  0  0  0  0
 22 24  2  0  0  0  0
 23 22  1  0  0  0  0
 24 25  1  0  0  0  0
 25 26  2  0  0  0  0
 27 32  1  0  0  0  0
 27 33  1  0  0  0  0
 28 27  2  0  0  0  0
 29 28  1  0  0  0  0
 29 30  2  0  0  0  0
 30 31  1  0  0  0  0
 31 35  1  0  0  0  0
 31 32  2  0  0  0  0
 34 29  1  0  0  0  0
M  END
>  <minimizedAffinity>
-5.6752758

$$$$

 OpenBabel03252508333D

 35 38  0  0  1  0  0  0  0  0999 V2000
   36.7760   29.9860   37.4270 N   0  0  0  0  0  0  0  0  0  0  0  0
   35.7150   29.3880   38.1400 C   0  0  1  0  0  0  0  0  0  0  0  0
   34.8280   28.4980   37.3520 C   0  0  0  0  0  0  0  0  0  0  0  0
   34.6010   28.8150   36.0080 N   0  0  0  0  0  0  0  0  0  0  0  0
   35.5920   29.5420   35.3280 C   0  0  0  0  0  0  0  0  0  0  0  0
   36.9080   29.4880   36.0890 C   0  0  0  0  0  0  0  0  0  0  0  0
   35.0650   30.2280   38.5240 H   0  0  0  0  0  0  0  0  0  0  0  0
   35.3040   27.4720   37.3710 H   0  0  0  0  0  0  0  0  0  0  0  0
   33.8800   28.3700   37.9150 H   0  0  0  0  0  0  0  0  0  0  0  0
   33.6390   29.2400   35.8670 H   0  0  0  0  0  0  0  0  0  0  0  0
   35.7630   29.3120   34.2750 H   0  0  0  0  0  0  0  0  0  0  0  0
   35.2950   30.6290   35.3630 H   0  0  0  0  0  0  0  0  0  0  0  0
   37.0920   28.3760   36.2130 H   0  0  0  0  0  0  0  0  0  0  0  0
   37.7490   29.8430   35.5070 H   0  0  0  0  0  0  0  0  0  0  0  0
   36.5230   27.3380   39.1450 C   0  0  0  0  0  3  0  0  0  0  0  0
   36.0990   28.6300   39.3610 C   0  0  0  0  0  0  0  0  0  0  0  0
   36.0700   29.0560   40.6830 C   0  0  0  0  0  0  0  0  0  0  0  0
   35.7240   30.0930   40.7940 H   0  0  0  0  0  0  0  0  0  0  0  0
   36.4470   28.2220   41.7130 C   0  0  0  0  0  0  0  0  0  0  0  0
   36.4590   28.5250   43.0380 N   0  0  0  0  0  0  0  0  0  0  0  0
   36.1880   29.4360   43.4890 H   0  0  0  0  0  0  0  0  0  0  0  0
   36.9000   27.4060   43.6770 C   0  0  0  0  0  0  0  0  0  0  0  0
   37.0200   27.3290   44.7490 H   0  0  0  0  0  0  0  0  0  0  0  0
   37.1570   26.4190   42.7480 C   0  0  0  0  0  3  0  0  0  0  0  0
   36.8680   26.9390   41.5010 C   0  0  0  0  0  0  0  0  0  0  0  0
   36.9010   26.5040   40.1900 C   0  0  0  0  0  3  0  0  0  0  0  0
   38.9610   30.7740   37.9640 C   0  0  0  0  0  0  0  0  0  0  0  0
   37.5740   30.9560   38.0570 C   0  0  0  0  0  0  0  0  0  0  0  0
   37.1190   32.0530   38.7640 C   0  0  0  0  0  0  0  0  0  0  0  0
   37.9820   32.9220   39.3480 N   0  0  0  0  0  0  0  0  0  0  0  0
   39.3310   32.7220   39.2420 C   0  0  0  0  0  0  0  0  0  0  0  0
   39.8020   31.6620   38.5600 N   0  0  0  0  0  0  0  0  0  0  0  0
   39.5180   29.9980   37.4680 H   0  0  0  0  0  0  0  0  0  0  0  0
   36.0580   32.2120   38.8390 H   0  0  0  0  0  0  0  0  0  0  0  0
   39.9930   33.4330   39.7190 H   0  0  0  0  0  0  0  0  0  0  0  0
  1 28  1  0  0  0  0
  1  2  1  0  0  0  0
  2  7  1  1  0  0  0
  2 16  1  0  0  0  0
  3  8  1  0  0  0  0
  3  9  1  0  0  0  0
  3  2  1  0  0  0  0
  4  3  1  0  0  0  0
  5 12  1  0  0  0  0
  5  4  1  0  0  0  0
  5  6  1  0  0  0  0
  6 13  1  0  0  0  0
  6  1  1  0  0  0  0
 10  4  1  0  0  0  0
 11  5  1  0  0  0  0
 14  6  1  0  0  0  0
 15 16  2  0  0  0  0
 15 26  1  0  0  0  0
 16 17  1  0  0  0  0
 17 18  1  0  0  0  0
 17 19  2  0  0  0  0
 19 20  1  0  0  0  0
 20 21  1  0  0  0  0
 20 22  1  0  0  0  0
 22 23  1  0  0  0  0
 24 22  2  0  0  0  0
 25 19  1  0  0  0  0
 25 24  1  0  0  0  0
 26 25  2  0  0  0  0
 27 28  2  0  0  0  0
 27 32  1  0  0  0  0
 28 29  1  0  0  0  0
 29 34  1  0  0  0  0
 29 30  2  0  0  0  0
 31 30  1  0  0  0  0
 31 35  1  0  0  0  0
 32 31  2  0  0  0  0
 33 27  1  0  0  0  0
M  END
>  <minimizedAffinity>
-5.36024857

$$$$

 OpenBabel03252508333D

 35 38  0  0  1  0  0  0  0  0999 V2000
   38.2340   29.4310   40.8790 N   0  0  0  0  0  0  0  0  0  0  0  0
   37.1100   28.7700   41.4190 C   0  0  1  0  0  0  0  0  0  0  0  0
   35.7970   29.4090   41.1560 C   0  0  0  0  0  0  0  0  0  0  0  0
   35.7470   30.8050   41.0810 N   0  0  0  0  0  0  0  0  0  0  0  0
   36.9100   31.4850   40.6860 C   0  0  0  0  0  0  0  0  0  0  0  0
   37.8860   30.5260   40.0210 C   0  0  0  0  0  0  0  0  0  0  0  0
   37.2430   28.7620   42.5400 H   0  0  0  0  0  0  0  0  0  0  0  0
   35.4420   29.0130   40.1580 H   0  0  0  0  0  0  0  0  0  0  0  0
   35.0650   29.0040   41.8860 H   0  0  0  0  0  0  0  0  0  0  0  0
   35.3280   31.2250   41.9610 H   0  0  0  0  0  0  0  0  0  0  0  0
   36.7960   32.3810   40.0740 H   0  0  0  0  0  0  0  0  0  0  0  0
   37.4410   31.8160   41.6240 H   0  0  0  0  0  0  0  0  0  0  0  0
   37.2680   30.0570   39.1930 H   0  0  0  0  0  0  0  0  0  0  0  0
   38.6940   31.0320   39.5080 H   0  0  0  0  0  0  0  0  0  0  0  0
   37.1080   26.4440   42.0930 C   0  0  0  0  0  3  0  0  0  0  0  0
   36.9640   27.3360   41.0530 C   0  0  0  0  0  0  0  0  0  0  0  0
   36.7180   26.7870   39.8010 C   0  0  0  0  0  0  0  0  0  0  0  0
   36.6130   27.5450   39.0120 H   0  0  0  0  0  0  0  0  0  0  0  0
   36.6240   25.4240   39.6210 C   0  0  0  0  0  0  0  0  0  0  0  0
   36.3870   24.7750   38.4500 N   0  0  0  0  0  0  0  0  0  0  0  0
   36.2380   25.2020   37.5010 H   0  0  0  0  0  0  0  0  0  0  0  0
   36.3790   23.4470   38.7500 C   0  0  0  0  0  0  0  0  0  0  0  0
   36.2150   22.6630   38.0230 H   0  0  0  0  0  0  0  0  0  0  0  0
   36.6100   23.2800   40.1000 C   0  0  0  0  0  3  0  0  0  0  0  0
   36.7660   24.5370   40.6510 C   0  0  0  0  0  0  0  0  0  0  0  0
   37.0120   25.0710   41.9020 C   0  0  0  0  0  3  0  0  0  0  0  0
   39.8960   29.0780   42.5520 C   0  0  0  0  0  0  0  0  0  0  0  0
   39.5250   28.9800   41.2030 C   0  0  0  0  0  0  0  0  0  0  0  0
   40.4560   28.4690   40.3200 C   0  0  0  0  0  0  0  0  0  0  0  0
   41.6840   28.0760   40.7400 N   0  0  0  0  0  0  0  0  0  0  0  0
   42.0220   28.1800   42.0620 C   0  0  0  0  0  0  0  0  0  0  0  0
   41.1350   28.6760   42.9440 N   0  0  0  0  0  0  0  0  0  0  0  0
   39.3300   29.4420   43.3930 H   0  0  0  0  0  0  0  0  0  0  0  0
   40.1850   28.3800   39.2830 H   0  0  0  0  0  0  0  0  0  0  0  0
   43.0090   27.8590   42.3650 H   0  0  0  0  0  0  0  0  0  0  0  0
  1 28  1  0  0  0  0
  1  2  1  0  0  0  0
  2  7  1  1  0  0  0
  3  2  1  0  0  0  0
  3  9  1  0  0  0  0
  4  3  1  0  0  0  0
  4 10  1  0  0  0  0
  5  4  1  0  0  0  0
  5 12  1  0  0  0  0
  6  5  1  0  0  0  0
  6  1  1  0  0  0  0
  8  3  1  0  0  0  0
 11  5  1  0  0  0  0
 13  6  1  0  0  0  0
 14  6  1  0  0  0  0
 16  2  1  0  0  0  0
 16 15  2  0  0  0  0
 17 16  1  0  0  0  0
 18 17  1  0  0  0  0
 19 17  2  0  0  0  0
 19 25  1  0  0  0  0
 20 22  1  0  0  0  0
 20 19  1  0  0  0  0
 21 20  1  0  0  0  0
 22 24  2  0  0  0  0
 23 22  1  0  0  0  0
 24 25  1  0  0  0  0
 25 26  2  0  0  0  0
 26 15  1  0  0  0  0
 27 32  1  0  0  0  0
 27 33  1  0  0  0  0
 28 27  2  0  0  0  0
 29 30  2  0  0  0  0
 29 28  1  0  0  0  0
 30 31  1  0  0  0  0
 31 35  1  0  0  0  0
 31 32  2  0  0  0  0
 34 29  1  0  0  0  0
M  END
>  <minimizedAffinity>
-5.32790995

$$$$

 OpenBabel03252508333D

 35 38  0  0  1  0  0  0  0  0999 V2000
   35.6650   28.4340   38.6600 N   0  0  0  0  0  0  0  0  0  0  0  0
   36.5720   29.0360   37.7620 C   0  0  1  0  0  0  0  0  0  0  0  0
   36.0100   29.4410   36.4490 C   0  0  0  0  0  0  0  0  0  0  0  0
   34.9860   28.6590   35.9020 N   0  0  0  0  0  0  0  0  0  0  0  0
   34.1670   27.9360   36.7840 C   0  0  0  0  0  0  0  0  0  0  0  0
   34.3070   28.4740   38.2010 C   0  0  0  0  0  0  0  0  0  0  0  0
   37.3730   28.2700   37.5440 H   0  0  0  0  0  0  0  0  0  0  0  0
   35.5910   30.4810   36.5870 H   0  0  0  0  0  0  0  0  0  0  0  0
   36.8530   29.5780   35.7410 H   0  0  0  0  0  0  0  0  0  0  0  0
   35.3460   28.0480   35.1130 H   0  0  0  0  0  0  0  0  0  0  0  0
   33.1110   27.8290   36.5310 H   0  0  0  0  0  0  0  0  0  0  0  0
   34.5800   26.8880   36.8430 H   0  0  0  0  0  0  0  0  0  0  0  0
   34.0750   29.5780   38.0840 H   0  0  0  0  0  0  0  0  0  0  0  0
   33.5440   28.1010   38.8720 H   0  0  0  0  0  0  0  0  0  0  0  0
   38.6780   30.1910   38.0720 C   0  0  0  0  0  3  0  0  0  0  0  0
   37.3170   30.2120   38.2840 C   0  0  0  0  0  0  0  0  0  0  0  0
   36.8180   31.3150   38.9660 C   0  0  0  0  0  0  0  0  0  0  0  0
   35.7280   31.2770   39.1060 H   0  0  0  0  0  0  0  0  0  0  0  0
   37.6480   32.3250   39.4020 C   0  0  0  0  0  0  0  0  0  0  0  0
   37.2760   33.4450   40.0760 N   0  0  0  0  0  0  0  0  0  0  0  0
   36.3060   33.7230   40.3710 H   0  0  0  0  0  0  0  0  0  0  0  0
   38.4210   34.1500   40.2960 C   0  0  0  0  0  0  0  0  0  0  0  0
   38.4570   35.0980   40.8150 H   0  0  0  0  0  0  0  0  0  0  0  0
   39.4910   33.4640   39.7600 C   0  0  0  0  0  3  0  0  0  0  0  0
   38.9990   32.3060   39.1930 C   0  0  0  0  0  0  0  0  0  0  0  0
   39.5070   31.2140   38.5150 C   0  0  0  0  0  3  0  0  0  0  0  0
   36.7690   26.6380   39.7710 C   0  0  0  0  0  0  0  0  0  0  0  0
   36.1410   27.8870   39.8640 C   0  0  0  0  0  0  0  0  0  0  0  0
   36.0340   28.4580   41.1170 C   0  0  0  0  0  0  0  0  0  0  0  0
   36.5180   27.8320   42.2190 N   0  0  0  0  0  0  0  0  0  0  0  0
   37.1280   26.6130   42.1020 C   0  0  0  0  0  0  0  0  0  0  0  0
   37.2450   26.0340   40.8940 N   0  0  0  0  0  0  0  0  0  0  0  0
   36.9550   26.0270   38.9030 H   0  0  0  0  0  0  0  0  0  0  0  0
   35.5620   29.4200   41.2050 H   0  0  0  0  0  0  0  0  0  0  0  0
   37.5020   26.1400   43.0000 H   0  0  0  0  0  0  0  0  0  0  0  0
  1 28  1  0  0  0  0
  2  7  1  6  0  0  0
  2 16  1  0  0  0  0
  2  1  1  0  0  0  0
  3  8  1  0  0  0  0
  3  2  1  0  0  0  0
  4  3  1  0  0  0  0
  4  5  1  0  0  0  0
  5 12  1  0  0  0  0
  5  6  1  0  0  0  0
  6  1  1  0  0  0  0
  6 14  1  0  0  0  0
  9  3  1  0  0  0  0
 10  4  1  0  0  0  0
 11  5  1  0  0  0  0
 13  6  1  0  0  0  0
 15 16  2  0  0  0  0
 15 26  1  0  0  0  0
 16 17  1  0  0  0  0
 17 18  1  0  0  0  0
 17 19  2  0  0  0  0
 19 20  1  0  0  0  0
 20 22  1  0  0  0  0
 20 21  1  0  0  0  0
 22 23  1  0  0  0  0
 24 22  2  0  0  0  0
 25 19  1  0  0  0  0
 25 24  1  0  0  0  0
 26 25  2  0  0  0  0
 27 28  2  0  0  0  0
 27 32  1  0  0  0  0
 28 29  1  0  0  0  0
 29 34  1  0  0  0  0
 29 30  2  0  0  0  0
 31 30  1  0  0  0  0
 31 35  1  0  0  0  0
 32 31  2  0  0  0  0
 33 27  1  0  0  0  0
M  END
>  <minimizedAffinity>
-5.32708931

$$$$

 OpenBabel03252508333D

 35 38  0  0  1  0  0  0  0  0999 V2000
   37.2560   28.1570   40.6550 N   0  0  0  0  0  0  0  0  0  0  0  0
   37.0200   29.2290   41.5410 C   0  0  1  0  0  0  0  0  0  0  0  0
   37.3480   28.9750   42.9660 C   0  0  0  0  0  0  0  0  0  0  0  0
   37.1680   27.6790   43.4620 N   0  0  0  0  0  0  0  0  0  0  0  0
   37.2550   26.6090   42.5560 C   0  0  0  0  0  0  0  0  0  0  0  0
   37.9370   27.0560   41.2700 C   0  0  0  0  0  0  0  0  0  0  0  0
   35.9130   29.4470   41.5030 H   0  0  0  0  0  0  0  0  0  0  0  0
   38.4440   29.2250   43.0920 H   0  0  0  0  0  0  0  0  0  0  0  0
   36.8220   29.7330   43.5810 H   0  0  0  0  0  0  0  0  0  0  0  0
   36.2960   27.6120   44.0620 H   0  0  0  0  0  0  0  0  0  0  0  0
   37.6990   25.6760   42.9060 H   0  0  0  0  0  0  0  0  0  0  0  0
   36.2040   26.3530   42.2380 H   0  0  0  0  0  0  0  0  0  0  0  0
   38.9190   27.4920   41.6350 H   0  0  0  0  0  0  0  0  0  0  0  0
   38.2220   26.2280   40.6330 H   0  0  0  0  0  0  0  0  0  0  0  0
   36.8580   31.4190   40.5190 C   0  0  0  0  0  3  0  0  0  0  0  0
   37.6640   30.5210   41.1820 C   0  0  0  0  0  0  0  0  0  0  0  0
   38.9720   30.9260   41.4180 C   0  0  0  0  0  0  0  0  0  0  0  0
   39.5680   30.1700   41.9490 H   0  0  0  0  0  0  0  0  0  0  0  0
   39.4260   32.1600   41.0070 C   0  0  0  0  0  0  0  0  0  0  0  0
   40.6770   32.6630   41.1800 N   0  0  0  0  0  0  0  0  0  0  0  0
   41.4940   32.1980   41.6510 H   0  0  0  0  0  0  0  0  0  0  0  0
   40.6670   33.9030   40.6180 C   0  0  0  0  0  0  0  0  0  0  0  0
   41.5220   34.5640   40.5930 H   0  0  0  0  0  0  0  0  0  0  0  0
   39.4130   34.1610   40.1010 C   0  0  0  0  0  3  0  0  0  0  0  0
   38.6270   33.0530   40.3490 C   0  0  0  0  0  0  0  0  0  0  0  0
   37.3240   32.6620   40.1080 C   0  0  0  0  0  3  0  0  0  0  0  0
   35.4510   28.2760   39.1020 C   0  0  0  0  0  0  0  0  0  0  0  0
   36.8360   28.2580   39.3170 C   0  0  0  0  0  0  0  0  0  0  0  0
   37.6570   28.3260   38.2080 C   0  0  0  0  0  0  0  0  0  0  0  0
   37.1430   28.4070   36.9550 N   0  0  0  0  0  0  0  0  0  0  0  0
   35.7870   28.4230   36.7710 C   0  0  0  0  0  0  0  0  0  0  0  0
   34.9650   28.3570   37.8340 N   0  0  0  0  0  0  0  0  0  0  0  0
   34.6470   28.2330   39.8160 H   0  0  0  0  0  0  0  0  0  0  0  0
   38.7220   28.3210   38.3560 H   0  0  0  0  0  0  0  0  0  0  0  0
   35.4090   28.4870   35.7600 H   0  0  0  0  0  0  0  0  0  0  0  0
  1  6  1  0  0  0  0
  1  2  1  0  0  0  0
  2  7  1  6  0  0  0
  2  3  1  0  0  0  0
  3  8  1  0  0  0  0
  3  4  1  0  0  0  0
  3  9  1  0  0  0  0
  4 10  1  0  0  0  0
  5 11  1  0  0  0  0
  5  4  1  0  0  0  0
  6 13  1  0  0  0  0
  6  5  1  0  0  0  0
 12  5  1  0  0  0  0
 14  6  1  0  0  0  0
 15 16  1  0  0  0  0
 16 17  2  0  0  0  0
 16  2  1  0  0  0  0
 17 18  1  0  0  0  0
 19 20  1  0  0  0  0
 19 17  1  0  0  0  0
 20 21  1  0  0  0  0
 22 20  1  0  0  0  0
 23 22  1  0  0  0  0
 24 25  1  0  0  0  0
 24 22  2  0  0  0  0
 25 19  2  0  0  0  0
 26 25  1  0  0  0  0
 26 15  2  0  0  0  0
 27 28  1  0  0  0  0
 27 33  1  0  0  0  0
 28  1  1  0  0  0  0
 29 34  1  0  0  0  0
 29 28  2  0  0  0  0
 30 29  1  0  0  0  0
 31 30  2  0  0  0  0
 31 32  1  0  0  0  0
 32 27  2  0  0  0  0
 35 31  1  0  0  0  0
M  END
>  <minimizedAffinity>
-5.25223494

$$$$

 OpenBabel03252508333D

 35 38  0  0  1  0  0  0  0  0999 V2000
   36.2460   29.0590   39.9940 N   0  0  0  0  0  0  0  0  0  0  0  0
   36.9830   29.6340   38.9370 C   0  0  1  0  0  0  0  0  0  0  0  0
   36.1990   30.0270   37.7400 C   0  0  0  0  0  0  0  0  0  0  0  0
   35.0840   29.2520   37.4000 N   0  0  0  0  0  0  0  0  0  0  0  0
   34.4290   28.5550   38.4280 C   0  0  0  0  0  0  0  0  0  0  0  0
   34.8280   29.1120   39.7870 C   0  0  0  0  0  0  0  0  0  0  0  0
   37.7230   28.8530   38.5920 H   0  0  0  0  0  0  0  0  0  0  0  0
   35.8240   31.0760   37.9330 H   0  0  0  0  0  0  0  0  0  0  0  0
   36.9020   30.1400   36.8900 H   0  0  0  0  0  0  0  0  0  0  0  0
   35.2880   28.6240   36.5700 H   0  0  0  0  0  0  0  0  0  0  0  0
   33.3430   28.4600   38.3710 H   0  0  0  0  0  0  0  0  0  0  0  0
   34.8320   27.5030   38.4300 H   0  0  0  0  0  0  0  0  0  0  0  0
   34.5920   30.2180   39.6940 H   0  0  0  0  0  0  0  0  0  0  0  0
   34.1940   28.7610   40.5910 H   0  0  0  0  0  0  0  0  0  0  0  0
   37.1410   31.9850   39.4990 C   0  0  0  0  0  3  0  0  0  0  0  0
   37.8250   30.8070   39.2960 C   0  0  0  0  0  0  0  0  0  0  0  0
   39.2060   30.8640   39.4350 C   0  0  0  0  0  0  0  0  0  0  0  0
   39.6970   29.8970   39.2610 H   0  0  0  0  0  0  0  0  0  0  0  0
   39.8450   32.0410   39.7600 C   0  0  0  0  0  0  0  0  0  0  0  0
   41.1830   32.2190   39.9230 N   0  0  0  0  0  0  0  0  0  0  0  0
   41.9410   31.4960   39.8300 H   0  0  0  0  0  0  0  0  0  0  0  0
   41.3540   33.5330   40.2360 C   0  0  0  0  0  0  0  0  0  0  0  0
   42.3150   33.9900   40.4270 H   0  0  0  0  0  0  0  0  0  0  0  0
   40.1250   34.1600   40.2650 C   0  0  0  0  0  3  0  0  0  0  0  0
   39.1690   33.2110   39.9630 C   0  0  0  0  0  0  0  0  0  0  0  0
   37.7950   33.1670   39.8260 C   0  0  0  0  0  3  0  0  0  0  0  0
   36.9810   29.3330   42.2450 C   0  0  0  0  0  0  0  0  0  0  0  0
   36.9250   28.5240   41.1020 C   0  0  0  0  0  0  0  0  0  0  0  0
   37.5470   27.2910   41.1600 C   0  0  0  0  0  0  0  0  0  0  0  0
   38.1890   26.8790   42.2810 N   0  0  0  0  0  0  0  0  0  0  0  0
   38.2290   27.6870   43.3840 C   0  0  0  0  0  0  0  0  0  0  0  0
   37.6320   28.8920   43.3550 N   0  0  0  0  0  0  0  0  0  0  0  0
   36.5680   30.3140   42.4110 H   0  0  0  0  0  0  0  0  0  0  0  0
   37.5070   26.6550   40.2940 H   0  0  0  0  0  0  0  0  0  0  0  0
   38.7510   27.3300   44.2620 H   0  0  0  0  0  0  0  0  0  0  0  0
  1 28  1  0  0  0  0
  2  7  1  6  0  0  0
  2 16  1  0  0  0  0
  2  1  1  0  0  0  0
  3  8  1  0  0  0  0
  3  2  1  0  0  0  0
  4  3  1  0  0  0  0
  4  5  1  0  0  0  0
  5 12  1  0  0  0  0
  5  6  1  0  0  0  0
  6  1  1  0  0  0  0
  6 14  1  0  0  0  0
  9  3  1  0  0  0  0
 10  4  1  0  0  0  0
 11  5  1  0  0  0  0
 13  6  1  0  0  0  0
 15 26  1  0  0  0  0
 16 17  1  0  0  0  0
 16 15  2  0  0  0  0
 17 19  2  0  0  0  0
 18 17  1  0  0  0  0
 19 20  1  0  0  0  0
 19 25  1  0  0  0  0
 20 22  1  0  0  0  0
 21 20  1  0  0  0  0
 22 24  2  0  0  0  0
 22 23  1  0  0  0  0
 25 24  1  0  0  0  0
 26 25  2  0  0  0  0
 27 33  1  0  0  0  0
 27 32  1  0  0  0  0
 28 29  1  0  0  0  0
 28 27  2  0  0  0  0
 29 30  2  0  0  0  0
 30 31  1  0  0  0  0
 31 35  1  0  0  0  0
 32 31  2  0  0  0  0
 34 29  1  0  0  0  0
M  END
>  <minimizedAffinity>
-5.21913767

$$$$

 OpenBabel03252508333D

 35 38  0  0  1  0  0  0  0  0999 V2000
   39.2590   27.5860   42.4250 N   0  0  0  0  0  0  0  0  0  0  0  0
   38.0680   26.8780   42.6900 C   0  0  1  0  0  0  0  0  0  0  0  0
   36.8480   27.7050   42.8580 C   0  0  0  0  0  0  0  0  0  0  0  0
   36.9860   28.9720   43.4370 N   0  0  0  0  0  0  0  0  0  0  0  0
   38.2220   29.6250   43.3040 C   0  0  0  0  0  0  0  0  0  0  0  0
   39.0450   28.9850   42.1960 C   0  0  0  0  0  0  0  0  0  0  0  0
   38.2220   26.3340   43.6680 H   0  0  0  0  0  0  0  0  0  0  0  0
   36.4220   27.8620   41.8230 H   0  0  0  0  0  0  0  0  0  0  0  0
   36.0840   27.0910   43.3780 H   0  0  0  0  0  0  0  0  0  0  0  0
   36.6470   28.9780   44.4420 H   0  0  0  0  0  0  0  0  0  0  0  0
   38.2170   30.7100   43.1830 H   0  0  0  0  0  0  0  0  0  0  0  0
   38.8120   29.4200   44.2420 H   0  0  0  0  0  0  0  0  0  0  0  0
   38.3510   29.0260   41.2990 H   0  0  0  0  0  0  0  0  0  0  0  0
   39.9030   29.5790   41.9080 H   0  0  0  0  0  0  0  0  0  0  0  0
   36.9610   26.2030   40.6440 C   0  0  0  0  0  3  0  0  0  0  0  0
   37.7220   25.8040   41.7210 C   0  0  0  0  0  0  0  0  0  0  0  0
   38.0550   24.4560   41.7740 C   0  0  0  0  0  0  0  0  0  0  0  0
   38.6610   24.1970   42.6540 H   0  0  0  0  0  0  0  0  0  0  0  0
   37.6410   23.5770   40.7970 C   0  0  0  0  0  0  0  0  0  0  0  0
   37.9040   22.2440   40.7430 N   0  0  0  0  0  0  0  0  0  0  0  0
   38.4600   21.6720   41.4290 H   0  0  0  0  0  0  0  0  0  0  0  0
   37.3000   21.7860   39.6110 C   0  0  0  0  0  0  0  0  0  0  0  0
   37.3270   20.7560   39.2850 H   0  0  0  0  0  0  0  0  0  0  0  0
   36.6690   22.8350   38.9730 C   0  0  0  0  0  3  0  0  0  0  0  0
   36.8870   23.9700   39.7280 C   0  0  0  0  0  0  0  0  0  0  0  0
   36.5490   25.3090   39.6640 C   0  0  0  0  0  3  0  0  0  0  0  0
   40.8990   26.3250   43.6100 C   0  0  0  0  0  0  0  0  0  0  0  0
   40.4840   26.8970   42.3990 C   0  0  0  0  0  0  0  0  0  0  0  0
   41.3130   26.7470   41.3040 C   0  0  0  0  0  0  0  0  0  0  0  0
   42.4860   26.0720   41.3960 N   0  0  0  0  0  0  0  0  0  0  0  0
   42.8680   25.5220   42.5880 C   0  0  0  0  0  0  0  0  0  0  0  0
   42.0810   25.6530   43.6710 N   0  0  0  0  0  0  0  0  0  0  0  0
   40.4110   26.3240   44.5700 H   0  0  0  0  0  0  0  0  0  0  0  0
   41.0060   27.1730   40.3650 H   0  0  0  0  0  0  0  0  0  0  0  0
   43.8090   24.9910   42.6290 H   0  0  0  0  0  0  0  0  0  0  0  0
  1  2  1  0  0  0  0
  2  3  1  0  0  0  0
  2  7  1  1  0  0  0
  3  9  1  0  0  0  0
  3  4  1  0  0  0  0
  4 10  1  0  0  0  0
  5  4  1  0  0  0  0
  5 12  1  0  0  0  0
  6  1  1  0  0  0  0
  6  5  1  0  0  0  0
  8  3  1  0  0  0  0
 11  5  1  0  0  0  0
 13  6  1  0  0  0  0
 14  6  1  0  0  0  0
 15 16  1  0  0  0  0
 16 17  2  0  0  0  0
 16  2  1  0  0  0  0
 17 18  1  0  0  0  0
 19 17  1  0  0  0  0
 20 19  1  0  0  0  0
 20 21  1  0  0  0  0
 22 20  1  0  0  0  0
 23 22  1  0  0  0  0
 24 22  2  0  0  0  0
 24 25  1  0  0  0  0
 25 19  2  0  0  0  0
 26 25  1  0  0  0  0
 26 15  2  0  0  0  0
 27 32  1  0  0  0  0
 27 33  1  0  0  0  0
 28  1  1  0  0  0  0
 28 27  2  0  0  0  0
 29 30  2  0  0  0  0
 29 28  1  0  0  0  0
 30 31  1  0  0  0  0
 31 35  1  0  0  0  0
 31 32  2  0  0  0  0
 34 29  1  0  0  0  0
M  END
>  <minimizedAffinity>
-5.21197557

$$$$

 OpenBabel03252508333D

 35 38  0  0  1  0  0  0  0  0999 V2000
   37.2190   27.4330   40.2820 N   0  0  0  0  0  0  0  0  0  0  0  0
   36.7900   28.3980   41.2160 C   0  0  1  0  0  0  0  0  0  0  0  0
   36.9460   28.0300   42.6450 C   0  0  0  0  0  0  0  0  0  0  0  0
   36.7990   26.6840   42.9980 N   0  0  0  0  0  0  0  0  0  0  0  0
   37.0840   25.7130   42.0240 C   0  0  0  0  0  0  0  0  0  0  0  0
   37.8930   26.3220   40.8880 C   0  0  0  0  0  0  0  0  0  0  0  0
   35.6840   28.5500   41.0450 H   0  0  0  0  0  0  0  0  0  0  0  0
   37.9930   28.3350   42.9420 H   0  0  0  0  0  0  0  0  0  0  0  0
   36.2880   28.6920   43.2450 H   0  0  0  0  0  0  0  0  0  0  0  0
   35.8630   26.5060   43.4650 H   0  0  0  0  0  0  0  0  0  0  0  0
   37.5460   24.7800   42.3500 H   0  0  0  0  0  0  0  0  0  0  0  0
   36.1060   25.4230   41.5430 H   0  0  0  0  0  0  0  0  0  0  0  0
   38.7840   26.7820   41.4200 H   0  0  0  0  0  0  0  0  0  0  0  0
   38.3210   25.5780   40.2270 H   0  0  0  0  0  0  0  0  0  0  0  0
   38.6490   29.9100   41.5650 C   0  0  0  0  0  3  0  0  0  0  0  0
   37.3770   29.7560   41.0630 C   0  0  0  0  0  0  0  0  0  0  0  0
   36.7990   30.8850   40.4920 C   0  0  0  0  0  0  0  0  0  0  0  0
   35.7850   30.7020   40.1090 H   0  0  0  0  0  0  0  0  0  0  0  0
   37.4730   32.0850   40.4380 C   0  0  0  0  0  0  0  0  0  0  0  0
   37.0140   33.2490   39.9080 N   0  0  0  0  0  0  0  0  0  0  0  0
   36.0800   33.4230   39.4570 H   0  0  0  0  0  0  0  0  0  0  0  0
   38.0120   34.1610   40.0760 C   0  0  0  0  0  0  0  0  0  0  0  0
   37.9510   35.1910   39.7550 H   0  0  0  0  0  0  0  0  0  0  0  0
   39.0810   33.5580   40.7070 C   0  0  0  0  0  3  0  0  0  0  0  0
   38.7370   32.2400   40.9360 C   0  0  0  0  0  0  0  0  0  0  0  0
   39.3210   31.1250   41.5070 C   0  0  0  0  0  3  0  0  0  0  0  0
   35.6270   27.6480   38.5210 C   0  0  0  0  0  0  0  0  0  0  0  0
   36.9720   27.6350   38.9130 C   0  0  0  0  0  0  0  0  0  0  0  0
   37.9270   27.8060   37.9290 C   0  0  0  0  0  0  0  0  0  0  0  0
   37.5760   27.9790   36.6300 N   0  0  0  0  0  0  0  0  0  0  0  0
   36.2550   27.9890   36.2730 C   0  0  0  0  0  0  0  0  0  0  0  0
   35.3050   27.8240   37.2110 N   0  0  0  0  0  0  0  0  0  0  0  0
   34.7380   27.5350   39.1190 H   0  0  0  0  0  0  0  0  0  0  0  0
   38.9640   27.8060   38.2130 H   0  0  0  0  0  0  0  0  0  0  0  0
   36.0090   28.1280   35.2290 H   0  0  0  0  0  0  0  0  0  0  0  0
  1  6  1  0  0  0  0
  1  2  1  0  0  0  0
  2  7  1  6  0  0  0
  2  3  1  0  0  0  0
  3  8  1  0  0  0  0
  3  4  1  0  0  0  0
  3  9  1  0  0  0  0
  4 10  1  0  0  0  0
  5 11  1  0  0  0  0
  5  4  1  0  0  0  0
  6 13  1  0  0  0  0
  6  5  1  0  0  0  0
 12  5  1  0  0  0  0
 14  6  1  0  0  0  0
 16  2  1  0  0  0  0
 16 15  2  0  0  0  0
 17 16  1  0  0  0  0
 18 17  1  0  0  0  0
 19 17  2  0  0  0  0
 19 25  1  0  0  0  0
 20 22  1  0  0  0  0
 20 19  1  0  0  0  0
 21 20  1  0  0  0  0
 22 24  2  0  0  0  0
 23 22  1  0  0  0  0
 24 25  1  0  0  0  0
 25 26  2  0  0  0  0
 26 15  1  0  0  0  0
 27 28  1  0  0  0  0
 27 33  1  0  0  0  0
 28  1  1  0  0  0  0
 29 34  1  0  0  0  0
 29 28  2  0  0  0  0
 30 29  1  0  0  0  0
 31 30  2  0  0  0  0
 31 32  1  0  0  0  0
 32 27  2  0  0  0  0
 35 31  1  0  0  0  0
M  END
>  <minimizedAffinity>
-5.17435122

$$$$
