
 OpenBabel03252508593D

 48 51  0  0  1  0  0  0  0  0999 V2000
   46.7080   34.4720   43.6260 N   0  0  0  0  0  0  0  0  0  0  0  0
   46.2450   35.5000   42.7630 C   0  0  0  0  0  0  0  0  0  0  0  0
   44.7500   35.7060   42.7510 C   0  0  0  0  0  0  0  0  0  0  0  0
   44.0680   35.4190   44.0630 C   0  0  0  0  0  0  0  0  0  0  0  0
   45.0700   35.1050   45.1490 C   0  0  0  0  0  0  0  0  0  0  0  0
   45.8680   33.8870   44.5580 C   0  0  2  0  0  0  0  0  0  0  0  0
   46.6820   36.4540   43.1530 H   0  0  0  0  0  0  0  0  0  0  0  0
   46.5650   35.4300   41.7220 H   0  0  0  0  0  0  0  0  0  0  0  0
   44.5420   36.7940   42.5290 H   0  0  0  0  0  0  0  0  0  0  0  0
   44.2770   35.1510   41.9130 H   0  0  0  0  0  0  0  0  0  0  0  0
   43.3500   36.1740   44.3860 H   0  0  0  0  0  0  0  0  0  0  0  0
   43.4710   34.4830   43.9100 H   0  0  0  0  0  0  0  0  0  0  0  0
   45.7640   35.9210   45.3590 H   0  0  0  0  0  0  0  0  0  0  0  0
   44.5420   34.6880   46.0240 H   0  0  0  0  0  0  0  0  0  0  0  0
   45.1090   33.1560   44.2110 H   0  0  0  0  0  0  0  0  0  0  0  0
   47.7940   33.7020   43.0920 C   0  0  0  0  0  0  0  0  0  0  0  0
   48.4970   34.3850   42.5830 H   0  0  0  0  0  0  0  0  0  0  0  0
   48.3240   33.2200   43.9470 H   0  0  0  0  0  0  0  0  0  0  0  0
   47.2380   32.6220   42.2210 C   0  0  0  0  0  0  0  0  0  0  0  0
   47.4440   31.6020   42.5810 H   0  0  0  0  0  0  0  0  0  0  0  0
   46.1280   32.7250   42.1250 H   0  0  0  0  0  0  0  0  0  0  0  0
   49.3390   32.1260   39.1410 C   0  0  0  0  0  0  0  0  0  0  0  0
   48.8180   31.9870   40.4420 C   0  0  0  0  0  0  0  0  0  0  0  0
   47.7750   32.7850   40.8440 C   0  0  0  0  0  0  0  0  0  0  0  0
   47.2960   33.6730   39.9620 N   0  0  0  0  0  0  0  0  0  0  0  0
   47.7960   33.8050   38.7170 C   0  0  0  0  0  0  0  0  0  0  0  0
   48.8120   33.0420   38.2970 N   0  0  0  0  0  0  0  0  0  0  0  0
   50.1530   31.5060   38.8190 H   0  0  0  0  0  0  0  0  0  0  0  0
   49.2450   31.2510   41.1140 H   0  0  0  0  0  0  0  0  0  0  0  0
   47.3460   34.5500   38.0710 H   0  0  0  0  0  0  0  0  0  0  0  0
   46.5640   33.4390   45.6720 O   0  0  0  0  0  0  0  0  0  0  0  0
   45.5880   31.0930   44.8870 O   0  0  0  0  0  0  0  0  0  0  0  0
   46.1960   31.8510   46.0750 P   0  0  2  0  0  0  0  0  0  0  0  0
   44.9300   31.9340   47.2250 O   0  0  0  0  0  0  0  0  0  0  0  0
   44.3980   31.1220   47.1680 H   0  0  0  0  0  0  0  0  0  0  0  0
   47.4740   31.0470   46.7660 O   0  0  0  0  0  0  0  0  0  0  0  0
   46.3630   28.9860   47.0050 C   0  0  0  0  0  3  0  0  0  0  0  0
   47.5390   29.7260   47.1110 C   0  0  0  0  0  0  0  0  0  0  0  0
   48.6580   29.0380   47.5580 C   0  0  0  0  0  0  0  0  0  0  0  0
   49.5720   29.6140   47.6400 H   0  0  0  0  0  0  0  0  0  0  0  0
   48.6450   27.7120   47.8840 C   0  0  0  0  0  0  0  0  0  0  0  0
   49.5850   26.8710   48.3260 N   0  0  0  0  0  0  0  0  0  0  0  0
   50.5870   27.0820   48.5190 H   0  0  0  0  0  0  0  0  0  0  0  0
   49.0300   25.6620   48.4890 C   0  0  0  0  0  0  0  0  0  0  0  0
   49.5580   24.7810   48.8380 H   0  0  0  0  0  0  0  0  0  0  0  0
   47.6890   25.6780   48.1540 C   0  0  0  0  0  3  0  0  0  0  0  0
   47.4710   26.9920   47.7740 C   0  0  0  0  0  0  0  0  0  0  0  0
   46.3350   27.6560   47.3290 C   0  0  0  0  0  3  0  0  0  0  0  0
  1  6  1  0  0  0  0
  2  7  1  0  0  0  0
  2  1  1  0  0  0  0
  3  2  1  0  0  0  0
  3  4  1  0  0  0  0
  4 11  1  0  0  0  0
  4  5  1  0  0  0  0
  5 13  1  0  0  0  0
  5 14  1  0  0  0  0
  6 15  1  6  0  0  0
  6  5  1  0  0  0  0
  6 31  1  0  0  0  0
  8  2  1  0  0  0  0
  9  3  1  0  0  0  0
 10  3  1  0  0  0  0
 12  4  1  0  0  0  0
 16  1  1  0  0  0  0
 16 18  1  0  0  0  0
 17 16  1  0  0  0  0
 19 20  1  0  0  0  0
 19 16  1  0  0  0  0
 21 19  1  0  0  0  0
 22 23  1  0  0  0  0
 23 24  2  0  0  0  0
 23 29  1  0  0  0  0
 24 19  1  0  0  0  0
 25 24  1  0  0  0  0
 26 25  2  0  0  0  0
 27 26  1  0  0  0  0
 27 22  2  0  0  0  0
 28 22  1  0  0  0  0
 30 26  1  0  0  0  0
 31 33  1  0  0  0  0
 33 32  2  6  0  0  0
 33 36  1  0  0  0  0
 33 34  1  0  0  0  0
 35 34  1  0  0  0  0
 36 38  1  0  0  0  0
 37 38  2  0  0  0  0
 37 48  1  0  0  0  0
 38 39  1  0  0  0  0
 39 40  1  0  0  0  0
 39 41  2  0  0  0  0
 41 42  1  0  0  0  0
 42 44  1  0  0  0  0
 42 43  1  0  0  0  0
 44 45  1  0  0  0  0
 46 44  2  0  0  0  0
 47 41  1  0  0  0  0
 47 46  1  0  0  0  0
 48 47  2  0  0  0  0
M  END
>  <minimizedAffinity>
-4.62636423

>  <minimizedRMSD>
1.89631104

$$$$
