
 OpenBabel03242517163D

 36 39  0  0  0  0  0  0  0  0999 V2000
   44.7200   35.0450   43.9560 C   0  0  0  0  0  0  0  0  0  0  0  0
   44.1570   34.5220   42.7800 C   0  0  0  0  0  0  0  0  0  0  0  0
   44.3700   33.1830   42.5150 C   0  0  0  0  0  0  0  0  0  0  0  0
   45.1100   32.4700   43.4130 N   0  0  0  0  0  0  0  0  0  0  0  0
   45.6370   32.9920   44.5270 C   0  0  0  0  0  0  0  0  0  0  0  0
   45.4310   34.2910   44.7870 N   0  0  0  0  0  0  0  0  0  0  0  0
   44.5450   36.0850   44.1460 H   0  0  0  0  0  0  0  0  0  0  0  0
   43.9730   32.6930   41.6290 H   0  0  0  0  0  0  0  0  0  0  0  0
   47.0610   31.0400   45.0690 C   0  0  0  0  0  0  0  0  0  0  0  0
   46.4230   32.1960   45.4640 C   0  0  0  0  0  0  0  0  0  0  0  0
   46.5620   32.5620   46.7690 C   0  0  0  0  0  0  0  0  0  0  0  0
   46.0710   33.4730   47.1210 H   0  0  0  0  0  0  0  0  0  0  0  0
   47.3080   31.8020   47.6460 C   0  0  0  0  0  0  0  0  0  0  0  0
   47.6050   31.9250   48.9560 N   0  0  0  0  0  0  0  0  0  0  0  0
   47.2840   32.6880   49.5630 H   0  0  0  0  0  0  0  0  0  0  0  0
   48.3860   30.9040   49.3640 C   0  0  0  0  0  0  0  0  0  0  0  0
   48.7810   30.7390   50.3640 H   0  0  0  0  0  0  0  0  0  0  0  0
   48.5930   30.0980   48.2640 C   0  0  0  0  0  0  0  0  0  0  0  0
   47.9250   30.6510   47.1920 C   0  0  0  0  0  0  0  0  0  0  0  0
   47.8270   30.2220   45.8800 C   0  0  0  0  0  0  0  0  0  0  0  0
   43.3750   35.3340   41.8590 C   0  0  0  0  0  0  0  0  0  0  0  0
   42.0910   35.2150   41.6310 C   0  0  0  0  0  0  0  0  0  0  0  0
   41.3620   36.0930   40.6660 C   0  0  0  0  0  0  0  0  0  0  0  0
   40.9520   36.9990   41.1530 H   0  0  0  0  0  0  0  0  0  0  0  0
   42.1680   36.4780   39.9800 H   0  0  0  0  0  0  0  0  0  0  0  0
   41.5820   35.9470   37.8920 F   0  0  0  0  0  0  0  0  0  0  0  0
   40.5550   35.2620   38.4810 C   0  0  0  0  0  0  0  0  0  0  0  0
   40.4280   35.3220   39.8670 C   0  0  0  0  0  0  0  0  0  0  0  0
   39.3580   34.5900   40.3240 C   0  0  0  0  0  0  0  0  0  0  0  0
   38.4590   33.8520   39.5880 C   0  0  0  0  0  0  0  0  0  0  0  0
   38.6850   33.8660   38.2170 C   0  0  0  0  0  0  0  0  0  0  0  0
   39.7140   34.5520   37.6190 C   0  0  0  0  0  0  0  0  0  0  0  0
   39.1780   34.5800   41.4040 H   0  0  0  0  0  0  0  0  0  0  0  0
   37.6540   33.3150   40.0470 H   0  0  0  0  0  0  0  0  0  0  0  0
   38.0180   33.3060   37.5710 H   0  0  0  0  0  0  0  0  0  0  0  0
   39.9040   34.5730   36.5550 H   0  0  0  0  0  0  0  0  0  0  0  0
  1  7  1  0  0  0  0
  1  6  1  0  0  0  0
  2  1  2  0  0  0  0
  3  2  1  0  0  0  0
  3  4  2  0  0  0  0
  4  5  1  0  0  0  0
  5  6  2  0  0  0  0
  5 10  1  0  0  0  0
  8  3  1  0  0  0  0
  9 10  2  0  0  0  0
  9 20  1  0  0  0  0
 10 11  1  0  0  0  0
 11 12  1  0  0  0  0
 11 13  2  0  0  0  0
 13 14  1  0  0  0  0
 14 16  1  0  0  0  0
 14 15  1  0  0  0  0
 16 17  1  0  0  0  0
 18 16  2  0  0  0  0
 19 13  1  0  0  0  0
 19 18  1  0  0  0  0
 20 19  2  0  0  0  0
 21  2  1  0  0  0  0
 22 21  2  0  0  0  0
 23 24  1  0  0  0  0
 23 22  1  0  0  0  0
 25 23  1  0  0  0  0
 26 27  1  0  0  0  0
 27 28  1  0  0  0  0
 28 29  2  0  0  0  0
 28 23  1  0  0  0  0
 29 33  1  0  0  0  0
 30 34  1  0  0  0  0
 30 29  1  0  0  0  0
 31 30  2  0  0  0  0
 32 31  1  0  0  0  0
 32 27  2  0  0  0  0
 35 31  1  0  0  0  0
 36 32  1  0  0  0  0
M  END
>  <minimizedAffinity>
-6.95906401

>  <minimizedRMSD>
1.54171824

$$$$
