
 OpenBabel03252508593D

 48 51  0  0  1  0  0  0  0  0999 V2000
   46.9530   34.3080   43.3450 N   0  0  0  0  0  0  0  0  0  0  0  0
   46.5030   35.4940   42.7090 C   0  0  0  0  0  0  0  0  0  0  0  0
   45.0260   35.7750   42.8420 C   0  0  0  0  0  0  0  0  0  0  0  0
   44.4110   35.2960   44.1310 C   0  0  0  0  0  0  0  0  0  0  0  0
   45.4570   34.7450   45.0700 C   0  0  0  0  0  0  0  0  0  0  0  0
   46.1390   33.6110   44.2210 C   0  0  2  0  0  0  0  0  0  0  0  0
   47.0220   36.3410   43.2250 H   0  0  0  0  0  0  0  0  0  0  0  0
   46.7520   35.5930   41.6510 H   0  0  0  0  0  0  0  0  0  0  0  0
   44.8730   36.8940   42.8270 H   0  0  0  0  0  0  0  0  0  0  0  0
   44.4660   35.4010   41.9570 H   0  0  0  0  0  0  0  0  0  0  0  0
   43.7630   36.0180   44.6310 H   0  0  0  0  0  0  0  0  0  0  0  0
   43.7480   34.4330   43.8620 H   0  0  0  0  0  0  0  0  0  0  0  0
   46.2130   35.4750   45.3670 H   0  0  0  0  0  0  0  0  0  0  0  0
   44.9600   34.2070   45.8960 H   0  0  0  0  0  0  0  0  0  0  0  0
   45.3150   32.9920   43.8100 H   0  0  0  0  0  0  0  0  0  0  0  0
   47.9520   33.5900   42.6090 C   0  0  0  0  0  0  0  0  0  0  0  0
   48.6460   34.3160   42.1490 H   0  0  0  0  0  0  0  0  0  0  0  0
   48.5250   32.9630   43.3320 H   0  0  0  0  0  0  0  0  0  0  0  0
   47.2760   32.6780   41.6370 C   0  0  0  0  0  0  0  0  0  0  0  0
   47.3410   31.6110   41.9000 H   0  0  0  0  0  0  0  0  0  0  0  0
   46.1900   32.9350   41.5460 H   0  0  0  0  0  0  0  0  0  0  0  0
   49.2780   32.1520   38.4970 C   0  0  0  0  0  0  0  0  0  0  0  0
   48.7230   31.9620   39.7770 C   0  0  0  0  0  0  0  0  0  0  0  0
   47.8530   32.8960   40.2840 C   0  0  0  0  0  0  0  0  0  0  0  0
   47.5690   33.9620   39.5220 N   0  0  0  0  0  0  0  0  0  0  0  0
   48.1020   34.1420   38.2960 C   0  0  0  0  0  0  0  0  0  0  0  0
   48.9530   33.2490   37.7760 N   0  0  0  0  0  0  0  0  0  0  0  0
   49.9580   31.4270   38.0940 H   0  0  0  0  0  0  0  0  0  0  0  0
   48.9870   31.0810   40.3510 H   0  0  0  0  0  0  0  0  0  0  0  0
   47.8170   35.0330   37.7490 H   0  0  0  0  0  0  0  0  0  0  0  0
   46.8730   32.9390   45.1870 O   0  0  0  0  0  0  0  0  0  0  0  0
   45.4080   30.8690   44.3850 O   0  0  0  0  0  0  0  0  0  0  0  0
   46.2460   31.4220   45.5460 P   0  0  2  0  0  0  0  0  0  0  0  0
   45.1190   31.6620   46.8130 O   0  0  0  0  0  0  0  0  0  0  0  0
   44.4400   30.9680   46.7660 H   0  0  0  0  0  0  0  0  0  0  0  0
   47.4020   30.3530   46.0740 O   0  0  0  0  0  0  0  0  0  0  0  0
   47.8540   28.1300   45.4470 C   0  0  0  0  0  3  0  0  0  0  0  0
   47.2480   29.0200   46.3320 C   0  0  0  0  0  0  0  0  0  0  0  0
   46.5470   28.4530   47.3870 C   0  0  0  0  0  0  0  0  0  0  0  0
   46.0760   29.1450   48.0740 H   0  0  0  0  0  0  0  0  0  0  0  0
   46.4370   27.1060   47.5790 C   0  0  0  0  0  0  0  0  0  0  0  0
   45.8250   26.3630   48.5050 N   0  0  0  0  0  0  0  0  0  0  0  0
   45.2710   26.6960   49.3230 H   0  0  0  0  0  0  0  0  0  0  0  0
   46.0350   25.0700   48.2200 C   0  0  0  0  0  0  0  0  0  0  0  0
   45.6550   24.2380   48.8030 H   0  0  0  0  0  0  0  0  0  0  0  0
   46.8030   24.9290   47.0790 C   0  0  0  0  0  3  0  0  0  0  0  0
   47.0440   26.2370   46.6930 C   0  0  0  0  0  0  0  0  0  0  0  0
   47.7520   26.7760   45.6270 C   0  0  0  0  0  3  0  0  0  0  0  0
  1  6  1  0  0  0  0
  2  3  1  0  0  0  0
  2  7  1  0  0  0  0
  2  1  1  0  0  0  0
  3  4  1  0  0  0  0
  4 11  1  0  0  0  0
  4  5  1  0  0  0  0
  5 13  1  0  0  0  0
  5 14  1  0  0  0  0
  6 15  1  6  0  0  0
  6  5  1  0  0  0  0
  6 31  1  0  0  0  0
  8  2  1  0  0  0  0
  9  3  1  0  0  0  0
 10  3  1  0  0  0  0
 12  4  1  0  0  0  0
 16 18  1  0  0  0  0
 16  1  1  0  0  0  0
 17 16  1  0  0  0  0
 19 20  1  0  0  0  0
 19 16  1  0  0  0  0
 21 19  1  0  0  0  0
 22 23  1  0  0  0  0
 23 24  2  0  0  0  0
 23 29  1  0  0  0  0
 24 19  1  0  0  0  0
 25 24  1  0  0  0  0
 26 25  2  0  0  0  0
 27 26  1  0  0  0  0
 27 22  2  0  0  0  0
 28 22  1  0  0  0  0
 30 26  1  0  0  0  0
 31 33  1  0  0  0  0
 33 32  2  6  0  0  0
 33 36  1  0  0  0  0
 33 34  1  0  0  0  0
 35 34  1  0  0  0  0
 36 38  1  0  0  0  0
 37 48  2  0  0  0  0
 37 38  1  0  0  0  0
 38 39  2  0  0  0  0
 39 41  1  0  0  0  0
 39 40  1  0  0  0  0
 41 42  1  0  0  0  0
 42 43  1  0  0  0  0
 44 42  1  0  0  0  0
 44 45  1  0  0  0  0
 46 44  2  0  0  0  0
 47 46  1  0  0  0  0
 47 41  2  0  0  0  0
 48 47  1  0  0  0  0
M  END
>  <minimizedAffinity>
-4.42178297

>  <minimizedRMSD>
1.00574684

$$$$
