
 OpenBabel03252505333D

 33 36  0  0  0  0  0  0  0  0999 V2000
   46.4690   34.7200   42.1640 C   0  0  0  0  0  0  0  0  0  0  0  0
   47.7570   35.1590   42.0050 C   0  0  0  0  0  0  0  0  0  0  0  0
   48.4980   34.9690   40.8410 C   0  0  0  0  0  0  0  0  0  0  0  0
   47.9240   34.3060   39.7810 C   0  0  0  0  0  0  0  0  0  0  0  0
   46.6360   33.8640   39.9360 C   0  0  0  0  0  0  0  0  0  0  0  0
   45.9170   34.0630   41.0990 C   0  0  0  0  0  0  0  0  0  0  0  0
   48.2630   35.6920   42.8130 H   0  0  0  0  0  0  0  0  0  0  0  0
   49.5000   35.3270   40.7610 H   0  0  0  0  0  0  0  0  0  0  0  0
   48.4760   34.1410   38.8590 H   0  0  0  0  0  0  0  0  0  0  0  0
   46.1220   33.3280   39.1260 H   0  0  0  0  0  0  0  0  0  0  0  0
   43.7130   34.3110   40.3530 C   0  0  0  0  0  0  0  0  0  0  0  0
   44.5470   33.5670   41.1960 C   0  0  0  0  0  0  0  0  0  0  0  0
   44.0010   32.5460   41.9470 C   0  0  0  0  0  0  0  0  0  0  0  0
   44.7380   32.0620   42.5440 H   0  0  0  0  0  0  0  0  0  0  0  0
   42.6710   32.2840   41.8540 C   0  0  0  0  0  0  0  0  0  0  0  0
   41.9500   31.3530   42.4860 N   0  0  0  0  0  0  0  0  0  0  0  0
   42.2860   30.6500   43.1740 H   0  0  0  0  0  0  0  0  0  0  0  0
   40.6770   31.4660   42.0830 C   0  0  0  0  0  0  0  0  0  0  0  0
   39.7930   30.8900   42.3690 H   0  0  0  0  0  0  0  0  0  0  0  0
   40.5320   32.4930   41.1610 C   0  0  0  0  0  0  0  0  0  0  0  0
   41.8150   33.0030   41.0270 C   0  0  0  0  0  0  0  0  0  0  0  0
   42.3500   34.0250   40.2730 C   0  0  0  0  0  0  0  0  0  0  0  0
   44.4220   36.2520   44.9090 C   0  0  0  0  0  0  0  0  0  0  0  0
   45.0220   36.1120   43.6480 C   0  0  0  0  0  0  0  0  0  0  0  0
   45.8070   34.9750   43.4090 C   0  0  0  0  0  0  0  0  0  0  0  0
   45.9460   34.0700   44.4050 N   0  0  0  0  0  0  0  0  0  0  0  0
   45.3460   34.2510   45.6070 C   0  0  0  0  0  0  0  0  0  0  0  0
   44.5870   35.3380   45.8560 N   0  0  0  0  0  0  0  0  0  0  0  0
   45.5080   33.2840   46.6460 N   0  0  0  0  0  0  0  0  0  0  0  0
   43.8170   37.1550   45.0560 H   0  0  0  0  0  0  0  0  0  0  0  0
   44.9110   36.8380   42.8460 H   0  0  0  0  0  0  0  0  0  0  0  0
   44.6750   33.0060   47.2220 H   0  0  0  0  0  0  0  0  0  0  0  0
   46.4870   32.9050   46.7610 H   0  0  0  0  0  0  0  0  0  0  0  0
  1 25  1  0  0  0  0
  2  1  1  0  0  0  0
  2  7  1  0  0  0  0
  3  2  2  0  0  0  0
  4  5  2  0  0  0  0
  4  3  1  0  0  0  0
  5  6  1  0  0  0  0
  6 12  1  0  0  0  0
  6  1  2  0  0  0  0
  8  3  1  0  0  0  0
  9  4  1  0  0  0  0
 10  5  1  0  0  0  0
 11 12  1  0  0  0  0
 12 13  2  0  0  0  0
 13 14  1  0  0  0  0
 15 13  1  0  0  0  0
 15 16  1  0  0  0  0
 16 17  1  0  0  0  0
 18 19  1  0  0  0  0
 18 16  1  0  0  0  0
 20 18  2  0  0  0  0
 21 20  1  0  0  0  0
 21 15  2  0  0  0  0
 22 11  2  0  0  0  0
 22 21  1  0  0  0  0
 23 30  1  0  0  0  0
 23 28  1  0  0  0  0
 24 23  2  0  0  0  0
 25 24  1  0  0  0  0
 25 26  2  0  0  0  0
 26 27  1  0  0  0  0
 27 28  2  0  0  0  0
 27 29  1  0  0  0  0
 29 33  1  0  0  0  0
 29 32  1  0  0  0  0
 31 24  1  0  0  0  0
M  END
>  <minimizedAffinity>
-7.13954449

>  <minimizedRMSD>
1.0501219

$$$$
