
 OpenBabel03252508593D

 48 51  0  0  1  0  0  0  0  0999 V2000
   47.1630   34.1700   43.0820 N   0  0  0  0  0  0  0  0  0  0  0  0
   46.6960   35.3210   42.3940 C   0  0  0  0  0  0  0  0  0  0  0  0
   45.2290   35.6260   42.5740 C   0  0  0  0  0  0  0  0  0  0  0  0
   44.6680   35.2350   43.9160 C   0  0  0  0  0  0  0  0  0  0  0  0
   45.7500   34.7300   44.8410 C   0  0  0  0  0  0  0  0  0  0  0  0
   46.3830   33.5380   44.0340 C   0  0  2  0  0  0  0  0  0  0  0  0
   47.2450   36.1910   42.8330 H   0  0  0  0  0  0  0  0  0  0  0  0
   46.8980   35.3520   41.3210 H   0  0  0  0  0  0  0  0  0  0  0  0
   45.0860   36.7440   42.4970 H   0  0  0  0  0  0  0  0  0  0  0  0
   44.6270   35.2060   41.7390 H   0  0  0  0  0  0  0  0  0  0  0  0
   44.0500   35.9930   44.3990 H   0  0  0  0  0  0  0  0  0  0  0  0
   43.9860   34.3650   43.7310 H   0  0  0  0  0  0  0  0  0  0  0  0
   46.5250   35.4670   45.0580 H   0  0  0  0  0  0  0  0  0  0  0  0
   45.2850   34.2490   45.7190 H   0  0  0  0  0  0  0  0  0  0  0  0
   45.5350   32.9050   43.6980 H   0  0  0  0  0  0  0  0  0  0  0  0
   48.1220   33.3970   42.3480 C   0  0  0  0  0  0  0  0  0  0  0  0
   48.8140   34.0860   41.8300 H   0  0  0  0  0  0  0  0  0  0  0  0
   48.7070   32.7920   43.0810 H   0  0  0  0  0  0  0  0  0  0  0  0
   47.3940   32.4550   41.4440 C   0  0  0  0  0  0  0  0  0  0  0  0
   47.4300   31.4030   41.7660 H   0  0  0  0  0  0  0  0  0  0  0  0
   46.3160   32.7430   41.3610 H   0  0  0  0  0  0  0  0  0  0  0  0
   49.2730   31.6650   38.2830 C   0  0  0  0  0  0  0  0  0  0  0  0
   48.7420   31.5670   39.5830 C   0  0  0  0  0  0  0  0  0  0  0  0
   47.9470   32.5770   40.0690 C   0  0  0  0  0  0  0  0  0  0  0  0
   47.7120   33.6250   39.2670 N   0  0  0  0  0  0  0  0  0  0  0  0
   48.2230   33.7160   38.0220 C   0  0  0  0  0  0  0  0  0  0  0  0
   49.0000   32.7480   37.5220 N   0  0  0  0  0  0  0  0  0  0  0  0
   49.8940   30.8800   37.8960 H   0  0  0  0  0  0  0  0  0  0  0  0
   48.9640   30.6960   40.1890 H   0  0  0  0  0  0  0  0  0  0  0  0
   47.9810   34.6000   37.4430 H   0  0  0  0  0  0  0  0  0  0  0  0
   47.1540   32.9170   45.0060 O   0  0  0  0  0  0  0  0  0  0  0  0
   45.8260   30.7160   44.3250 O   0  0  0  0  0  0  0  0  0  0  0  0
   46.5290   31.4340   45.4860 P   0  0  2  0  0  0  0  0  0  0  0  0
   45.2750   31.7830   46.5980 O   0  0  0  0  0  0  0  0  0  0  0  0
   44.6200   31.0650   46.5710 H   0  0  0  0  0  0  0  0  0  0  0  0
   47.6510   30.4770   46.2500 O   0  0  0  0  0  0  0  0  0  0  0  0
   48.8010   28.4330   46.4540 C   0  0  0  0  0  3  0  0  0  0  0  0
   47.5920   29.1270   46.4560 C   0  0  0  0  0  0  0  0  0  0  0  0
   46.4510   28.3680   46.6690 C   0  0  0  0  0  0  0  0  0  0  0  0
   45.5120   28.9090   46.6700 H   0  0  0  0  0  0  0  0  0  0  0  0
   46.4710   27.0180   46.8680 C   0  0  0  0  0  0  0  0  0  0  0  0
   45.5130   26.1120   47.0870 N   0  0  0  0  0  0  0  0  0  0  0  0
   44.4860   26.2770   47.1530 H   0  0  0  0  0  0  0  0  0  0  0  0
   46.0880   24.9080   47.2160 C   0  0  0  0  0  0  0  0  0  0  0  0
   45.5530   23.9830   47.4000 H   0  0  0  0  0  0  0  0  0  0  0  0
   47.4630   24.9930   47.0830 C   0  0  0  0  0  3  0  0  0  0  0  0
   47.6780   26.3440   46.8630 C   0  0  0  0  0  0  0  0  0  0  0  0
   48.8370   27.0780   46.6520 C   0  0  0  0  0  3  0  0  0  0  0  0
  1  6  1  0  0  0  0
  2  3  1  0  0  0  0
  2  7  1  0  0  0  0
  2  1  1  0  0  0  0
  3  4  1  0  0  0  0
  4 11  1  0  0  0  0
  4  5  1  0  0  0  0
  5 13  1  0  0  0  0
  5 14  1  0  0  0  0
  6 15  1  6  0  0  0
  6  5  1  0  0  0  0
  6 31  1  0  0  0  0
  8  2  1  0  0  0  0
  9  3  1  0  0  0  0
 10  3  1  0  0  0  0
 12  4  1  0  0  0  0
 16 18  1  0  0  0  0
 16  1  1  0  0  0  0
 17 16  1  0  0  0  0
 19 20  1  0  0  0  0
 19 16  1  0  0  0  0
 21 19  1  0  0  0  0
 22 23  1  0  0  0  0
 23 24  2  0  0  0  0
 23 29  1  0  0  0  0
 24 19  1  0  0  0  0
 25 24  1  0  0  0  0
 26 25  2  0  0  0  0
 27 26  1  0  0  0  0
 27 22  2  0  0  0  0
 28 22  1  0  0  0  0
 30 26  1  0  0  0  0
 31 33  1  0  0  0  0
 33 32  2  6  0  0  0
 33 36  1  0  0  0  0
 33 34  1  0  0  0  0
 35 34  1  0  0  0  0
 36 38  1  0  0  0  0
 37 38  2  0  0  0  0
 37 48  1  0  0  0  0
 38 39  1  0  0  0  0
 39 40  1  0  0  0  0
 39 41  2  0  0  0  0
 41 42  1  0  0  0  0
 42 43  1  0  0  0  0
 42 44  1  0  0  0  0
 44 45  1  0  0  0  0
 46 44  2  0  0  0  0
 47 41  1  0  0  0  0
 47 46  1  0  0  0  0
 48 47  2  0  0  0  0
M  END
>  <minimizedAffinity>
-3.94974566

>  <minimizedRMSD>
0.871940732

$$$$
