
 OpenBabel03252508593D

 48 51  0  0  1  0  0  0  0  0999 V2000
   47.1600   34.1700   43.0900 N   0  0  0  0  0  0  0  0  0  0  0  0
   46.7470   35.2900   42.3210 C   0  0  0  0  0  0  0  0  0  0  0  0
   45.2920   35.6630   42.4560 C   0  0  0  0  0  0  0  0  0  0  0  0
   44.6970   35.3830   43.8110 C   0  0  0  0  0  0  0  0  0  0  0  0
   45.7450   34.8990   44.7850 C   0  0  0  0  0  0  0  0  0  0  0  0
   46.3410   33.6330   44.0690 C   0  0  2  0  0  0  0  0  0  0  0  0
   47.3250   36.1650   42.7110 H   0  0  0  0  0  0  0  0  0  0  0  0
   46.9660   35.2410   41.2520 H   0  0  0  0  0  0  0  0  0  0  0  0
   45.1940   36.7780   42.3030 H   0  0  0  0  0  0  0  0  0  0  0  0
   44.6850   35.2110   41.6410 H   0  0  0  0  0  0  0  0  0  0  0  0
   44.1020   36.1950   44.2330 H   0  0  0  0  0  0  0  0  0  0  0  0
   43.9840   34.5300   43.6720 H   0  0  0  0  0  0  0  0  0  0  0  0
   46.5460   35.6190   44.9660 H   0  0  0  0  0  0  0  0  0  0  0  0
   45.2500   34.4960   45.6860 H   0  0  0  0  0  0  0  0  0  0  0  0
   45.4740   33.0120   43.7620 H   0  0  0  0  0  0  0  0  0  0  0  0
   48.0970   33.3130   42.4250 C   0  0  0  0  0  0  0  0  0  0  0  0
   48.8140   33.9380   41.8630 H   0  0  0  0  0  0  0  0  0  0  0  0
   48.6570   32.7470   43.2060 H   0  0  0  0  0  0  0  0  0  0  0  0
   47.3450   32.3300   41.5880 C   0  0  0  0  0  0  0  0  0  0  0  0
   47.3410   31.3050   41.9910 H   0  0  0  0  0  0  0  0  0  0  0  0
   46.2780   32.6470   41.4700 H   0  0  0  0  0  0  0  0  0  0  0  0
   49.2220   31.2320   38.5200 C   0  0  0  0  0  0  0  0  0  0  0  0
   48.6760   31.2540   39.8170 C   0  0  0  0  0  0  0  0  0  0  0  0
   47.9140   32.3250   40.2140 C   0  0  0  0  0  0  0  0  0  0  0  0
   47.7240   33.3150   39.3310 N   0  0  0  0  0  0  0  0  0  0  0  0
   48.2480   33.2920   38.0890 C   0  0  0  0  0  0  0  0  0  0  0  0
   48.9940   32.2620   37.6740 N   0  0  0  0  0  0  0  0  0  0  0  0
   49.8180   30.3980   38.2010 H   0  0  0  0  0  0  0  0  0  0  0  0
   48.8610   30.4250   40.4910 H   0  0  0  0  0  0  0  0  0  0  0  0
   48.0430   34.1370   37.4400 H   0  0  0  0  0  0  0  0  0  0  0  0
   47.0740   33.0490   45.0920 O   0  0  0  0  0  0  0  0  0  0  0  0
   45.6290   30.8770   44.5750 O   0  0  0  0  0  0  0  0  0  0  0  0
   46.3660   31.6440   45.6810 P   0  0  2  0  0  0  0  0  0  0  0  0
   45.1290   32.1480   46.7530 O   0  0  0  0  0  0  0  0  0  0  0  0
   44.4360   31.4660   46.7770 H   0  0  0  0  0  0  0  0  0  0  0  0
   47.4310   30.6900   46.5270 O   0  0  0  0  0  0  0  0  0  0  0  0
   46.0720   28.7680   46.5310 C   0  0  0  0  0  3  0  0  0  0  0  0
   47.2780   29.3770   46.8740 C   0  0  0  0  0  0  0  0  0  0  0  0
   48.2010   28.5790   47.5340 C   0  0  0  0  0  0  0  0  0  0  0  0
   49.1380   29.0530   47.7990 H   0  0  0  0  0  0  0  0  0  0  0  0
   47.9760   27.2690   47.8460 C   0  0  0  0  0  0  0  0  0  0  0  0
   48.7090   26.3380   48.4640 N   0  0  0  0  0  0  0  0  0  0  0  0
   49.6680   26.4420   48.8560 H   0  0  0  0  0  0  0  0  0  0  0  0
   48.0010   25.2010   48.5090 C   0  0  0  0  0  0  0  0  0  0  0  0
   48.3470   24.2740   48.9540 H   0  0  0  0  0  0  0  0  0  0  0  0
   46.7630   25.3580   47.9110 C   0  0  0  0  0  3  0  0  0  0  0  0
   46.7750   26.6810   47.4990 C   0  0  0  0  0  0  0  0  0  0  0  0
   45.8320   27.4550   46.8380 C   0  0  0  0  0  3  0  0  0  0  0  0
  1  6  1  0  0  0  0
  2  3  1  0  0  0  0
  2  7  1  0  0  0  0
  2  1  1  0  0  0  0
  3  4  1  0  0  0  0
  4 11  1  0  0  0  0
  4  5  1  0  0  0  0
  5 13  1  0  0  0  0
  5 14  1  0  0  0  0
  6 15  1  6  0  0  0
  6  5  1  0  0  0  0
  6 31  1  0  0  0  0
  8  2  1  0  0  0  0
  9  3  1  0  0  0  0
 10  3  1  0  0  0  0
 12  4  1  0  0  0  0
 16  1  1  0  0  0  0
 16 18  1  0  0  0  0
 17 16  1  0  0  0  0
 19 20  1  0  0  0  0
 19 16  1  0  0  0  0
 21 19  1  0  0  0  0
 22 23  1  0  0  0  0
 23 24  2  0  0  0  0
 23 29  1  0  0  0  0
 24 19  1  0  0  0  0
 25 24  1  0  0  0  0
 26 25  2  0  0  0  0
 27 26  1  0  0  0  0
 27 22  2  0  0  0  0
 28 22  1  0  0  0  0
 30 26  1  0  0  0  0
 31 33  1  0  0  0  0
 33 32  2  6  0  0  0
 33 36  1  0  0  0  0
 33 34  1  0  0  0  0
 34 35  1  0  0  0  0
 36 38  1  0  0  0  0
 37 48  2  0  0  0  0
 37 38  1  0  0  0  0
 38 39  2  0  0  0  0
 39 40  1  0  0  0  0
 39 41  1  0  0  0  0
 41 42  1  0  0  0  0
 42 44  1  0  0  0  0
 42 43  1  0  0  0  0
 44 45  1  0  0  0  0
 46 44  2  0  0  0  0
 47 41  2  0  0  0  0
 47 46  1  0  0  0  0
 48 47  1  0  0  0  0
M  END
>  <minimizedAffinity>
-4.06576967

>  <minimizedRMSD>
1.38620675

$$$$
