
 OpenBabel03252508593D

 48 51  0  0  1  0  0  0  0  0999 V2000
   46.9110   34.3370   43.3620 N   0  0  0  0  0  0  0  0  0  0  0  0
   46.4640   35.5210   42.7190 C   0  0  0  0  0  0  0  0  0  0  0  0
   44.9860   35.8000   42.8400 C   0  0  0  0  0  0  0  0  0  0  0  0
   44.3620   35.3250   44.1260 C   0  0  0  0  0  0  0  0  0  0  0  0
   45.4020   34.7780   45.0750 C   0  0  0  0  0  0  0  0  0  0  0  0
   46.0910   33.6420   44.2350 C   0  0  2  0  0  0  0  0  0  0  0  0
   46.9780   36.3690   43.2350 H   0  0  0  0  0  0  0  0  0  0  0  0
   46.7200   35.6160   41.6620 H   0  0  0  0  0  0  0  0  0  0  0  0
   44.8320   36.9190   42.8200 H   0  0  0  0  0  0  0  0  0  0  0  0
   44.4330   35.4230   41.9520 H   0  0  0  0  0  0  0  0  0  0  0  0
   43.7100   36.0480   44.6190 H   0  0  0  0  0  0  0  0  0  0  0  0
   43.7020   34.4610   43.8560 H   0  0  0  0  0  0  0  0  0  0  0  0
   46.1550   35.5100   45.3740 H   0  0  0  0  0  0  0  0  0  0  0  0
   44.9000   34.2430   45.8990 H   0  0  0  0  0  0  0  0  0  0  0  0
   45.2710   33.0210   43.8200 H   0  0  0  0  0  0  0  0  0  0  0  0
   47.9160   33.6170   42.6350 C   0  0  0  0  0  0  0  0  0  0  0  0
   48.6090   34.3430   42.1740 H   0  0  0  0  0  0  0  0  0  0  0  0
   48.4880   32.9970   43.3660 H   0  0  0  0  0  0  0  0  0  0  0  0
   47.2470   32.6970   41.6660 C   0  0  0  0  0  0  0  0  0  0  0  0
   47.3110   31.6320   41.9390 H   0  0  0  0  0  0  0  0  0  0  0  0
   46.1620   32.9520   41.5660 H   0  0  0  0  0  0  0  0  0  0  0  0
   49.2660   32.1440   38.5420 C   0  0  0  0  0  0  0  0  0  0  0  0
   48.7030   31.9650   39.8190 C   0  0  0  0  0  0  0  0  0  0  0  0
   47.8330   32.9050   40.3150 C   0  0  0  0  0  0  0  0  0  0  0  0
   47.5590   33.9670   39.5450 N   0  0  0  0  0  0  0  0  0  0  0  0
   48.1000   34.1370   38.3220 C   0  0  0  0  0  0  0  0  0  0  0  0
   48.9500   33.2380   37.8120 N   0  0  0  0  0  0  0  0  0  0  0  0
   49.9460   31.4150   38.1470 H   0  0  0  0  0  0  0  0  0  0  0  0
   48.9590   31.0860   40.4000 H   0  0  0  0  0  0  0  0  0  0  0  0
   47.8210   35.0270   37.7680 H   0  0  0  0  0  0  0  0  0  0  0  0
   46.8200   32.9740   45.2080 O   0  0  0  0  0  0  0  0  0  0  0  0
   45.3780   30.9270   44.3100 O   0  0  0  0  0  0  0  0  0  0  0  0
   46.2950   31.3970   45.4480 P   0  0  2  0  0  0  0  0  0  0  0  0
   45.2810   31.4380   46.8270 O   0  0  0  0  0  0  0  0  0  0  0  0
   44.6300   30.7180   46.7630 H   0  0  0  0  0  0  0  0  0  0  0  0
   47.5400   30.3400   45.7500 O   0  0  0  0  0  0  0  0  0  0  0  0
   47.3900   28.1310   44.9530 C   0  0  0  0  0  3  0  0  0  0  0  0
   47.4500   29.0070   46.0350 C   0  0  0  0  0  0  0  0  0  0  0  0
   47.4120   28.4260   47.2950 C   0  0  0  0  0  0  0  0  0  0  0  0
   47.4590   29.1080   48.1360 H   0  0  0  0  0  0  0  0  0  0  0  0
   47.3210   27.0800   47.5010 C   0  0  0  0  0  0  0  0  0  0  0  0
   47.2710   26.3260   48.6040 N   0  0  0  0  0  0  0  0  0  0  0  0
   47.2940   26.6470   49.5940 H   0  0  0  0  0  0  0  0  0  0  0  0
   47.1840   25.0410   48.2350 C   0  0  0  0  0  0  0  0  0  0  0  0
   47.1270   24.2020   48.9210 H   0  0  0  0  0  0  0  0  0  0  0  0
   47.1730   24.9140   46.8570 C   0  0  0  0  0  3  0  0  0  0  0  0
   47.2620   26.2250   46.4170 C   0  0  0  0  0  0  0  0  0  0  0  0
   47.2980   26.7780   45.1440 C   0  0  0  0  0  3  0  0  0  0  0  0
  1  6  1  0  0  0  0
  2  3  1  0  0  0  0
  2  7  1  0  0  0  0
  2  1  1  0  0  0  0
  3  4  1  0  0  0  0
  4 11  1  0  0  0  0
  4  5  1  0  0  0  0
  5 13  1  0  0  0  0
  5 14  1  0  0  0  0
  6 15  1  6  0  0  0
  6  5  1  0  0  0  0
  6 31  1  0  0  0  0
  8  2  1  0  0  0  0
  9  3  1  0  0  0  0
 10  3  1  0  0  0  0
 12  4  1  0  0  0  0
 16  1  1  0  0  0  0
 16 18  1  0  0  0  0
 17 16  1  0  0  0  0
 19 20  1  0  0  0  0
 19 16  1  0  0  0  0
 21 19  1  0  0  0  0
 22 23  1  0  0  0  0
 23 24  2  0  0  0  0
 23 29  1  0  0  0  0
 24 19  1  0  0  0  0
 25 24  1  0  0  0  0
 26 25  2  0  0  0  0
 27 26  1  0  0  0  0
 27 22  2  0  0  0  0
 28 22  1  0  0  0  0
 30 26  1  0  0  0  0
 31 33  1  0  0  0  0
 33 32  2  6  0  0  0
 33 36  1  0  0  0  0
 33 34  1  0  0  0  0
 35 34  1  0  0  0  0
 36 38  1  0  0  0  0
 37 48  2  0  0  0  0
 37 38  1  0  0  0  0
 38 39  2  0  0  0  0
 39 41  1  0  0  0  0
 39 40  1  0  0  0  0
 41 42  1  0  0  0  0
 42 43  1  0  0  0  0
 44 42  1  0  0  0  0
 44 45  1  0  0  0  0
 46 44  2  0  0  0  0
 47 46  1  0  0  0  0
 47 41  2  0  0  0  0
 48 47  1  0  0  0  0
M  END
>  <minimizedAffinity>
-4.40108299

>  <minimizedRMSD>
0.819089234

$$$$
