
 OpenBabel03252506283D

 50 55  0  0  0  0  0  0  0  0999 V2000
   45.7910   33.6060   45.6110 C   0  0  0  0  0  0  0  0  0  0  0  0
   44.8660   34.6300   45.8780 C   0  0  0  0  0  0  0  0  0  0  0  0
   44.7850   35.4350   44.7910 C   0  0  0  0  0  0  0  0  0  0  0  0
   45.6240   34.9290   43.8900 N   0  0  0  0  0  0  0  0  0  0  0  0
   46.2350   33.8370   44.3570 N   0  0  0  0  0  0  0  0  0  0  0  0
   44.2860   34.7950   46.7880 H   0  0  0  0  0  0  0  0  0  0  0  0
   44.1550   36.3190   44.6830 H   0  0  0  0  0  0  0  0  0  0  0  0
   47.4840   31.7190   48.2390 C   0  0  0  0  0  0  0  0  0  0  0  0
   46.8260   30.4800   48.2000 C   0  0  0  0  0  0  0  0  0  0  0  0
   45.8090   30.3170   47.2660 C   0  0  0  0  0  0  0  0  0  0  0  0
   45.5340   31.3610   46.4730 N   0  0  0  0  0  0  0  0  0  0  0  0
   46.1640   32.5420   46.5140 C   0  0  0  0  0  0  0  0  0  0  0  0
   47.1420   32.7020   47.4090 N   0  0  0  0  0  0  0  0  0  0  0  0
   48.2830   31.8500   48.9710 H   0  0  0  0  0  0  0  0  0  0  0  0
   47.0750   29.6790   48.8470 H   0  0  0  0  0  0  0  0  0  0  0  0
   45.2290   28.1060   48.0680 C   0  0  0  0  0  0  0  0  0  0  0  0
   45.0440   29.0860   47.1160 C   0  0  0  0  0  0  0  0  0  0  0  0
   44.1610   28.8690   46.0810 C   0  0  0  0  0  0  0  0  0  0  0  0
   44.0040   29.6080   45.3390 H   0  0  0  0  0  0  0  0  0  0  0  0
   43.4390   27.6790   45.9600 C   0  0  0  0  0  0  0  0  0  0  0  0
   42.5390   27.2360   45.0630 N   0  0  0  0  0  0  0  0  0  0  0  0
   42.2400   27.8140   44.2460 H   0  0  0  0  0  0  0  0  0  0  0  0
   42.1710   25.9950   45.4570 C   0  0  0  0  0  0  0  0  0  0  0  0
   41.4480   25.4770   44.8520 H   0  0  0  0  0  0  0  0  0  0  0  0
   42.8430   25.6460   46.6130 C   0  0  0  0  0  0  0  0  0  0  0  0
   43.6580   26.7140   46.9460 C   0  0  0  0  0  0  0  0  0  0  0  0
   44.5380   26.9090   47.9930 C   0  0  0  0  0  0  0  0  0  0  0  0
   45.8510   35.4860   42.5670 C   0  0  0  0  0  0  0  0  0  0  0  0
   46.9610   35.5840   42.4820 H   0  0  0  0  0  0  0  0  0  0  0  0
   45.4080   36.4740   42.4720 H   0  0  0  0  0  0  0  0  0  0  0  0
   45.4400   34.5090   41.5150 C   0  0  0  0  0  0  0  0  0  0  0  0
   45.9420   33.5370   41.7470 H   0  0  0  0  0  0  0  0  0  0  0  0
   45.8940   34.8310   40.5540 H   0  0  0  0  0  0  0  0  0  0  0  0
   43.1200   35.1630   40.6610 C   0  0  0  0  0  0  0  0  0  0  0  0
   44.0120   34.3370   41.3040 C   0  0  0  0  0  0  0  0  0  0  0  0
   43.4920   33.1590   41.8370 C   0  0  0  0  0  0  0  0  0  0  0  0
   42.1670   32.8360   41.7310 C   0  0  0  0  0  0  0  0  0  0  0  0
   41.4030   31.7990   42.1350 N   0  0  0  0  0  0  0  0  0  0  0  0
   40.1320   31.9610   41.7740 C   0  0  0  0  0  0  0  0  0  0  0  0
   40.0120   33.1710   41.0880 C   0  0  0  0  0  0  0  0  0  0  0  0
   41.2830   33.6620   41.0900 C   0  0  0  0  0  0  0  0  0  0  0  0
   41.7890   34.8330   40.5570 C   0  0  0  0  0  0  0  0  0  0  0  0
   43.5590   36.0680   40.2600 H   0  0  0  0  0  0  0  0  0  0  0  0
   44.0850   32.4170   42.3710 H   0  0  0  0  0  0  0  0  0  0  0  0
   41.7630   30.9580   42.6720 H   0  0  0  0  0  0  0  0  0  0  0  0
   39.2830   31.2900   41.9610 H   0  0  0  0  0  0  0  0  0  0  0  0
   39.1250   33.6060   40.6600 H   0  0  0  0  0  0  0  0  0  0  0  0
   40.8880   35.7530   39.8610 C   0  0  0  0  0  0  0  0  0  0  0  0
   40.9650   35.9380   38.6250 O   0  0  0  0  0  0  0  0  0  0  0  0
   40.1240   36.3070   40.3890 H   0  0  0  0  0  0  0  0  0  0  0  0
  1  2  1  0  0  0  0
  1 12  1  0  0  0  0
  2  6  1  0  0  0  0
  3  2  2  0  0  0  0
  4  5  1  0  0  0  0
  4  3  1  0  0  0  0
  5  1  2  0  0  0  0
  7  3  1  0  0  0  0
  8 14  1  0  0  0  0
  9  8  1  0  0  0  0
  9 15  1  0  0  0  0
 10  9  2  0  0  0  0
 11 12  2  0  0  0  0
 11 10  1  0  0  0  0
 12 13  1  0  0  0  0
 13  8  2  0  0  0  0
 17 10  1  0  0  0  0
 17 16  2  0  0  0  0
 18 17  1  0  0  0  0
 19 18  1  0  0  0  0
 20 18  2  0  0  0  0
 20 26  1  0  0  0  0
 21 23  1  0  0  0  0
 21 20  1  0  0  0  0
 22 21  1  0  0  0  0
 23 25  2  0  0  0  0
 24 23  1  0  0  0  0
 25 26  1  0  0  0  0
 26 27  2  0  0  0  0
 27 16  1  0  0  0  0
 28  4  1  0  0  0  0
 29 28  1  0  0  0  0
 30 28  1  0  0  0  0
 31 32  1  0  0  0  0
 31 28  1  0  0  0  0
 33 31  1  0  0  0  0
 34 35  1  0  0  0  0
 35 31  1  0  0  0  0
 35 36  2  0  0  0  0
 36 44  1  0  0  0  0
 37 36  1  0  0  0  0
 37 38  1  0  0  0  0
 38 45  1  0  0  0  0
 39 46  1  0  0  0  0
 39 38  1  0  0  0  0
 40 41  1  0  0  0  0
 40 39  2  0  0  0  0
 41 37  2  0  0  0  0
 42 34  2  0  0  0  0
 42 41  1  0  0  0  0
 43 34  1  0  0  0  0
 47 40  1  0  0  0  0
 48 50  1  0  0  0  0
 48 42  1  0  0  0  0
 49 48  2  0  0  0  0
M  END
>  <minimizedAffinity>
-7.14138603

>  <minimizedRMSD>
8.95816708

$$$$
