
 OpenBabel03252500393D

 18 19  0  0  0  0  0  0  0  0999 V2000
   45.6260   35.1130   43.5980 C   0  0  0  0  0  0  0  0  0  0  0  0
   46.8020   34.8140   42.8940 C   0  0  0  0  0  0  0  0  0  0  0  0
   47.6220   33.7790   43.3730 C   0  0  0  0  0  0  0  0  0  0  0  0
   47.2190   33.1270   44.4980 N   0  0  0  0  0  0  0  0  0  0  0  0
   46.0750   33.4400   45.1580 C   0  0  0  0  0  0  0  0  0  0  0  0
   45.2780   34.4420   44.6960 N   0  0  0  0  0  0  0  0  0  0  0  0
   47.0580   35.3720   42.0090 H   0  0  0  0  0  0  0  0  0  0  0  0
   48.5090   33.5610   42.8340 H   0  0  0  0  0  0  0  0  0  0  0  0
   45.7940   32.8920   46.0530 H   0  0  0  0  0  0  0  0  0  0  0  0
   44.7810   36.2150   43.0620 C   0  0  0  0  0  0  0  0  0  0  0  0
   43.7030   35.9290   43.2360 H   0  0  0  0  0  0  0  0  0  0  0  0
   44.9320   36.2950   41.9590 H   0  0  0  0  0  0  0  0  0  0  0  0
   45.0050   37.4840   43.6620 C   0  0  0  0  0  0  0  0  0  0  0  0
   45.3830   38.7270   43.0510 C   0  0  0  0  0  0  0  0  0  0  0  0
   45.5230   38.7250   41.9850 H   0  0  0  0  0  0  0  0  0  0  0  0
   45.5410   39.8270   43.8420 C   0  0  0  0  0  3  0  0  0  0  0  0
   45.3000   39.6230   45.2910 C   0  0  0  0  0  3  0  0  0  0  0  0
   44.8500   37.7880   45.3730 S   0  0  0  0  0  0  0  0  0  0  0  0
  1  6  1  0  0  0  0
  2  3  1  0  0  0  0
  2  1  2  0  0  0  0
  3  4  2  0  0  0  0
  4  5  1  0  0  0  0
  5  9  1  0  0  0  0
  6  5  2  0  0  0  0
  7  2  1  0  0  0  0
  8  3  1  0  0  0  0
 10 11  1  0  0  0  0
 10  1  1  0  0  0  0
 10 13  1  0  0  0  0
 12 10  1  0  0  0  0
 13 18  1  0  0  0  0
 14 13  2  0  0  0  0
 14 16  1  0  0  0  0
 15 14  1  0  0  0  0
 16 17  2  0  0  0  0
 17 18  1  0  0  0  0
M  END
>  <minimizedAffinity>
-1.15736043

>  <minimizedRMSD>
1.34122145

$$$$
