
 OpenBabel03252500183D

 17 18  0  0  0  0  0  0  0  0999 V2000
   44.5100   36.1080   44.6670 C   0  0  0  0  0  0  0  0  0  0  0  0
   45.1790   36.0980   43.4390 C   0  0  0  0  0  0  0  0  0  0  0  0
   46.0020   35.0030   43.1880 C   0  0  0  0  0  0  0  0  0  0  0  0
   46.1250   34.0170   44.1080 N   0  0  0  0  0  0  0  0  0  0  0  0
   45.4560   34.0740   45.2820 C   0  0  0  0  0  0  0  0  0  0  0  0
   44.6470   35.1300   45.5520 N   0  0  0  0  0  0  0  0  0  0  0  0
   45.5600   33.0610   46.2690 N   0  0  0  0  0  0  0  0  0  0  0  0
   43.8850   36.9780   44.8120 H   0  0  0  0  0  0  0  0  0  0  0  0
   45.1280   36.8480   42.6610 H   0  0  0  0  0  0  0  0  0  0  0  0
   46.4400   33.3330   46.7660 H   0  0  0  0  0  0  0  0  0  0  0  0
   44.9310   32.2510   46.4620 H   0  0  0  0  0  0  0  0  0  0  0  0
   46.7580   34.8110   42.0120 C   0  0  0  0  0  0  0  0  0  0  0  0
   48.0820   35.4100   41.7670 C   0  0  0  0  0  0  0  0  0  0  0  0
   48.5210   36.0420   42.5240 H   0  0  0  0  0  0  0  0  0  0  0  0
   48.6630   35.1070   40.5630 C   0  0  0  0  0  0  0  0  0  0  0  0
   47.9660   34.2630   39.6700 C   0  0  0  0  0  0  0  0  0  0  0  0
   46.4160   33.8770   40.5660 S   0  0  0  0  0  0  0  0  0  0  0  0
  1  8  1  0  0  0  0
  1  6  1  0  0  0  0
  2  1  2  0  0  0  0
  3  2  1  0  0  0  0
  3  4  2  0  0  0  0
  4  5  1  0  0  0  0
  5  6  2  0  0  0  0
  5  7  1  0  0  0  0
  7 11  1  0  0  0  0
  7 10  1  0  0  0  0
  9  2  1  0  0  0  0
 12  3  1  0  0  0  0
 13 12  2  0  0  0  0
 13 14  1  0  0  0  0
 15 13  1  0  0  0  0
 16 15  2  0  0  0  0
 16 17  1  0  0  0  0
 17 12  1  0  0  0  0
M  END
>  <minimizedAffinity>
-4.85070658

>  <minimizedRMSD>
1.29558885

$$$$
