
 OpenBabel03252507343D

 46 49  0  0  1  0  0  0  0  0999 V2000
   37.9970   25.7370   41.0310 C   0  0  2  0  0  0  0  0  0  0  0  0
   37.2640   24.5570   41.7350 C   0  0  0  0  0  0  0  0  0  0  0  0
   37.3640   23.3340   40.8900 C   0  0  0  0  0  0  0  0  0  0  0  0
   38.6990   23.0570   40.2890 C   0  0  0  0  0  0  0  0  0  0  0  0
   39.4200   24.2310   39.8640 C   0  0  0  0  0  0  0  0  0  0  0  0
   39.3960   25.3850   40.8930 C   0  0  2  0  0  0  0  0  0  0  0  0
   37.4470   25.8060   40.0630 H   0  0  0  0  0  0  0  0  0  0  0  0
   37.6030   24.4280   42.7620 H   0  0  0  0  0  0  0  0  0  0  0  0
   36.2120   24.9000   41.8040 H   0  0  0  0  0  0  0  0  0  0  0  0
   37.1400   22.4620   41.5710 H   0  0  0  0  0  0  0  0  0  0  0  0
   36.4990   23.3590   40.2010 H   0  0  0  0  0  0  0  0  0  0  0  0
   38.3520   22.6690   39.2480 H   0  0  0  0  0  0  0  0  0  0  0  0
   39.1920   22.1150   40.5350 H   0  0  0  0  0  0  0  0  0  0  0  0
   39.1390   24.7230   38.9060 H   0  0  0  0  0  0  0  0  0  0  0  0
   40.5120   23.9930   39.7440 H   0  0  0  0  0  0  0  0  0  0  0  0
   40.0540   26.1090   40.4090 H   0  0  0  0  0  0  0  0  0  0  0  0
   37.8000   26.9840   41.7430 C   0  0  0  0  0  0  0  0  0  0  0  0
   37.4200   26.9070   43.0750 C   0  0  0  0  0  0  0  0  0  0  0  0
   37.1940   28.0960   43.8080 C   0  0  0  0  0  0  0  0  0  0  0  0
   37.3780   29.2910   43.1190 N   0  0  0  0  0  0  0  0  0  0  0  0
   37.7480   29.2950   41.8340 C   0  0  0  0  0  0  0  0  0  0  0  0
   37.9550   28.1650   41.1560 N   0  0  0  0  0  0  0  0  0  0  0  0
   37.2610   26.1300   43.7910 H   0  0  0  0  0  0  0  0  0  0  0  0
   36.9010   28.2300   44.8170 H   0  0  0  0  0  0  0  0  0  0  0  0
   37.9440   30.5890   41.1710 C   0  0  0  0  0  0  0  0  0  0  0  0
   36.9270   31.1790   40.4520 C   0  0  0  0  0  0  0  0  0  0  0  0
   37.0370   32.3890   39.8050 C   0  0  0  0  0  0  0  0  0  0  0  0
   38.2600   32.9990   39.9200 C   0  0  0  0  0  0  0  0  0  0  0  0
   39.2840   32.4280   40.6320 C   0  0  0  0  0  0  0  0  0  0  0  0
   39.1280   31.2200   41.2600 N   0  0  0  0  0  0  0  0  0  0  0  0
   35.9620   30.6590   40.3810 H   0  0  0  0  0  0  0  0  0  0  0  0
   36.2260   32.8420   39.2400 H   0  0  0  0  0  0  0  0  0  0  0  0
   38.3830   33.9570   39.4220 H   0  0  0  0  0  0  0  0  0  0  0  0
   40.5440   33.1150   40.7170 C   0  0  0  0  0  0  0  0  0  0  0  0
   40.8540   34.4420   40.4230 C   0  0  0  0  0  0  0  0  0  0  0  0
   40.0530   35.0760   40.0780 H   0  0  0  0  0  0  0  0  0  0  0  0
   42.1480   34.8570   40.5900 C   0  0  0  0  0  3  0  0  0  0  0  0
   43.0900   33.9070   41.0520 C   0  0  0  0  0  3  0  0  0  0  0  0
   42.0160   32.3720   41.2380 S   0  0  0  0  0  0  0  0  0  0  0  0
   39.9150   24.8850   42.1680 N   0  0  0  0  0  0  0  0  0  0  0  0
   40.8950   25.3930   43.0380 C   0  0  0  0  0  0  0  0  0  0  0  0
   40.6810   26.3750   43.8360 O   0  0  0  0  0  0  0  0  0  0  0  0
   42.1550   24.7250   42.9740 N   0  0  0  0  0  0  0  0  0  0  0  0
   39.5990   23.9280   42.5790 H   0  0  0  0  0  0  0  0  0  0  0  0
   42.3050   23.6900   43.1360 H   0  0  0  0  0  0  0  0  0  0  0  0
   43.1780   24.9270   42.7910 H   0  0  0  0  0  0  0  0  0  0  0  0
  1  7  1  6  0  0  0
  1  2  1  0  0  0  0
  1 17  1  0  0  0  0
  2  9  1  0  0  0  0
  2  8  1  0  0  0  0
  3 10  1  0  0  0  0
  3  2  1  0  0  0  0
  4 13  1  0  0  0  0
  4  3  1  0  0  0  0
  5  4  1  0  0  0  0
  5  6  1  0  0  0  0
  6 16  1  6  0  0  0
  6  1  1  0  0  0  0
  6 40  1  0  0  0  0
 11  3  1  0  0  0  0
 12  4  1  0  0  0  0
 14  5  1  0  0  0  0
 15  5  1  0  0  0  0
 17 18  1  0  0  0  0
 18 23  1  0  0  0  0
 18 19  2  0  0  0  0
 19 24  1  0  0  0  0
 20 19  1  0  0  0  0
 21 20  2  0  0  0  0
 22 17  2  0  0  0  0
 22 21  1  0  0  0  0
 25 30  1  0  0  0  0
 25 21  1  0  0  0  0
 26 25  2  0  0  0  0
 27 28  2  0  0  0  0
 27 26  1  0  0  0  0
 28 29  1  0  0  0  0
 29 34  1  0  0  0  0
 29 30  2  0  0  0  0
 31 26  1  0  0  0  0
 32 27  1  0  0  0  0
 33 28  1  0  0  0  0
 34 39  1  0  0  0  0
 35 37  1  0  0  0  0
 35 34  2  0  0  0  0
 36 35  1  0  0  0  0
 37 38  2  0  0  0  0
 38 39  1  0  0  0  0
 40 44  1  0  0  0  0
 40 41  1  0  0  0  0
 41 42  2  0  0  0  0
 43 41  1  0  0  0  0
 43 45  1  0  0  0  0
 46 43  1  0  0  0  0
M  END
>  <minimizedAffinity>
-6.74734116

$$$$

 OpenBabel03252507343D

 46 49  0  0  1  0  0  0  0  0999 V2000
   38.8040   32.5050   40.8390 C   0  0  2  0  0  0  0  0  0  0  0  0
   38.0170   33.6550   40.1440 C   0  0  0  0  0  0  0  0  0  0  0  0
   38.8200   34.9090   40.1950 C   0  0  0  0  0  0  0  0  0  0  0  0
   40.2700   34.7750   39.8790 C   0  0  0  0  0  0  0  0  0  0  0  0
   40.8800   33.5620   40.3660 C   0  0  0  0  0  0  0  0  0  0  0  0
   40.0380   32.2920   40.1090 C   0  0  2  0  0  0  0  0  0  0  0  0
   38.9480   32.9120   41.8680 H   0  0  0  0  0  0  0  0  0  0  0  0
   37.6840   33.3690   39.1470 H   0  0  0  0  0  0  0  0  0  0  0  0
   37.0960   33.7550   40.7540 H   0  0  0  0  0  0  0  0  0  0  0  0
   38.3890   35.5910   39.4050 H   0  0  0  0  0  0  0  0  0  0  0  0
   38.5580   35.4090   41.1460 H   0  0  0  0  0  0  0  0  0  0  0  0
   40.6960   35.5220   40.6620 H   0  0  0  0  0  0  0  0  0  0  0  0
   40.6710   35.3440   39.0380 H   0  0  0  0  0  0  0  0  0  0  0  0
   41.1530   33.4880   41.4430 H   0  0  0  0  0  0  0  0  0  0  0  0
   41.8440   33.3680   39.8220 H   0  0  0  0  0  0  0  0  0  0  0  0
   40.7130   31.5170   40.4740 H   0  0  0  0  0  0  0  0  0  0  0  0
   38.0020   31.3030   40.9470 C   0  0  0  0  0  0  0  0  0  0  0  0
   36.6680   31.3890   40.5740 C   0  0  0  0  0  0  0  0  0  0  0  0
   35.8370   30.2480   40.6820 C   0  0  0  0  0  0  0  0  0  0  0  0
   36.4370   29.0890   41.1650 N   0  0  0  0  0  0  0  0  0  0  0  0
   37.7300   29.0730   41.5040 C   0  0  0  0  0  0  0  0  0  0  0  0
   38.5000   30.1590   41.3990 N   0  0  0  0  0  0  0  0  0  0  0  0
   36.0270   32.1350   40.1590 H   0  0  0  0  0  0  0  0  0  0  0  0
   34.8100   30.1290   40.4500 H   0  0  0  0  0  0  0  0  0  0  0  0
   38.3070   27.8140   41.9880 C   0  0  0  0  0  0  0  0  0  0  0  0
   38.9450   27.7490   43.2070 C   0  0  0  0  0  0  0  0  0  0  0  0
   39.5090   26.6050   43.7260 C   0  0  0  0  0  0  0  0  0  0  0  0
   39.3960   25.4920   42.9330 C   0  0  0  0  0  0  0  0  0  0  0  0
   38.7630   25.5370   41.7160 C   0  0  0  0  0  0  0  0  0  0  0  0
   38.2170   26.7000   41.2410 N   0  0  0  0  0  0  0  0  0  0  0  0
   39.0170   28.6610   43.8130 H   0  0  0  0  0  0  0  0  0  0  0  0
   40.0100   26.5690   44.6900 H   0  0  0  0  0  0  0  0  0  0  0  0
   39.8290   24.5700   43.3110 H   0  0  0  0  0  0  0  0  0  0  0  0
   38.6750   24.3370   40.9290 C   0  0  0  0  0  0  0  0  0  0  0  0
   37.8760   23.2100   41.1140 C   0  0  0  0  0  0  0  0  0  0  0  0
   37.2120   23.2030   41.9630 H   0  0  0  0  0  0  0  0  0  0  0  0
   37.9820   22.1870   40.2100 C   0  0  0  0  0  3  0  0  0  0  0  0
   38.9000   22.3410   39.1440 C   0  0  0  0  0  3  0  0  0  0  0  0
   39.6110   24.0460   39.5050 S   0  0  0  0  0  0  0  0  0  0  0  0
   39.7610   32.1980   38.6740 N   0  0  0  0  0  0  0  0  0  0  0  0
   39.8080   31.1090   37.7860 C   0  0  0  0  0  0  0  0  0  0  0  0
   38.8940   30.2100   37.7320 O   0  0  0  0  0  0  0  0  0  0  0  0
   40.9540   31.0810   36.9350 N   0  0  0  0  0  0  0  0  0  0  0  0
   39.5250   33.0770   38.0770 H   0  0  0  0  0  0  0  0  0  0  0  0
   41.2380   31.8550   36.2710 H   0  0  0  0  0  0  0  0  0  0  0  0
   41.7680   30.4550   36.6820 H   0  0  0  0  0  0  0  0  0  0  0  0
  1 17  1  0  0  0  0
  1  7  1  1  0  0  0
  2  3  1  0  0  0  0
  2  9  1  0  0  0  0
  2  1  1  0  0  0  0
  3 11  1  0  0  0  0
  4  3  1  0  0  0  0
  4  5  1  0  0  0  0
  4 12  1  0  0  0  0
  5 14  1  0  0  0  0
  6  5  1  0  0  0  0
  6 16  1  1  0  0  0
  6  1  1  0  0  0  0
  8  2  1  0  0  0  0
 10  3  1  0  0  0  0
 13  4  1  0  0  0  0
 15  5  1  0  0  0  0
 17 22  1  0  0  0  0
 18 19  1  0  0  0  0
 18 17  2  0  0  0  0
 19 20  2  0  0  0  0
 20 21  1  0  0  0  0
 21 25  1  0  0  0  0
 22 21  2  0  0  0  0
 23 18  1  0  0  0  0
 24 19  1  0  0  0  0
 25 26  1  0  0  0  0
 26 27  2  0  0  0  0
 26 31  1  0  0  0  0
 27 32  1  0  0  0  0
 28 33  1  0  0  0  0
 28 27  1  0  0  0  0
 29 28  2  0  0  0  0
 30 29  1  0  0  0  0
 30 25  2  0  0  0  0
 34 35  2  0  0  0  0
 34 29  1  0  0  0  0
 35 36  1  0  0  0  0
 37 35  1  0  0  0  0
 38 39  1  0  0  0  0
 38 37  2  0  0  0  0
 39 34  1  0  0  0  0
 40  6  1  0  0  0  0
 41 40  1  0  0  0  0
 42 41  2  0  0  0  0
 43 41  1  0  0  0  0
 44 40  1  0  0  0  0
 45 43  1  0  0  0  0
 46 43  1  0  0  0  0
M  END
>  <minimizedAffinity>
-6.71076965

$$$$

 OpenBabel03252507343D

 46 49  0  0  1  0  0  0  0  0999 V2000
   39.8030   32.1990   39.9640 C   0  0  2  0  0  0  0  0  0  0  0  0
   39.4900   33.4300   40.8660 C   0  0  0  0  0  0  0  0  0  0  0  0
   38.5550   34.3450   40.1510 C   0  0  0  0  0  0  0  0  0  0  0  0
   37.4140   33.6990   39.4440 C   0  0  0  0  0  0  0  0  0  0  0  0
   37.7320   32.4380   38.8200 C   0  0  0  0  0  0  0  0  0  0  0  0
   38.5630   31.4910   39.7150 C   0  0  2  0  0  0  0  0  0  0  0  0
   40.2410   32.6820   39.0590 H   0  0  0  0  0  0  0  0  0  0  0  0
   39.1580   33.1270   41.8580 H   0  0  0  0  0  0  0  0  0  0  0  0
   40.4770   33.9130   41.0100 H   0  0  0  0  0  0  0  0  0  0  0  0
   38.0980   35.0080   40.9420 H   0  0  0  0  0  0  0  0  0  0  0  0
   39.1860   35.0350   39.5600 H   0  0  0  0  0  0  0  0  0  0  0  0
   37.3860   34.3710   38.4940 H   0  0  0  0  0  0  0  0  0  0  0  0
   36.4000   33.9770   39.7360 H   0  0  0  0  0  0  0  0  0  0  0  0
   38.2790   32.4350   37.8500 H   0  0  0  0  0  0  0  0  0  0  0  0
   36.7900   31.8610   38.6090 H   0  0  0  0  0  0  0  0  0  0  0  0
   38.6080   30.5980   39.0880 H   0  0  0  0  0  0  0  0  0  0  0  0
   40.8220   31.3550   40.5540 C   0  0  0  0  0  0  0  0  0  0  0  0
   42.1420   31.7700   40.4390 C   0  0  0  0  0  0  0  0  0  0  0  0
   43.1760   30.9700   40.9800 C   0  0  0  0  0  0  0  0  0  0  0  0
   42.7820   29.7920   41.6080 N   0  0  0  0  0  0  0  0  0  0  0  0
   41.4920   29.4510   41.6860 C   0  0  0  0  0  0  0  0  0  0  0  0
   40.5280   30.2160   41.1690 N   0  0  0  0  0  0  0  0  0  0  0  0
   42.6540   32.6220   40.0470 H   0  0  0  0  0  0  0  0  0  0  0  0
   44.2240   31.1230   40.9850 H   0  0  0  0  0  0  0  0  0  0  0  0
   41.1420   28.2060   42.3780 C   0  0  0  0  0  0  0  0  0  0  0  0
   41.7910   27.8310   43.5350 C   0  0  0  0  0  0  0  0  0  0  0  0
   41.5180   26.6810   44.2380 C   0  0  0  0  0  0  0  0  0  0  0  0
   40.5270   25.8970   43.7050 C   0  0  0  0  0  0  0  0  0  0  0  0
   39.8690   26.2530   42.5550 C   0  0  0  0  0  0  0  0  0  0  0  0
   40.1770   27.4100   41.8880 N   0  0  0  0  0  0  0  0  0  0  0  0
   42.5810   28.4850   43.9310 H   0  0  0  0  0  0  0  0  0  0  0  0
   42.0390   26.3980   45.1500 H   0  0  0  0  0  0  0  0  0  0  0  0
   40.2840   24.9800   44.2350 H   0  0  0  0  0  0  0  0  0  0  0  0
   38.8380   25.3910   42.0440 C   0  0  0  0  0  0  0  0  0  0  0  0
   37.4690   25.3910   42.3050 C   0  0  0  0  0  0  0  0  0  0  0  0
   37.0920   26.1360   42.9860 H   0  0  0  0  0  0  0  0  0  0  0  0
   36.6910   24.4510   41.6830 C   0  0  0  0  0  3  0  0  0  0  0  0
   37.3320   23.5370   40.8120 C   0  0  0  0  0  3  0  0  0  0  0  0
   39.1240   24.0980   40.9310 S   0  0  0  0  0  0  0  0  0  0  0  0
   37.8430   31.2850   40.9730 N   0  0  0  0  0  0  0  0  0  0  0  0
   36.8990   30.3170   41.3590 C   0  0  0  0  0  0  0  0  0  0  0  0
   37.2190   29.1150   41.6760 O   0  0  0  0  0  0  0  0  0  0  0  0
   35.5470   30.7750   41.3800 N   0  0  0  0  0  0  0  0  0  0  0  0
   37.9330   31.9800   41.8060 H   0  0  0  0  0  0  0  0  0  0  0  0
   35.1910   31.5950   41.9470 H   0  0  0  0  0  0  0  0  0  0  0  0
   34.6030   30.5520   40.9590 H   0  0  0  0  0  0  0  0  0  0  0  0
  1  7  1  6  0  0  0
  1 17  1  0  0  0  0
  1  2  1  0  0  0  0
  2  9  1  0  0  0  0
  2  8  1  0  0  0  0
  3  2  1  0  0  0  0
  3 10  1  0  0  0  0
  4 13  1  0  0  0  0
  4  3  1  0  0  0  0
  5  4  1  0  0  0  0
  5  6  1  0  0  0  0
  6 16  1  6  0  0  0
  6  1  1  0  0  0  0
  6 40  1  0  0  0  0
 11  3  1  0  0  0  0
 12  4  1  0  0  0  0
 14  5  1  0  0  0  0
 15  5  1  0  0  0  0
 17 22  1  0  0  0  0
 18 17  2  0  0  0  0
 18 19  1  0  0  0  0
 19 24  1  0  0  0  0
 19 20  2  0  0  0  0
 20 21  1  0  0  0  0
 21 25  1  0  0  0  0
 22 21  2  0  0  0  0
 23 18  1  0  0  0  0
 25 26  1  0  0  0  0
 26 31  1  0  0  0  0
 26 27  2  0  0  0  0
 27 32  1  0  0  0  0
 28 33  1  0  0  0  0
 28 27  1  0  0  0  0
 29 28  2  0  0  0  0
 30 25  2  0  0  0  0
 30 29  1  0  0  0  0
 34 35  2  0  0  0  0
 34 29  1  0  0  0  0
 35 36  1  0  0  0  0
 37 35  1  0  0  0  0
 38 39  1  0  0  0  0
 38 37  2  0  0  0  0
 39 34  1  0  0  0  0
 40 41  1  0  0  0  0
 40 44  1  0  0  0  0
 41 43  1  0  0  0  0
 41 42  2  0  0  0  0
 43 45  1  0  0  0  0
 46 43  1  0  0  0  0
M  END
>  <minimizedAffinity>
-6.40336657

$$$$

 OpenBabel03252507343D

 46 49  0  0  1  0  0  0  0  0999 V2000
   37.9700   26.3450   39.8480 C   0  0  2  0  0  0  0  0  0  0  0  0
   36.5790   25.6430   39.8130 C   0  0  0  0  0  0  0  0  0  0  0  0
   36.6300   24.4000   40.6340 C   0  0  0  0  0  0  0  0  0  0  0  0
   37.3150   24.5100   41.9530 C   0  0  0  0  0  0  0  0  0  0  0  0
   38.4740   25.3670   41.9560 C   0  0  0  0  0  0  0  0  0  0  0  0
   38.2600   26.7100   41.2200 C   0  0  2  0  0  0  0  0  0  0  0  0
   38.6390   25.5530   39.4360 H   0  0  0  0  0  0  0  0  0  0  0  0
   35.7760   26.3290   40.0760 H   0  0  0  0  0  0  0  0  0  0  0  0
   36.4310   25.3980   38.7420 H   0  0  0  0  0  0  0  0  0  0  0  0
   35.5570   24.1290   40.8600 H   0  0  0  0  0  0  0  0  0  0  0  0
   36.9680   23.5930   39.9580 H   0  0  0  0  0  0  0  0  0  0  0  0
   37.8510   23.4770   41.9640 H   0  0  0  0  0  0  0  0  0  0  0  0
   36.7420   24.2830   42.8540 H   0  0  0  0  0  0  0  0  0  0  0  0
   39.4330   24.9850   41.5380 H   0  0  0  0  0  0  0  0  0  0  0  0
   38.7310   25.6680   43.0080 H   0  0  0  0  0  0  0  0  0  0  0  0
   39.2090   27.2110   41.4200 H   0  0  0  0  0  0  0  0  0  0  0  0
   38.0140   27.4770   38.9450 C   0  0  0  0  0  0  0  0  0  0  0  0
   37.9550   27.2130   37.5840 C   0  0  0  0  0  0  0  0  0  0  0  0
   38.0170   28.2830   36.6600 C   0  0  0  0  0  0  0  0  0  0  0  0
   38.1340   29.5600   37.2010 N   0  0  0  0  0  0  0  0  0  0  0  0
   38.1840   29.7460   38.5240 C   0  0  0  0  0  0  0  0  0  0  0  0
   38.1260   28.7260   39.3820 N   0  0  0  0  0  0  0  0  0  0  0  0
   37.8330   26.3490   36.9680 H   0  0  0  0  0  0  0  0  0  0  0  0
   37.9890   28.2720   35.6020 H   0  0  0  0  0  0  0  0  0  0  0  0
   38.2880   31.1190   39.0290 C   0  0  0  0  0  0  0  0  0  0  0  0
   37.2030   31.9690   39.0020 C   0  0  0  0  0  0  0  0  0  0  0  0
   37.2250   33.2670   39.4570 C   0  0  0  0  0  0  0  0  0  0  0  0
   38.4300   33.6850   39.9600 C   0  0  0  0  0  0  0  0  0  0  0  0
   39.5210   32.8540   39.9960 C   0  0  0  0  0  0  0  0  0  0  0  0
   39.4520   31.5680   39.5300 N   0  0  0  0  0  0  0  0  0  0  0  0
   36.2540   31.5990   38.5910 H   0  0  0  0  0  0  0  0  0  0  0  0
   36.3610   33.9260   39.4290 H   0  0  0  0  0  0  0  0  0  0  0  0
   38.4840   34.7060   40.3300 H   0  0  0  0  0  0  0  0  0  0  0  0
   40.7590   33.3490   40.5350 C   0  0  0  0  0  0  0  0  0  0  0  0
   41.2530   34.6520   40.5750 C   0  0  0  0  0  0  0  0  0  0  0  0
   40.6410   35.4300   40.1480 H   0  0  0  0  0  0  0  0  0  0  0  0
   42.4760   34.8630   41.1530 C   0  0  0  0  0  3  0  0  0  0  0  0
   43.1620   33.7390   41.6720 C   0  0  0  0  0  3  0  0  0  0  0  0
   41.9520   32.3490   41.2880 S   0  0  0  0  0  0  0  0  0  0  0  0
   37.1060   27.3890   41.8130 N   0  0  0  0  0  0  0  0  0  0  0  0
   37.0190   28.4240   42.7600 C   0  0  0  0  0  0  0  0  0  0  0  0
   37.2350   29.6560   42.4720 O   0  0  0  0  0  0  0  0  0  0  0  0
   36.6610   28.0020   44.0760 N   0  0  0  0  0  0  0  0  0  0  0  0
   36.0850   27.0770   41.5980 H   0  0  0  0  0  0  0  0  0  0  0  0
   35.7820   27.4680   44.3270 H   0  0  0  0  0  0  0  0  0  0  0  0
   37.0210   28.0350   45.0700 H   0  0  0  0  0  0  0  0  0  0  0  0
  1  7  1  6  0  0  0
  1  6  1  0  0  0  0
  2  1  1  0  0  0  0
  2  8  1  0  0  0  0
  2  3  1  0  0  0  0
  3 10  1  0  0  0  0
  3  4  1  0  0  0  0
  4  5  1  0  0  0  0
  4 12  1  0  0  0  0
  4 13  1  0  0  0  0
  5 15  1  0  0  0  0
  6 16  1  1  0  0  0
  6 40  1  0  0  0  0
  6  5  1  0  0  0  0
  9  2  1  0  0  0  0
 11  3  1  0  0  0  0
 14  5  1  0  0  0  0
 17 22  1  0  0  0  0
 17  1  1  0  0  0  0
 18 17  2  0  0  0  0
 19 20  2  0  0  0  0
 19 18  1  0  0  0  0
 20 21  1  0  0  0  0
 21 25  1  0  0  0  0
 21 22  2  0  0  0  0
 23 18  1  0  0  0  0
 24 19  1  0  0  0  0
 25 30  1  0  0  0  0
 26 25  2  0  0  0  0
 26 27  1  0  0  0  0
 27 28  2  0  0  0  0
 28 29  1  0  0  0  0
 28 33  1  0  0  0  0
 29 34  1  0  0  0  0
 30 29  2  0  0  0  0
 31 26  1  0  0  0  0
 32 27  1  0  0  0  0
 34 35  2  0  0  0  0
 34 39  1  0  0  0  0
 35 37  1  0  0  0  0
 36 35  1  0  0  0  0
 37 38  2  0  0  0  0
 39 38  1  0  0  0  0
 40 41  1  0  0  0  0
 41 43  1  0  0  0  0
 42 41  2  0  0  0  0
 43 45  1  0  0  0  0
 43 46  1  0  0  0  0
 44 40  1  0  0  0  0
M  END
>  <minimizedAffinity>
-6.39820623

$$$$

 OpenBabel03252507343D

 46 49  0  0  1  0  0  0  0  0999 V2000
   38.4660   32.2190   40.7880 C   0  0  2  0  0  0  0  0  0  0  0  0
   37.7310   33.3580   40.0200 C   0  0  0  0  0  0  0  0  0  0  0  0
   38.5070   34.6240   40.1450 C   0  0  0  0  0  0  0  0  0  0  0  0
   39.9820   34.5110   39.9680 C   0  0  0  0  0  0  0  0  0  0  0  0
   40.5610   33.3080   40.5130 C   0  0  0  0  0  0  0  0  0  0  0  0
   39.7660   32.0260   40.1790 C   0  0  2  0  0  0  0  0  0  0  0  0
   38.5050   32.6290   41.8250 H   0  0  0  0  0  0  0  0  0  0  0  0
   37.4990   33.0680   38.9970 H   0  0  0  0  0  0  0  0  0  0  0  0
   36.7550   33.4440   40.5400 H   0  0  0  0  0  0  0  0  0  0  0  0
   38.1430   35.3000   39.3170 H   0  0  0  0  0  0  0  0  0  0  0  0
   38.1490   35.1200   41.0670 H   0  0  0  0  0  0  0  0  0  0  0  0
   40.3210   35.2650   40.7880 H   0  0  0  0  0  0  0  0  0  0  0  0
   40.4530   35.0870   39.1680 H   0  0  0  0  0  0  0  0  0  0  0  0
   40.7320   33.2370   41.6110 H   0  0  0  0  0  0  0  0  0  0  0  0
   41.5760   33.1280   40.0630 H   0  0  0  0  0  0  0  0  0  0  0  0
   40.4150   31.2600   40.6070 H   0  0  0  0  0  0  0  0  0  0  0  0
   37.6750   31.0050   40.8210 C   0  0  0  0  0  0  0  0  0  0  0  0
   36.3480   31.0960   40.4230 C   0  0  0  0  0  0  0  0  0  0  0  0
   35.5280   29.9430   40.4580 C   0  0  0  0  0  0  0  0  0  0  0  0
   36.1310   28.7680   40.8980 N   0  0  0  0  0  0  0  0  0  0  0  0
   37.4160   28.7500   41.2650 C   0  0  0  0  0  0  0  0  0  0  0  0
   38.1760   29.8460   41.2290 N   0  0  0  0  0  0  0  0  0  0  0  0
   35.7080   31.8550   40.0300 H   0  0  0  0  0  0  0  0  0  0  0  0
   34.5080   29.8250   40.1990 H   0  0  0  0  0  0  0  0  0  0  0  0
   37.9960   27.4740   41.7010 C   0  0  0  0  0  0  0  0  0  0  0  0
   37.2180   26.3420   41.8120 C   0  0  0  0  0  0  0  0  0  0  0  0
   37.6910   25.1140   42.2120 C   0  0  0  0  0  0  0  0  0  0  0  0
   39.0300   25.0760   42.5070 C   0  0  0  0  0  0  0  0  0  0  0  0
   39.8210   26.1920   42.4020 C   0  0  0  0  0  0  0  0  0  0  0  0
   39.3040   27.3950   41.9980 N   0  0  0  0  0  0  0  0  0  0  0  0
   36.1490   26.4130   41.5680 H   0  0  0  0  0  0  0  0  0  0  0  0
   37.0640   24.2290   42.2960 H   0  0  0  0  0  0  0  0  0  0  0  0
   39.4380   24.1210   42.8260 H   0  0  0  0  0  0  0  0  0  0  0  0
   41.2180   26.0900   42.7230 C   0  0  0  0  0  0  0  0  0  0  0  0
   42.2770   25.6210   41.9480 C   0  0  0  0  0  0  0  0  0  0  0  0
   42.0510   25.2760   40.9520 H   0  0  0  0  0  0  0  0  0  0  0  0
   43.5330   25.6290   42.4940 C   0  0  0  0  0  3  0  0  0  0  0  0
   43.6730   26.1140   43.8160 C   0  0  0  0  0  3  0  0  0  0  0  0
   41.8960   26.5640   44.2420 S   0  0  0  0  0  0  0  0  0  0  0  0
   39.6280   31.9270   38.7240 N   0  0  0  0  0  0  0  0  0  0  0  0
   39.8200   30.8510   37.8410 C   0  0  0  0  0  0  0  0  0  0  0  0
   38.9690   29.9000   37.7000 O   0  0  0  0  0  0  0  0  0  0  0  0
   41.0380   30.8970   37.0990 N   0  0  0  0  0  0  0  0  0  0  0  0
   39.3970   32.7960   38.1110 H   0  0  0  0  0  0  0  0  0  0  0  0
   41.3370   31.6910   36.4660 H   0  0  0  0  0  0  0  0  0  0  0  0
   41.9080   30.3210   36.9200 H   0  0  0  0  0  0  0  0  0  0  0  0
  1 17  1  0  0  0  0
  1  7  1  1  0  0  0
  2  3  1  0  0  0  0
  2  9  1  0  0  0  0
  2  1  1  0  0  0  0
  3 11  1  0  0  0  0
  4  3  1  0  0  0  0
  4  5  1  0  0  0  0
  4 12  1  0  0  0  0
  5 14  1  0  0  0  0
  6  5  1  0  0  0  0
  6 16  1  1  0  0  0
  6  1  1  0  0  0  0
  8  2  1  0  0  0  0
 10  3  1  0  0  0  0
 13  4  1  0  0  0  0
 15  5  1  0  0  0  0
 17 22  1  0  0  0  0
 18 19  1  0  0  0  0
 18 17  2  0  0  0  0
 19 20  2  0  0  0  0
 20 21  1  0  0  0  0
 21 25  1  0  0  0  0
 22 21  2  0  0  0  0
 23 18  1  0  0  0  0
 24 19  1  0  0  0  0
 25 26  2  0  0  0  0
 25 30  1  0  0  0  0
 26 27  1  0  0  0  0
 27 32  1  0  0  0  0
 27 28  2  0  0  0  0
 28 33  1  0  0  0  0
 29 28  1  0  0  0  0
 29 34  1  0  0  0  0
 30 29  2  0  0  0  0
 31 26  1  0  0  0  0
 34 39  1  0  0  0  0
 35 37  1  0  0  0  0
 35 34  2  0  0  0  0
 36 35  1  0  0  0  0
 37 38  2  0  0  0  0
 38 39  1  0  0  0  0
 40  6  1  0  0  0  0
 41 40  1  0  0  0  0
 42 41  2  0  0  0  0
 43 41  1  0  0  0  0
 44 40  1  0  0  0  0
 45 43  1  0  0  0  0
 46 43  1  0  0  0  0
M  END
>  <minimizedAffinity>
-6.27429438

$$$$

 OpenBabel03252507343D

 46 49  0  0  1  0  0  0  0  0999 V2000
   36.4830   28.6860   39.9570 C   0  0  2  0  0  0  0  0  0  0  0  0
   37.0920   27.3700   39.3910 C   0  0  0  0  0  0  0  0  0  0  0  0
   36.0320   26.5940   38.6870 C   0  0  0  0  0  0  0  0  0  0  0  0
   35.1270   27.3740   37.7980 C   0  0  0  0  0  0  0  0  0  0  0  0
   34.7880   28.6860   38.2900 C   0  0  0  0  0  0  0  0  0  0  0  0
   35.9940   29.4760   38.8450 C   0  0  2  0  0  0  0  0  0  0  0  0
   35.6800   28.2990   40.6280 H   0  0  0  0  0  0  0  0  0  0  0  0
   37.9840   27.5620   38.7970 H   0  0  0  0  0  0  0  0  0  0  0  0
   37.4400   26.8270   40.2930 H   0  0  0  0  0  0  0  0  0  0  0  0
   36.5710   25.8590   38.0200 H   0  0  0  0  0  0  0  0  0  0  0  0
   35.5550   25.9530   39.4520 H   0  0  0  0  0  0  0  0  0  0  0  0
   34.1270   26.8260   38.0320 H   0  0  0  0  0  0  0  0  0  0  0  0
   35.0870   27.1090   36.7390 H   0  0  0  0  0  0  0  0  0  0  0  0
   34.0160   28.7830   39.0880 H   0  0  0  0  0  0  0  0  0  0  0  0
   34.4010   29.3270   37.4510 H   0  0  0  0  0  0  0  0  0  0  0  0
   35.5280   30.4360   39.0730 H   0  0  0  0  0  0  0  0  0  0  0  0
   37.4380   29.4030   40.7780 C   0  0  0  0  0  0  0  0  0  0  0  0
   37.7980   28.8300   41.9890 C   0  0  0  0  0  0  0  0  0  0  0  0
   38.7120   29.5010   42.8360 C   0  0  0  0  0  0  0  0  0  0  0  0
   39.1980   30.7220   42.3780 N   0  0  0  0  0  0  0  0  0  0  0  0
   38.8120   31.2170   41.1980 C   0  0  0  0  0  0  0  0  0  0  0  0
   37.9480   30.5730   40.4110 N   0  0  0  0  0  0  0  0  0  0  0  0
   37.5870   27.9210   42.5080 H   0  0  0  0  0  0  0  0  0  0  0  0
   39.0940   29.2220   43.7840 H   0  0  0  0  0  0  0  0  0  0  0  0
   39.3780   32.4990   40.7630 C   0  0  0  0  0  0  0  0  0  0  0  0
   38.5870   33.6230   40.6560 C   0  0  0  0  0  0  0  0  0  0  0  0
   39.0470   34.8570   40.2560 C   0  0  0  0  0  0  0  0  0  0  0  0
   40.3850   34.9100   39.9590 C   0  0  0  0  0  0  0  0  0  0  0  0
   41.1880   33.8020   40.0610 C   0  0  0  0  0  0  0  0  0  0  0  0
   40.6850   32.5930   40.4640 N   0  0  0  0  0  0  0  0  0  0  0  0
   37.5200   33.5410   40.9000 H   0  0  0  0  0  0  0  0  0  0  0  0
   38.4110   35.7350   40.1750 H   0  0  0  0  0  0  0  0  0  0  0  0
   40.7830   35.8690   39.6410 H   0  0  0  0  0  0  0  0  0  0  0  0
   42.5840   33.9190   39.7370 C   0  0  0  0  0  0  0  0  0  0  0  0
   43.6880   34.0020   40.5830 C   0  0  0  0  0  0  0  0  0  0  0  0
   43.5060   33.9780   41.6450 H   0  0  0  0  0  0  0  0  0  0  0  0
   44.9300   34.1080   40.0160 C   0  0  0  0  0  3  0  0  0  0  0  0
   45.0110   34.1270   38.6040 C   0  0  0  0  0  3  0  0  0  0  0  0
   43.1970   33.9830   38.1220 S   0  0  0  0  0  0  0  0  0  0  0  0
   37.0190   29.5580   37.8010 N   0  0  0  0  0  0  0  0  0  0  0  0
   37.2960   30.5490   36.8440 C   0  0  0  0  0  0  0  0  0  0  0  0
   37.9010   31.6450   37.1260 O   0  0  0  0  0  0  0  0  0  0  0  0
   36.8580   30.2410   35.5210 N   0  0  0  0  0  0  0  0  0  0  0  0
   37.7030   28.7350   37.6040 H   0  0  0  0  0  0  0  0  0  0  0  0
   37.1450   29.3860   34.9670 H   0  0  0  0  0  0  0  0  0  0  0  0
   36.2380   30.6280   34.7550 H   0  0  0  0  0  0  0  0  0  0  0  0
  1  7  1  1  0  0  0
  1 17  1  0  0  0  0
  2  1  1  0  0  0  0
  2  9  1  0  0  0  0
  3  2  1  0  0  0  0
  3 11  1  0  0  0  0
  4 12  1  0  0  0  0
  4  5  1  0  0  0  0
  4  3  1  0  0  0  0
  5  6  1  0  0  0  0
  5 14  1  0  0  0  0
  6 16  1  1  0  0  0
  6  1  1  0  0  0  0
  8  2  1  0  0  0  0
 10  3  1  0  0  0  0
 13  4  1  0  0  0  0
 15  5  1  0  0  0  0
 17 18  1  0  0  0  0
 18 23  1  0  0  0  0
 18 19  2  0  0  0  0
 19 24  1  0  0  0  0
 20 19  1  0  0  0  0
 21 20  2  0  0  0  0
 22 17  2  0  0  0  0
 22 21  1  0  0  0  0
 25 21  1  0  0  0  0
 26 25  1  0  0  0  0
 26 31  1  0  0  0  0
 27 26  2  0  0  0  0
 28 29  2  0  0  0  0
 28 27  1  0  0  0  0
 29 30  1  0  0  0  0
 30 25  2  0  0  0  0
 32 27  1  0  0  0  0
 33 28  1  0  0  0  0
 34 29  1  0  0  0  0
 34 35  2  0  0  0  0
 35 36  1  0  0  0  0
 37 35  1  0  0  0  0
 38 37  2  0  0  0  0
 39 38  1  0  0  0  0
 39 34  1  0  0  0  0
 40  6  1  0  0  0  0
 41 42  2  0  0  0  0
 41 40  1  0  0  0  0
 43 41  1  0  0  0  0
 44 40  1  0  0  0  0
 45 43  1  0  0  0  0
 46 43  1  0  0  0  0
M  END
>  <minimizedAffinity>
-6.16745806

$$$$

 OpenBabel03252507343D

 46 49  0  0  1  0  0  0  0  0999 V2000
   37.4790   26.8270   41.8960 C   0  0  2  0  0  0  0  0  0  0  0  0
   36.5570   26.9240   43.1480 C   0  0  0  0  0  0  0  0  0  0  0  0
   37.1950   27.8030   44.1690 C   0  0  0  0  0  0  0  0  0  0  0  0
   37.8060   29.0640   43.6620 C   0  0  0  0  0  0  0  0  0  0  0  0
   38.4500   28.9430   42.3770 C   0  0  0  0  0  0  0  0  0  0  0  0
   37.6230   28.1560   41.3360 C   0  0  2  0  0  0  0  0  0  0  0  0
   38.4180   26.4120   42.3320 H   0  0  0  0  0  0  0  0  0  0  0  0
   35.5410   27.2050   42.8790 H   0  0  0  0  0  0  0  0  0  0  0  0
   36.4960   25.8790   43.5150 H   0  0  0  0  0  0  0  0  0  0  0  0
   36.3710   28.1150   44.8750 H   0  0  0  0  0  0  0  0  0  0  0  0
   37.8370   27.1480   44.7870 H   0  0  0  0  0  0  0  0  0  0  0  0
   38.7510   29.0920   44.3390 H   0  0  0  0  0  0  0  0  0  0  0  0
   37.4320   30.0130   44.0520 H   0  0  0  0  0  0  0  0  0  0  0  0
   39.4610   28.4820   42.3190 H   0  0  0  0  0  0  0  0  0  0  0  0
   38.5810   29.9590   41.9130 H   0  0  0  0  0  0  0  0  0  0  0  0
   38.2490   28.2640   40.4480 H   0  0  0  0  0  0  0  0  0  0  0  0
   36.9710   25.8660   40.9380 C   0  0  0  0  0  0  0  0  0  0  0  0
   36.9760   24.5290   41.3090 C   0  0  0  0  0  0  0  0  0  0  0  0
   36.5110   23.5490   40.4000 C   0  0  0  0  0  0  0  0  0  0  0  0
   36.0690   24.0120   39.1650 N   0  0  0  0  0  0  0  0  0  0  0  0
   36.0890   25.3160   38.8700 C   0  0  0  0  0  0  0  0  0  0  0  0
   36.5330   26.2280   39.7380 N   0  0  0  0  0  0  0  0  0  0  0  0
   37.2260   23.9700   42.1840 H   0  0  0  0  0  0  0  0  0  0  0  0
   36.4440   22.4970   40.5070 H   0  0  0  0  0  0  0  0  0  0  0  0
   35.5900   25.7410   37.5580 C   0  0  0  0  0  0  0  0  0  0  0  0
   36.1330   25.2370   36.3960 C   0  0  0  0  0  0  0  0  0  0  0  0
   35.7170   25.5870   35.1320 C   0  0  0  0  0  0  0  0  0  0  0  0
   34.6940   26.4990   35.0900 C   0  0  0  0  0  0  0  0  0  0  0  0
   34.1400   27.0120   36.2360 C   0  0  0  0  0  0  0  0  0  0  0  0
   34.5880   26.6330   37.4740 N   0  0  0  0  0  0  0  0  0  0  0  0
   36.9520   24.5090   36.4700 H   0  0  0  0  0  0  0  0  0  0  0  0
   36.1560   25.1820   34.2230 H   0  0  0  0  0  0  0  0  0  0  0  0
   34.3390   26.7990   34.1070 H   0  0  0  0  0  0  0  0  0  0  0  0
   33.0690   27.9650   36.1280 C   0  0  0  0  0  0  0  0  0  0  0  0
   32.8490   29.1400   36.8450 C   0  0  0  0  0  0  0  0  0  0  0  0
   33.5710   29.4050   37.6010 H   0  0  0  0  0  0  0  0  0  0  0  0
   31.7380   29.8820   36.5470 C   0  0  0  0  0  3  0  0  0  0  0  0
   30.8820   29.4050   35.5260 C   0  0  0  0  0  3  0  0  0  0  0  0
   31.7590   27.8220   35.0090 S   0  0  0  0  0  0  0  0  0  0  0  0
   36.3100   28.7900   41.2040 N   0  0  0  0  0  0  0  0  0  0  0  0
   35.8810   29.8990   40.4540 C   0  0  0  0  0  0  0  0  0  0  0  0
   35.6660   29.8470   39.1900 O   0  0  0  0  0  0  0  0  0  0  0  0
   35.6940   31.0950   41.2100 N   0  0  0  0  0  0  0  0  0  0  0  0
   35.4550   28.4630   41.7930 H   0  0  0  0  0  0  0  0  0  0  0  0
   35.0490   31.1950   42.0430 H   0  0  0  0  0  0  0  0  0  0  0  0
   36.0250   32.0990   41.2440 H   0  0  0  0  0  0  0  0  0  0  0  0
  1  7  1  1  0  0  0
  1  2  1  0  0  0  0
  2  9  1  0  0  0  0
  2  3  1  0  0  0  0
  3 11  1  0  0  0  0
  3 10  1  0  0  0  0
  4 13  1  0  0  0  0
  4  3  1  0  0  0  0
  4 12  1  0  0  0  0
  5  4  1  0  0  0  0
  6 16  1  6  0  0  0
  6  1  1  0  0  0  0
  6  5  1  0  0  0  0
  8  2  1  0  0  0  0
 14  5  1  0  0  0  0
 15  5  1  0  0  0  0
 17 18  1  0  0  0  0
 17  1  1  0  0  0  0
 18 23  1  0  0  0  0
 19 24  1  0  0  0  0
 19 18  2  0  0  0  0
 20 19  1  0  0  0  0
 21 20  2  0  0  0  0
 21 22  1  0  0  0  0
 22 17  2  0  0  0  0
 25 21  1  0  0  0  0
 26 31  1  0  0  0  0
 26 25  2  0  0  0  0
 27 26  1  0  0  0  0
 28 27  2  0  0  0  0
 28 29  1  0  0  0  0
 29 30  2  0  0  0  0
 30 25  1  0  0  0  0
 32 27  1  0  0  0  0
 33 28  1  0  0  0  0
 34 29  1  0  0  0  0
 34 35  2  0  0  0  0
 35 36  1  0  0  0  0
 37 35  1  0  0  0  0
 38 37  2  0  0  0  0
 39 38  1  0  0  0  0
 39 34  1  0  0  0  0
 40  6  1  0  0  0  0
 40 44  1  0  0  0  0
 41 40  1  0  0  0  0
 41 43  1  0  0  0  0
 42 41  2  0  0  0  0
 43 46  1  0  0  0  0
 43 45  1  0  0  0  0
M  END
>  <minimizedAffinity>
-6.14954615

$$$$

 OpenBabel03252507343D

 46 49  0  0  1  0  0  0  0  0999 V2000
   38.1450   25.8710   41.0930 C   0  0  2  0  0  0  0  0  0  0  0  0
   37.2930   24.8920   41.9540 C   0  0  0  0  0  0  0  0  0  0  0  0
   37.1660   23.5870   41.2450 C   0  0  0  0  0  0  0  0  0  0  0  0
   38.4100   23.0550   40.6210 C   0  0  0  0  0  0  0  0  0  0  0  0
   39.2660   24.0580   40.0390 C   0  0  0  0  0  0  0  0  0  0  0  0
   39.4690   25.3020   40.9340 C   0  0  2  0  0  0  0  0  0  0  0  0
   37.5550   25.9210   40.1480 H   0  0  0  0  0  0  0  0  0  0  0  0
   37.6700   24.8200   42.9730 H   0  0  0  0  0  0  0  0  0  0  0  0
   36.3070   25.3930   42.0300 H   0  0  0  0  0  0  0  0  0  0  0  0
   36.8600   22.8330   42.0270 H   0  0  0  0  0  0  0  0  0  0  0  0
   36.2750   23.6700   40.5960 H   0  0  0  0  0  0  0  0  0  0  0  0
   37.9500   22.6180   39.6460 H   0  0  0  0  0  0  0  0  0  0  0  0
   38.7760   22.0790   40.9490 H   0  0  0  0  0  0  0  0  0  0  0  0
   39.0020   24.4860   39.0450 H   0  0  0  0  0  0  0  0  0  0  0  0
   40.3040   23.6490   39.8980 H   0  0  0  0  0  0  0  0  0  0  0  0
   40.1940   25.8660   40.3460 H   0  0  0  0  0  0  0  0  0  0  0  0
   38.1720   27.2000   41.6710 C   0  0  0  0  0  0  0  0  0  0  0  0
   37.5690   27.3710   42.9090 C   0  0  0  0  0  0  0  0  0  0  0  0
   37.5490   28.6540   43.5050 C   0  0  0  0  0  0  0  0  0  0  0  0
   38.1560   29.6800   42.7870 N   0  0  0  0  0  0  0  0  0  0  0  0
   38.7220   29.4460   41.5980 C   0  0  0  0  0  0  0  0  0  0  0  0
   38.7300   28.2300   41.0480 N   0  0  0  0  0  0  0  0  0  0  0  0
   37.0920   26.7450   43.6310 H   0  0  0  0  0  0  0  0  0  0  0  0
   37.1380   28.9700   44.4290 H   0  0  0  0  0  0  0  0  0  0  0  0
   39.3620   30.5670   40.9010 C   0  0  0  0  0  0  0  0  0  0  0  0
   39.0880   31.8710   41.2530 C   0  0  0  0  0  0  0  0  0  0  0  0
   39.6500   32.9710   40.6460 C   0  0  0  0  0  0  0  0  0  0  0  0
   40.5300   32.6880   39.6330 C   0  0  0  0  0  0  0  0  0  0  0  0
   40.8170   31.3960   39.2690 C   0  0  0  0  0  0  0  0  0  0  0  0
   40.2320   30.3320   39.9030 N   0  0  0  0  0  0  0  0  0  0  0  0
   38.3760   32.0570   42.0680 H   0  0  0  0  0  0  0  0  0  0  0  0
   39.4230   33.9940   40.9340 H   0  0  0  0  0  0  0  0  0  0  0  0
   40.9940   33.5330   39.1320 H   0  0  0  0  0  0  0  0  0  0  0  0
   41.7490   31.1620   38.2000 C   0  0  0  0  0  0  0  0  0  0  0  0
   41.7010   30.2280   37.1670 C   0  0  0  0  0  0  0  0  0  0  0  0
   40.8510   29.5650   37.1340 H   0  0  0  0  0  0  0  0  0  0  0  0
   42.7290   30.2090   36.2630 C   0  0  0  0  0  3  0  0  0  0  0  0
   43.7770   31.1440   36.4370 C   0  0  0  0  0  3  0  0  0  0  0  0
   43.2100   32.0610   37.9800 S   0  0  0  0  0  0  0  0  0  0  0  0
   39.9850   24.8640   42.2330 N   0  0  0  0  0  0  0  0  0  0  0  0
   40.9700   25.4070   43.0750 C   0  0  0  0  0  0  0  0  0  0  0  0
   40.7650   26.4310   43.8220 O   0  0  0  0  0  0  0  0  0  0  0  0
   42.2240   24.7260   43.0450 N   0  0  0  0  0  0  0  0  0  0  0  0
   39.6610   23.9320   42.6930 H   0  0  0  0  0  0  0  0  0  0  0  0
   42.3650   23.6990   43.2600 H   0  0  0  0  0  0  0  0  0  0  0  0
   43.2480   24.9090   42.8510 H   0  0  0  0  0  0  0  0  0  0  0  0
  1  7  1  6  0  0  0
  1 17  1  0  0  0  0
  1  2  1  0  0  0  0
  2  9  1  0  0  0  0
  2  8  1  0  0  0  0
  3  2  1  0  0  0  0
  3 10  1  0  0  0  0
  4 13  1  0  0  0  0
  4  3  1  0  0  0  0
  5  4  1  0  0  0  0
  5  6  1  0  0  0  0
  6 16  1  6  0  0  0
  6  1  1  0  0  0  0
  6 40  1  0  0  0  0
 11  3  1  0  0  0  0
 12  4  1  0  0  0  0
 14  5  1  0  0  0  0
 15  5  1  0  0  0  0
 17 18  1  0  0  0  0
 18 19  2  0  0  0  0
 18 23  1  0  0  0  0
 19 24  1  0  0  0  0
 20 19  1  0  0  0  0
 21 20  2  0  0  0  0
 22 21  1  0  0  0  0
 22 17  2  0  0  0  0
 25 26  1  0  0  0  0
 25 21  1  0  0  0  0
 26 31  1  0  0  0  0
 27 32  1  0  0  0  0
 27 26  2  0  0  0  0
 28 27  1  0  0  0  0
 29 28  2  0  0  0  0
 29 30  1  0  0  0  0
 30 25  2  0  0  0  0
 33 28  1  0  0  0  0
 34 29  1  0  0  0  0
 35 34  2  0  0  0  0
 36 35  1  0  0  0  0
 37 38  2  0  0  0  0
 37 35  1  0  0  0  0
 38 39  1  0  0  0  0
 39 34  1  0  0  0  0
 40 44  1  0  0  0  0
 40 41  1  0  0  0  0
 41 42  2  0  0  0  0
 43 41  1  0  0  0  0
 43 45  1  0  0  0  0
 46 43  1  0  0  0  0
M  END
>  <minimizedAffinity>
-6.08790445

$$$$

 OpenBabel03252507343D

 46 49  0  0  1  0  0  0  0  0999 V2000
   41.7680   32.9770   39.7110 C   0  0  2  0  0  0  0  0  0  0  0  0
   42.2790   31.7020   38.9760 C   0  0  0  0  0  0  0  0  0  0  0  0
   43.7130   31.8820   38.6090 C   0  0  0  0  0  0  0  0  0  0  0  0
   44.5910   32.4730   39.6570 C   0  0  0  0  0  0  0  0  0  0  0  0
   43.9650   33.4990   40.4540 C   0  0  0  0  0  0  0  0  0  0  0  0
   42.5380   33.1400   40.9280 C   0  0  2  0  0  0  0  0  0  0  0  0
   41.9470   33.7710   38.9490 H   0  0  0  0  0  0  0  0  0  0  0  0
   42.0650   30.7980   39.5430 H   0  0  0  0  0  0  0  0  0  0  0  0
   41.6470   31.6470   38.0660 H   0  0  0  0  0  0  0  0  0  0  0  0
   44.1170   30.8470   38.4090 H   0  0  0  0  0  0  0  0  0  0  0  0
   43.7220   32.3660   37.6140 H   0  0  0  0  0  0  0  0  0  0  0  0
   45.2540   33.1470   38.9790 H   0  0  0  0  0  0  0  0  0  0  0  0
   45.4460   31.8900   40.0060 H   0  0  0  0  0  0  0  0  0  0  0  0
   43.8550   34.5230   40.0300 H   0  0  0  0  0  0  0  0  0  0  0  0
   44.5400   33.6540   41.4080 H   0  0  0  0  0  0  0  0  0  0  0  0
   42.3060   33.9970   41.5620 H   0  0  0  0  0  0  0  0  0  0  0  0
   40.3410   32.9110   39.9550 C   0  0  0  0  0  0  0  0  0  0  0  0
   39.6240   34.0970   39.8790 C   0  0  0  0  0  0  0  0  0  0  0  0
   38.2310   34.0890   40.1310 C   0  0  0  0  0  0  0  0  0  0  0  0
   37.6660   32.8560   40.4430 N   0  0  0  0  0  0  0  0  0  0  0  0
   38.4150   31.7500   40.4980 C   0  0  0  0  0  0  0  0  0  0  0  0
   39.7270   31.7740   40.2600 N   0  0  0  0  0  0  0  0  0  0  0  0
   39.8340   35.1140   39.6300 H   0  0  0  0  0  0  0  0  0  0  0  0
   37.5320   34.8850   40.1210 H   0  0  0  0  0  0  0  0  0  0  0  0
   37.7540   30.4790   40.8140 C   0  0  0  0  0  0  0  0  0  0  0  0
   36.4270   30.2730   40.5040 C   0  0  0  0  0  0  0  0  0  0  0  0
   35.7410   29.1100   40.7680 C   0  0  0  0  0  0  0  0  0  0  0  0
   36.4790   28.1290   41.3800 C   0  0  0  0  0  0  0  0  0  0  0  0
   37.8010   28.3140   41.6960 C   0  0  0  0  0  0  0  0  0  0  0  0
   38.4420   29.4920   41.4130 N   0  0  0  0  0  0  0  0  0  0  0  0
   35.8690   31.0830   40.0150 H   0  0  0  0  0  0  0  0  0  0  0  0
   34.6940   28.9620   40.5180 H   0  0  0  0  0  0  0  0  0  0  0  0
   35.9700   27.1950   41.6040 H   0  0  0  0  0  0  0  0  0  0  0  0
   38.5230   27.2490   42.3370 C   0  0  0  0  0  0  0  0  0  0  0  0
   39.3200   27.2760   43.4800 C   0  0  0  0  0  0  0  0  0  0  0  0
   39.4340   28.2220   43.9860 H   0  0  0  0  0  0  0  0  0  0  0  0
   39.9040   26.1080   43.8910 C   0  0  0  0  0  3  0  0  0  0  0  0
   39.6600   24.9440   43.1230 C   0  0  0  0  0  3  0  0  0  0  0  0
   38.5380   25.6150   41.7690 S   0  0  0  0  0  0  0  0  0  0  0  0
   42.5940   31.8720   41.6580 N   0  0  0  0  0  0  0  0  0  0  0  0
   42.1010   31.5010   42.9210 C   0  0  0  0  0  0  0  0  0  0  0  0
   40.8620   31.2450   43.1410 O   0  0  0  0  0  0  0  0  0  0  0  0
   43.0880   31.4220   43.9490 N   0  0  0  0  0  0  0  0  0  0  0  0
   43.1430   31.0130   41.2750 H   0  0  0  0  0  0  0  0  0  0  0  0
   43.9510   30.8110   43.9190 H   0  0  0  0  0  0  0  0  0  0  0  0
   43.3080   31.8260   44.9020 H   0  0  0  0  0  0  0  0  0  0  0  0
  1  7  1  6  0  0  0
  1 17  1  0  0  0  0
  1  6  1  0  0  0  0
  2  8  1  0  0  0  0
  2  1  1  0  0  0  0
  3  2  1  0  0  0  0
  3  4  1  0  0  0  0
  4 13  1  0  0  0  0
  4  5  1  0  0  0  0
  5  6  1  0  0  0  0
  5 15  1  0  0  0  0
  6 16  1  1  0  0  0
  6 40  1  0  0  0  0
  9  2  1  0  0  0  0
 10  3  1  0  0  0  0
 11  3  1  0  0  0  0
 12  4  1  0  0  0  0
 14  5  1  0  0  0  0
 17 22  1  0  0  0  0
 18 17  2  0  0  0  0
 18 19  1  0  0  0  0
 19 20  2  0  0  0  0
 20 21  1  0  0  0  0
 21 25  1  0  0  0  0
 22 21  2  0  0  0  0
 23 18  1  0  0  0  0
 24 19  1  0  0  0  0
 25 30  1  0  0  0  0
 26 27  1  0  0  0  0
 26 25  2  0  0  0  0
 27 28  2  0  0  0  0
 28 33  1  0  0  0  0
 28 29  1  0  0  0  0
 29 34  1  0  0  0  0
 30 29  2  0  0  0  0
 31 26  1  0  0  0  0
 32 27  1  0  0  0  0
 34 35  2  0  0  0  0
 35 37  1  0  0  0  0
 35 36  1  0  0  0  0
 38 37  2  0  0  0  0
 39 34  1  0  0  0  0
 39 38  1  0  0  0  0
 40 41  1  0  0  0  0
 41 42  2  0  0  0  0
 41 43  1  0  0  0  0
 43 46  1  0  0  0  0
 44 40  1  0  0  0  0
 45 43  1  0  0  0  0
M  END
>  <minimizedAffinity>
-6.06757927

$$$$
