
 OpenBabel03252507553D

 41 44  0  0  1  0  0  0  0  0999 V2000
   47.1360   34.8070   42.0070 C   0  0  2  0  0  0  0  0  0  0  0  0
   46.3680   34.2880   40.7910 C   0  0  0  0  0  0  0  0  0  0  0  0
   47.5640   34.1300   39.8310 C   0  0  0  0  0  0  0  0  0  0  0  0
   48.6960   33.6770   40.6990 C   0  0  1  0  0  0  0  0  0  0  0  0
   48.1860   33.7330   42.1090 C   0  0  0  0  0  0  0  0  0  0  0  0
   47.5590   35.7780   41.7390 H   0  0  0  0  0  0  0  0  0  0  0  0
   45.9700   33.2880   40.9930 H   0  0  0  0  0  0  0  0  0  0  0  0
   45.6510   35.0170   40.4050 H   0  0  0  0  0  0  0  0  0  0  0  0
   47.8160   35.1480   39.4490 H   0  0  0  0  0  0  0  0  0  0  0  0
   47.3190   33.4140   39.0280 H   0  0  0  0  0  0  0  0  0  0  0  0
   49.5910   34.3340   40.6250 H   0  0  0  0  0  0  0  0  0  0  0  0
   48.9600   34.0950   42.8190 H   0  0  0  0  0  0  0  0  0  0  0  0
   47.7120   32.7890   42.4370 H   0  0  0  0  0  0  0  0  0  0  0  0
   44.5640   35.8080   44.5700 C   0  0  0  0  0  0  0  0  0  0  0  0
   45.2950   35.8460   43.3730 C   0  0  0  0  0  0  0  0  0  0  0  0
   46.2710   34.8670   43.2160 C   0  0  0  0  0  0  0  0  0  0  0  0
   46.4950   33.9060   44.2130 N   0  0  0  0  0  0  0  0  0  0  0  0
   45.7510   33.9290   45.3480 C   0  0  0  0  0  0  0  0  0  0  0  0
   44.7910   34.8780   45.5200 N   0  0  0  0  0  0  0  0  0  0  0  0
   43.7970   36.5590   44.7210 H   0  0  0  0  0  0  0  0  0  0  0  0
   45.1480   36.5670   42.5940 H   0  0  0  0  0  0  0  0  0  0  0  0
   46.0180   33.1410   46.0360 H   0  0  0  0  0  0  0  0  0  0  0  0
   49.1490   32.2570   40.4450 C   0  0  2  0  0  0  0  0  0  0  0  0
   50.3520   31.8370   41.1560 C   0  0  0  0  0  0  0  0  0  0  0  0
   50.3580   31.9650   39.6710 C   0  0  1  0  0  0  0  0  0  0  0  0
   48.3180   31.5350   40.3690 H   0  0  0  0  0  0  0  0  0  0  0  0
   50.8760   32.5500   41.7950 H   0  0  0  0  0  0  0  0  0  0  0  0
   50.3420   30.8090   41.6200 H   0  0  0  0  0  0  0  0  0  0  0  0
   50.8810   32.8160   39.2120 H   0  0  0  0  0  0  0  0  0  0  0  0
   50.3710   30.7730   38.9100 O   0  0  0  0  0  0  0  0  0  0  0  0
   50.8320   30.8950   36.3490 O   0  0  0  0  0  0  0  0  0  0  0  0
   51.5170   30.9320   37.6950 P   0  0  1  0  0  0  0  0  0  0  0  0
   52.2960   32.4570   37.8260 O   0  0  0  0  0  0  0  0  0  0  0  0
   52.7930   32.4470   38.7010 H   0  0  0  0  0  0  0  0  0  0  0  0
   52.7200   29.7880   37.7050 O   0  0  0  0  0  0  0  0  0  0  0  0
   53.8880   30.0310   36.9890 C   0  0  0  0  0  0  0  0  0  0  0  0
   55.0700   30.6420   37.2040 C   0  0  0  0  0  0  0  0  0  0  0  0
   55.1310   31.0570   38.2010 H   0  0  0  0  0  0  0  0  0  0  0  0
   56.0240   30.6960   36.2490 C   0  0  0  0  0  3  0  0  0  0  0  0
   55.6870   30.0710   35.0290 C   0  0  0  0  0  3  0  0  0  0  0  0
   53.9450   29.4240   35.3620 S   0  0  0  0  0  0  0  0  0  0  0  0
  1  6  1  6  0  0  0
  1  5  1  0  0  0  0
  1 16  1  0  0  0  0
  2  7  1  0  0  0  0
  2  1  1  0  0  0  0
  3  4  1  0  0  0  0
  3  2  1  0  0  0  0
  4 11  1  6  0  0  0
  4  5  1  0  0  0  0
  5 13  1  0  0  0  0
  5 12  1  0  0  0  0
  8  2  1  0  0  0  0
  9  3  1  0  0  0  0
 10  3  1  0  0  0  0
 14 20  1  0  0  0  0
 14 19  1  0  0  0  0
 15 14  2  0  0  0  0
 16 15  1  0  0  0  0
 16 17  2  0  0  0  0
 17 18  1  0  0  0  0
 18 19  2  0  0  0  0
 18 22  1  0  0  0  0
 21 15  1  0  0  0  0
 23 26  1  6  0  0  0
 23  4  1  0  0  0  0
 23 24  1  0  0  0  0
 24 28  1  0  0  0  0
 24 27  1  0  0  0  0
 25 29  1  6  0  0  0
 25 23  1  0  0  0  0
 25 24  1  0  0  0  0
 30 25  1  0  0  0  0
 32 31  2  6  0  0  0
 32 35  1  0  0  0  0
 32 33  1  0  0  0  0
 32 30  1  0  0  0  0
 33 34  1  0  0  0  0
 36 37  2  0  0  0  0
 36 35  1  0  0  0  0
 37 38  1  0  0  0  0
 39 37  1  0  0  0  0
 40 41  1  0  0  0  0
 40 39  2  0  0  0  0
 41 36  1  0  0  0  0
M  END
>  <minimizedAffinity>
-5.50344038

>  <minimizedRMSD>
1.64113212

$$$$
