
 OpenBabel03242523533D

 42 45  0  0  1  0  0  0  0  0999 V2000
   42.7950   34.4500   38.8150 C   0  0  1  0  0  0  0  0  0  0  0  0
   42.9590   35.1860   40.1360 C   0  0  1  0  0  0  0  0  0  0  0  0
   41.6800   35.4840   40.6390 O   0  0  0  0  0  0  0  0  0  0  0  0
   40.7640   35.7960   39.6310 C   0  0  0  0  0  0  0  0  0  0  0  0
   40.4160   34.5810   38.7910 C   0  0  2  0  0  0  0  0  0  0  0  0
   41.6000   33.5690   38.9760 C   0  0  1  0  0  0  0  0  0  0  0  0
   43.7230   33.8750   38.5680 H   0  0  0  0  0  0  0  0  0  0  0  0
   43.5830   36.0880   40.0550 H   0  0  0  0  0  0  0  0  0  0  0  0
   39.8490   36.1170   40.1390 H   0  0  0  0  0  0  0  0  0  0  0  0
   41.1040   36.6480   39.0100 H   0  0  0  0  0  0  0  0  0  0  0  0
   39.4710   34.1150   39.1060 H   0  0  0  0  0  0  0  0  0  0  0  0
   41.3800   33.3570   40.0750 H   0  0  0  0  0  0  0  0  0  0  0  0
   42.6070   35.3520   37.7570 O   0  0  0  0  0  0  0  0  0  0  0  0
   43.4330   35.8000   37.5190 H   0  0  0  0  0  0  0  0  0  0  0  0
   40.4420   34.9240   37.4460 O   0  0  0  0  0  0  0  0  0  0  0  0
   39.5280   35.1450   37.1040 H   0  0  0  0  0  0  0  0  0  0  0  0
   43.4640   34.2310   41.0320 O   0  0  0  0  0  0  0  0  0  0  0  0
   44.5860   34.3680   41.7500 C   0  0  0  0  0  0  0  0  0  0  0  0
   45.8370   34.4600   41.1220 C   0  0  0  0  0  0  0  0  0  0  0  0
   46.9660   34.6030   41.9140 C   0  0  0  0  0  0  0  0  0  0  0  0
   46.8250   34.6500   43.2900 N   0  0  0  0  0  0  0  0  0  0  0  0
   45.6010   34.5580   43.8580 C   0  0  0  0  0  0  0  0  0  0  0  0
   44.4880   34.4180   43.0920 N   0  0  0  0  0  0  0  0  0  0  0  0
   45.9540   34.4240   40.0530 H   0  0  0  0  0  0  0  0  0  0  0  0
   45.5680   34.6020   44.9390 H   0  0  0  0  0  0  0  0  0  0  0  0
   48.3340   34.6910   41.3210 C   0  0  0  0  0  0  0  0  0  0  0  0
   49.0740   36.0180   41.5010 C   0  0  0  0  0  0  0  0  0  0  0  0
   49.5000   34.6860   42.1460 C   0  0  0  0  0  0  0  0  0  0  0  0
   48.3760   34.3110   40.2620 H   0  0  0  0  0  0  0  0  0  0  0  0
   48.6470   36.7470   42.1890 H   0  0  0  0  0  0  0  0  0  0  0  0
   49.7470   36.3420   40.6860 H   0  0  0  0  0  0  0  0  0  0  0  0
   50.4450   34.2170   41.8010 H   0  0  0  0  0  0  0  0  0  0  0  0
   49.3720   34.6120   43.2540 H   0  0  0  0  0  0  0  0  0  0  0  0
   41.4310   32.5800   38.0760 O   0  0  0  0  0  0  0  0  0  0  0  0
   40.6780   31.4840   38.1240 C   0  0  0  0  0  0  0  0  0  0  0  0
   39.6560   31.2740   37.3110 O   0  0  0  0  0  0  0  0  0  0  0  0
   40.7060   30.1830   39.0320 C   0  0  0  0  0  0  0  0  0  0  0  0
   39.8040   29.3330   39.3730 C   0  0  0  0  0  0  0  0  0  0  0  0
   38.8200   29.5260   38.9590 H   0  0  0  0  0  0  0  0  0  0  0  0
   40.1200   28.2950   40.1910 C   0  0  0  0  0  3  0  0  0  0  0  0
   41.4510   28.2290   40.6150 C   0  0  0  0  0  3  0  0  0  0  0  0
   42.2040   29.7720   39.7460 S   0  0  0  0  0  0  0  0  0  0  0  0
  1  7  1  6  0  0  0
  1  6  1  0  0  0  0
  1  2  1  0  0  0  0
  2  8  1  6  0  0  0
  2  3  1  0  0  0  0
  2 17  1  0  0  0  0
  4  9  1  0  0  0  0
  4  3  1  0  0  0  0
  5  6  1  0  0  0  0
  5 11  1  1  0  0  0
  5  4  1  0  0  0  0
  6 12  1  1  0  0  0
 10  4  1  0  0  0  0
 13  1  1  0  0  0  0
 14 13  1  0  0  0  0
 15  5  1  0  0  0  0
 16 15  1  0  0  0  0
 17 18  1  0  0  0  0
 18 23  1  0  0  0  0
 19 18  2  0  0  0  0
 19 20  1  0  0  0  0
 20 21  2  0  0  0  0
 21 22  1  0  0  0  0
 22 25  1  0  0  0  0
 23 22  2  0  0  0  0
 24 19  1  0  0  0  0
 26 27  1  0  0  0  0
 26 20  1  0  0  0  0
 26 28  1  0  0  0  0
 27 28  1  0  0  0  0
 27 30  1  0  0  0  0
 28 33  1  0  0  0  0
 29 26  1  0  0  0  0
 31 27  1  0  0  0  0
 32 28  1  0  0  0  0
 34 35  1  0  0  0  0
 34  6  1  0  0  0  0
 35 37  1  0  0  0  0
 36 35  2  0  0  0  0
 37 38  2  0  0  0  0
 37 42  1  0  0  0  0
 38 40  1  0  0  0  0
 39 38  1  0  0  0  0
 40 41  2  0  0  0  0
 42 41  1  0  0  0  0
M  END
>  <minimizedAffinity>
-5.69843817

>  <minimizedRMSD>
0.714354634

$$$$
