
 OpenBabel03242523533D

 42 45  0  0  1  0  0  0  0  0999 V2000
   42.8110   34.4940   38.7650 C   0  0  1  0  0  0  0  0  0  0  0  0
   42.9600   35.1820   40.1130 C   0  0  1  0  0  0  0  0  0  0  0  0
   41.6760   35.4340   40.6270 O   0  0  0  0  0  0  0  0  0  0  0  0
   40.7530   35.7640   39.6310 C   0  0  0  0  0  0  0  0  0  0  0  0
   40.4300   34.5740   38.7450 C   0  0  2  0  0  0  0  0  0  0  0  0
   41.6360   33.5810   38.8920 C   0  0  1  0  0  0  0  0  0  0  0  0
   43.7510   33.9480   38.4970 H   0  0  0  0  0  0  0  0  0  0  0  0
   43.5650   36.1000   40.0660 H   0  0  0  0  0  0  0  0  0  0  0  0
   39.8310   36.0450   40.1510 H   0  0  0  0  0  0  0  0  0  0  0  0
   41.0740   36.6450   39.0430 H   0  0  0  0  0  0  0  0  0  0  0  0
   39.4960   34.0760   39.0430 H   0  0  0  0  0  0  0  0  0  0  0  0
   41.4210   33.3240   39.9830 H   0  0  0  0  0  0  0  0  0  0  0  0
   42.6030   35.4300   37.7420 O   0  0  0  0  0  0  0  0  0  0  0  0
   43.4200   35.9050   37.5210 H   0  0  0  0  0  0  0  0  0  0  0  0
   40.4480   34.9680   37.4150 O   0  0  0  0  0  0  0  0  0  0  0  0
   39.5290   35.1820   37.0810 H   0  0  0  0  0  0  0  0  0  0  0  0
   43.4870   34.2060   40.9730 O   0  0  0  0  0  0  0  0  0  0  0  0
   44.5980   34.3450   41.7070 C   0  0  0  0  0  0  0  0  0  0  0  0
   45.8580   34.4420   41.0970 C   0  0  0  0  0  0  0  0  0  0  0  0
   46.9740   34.5870   41.9050 C   0  0  0  0  0  0  0  0  0  0  0  0
   46.8130   34.6320   43.2790 N   0  0  0  0  0  0  0  0  0  0  0  0
   45.5820   34.5350   43.8300 C   0  0  0  0  0  0  0  0  0  0  0  0
   44.4800   34.3920   43.0470 N   0  0  0  0  0  0  0  0  0  0  0  0
   45.9900   34.4090   40.0300 H   0  0  0  0  0  0  0  0  0  0  0  0
   45.5330   34.5770   44.9100 H   0  0  0  0  0  0  0  0  0  0  0  0
   48.3510   34.6820   41.3320 C   0  0  0  0  0  0  0  0  0  0  0  0
   49.0740   36.0180   41.5040 C   0  0  0  0  0  0  0  0  0  0  0  0
   49.5040   34.7000   42.1750 C   0  0  0  0  0  0  0  0  0  0  0  0
   48.4130   34.2860   40.2800 H   0  0  0  0  0  0  0  0  0  0  0  0
   48.6290   36.7530   42.1750 H   0  0  0  0  0  0  0  0  0  0  0  0
   49.7560   36.3380   40.6950 H   0  0  0  0  0  0  0  0  0  0  0  0
   50.4580   34.2370   41.8510 H   0  0  0  0  0  0  0  0  0  0  0  0
   49.3590   34.6420   43.2820 H   0  0  0  0  0  0  0  0  0  0  0  0
   41.4880   32.6240   37.9560 O   0  0  0  0  0  0  0  0  0  0  0  0
   40.7780   31.4980   37.9720 C   0  0  0  0  0  0  0  0  0  0  0  0
   39.5770   31.3930   37.4290 O   0  0  0  0  0  0  0  0  0  0  0  0
   41.0530   30.0470   38.5540 C   0  0  0  0  0  0  0  0  0  0  0  0
   40.4750   28.9120   38.3850 C   0  0  0  0  0  0  0  0  0  0  0  0
   39.6310   28.9300   37.7060 H   0  0  0  0  0  0  0  0  0  0  0  0
   40.9340   27.8110   39.0360 C   0  0  0  0  0  3  0  0  0  0  0  0
   42.0400   28.0030   39.8710 C   0  0  0  0  0  3  0  0  0  0  0  0
   42.3630   29.8870   39.6430 S   0  0  0  0  0  0  0  0  0  0  0  0
  1  7  1  6  0  0  0
  1  6  1  0  0  0  0
  1  2  1  0  0  0  0
  2  8  1  6  0  0  0
  2  3  1  0  0  0  0
  2 17  1  0  0  0  0
  4  9  1  0  0  0  0
  4  3  1  0  0  0  0
  5  6  1  0  0  0  0
  5 11  1  1  0  0  0
  5  4  1  0  0  0  0
  6 12  1  1  0  0  0
 10  4  1  0  0  0  0
 13  1  1  0  0  0  0
 14 13  1  0  0  0  0
 15  5  1  0  0  0  0
 16 15  1  0  0  0  0
 17 18  1  0  0  0  0
 18 23  1  0  0  0  0
 19 18  2  0  0  0  0
 19 20  1  0  0  0  0
 20 21  2  0  0  0  0
 21 22  1  0  0  0  0
 22 25  1  0  0  0  0
 23 22  2  0  0  0  0
 24 19  1  0  0  0  0
 26 27  1  0  0  0  0
 26 20  1  0  0  0  0
 26 28  1  0  0  0  0
 27 30  1  0  0  0  0
 27 28  1  0  0  0  0
 28 33  1  0  0  0  0
 29 26  1  0  0  0  0
 31 27  1  0  0  0  0
 32 28  1  0  0  0  0
 34 35  1  0  0  0  0
 34  6  1  0  0  0  0
 35 37  1  0  0  0  0
 36 35  2  0  0  0  0
 37 42  1  0  0  0  0
 38 37  2  0  0  0  0
 38 40  1  0  0  0  0
 39 38  1  0  0  0  0
 40 41  2  0  0  0  0
 42 41  1  0  0  0  0
M  END
>  <minimizedAffinity>
-5.59856367

>  <minimizedRMSD>
0.261028171

$$$$
