
 OpenBabel03252508563D

 21 22  0  0  0  0  0  0  0  0999 V2000
   45.6510   34.6600   42.5760 C   0  0  0  0  0  0  0  0  0  0  0  0
   45.2530   33.9500   43.3030 H   0  0  0  0  0  0  0  0  0  0  0  0
   45.4140   35.6710   42.9430 H   0  0  0  0  0  0  0  0  0  0  0  0
   49.2670   35.3600   41.7570 C   0  0  0  0  0  0  0  0  0  0  0  0
   47.8560   35.4990   41.8510 C   0  0  0  0  0  0  0  0  0  0  0  0
   47.1200   34.5070   42.4830 C   0  0  0  0  0  0  0  0  0  0  0  0
   47.8040   33.4480   42.9810 N   0  0  0  0  0  0  0  0  0  0  0  0
   49.1350   33.3300   42.8850 C   0  0  0  0  0  0  0  0  0  0  0  0
   49.8560   34.2780   42.2790 N   0  0  0  0  0  0  0  0  0  0  0  0
   49.8010   36.1580   41.2550 H   0  0  0  0  0  0  0  0  0  0  0  0
   47.3140   36.3550   41.4470 H   0  0  0  0  0  0  0  0  0  0  0  0
   49.6190   32.4550   43.3060 H   0  0  0  0  0  0  0  0  0  0  0  0
   45.0500   34.4610   41.2050 C   0  0  0  0  0  0  0  0  0  0  0  0
   45.2910   33.4030   40.8940 H   0  0  0  0  0  0  0  0  0  0  0  0
   45.4760   35.1120   40.4460 H   0  0  0  0  0  0  0  0  0  0  0  0
   43.5840   34.5330   41.2560 C   0  0  0  0  0  0  0  0  0  0  0  0
   42.7460   35.6180   41.3740 C   0  0  0  0  0  0  0  0  0  0  0  0
   43.2030   36.5930   41.4410 H   0  0  0  0  0  0  0  0  0  0  0  0
   41.4020   35.4330   41.4020 C   0  0  0  0  0  3  0  0  0  0  0  0
   40.9650   34.0450   41.3010 C   0  0  0  0  0  3  0  0  0  0  0  0
   42.5760   33.1190   41.1720 S   0  0  0  0  0  0  0  0  0  0  0  0
  1  3  1  0  0  0  0
  1  2  1  0  0  0  0
  4  5  2  0  0  0  0
  4  9  1  0  0  0  0
  5  6  1  0  0  0  0
  6  1  1  0  0  0  0
  6  7  2  0  0  0  0
  8  7  1  0  0  0  0
  8 12  1  0  0  0  0
  9  8  2  0  0  0  0
 10  4  1  0  0  0  0
 11  5  1  0  0  0  0
 13 16  1  0  0  0  0
 13  1  1  0  0  0  0
 14 13  1  0  0  0  0
 15 13  1  0  0  0  0
 16 17  2  0  0  0  0
 17 19  1  0  0  0  0
 17 18  1  0  0  0  0
 20 19  2  0  0  0  0
 21 16  1  0  0  0  0
 21 20  1  0  0  0  0
M  END
>  <minimizedAffinity>
-3.50515318

>  <minimizedRMSD>
5.63820601

$$$$
