
 OpenBabel03252509253D

 24 26  0  0  1  0  0  0  0  0999 V2000
   38.8310   29.2970   42.7770 C   0  0  1  0  0  0  0  0  0  0  0  0
   37.5820   28.8060   43.5540 C   0  0  0  0  0  0  0  0  0  0  0  0
   38.2900   28.0410   42.3970 C   0  0  2  0  0  0  0  0  0  0  0  0
   39.7150   29.4490   43.4230 H   0  0  0  0  0  0  0  0  0  0  0  0
   37.8120   28.4370   44.5660 H   0  0  0  0  0  0  0  0  0  0  0  0
   36.6170   29.2660   43.3690 H   0  0  0  0  0  0  0  0  0  0  0  0
   37.6370   28.0010   41.4930 H   0  0  0  0  0  0  0  0  0  0  0  0
   39.0310   32.5880   40.9920 C   0  0  0  0  0  0  0  0  0  0  0  0
   39.4160   31.5130   41.8580 C   0  0  0  0  0  0  0  0  0  0  0  0
   38.4830   30.5130   41.9390 C   0  0  0  0  0  0  0  0  0  0  0  0
   37.2880   30.5630   41.2410 N   0  0  0  0  0  0  0  0  0  0  0  0
   36.9870   31.5970   40.4470 C   0  0  0  0  0  0  0  0  0  0  0  0
   37.8700   32.6220   40.3210 N   0  0  0  0  0  0  0  0  0  0  0  0
   39.7170   33.3980   40.8860 H   0  0  0  0  0  0  0  0  0  0  0  0
   36.0160   31.4320   40.0030 H   0  0  0  0  0  0  0  0  0  0  0  0
   40.6380   31.4960   42.5740 N   0  0  0  0  0  0  0  0  0  0  0  0
   40.5120   32.1580   43.3860 H   0  0  0  0  0  0  0  0  0  0  0  0
   41.5080   30.9520   42.3690 H   0  0  0  0  0  0  0  0  0  0  0  0
   39.0070   26.8180   42.7390 C   0  0  0  0  0  0  0  0  0  0  0  0
   40.1470   26.5410   43.4080 C   0  0  0  0  0  0  0  0  0  0  0  0
   40.6830   27.3940   43.7950 H   0  0  0  0  0  0  0  0  0  0  0  0
   40.5510   25.2360   43.5550 C   0  0  0  0  0  3  0  0  0  0  0  0
   39.7220   24.2510   42.9810 C   0  0  0  0  0  3  0  0  0  0  0  0
   38.3610   25.2150   42.2300 S   0  0  0  0  0  0  0  0  0  0  0  0
  1  4  1  1  0  0  0
  1  2  1  0  0  0  0
  2  5  1  0  0  0  0
  3  7  1  6  0  0  0
  3 19  1  0  0  0  0
  3  1  1  0  0  0  0
  3  2  1  0  0  0  0
  6  2  1  0  0  0  0
  8  9  1  0  0  0  0
  9 10  2  0  0  0  0
  9 16  1  0  0  0  0
 10  1  1  0  0  0  0
 11 10  1  0  0  0  0
 12 11  2  0  0  0  0
 13 12  1  0  0  0  0
 13  8  2  0  0  0  0
 14  8  1  0  0  0  0
 15 12  1  0  0  0  0
 16 17  1  0  0  0  0
 18 16  1  0  0  0  0
 19 20  2  0  0  0  0
 20 22  1  0  0  0  0
 20 21  1  0  0  0  0
 23 22  2  0  0  0  0
 24 19  1  0  0  0  0
 24 23  1  0  0  0  0
M  END
>  <minimizedAffinity>
-4.55278873

$$$$

 OpenBabel03252509253D

 24 26  0  0  1  0  0  0  0  0999 V2000
   38.1580   31.4580   40.7260 C   0  0  1  0  0  0  0  0  0  0  0  0
   36.8650   31.1990   39.9090 C   0  0  0  0  0  0  0  0  0  0  0  0
   37.8900   30.1140   40.3550 C   0  0  2  0  0  0  0  0  0  0  0  0
   37.9640   31.9030   41.7190 H   0  0  0  0  0  0  0  0  0  0  0  0
   35.9460   31.2490   40.5150 H   0  0  0  0  0  0  0  0  0  0  0  0
   36.8220   31.4860   38.8630 H   0  0  0  0  0  0  0  0  0  0  0  0
   38.4290   29.6950   39.4730 H   0  0  0  0  0  0  0  0  0  0  0  0
   40.4560   34.1610   39.5130 C   0  0  0  0  0  0  0  0  0  0  0  0
   39.4580   33.5170   40.3160 C   0  0  0  0  0  0  0  0  0  0  0  0
   39.1530   32.2480   39.8970 C   0  0  0  0  0  0  0  0  0  0  0  0
   39.7620   31.6690   38.7970 N   0  0  0  0  0  0  0  0  0  0  0  0
   40.6880   32.3260   38.0880 C   0  0  0  0  0  0  0  0  0  0  0  0
   41.0390   33.5870   38.4510 N   0  0  0  0  0  0  0  0  0  0  0  0
   40.7390   35.1520   39.7900 H   0  0  0  0  0  0  0  0  0  0  0  0
   41.0290   31.6930   37.2800 H   0  0  0  0  0  0  0  0  0  0  0  0
   38.8370   34.1390   41.4270 N   0  0  0  0  0  0  0  0  0  0  0  0
   38.1350   34.8180   41.0280 H   0  0  0  0  0  0  0  0  0  0  0  0
   39.0140   33.9840   42.4460 H   0  0  0  0  0  0  0  0  0  0  0  0
   37.4610   29.1610   41.3720 C   0  0  0  0  0  0  0  0  0  0  0  0
   36.6250   28.1010   41.3860 C   0  0  0  0  0  0  0  0  0  0  0  0
   36.1410   27.8720   40.4500 H   0  0  0  0  0  0  0  0  0  0  0  0
   36.4380   27.3950   42.5510 C   0  0  0  0  0  3  0  0  0  0  0  0
   37.1560   27.8410   43.6800 C   0  0  0  0  0  3  0  0  0  0  0  0
   38.0960   29.2800   43.0530 S   0  0  0  0  0  0  0  0  0  0  0  0
  1  4  1  1  0  0  0
  2  3  1  0  0  0  0
  2  5  1  0  0  0  0
  2  1  1  0  0  0  0
  3  7  1  6  0  0  0
  3  1  1  0  0  0  0
  3 19  1  0  0  0  0
  6  2  1  0  0  0  0
  8 14  1  0  0  0  0
  8  9  1  0  0  0  0
  9 16  1  0  0  0  0
 10  9  2  0  0  0  0
 10  1  1  0  0  0  0
 11 10  1  0  0  0  0
 12 13  1  0  0  0  0
 12 11  2  0  0  0  0
 13  8  2  0  0  0  0
 15 12  1  0  0  0  0
 16 18  1  0  0  0  0
 17 16  1  0  0  0  0
 19 20  2  0  0  0  0
 19 24  1  0  0  0  0
 20 22  1  0  0  0  0
 21 20  1  0  0  0  0
 22 23  2  0  0  0  0
 24 23  1  0  0  0  0
M  END
>  <minimizedAffinity>
-4.54464912

$$$$

 OpenBabel03252509253D

 24 26  0  0  1  0  0  0  0  0999 V2000
   36.3280   28.5030   39.8270 C   0  0  1  0  0  0  0  0  0  0  0  0
   35.7460   27.6410   38.6760 C   0  0  0  0  0  0  0  0  0  0  0  0
   37.0830   27.3700   39.4280 C   0  0  2  0  0  0  0  0  0  0  0  0
   35.6650   28.5570   40.7090 H   0  0  0  0  0  0  0  0  0  0  0  0
   34.8990   27.0080   38.9880 H   0  0  0  0  0  0  0  0  0  0  0  0
   35.7800   28.0100   37.6560 H   0  0  0  0  0  0  0  0  0  0  0  0
   37.9550   27.5300   38.7500 H   0  0  0  0  0  0  0  0  0  0  0  0
   36.9700   32.1870   39.5490 C   0  0  0  0  0  0  0  0  0  0  0  0
   36.4820   30.9530   40.0930 C   0  0  0  0  0  0  0  0  0  0  0  0
   36.7440   29.8650   39.3030 C   0  0  0  0  0  0  0  0  0  0  0  0
   37.4160   29.9750   38.0970 N   0  0  0  0  0  0  0  0  0  0  0  0
   37.8470   31.1580   37.6450 C   0  0  0  0  0  0  0  0  0  0  0  0
   37.6210   32.2780   38.3810 N   0  0  0  0  0  0  0  0  0  0  0  0
   36.7980   33.0720   40.1190 H   0  0  0  0  0  0  0  0  0  0  0  0
   38.3420   31.0150   36.6950 H   0  0  0  0  0  0  0  0  0  0  0  0
   35.7810   30.8720   41.3210 N   0  0  0  0  0  0  0  0  0  0  0  0
   34.8040   31.2180   41.1260 H   0  0  0  0  0  0  0  0  0  0  0  0
   36.1280   30.5420   42.2510 H   0  0  0  0  0  0  0  0  0  0  0  0
   37.1400   26.2020   40.2990 C   0  0  0  0  0  0  0  0  0  0  0  0
   36.9520   25.9940   41.6210 C   0  0  0  0  0  0  0  0  0  0  0  0
   36.7010   26.8660   42.2030 H   0  0  0  0  0  0  0  0  0  0  0  0
   37.0860   24.7270   42.1370 C   0  0  0  0  0  3  0  0  0  0  0  0
   37.4190   23.7060   41.2230 C   0  0  0  0  0  3  0  0  0  0  0  0
   37.5370   24.5810   39.6210 S   0  0  0  0  0  0  0  0  0  0  0  0
  1  4  1  1  0  0  0
  2  5  1  0  0  0  0
  2  3  1  0  0  0  0
  2  1  1  0  0  0  0
  3  7  1  6  0  0  0
  3  1  1  0  0  0  0
  3 19  1  0  0  0  0
  6  2  1  0  0  0  0
  8  9  1  0  0  0  0
  8 14  1  0  0  0  0
  9 16  1  0  0  0  0
 10  1  1  0  0  0  0
 10  9  2  0  0  0  0
 11 10  1  0  0  0  0
 12 11  2  0  0  0  0
 12 13  1  0  0  0  0
 13  8  2  0  0  0  0
 15 12  1  0  0  0  0
 16 18  1  0  0  0  0
 17 16  1  0  0  0  0
 19 20  2  0  0  0  0
 20 22  1  0  0  0  0
 20 21  1  0  0  0  0
 23 22  2  0  0  0  0
 24 19  1  0  0  0  0
 24 23  1  0  0  0  0
M  END
>  <minimizedAffinity>
-4.52145052

$$$$

 OpenBabel03252509253D

 24 26  0  0  1  0  0  0  0  0999 V2000
   36.9040   29.0790   41.5830 C   0  0  1  0  0  0  0  0  0  0  0  0
   35.6270   28.8840   40.7240 C   0  0  0  0  0  0  0  0  0  0  0  0
   36.9550   28.0830   40.5730 C   0  0  2  0  0  0  0  0  0  0  0  0
   36.7380   28.8960   42.6600 H   0  0  0  0  0  0  0  0  0  0  0  0
   34.8200   28.3510   41.2540 H   0  0  0  0  0  0  0  0  0  0  0  0
   35.3660   29.6190   39.9710 H   0  0  0  0  0  0  0  0  0  0  0  0
   37.4590   28.3340   39.6100 H   0  0  0  0  0  0  0  0  0  0  0  0
   39.3320   31.9300   41.3850 C   0  0  0  0  0  0  0  0  0  0  0  0
   38.7960   30.6560   41.7650 C   0  0  0  0  0  0  0  0  0  0  0  0
   37.5300   30.4300   41.2910 C   0  0  0  0  0  0  0  0  0  0  0  0
   36.8540   31.3620   40.5220 N   0  0  0  0  0  0  0  0  0  0  0  0
   37.4120   32.5360   40.2010 C   0  0  0  0  0  0  0  0  0  0  0  0
   38.6670   32.8220   40.6380 N   0  0  0  0  0  0  0  0  0  0  0  0
   40.3160   32.1650   41.7220 H   0  0  0  0  0  0  0  0  0  0  0  0
   36.7170   33.1050   39.6010 H   0  0  0  0  0  0  0  0  0  0  0  0
   39.5020   29.7270   42.5690 N   0  0  0  0  0  0  0  0  0  0  0  0
   39.4460   30.0910   43.5570 H   0  0  0  0  0  0  0  0  0  0  0  0
   39.9930   28.8500   42.2760 H   0  0  0  0  0  0  0  0  0  0  0  0
   36.9380   26.6750   40.9520 C   0  0  0  0  0  0  0  0  0  0  0  0
   37.1110   26.0020   42.1100 C   0  0  0  0  0  0  0  0  0  0  0  0
   37.3110   26.6070   42.9800 H   0  0  0  0  0  0  0  0  0  0  0  0
   37.0280   24.6290   42.1200 C   0  0  0  0  0  3  0  0  0  0  0  0
   36.7590   24.0060   40.8850 C   0  0  0  0  0  3  0  0  0  0  0  0
   36.6280   25.4040   39.7130 S   0  0  0  0  0  0  0  0  0  0  0  0
  1  4  1  1  0  0  0
  2  5  1  0  0  0  0
  2  1  1  0  0  0  0
  3  7  1  6  0  0  0
  3  2  1  0  0  0  0
  3 19  1  0  0  0  0
  3  1  1  0  0  0  0
  6  2  1  0  0  0  0
  8 14  1  0  0  0  0
  8  9  1  0  0  0  0
  9 16  1  0  0  0  0
 10  1  1  0  0  0  0
 10  9  2  0  0  0  0
 11 10  1  0  0  0  0
 12 11  2  0  0  0  0
 12 13  1  0  0  0  0
 13  8  2  0  0  0  0
 15 12  1  0  0  0  0
 16 17  1  0  0  0  0
 18 16  1  0  0  0  0
 19 20  2  0  0  0  0
 20 22  1  0  0  0  0
 20 21  1  0  0  0  0
 23 22  2  0  0  0  0
 24 23  1  0  0  0  0
 24 19  1  0  0  0  0
M  END
>  <minimizedAffinity>
-4.43711567

$$$$

 OpenBabel03252509253D

 24 26  0  0  1  0  0  0  0  0999 V2000
   37.7960   29.3630   41.8140 C   0  0  1  0  0  0  0  0  0  0  0  0
   38.9150   29.9170   42.7340 C   0  0  0  0  0  0  0  0  0  0  0  0
   38.8130   30.1360   41.1950 C   0  0  2  0  0  0  0  0  0  0  0  0
   36.7880   29.7250   42.0870 H   0  0  0  0  0  0  0  0  0  0  0  0
   38.5940   30.7730   43.3490 H   0  0  0  0  0  0  0  0  0  0  0  0
   39.6750   29.2460   43.1220 H   0  0  0  0  0  0  0  0  0  0  0  0
   39.6340   29.5970   40.6650 H   0  0  0  0  0  0  0  0  0  0  0  0
   37.1670   25.7040   42.3380 C   0  0  0  0  0  0  0  0  0  0  0  0
   37.0590   27.1200   42.5360 C   0  0  0  0  0  0  0  0  0  0  0  0
   37.8890   27.8510   41.7270 C   0  0  0  0  0  0  0  0  0  0  0  0
   38.7420   27.2540   40.8150 N   0  0  0  0  0  0  0  0  0  0  0  0
   38.7960   25.9240   40.6780 C   0  0  0  0  0  0  0  0  0  0  0  0
   37.9970   25.1390   41.4500 N   0  0  0  0  0  0  0  0  0  0  0  0
   36.5450   25.0790   42.9380 H   0  0  0  0  0  0  0  0  0  0  0  0
   39.5220   25.6750   39.9180 H   0  0  0  0  0  0  0  0  0  0  0  0
   36.1900   27.7040   43.4900 N   0  0  0  0  0  0  0  0  0  0  0  0
   36.6490   27.5670   44.4290 H   0  0  0  0  0  0  0  0  0  0  0  0
   35.2720   28.1810   43.3310 H   0  0  0  0  0  0  0  0  0  0  0  0
   38.5070   31.4820   40.7260 C   0  0  0  0  0  0  0  0  0  0  0  0
   37.4030   32.0890   40.2400 C   0  0  0  0  0  0  0  0  0  0  0  0
   36.5220   31.4710   40.1630 H   0  0  0  0  0  0  0  0  0  0  0  0
   37.4570   33.4150   39.8790 C   0  0  0  0  0  3  0  0  0  0  0  0
   38.6970   34.0640   40.0500 C   0  0  0  0  0  3  0  0  0  0  0  0
   39.7800   32.7560   40.7300 S   0  0  0  0  0  0  0  0  0  0  0  0
  1  4  1  1  0  0  0
  1  2  1  0  0  0  0
  2  6  1  0  0  0  0
  2  5  1  0  0  0  0
  3  7  1  6  0  0  0
  3  1  1  0  0  0  0
  3  2  1  0  0  0  0
  8  9  1  0  0  0  0
  8 14  1  0  0  0  0
  9 16  1  0  0  0  0
 10  1  1  0  0  0  0
 10  9  2  0  0  0  0
 11 10  1  0  0  0  0
 12 11  2  0  0  0  0
 12 13  1  0  0  0  0
 13  8  2  0  0  0  0
 15 12  1  0  0  0  0
 16 17  1  0  0  0  0
 18 16  1  0  0  0  0
 19 24  1  0  0  0  0
 19  3  1  0  0  0  0
 20 19  2  0  0  0  0
 21 20  1  0  0  0  0
 22 23  2  0  0  0  0
 22 20  1  0  0  0  0
 23 24  1  0  0  0  0
M  END
>  <minimizedAffinity>
-4.39949894

$$$$

 OpenBabel03252509253D

 24 26  0  0  1  0  0  0  0  0999 V2000
   36.1550   30.0100   38.7390 C   0  0  1  0  0  0  0  0  0  0  0  0
   36.9330   30.3010   37.4290 C   0  0  0  0  0  0  0  0  0  0  0  0
   36.0100   29.0720   37.6840 C   0  0  2  0  0  0  0  0  0  0  0  0
   35.4310   30.8020   39.0020 H   0  0  0  0  0  0  0  0  0  0  0  0
   36.4830   31.1040   36.8220 H   0  0  0  0  0  0  0  0  0  0  0  0
   38.0070   30.1560   37.3960 H   0  0  0  0  0  0  0  0  0  0  0  0
   36.6090   28.1320   37.7280 H   0  0  0  0  0  0  0  0  0  0  0  0
   37.7410   29.7170   42.1240 C   0  0  0  0  0  0  0  0  0  0  0  0
   36.8070   30.1300   41.1180 C   0  0  0  0  0  0  0  0  0  0  0  0
   37.1230   29.6840   39.8610 C   0  0  0  0  0  0  0  0  0  0  0  0
   38.2460   28.9130   39.6140 N   0  0  0  0  0  0  0  0  0  0  0  0
   39.0810   28.5610   40.6000 C   0  0  0  0  0  0  0  0  0  0  0  0
   38.8240   28.9690   41.8710 N   0  0  0  0  0  0  0  0  0  0  0  0
   37.5490   30.0320   43.1260 H   0  0  0  0  0  0  0  0  0  0  0  0
   39.8830   27.9650   40.1890 H   0  0  0  0  0  0  0  0  0  0  0  0
   35.6750   30.9340   41.3960 N   0  0  0  0  0  0  0  0  0  0  0  0
   36.0360   31.9170   41.5190 H   0  0  0  0  0  0  0  0  0  0  0  0
   34.6720   30.6470   41.4710 H   0  0  0  0  0  0  0  0  0  0  0  0
   34.7530   29.0110   36.9470 C   0  0  0  0  0  0  0  0  0  0  0  0
   33.4480   29.0770   37.2880 C   0  0  0  0  0  0  0  0  0  0  0  0
   33.2440   29.2020   38.3400 H   0  0  0  0  0  0  0  0  0  0  0  0
   32.4820   28.9820   36.3150 C   0  0  0  0  0  3  0  0  0  0  0  0
   32.9370   28.8190   34.9900 C   0  0  0  0  0  3  0  0  0  0  0  0
   34.7590   28.8040   35.1570 S   0  0  0  0  0  0  0  0  0  0  0  0
  1  4  1  1  0  0  0
  1 10  1  0  0  0  0
  2  3  1  0  0  0  0
  2  1  1  0  0  0  0
  3  7  1  1  0  0  0
  3  1  1  0  0  0  0
  5  2  1  0  0  0  0
  6  2  1  0  0  0  0
  8 14  1  0  0  0  0
  9 16  1  0  0  0  0
  9  8  2  0  0  0  0
 10  9  1  0  0  0  0
 11 10  2  0  0  0  0
 11 12  1  0  0  0  0
 12 13  2  0  0  0  0
 13  8  1  0  0  0  0
 15 12  1  0  0  0  0
 16 18  1  0  0  0  0
 16 17  1  0  0  0  0
 19 20  2  0  0  0  0
 19  3  1  0  0  0  0
 20 21  1  0  0  0  0
 22 20  1  0  0  0  0
 23 24  1  0  0  0  0
 23 22  2  0  0  0  0
 24 19  1  0  0  0  0
M  END
>  <minimizedAffinity>
-4.22336626

$$$$

 OpenBabel03252509253D

 24 26  0  0  1  0  0  0  0  0999 V2000
   35.7870   29.6300   39.2700 C   0  0  1  0  0  0  0  0  0  0  0  0
   34.4730   29.1840   39.9630 C   0  0  0  0  0  0  0  0  0  0  0  0
   35.8380   28.4370   40.0360 C   0  0  2  0  0  0  0  0  0  0  0  0
   36.1390   30.6240   39.6010 H   0  0  0  0  0  0  0  0  0  0  0  0
   34.2220   29.7830   40.8540 H   0  0  0  0  0  0  0  0  0  0  0  0
   33.6690   28.7570   39.3720 H   0  0  0  0  0  0  0  0  0  0  0  0
   35.7830   27.4620   39.4970 H   0  0  0  0  0  0  0  0  0  0  0  0
   36.5460   29.6240   35.5980 C   0  0  0  0  0  0  0  0  0  0  0  0
   36.7440   29.8310   37.0030 C   0  0  0  0  0  0  0  0  0  0  0  0
   35.6500   29.5110   37.7630 C   0  0  0  0  0  0  0  0  0  0  0  0
   34.4760   29.0380   37.2020 N   0  0  0  0  0  0  0  0  0  0  0  0
   34.3550   28.8670   35.8810 C   0  0  0  0  0  0  0  0  0  0  0  0
   35.4040   29.1630   35.0690 N   0  0  0  0  0  0  0  0  0  0  0  0
   37.3630   29.8530   34.9510 H   0  0  0  0  0  0  0  0  0  0  0  0
   33.3650   28.4920   35.6620 H   0  0  0  0  0  0  0  0  0  0  0  0
   37.9510   30.3330   37.5480 N   0  0  0  0  0  0  0  0  0  0  0  0
   37.9520   31.3700   37.3550 H   0  0  0  0  0  0  0  0  0  0  0  0
   38.7100   29.8120   38.0470 H   0  0  0  0  0  0  0  0  0  0  0  0
   36.5370   28.4360   41.3160 C   0  0  0  0  0  0  0  0  0  0  0  0
   36.5070   27.6480   42.4130 C   0  0  0  0  0  0  0  0  0  0  0  0
   35.8220   26.8160   42.3760 H   0  0  0  0  0  0  0  0  0  0  0  0
   37.3220   27.9370   43.4820 C   0  0  0  0  0  3  0  0  0  0  0  0
   38.1540   29.0680   43.3520 C   0  0  0  0  0  3  0  0  0  0  0  0
   37.7560   29.7090   41.6860 S   0  0  0  0  0  0  0  0  0  0  0  0
  1  4  1  1  0  0  0
  1  2  1  0  0  0  0
  1  3  1  0  0  0  0
  2  3  1  0  0  0  0
  2  5  1  0  0  0  0
  3  7  1  6  0  0  0
  3 19  1  0  0  0  0
  6  2  1  0  0  0  0
  8  9  1  0  0  0  0
  9 16  1  0  0  0  0
  9 10  2  0  0  0  0
 10  1  1  0  0  0  0
 11 10  1  0  0  0  0
 12 11  2  0  0  0  0
 13  8  2  0  0  0  0
 13 12  1  0  0  0  0
 14  8  1  0  0  0  0
 15 12  1  0  0  0  0
 16 18  1  0  0  0  0
 17 16  1  0  0  0  0
 19 24  1  0  0  0  0
 19 20  2  0  0  0  0
 20 22  1  0  0  0  0
 21 20  1  0  0  0  0
 23 22  2  0  0  0  0
 24 23  1  0  0  0  0
M  END
>  <minimizedAffinity>
-4.19357204

$$$$

 OpenBabel03252509253D

 24 26  0  0  1  0  0  0  0  0999 V2000
   36.5370   30.5700   39.7820 C   0  0  1  0  0  0  0  0  0  0  0  0
   37.0280   31.6020   38.7330 C   0  0  0  0  0  0  0  0  0  0  0  0
   36.9330   30.0620   38.5170 C   0  0  2  0  0  0  0  0  0  0  0  0
   35.4960   30.7420   40.1090 H   0  0  0  0  0  0  0  0  0  0  0  0
   36.2120   32.1870   38.2790 H   0  0  0  0  0  0  0  0  0  0  0  0
   38.0060   32.0600   38.8440 H   0  0  0  0  0  0  0  0  0  0  0  0
   37.9510   29.6140   38.4250 H   0  0  0  0  0  0  0  0  0  0  0  0
   38.3110   29.4730   42.8990 C   0  0  0  0  0  0  0  0  0  0  0  0
   37.2940   29.5290   41.8890 C   0  0  0  0  0  0  0  0  0  0  0  0
   37.5230   30.4820   40.9320 C   0  0  0  0  0  0  0  0  0  0  0  0
   38.6370   31.3030   40.9630 N   0  0  0  0  0  0  0  0  0  0  0  0
   39.5520   31.2010   41.9340 C   0  0  0  0  0  0  0  0  0  0  0  0
   39.3860   30.2740   42.9140 N   0  0  0  0  0  0  0  0  0  0  0  0
   38.1900   28.7490   43.6730 H   0  0  0  0  0  0  0  0  0  0  0  0
   40.3310   31.9300   41.7650 H   0  0  0  0  0  0  0  0  0  0  0  0
   36.1540   28.6880   41.8930 N   0  0  0  0  0  0  0  0  0  0  0  0
   35.5030   29.0780   42.6260 H   0  0  0  0  0  0  0  0  0  0  0  0
   35.9620   27.8450   41.3030 H   0  0  0  0  0  0  0  0  0  0  0  0
   35.9190   29.5740   37.5900 C   0  0  0  0  0  0  0  0  0  0  0  0
   34.6440   29.1460   37.7170 C   0  0  0  0  0  0  0  0  0  0  0  0
   34.2460   29.1480   38.7190 H   0  0  0  0  0  0  0  0  0  0  0  0
   33.9460   28.7420   36.6040 C   0  0  0  0  0  3  0  0  0  0  0  0
   34.6320   28.8080   35.3730 C   0  0  0  0  0  3  0  0  0  0  0  0
   36.2810   29.4520   35.8300 S   0  0  0  0  0  0  0  0  0  0  0  0
  1  4  1  1  0  0  0
  1 10  1  0  0  0  0
  2  6  1  0  0  0  0
  2  1  1  0  0  0  0
  3  7  1  6  0  0  0
  3  2  1  0  0  0  0
  3  1  1  0  0  0  0
  5  2  1  0  0  0  0
  8 13  1  0  0  0  0
  8 14  1  0  0  0  0
  9 16  1  0  0  0  0
  9  8  2  0  0  0  0
 10 11  2  0  0  0  0
 10  9  1  0  0  0  0
 11 12  1  0  0  0  0
 12 13  2  0  0  0  0
 15 12  1  0  0  0  0
 16 17  1  0  0  0  0
 18 16  1  0  0  0  0
 19 20  2  0  0  0  0
 19  3  1  0  0  0  0
 20 21  1  0  0  0  0
 22 20  1  0  0  0  0
 23 24  1  0  0  0  0
 23 22  2  0  0  0  0
 24 19  1  0  0  0  0
M  END
>  <minimizedAffinity>
-4.18051386

$$$$

 OpenBabel03252509253D

 24 26  0  0  1  0  0  0  0  0999 V2000
   36.8080   28.8970   41.4050 C   0  0  1  0  0  0  0  0  0  0  0  0
   37.5630   29.2990   42.6990 C   0  0  0  0  0  0  0  0  0  0  0  0
   38.0260   29.6080   41.2440 C   0  0  2  0  0  0  0  0  0  0  0  0
   35.7950   29.3330   41.3380 H   0  0  0  0  0  0  0  0  0  0  0  0
   37.1010   30.1470   43.2300 H   0  0  0  0  0  0  0  0  0  0  0  0
   38.0910   28.5440   43.2710 H   0  0  0  0  0  0  0  0  0  0  0  0
   38.9450   29.0270   40.9910 H   0  0  0  0  0  0  0  0  0  0  0  0
   36.6660   25.4650   39.9020 C   0  0  0  0  0  0  0  0  0  0  0  0
   36.5580   26.8920   39.9860 C   0  0  0  0  0  0  0  0  0  0  0  0
   36.8270   27.3900   41.2330 C   0  0  0  0  0  0  0  0  0  0  0  0
   37.1660   26.5690   42.2960 N   0  0  0  0  0  0  0  0  0  0  0  0
   37.2500   25.2420   42.1520 C   0  0  0  0  0  0  0  0  0  0  0  0
   36.9960   24.6830   40.9390 N   0  0  0  0  0  0  0  0  0  0  0  0
   36.4690   25.0160   38.9540 H   0  0  0  0  0  0  0  0  0  0  0  0
   37.5270   24.8000   43.0990 H   0  0  0  0  0  0  0  0  0  0  0  0
   36.1910   27.7060   38.8860 N   0  0  0  0  0  0  0  0  0  0  0  0
   35.1490   27.5950   38.7720 H   0  0  0  0  0  0  0  0  0  0  0  0
   36.8020   28.3080   38.2860 H   0  0  0  0  0  0  0  0  0  0  0  0
   37.9930   30.9990   40.8080 C   0  0  0  0  0  0  0  0  0  0  0  0
   37.1050   31.7620   40.1350 C   0  0  0  0  0  0  0  0  0  0  0  0
   36.1970   31.2670   39.8300 H   0  0  0  0  0  0  0  0  0  0  0  0
   37.3940   33.0820   39.8820 C   0  0  0  0  0  3  0  0  0  0  0  0
   38.6330   33.5580   40.3580 C   0  0  0  0  0  3  0  0  0  0  0  0
   39.3750   32.0960   41.1690 S   0  0  0  0  0  0  0  0  0  0  0  0
  1  4  1  6  0  0  0
  1  2  1  0  0  0  0
  2  5  1  0  0  0  0
  2  6  1  0  0  0  0
  3  7  1  6  0  0  0
  3  1  1  0  0  0  0
  3  2  1  0  0  0  0
  8  9  2  0  0  0  0
  8 13  1  0  0  0  0
  9 10  1  0  0  0  0
 10  1  1  0  0  0  0
 10 11  2  0  0  0  0
 12 11  1  0  0  0  0
 12 15  1  0  0  0  0
 13 12  2  0  0  0  0
 14  8  1  0  0  0  0
 16  9  1  0  0  0  0
 17 16  1  0  0  0  0
 18 16  1  0  0  0  0
 19 24  1  0  0  0  0
 19  3  1  0  0  0  0
 20 19  2  0  0  0  0
 21 20  1  0  0  0  0
 22 20  1  0  0  0  0
 22 23  2  0  0  0  0
 23 24  1  0  0  0  0
M  END
>  <minimizedAffinity>
-4.16821623

$$$$
