
 OpenBabel03252506373D

 41 44  0  0  1  0  0  0  0  0999 V2000
   44.5280   35.4490   45.1530 C   0  0  0  0  0  0  0  0  0  0  0  0
   45.1890   35.4630   43.9130 C   0  0  0  0  0  0  0  0  0  0  0  0
   46.1260   34.5230   43.6580 C   0  0  0  0  0  0  0  0  0  0  0  0
   46.3740   33.6090   44.6300 N   0  0  0  0  0  0  0  0  0  0  0  0
   45.7450   33.6030   45.7980 C   0  0  0  0  0  0  0  0  0  0  0  0
   44.8170   34.5180   46.0750 N   0  0  0  0  0  0  0  0  0  0  0  0
   46.0870   32.5920   46.7600 N   0  0  0  0  0  0  0  0  0  0  0  0
   45.3410   32.3220   47.9420 C   0  0  0  0  0  0  0  0  0  0  0  0
   46.4220   31.9830   48.9560 C   0  0  0  0  0  0  0  0  0  0  0  0
   47.7070   31.9170   48.1960 C   0  0  0  0  0  0  0  0  0  0  0  0
   47.2270   31.7030   46.7600 C   0  0  1  0  0  0  0  0  0  0  0  0
   43.7800   36.1890   45.3730 H   0  0  0  0  0  0  0  0  0  0  0  0
   46.6490   34.5080   42.7210 H   0  0  0  0  0  0  0  0  0  0  0  0
   44.4790   31.7320   47.9860 H   0  0  0  0  0  0  0  0  0  0  0  0
   44.9910   33.3440   48.3070 H   0  0  0  0  0  0  0  0  0  0  0  0
   46.4190   32.5900   49.8560 H   0  0  0  0  0  0  0  0  0  0  0  0
   46.1820   30.9300   49.2800 H   0  0  0  0  0  0  0  0  0  0  0  0
   48.3830   31.1100   48.4890 H   0  0  0  0  0  0  0  0  0  0  0  0
   48.2190   32.9210   48.1980 H   0  0  0  0  0  0  0  0  0  0  0  0
   48.0040   32.0080   46.0510 H   0  0  0  0  0  0  0  0  0  0  0  0
   44.8230   36.4900   42.9850 N   0  0  0  0  0  0  0  0  0  0  0  0
   43.9100   36.9750   43.0760 H   0  0  0  0  0  0  0  0  0  0  0  0
   45.5000   36.7290   42.2230 H   0  0  0  0  0  0  0  0  0  0  0  0
   46.7520   30.0050   46.5570 S   0  0  0  0  0  0  0  0  0  0  0  0
   45.4700   30.4130   43.5050 O   0  0  0  0  0  0  0  0  0  0  0  0
   44.9210   29.8920   44.4890 C   0  0  0  0  0  0  0  0  0  0  0  0
   45.1450   29.6950   45.9450 C   0  0  1  0  0  0  0  0  0  0  0  0
   44.6390   28.2890   46.1350 C   0  0  0  0  0  0  0  0  0  0  0  0
   43.2620   28.4760   45.4920 C   0  0  0  0  0  0  0  0  0  0  0  0
   43.6530   29.2310   44.3100 N   0  0  0  0  0  0  0  0  0  0  0  0
   44.2930   30.2860   46.3710 H   0  0  0  0  0  0  0  0  0  0  0  0
   45.2030   27.5740   45.5250 H   0  0  0  0  0  0  0  0  0  0  0  0
   44.5420   28.0180   47.1930 H   0  0  0  0  0  0  0  0  0  0  0  0
   42.5790   29.0280   46.1530 H   0  0  0  0  0  0  0  0  0  0  0  0
   42.8760   27.5030   45.1590 H   0  0  0  0  0  0  0  0  0  0  0  0
   42.7860   29.2540   43.1240 C   0  0  0  0  0  0  0  0  0  0  0  0
   42.9210   28.4430   42.0660 C   0  0  0  0  0  0  0  0  0  0  0  0
   43.7110   27.6770   41.9990 H   0  0  0  0  0  0  0  0  0  0  0  0
   42.0460   28.5610   41.0150 C   0  0  0  0  0  0  0  0  0  0  0  0
   41.0480   29.5020   41.0610 C   0  0  0  0  0  0  0  0  0  0  0  0
   41.3600   30.3180   42.7550 S   0  0  0  0  0  0  0  0  0  0  0  0
  1 12  1  0  0  0  0
  1  6  1  0  0  0  0
  2  1  2  0  0  0  0
  3  2  1  0  0  0  0
  3  4  2  0  0  0  0
  4  5  1  0  0  0  0
  5  6  2  0  0  0  0
  5  7  1  0  0  0  0
  7 11  1  0  0  0  0
  7  8  1  0  0  0  0
  8 14  1  0  0  0  0
  8 15  1  0  0  0  0
  8  9  1  0  0  0  0
  9 17  1  0  0  0  0
  9 16  1  0  0  0  0
 10 19  1  0  0  0  0
 10 18  1  0  0  0  0
 10  9  1  0  0  0  0
 11 20  1  6  0  0  0
 11 10  1  0  0  0  0
 13  3  1  0  0  0  0
 21 22  1  0  0  0  0
 21  2  1  0  0  0  0
 23 21  1  0  0  0  0
 24 11  1  0  0  0  0
 25 26  2  0  0  0  0
 26 27  1  0  0  0  0
 27 28  1  0  0  0  0
 27 31  1  1  0  0  0
 27 24  1  0  0  0  0
 28 33  1  0  0  0  0
 29 28  1  0  0  0  0
 29 34  1  0  0  0  0
 30 26  1  0  0  0  0
 30 29  1  0  0  0  0
 32 28  1  0  0  0  0
 35 29  1  0  0  0  0
 36 30  1  0  0  0  0
 37 36  2  0  0  0  0
 38 37  1  0  0  0  0
 39 40  2  0  0  0  0
 39 37  1  0  0  0  0
 40 41  1  0  0  0  0
 41 36  1  0  0  0  0
M  END
>  <minimizedAffinity>
-5.2649951

>  <minimizedRMSD>
0.539730489

$$$$
