
 OpenBabel03242511103D

 40 44  0  0  1  0  0  0  0  0999 V2000
   36.9230   28.7640   41.3250 C   0  0  0  0  0  0  0  0  0  0  0  0
   37.3160   29.2890   42.5520 C   0  0  0  0  0  0  0  0  0  0  0  0
   37.7060   28.5100   43.6380 C   0  0  0  0  0  0  0  0  0  0  0  0
   37.7150   27.1450   43.5220 C   0  0  0  0  0  0  0  0  0  0  0  0
   37.3350   26.5780   42.3300 C   0  0  0  0  0  0  0  0  0  0  0  0
   37.3200   25.2100   42.1900 C   0  0  0  0  0  0  0  0  0  0  0  0
   36.9430   24.5770   41.0530 C   0  0  0  0  0  0  0  0  0  0  0  0
   36.5720   25.3880   40.0210 C   0  0  0  0  0  0  0  0  0  0  0  0
   36.5750   26.7850   40.1160 C   0  0  0  0  0  0  0  0  0  0  0  0
   36.9520   27.3930   41.2660 C   0  0  0  0  0  0  0  0  0  0  0  0
   37.3590   30.3450   42.7560 H   0  0  0  0  0  0  0  0  0  0  0  0
   38.0080   28.9350   44.5840 H   0  0  0  0  0  0  0  0  0  0  0  0
   38.0130   26.5230   44.3540 H   0  0  0  0  0  0  0  0  0  0  0  0
   37.6310   24.6500   43.0500 H   0  0  0  0  0  0  0  0  0  0  0  0
   36.9620   23.5130   41.0410 H   0  0  0  0  0  0  0  0  0  0  0  0
   36.2790   24.8070   39.1260 H   0  0  0  0  0  0  0  0  0  0  0  0
   36.1340   27.3740   38.8360 C   0  0  0  0  0  0  0  0  0  0  0  0
   37.1940   27.3360   37.7420 C   0  0  0  0  0  0  0  0  0  0  0  0
   38.2370   26.9830   37.8400 H   0  0  0  0  0  0  0  0  0  0  0  0
   36.8690   27.7610   36.5080 C   0  0  0  0  0  3  0  0  0  0  0  0
   35.6290   28.2230   36.2120 C   0  0  0  0  0  3  0  0  0  0  0  0
   34.8380   28.0250   37.8910 S   0  0  0  0  0  0  0  0  0  0  0  0
   36.5360   29.6380   40.3150 N   0  0  0  0  0  0  0  0  0  0  0  0
   35.5490   29.3480   40.4470 H   0  0  0  0  0  0  0  0  0  0  0  0
   37.5330   31.8760   39.6410 C   0  0  1  0  0  0  0  0  0  0  0  0
   36.9690   31.2290   38.3920 C   0  0  0  0  0  0  0  0  0  0  0  0
   37.4880   30.4260   39.5740 C   0  0  2  0  0  0  0  0  0  0  0  0
   36.7980   32.4750   40.1870 H   0  0  0  0  0  0  0  0  0  0  0  0
   37.6550   31.3030   37.5150 H   0  0  0  0  0  0  0  0  0  0  0  0
   35.8890   31.2610   38.2520 H   0  0  0  0  0  0  0  0  0  0  0  0
   38.4890   29.9170   39.4570 H   0  0  0  0  0  0  0  0  0  0  0  0
   40.3860   34.1610   40.3330 C   0  0  0  0  0  0  0  0  0  0  0  0
   41.2640   33.8460   39.2530 C   0  0  0  0  0  0  0  0  0  0  0  0
   40.8500   32.8520   38.3280 C   0  0  0  0  0  0  0  0  0  0  0  0
   39.6700   32.2500   38.4900 N   0  0  0  0  0  0  0  0  0  0  0  0
   38.8550   32.5790   39.5360 C   0  0  0  0  0  0  0  0  0  0  0  0
   39.2200   33.5230   40.4380 N   0  0  0  0  0  0  0  0  0  0  0  0
   40.6560   34.9090   41.0600 H   0  0  0  0  0  0  0  0  0  0  0  0
   42.1810   34.3800   39.2100 H   0  0  0  0  0  0  0  0  0  0  0  0
   41.5380   32.6370   37.5230 H   0  0  0  0  0  0  0  0  0  0  0  0
  1  2  1  0  0  0  0
  2 11  1  0  0  0  0
  2  3  2  0  0  0  0
  3 12  1  0  0  0  0
  4  3  1  0  0  0  0
  4 13  1  0  0  0  0
  5  4  2  0  0  0  0
  6  5  1  0  0  0  0
  6 14  1  0  0  0  0
  7  6  2  0  0  0  0
  8  9  2  0  0  0  0
  8  7  1  0  0  0  0
  9 10  1  0  0  0  0
 10  1  2  0  0  0  0
 10  5  1  0  0  0  0
 15  7  1  0  0  0  0
 16  8  1  0  0  0  0
 17  9  1  0  0  0  0
 18 19  1  0  0  0  0
 18 17  2  0  0  0  0
 20 18  1  0  0  0  0
 21 20  2  0  0  0  0
 21 22  1  0  0  0  0
 22 17  1  0  0  0  0
 23 24  1  0  0  0  0
 23  1  1  0  0  0  0
 25 28  1  1  0  0  0
 26 27  1  0  0  0  0
 26 25  1  0  0  0  0
 27 31  1  6  0  0  0
 27 25  1  0  0  0  0
 27 23  1  0  0  0  0
 29 26  1  0  0  0  0
 30 26  1  0  0  0  0
 32 37  1  0  0  0  0
 32 38  1  0  0  0  0
 33 32  2  0  0  0  0
 34 35  2  0  0  0  0
 34 33  1  0  0  0  0
 35 36  1  0  0  0  0
 36 25  1  0  0  0  0
 36 37  2  0  0  0  0
 39 33  1  0  0  0  0
 40 34  1  0  0  0  0
M  END
>  <minimizedAffinity>
-5.98703814

$$$$

 OpenBabel03242511103D

 40 44  0  0  1  0  0  0  0  0999 V2000
   36.8480   28.3790   40.8440 C   0  0  0  0  0  0  0  0  0  0  0  0
   37.0930   29.0460   42.0390 C   0  0  0  0  0  0  0  0  0  0  0  0
   37.3180   28.4030   43.2530 C   0  0  0  0  0  0  0  0  0  0  0  0
   37.3030   27.0340   43.3060 C   0  0  0  0  0  0  0  0  0  0  0  0
   37.0660   26.3280   42.1510 C   0  0  0  0  0  0  0  0  0  0  0  0
   37.0300   24.9540   42.1760 C   0  0  0  0  0  0  0  0  0  0  0  0
   36.7870   24.1900   41.0850 C   0  0  0  0  0  0  0  0  0  0  0  0
   36.5750   24.8720   39.9230 C   0  0  0  0  0  0  0  0  0  0  0  0
   36.6050   26.2700   39.8480 C   0  0  0  0  0  0  0  0  0  0  0  0
   36.8460   27.0110   40.9550 C   0  0  0  0  0  0  0  0  0  0  0  0
   37.1390   30.1180   42.1190 H   0  0  0  0  0  0  0  0  0  0  0  0
   37.5060   28.9380   44.1730 H   0  0  0  0  0  0  0  0  0  0  0  0
   37.4740   26.5160   44.2390 H   0  0  0  0  0  0  0  0  0  0  0  0
   37.2120   24.5010   43.1310 H   0  0  0  0  0  0  0  0  0  0  0  0
   36.7780   23.1330   41.2050 H   0  0  0  0  0  0  0  0  0  0  0  0
   36.3840   24.1880   39.0730 H   0  0  0  0  0  0  0  0  0  0  0  0
   36.3500   26.7010   38.4590 C   0  0  0  0  0  0  0  0  0  0  0  0
   37.5650   26.5930   37.5460 C   0  0  0  0  0  0  0  0  0  0  0  0
   38.5900   26.2950   37.8370 H   0  0  0  0  0  0  0  0  0  0  0  0
   37.4220   26.8710   36.2380 C   0  0  0  0  0  3  0  0  0  0  0  0
   36.2310   27.2470   35.7110 C   0  0  0  0  0  3  0  0  0  0  0  0
   35.1970   27.1940   37.2650 S   0  0  0  0  0  0  0  0  0  0  0  0
   36.6200   29.1260   39.6930 N   0  0  0  0  0  0  0  0  0  0  0  0
   35.6780   28.6990   39.6080 H   0  0  0  0  0  0  0  0  0  0  0  0
   37.4160   31.4360   38.9970 C   0  0  1  0  0  0  0  0  0  0  0  0
   37.3580   30.5740   37.7520 C   0  0  0  0  0  0  0  0  0  0  0  0
   37.6170   30.0050   39.1370 C   0  0  2  0  0  0  0  0  0  0  0  0
   36.4690   31.9350   39.2220 H   0  0  0  0  0  0  0  0  0  0  0  0
   38.2560   30.6910   37.0990 H   0  0  0  0  0  0  0  0  0  0  0  0
   36.3800   30.3860   37.3140 H   0  0  0  0  0  0  0  0  0  0  0  0
   38.6730   29.6870   39.3800 H   0  0  0  0  0  0  0  0  0  0  0  0
   40.7340   33.0550   38.5360 C   0  0  0  0  0  0  0  0  0  0  0  0
   40.6940   34.0640   39.5440 C   0  0  0  0  0  0  0  0  0  0  0  0
   39.5250   34.1610   40.3430 C   0  0  0  0  0  0  0  0  0  0  0  0
   38.5110   33.3180   40.1350 N   0  0  0  0  0  0  0  0  0  0  0  0
   38.5850   32.3640   39.1600 C   0  0  0  0  0  0  0  0  0  0  0  0
   39.6870   32.2440   38.3790 N   0  0  0  0  0  0  0  0  0  0  0  0
   41.6000   32.9430   37.9060 H   0  0  0  0  0  0  0  0  0  0  0  0
   41.5500   34.6860   39.6330 H   0  0  0  0  0  0  0  0  0  0  0  0
   39.5270   34.9350   41.0960 H   0  0  0  0  0  0  0  0  0  0  0  0
  1 10  2  0  0  0  0
  1  2  1  0  0  0  0
  2 11  1  0  0  0  0
  2  3  2  0  0  0  0
  3  4  1  0  0  0  0
  3 12  1  0  0  0  0
  4 13  1  0  0  0  0
  5  6  1  0  0  0  0
  5  4  2  0  0  0  0
  6 14  1  0  0  0  0
  7 15  1  0  0  0  0
  7  6  2  0  0  0  0
  8  7  1  0  0  0  0
  9  8  2  0  0  0  0
  9 10  1  0  0  0  0
 10  5  1  0  0  0  0
 16  8  1  0  0  0  0
 17  9  1  0  0  0  0
 18 19  1  0  0  0  0
 18 17  2  0  0  0  0
 20 18  1  0  0  0  0
 21 20  2  0  0  0  0
 21 22  1  0  0  0  0
 22 17  1  0  0  0  0
 23  1  1  0  0  0  0
 24 23  1  0  0  0  0
 25 27  1  0  0  0  0
 25 36  1  0  0  0  0
 25 28  1  1  0  0  0
 26 25  1  0  0  0  0
 26 27  1  0  0  0  0
 27 31  1  1  0  0  0
 27 23  1  0  0  0  0
 29 26  1  0  0  0  0
 30 26  1  0  0  0  0
 32 33  1  0  0  0  0
 33 39  1  0  0  0  0
 33 34  2  0  0  0  0
 34 40  1  0  0  0  0
 35 34  1  0  0  0  0
 36 35  2  0  0  0  0
 37 32  2  0  0  0  0
 37 36  1  0  0  0  0
 38 32  1  0  0  0  0
M  END
>  <minimizedAffinity>
-5.96306849

$$$$

 OpenBabel03242511103D

 40 44  0  0  1  0  0  0  0  0999 V2000
   35.9830   28.8430   38.7010 C   0  0  0  0  0  0  0  0  0  0  0  0
   35.2620   29.3060   37.6050 C   0  0  0  0  0  0  0  0  0  0  0  0
   34.6250   28.4730   36.6890 C   0  0  0  0  0  0  0  0  0  0  0  0
   34.6930   27.1140   36.8500 C   0  0  0  0  0  0  0  0  0  0  0  0
   35.3930   26.6070   37.9190 C   0  0  0  0  0  0  0  0  0  0  0  0
   35.4910   25.2470   38.0980 C   0  0  0  0  0  0  0  0  0  0  0  0
   36.1750   24.6720   39.1150 C   0  0  0  0  0  0  0  0  0  0  0  0
   36.7790   25.5350   39.9820 C   0  0  0  0  0  0  0  0  0  0  0  0
   36.7040   26.9260   39.8430 C   0  0  0  0  0  0  0  0  0  0  0  0
   36.0160   27.4760   38.8140 C   0  0  0  0  0  0  0  0  0  0  0  0
   35.1310   30.3510   37.3820 H   0  0  0  0  0  0  0  0  0  0  0  0
   34.0700   28.8500   35.8420 H   0  0  0  0  0  0  0  0  0  0  0  0
   34.2060   26.4500   36.1500 H   0  0  0  0  0  0  0  0  0  0  0  0
   34.9830   24.6440   37.3710 H   0  0  0  0  0  0  0  0  0  0  0  0
   36.1960   23.6100   39.1690 H   0  0  0  0  0  0  0  0  0  0  0  0
   37.3180   25.0000   40.7880 H   0  0  0  0  0  0  0  0  0  0  0  0
   37.4470   27.5790   40.9380 C   0  0  0  0  0  0  0  0  0  0  0  0
   36.6620   27.6870   42.2390 C   0  0  0  0  0  0  0  0  0  0  0  0
   35.6080   27.3920   42.4050 H   0  0  0  0  0  0  0  0  0  0  0  0
   37.2740   28.1800   43.3300 C   0  0  0  0  0  3  0  0  0  0  0  0
   38.5670   28.5860   43.3030 C   0  0  0  0  0  3  0  0  0  0  0  0
   38.9500   28.2170   41.5130 S   0  0  0  0  0  0  0  0  0  0  0  0
   36.5930   29.7690   39.5410 N   0  0  0  0  0  0  0  0  0  0  0  0
   36.2480   29.2410   40.3650 H   0  0  0  0  0  0  0  0  0  0  0  0
   38.3500   31.5890   39.7760 C   0  0  1  0  0  0  0  0  0  0  0  0
   36.9970   32.2650   39.6800 C   0  0  0  0  0  0  0  0  0  0  0  0
   37.2950   30.9210   39.0350 C   0  0  2  0  0  0  0  0  0  0  0  0
   38.6270   31.3210   40.8000 H   0  0  0  0  0  0  0  0  0  0  0  0
   36.9970   33.1450   38.9920 H   0  0  0  0  0  0  0  0  0  0  0  0
   36.3660   32.2590   40.5670 H   0  0  0  0  0  0  0  0  0  0  0  0
   37.4310   30.9000   37.9140 H   0  0  0  0  0  0  0  0  0  0  0  0
   40.9950   32.1850   37.2300 C   0  0  0  0  0  0  0  0  0  0  0  0
   41.6270   33.3530   37.7520 C   0  0  0  0  0  0  0  0  0  0  0  0
   41.1180   33.9020   38.9580 C   0  0  0  0  0  0  0  0  0  0  0  0
   40.0790   33.3200   39.5610 N   0  0  0  0  0  0  0  0  0  0  0  0
   39.5000   32.2020   39.0310 C   0  0  0  0  0  0  0  0  0  0  0  0
   39.9610   31.6520   37.8810 N   0  0  0  0  0  0  0  0  0  0  0  0
   41.3470   31.7320   36.3180 H   0  0  0  0  0  0  0  0  0  0  0  0
   42.4470   33.7410   37.2000 H   0  0  0  0  0  0  0  0  0  0  0  0
   41.6190   34.7850   39.3260 H   0  0  0  0  0  0  0  0  0  0  0  0
  1 10  1  0  0  0  0
  1 23  1  0  0  0  0
  2  1  2  0  0  0  0
  3  4  2  0  0  0  0
  3  2  1  0  0  0  0
  4  5  1  0  0  0  0
  5  6  2  0  0  0  0
  5 10  1  0  0  0  0
  6  7  1  0  0  0  0
  7 15  1  0  0  0  0
  7  8  2  0  0  0  0
  8 16  1  0  0  0  0
  9  8  1  0  0  0  0
  9 17  1  0  0  0  0
 10  9  2  0  0  0  0
 11  2  1  0  0  0  0
 12  3  1  0  0  0  0
 13  4  1  0  0  0  0
 14  6  1  0  0  0  0
 17 22  1  0  0  0  0
 17 18  2  0  0  0  0
 18 19  1  0  0  0  0
 18 20  1  0  0  0  0
 21 20  2  0  0  0  0
 22 21  1  0  0  0  0
 23 24  1  0  0  0  0
 25 28  1  1  0  0  0
 26 25  1  0  0  0  0
 26 30  1  0  0  0  0
 27 31  1  6  0  0  0
 27 23  1  0  0  0  0
 27 26  1  0  0  0  0
 27 25  1  0  0  0  0
 29 26  1  0  0  0  0
 32 33  2  0  0  0  0
 32 37  1  0  0  0  0
 33 34  1  0  0  0  0
 34 40  1  0  0  0  0
 34 35  2  0  0  0  0
 36 35  1  0  0  0  0
 36 25  1  0  0  0  0
 37 36  2  0  0  0  0
 38 32  1  0  0  0  0
 39 33  1  0  0  0  0
M  END
>  <minimizedAffinity>
-5.71821356

$$$$

 OpenBabel03242511103D

 40 44  0  0  1  0  0  0  0  0999 V2000
   39.1090   27.7900   42.1700 C   0  0  0  0  0  0  0  0  0  0  0  0
   38.4080   28.5800   43.0750 C   0  0  0  0  0  0  0  0  0  0  0  0
   37.2150   28.1920   43.6800 C   0  0  0  0  0  0  0  0  0  0  0  0
   36.6760   26.9680   43.3870 C   0  0  0  0  0  0  0  0  0  0  0  0
   37.3310   26.1500   42.4990 C   0  0  0  0  0  0  0  0  0  0  0  0
   36.8060   24.9210   42.1740 C   0  0  0  0  0  0  0  0  0  0  0  0
   37.3840   24.0660   41.2960 C   0  0  0  0  0  0  0  0  0  0  0  0
   38.5500   24.4970   40.7350 C   0  0  0  0  0  0  0  0  0  0  0  0
   39.1240   25.7370   41.0370 C   0  0  0  0  0  0  0  0  0  0  0  0
   38.5240   26.5750   41.9150 C   0  0  0  0  0  0  0  0  0  0  0  0
   38.7390   29.5550   43.3890 H   0  0  0  0  0  0  0  0  0  0  0  0
   36.6840   28.8200   44.3800 H   0  0  0  0  0  0  0  0  0  0  0  0
   35.7500   26.6490   43.8450 H   0  0  0  0  0  0  0  0  0  0  0  0
   35.8880   24.6620   42.6650 H   0  0  0  0  0  0  0  0  0  0  0  0
   36.8990   23.1380   41.1080 H   0  0  0  0  0  0  0  0  0  0  0  0
   38.9670   23.7510   40.0310 H   0  0  0  0  0  0  0  0  0  0  0  0
   40.3800   25.9040   40.2800 C   0  0  0  0  0  0  0  0  0  0  0  0
   41.5990   25.2970   40.9640 C   0  0  0  0  0  0  0  0  0  0  0  0
   41.6330   24.8240   41.9630 H   0  0  0  0  0  0  0  0  0  0  0  0
   42.7790   25.3090   40.3200 C   0  0  0  0  0  3  0  0  0  0  0  0
   42.9160   25.8460   39.0830 C   0  0  0  0  0  3  0  0  0  0  0  0
   41.1520   26.3960   38.8100 S   0  0  0  0  0  0  0  0  0  0  0  0
   40.2830   28.2880   41.6150 N   0  0  0  0  0  0  0  0  0  0  0  0
   40.7450   27.3740   41.7830 H   0  0  0  0  0  0  0  0  0  0  0  0
   39.6620   30.1560   40.0090 C   0  0  1  0  0  0  0  0  0  0  0  0
   41.1450   29.8860   39.8490 C   0  0  0  0  0  0  0  0  0  0  0  0
   40.3990   29.6480   41.1520 C   0  0  2  0  0  0  0  0  0  0  0  0
   39.0370   29.5270   39.3690 H   0  0  0  0  0  0  0  0  0  0  0  0
   41.7550   30.8200   39.8020 H   0  0  0  0  0  0  0  0  0  0  0  0
   41.4380   29.0070   39.2790 H   0  0  0  0  0  0  0  0  0  0  0  0
   40.5630   30.3880   41.9890 H   0  0  0  0  0  0  0  0  0  0  0  0
   39.6260   33.8590   40.3660 C   0  0  0  0  0  0  0  0  0  0  0  0
   38.2750   34.1600   40.0170 C   0  0  0  0  0  0  0  0  0  0  0  0
   37.4240   33.0810   39.6620 C   0  0  0  0  0  0  0  0  0  0  0  0
   37.9010   31.8350   39.6660 N   0  0  0  0  0  0  0  0  0  0  0  0
   39.2010   31.5850   40.0060 C   0  0  0  0  0  0  0  0  0  0  0  0
   40.0410   32.5920   40.3490 N   0  0  0  0  0  0  0  0  0  0  0  0
   40.3090   34.6440   40.6430 H   0  0  0  0  0  0  0  0  0  0  0  0
   37.9900   35.1820   40.0450 H   0  0  0  0  0  0  0  0  0  0  0  0
   36.4080   33.3430   39.4040 H   0  0  0  0  0  0  0  0  0  0  0  0
  1  2  1  0  0  0  0
  2 11  1  0  0  0  0
  2  3  2  0  0  0  0
  3 12  1  0  0  0  0
  4  3  1  0  0  0  0
  4 13  1  0  0  0  0
  5  4  2  0  0  0  0
  6  5  1  0  0  0  0
  6 14  1  0  0  0  0
  7  6  2  0  0  0  0
  8  9  2  0  0  0  0
  8  7  1  0  0  0  0
  9 10  1  0  0  0  0
 10  1  2  0  0  0  0
 10  5  1  0  0  0  0
 15  7  1  0  0  0  0
 16  8  1  0  0  0  0
 17 18  2  0  0  0  0
 17  9  1  0  0  0  0
 18 19  1  0  0  0  0
 20 18  1  0  0  0  0
 21 20  2  0  0  0  0
 22 21  1  0  0  0  0
 22 17  1  0  0  0  0
 23 24  1  0  0  0  0
 23  1  1  0  0  0  0
 25 28  1  6  0  0  0
 25 27  1  0  0  0  0
 26 25  1  0  0  0  0
 26 27  1  0  0  0  0
 27 23  1  0  0  0  0
 27 31  1  1  0  0  0
 29 26  1  0  0  0  0
 30 26  1  0  0  0  0
 32 38  1  0  0  0  0
 33 39  1  0  0  0  0
 33 32  2  0  0  0  0
 34 35  2  0  0  0  0
 34 33  1  0  0  0  0
 35 36  1  0  0  0  0
 36 25  1  0  0  0  0
 36 37  2  0  0  0  0
 37 32  1  0  0  0  0
 40 34  1  0  0  0  0
M  END
>  <minimizedAffinity>
-5.62509489

$$$$

 OpenBabel03242511103D

 40 44  0  0  1  0  0  0  0  0999 V2000
   36.4440   27.2580   39.2090 C   0  0  0  0  0  0  0  0  0  0  0  0
   35.7940   26.9050   38.0320 C   0  0  0  0  0  0  0  0  0  0  0  0
   35.4190   25.6020   37.7150 C   0  0  0  0  0  0  0  0  0  0  0  0
   35.6910   24.5880   38.5950 C   0  0  0  0  0  0  0  0  0  0  0  0
   36.3310   24.8850   39.7730 C   0  0  0  0  0  0  0  0  0  0  0  0
   36.6310   23.8850   40.6690 C   0  0  0  0  0  0  0  0  0  0  0  0
   37.2730   24.0980   41.8420 C   0  0  0  0  0  0  0  0  0  0  0  0
   37.6170   25.3920   42.1010 C   0  0  0  0  0  0  0  0  0  0  0  0
   37.3300   26.4430   41.2220 C   0  0  0  0  0  0  0  0  0  0  0  0
   36.6900   26.2040   40.0530 C   0  0  0  0  0  0  0  0  0  0  0  0
   35.5200   27.6160   37.2720 H   0  0  0  0  0  0  0  0  0  0  0  0
   34.9150   25.3460   36.7940 H   0  0  0  0  0  0  0  0  0  0  0  0
   35.4090   23.5700   38.3670 H   0  0  0  0  0  0  0  0  0  0  0  0
   36.3210   22.8990   40.3860 H   0  0  0  0  0  0  0  0  0  0  0  0
   37.4630   23.2590   42.4690 H   0  0  0  0  0  0  0  0  0  0  0  0
   38.1350   25.4930   43.0740 H   0  0  0  0  0  0  0  0  0  0  0  0
   37.8170   27.7160   41.7890 C   0  0  0  0  0  0  0  0  0  0  0  0
   39.3150   27.9360   41.6140 C   0  0  0  0  0  0  0  0  0  0  0  0
   40.0440   27.2270   41.1790 H   0  0  0  0  0  0  0  0  0  0  0  0
   39.8510   29.1040   42.0090 C   0  0  0  0  0  3  0  0  0  0  0  0
   39.0990   30.0880   42.5600 C   0  0  0  0  0  3  0  0  0  0  0  0
   37.4330   29.2450   42.5030 S   0  0  0  0  0  0  0  0  0  0  0  0
   36.7870   28.5910   39.4120 N   0  0  0  0  0  0  0  0  0  0  0  0
   36.2280   28.5970   40.2870 H   0  0  0  0  0  0  0  0  0  0  0  0
   38.4260   30.4530   38.8640 C   0  0  1  0  0  0  0  0  0  0  0  0
   37.1420   30.7330   38.1100 C   0  0  0  0  0  0  0  0  0  0  0  0
   37.5940   29.3280   38.4740 C   0  0  2  0  0  0  0  0  0  0  0  0
   38.4340   30.8730   39.8740 H   0  0  0  0  0  0  0  0  0  0  0  0
   37.3170   31.0410   37.0510 H   0  0  0  0  0  0  0  0  0  0  0  0
   36.3060   31.1460   38.6730 H   0  0  0  0  0  0  0  0  0  0  0  0
   38.0100   28.6850   37.6450 H   0  0  0  0  0  0  0  0  0  0  0  0
   41.7200   29.8690   37.2380 C   0  0  0  0  0  0  0  0  0  0  0  0
   42.1020   31.2010   36.8960 C   0  0  0  0  0  0  0  0  0  0  0  0
   41.2120   32.2550   37.2280 C   0  0  0  0  0  0  0  0  0  0  0  0
   40.0600   31.9760   37.8420 N   0  0  0  0  0  0  0  0  0  0  0  0
   39.7270   30.6880   38.1540 C   0  0  0  0  0  0  0  0  0  0  0  0
   40.5550   29.6590   37.8510 N   0  0  0  0  0  0  0  0  0  0  0  0
   42.3640   29.0370   37.0070 H   0  0  0  0  0  0  0  0  0  0  0  0
   43.0390   31.3200   36.4100 H   0  0  0  0  0  0  0  0  0  0  0  0
   41.5310   33.2500   36.9560 H   0  0  0  0  0  0  0  0  0  0  0  0
  1 23  1  0  0  0  0
  1 10  1  0  0  0  0
  2  1  2  0  0  0  0
  3  2  1  0  0  0  0
  3  4  2  0  0  0  0
  4  5  1  0  0  0  0
  5 10  2  0  0  0  0
  5  6  1  0  0  0  0
  6  7  2  0  0  0  0
  7  8  1  0  0  0  0
  7 15  1  0  0  0  0
  8 16  1  0  0  0  0
  9 17  1  0  0  0  0
  9  8  2  0  0  0  0
 10  9  1  0  0  0  0
 11  2  1  0  0  0  0
 12  3  1  0  0  0  0
 13  4  1  0  0  0  0
 14  6  1  0  0  0  0
 17 22  1  0  0  0  0
 18 17  2  0  0  0  0
 18 20  1  0  0  0  0
 19 18  1  0  0  0  0
 20 21  2  0  0  0  0
 22 21  1  0  0  0  0
 23 24  1  0  0  0  0
 25 28  1  1  0  0  0
 26 27  1  0  0  0  0
 26 30  1  0  0  0  0
 26 25  1  0  0  0  0
 27 31  1  6  0  0  0
 27 25  1  0  0  0  0
 27 23  1  0  0  0  0
 29 26  1  0  0  0  0
 32 37  1  0  0  0  0
 33 34  1  0  0  0  0
 33 32  2  0  0  0  0
 34 35  2  0  0  0  0
 35 36  1  0  0  0  0
 36 25  1  0  0  0  0
 37 36  2  0  0  0  0
 38 32  1  0  0  0  0
 39 33  1  0  0  0  0
 40 34  1  0  0  0  0
M  END
>  <minimizedAffinity>
-5.48217869

$$$$

 OpenBabel03242511103D

 40 44  0  0  1  0  0  0  0  0999 V2000
   37.3140   30.5070   40.0710 C   0  0  0  0  0  0  0  0  0  0  0  0
   36.9020   31.6430   39.3850 C   0  0  0  0  0  0  0  0  0  0  0  0
   37.5410   32.8770   39.4750 C   0  0  0  0  0  0  0  0  0  0  0  0
   38.6430   33.0100   40.2780 C   0  0  0  0  0  0  0  0  0  0  0  0
   39.0910   31.9160   40.9770 C   0  0  0  0  0  0  0  0  0  0  0  0
   40.1850   32.0230   41.8030 C   0  0  0  0  0  0  0  0  0  0  0  0
   40.6760   30.9950   42.5350 C   0  0  0  0  0  0  0  0  0  0  0  0
   40.0120   29.8100   42.4080 C   0  0  0  0  0  0  0  0  0  0  0  0
   38.8960   29.6520   41.5780 C   0  0  0  0  0  0  0  0  0  0  0  0
   38.4220   30.6970   40.8580 C   0  0  0  0  0  0  0  0  0  0  0  0
   36.0570   31.6570   38.7180 H   0  0  0  0  0  0  0  0  0  0  0  0
   37.2060   33.7510   38.9350 H   0  0  0  0  0  0  0  0  0  0  0  0
   39.1520   33.9600   40.3620 H   0  0  0  0  0  0  0  0  0  0  0  0
   40.6480   32.9900   41.8390 H   0  0  0  0  0  0  0  0  0  0  0  0
   41.5270   31.1770   43.1470 H   0  0  0  0  0  0  0  0  0  0  0  0
   40.4660   29.0150   43.0310 H   0  0  0  0  0  0  0  0  0  0  0  0
   38.4130   28.2590   41.6490 C   0  0  0  0  0  0  0  0  0  0  0  0
   37.4280   28.0050   42.7840 C   0  0  0  0  0  0  0  0  0  0  0  0
   37.1110   28.7250   43.5620 H   0  0  0  0  0  0  0  0  0  0  0  0
   36.8520   26.7940   42.8860 C   0  0  0  0  0  3  0  0  0  0  0  0
   37.1250   25.7950   42.0120 C   0  0  0  0  0  3  0  0  0  0  0  0
   38.3430   26.6920   40.9180 S   0  0  0  0  0  0  0  0  0  0  0  0
   36.5880   29.3300   39.9180 N   0  0  0  0  0  0  0  0  0  0  0  0
   36.8040   29.0740   40.9000 H   0  0  0  0  0  0  0  0  0  0  0  0
   34.5760   28.5860   38.5570 C   0  0  1  0  0  0  0  0  0  0  0  0
   35.6280   27.4980   38.4570 C   0  0  0  0  0  0  0  0  0  0  0  0
   35.9740   28.9630   38.6670 C   0  0  2  0  0  0  0  0  0  0  0  0
   33.9150   28.4690   39.4210 H   0  0  0  0  0  0  0  0  0  0  0  0
   35.7580   27.1120   37.4180 H   0  0  0  0  0  0  0  0  0  0  0  0
   35.7480   26.8340   39.3110 H   0  0  0  0  0  0  0  0  0  0  0  0
   36.3920   29.5310   37.7850 H   0  0  0  0  0  0  0  0  0  0  0  0
   33.7350   29.2700   34.9990 C   0  0  0  0  0  0  0  0  0  0  0  0
   32.3640   29.6510   35.1040 C   0  0  0  0  0  0  0  0  0  0  0  0
   31.7710   29.6520   36.3940 C   0  0  0  0  0  0  0  0  0  0  0  0
   32.5010   29.3030   37.4550 N   0  0  0  0  0  0  0  0  0  0  0  0
   33.8120   28.9440   37.3160 C   0  0  0  0  0  0  0  0  0  0  0  0
   34.4080   28.9320   36.0990 N   0  0  0  0  0  0  0  0  0  0  0  0
   34.2290   29.2540   34.0410 H   0  0  0  0  0  0  0  0  0  0  0  0
   31.8690   29.9120   34.2020 H   0  0  0  0  0  0  0  0  0  0  0  0
   30.7330   29.9450   36.4380 H   0  0  0  0  0  0  0  0  0  0  0  0
  1 10  1  0  0  0  0
  2  3  1  0  0  0  0
  2  1  2  0  0  0  0
  3  4  2  0  0  0  0
  4 13  1  0  0  0  0
  4  5  1  0  0  0  0
  5  6  1  0  0  0  0
  6 14  1  0  0  0  0
  6  7  2  0  0  0  0
  7 15  1  0  0  0  0
  8  7  1  0  0  0  0
  8 16  1  0  0  0  0
  9 17  1  0  0  0  0
  9  8  2  0  0  0  0
 10  5  2  0  0  0  0
 10  9  1  0  0  0  0
 11  2  1  0  0  0  0
 12  3  1  0  0  0  0
 17 18  2  0  0  0  0
 18 20  1  0  0  0  0
 18 19  1  0  0  0  0
 21 20  2  0  0  0  0
 22 17  1  0  0  0  0
 22 21  1  0  0  0  0
 23  1  1  0  0  0  0
 23 24  1  0  0  0  0
 25 27  1  0  0  0  0
 25 28  1  1  0  0  0
 26 25  1  0  0  0  0
 26 27  1  0  0  0  0
 26 30  1  0  0  0  0
 27 31  1  6  0  0  0
 27 23  1  0  0  0  0
 29 26  1  0  0  0  0
 32 33  2  0  0  0  0
 32 37  1  0  0  0  0
 33 34  1  0  0  0  0
 34 40  1  0  0  0  0
 34 35  2  0  0  0  0
 36 35  1  0  0  0  0
 36 25  1  0  0  0  0
 37 36  2  0  0  0  0
 38 32  1  0  0  0  0
 39 33  1  0  0  0  0
M  END
>  <minimizedAffinity>
-5.47517824

$$$$

 OpenBabel03242511103D

 40 44  0  0  1  0  0  0  0  0999 V2000
   36.3050   26.5590   39.3150 C   0  0  0  0  0  0  0  0  0  0  0  0
   35.8210   26.4590   38.0150 C   0  0  0  0  0  0  0  0  0  0  0  0
   35.8900   25.2970   37.2520 C   0  0  0  0  0  0  0  0  0  0  0  0
   36.4600   24.1700   37.7840 C   0  0  0  0  0  0  0  0  0  0  0  0
   36.9520   24.2190   39.0660 C   0  0  0  0  0  0  0  0  0  0  0  0
   37.5440   23.1080   39.6210 C   0  0  0  0  0  0  0  0  0  0  0  0
   38.0650   23.0820   40.8700 C   0  0  0  0  0  0  0  0  0  0  0  0
   37.9710   24.2470   41.5740 C   0  0  0  0  0  0  0  0  0  0  0  0
   37.3740   25.4010   41.0520 C   0  0  0  0  0  0  0  0  0  0  0  0
   36.8630   25.4020   39.7980 C   0  0  0  0  0  0  0  0  0  0  0  0
   35.3450   27.2730   37.4980 H   0  0  0  0  0  0  0  0  0  0  0  0
   35.5100   25.2370   36.2420 H   0  0  0  0  0  0  0  0  0  0  0  0
   36.5240   23.2590   37.2060 H   0  0  0  0  0  0  0  0  0  0  0  0
   37.5710   22.2350   38.9990 H   0  0  0  0  0  0  0  0  0  0  0  0
   38.5050   22.1750   41.2110 H   0  0  0  0  0  0  0  0  0  0  0  0
   38.4140   24.1550   42.5840 H   0  0  0  0  0  0  0  0  0  0  0  0
   37.4180   26.4840   42.0550 C   0  0  0  0  0  0  0  0  0  0  0  0
   38.7240   27.2690   42.0590 C   0  0  0  0  0  0  0  0  0  0  0  0
   39.6250   27.0640   41.4490 H   0  0  0  0  0  0  0  0  0  0  0  0
   38.8380   28.3370   42.8680 C   0  0  0  0  0  3  0  0  0  0  0  0
   37.8270   28.7320   43.6800 C   0  0  0  0  0  3  0  0  0  0  0  0
   36.5690   27.4270   43.2320 S   0  0  0  0  0  0  0  0  0  0  0  0
   36.1980   27.7780   39.9780 N   0  0  0  0  0  0  0  0  0  0  0  0
   35.5430   27.3460   40.6570 H   0  0  0  0  0  0  0  0  0  0  0  0
   36.7180   30.2580   40.1610 C   0  0  1  0  0  0  0  0  0  0  0  0
   36.0330   30.0280   38.8290 C   0  0  0  0  0  0  0  0  0  0  0  0
   36.8730   28.9650   39.5180 C   0  0  2  0  0  0  0  0  0  0  0  0
   36.0170   30.4410   40.9810 H   0  0  0  0  0  0  0  0  0  0  0  0
   36.5280   30.5670   37.9860 H   0  0  0  0  0  0  0  0  0  0  0  0
   34.9540   29.8870   38.8340 H   0  0  0  0  0  0  0  0  0  0  0  0
   37.8980   28.7560   39.0950 H   0  0  0  0  0  0  0  0  0  0  0  0
   40.1920   31.5850   40.2280 C   0  0  0  0  0  0  0  0  0  0  0  0
   39.9530   32.9890   40.3230 C   0  0  0  0  0  0  0  0  0  0  0  0
   38.6050   33.4340   40.3530 C   0  0  0  0  0  0  0  0  0  0  0  0
   37.6150   32.5410   40.2920 N   0  0  0  0  0  0  0  0  0  0  0  0
   37.8820   31.2040   40.2020 C   0  0  0  0  0  0  0  0  0  0  0  0
   39.1580   30.7460   40.1720 N   0  0  0  0  0  0  0  0  0  0  0  0
   41.1980   31.2010   40.2040 H   0  0  0  0  0  0  0  0  0  0  0  0
   40.8070   33.6180   40.3670 H   0  0  0  0  0  0  0  0  0  0  0  0
   38.4590   34.5010   40.4250 H   0  0  0  0  0  0  0  0  0  0  0  0
  1 10  1  0  0  0  0
  1 23  1  0  0  0  0
  2  1  2  0  0  0  0
  3  4  2  0  0  0  0
  3  2  1  0  0  0  0
  4  5  1  0  0  0  0
  5  6  2  0  0  0  0
  5 10  1  0  0  0  0
  6  7  1  0  0  0  0
  7 15  1  0  0  0  0
  7  8  2  0  0  0  0
  8 16  1  0  0  0  0
  9  8  1  0  0  0  0
  9 17  1  0  0  0  0
 10  9  2  0  0  0  0
 11  2  1  0  0  0  0
 12  3  1  0  0  0  0
 13  4  1  0  0  0  0
 14  6  1  0  0  0  0
 17 18  2  0  0  0  0
 17 22  1  0  0  0  0
 18 20  1  0  0  0  0
 19 18  1  0  0  0  0
 20 21  2  0  0  0  0
 22 21  1  0  0  0  0
 23 24  1  0  0  0  0
 25 36  1  0  0  0  0
 25 28  1  1  0  0  0
 26 30  1  0  0  0  0
 26 27  1  0  0  0  0
 26 25  1  0  0  0  0
 27 31  1  6  0  0  0
 27 23  1  0  0  0  0
 27 25  1  0  0  0  0
 29 26  1  0  0  0  0
 32 33  1  0  0  0  0
 33 34  2  0  0  0  0
 33 39  1  0  0  0  0
 34 40  1  0  0  0  0
 35 34  1  0  0  0  0
 36 35  2  0  0  0  0
 37 36  1  0  0  0  0
 37 32  2  0  0  0  0
 38 32  1  0  0  0  0
M  END
>  <minimizedAffinity>
-5.4343152

$$$$

 OpenBabel03242511103D

 40 44  0  0  1  0  0  0  0  0999 V2000
   37.6550   29.5090   41.5800 C   0  0  0  0  0  0  0  0  0  0  0  0
   36.5520   28.7400   41.9370 C   0  0  0  0  0  0  0  0  0  0  0  0
   36.6240   27.6180   42.7580 C   0  0  0  0  0  0  0  0  0  0  0  0
   37.8360   27.2230   43.2600 C   0  0  0  0  0  0  0  0  0  0  0  0
   38.9560   27.9500   42.9370 C   0  0  0  0  0  0  0  0  0  0  0  0
   40.1880   27.5690   43.4140 C   0  0  0  0  0  0  0  0  0  0  0  0
   41.3380   28.2240   43.1270 C   0  0  0  0  0  0  0  0  0  0  0  0
   41.2100   29.3150   42.3190 C   0  0  0  0  0  0  0  0  0  0  0  0
   39.9770   29.7430   41.8130 C   0  0  0  0  0  0  0  0  0  0  0  0
   38.8420   29.0690   42.1120 C   0  0  0  0  0  0  0  0  0  0  0  0
   35.5500   28.9590   41.6130 H   0  0  0  0  0  0  0  0  0  0  0  0
   35.7560   27.0320   43.0250 H   0  0  0  0  0  0  0  0  0  0  0  0
   37.9110   26.3540   43.8980 H   0  0  0  0  0  0  0  0  0  0  0  0
   40.1950   26.7020   44.0440 H   0  0  0  0  0  0  0  0  0  0  0  0
   42.2450   27.8500   43.5410 H   0  0  0  0  0  0  0  0  0  0  0  0
   42.1860   29.8020   42.1270 H   0  0  0  0  0  0  0  0  0  0  0  0
   40.1680   30.9510   40.9860 C   0  0  0  0  0  0  0  0  0  0  0  0
   40.6650   30.6600   39.5750 C   0  0  0  0  0  0  0  0  0  0  0  0
   40.9450   29.6740   39.1590 H   0  0  0  0  0  0  0  0  0  0  0  0
   40.7850   31.6790   38.7050 C   0  0  0  0  0  3  0  0  0  0  0  0
   40.4790   32.9540   39.0480 C   0  0  0  0  0  3  0  0  0  0  0  0
   39.9590   32.6610   40.8180 S   0  0  0  0  0  0  0  0  0  0  0  0
   37.4680   30.6000   40.7390 N   0  0  0  0  0  0  0  0  0  0  0  0
   38.0530   31.1810   41.3690 H   0  0  0  0  0  0  0  0  0  0  0  0
   37.0410   29.8150   38.3600 C   0  0  1  0  0  0  0  0  0  0  0  0
   37.0810   31.3310   38.3450 C   0  0  0  0  0  0  0  0  0  0  0  0
   36.6420   30.5300   39.5600 C   0  0  2  0  0  0  0  0  0  0  0  0
   38.0250   29.3560   38.2340 H   0  0  0  0  0  0  0  0  0  0  0  0
   36.2600   31.7820   37.7380 H   0  0  0  0  0  0  0  0  0  0  0  0
   38.0580   31.8090   38.3940 H   0  0  0  0  0  0  0  0  0  0  0  0
   35.5380   30.5020   39.7940 H   0  0  0  0  0  0  0  0  0  0  0  0
   34.8620   28.8690   35.4980 C   0  0  0  0  0  0  0  0  0  0  0  0
   34.0420   27.8630   36.0920 C   0  0  0  0  0  0  0  0  0  0  0  0
   34.2710   27.5370   37.4550 C   0  0  0  0  0  0  0  0  0  0  0  0
   35.2300   28.1710   38.1320 N   0  0  0  0  0  0  0  0  0  0  0  0
   35.9960   29.1290   37.5300 C   0  0  0  0  0  0  0  0  0  0  0  0
   35.8040   29.4640   36.2300 N   0  0  0  0  0  0  0  0  0  0  0  0
   34.7250   29.1500   34.4670 H   0  0  0  0  0  0  0  0  0  0  0  0
   33.3050   27.4180   35.4710 H   0  0  0  0  0  0  0  0  0  0  0  0
   33.6330   26.7730   37.8730 H   0  0  0  0  0  0  0  0  0  0  0  0
  1  2  2  0  0  0  0
  1 10  1  0  0  0  0
  2  3  1  0  0  0  0
  3 12  1  0  0  0  0
  3  4  2  0  0  0  0
  4 13  1  0  0  0  0
  5  4  1  0  0  0  0
  5  6  1  0  0  0  0
  6 14  1  0  0  0  0
  7  6  2  0  0  0  0
  7 15  1  0  0  0  0
  8  7  1  0  0  0  0
  9 10  1  0  0  0  0
  9  8  2  0  0  0  0
 10  5  2  0  0  0  0
 11  2  1  0  0  0  0
 16  8  1  0  0  0  0
 17  9  1  0  0  0  0
 18 17  2  0  0  0  0
 19 18  1  0  0  0  0
 20 21  2  0  0  0  0
 20 18  1  0  0  0  0
 21 22  1  0  0  0  0
 22 17  1  0  0  0  0
 23 24  1  0  0  0  0
 23  1  1  0  0  0  0
 25 28  1  1  0  0  0
 25 27  1  0  0  0  0
 26 25  1  0  0  0  0
 26 30  1  0  0  0  0
 26 27  1  0  0  0  0
 27 31  1  1  0  0  0
 27 23  1  0  0  0  0
 29 26  1  0  0  0  0
 32 33  2  0  0  0  0
 32 37  1  0  0  0  0
 33 34  1  0  0  0  0
 34 40  1  0  0  0  0
 34 35  2  0  0  0  0
 36 35  1  0  0  0  0
 36 25  1  0  0  0  0
 37 36  2  0  0  0  0
 38 32  1  0  0  0  0
 39 33  1  0  0  0  0
M  END
>  <minimizedAffinity>
-5.42515421

$$$$

 OpenBabel03242511103D

 40 44  0  0  1  0  0  0  0  0999 V2000
   37.2220   30.8700   40.4230 C   0  0  0  0  0  0  0  0  0  0  0  0
   36.9460   32.0800   39.7960 C   0  0  0  0  0  0  0  0  0  0  0  0
   37.7800   33.1930   39.8610 C   0  0  0  0  0  0  0  0  0  0  0  0
   38.9470   33.1230   40.5760 C   0  0  0  0  0  0  0  0  0  0  0  0
   39.2650   31.9480   41.2130 C   0  0  0  0  0  0  0  0  0  0  0  0
   40.4220   31.8530   41.9500 C   0  0  0  0  0  0  0  0  0  0  0  0
   40.7960   30.7350   42.6180 C   0  0  0  0  0  0  0  0  0  0  0  0
   39.9430   29.6760   42.5190 C   0  0  0  0  0  0  0  0  0  0  0  0
   38.7560   29.7250   41.7780 C   0  0  0  0  0  0  0  0  0  0  0  0
   38.4030   30.8550   41.1220 C   0  0  0  0  0  0  0  0  0  0  0  0
   36.0670   32.2500   39.2000 H   0  0  0  0  0  0  0  0  0  0  0  0
   37.5500   34.1270   39.3680 H   0  0  0  0  0  0  0  0  0  0  0  0
   39.6070   33.9760   40.6390 H   0  0  0  0  0  0  0  0  0  0  0  0
   41.0350   32.7320   41.9690 H   0  0  0  0  0  0  0  0  0  0  0  0
   41.7090   30.7590   43.1630 H   0  0  0  0  0  0  0  0  0  0  0  0
   40.3090   28.7980   43.0860 H   0  0  0  0  0  0  0  0  0  0  0  0
   38.0620   28.4240   41.8590 C   0  0  0  0  0  0  0  0  0  0  0  0
   38.6800   27.3400   40.9850 C   0  0  0  0  0  0  0  0  0  0  0  0
   39.5230   27.4570   40.2770 H   0  0  0  0  0  0  0  0  0  0  0  0
   38.1860   26.0910   41.0510 C   0  0  0  0  0  3  0  0  0  0  0  0
   37.1540   25.7710   41.8710 C   0  0  0  0  0  3  0  0  0  0  0  0
   36.8600   27.4490   42.6340 S   0  0  0  0  0  0  0  0  0  0  0  0
   36.3070   29.8290   40.3030 N   0  0  0  0  0  0  0  0  0  0  0  0
   36.2840   29.7360   41.3370 H   0  0  0  0  0  0  0  0  0  0  0  0
   34.5250   28.8240   38.7960 C   0  0  1  0  0  0  0  0  0  0  0  0
   35.6730   27.8370   38.8750 C   0  0  0  0  0  0  0  0  0  0  0  0
   35.8650   29.3370   39.0230 C   0  0  2  0  0  0  0  0  0  0  0  0
   33.7890   28.6940   39.5940 H   0  0  0  0  0  0  0  0  0  0  0  0
   35.9470   27.4080   37.8810 H   0  0  0  0  0  0  0  0  0  0  0  0
   35.7590   27.2350   39.7770 H   0  0  0  0  0  0  0  0  0  0  0  0
   36.3230   29.8920   38.1530 H   0  0  0  0  0  0  0  0  0  0  0  0
   31.9500   29.4320   36.1820 C   0  0  0  0  0  0  0  0  0  0  0  0
   32.7400   29.3800   34.9950 C   0  0  0  0  0  0  0  0  0  0  0  0
   34.1330   29.1460   35.1320 C   0  0  0  0  0  0  0  0  0  0  0  0
   34.6580   28.9830   36.3480 N   0  0  0  0  0  0  0  0  0  0  0  0
   33.8700   29.0390   37.4630 C   0  0  0  0  0  0  0  0  0  0  0  0
   32.5360   29.2610   37.3670 N   0  0  0  0  0  0  0  0  0  0  0  0
   30.8880   29.6070   36.1280 H   0  0  0  0  0  0  0  0  0  0  0  0
   32.2300   29.5210   34.0740 H   0  0  0  0  0  0  0  0  0  0  0  0
   34.7020   29.1120   34.2150 H   0  0  0  0  0  0  0  0  0  0  0  0
  1 10  1  0  0  0  0
  2  3  1  0  0  0  0
  2  1  2  0  0  0  0
  3  4  2  0  0  0  0
  4 13  1  0  0  0  0
  4  5  1  0  0  0  0
  5  6  1  0  0  0  0
  6 14  1  0  0  0  0
  6  7  2  0  0  0  0
  7 15  1  0  0  0  0
  8  7  1  0  0  0  0
  8 16  1  0  0  0  0
  9 17  1  0  0  0  0
  9  8  2  0  0  0  0
 10  5  2  0  0  0  0
 10  9  1  0  0  0  0
 11  2  1  0  0  0  0
 12  3  1  0  0  0  0
 17 22  1  0  0  0  0
 18 20  1  0  0  0  0
 18 17  2  0  0  0  0
 19 18  1  0  0  0  0
 20 21  2  0  0  0  0
 21 22  1  0  0  0  0
 23  1  1  0  0  0  0
 23 24  1  0  0  0  0
 25 26  1  0  0  0  0
 25 27  1  0  0  0  0
 25 28  1  1  0  0  0
 26 27  1  0  0  0  0
 26 30  1  0  0  0  0
 27 31  1  6  0  0  0
 27 23  1  0  0  0  0
 29 26  1  0  0  0  0
 32 37  1  0  0  0  0
 33 34  1  0  0  0  0
 33 32  2  0  0  0  0
 34 35  2  0  0  0  0
 35 36  1  0  0  0  0
 36 25  1  0  0  0  0
 37 36  2  0  0  0  0
 38 32  1  0  0  0  0
 39 33  1  0  0  0  0
 40 34  1  0  0  0  0
M  END
>  <minimizedAffinity>
-5.42342997

$$$$
