
 OpenBabel03252509213D

 22 24  0  0  0  0  0  0  0  0999 V2000
   45.2200   32.6430   43.4600 C   0  0  0  0  0  0  0  0  0  0  0  0
   45.5310   33.6640   42.5360 C   0  0  0  0  0  0  0  0  0  0  0  0
   46.8080   34.1520   42.6190 C   0  0  0  0  0  0  0  0  0  0  0  0
   47.6610   33.6240   43.5690 N   0  0  0  0  0  0  0  0  0  0  0  0
   47.3290   32.6570   44.4260 C   0  0  0  0  0  0  0  0  0  0  0  0
   46.0830   32.1790   44.3470 N   0  0  0  0  0  0  0  0  0  0  0  0
   44.2540   32.1970   43.4780 H   0  0  0  0  0  0  0  0  0  0  0  0
   48.1670   32.4230   45.0610 H   0  0  0  0  0  0  0  0  0  0  0  0
   47.3230   35.1670   41.6230 C   0  0  0  0  0  0  0  0  0  0  0  0
   48.8370   35.3550   41.7870 C   0  0  0  0  0  0  0  0  0  0  0  0
   48.1680   34.7030   40.5390 C   0  0  0  0  0  0  0  0  0  0  0  0
   46.8570   36.1670   41.7630 H   0  0  0  0  0  0  0  0  0  0  0  0
   49.2940   36.3300   41.6020 H   0  0  0  0  0  0  0  0  0  0  0  0
   49.4130   34.6430   42.3980 H   0  0  0  0  0  0  0  0  0  0  0  0
   48.2960   33.6140   40.4320 H   0  0  0  0  0  0  0  0  0  0  0  0
   48.1810   35.3340   39.6240 H   0  0  0  0  0  0  0  0  0  0  0  0
   44.5680   34.1500   41.6100 C   0  0  0  0  0  0  0  0  0  0  0  0
   44.3570   33.4570   40.4070 C   0  0  0  0  0  0  0  0  0  0  0  0
   44.8030   32.5590   40.0010 H   0  0  0  0  0  0  0  0  0  0  0  0
   43.4730   33.8510   39.4780 C   0  0  0  0  0  3  0  0  0  0  0  0
   42.7200   35.0360   39.7480 C   0  0  0  0  0  3  0  0  0  0  0  0
   43.4220   35.4870   41.4360 S   0  0  0  0  0  0  0  0  0  0  0  0
  1  7  1  0  0  0  0
  1  6  1  0  0  0  0
  2  3  1  0  0  0  0
  2  1  2  0  0  0  0
  3  4  2  0  0  0  0
  4  5  1  0  0  0  0
  5  8  1  0  0  0  0
  6  5  2  0  0  0  0
  9 12  1  0  0  0  0
  9 10  1  0  0  0  0
  9  3  1  0  0  0  0
 10 14  1  0  0  0  0
 11  9  1  0  0  0  0
 11 10  1  0  0  0  0
 13 10  1  0  0  0  0
 15 11  1  0  0  0  0
 16 11  1  0  0  0  0
 17  2  1  0  0  0  0
 18 17  2  0  0  0  0
 19 18  1  0  0  0  0
 20 21  2  0  0  0  0
 20 18  1  0  0  0  0
 21 22  1  0  0  0  0
 22 17  1  0  0  0  0
M  END
>  <minimizedAffinity>
-3.88070273

>  <minimizedRMSD>
2.68492627

$$$$
