
 OpenBabel03252505033D

 31 33  0  0  1  0  0  0  0  0999 V2000
   46.4420   32.9370   46.4420 C   0  0  2  0  0  0  0  0  0  0  0  0
   46.9520   31.7150   45.7520 C   0  0  0  0  0  0  0  0  0  0  0  0
   46.0730   30.5330   45.8060 C   0  0  0  0  0  0  0  0  0  0  0  0
   45.8050   30.2800   47.2830 C   0  0  0  0  0  0  0  0  0  0  0  0
   45.0240   31.3590   47.8890 C   0  0  0  0  0  0  0  0  0  0  0  0
   45.3840   32.7440   47.4200 C   0  0  0  0  0  0  0  0  0  0  0  0
   47.2970   33.4590   46.9500 H   0  0  0  0  0  0  0  0  0  0  0  0
   47.9450   31.4550   46.1990 H   0  0  0  0  0  0  0  0  0  0  0  0
   47.1910   31.9000   44.6760 H   0  0  0  0  0  0  0  0  0  0  0  0
   46.6410   29.6580   45.4240 H   0  0  0  0  0  0  0  0  0  0  0  0
   45.1300   30.7260   45.2460 H   0  0  0  0  0  0  0  0  0  0  0  0
   46.7670   30.1770   47.7870 H   0  0  0  0  0  0  0  0  0  0  0  0
   45.1800   29.3870   47.3180 H   0  0  0  0  0  0  0  0  0  0  0  0
   44.2410   31.3420   48.6010 H   0  0  0  0  0  0  0  0  0  0  0  0
   44.5870   35.5310   44.5810 C   0  0  0  0  0  0  0  0  0  0  0  0
   45.2930   35.6020   43.3670 C   0  0  0  0  0  0  0  0  0  0  0  0
   46.3860   34.7540   43.2170 C   0  0  0  0  0  0  0  0  0  0  0  0
   46.7270   33.9090   44.2240 N   0  0  0  0  0  0  0  0  0  0  0  0
   46.0180   33.8760   45.3750 C   0  0  0  0  0  0  0  0  0  0  0  0
   44.9450   34.6860   45.5590 N   0  0  0  0  0  0  0  0  0  0  0  0
   43.7340   36.1900   44.7000 H   0  0  0  0  0  0  0  0  0  0  0  0
   44.9600   36.2920   42.6290 H   0  0  0  0  0  0  0  0  0  0  0  0
   47.1280   34.7770   42.0360 C   0  0  0  0  0  0  0  0  0  0  0  0
   48.2750   35.4210   41.6110 C   0  0  0  0  0  0  0  0  0  0  0  0
   48.7180   36.0610   42.3550 H   0  0  0  0  0  0  0  0  0  0  0  0
   48.7700   35.2320   40.3520 C   0  0  0  0  0  0  0  0  0  0  0  0
   47.9900   34.3090   39.5190 C   0  0  0  0  0  0  0  0  0  0  0  0
   46.6280   33.7970   40.6030 S   0  0  0  0  0  0  0  0  0  0  0  0
   44.6860   33.8700   47.9350 N   0  0  0  0  0  0  0  0  0  0  0  0
   45.2430   34.5120   48.5720 H   0  0  0  0  0  0  0  0  0  0  0  0
   43.7230   33.8220   47.5550 H   0  0  0  0  0  0  0  0  0  0  0  0
  1  7  1  1  0  0  0
  1  6  1  0  0  0  0
  2  3  1  0  0  0  0
  2  8  1  0  0  0  0
  2  1  1  0  0  0  0
  3  4  1  0  0  0  0
  4 13  1  0  0  0  0
  4 12  1  0  0  0  0
  4  5  1  0  0  0  0
  5 14  1  0  0  0  0
  6  5  2  0  0  0  0
  6 29  1  0  0  0  0
  9  2  1  0  0  0  0
 10  3  1  0  0  0  0
 11  3  1  0  0  0  0
 15 21  1  0  0  0  0
 15 20  1  0  0  0  0
 16 15  2  0  0  0  0
 17 16  1  0  0  0  0
 17 18  2  0  0  0  0
 18 19  1  0  0  0  0
 19 20  2  0  0  0  0
 19  1  1  0  0  0  0
 22 16  1  0  0  0  0
 23 17  1  0  0  0  0
 24 23  2  0  0  0  0
 24 25  1  0  0  0  0
 26 24  1  0  0  0  0
 27 26  2  0  0  0  0
 27 28  1  0  0  0  0
 28 23  1  0  0  0  0
 29 30  1  0  0  0  0
 31 29  1  0  0  0  0
M  END
>  <minimizedAffinity>
-6.4479022

>  <minimizedRMSD>
0.960197628

$$$$
