
 OpenBabel03242512233D

 38 41  0  0  0  0  0  0  0  0999 V2000
   36.5320   31.1540   39.8040 C   0  0  0  0  0  0  0  0  0  0  0  0
   37.2790   32.0490   39.0930 C   0  0  0  0  0  0  0  0  0  0  0  0
   37.7270   31.7060   37.8470 C   0  0  0  0  0  0  0  0  0  0  0  0
   37.4120   30.4500   37.3240 C   0  0  0  0  0  0  0  0  0  0  0  0
   36.6580   29.5770   38.0670 C   0  0  0  0  0  0  0  0  0  0  0  0
   36.2020   29.9210   39.3350 C   0  0  0  0  0  0  0  0  0  0  0  0
   38.3200   32.3910   37.2580 H   0  0  0  0  0  0  0  0  0  0  0  0
   37.7910   30.2270   36.3310 H   0  0  0  0  0  0  0  0  0  0  0  0
   36.4270   28.6070   37.6400 H   0  0  0  0  0  0  0  0  0  0  0  0
   37.5630   33.3450   39.7190 C   0  0  0  0  0  0  0  0  0  0  0  0
   36.9120   33.5790   40.5500 H   0  0  0  0  0  0  0  0  0  0  0  0
   37.3840   34.1300   38.9350 H   0  0  0  0  0  0  0  0  0  0  0  0
   39.0220   33.4370   40.1190 C   0  0  0  0  0  0  0  0  0  0  0  0
   39.6640   34.6580   39.9270 C   0  0  0  0  0  0  0  0  0  0  0  0
   40.9940   34.7240   40.2990 C   0  0  0  0  0  0  0  0  0  0  0  0
   41.5840   33.6370   40.8120 N   0  0  0  0  0  0  0  0  0  0  0  0
   40.9250   32.4510   40.9870 C   0  0  0  0  0  0  0  0  0  0  0  0
   39.6510   32.3700   40.6370 N   0  0  0  0  0  0  0  0  0  0  0  0
   39.1510   35.5090   39.5100 H   0  0  0  0  0  0  0  0  0  0  0  0
   41.5130   35.6590   40.1590 H   0  0  0  0  0  0  0  0  0  0  0  0
   41.3730   31.5640   41.3950 H   0  0  0  0  0  0  0  0  0  0  0  0
   36.0290   31.4160   41.0890 O   0  0  0  0  0  0  0  0  0  0  0  0
   35.1600   31.9500   41.2200 H   0  0  0  0  0  0  0  0  0  0  0  0
   35.4400   28.9530   40.0060 O   0  0  0  0  0  0  0  0  0  0  0  0
   36.1900   27.9970   40.6820 C   0  0  0  0  0  0  0  0  0  0  0  0
   36.5750   28.2530   41.9730 C   0  0  0  0  0  0  0  0  0  0  0  0
   37.3240   27.3580   42.7240 C   0  0  0  0  0  0  0  0  0  0  0  0
   37.6870   26.1940   42.1670 N   0  0  0  0  0  0  0  0  0  0  0  0
   37.3140   25.9290   40.8950 C   0  0  0  0  0  0  0  0  0  0  0  0
   36.5860   26.8190   40.1910 N   0  0  0  0  0  0  0  0  0  0  0  0
   36.3060   29.1850   42.4740 H   0  0  0  0  0  0  0  0  0  0  0  0
   37.6020   27.6000   43.7290 H   0  0  0  0  0  0  0  0  0  0  0  0
   37.6280   24.7300   40.1710 C   0  0  0  0  0  0  0  0  0  0  0  0
   37.7050   23.5570   40.8110 C   0  0  0  0  0  0  0  0  0  0  0  0
   37.5630   23.3000   41.8770 H   0  0  0  0  0  0  0  0  0  0  0  0
   37.9840   22.3420   40.3040 C   0  0  0  0  0  3  0  0  0  0  0  0
   38.2100   22.4650   38.8800 C   0  0  0  0  0  3  0  0  0  0  0  0
   37.9870   24.2780   38.5010 S   0  0  0  0  0  0  0  0  0  0  0  0
  1 22  1  0  0  0  0
  2 10  1  0  0  0  0
  2  1  2  0  0  0  0
  3  2  1  0  0  0  0
  4  3  2  0  0  0  0
  4  5  1  0  0  0  0
  5  6  2  0  0  0  0
  6  1  1  0  0  0  0
  6 24  1  0  0  0  0
  7  3  1  0  0  0  0
  8  4  1  0  0  0  0
  9  5  1  0  0  0  0
 10 13  1  0  0  0  0
 10 11  1  0  0  0  0
 12 10  1  0  0  0  0
 13 18  1  0  0  0  0
 14 13  2  0  0  0  0
 14 15  1  0  0  0  0
 15 16  2  0  0  0  0
 16 17  1  0  0  0  0
 17 21  1  0  0  0  0
 18 17  2  0  0  0  0
 19 14  1  0  0  0  0
 20 15  1  0  0  0  0
 22 23  1  0  0  0  0
 24 25  1  0  0  0  0
 25 26  1  0  0  0  0
 26 31  1  0  0  0  0
 26 27  2  0  0  0  0
 27 32  1  0  0  0  0
 28 27  1  0  0  0  0
 29 28  2  0  0  0  0
 30 25  2  0  0  0  0
 30 29  1  0  0  0  0
 33 34  2  0  0  0  0
 33 29  1  0  0  0  0
 34 35  1  0  0  0  0
 36 34  1  0  0  0  0
 37 36  2  0  0  0  0
 38 37  1  0  0  0  0
 38 33  1  0  0  0  0
M  END
>  <minimizedAffinity>
-6.36294699

$$$$

 OpenBabel03242512233D

 38 41  0  0  0  0  0  0  0  0999 V2000
   36.5470   28.1790   41.4580 C   0  0  0  0  0  0  0  0  0  0  0  0
   37.1840   27.1560   42.1020 C   0  0  0  0  0  0  0  0  0  0  0  0
   37.3340   25.9550   41.4670 C   0  0  0  0  0  0  0  0  0  0  0  0
   36.8330   25.7940   40.1720 C   0  0  0  0  0  0  0  0  0  0  0  0
   36.1990   26.8430   39.5570 C   0  0  0  0  0  0  0  0  0  0  0  0
   36.0450   28.0670   40.2000 C   0  0  0  0  0  0  0  0  0  0  0  0
   37.8330   25.1260   41.9480 H   0  0  0  0  0  0  0  0  0  0  0  0
   36.9780   24.8220   39.7120 H   0  0  0  0  0  0  0  0  0  0  0  0
   35.8190   26.6940   38.5520 H   0  0  0  0  0  0  0  0  0  0  0  0
   37.6780   27.4130   43.4600 C   0  0  0  0  0  0  0  0  0  0  0  0
   37.3270   26.7000   44.1930 H   0  0  0  0  0  0  0  0  0  0  0  0
   37.2770   28.4170   43.7660 H   0  0  0  0  0  0  0  0  0  0  0  0
   39.1900   27.5130   43.4690 C   0  0  0  0  0  0  0  0  0  0  0  0
   39.8980   26.4650   44.0540 C   0  0  0  0  0  0  0  0  0  0  0  0
   41.2770   26.5720   44.0510 C   0  0  0  0  0  0  0  0  0  0  0  0
   41.8480   27.6510   43.5010 N   0  0  0  0  0  0  0  0  0  0  0  0
   41.1220   28.6640   42.9340 C   0  0  0  0  0  0  0  0  0  0  0  0
   39.8020   28.5780   42.9280 N   0  0  0  0  0  0  0  0  0  0  0  0
   39.3980   25.6140   44.4860 H   0  0  0  0  0  0  0  0  0  0  0  0
   41.8480   25.7730   44.4980 H   0  0  0  0  0  0  0  0  0  0  0  0
   41.5540   29.5400   42.4870 H   0  0  0  0  0  0  0  0  0  0  0  0
   36.3470   29.4460   42.0300 O   0  0  0  0  0  0  0  0  0  0  0  0
   37.0890   30.1580   42.0140 H   0  0  0  0  0  0  0  0  0  0  0  0
   35.3810   29.0700   39.4780 O   0  0  0  0  0  0  0  0  0  0  0  0
   36.2160   29.8730   38.7070 C   0  0  0  0  0  0  0  0  0  0  0  0
   36.2290   29.6940   37.3470 C   0  0  0  0  0  0  0  0  0  0  0  0
   37.0280   30.4490   36.5000 C   0  0  0  0  0  0  0  0  0  0  0  0
   37.8210   31.3900   37.0300 N   0  0  0  0  0  0  0  0  0  0  0  0
   37.8180   31.5760   38.3690 C   0  0  0  0  0  0  0  0  0  0  0  0
   37.0300   30.8280   39.1660 N   0  0  0  0  0  0  0  0  0  0  0  0
   35.6020   28.9420   36.8640 H   0  0  0  0  0  0  0  0  0  0  0  0
   37.0060   30.2760   35.4440 H   0  0  0  0  0  0  0  0  0  0  0  0
   38.6110   32.5430   39.0740 C   0  0  0  0  0  0  0  0  0  0  0  0
   38.0200   33.5380   39.7460 C   0  0  0  0  0  0  0  0  0  0  0  0
   36.9520   33.7900   39.8820 H   0  0  0  0  0  0  0  0  0  0  0  0
   38.5940   34.5260   40.4570 C   0  0  0  0  0  3  0  0  0  0  0  0
   40.0320   34.3730   40.4040 C   0  0  0  0  0  3  0  0  0  0  0  0
   40.3270   32.8570   39.3570 S   0  0  0  0  0  0  0  0  0  0  0  0
  1 22  1  0  0  0  0
  1  2  1  0  0  0  0
  2 10  1  0  0  0  0
  3  7  1  0  0  0  0
  3  2  2  0  0  0  0
  4  3  1  0  0  0  0
  5  4  2  0  0  0  0
  5  6  1  0  0  0  0
  6  1  2  0  0  0  0
  8  4  1  0  0  0  0
  9  5  1  0  0  0  0
 10 13  1  0  0  0  0
 10 12  1  0  0  0  0
 10 11  1  0  0  0  0
 13 14  1  0  0  0  0
 14 19  1  0  0  0  0
 15 14  2  0  0  0  0
 15 20  1  0  0  0  0
 16 15  1  0  0  0  0
 17 16  2  0  0  0  0
 18 17  1  0  0  0  0
 18 13  2  0  0  0  0
 21 17  1  0  0  0  0
 23 22  1  0  0  0  0
 24  6  1  0  0  0  0
 25 30  1  0  0  0  0
 25 24  1  0  0  0  0
 26 25  2  0  0  0  0
 27 28  2  0  0  0  0
 27 26  1  0  0  0  0
 28 29  1  0  0  0  0
 29 33  1  0  0  0  0
 29 30  2  0  0  0  0
 31 26  1  0  0  0  0
 32 27  1  0  0  0  0
 33 38  1  0  0  0  0
 33 34  2  0  0  0  0
 34 35  1  0  0  0  0
 34 36  1  0  0  0  0
 37 36  2  0  0  0  0
 38 37  1  0  0  0  0
M  END
>  <minimizedAffinity>
-6.32988691

$$$$

 OpenBabel03242512233D

 38 41  0  0  0  0  0  0  0  0999 V2000
   36.3310   30.9520   40.0630 C   0  0  0  0  0  0  0  0  0  0  0  0
   36.0090   29.7760   39.4480 C   0  0  0  0  0  0  0  0  0  0  0  0
   36.3730   29.5820   38.1450 C   0  0  0  0  0  0  0  0  0  0  0  0
   37.0670   30.5870   37.4660 C   0  0  0  0  0  0  0  0  0  0  0  0
   37.3730   31.7540   38.1170 C   0  0  0  0  0  0  0  0  0  0  0  0
   37.0040   31.9570   39.4420 C   0  0  0  0  0  0  0  0  0  0  0  0
   36.1340   28.6630   37.6280 H   0  0  0  0  0  0  0  0  0  0  0  0
   37.3330   30.3830   36.4340 H   0  0  0  0  0  0  0  0  0  0  0  0
   37.9130   32.5200   37.5690 H   0  0  0  0  0  0  0  0  0  0  0  0
   35.2790   28.7760   40.2350 C   0  0  0  0  0  0  0  0  0  0  0  0
   34.6050   28.1680   39.6490 H   0  0  0  0  0  0  0  0  0  0  0  0
   34.6480   29.3430   40.9730 H   0  0  0  0  0  0  0  0  0  0  0  0
   36.2400   27.9200   41.0340 C   0  0  0  0  0  0  0  0  0  0  0  0
   36.7880   26.8070   40.3990 C   0  0  0  0  0  0  0  0  0  0  0  0
   37.6640   26.0380   41.1420 C   0  0  0  0  0  0  0  0  0  0  0  0
   37.9360   26.3920   42.4040 N   0  0  0  0  0  0  0  0  0  0  0  0
   37.3800   27.4920   43.0000 C   0  0  0  0  0  0  0  0  0  0  0  0
   36.5390   28.2400   42.3030 N   0  0  0  0  0  0  0  0  0  0  0  0
   36.5410   26.5580   39.3800 H   0  0  0  0  0  0  0  0  0  0  0  0
   38.1010   25.1710   40.6720 H   0  0  0  0  0  0  0  0  0  0  0  0
   37.5800   27.7990   44.0100 H   0  0  0  0  0  0  0  0  0  0  0  0
   35.9990   31.2420   41.3970 O   0  0  0  0  0  0  0  0  0  0  0  0
   36.5800   30.9020   42.1740 H   0  0  0  0  0  0  0  0  0  0  0  0
   37.3680   33.1870   40.0090 O   0  0  0  0  0  0  0  0  0  0  0  0
   38.7190   33.3000   40.3230 C   0  0  0  0  0  0  0  0  0  0  0  0
   39.3650   34.4770   40.0410 C   0  0  0  0  0  0  0  0  0  0  0  0
   40.7090   34.6800   40.3190 C   0  0  0  0  0  0  0  0  0  0  0  0
   41.4070   33.6860   40.8850 N   0  0  0  0  0  0  0  0  0  0  0  0
   40.7830   32.5200   41.1680 C   0  0  0  0  0  0  0  0  0  0  0  0
   39.4760   32.3540   40.8860 N   0  0  0  0  0  0  0  0  0  0  0  0
   38.8430   35.3180   39.5810 H   0  0  0  0  0  0  0  0  0  0  0  0
   41.1720   35.6150   40.0830 H   0  0  0  0  0  0  0  0  0  0  0  0
   41.4000   31.3740   41.7720 C   0  0  0  0  0  0  0  0  0  0  0  0
   40.6660   30.3000   42.0840 C   0  0  0  0  0  0  0  0  0  0  0  0
   39.5870   30.0960   41.9610 H   0  0  0  0  0  0  0  0  0  0  0  0
   41.0670   29.1460   42.6500 C   0  0  0  0  0  3  0  0  0  0  0  0
   42.4910   29.2120   42.8990 C   0  0  0  0  0  3  0  0  0  0  0  0
   43.0200   30.8930   42.2890 S   0  0  0  0  0  0  0  0  0  0  0  0
  1 22  1  0  0  0  0
  2  1  1  0  0  0  0
  2 10  1  0  0  0  0
  3  2  2  0  0  0  0
  4  5  2  0  0  0  0
  4  3  1  0  0  0  0
  5  6  1  0  0  0  0
  6 24  1  0  0  0  0
  6  1  2  0  0  0  0
  7  3  1  0  0  0  0
  8  4  1  0  0  0  0
  9  5  1  0  0  0  0
 10 12  1  0  0  0  0
 10 13  1  0  0  0  0
 11 10  1  0  0  0  0
 13 18  1  0  0  0  0
 14 13  2  0  0  0  0
 14 15  1  0  0  0  0
 15 16  2  0  0  0  0
 16 17  1  0  0  0  0
 17 21  1  0  0  0  0
 18 17  2  0  0  0  0
 19 14  1  0  0  0  0
 20 15  1  0  0  0  0
 22 23  1  0  0  0  0
 24 25  1  0  0  0  0
 25 30  1  0  0  0  0
 26 27  1  0  0  0  0
 26 25  2  0  0  0  0
 27 28  2  0  0  0  0
 28 29  1  0  0  0  0
 29 33  1  0  0  0  0
 30 29  2  0  0  0  0
 31 26  1  0  0  0  0
 32 27  1  0  0  0  0
 33 34  2  0  0  0  0
 33 38  1  0  0  0  0
 34 36  1  0  0  0  0
 35 34  1  0  0  0  0
 36 37  2  0  0  0  0
 38 37  1  0  0  0  0
M  END
>  <minimizedAffinity>
-6.14640379

$$$$

 OpenBabel03242512233D

 38 41  0  0  0  0  0  0  0  0999 V2000
   36.7800   28.8740   41.8550 C   0  0  0  0  0  0  0  0  0  0  0  0
   36.8220   27.5270   41.6350 C   0  0  0  0  0  0  0  0  0  0  0  0
   36.7260   27.0540   40.3560 C   0  0  0  0  0  0  0  0  0  0  0  0
   36.5880   27.9560   39.2980 C   0  0  0  0  0  0  0  0  0  0  0  0
   36.5510   29.3030   39.5570 C   0  0  0  0  0  0  0  0  0  0  0  0
   36.6470   29.7870   40.8570 C   0  0  0  0  0  0  0  0  0  0  0  0
   36.7550   25.9950   40.1470 H   0  0  0  0  0  0  0  0  0  0  0  0
   36.5160   27.5310   38.3010 H   0  0  0  0  0  0  0  0  0  0  0  0
   36.4420   29.9830   38.7190 H   0  0  0  0  0  0  0  0  0  0  0  0
   36.9680   26.6530   42.8050 C   0  0  0  0  0  0  0  0  0  0  0  0
   36.2760   25.8230   42.8170 H   0  0  0  0  0  0  0  0  0  0  0  0
   36.7400   27.2800   43.7080 H   0  0  0  0  0  0  0  0  0  0  0  0
   38.4010   26.1780   42.9400 C   0  0  0  0  0  0  0  0  0  0  0  0
   39.2490   26.9240   43.7550 C   0  0  0  0  0  0  0  0  0  0  0  0
   40.5520   26.4760   43.8680 C   0  0  0  0  0  0  0  0  0  0  0  0
   40.9240   25.3740   43.2050 N   0  0  0  0  0  0  0  0  0  0  0  0
   40.0650   24.6620   42.4120 C   0  0  0  0  0  0  0  0  0  0  0  0
   38.8140   25.0770   42.2920 N   0  0  0  0  0  0  0  0  0  0  0  0
   38.9090   27.8070   44.2710 H   0  0  0  0  0  0  0  0  0  0  0  0
   41.2290   27.0370   44.4930 H   0  0  0  0  0  0  0  0  0  0  0  0
   40.3360   23.7760   41.8680 H   0  0  0  0  0  0  0  0  0  0  0  0
   36.8710   29.4510   43.1330 O   0  0  0  0  0  0  0  0  0  0  0  0
   37.7830   29.6030   43.5830 H   0  0  0  0  0  0  0  0  0  0  0  0
   36.5980   31.1810   41.0070 O   0  0  0  0  0  0  0  0  0  0  0  0
   37.8200   31.8230   40.8340 C   0  0  0  0  0  0  0  0  0  0  0  0
   37.8710   32.9380   40.0370 C   0  0  0  0  0  0  0  0  0  0  0  0
   39.0450   33.6420   39.8080 C   0  0  0  0  0  0  0  0  0  0  0  0
   40.1760   33.2160   40.3880 N   0  0  0  0  0  0  0  0  0  0  0  0
   40.1390   32.1190   41.1750 C   0  0  0  0  0  0  0  0  0  0  0  0
   38.9830   31.4560   41.3790 N   0  0  0  0  0  0  0  0  0  0  0  0
   36.9800   33.3270   39.5410 H   0  0  0  0  0  0  0  0  0  0  0  0
   39.0390   34.5070   39.1790 H   0  0  0  0  0  0  0  0  0  0  0  0
   41.2660   31.5500   41.8590 C   0  0  0  0  0  0  0  0  0  0  0  0
   41.2190   30.2880   42.3020 C   0  0  0  0  0  0  0  0  0  0  0  0
   40.4200   29.5260   42.2430 H   0  0  0  0  0  0  0  0  0  0  0  0
   42.1670   29.5930   42.9560 C   0  0  0  0  0  3  0  0  0  0  0  0
   43.3290   30.4360   43.1390 C   0  0  0  0  0  3  0  0  0  0  0  0
   42.8820   32.0670   42.3520 S   0  0  0  0  0  0  0  0  0  0  0  0
  1 22  1  0  0  0  0
  2  1  1  0  0  0  0
  2 10  1  0  0  0  0
  3  2  2  0  0  0  0
  4  5  2  0  0  0  0
  4  3  1  0  0  0  0
  5  6  1  0  0  0  0
  6 24  1  0  0  0  0
  6  1  2  0  0  0  0
  7  3  1  0  0  0  0
  8  4  1  0  0  0  0
  9  5  1  0  0  0  0
 10 11  1  0  0  0  0
 10 13  1  0  0  0  0
 10 12  1  0  0  0  0
 13 14  1  0  0  0  0
 14 15  2  0  0  0  0
 14 19  1  0  0  0  0
 15 20  1  0  0  0  0
 16 15  1  0  0  0  0
 17 16  2  0  0  0  0
 18 17  1  0  0  0  0
 18 13  2  0  0  0  0
 21 17  1  0  0  0  0
 22 23  1  0  0  0  0
 25 24  1  0  0  0  0
 25 30  1  0  0  0  0
 26 25  2  0  0  0  0
 27 26  1  0  0  0  0
 27 28  2  0  0  0  0
 28 29  1  0  0  0  0
 29 30  2  0  0  0  0
 29 33  1  0  0  0  0
 31 26  1  0  0  0  0
 32 27  1  0  0  0  0
 33 34  2  0  0  0  0
 33 38  1  0  0  0  0
 34 36  1  0  0  0  0
 35 34  1  0  0  0  0
 36 37  2  0  0  0  0
 38 37  1  0  0  0  0
M  END
>  <minimizedAffinity>
-6.145257

$$$$

 OpenBabel03242512233D

 38 41  0  0  0  0  0  0  0  0999 V2000
   37.0430   29.2500   41.9940 C   0  0  0  0  0  0  0  0  0  0  0  0
   37.0190   30.2270   41.0400 C   0  0  0  0  0  0  0  0  0  0  0  0
   38.0840   31.0770   40.9250 C   0  0  0  0  0  0  0  0  0  0  0  0
   39.1760   30.9310   41.7840 C   0  0  0  0  0  0  0  0  0  0  0  0
   39.1660   29.9380   42.7300 C   0  0  0  0  0  0  0  0  0  0  0  0
   38.0840   29.0720   42.8500 C   0  0  0  0  0  0  0  0  0  0  0  0
   38.0960   31.8600   40.1810 H   0  0  0  0  0  0  0  0  0  0  0  0
   39.9960   31.6310   41.6510 H   0  0  0  0  0  0  0  0  0  0  0  0
   40.0250   29.8450   43.3850 H   0  0  0  0  0  0  0  0  0  0  0  0
   35.8310   30.3080   40.1820 C   0  0  0  0  0  0  0  0  0  0  0  0
   35.5730   31.3150   39.8900 H   0  0  0  0  0  0  0  0  0  0  0  0
   34.9690   29.9130   40.7850 H   0  0  0  0  0  0  0  0  0  0  0  0
   35.9830   29.4050   38.9740 C   0  0  0  0  0  0  0  0  0  0  0  0
   36.4620   29.9810   37.8000 C   0  0  0  0  0  0  0  0  0  0  0  0
   36.5960   29.1430   36.7080 C   0  0  0  0  0  0  0  0  0  0  0  0
   36.2650   27.8520   36.8320 N   0  0  0  0  0  0  0  0  0  0  0  0
   35.7960   27.3160   38.0010 C   0  0  0  0  0  0  0  0  0  0  0  0
   35.6620   28.1040   39.0560 N   0  0  0  0  0  0  0  0  0  0  0  0
   36.7160   31.0270   37.7440 H   0  0  0  0  0  0  0  0  0  0  0  0
   36.9650   29.5660   35.7870 H   0  0  0  0  0  0  0  0  0  0  0  0
   35.5230   26.2850   38.1280 H   0  0  0  0  0  0  0  0  0  0  0  0
   35.9970   28.3330   42.1870 O   0  0  0  0  0  0  0  0  0  0  0  0
   35.9170   27.4890   41.6040 H   0  0  0  0  0  0  0  0  0  0  0  0
   38.1790   28.0940   43.8510 O   0  0  0  0  0  0  0  0  0  0  0  0
   38.7480   26.8950   43.4340 C   0  0  0  0  0  0  0  0  0  0  0  0
   39.9760   26.5400   43.9320 C   0  0  0  0  0  0  0  0  0  0  0  0
   40.6190   25.3640   43.5720 C   0  0  0  0  0  0  0  0  0  0  0  0
   40.0180   24.5410   42.7030 N   0  0  0  0  0  0  0  0  0  0  0  0
   38.8080   24.8780   42.2040 C   0  0  0  0  0  0  0  0  0  0  0  0
   38.2080   26.0280   42.5730 N   0  0  0  0  0  0  0  0  0  0  0  0
   40.5080   27.1750   44.6430 H   0  0  0  0  0  0  0  0  0  0  0  0
   41.5770   25.1280   43.9870 H   0  0  0  0  0  0  0  0  0  0  0  0
   38.0490   24.0980   41.2690 C   0  0  0  0  0  0  0  0  0  0  0  0
   36.7730   24.4090   41.0120 C   0  0  0  0  0  0  0  0  0  0  0  0
   36.1270   25.2150   41.4050 H   0  0  0  0  0  0  0  0  0  0  0  0
   35.9140   23.7980   40.1750 C   0  0  0  0  0  3  0  0  0  0  0  0
   36.5840   22.6820   39.5410 C   0  0  0  0  0  3  0  0  0  0  0  0
   38.3140   22.6890   40.2370 S   0  0  0  0  0  0  0  0  0  0  0  0
  1 22  1  0  0  0  0
  1  6  1  0  0  0  0
  2  1  2  0  0  0  0
  3  2  1  0  0  0  0
  3  4  2  0  0  0  0
  4  5  1  0  0  0  0
  5  6  2  0  0  0  0
  5  9  1  0  0  0  0
  6 24  1  0  0  0  0
  7  3  1  0  0  0  0
  8  4  1  0  0  0  0
 10 12  1  0  0  0  0
 10  2  1  0  0  0  0
 11 10  1  0  0  0  0
 13 18  1  0  0  0  0
 13 10  1  0  0  0  0
 14 13  2  0  0  0  0
 15 16  2  0  0  0  0
 15 14  1  0  0  0  0
 16 17  1  0  0  0  0
 17 21  1  0  0  0  0
 17 18  2  0  0  0  0
 19 14  1  0  0  0  0
 20 15  1  0  0  0  0
 23 22  1  0  0  0  0
 25 24  1  0  0  0  0
 25 26  1  0  0  0  0
 26 31  1  0  0  0  0
 27 26  2  0  0  0  0
 27 32  1  0  0  0  0
 28 27  1  0  0  0  0
 29 30  1  0  0  0  0
 29 28  2  0  0  0  0
 30 25  2  0  0  0  0
 33 29  1  0  0  0  0
 34 33  2  0  0  0  0
 34 35  1  0  0  0  0
 36 34  1  0  0  0  0
 37 36  2  0  0  0  0
 37 38  1  0  0  0  0
 38 33  1  0  0  0  0
M  END
>  <minimizedAffinity>
-6.08705187

$$$$

 OpenBabel03242512233D

 38 41  0  0  0  0  0  0  0  0999 V2000
   36.6550   28.1630   41.7040 C   0  0  0  0  0  0  0  0  0  0  0  0
   36.0800   28.2630   40.4690 C   0  0  0  0  0  0  0  0  0  0  0  0
   36.1980   27.2230   39.5890 C   0  0  0  0  0  0  0  0  0  0  0  0
   36.9010   26.0770   39.9690 C   0  0  0  0  0  0  0  0  0  0  0  0
   37.4650   26.0120   41.2170 C   0  0  0  0  0  0  0  0  0  0  0  0
   37.3480   27.0680   42.1140 C   0  0  0  0  0  0  0  0  0  0  0  0
   35.7550   27.2700   38.6050 H   0  0  0  0  0  0  0  0  0  0  0  0
   36.9660   25.2800   39.2340 H   0  0  0  0  0  0  0  0  0  0  0  0
   38.0070   25.1120   41.4880 H   0  0  0  0  0  0  0  0  0  0  0  0
   35.3600   29.5030   40.1540 C   0  0  0  0  0  0  0  0  0  0  0  0
   34.6990   29.8340   40.9420 H   0  0  0  0  0  0  0  0  0  0  0  0
   34.7170   29.2850   39.2590 H   0  0  0  0  0  0  0  0  0  0  0  0
   36.3300   30.5960   39.7530 C   0  0  0  0  0  0  0  0  0  0  0  0
   36.7600   30.6170   38.4270 C   0  0  0  0  0  0  0  0  0  0  0  0
   37.6430   31.6210   38.0790 C   0  0  0  0  0  0  0  0  0  0  0  0
   38.0320   32.5020   39.0090 N   0  0  0  0  0  0  0  0  0  0  0  0
   37.5920   32.4540   40.3030 C   0  0  0  0  0  0  0  0  0  0  0  0
   36.7450   31.4990   40.6550 N   0  0  0  0  0  0  0  0  0  0  0  0
   36.4220   29.8870   37.7100 H   0  0  0  0  0  0  0  0  0  0  0  0
   37.9910   31.6580   37.0580 H   0  0  0  0  0  0  0  0  0  0  0  0
   37.8880   33.1460   41.0700 H   0  0  0  0  0  0  0  0  0  0  0  0
   36.5870   29.1780   42.6720 O   0  0  0  0  0  0  0  0  0  0  0  0
   35.7630   29.2790   43.2790 H   0  0  0  0  0  0  0  0  0  0  0  0
   37.9630   26.8940   43.3640 O   0  0  0  0  0  0  0  0  0  0  0  0
   39.3070   27.2530   43.4000 C   0  0  0  0  0  0  0  0  0  0  0  0
   40.2040   26.3880   43.9730 C   0  0  0  0  0  0  0  0  0  0  0  0
   41.5620   26.6620   44.0530 C   0  0  0  0  0  0  0  0  0  0  0  0
   42.0170   27.8180   43.5510 N   0  0  0  0  0  0  0  0  0  0  0  0
   41.1430   28.6790   42.9830 C   0  0  0  0  0  0  0  0  0  0  0  0
   39.8300   28.3850   42.9190 N   0  0  0  0  0  0  0  0  0  0  0  0
   39.8860   25.4340   44.3960 H   0  0  0  0  0  0  0  0  0  0  0  0
   42.2260   25.9580   44.5080 H   0  0  0  0  0  0  0  0  0  0  0  0
   41.4850   29.9480   42.4060 C   0  0  0  0  0  0  0  0  0  0  0  0
   42.3690   30.7490   43.0130 C   0  0  0  0  0  0  0  0  0  0  0  0
   42.9410   30.6220   43.9500 H   0  0  0  0  0  0  0  0  0  0  0  0
   42.8080   31.9600   42.6250 C   0  0  0  0  0  3  0  0  0  0  0  0
   42.1600   32.3210   41.3820 C   0  0  0  0  0  3  0  0  0  0  0  0
   41.0430   30.8840   40.9740 S   0  0  0  0  0  0  0  0  0  0  0  0
  1  6  1  0  0  0  0
  1 22  1  0  0  0  0
  2  1  2  0  0  0  0
  3  4  2  0  0  0  0
  3  2  1  0  0  0  0
  4  5  1  0  0  0  0
  5  9  1  0  0  0  0
  5  6  2  0  0  0  0
  6 24  1  0  0  0  0
  7  3  1  0  0  0  0
  8  4  1  0  0  0  0
 10  2  1  0  0  0  0
 10 11  1  0  0  0  0
 12 10  1  0  0  0  0
 13 10  1  0  0  0  0
 13 18  1  0  0  0  0
 14 13  2  0  0  0  0
 15 14  1  0  0  0  0
 15 16  2  0  0  0  0
 16 17  1  0  0  0  0
 17 18  2  0  0  0  0
 17 21  1  0  0  0  0
 19 14  1  0  0  0  0
 20 15  1  0  0  0  0
 22 23  1  0  0  0  0
 24 25  1  0  0  0  0
 25 26  1  0  0  0  0
 26 27  2  0  0  0  0
 26 31  1  0  0  0  0
 27 32  1  0  0  0  0
 28 27  1  0  0  0  0
 29 28  2  0  0  0  0
 30 29  1  0  0  0  0
 30 25  2  0  0  0  0
 33 29  1  0  0  0  0
 33 34  2  0  0  0  0
 34 35  1  0  0  0  0
 36 34  1  0  0  0  0
 37 36  2  0  0  0  0
 38 37  1  0  0  0  0
 38 33  1  0  0  0  0
M  END
>  <minimizedAffinity>
-6.07093096

$$$$

 OpenBabel03242512233D

 38 41  0  0  0  0  0  0  0  0999 V2000
   36.4090   30.4560   40.0660 C   0  0  0  0  0  0  0  0  0  0  0  0
   36.3640   29.0920   40.0190 C   0  0  0  0  0  0  0  0  0  0  0  0
   36.7900   28.4460   38.8910 C   0  0  0  0  0  0  0  0  0  0  0  0
   37.2640   29.1920   37.8090 C   0  0  0  0  0  0  0  0  0  0  0  0
   37.2940   30.5610   37.8920 C   0  0  0  0  0  0  0  0  0  0  0  0
   36.8610   31.2210   39.0370 C   0  0  0  0  0  0  0  0  0  0  0  0
   36.7680   27.3680   38.8220 H   0  0  0  0  0  0  0  0  0  0  0  0
   37.5900   28.6320   36.9380 H   0  0  0  0  0  0  0  0  0  0  0  0
   37.6660   31.1180   37.0390 H   0  0  0  0  0  0  0  0  0  0  0  0
   35.8510   28.3890   41.2010 C   0  0  0  0  0  0  0  0  0  0  0  0
   35.0380   27.7120   40.9850 H   0  0  0  0  0  0  0  0  0  0  0  0
   35.4460   29.1750   41.8940 H   0  0  0  0  0  0  0  0  0  0  0  0
   36.9760   27.6850   41.9320 C   0  0  0  0  0  0  0  0  0  0  0  0
   37.0370   26.2960   41.8300 C   0  0  0  0  0  0  0  0  0  0  0  0
   38.0710   25.6710   42.5020 C   0  0  0  0  0  0  0  0  0  0  0  0
   38.9390   26.4120   43.2010 N   0  0  0  0  0  0  0  0  0  0  0  0
   38.8510   27.7750   43.2820 C   0  0  0  0  0  0  0  0  0  0  0  0
   37.8680   28.3900   42.6450 N   0  0  0  0  0  0  0  0  0  0  0  0
   36.3160   25.7380   41.2560 H   0  0  0  0  0  0  0  0  0  0  0  0
   38.1390   24.5960   42.4380 H   0  0  0  0  0  0  0  0  0  0  0  0
   39.5330   28.3940   43.8360 H   0  0  0  0  0  0  0  0  0  0  0  0
   35.9930   31.2040   41.1790 O   0  0  0  0  0  0  0  0  0  0  0  0
   36.6170   31.3510   41.9830 H   0  0  0  0  0  0  0  0  0  0  0  0
   36.9370   32.6220   39.0140 O   0  0  0  0  0  0  0  0  0  0  0  0
   38.1900   33.1360   39.3310 C   0  0  0  0  0  0  0  0  0  0  0  0
   38.2730   34.1480   40.2520 C   0  0  0  0  0  0  0  0  0  0  0  0
   39.4790   34.7220   40.6300 C   0  0  0  0  0  0  0  0  0  0  0  0
   40.6100   34.2700   40.0710 N   0  0  0  0  0  0  0  0  0  0  0  0
   40.5430   33.2730   39.1610 C   0  0  0  0  0  0  0  0  0  0  0  0
   39.3560   32.7360   38.8150 N   0  0  0  0  0  0  0  0  0  0  0  0
   37.3820   34.5530   40.7370 H   0  0  0  0  0  0  0  0  0  0  0  0
   39.4960   35.5100   41.3540 H   0  0  0  0  0  0  0  0  0  0  0  0
   41.6660   32.6910   38.4840 C   0  0  0  0  0  0  0  0  0  0  0  0
   41.4760   31.9010   37.4200 C   0  0  0  0  0  0  0  0  0  0  0  0
   40.5510   31.5780   36.9100 H   0  0  0  0  0  0  0  0  0  0  0  0
   42.3990   31.2740   36.6670 C   0  0  0  0  0  3  0  0  0  0  0  0
   43.7160   31.5770   37.1830 C   0  0  0  0  0  3  0  0  0  0  0  0
   43.4260   32.6980   38.6450 S   0  0  0  0  0  0  0  0  0  0  0  0
  1 22  1  0  0  0  0
  2  1  1  0  0  0  0
  2 10  1  0  0  0  0
  3  2  2  0  0  0  0
  4  5  2  0  0  0  0
  4  3  1  0  0  0  0
  5  6  1  0  0  0  0
  6  1  2  0  0  0  0
  7  3  1  0  0  0  0
  8  4  1  0  0  0  0
  9  5  1  0  0  0  0
 10 12  1  0  0  0  0
 10 13  1  0  0  0  0
 11 10  1  0  0  0  0
 13 18  1  0  0  0  0
 14 13  2  0  0  0  0
 14 15  1  0  0  0  0
 15 16  2  0  0  0  0
 16 17  1  0  0  0  0
 17 21  1  0  0  0  0
 18 17  2  0  0  0  0
 19 14  1  0  0  0  0
 20 15  1  0  0  0  0
 22 23  1  0  0  0  0
 24  6  1  0  0  0  0
 24 25  1  0  0  0  0
 25 26  1  0  0  0  0
 26 27  2  0  0  0  0
 26 31  1  0  0  0  0
 27 32  1  0  0  0  0
 28 27  1  0  0  0  0
 29 28  2  0  0  0  0
 30 29  1  0  0  0  0
 30 25  2  0  0  0  0
 33 38  1  0  0  0  0
 33 29  1  0  0  0  0
 34 33  2  0  0  0  0
 35 34  1  0  0  0  0
 36 37  2  0  0  0  0
 36 34  1  0  0  0  0
 37 38  1  0  0  0  0
M  END
>  <minimizedAffinity>
-6.0409503

$$$$

 OpenBabel03242512233D

 38 41  0  0  0  0  0  0  0  0999 V2000
   38.4180   29.1030   42.7950 C   0  0  0  0  0  0  0  0  0  0  0  0
   38.5940   27.8010   43.1680 C   0  0  0  0  0  0  0  0  0  0  0  0
   39.8620   27.3190   43.3390 C   0  0  0  0  0  0  0  0  0  0  0  0
   40.9540   28.1650   43.1290 C   0  0  0  0  0  0  0  0  0  0  0  0
   40.7390   29.4660   42.7550 C   0  0  0  0  0  0  0  0  0  0  0  0
   39.4510   29.9610   42.5800 C   0  0  0  0  0  0  0  0  0  0  0  0
   40.0350   26.2940   43.6340 H   0  0  0  0  0  0  0  0  0  0  0  0
   41.9390   27.7330   43.2780 H   0  0  0  0  0  0  0  0  0  0  0  0
   41.6030   30.1030   42.5970 H   0  0  0  0  0  0  0  0  0  0  0  0
   37.3910   26.9840   43.3670 C   0  0  0  0  0  0  0  0  0  0  0  0
   36.5350   27.5470   43.7090 H   0  0  0  0  0  0  0  0  0  0  0  0
   37.6350   26.2400   44.1720 H   0  0  0  0  0  0  0  0  0  0  0  0
   37.0680   26.1980   42.1120 C   0  0  0  0  0  0  0  0  0  0  0  0
   36.9790   24.8120   42.2300 C   0  0  0  0  0  0  0  0  0  0  0  0
   36.6820   24.1110   41.0760 C   0  0  0  0  0  0  0  0  0  0  0  0
   36.4990   24.7810   39.9320 N   0  0  0  0  0  0  0  0  0  0  0  0
   36.5940   26.1440   39.8500 C   0  0  0  0  0  0  0  0  0  0  0  0
   36.8770   26.8320   40.9450 N   0  0  0  0  0  0  0  0  0  0  0  0
   37.1340   24.3120   43.1710 H   0  0  0  0  0  0  0  0  0  0  0  0
   36.6080   23.0360   41.1410 H   0  0  0  0  0  0  0  0  0  0  0  0
   36.4530   26.7080   38.9460 H   0  0  0  0  0  0  0  0  0  0  0  0
   37.1560   29.6860   42.5960 O   0  0  0  0  0  0  0  0  0  0  0  0
   36.6060   30.0430   43.3880 H   0  0  0  0  0  0  0  0  0  0  0  0
   39.3480   31.3060   42.1960 O   0  0  0  0  0  0  0  0  0  0  0  0
   39.2300   31.5070   40.8240 C   0  0  0  0  0  0  0  0  0  0  0  0
   40.0880   32.3840   40.2110 C   0  0  0  0  0  0  0  0  0  0  0  0
   40.0440   32.6460   38.8490 C   0  0  0  0  0  0  0  0  0  0  0  0
   39.1260   32.0180   38.1010 N   0  0  0  0  0  0  0  0  0  0  0  0
   38.2740   31.1520   38.6930 C   0  0  0  0  0  0  0  0  0  0  0  0
   38.3420   30.9180   40.0190 N   0  0  0  0  0  0  0  0  0  0  0  0
   40.8540   32.9200   40.7740 H   0  0  0  0  0  0  0  0  0  0  0  0
   40.7340   33.3370   38.4130 H   0  0  0  0  0  0  0  0  0  0  0  0
   37.2450   30.4110   38.0210 C   0  0  0  0  0  0  0  0  0  0  0  0
   36.2060   29.9240   38.7100 C   0  0  0  0  0  0  0  0  0  0  0  0
   35.9560   29.9810   39.7850 H   0  0  0  0  0  0  0  0  0  0  0  0
   35.1580   29.2130   38.2560 C   0  0  0  0  0  3  0  0  0  0  0  0
   35.3000   29.0220   36.8280 C   0  0  0  0  0  3  0  0  0  0  0  0
   36.8910   29.8830   36.3720 S   0  0  0  0  0  0  0  0  0  0  0  0
  1  2  1  0  0  0  0
  2  3  2  0  0  0  0
  2 10  1  0  0  0  0
  3  7  1  0  0  0  0
  4  8  1  0  0  0  0
  4  3  1  0  0  0  0
  5  4  2  0  0  0  0
  6  5  1  0  0  0  0
  6  1  2  0  0  0  0
  9  5  1  0  0  0  0
 10 11  1  0  0  0  0
 10 12  1  0  0  0  0
 13 14  1  0  0  0  0
 13 10  1  0  0  0  0
 14 19  1  0  0  0  0
 15 20  1  0  0  0  0
 15 14  2  0  0  0  0
 16 15  1  0  0  0  0
 17 16  2  0  0  0  0
 17 18  1  0  0  0  0
 18 13  2  0  0  0  0
 21 17  1  0  0  0  0
 22  1  1  0  0  0  0
 22 23  1  0  0  0  0
 24  6  1  0  0  0  0
 25 24  1  0  0  0  0
 26 31  1  0  0  0  0
 26 25  1  0  0  0  0
 27 26  2  0  0  0  0
 28 29  2  0  0  0  0
 28 27  1  0  0  0  0
 29 30  1  0  0  0  0
 30 25  2  0  0  0  0
 32 27  1  0  0  0  0
 33 29  1  0  0  0  0
 33 34  2  0  0  0  0
 34 35  1  0  0  0  0
 36 34  1  0  0  0  0
 37 36  2  0  0  0  0
 38 37  1  0  0  0  0
 38 33  1  0  0  0  0
M  END
>  <minimizedAffinity>
-6.04071617

$$$$

 OpenBabel03242512233D

 38 41  0  0  0  0  0  0  0  0999 V2000
   38.3450   29.0790   42.7600 C   0  0  0  0  0  0  0  0  0  0  0  0
   38.5410   27.7700   43.0980 C   0  0  0  0  0  0  0  0  0  0  0  0
   39.8170   27.2990   43.2370 C   0  0  0  0  0  0  0  0  0  0  0  0
   40.8960   28.1630   43.0320 C   0  0  0  0  0  0  0  0  0  0  0  0
   40.6600   29.4710   42.6940 C   0  0  0  0  0  0  0  0  0  0  0  0
   39.3640   29.9540   42.5510 C   0  0  0  0  0  0  0  0  0  0  0  0
   40.0070   26.2690   43.5040 H   0  0  0  0  0  0  0  0  0  0  0  0
   41.8880   27.7400   43.1550 H   0  0  0  0  0  0  0  0  0  0  0  0
   41.5140   30.1220   42.5400 H   0  0  0  0  0  0  0  0  0  0  0  0
   37.3510   26.9340   43.2930 C   0  0  0  0  0  0  0  0  0  0  0  0
   36.4830   27.4840   43.6260 H   0  0  0  0  0  0  0  0  0  0  0  0
   37.6020   26.1990   44.1040 H   0  0  0  0  0  0  0  0  0  0  0  0
   37.0500   26.1340   42.0420 C   0  0  0  0  0  0  0  0  0  0  0  0
   37.0100   24.7460   42.1620 C   0  0  0  0  0  0  0  0  0  0  0  0
   36.7330   24.0330   41.0110 C   0  0  0  0  0  0  0  0  0  0  0  0
   36.5210   24.6940   39.8660 N   0  0  0  0  0  0  0  0  0  0  0  0
   36.5680   26.0590   39.7820 C   0  0  0  0  0  0  0  0  0  0  0  0
   36.8320   26.7590   40.8740 N   0  0  0  0  0  0  0  0  0  0  0  0
   37.1870   24.2540   43.1040 H   0  0  0  0  0  0  0  0  0  0  0  0
   36.6970   22.9560   41.0780 H   0  0  0  0  0  0  0  0  0  0  0  0
   36.4030   26.6160   38.8770 H   0  0  0  0  0  0  0  0  0  0  0  0
   37.0730   29.6510   42.5940 O   0  0  0  0  0  0  0  0  0  0  0  0
   36.5310   29.9820   43.4030 H   0  0  0  0  0  0  0  0  0  0  0  0
   39.2390   31.3070   42.2030 O   0  0  0  0  0  0  0  0  0  0  0  0
   39.1150   31.5420   40.8370 C   0  0  0  0  0  0  0  0  0  0  0  0
   37.9150   31.9970   40.3530 C   0  0  0  0  0  0  0  0  0  0  0  0
   37.7010   32.2590   39.0070 C   0  0  0  0  0  0  0  0  0  0  0  0
   38.7060   32.0590   38.1430 N   0  0  0  0  0  0  0  0  0  0  0  0
   39.8940   31.6110   38.6080 C   0  0  0  0  0  0  0  0  0  0  0  0
   40.0720   31.3660   39.9210 N   0  0  0  0  0  0  0  0  0  0  0  0
   37.0650   32.1760   41.0130 H   0  0  0  0  0  0  0  0  0  0  0  0
   36.7480   32.6130   38.6740 H   0  0  0  0  0  0  0  0  0  0  0  0
   41.0550   31.3530   37.8040 C   0  0  0  0  0  0  0  0  0  0  0  0
   41.2490   30.1410   37.2700 C   0  0  0  0  0  0  0  0  0  0  0  0
   40.6460   29.2170   37.3250 H   0  0  0  0  0  0  0  0  0  0  0  0
   42.2680   29.7190   36.4980 C   0  0  0  0  0  3  0  0  0  0  0  0
   43.1960   30.8120   36.3010 C   0  0  0  0  0  3  0  0  0  0  0  0
   42.4690   32.2500   37.2400 S   0  0  0  0  0  0  0  0  0  0  0  0
  1  2  1  0  0  0  0
  2  3  2  0  0  0  0
  2 10  1  0  0  0  0
  3  7  1  0  0  0  0
  4  8  1  0  0  0  0
  4  3  1  0  0  0  0
  5  4  2  0  0  0  0
  6  5  1  0  0  0  0
  6  1  2  0  0  0  0
  9  5  1  0  0  0  0
 10 11  1  0  0  0  0
 10 12  1  0  0  0  0
 13 14  1  0  0  0  0
 13 10  1  0  0  0  0
 14 19  1  0  0  0  0
 15 20  1  0  0  0  0
 15 14  2  0  0  0  0
 16 15  1  0  0  0  0
 17 16  2  0  0  0  0
 17 18  1  0  0  0  0
 18 13  2  0  0  0  0
 21 17  1  0  0  0  0
 22  1  1  0  0  0  0
 22 23  1  0  0  0  0
 24  6  1  0  0  0  0
 25 24  1  0  0  0  0
 26 25  1  0  0  0  0
 26 31  1  0  0  0  0
 27 26  2  0  0  0  0
 28 29  2  0  0  0  0
 28 27  1  0  0  0  0
 29 30  1  0  0  0  0
 30 25  2  0  0  0  0
 32 27  1  0  0  0  0
 33 29  1  0  0  0  0
 34 35  1  0  0  0  0
 34 33  2  0  0  0  0
 36 34  1  0  0  0  0
 37 36  2  0  0  0  0
 37 38  1  0  0  0  0
 38 33  1  0  0  0  0
M  END
>  <minimizedAffinity>
-5.95469189

$$$$
