
 OpenBabel03252509263D

 27 29  0  0  1  0  0  0  0  0999 V2000
   46.7750   35.1010   41.8830 C   0  0  1  0  0  0  0  0  0  0  0  0
   48.2890   35.4620   41.9250 C   0  0  0  0  0  0  0  0  0  0  0  0
   47.6510   34.2050   41.2470 C   0  0  2  0  0  0  0  0  0  0  0  0
   46.1730   35.8560   41.3380 H   0  0  0  0  0  0  0  0  0  0  0  0
   48.8450   35.3240   42.8450 H   0  0  0  0  0  0  0  0  0  0  0  0
   48.6180   36.2290   41.2060 H   0  0  0  0  0  0  0  0  0  0  0  0
   47.9120   33.2620   41.8200 H   0  0  0  0  0  0  0  0  0  0  0  0
   44.8050   35.1200   45.0770 C   0  0  0  0  0  0  0  0  0  0  0  0
   45.2520   35.5250   43.7820 C   0  0  0  0  0  0  0  0  0  0  0  0
   46.2680   34.7940   43.2640 C   0  0  0  0  0  0  0  0  0  0  0  0
   46.8270   33.7330   43.9510 N   0  0  0  0  0  0  0  0  0  0  0  0
   46.3710   33.3840   45.1800 C   0  0  0  0  0  0  0  0  0  0  0  0
   45.3580   34.0810   45.7420 N   0  0  0  0  0  0  0  0  0  0  0  0
   43.9880   35.7130   45.4870 H   0  0  0  0  0  0  0  0  0  0  0  0
   46.8010   32.5560   45.7270 H   0  0  0  0  0  0  0  0  0  0  0  0
   44.6880   36.6250   43.0940 N   0  0  0  0  0  0  0  0  0  0  0  0
   44.7170   37.6590   43.2970 H   0  0  0  0  0  0  0  0  0  0  0  0
   44.2090   36.1590   42.2970 H   0  0  0  0  0  0  0  0  0  0  0  0
   47.7210   34.1000   39.7400 C   0  0  0  0  0  0  0  0  0  0  0  0
   46.7030   33.7460   39.4180 H   0  0  0  0  0  0  0  0  0  0  0  0
   47.9880   35.0730   39.2770 H   0  0  0  0  0  0  0  0  0  0  0  0
   48.6650   33.0290   39.3740 C   0  0  0  0  0  0  0  0  0  0  0  0
   49.4450   32.1360   40.0530 C   0  0  0  0  0  0  0  0  0  0  0  0
   49.4130   32.1640   41.1320 H   0  0  0  0  0  0  0  0  0  0  0  0
   50.2140   31.2670   39.3200 C   0  0  0  0  0  3  0  0  0  0  0  0
   50.1630   31.3380   37.9550 C   0  0  0  0  0  3  0  0  0  0  0  0
   48.9380   32.7340   37.6840 S   0  0  0  0  0  0  0  0  0  0  0  0
  1  4  1  6  0  0  0
  1  2  1  0  0  0  0
  1 10  1  0  0  0  0
  2  5  1  0  0  0  0
  3  7  1  1  0  0  0
  3  1  1  0  0  0  0
  3  2  1  0  0  0  0
  6  2  1  0  0  0  0
  8 14  1  0  0  0  0
  8 13  1  0  0  0  0
  9  8  2  0  0  0  0
 10  9  1  0  0  0  0
 10 11  2  0  0  0  0
 11 12  1  0  0  0  0
 12 15  1  0  0  0  0
 12 13  2  0  0  0  0
 16 17  1  0  0  0  0
 16  9  1  0  0  0  0
 18 16  1  0  0  0  0
 19  3  1  0  0  0  0
 20 19  1  0  0  0  0
 21 19  1  0  0  0  0
 22 19  1  0  0  0  0
 22 23  2  0  0  0  0
 23 24  1  0  0  0  0
 25 23  1  0  0  0  0
 26 25  2  0  0  0  0
 27 26  1  0  0  0  0
 27 22  1  0  0  0  0
M  END
>  <minimizedAffinity>
-4.66237354

>  <minimizedRMSD>
0.492435783

$$$$
