
 OpenBabel03252507033D

 44 47  0  0  0  0  0  0  0  0999 V2000
   41.7720   33.7900   41.3830 C   0  0  0  0  0  0  0  0  0  0  0  0
   41.3810   33.7210   42.4200 H   0  0  0  0  0  0  0  0  0  0  0  0
   42.0350   34.8980   41.2760 H   0  0  0  0  0  0  0  0  0  0  0  0
   40.9040   33.3620   40.4580 N   0  0  0  0  0  0  0  0  0  0  0  0
   40.1800   32.1280   40.4620 C   0  0  0  0  0  0  0  0  0  0  0  0
   38.8010   32.6690   40.8440 C   0  0  0  0  0  0  0  0  0  0  0  0
   38.2670   33.6310   39.8960 C   0  0  0  0  0  0  0  0  0  0  0  0
   39.1840   34.3880   39.0730 C   0  0  0  0  0  0  0  0  0  0  0  0
   40.6640   34.3000   39.3420 C   0  0  0  0  0  0  0  0  0  0  0  0
   40.5460   31.5070   41.3130 H   0  0  0  0  0  0  0  0  0  0  0  0
   40.1410   31.5430   39.5610 H   0  0  0  0  0  0  0  0  0  0  0  0
   38.9560   33.1660   41.8360 H   0  0  0  0  0  0  0  0  0  0  0  0
   38.1400   31.8010   41.0400 H   0  0  0  0  0  0  0  0  0  0  0  0
   37.5540   33.1050   39.2010 H   0  0  0  0  0  0  0  0  0  0  0  0
   37.6000   34.3620   40.4400 H   0  0  0  0  0  0  0  0  0  0  0  0
   38.9130   35.0310   38.2910 H   0  0  0  0  0  0  0  0  0  0  0  0
   41.8580   35.1950   38.4820 S   0  0  0  0  0  0  0  0  0  0  0  0
   41.3600   36.3180   37.3490 C   0  0  0  0  0  0  0  0  0  0  0  0
   41.1500   36.8140   36.0870 C   0  0  0  0  0  0  0  0  0  0  0  0
   41.4830   36.0860   35.3940 H   0  0  0  0  0  0  0  0  0  0  0  0
   40.6050   38.0270   35.8300 C   0  0  0  0  0  3  0  0  0  0  0  0
   40.2270   38.8350   37.0060 C   0  0  0  0  0  3  0  0  0  0  0  0
   40.7420   37.6640   38.4040 S   0  0  0  0  0  0  0  0  0  0  0  0
   43.0860   33.0990   41.3320 C   0  0  0  0  0  0  0  0  0  0  0  0
   43.3420   32.6940   40.3320 H   0  0  0  0  0  0  0  0  0  0  0  0
   43.0300   32.2160   42.0010 H   0  0  0  0  0  0  0  0  0  0  0  0
   44.1110   34.0150   41.8650 C   0  0  0  0  0  0  0  0  0  0  0  0
   43.7510   35.2400   42.3850 C   0  0  0  0  0  0  0  0  0  0  0  0
   44.7550   36.0670   42.8630 C   0  0  0  0  0  0  0  0  0  0  0  0
   46.0500   35.6250   42.7980 N   0  0  0  0  0  0  0  0  0  0  0  0
   46.3540   34.4350   42.2900 C   0  0  0  0  0  0  0  0  0  0  0  0
   45.3730   33.6540   41.8330 N   0  0  0  0  0  0  0  0  0  0  0  0
   42.8170   35.7490   42.5380 H   0  0  0  0  0  0  0  0  0  0  0  0
   44.6690   37.0560   43.3020 H   0  0  0  0  0  0  0  0  0  0  0  0
   47.7600   34.0330   42.2840 C   0  0  0  0  0  0  0  0  0  0  0  0
   48.1030   32.6940   42.1670 C   0  0  0  0  0  0  0  0  0  0  0  0
   49.4420   32.3280   42.1760 C   0  0  0  0  0  0  0  0  0  0  0  0
   50.3280   33.3810   42.3050 C   0  0  0  0  0  0  0  0  0  0  0  0
   50.0170   34.7220   42.4230 C   0  0  0  0  0  0  0  0  0  0  0  0
   48.6900   34.9930   42.4060 N   0  0  0  0  0  0  0  0  0  0  0  0
   47.3590   31.9140   42.0670 H   0  0  0  0  0  0  0  0  0  0  0  0
   49.8020   31.3130   42.0900 H   0  0  0  0  0  0  0  0  0  0  0  0
   51.3890   33.1330   42.3170 H   0  0  0  0  0  0  0  0  0  0  0  0
   50.7700   35.4670   42.5200 H   0  0  0  0  0  0  0  0  0  0  0  0
  1  2  1  0  0  0  0
  3  1  1  0  0  0  0
  4  5  1  0  0  0  0
  4  1  1  0  0  0  0
  5  6  1  0  0  0  0
  5 10  1  0  0  0  0
  6 13  1  0  0  0  0
  6 12  1  0  0  0  0
  7 15  1  0  0  0  0
  7  6  1  0  0  0  0
  8  9  2  0  0  0  0
  8  7  1  0  0  0  0
  9  4  1  0  0  0  0
 11  5  1  0  0  0  0
 14  7  1  0  0  0  0
 16  8  1  0  0  0  0
 17  9  1  0  0  0  0
 18 23  1  0  0  0  0
 18 17  1  0  0  0  0
 19 18  2  0  0  0  0
 20 19  1  0  0  0  0
 21 19  1  0  0  0  0
 21 22  2  0  0  0  0
 22 23  1  0  0  0  0
 24  1  1  0  0  0  0
 24 27  1  0  0  0  0
 24 26  1  0  0  0  0
 25 24  1  0  0  0  0
 27 28  1  0  0  0  0
 28 33  1  0  0  0  0
 28 29  2  0  0  0  0
 29 34  1  0  0  0  0
 30 29  1  0  0  0  0
 31 30  2  0  0  0  0
 32 27  2  0  0  0  0
 32 31  1  0  0  0  0
 35 31  1  0  0  0  0
 35 40  1  0  0  0  0
 36 37  1  0  0  0  0
 36 35  2  0  0  0  0
 37 38  2  0  0  0  0
 38 43  1  0  0  0  0
 38 39  1  0  0  0  0
 39 44  1  0  0  0  0
 40 39  2  0  0  0  0
 41 36  1  0  0  0  0
 42 37  1  0  0  0  0
M  END
>  <minimizedAffinity>
-3.15539432

>  <minimizedRMSD>
0.234420255

$$$$
