
 OpenBabel03252500253D

 34 36  0  0  1  0  0  0  0  0999 V2000
   46.9940   30.4030   48.1530 C   0  0  2  0  0  0  0  0  0  0  0  0
   45.5660   30.7100   48.4060 C   0  0  2  0  0  0  0  0  0  0  0  0
   44.8510   29.8300   47.4510 C   0  0  0  0  0  0  0  0  0  0  0  0
   45.6290   28.6960   47.2680 O   0  0  0  0  0  0  0  0  0  0  0  0
   46.8470   28.9030   47.8280 C   0  0  0  0  0  0  0  0  0  0  0  0
   47.5710   30.7550   47.3550 H   0  0  0  0  0  0  0  0  0  0  0  0
   45.4060   30.4770   49.4870 H   0  0  0  0  0  0  0  0  0  0  0  0
   44.4030   30.2710   46.5830 H   0  0  0  0  0  0  0  0  0  0  0  0
   43.9650   29.4330   48.0380 H   0  0  0  0  0  0  0  0  0  0  0  0
   46.9160   28.4260   48.8500 H   0  0  0  0  0  0  0  0  0  0  0  0
   47.6950   28.5050   47.2680 H   0  0  0  0  0  0  0  0  0  0  0  0
   45.2440   32.0430   48.2510 O   0  0  0  0  0  0  0  0  0  0  0  0
   47.2790   32.8550   46.9000 O   0  0  0  0  0  0  0  0  0  0  0  0
   45.8010   32.5960   46.7810 P   0  0  1  0  0  0  0  0  0  0  0  0
   45.5590   31.3970   45.6060 O   0  0  0  0  0  0  0  0  0  0  0  0
   46.1430   31.6050   44.8350 H   0  0  0  0  0  0  0  0  0  0  0  0
   45.0490   34.0580   46.3110 O   0  0  0  0  0  0  0  0  0  0  0  0
   44.9750   36.3250   43.5650 C   0  0  0  0  0  0  0  0  0  0  0  0
   45.0180   35.4860   42.4190 C   0  0  0  0  0  0  0  0  0  0  0  0
   45.0740   34.1070   42.6470 C   0  0  0  0  0  0  0  0  0  0  0  0
   45.0830   33.6650   43.9220 N   0  0  0  0  0  0  0  0  0  0  0  0
   45.0410   34.5030   44.9850 C   0  0  0  0  0  0  0  0  0  0  0  0
   44.9870   35.8310   44.7910 N   0  0  0  0  0  0  0  0  0  0  0  0
   45.0090   35.8750   41.4170 H   0  0  0  0  0  0  0  0  0  0  0  0
   45.1080   33.4260   41.8090 H   0  0  0  0  0  0  0  0  0  0  0  0
   44.9230   37.6870   43.3320 O   0  0  0  0  0  0  0  0  0  0  0  0
   45.7800   38.2040   43.5510 H   0  0  0  0  0  0  0  0  0  0  0  0
   47.7860   30.6280   49.2690 O   0  0  0  0  0  0  0  0  0  0  0  0
   48.9880   30.8600   49.5090 C   0  0  0  0  0  0  0  0  0  0  0  0
   49.9610   31.9690   49.6140 C   0  0  0  0  0  0  0  0  0  0  0  0
   49.4190   32.8700   49.4070 H   0  0  0  0  0  0  0  0  0  0  0  0
   51.2600   31.6900   49.9260 C   0  0  0  0  0  0  0  0  0  0  0  0
   51.6680   30.3350   50.1480 C   0  0  0  0  0  0  0  0  0  0  0  0
   50.1070   29.3800   49.9000 S   0  0  0  0  0  0  0  0  0  0  0  0
  1  6  1  6  0  0  0
  1  2  1  0  0  0  0
  1 28  1  0  0  0  0
  2  7  1  1  0  0  0
  3  9  1  0  0  0  0
  3  2  1  0  0  0  0
  4  3  1  0  0  0  0
  4  5  1  0  0  0  0
  5  1  1  0  0  0  0
  5 10  1  0  0  0  0
  8  3  1  0  0  0  0
 11  5  1  0  0  0  0
 12  2  1  0  0  0  0
 14 13  2  1  0  0  0
 14 12  1  0  0  0  0
 15 14  1  0  0  0  0
 16 15  1  0  0  0  0
 17 14  1  0  0  0  0
 18 23  1  0  0  0  0
 19 20  1  0  0  0  0
 19 18  2  0  0  0  0
 20 21  2  0  0  0  0
 21 22  1  0  0  0  0
 22 17  1  0  0  0  0
 23 22  2  0  0  0  0
 24 19  1  0  0  0  0
 25 20  1  0  0  0  0
 26 27  1  0  0  0  0
 26 18  1  0  0  0  0
 28 29  1  0  0  0  0
 29 30  2  0  0  0  0
 29 34  1  0  0  0  0
 30 32  1  0  0  0  0
 31 30  1  0  0  0  0
 32 33  2  0  0  0  0
 34 33  1  0  0  0  0
M  END
>  <minimizedAffinity>
-5.33585024

>  <minimizedRMSD>
1.14618444

$$$$
