
 OpenBabel03252504513D

 31 33  0  0  0  0  0  0  0  0999 V2000
   46.0900   34.7180   43.3740 C   0  0  0  0  0  0  0  0  0  0  0  0
   47.3180   34.5380   42.7180 C   0  0  0  0  0  0  0  0  0  0  0  0
   48.1310   33.5080   43.1770 C   0  0  0  0  0  0  0  0  0  0  0  0
   47.6870   32.7520   44.2210 N   0  0  0  0  0  0  0  0  0  0  0  0
   46.5170   32.9500   44.8210 C   0  0  0  0  0  0  0  0  0  0  0  0
   45.7030   33.9440   44.3960 N   0  0  0  0  0  0  0  0  0  0  0  0
   45.4310   35.5230   43.0310 H   0  0  0  0  0  0  0  0  0  0  0  0
   49.0740   33.3460   42.6970 H   0  0  0  0  0  0  0  0  0  0  0  0
   45.8670   30.0620   44.0770 Cl  0  0  0  0  0  0  0  0  0  0  0  0
   45.7830   30.7770   45.6890 C   0  0  0  0  0  0  0  0  0  0  0  0
   46.1000   32.1040   45.9330 C   0  0  0  0  0  0  0  0  0  0  0  0
   46.0250   32.6310   47.1990 C   0  0  0  0  0  0  0  0  0  0  0  0
   45.6250   31.8100   48.2490 C   0  0  0  0  0  0  0  0  0  0  0  0
   45.3190   30.4930   47.9670 C   0  0  0  0  0  0  0  0  0  0  0  0
   44.8220   29.5120   49.3270 Cl  0  0  0  0  0  0  0  0  0  0  0  0
   45.3830   29.9430   46.7150 C   0  0  0  0  0  0  0  0  0  0  0  0
   46.2850   33.6810   47.3290 H   0  0  0  0  0  0  0  0  0  0  0  0
   45.5700   32.2390   49.2480 H   0  0  0  0  0  0  0  0  0  0  0  0
   45.1300   28.8910   46.5430 H   0  0  0  0  0  0  0  0  0  0  0  0
   47.6510   35.4310   41.6170 C   0  0  0  0  0  0  0  0  0  0  0  0
   48.1410   36.3250   42.0510 H   0  0  0  0  0  0  0  0  0  0  0  0
   46.7380   35.7710   41.1230 H   0  0  0  0  0  0  0  0  0  0  0  0
   48.5880   34.7070   40.6870 C   0  0  0  0  0  0  0  0  0  0  0  0
   49.4430   35.4140   40.4790 H   0  0  0  0  0  0  0  0  0  0  0  0
   49.0910   33.8820   41.2720 H   0  0  0  0  0  0  0  0  0  0  0  0
   48.0270   34.2700   39.4460 C   0  0  0  0  0  0  0  0  0  0  0  0
   48.3820   34.4580   38.0630 C   0  0  0  0  0  0  0  0  0  0  0  0
   49.2600   35.0640   37.9470 H   0  0  0  0  0  0  0  0  0  0  0  0
   47.6080   33.8770   37.1180 C   0  0  0  0  0  0  0  0  0  0  0  0
   46.4580   33.0900   37.4680 C   0  0  0  0  0  0  0  0  0  0  0  0
   46.5070   33.2070   39.3510 S   0  0  0  0  0  0  0  0  0  0  0  0
  1  6  1  0  0  0  0
  2  3  1  0  0  0  0
  2  1  2  0  0  0  0
  3  4  2  0  0  0  0
  4  5  1  0  0  0  0
  5 11  1  0  0  0  0
  6  5  2  0  0  0  0
  7  1  1  0  0  0  0
  8  3  1  0  0  0  0
  9 10  1  0  0  0  0
 10 11  2  0  0  0  0
 10 16  1  0  0  0  0
 11 12  1  0  0  0  0
 12 17  1  0  0  0  0
 12 13  2  0  0  0  0
 13 18  1  0  0  0  0
 14 13  1  0  0  0  0
 14 15  1  0  0  0  0
 16 14  2  0  0  0  0
 19 16  1  0  0  0  0
 20 21  1  0  0  0  0
 20  2  1  0  0  0  0
 22 20  1  0  0  0  0
 23 25  1  0  0  0  0
 23 20  1  0  0  0  0
 24 23  1  0  0  0  0
 26 23  1  0  0  0  0
 27 26  2  0  0  0  0
 28 27  1  0  0  0  0
 29 30  2  0  0  0  0
 29 27  1  0  0  0  0
 30 31  1  0  0  0  0
 31 26  1  0  0  0  0
M  END
>  <minimizedAffinity>
-4.80227613

>  <minimizedRMSD>
1.51020992

$$$$
