
 OpenBabel03252509233D

 24 26  0  0  1  0  0  0  0  0999 V2000
   46.3030   34.8460   41.9010 C   0  0  1  0  0  0  0  0  0  0  0  0
   47.8260   35.0920   41.7400 C   0  0  0  0  0  0  0  0  0  0  0  0
   47.0540   33.8280   41.2560 C   0  0  2  0  0  0  0  0  0  0  0  0
   45.6820   35.6070   41.3940 H   0  0  0  0  0  0  0  0  0  0  0  0
   48.0710   35.8190   40.9490 H   0  0  0  0  0  0  0  0  0  0  0  0
   48.4790   35.0130   42.6030 H   0  0  0  0  0  0  0  0  0  0  0  0
   47.3500   32.9340   41.8540 H   0  0  0  0  0  0  0  0  0  0  0  0
   44.7350   35.2510   45.2830 C   0  0  0  0  0  0  0  0  0  0  0  0
   45.0570   35.5410   43.9160 C   0  0  0  0  0  0  0  0  0  0  0  0
   45.9530   34.6630   43.3650 C   0  0  0  0  0  0  0  0  0  0  0  0
   46.4840   33.6050   44.0840 N   0  0  0  0  0  0  0  0  0  0  0  0
   46.1420   33.3880   45.3600 C   0  0  0  0  0  0  0  0  0  0  0  0
   45.2560   34.2220   45.9660 N   0  0  0  0  0  0  0  0  0  0  0  0
   44.0400   35.8990   45.7680 H   0  0  0  0  0  0  0  0  0  0  0  0
   46.6680   32.5180   45.7240 H   0  0  0  0  0  0  0  0  0  0  0  0
   44.5120   36.6420   43.2090 N   0  0  0  0  0  0  0  0  0  0  0  0
   45.0270   37.4960   43.5530 H   0  0  0  0  0  0  0  0  0  0  0  0
   43.7550   36.6440   42.4870 H   0  0  0  0  0  0  0  0  0  0  0  0
   46.9150   33.6350   39.8180 C   0  0  0  0  0  0  0  0  0  0  0  0
   45.9460   33.1450   39.0160 C   0  0  0  0  0  0  0  0  0  0  0  0
   45.0500   32.8080   39.5130 H   0  0  0  0  0  0  0  0  0  0  0  0
   46.1410   33.1020   37.6560 C   0  0  0  0  0  3  0  0  0  0  0  0
   47.3790   33.5880   37.1820 C   0  0  0  0  0  3  0  0  0  0  0  0
   48.2510   34.1040   38.7050 S   0  0  0  0  0  0  0  0  0  0  0  0
  1  4  1  6  0  0  0
  1 10  1  0  0  0  0
  2  1  1  0  0  0  0
  2  6  1  0  0  0  0
  3  2  1  0  0  0  0
  3  7  1  1  0  0  0
  3  1  1  0  0  0  0
  5  2  1  0  0  0  0
  8 14  1  0  0  0  0
  8 13  1  0  0  0  0
  9  8  2  0  0  0  0
 10  9  1  0  0  0  0
 10 11  2  0  0  0  0
 11 12  1  0  0  0  0
 12 15  1  0  0  0  0
 12 13  2  0  0  0  0
 16 17  1  0  0  0  0
 16  9  1  0  0  0  0
 18 16  1  0  0  0  0
 19  3  1  0  0  0  0
 20 21  1  0  0  0  0
 20 19  2  0  0  0  0
 22 20  1  0  0  0  0
 23 22  2  0  0  0  0
 23 24  1  0  0  0  0
 24 19  1  0  0  0  0
M  END
>  <minimizedAffinity>
-4.67806625

>  <minimizedRMSD>
0.459733546

$$$$
