
 OpenBabel03252506423D

 37 40  0  0  1  0  0  0  0  0999 V2000
   49.4200   33.3430   41.4600 N   0  0  1  0  0  0  0  0  0  0  0  0
   50.7020   33.1420   42.1450 C   0  0  0  0  0  0  0  0  0  0  0  0
   51.3330   31.8330   41.7870 C   0  0  0  0  0  0  0  0  0  0  0  0
   50.5060   30.7420   42.4380 C   0  0  0  0  0  0  0  0  0  0  0  0
   49.0510   31.0620   42.3550 C   0  0  0  0  0  0  0  0  0  0  0  0
   48.7910   32.0660   41.2390 C   0  0  2  0  0  0  0  0  0  0  0  0
   50.5180   33.1180   43.2550 H   0  0  0  0  0  0  0  0  0  0  0  0
   51.3630   34.0180   41.9720 H   0  0  0  0  0  0  0  0  0  0  0  0
   51.5030   31.7010   40.7190 H   0  0  0  0  0  0  0  0  0  0  0  0
   52.3340   31.8280   42.2660 H   0  0  0  0  0  0  0  0  0  0  0  0
   50.7710   30.7190   43.5320 H   0  0  0  0  0  0  0  0  0  0  0  0
   50.7970   29.7680   42.0340 H   0  0  0  0  0  0  0  0  0  0  0  0
   48.6830   31.5570   43.2750 H   0  0  0  0  0  0  0  0  0  0  0  0
   48.4330   30.1710   42.0890 H   0  0  0  0  0  0  0  0  0  0  0  0
   47.6970   32.2620   41.3090 H   0  0  0  0  0  0  0  0  0  0  0  0
   47.2570   34.6360   41.9990 C   0  0  1  0  0  0  0  0  0  0  0  0
   48.3700   35.5660   41.7530 C   0  0  0  0  0  0  0  0  0  0  0  0
   48.6630   34.2170   42.2930 C   0  0  2  0  0  0  0  0  0  0  0  0
   46.8040   34.1790   41.0980 H   0  0  0  0  0  0  0  0  0  0  0  0
   48.4570   36.4500   42.4300 H   0  0  0  0  0  0  0  0  0  0  0  0
   48.6560   35.8290   40.6970 H   0  0  0  0  0  0  0  0  0  0  0  0
   48.9290   34.2050   43.3900 H   0  0  0  0  0  0  0  0  0  0  0  0
   45.5260   36.0400   43.1630 C   0  0  0  0  0  0  0  0  0  0  0  0
   46.3290   34.8840   43.1350 C   0  0  0  0  0  0  0  0  0  0  0  0
   46.2160   33.9760   44.2000 C   0  0  0  0  0  0  0  0  0  0  0  0
   45.3420   34.2620   45.2000 N   0  0  0  0  0  0  0  0  0  0  0  0
   44.5820   35.3890   45.1940 C   0  0  0  0  0  0  0  0  0  0  0  0
   44.6690   36.2900   44.1720 N   0  0  0  0  0  0  0  0  0  0  0  0
   45.6590   36.6970   42.3150 H   0  0  0  0  0  0  0  0  0  0  0  0
   46.8210   33.0740   44.2090 H   0  0  0  0  0  0  0  0  0  0  0  0
   43.8870   35.6180   45.9870 H   0  0  0  0  0  0  0  0  0  0  0  0
   49.0580   31.4850   39.9180 C   0  0  0  0  0  0  0  0  0  0  0  0
   49.5900   31.9790   38.8130 C   0  0  0  0  0  0  0  0  0  0  0  0
   49.9170   33.0090   38.8110 H   0  0  0  0  0  0  0  0  0  0  0  0
   49.7170   31.1860   37.7070 C   0  0  0  0  0  3  0  0  0  0  0  0
   49.2770   29.8810   37.7900 C   0  0  0  0  0  3  0  0  0  0  0  0
   48.6160   29.7030   39.5610 S   0  0  0  0  0  0  0  0  0  0  0  0
  1  2  1  1  0  0  0
  1 18  1  0  0  0  0
  2  7  1  0  0  0  0
  3  2  1  0  0  0  0
  3 10  1  0  0  0  0
  3  4  1  0  0  0  0
  4 11  1  0  0  0  0
  5  4  1  0  0  0  0
  5 13  1  0  0  0  0
  6 15  1  1  0  0  0
  6  1  1  0  0  0  0
  6  5  1  0  0  0  0
  8  2  1  0  0  0  0
  9  3  1  0  0  0  0
 12  4  1  0  0  0  0
 14  5  1  0  0  0  0
 16 19  1  6  0  0  0
 16 18  1  0  0  0  0
 16 24  1  0  0  0  0
 17 16  1  0  0  0  0
 17 18  1  0  0  0  0
 17 20  1  0  0  0  0
 18 22  1  1  0  0  0
 21 17  1  0  0  0  0
 23 28  1  0  0  0  0
 24 23  2  0  0  0  0
 24 25  1  0  0  0  0
 25 30  1  0  0  0  0
 25 26  2  0  0  0  0
 27 26  1  0  0  0  0
 27 31  1  0  0  0  0
 28 27  2  0  0  0  0
 29 23  1  0  0  0  0
 32  6  1  0  0  0  0
 33 32  2  0  0  0  0
 34 33  1  0  0  0  0
 35 36  2  0  0  0  0
 35 33  1  0  0  0  0
 36 37  1  0  0  0  0
 37 32  1  0  0  0  0
M  END
>  <minimizedAffinity>
-4.75743341

>  <minimizedRMSD>
0.576951146

$$$$
