
 OpenBabel03252508143D

 34 37  0  0  1  0  0  0  0  0999 V2000
   46.2090   30.9060   46.8140 C   0  0  0  0  0  0  0  0  0  0  0  0
   45.4140   30.1450   46.6230 H   0  0  0  0  0  0  0  0  0  0  0  0
   47.2330   30.4960   46.7430 H   0  0  0  0  0  0  0  0  0  0  0  0
   45.9700   31.5300   48.1680 C   0  0  1  0  0  0  0  0  0  0  0  0
   45.7050   30.5910   49.2900 C   0  0  0  0  0  0  0  0  0  0  0  0
   46.9620   31.3130   49.2490 C   0  0  1  0  0  0  0  0  0  0  0  0
   45.4940   32.5260   48.1790 H   0  0  0  0  0  0  0  0  0  0  0  0
   45.7420   29.4980   49.0640 H   0  0  0  0  0  0  0  0  0  0  0  0
   44.9190   30.8340   50.0460 H   0  0  0  0  0  0  0  0  0  0  0  0
   47.0570   32.1200   50.0430 H   0  0  0  0  0  0  0  0  0  0  0  0
   48.2760   30.7380   48.8800 C   0  0  0  0  0  0  0  0  0  0  0  0
   49.2170   30.4310   50.0700 C   0  0  0  0  0  0  0  0  0  0  0  0
   49.4970   31.6090   49.2250 C   0  0  0  0  0  0  0  0  0  0  0  0
   48.3780   30.0720   48.0000 H   0  0  0  0  0  0  0  0  0  0  0  0
   49.8690   29.5410   49.9680 H   0  0  0  0  0  0  0  0  0  0  0  0
   48.7720   30.5070   51.0800 H   0  0  0  0  0  0  0  0  0  0  0  0
   49.2910   32.5920   49.7170 H   0  0  0  0  0  0  0  0  0  0  0  0
   50.3320   31.5470   48.5100 H   0  0  0  0  0  0  0  0  0  0  0  0
   45.7440   33.1260   46.1220 C   0  0  0  0  0  3  0  0  0  0  0  0
   46.0390   31.9500   45.7260 C   0  0  0  0  0  3  0  0  0  0  0  0
   44.5880   36.1780   44.4250 C   0  0  0  0  0  0  0  0  0  0  0  0
   45.1710   36.0910   43.1690 C   0  0  0  0  0  0  0  0  0  0  0  0
   45.9530   35.0000   42.9450 C   0  0  0  0  0  0  0  0  0  0  0  0
   46.1290   34.0700   43.9190 N   0  0  0  0  0  0  0  0  0  0  0  0
   45.5540   34.1740   45.1270 C   0  0  0  0  0  0  0  0  0  0  0  0
   44.7910   35.2410   45.3450 N   0  0  0  0  0  0  0  0  0  0  0  0
   43.9710   37.0530   44.5820 H   0  0  0  0  0  0  0  0  0  0  0  0
   45.1030   36.7510   42.3390 H   0  0  0  0  0  0  0  0  0  0  0  0
   46.6770   34.6890   41.6910 C   0  0  0  0  0  0  0  0  0  0  0  0
   46.1610   33.9540   40.6130 C   0  0  0  0  0  0  0  0  0  0  0  0
   45.1580   33.5610   40.6540 H   0  0  0  0  0  0  0  0  0  0  0  0
   46.9800   33.7720   39.5420 C   0  0  0  0  0  3  0  0  0  0  0  0
   48.2710   34.2790   39.4910 C   0  0  0  0  0  3  0  0  0  0  0  0
   48.3380   35.1390   41.2070 S   0  0  0  0  0  0  0  0  0  0  0  0
  1  4  1  0  0  0  0
  2  1  1  0  0  0  0
  3  1  1  0  0  0  0
  4  7  1  1  0  0  0
  4  6  1  0  0  0  0
  4  5  1  0  0  0  0
  5  9  1  0  0  0  0
  6  5  1  0  0  0  0
  6 10  1  1  0  0  0
  8  5  1  0  0  0  0
 11 13  1  0  0  0  0
 11  6  1  0  0  0  0
 11 12  1  0  0  0  0
 12 16  1  0  0  0  0
 13 17  1  0  0  0  0
 13 12  1  0  0  0  0
 14 11  1  0  0  0  0
 15 12  1  0  0  0  0
 18 13  1  0  0  0  0
 20 19  2  0  0  0  0
 20  1  1  0  0  0  0
 21 27  1  0  0  0  0
 21 26  1  0  0  0  0
 22 21  2  0  0  0  0
 23 22  1  0  0  0  0
 23 24  2  0  0  0  0
 24 25  1  0  0  0  0
 25 26  2  0  0  0  0
 25 19  1  0  0  0  0
 28 22  1  0  0  0  0
 29 23  1  0  0  0  0
 30 31  1  0  0  0  0
 30 29  2  0  0  0  0
 32 30  1  0  0  0  0
 33 32  2  0  0  0  0
 33 34  1  0  0  0  0
 34 29  1  0  0  0  0
M  END
>  <minimizedAffinity>
-5.57860899

>  <minimizedRMSD>
0.63505125

$$$$
