
 OpenBabel03252506343D

 30 32  0  0  1  0  0  0  0  0999 V2000
   44.4690   35.7090   45.0160 C   0  0  0  0  0  0  0  0  0  0  0  0
   45.1190   35.6760   43.7730 C   0  0  0  0  0  0  0  0  0  0  0  0
   46.0400   34.6970   43.5170 C   0  0  0  0  0  0  0  0  0  0  0  0
   46.2620   33.8060   44.5140 N   0  0  0  0  0  0  0  0  0  0  0  0
   45.6450   33.8370   45.6900 C   0  0  0  0  0  0  0  0  0  0  0  0
   44.7360   34.7880   45.9690 N   0  0  0  0  0  0  0  0  0  0  0  0
   45.9750   32.8380   46.6400 N   0  0  0  0  0  0  0  0  0  0  0  0
   45.1750   32.5490   47.8370 C   0  0  0  0  0  0  0  0  0  0  0  0
   46.2450   32.2360   48.8610 C   0  0  0  0  0  0  0  0  0  0  0  0
   47.5400   32.0990   48.1070 C   0  0  0  0  0  0  0  0  0  0  0  0
   47.0740   31.9190   46.6880 C   0  0  1  0  0  0  0  0  0  0  0  0
   43.7360   36.4700   45.2480 H   0  0  0  0  0  0  0  0  0  0  0  0
   46.5390   34.6750   42.5600 H   0  0  0  0  0  0  0  0  0  0  0  0
   44.6110   33.4850   48.1110 H   0  0  0  0  0  0  0  0  0  0  0  0
   44.4780   31.7070   47.6620 H   0  0  0  0  0  0  0  0  0  0  0  0
   46.2840   32.9920   49.6750 H   0  0  0  0  0  0  0  0  0  0  0  0
   45.9880   31.2470   49.3070 H   0  0  0  0  0  0  0  0  0  0  0  0
   48.0820   33.0660   48.1680 H   0  0  0  0  0  0  0  0  0  0  0  0
   48.1550   31.2430   48.4550 H   0  0  0  0  0  0  0  0  0  0  0  0
   47.8790   32.2040   45.9540 H   0  0  0  0  0  0  0  0  0  0  0  0
   44.7620   36.7010   42.8270 N   0  0  0  0  0  0  0  0  0  0  0  0
   44.5100   37.6490   43.1330 H   0  0  0  0  0  0  0  0  0  0  0  0
   44.7550   36.4830   41.7860 H   0  0  0  0  0  0  0  0  0  0  0  0
   46.5520   30.1990   46.4330 S   0  0  0  0  0  0  0  0  0  0  0  0
   45.7020   29.8950   45.0000 C   0  0  0  0  0  0  0  0  0  0  0  0
   44.4640   29.3430   44.5890 C   0  0  0  0  0  0  0  0  0  0  0  0
   43.9160   29.0280   45.4520 H   0  0  0  0  0  0  0  0  0  0  0  0
   44.1080   29.2630   43.2760 C   0  0  0  0  0  3  0  0  0  0  0  0
   45.0920   29.7920   42.2810 C   0  0  0  0  0  3  0  0  0  0  0  0
   46.5080   30.3820   43.3710 S   0  0  0  0  0  0  0  0  0  0  0  0
  1 12  1  0  0  0  0
  1  6  1  0  0  0  0
  2  1  2  0  0  0  0
  3  2  1  0  0  0  0
  3  4  2  0  0  0  0
  4  5  1  0  0  0  0
  5  6  2  0  0  0  0
  5  7  1  0  0  0  0
  7 11  1  0  0  0  0
  7  8  1  0  0  0  0
  8 14  1  0  0  0  0
  8  9  1  0  0  0  0
  9 17  1  0  0  0  0
  9 16  1  0  0  0  0
 10 18  1  0  0  0  0
 10 19  1  0  0  0  0
 10  9  1  0  0  0  0
 11 20  1  6  0  0  0
 11 10  1  0  0  0  0
 13  3  1  0  0  0  0
 15  8  1  0  0  0  0
 21 22  1  0  0  0  0
 21  2  1  0  0  0  0
 23 21  1  0  0  0  0
 24 11  1  0  0  0  0
 25 24  1  0  0  0  0
 26 25  2  0  0  0  0
 26 27  1  0  0  0  0
 28 26  1  0  0  0  0
 29 28  2  0  0  0  0
 29 30  1  0  0  0  0
 30 25  1  0  0  0  0
M  END
>  <minimizedAffinity>
-4.83645868

>  <minimizedRMSD>
0.353745371

$$$$
