
 OpenBabel03242522233D

 25 27  0  0  0  0  0  0  0  0999 V2000
   44.4790   35.8860   44.9050 C   0  0  0  0  0  0  0  0  0  0  0  0
   45.1330   35.7810   43.6710 C   0  0  0  0  0  0  0  0  0  0  0  0
   46.0130   34.7530   43.3940 C   0  0  0  0  0  0  0  0  0  0  0  0
   46.2160   33.8390   44.3930 N   0  0  0  0  0  0  0  0  0  0  0  0
   45.5790   33.9570   45.5710 C   0  0  0  0  0  0  0  0  0  0  0  0
   44.7330   34.9480   45.8320 N   0  0  0  0  0  0  0  0  0  0  0  0
   43.7980   36.6990   45.0930 H   0  0  0  0  0  0  0  0  0  0  0  0
   44.9680   36.5140   42.8800 H   0  0  0  0  0  0  0  0  0  0  0  0
   44.5170   33.1330   41.4520 Cl  0  0  0  0  0  0  0  0  0  0  0  0
   46.0690   33.8900   41.1220 C   0  0  0  0  0  0  0  0  0  0  0  0
   46.6980   34.6400   42.1060 C   0  0  0  0  0  0  0  0  0  0  0  0
   47.9090   35.2150   41.8060 C   0  0  0  0  0  0  0  0  0  0  0  0
   48.5010   35.0610   40.5670 C   0  0  0  0  0  0  0  0  0  0  0  0
   47.8270   34.2980   39.6130 C   0  0  0  0  0  0  0  0  0  0  0  0
   48.5400   34.0690   38.0350 Cl  0  0  0  0  0  0  0  0  0  0  0  0
   46.6110   33.7030   39.8660 C   0  0  0  0  0  0  0  0  0  0  0  0
   48.3840   35.7950   42.5860 H   0  0  0  0  0  0  0  0  0  0  0  0
   49.4520   35.5130   40.3320 H   0  0  0  0  0  0  0  0  0  0  0  0
   46.0800   33.1080   39.1300 H   0  0  0  0  0  0  0  0  0  0  0  0
   45.8740   32.8970   46.5960 C   0  0  0  0  0  0  0  0  0  0  0  0
   45.2220   32.8080   47.8130 C   0  0  0  0  0  0  0  0  0  0  0  0
   44.4490   33.5070   48.1030 H   0  0  0  0  0  0  0  0  0  0  0  0
   45.5530   31.8240   48.6700 C   0  0  0  0  0  0  0  0  0  0  0  0
   46.5520   30.8870   48.3420 C   0  0  0  0  0  0  0  0  0  0  0  0
   47.0640   31.4870   46.6270 S   0  0  0  0  0  0  0  0  0  0  0  0
  1  7  1  0  0  0  0
  1  6  1  0  0  0  0
  2  1  2  0  0  0  0
  3  2  1  0  0  0  0
  3  4  2  0  0  0  0
  4  5  1  0  0  0  0
  5  6  2  0  0  0  0
  5 20  1  0  0  0  0
  8  2  1  0  0  0  0
 10  9  1  0  0  0  0
 10 11  1  0  0  0  0
 11  3  1  0  0  0  0
 12 11  2  0  0  0  0
 12 17  1  0  0  0  0
 13 12  1  0  0  0  0
 14 16  1  0  0  0  0
 14 13  2  0  0  0  0
 15 14  1  0  0  0  0
 16 10  2  0  0  0  0
 18 13  1  0  0  0  0
 19 16  1  0  0  0  0
 20 25  1  0  0  0  0
 20 21  2  0  0  0  0
 21 22  1  0  0  0  0
 21 23  1  0  0  0  0
 24 23  2  0  0  0  0
 25 24  1  0  0  0  0
M  END
>  <minimizedAffinity>
-6.39885664

>  <minimizedRMSD>
0.315927804

$$$$
