
 OpenBabel03242517233D

 40 43  0  0  1  0  0  0  0  0999 V2000
   44.5440   35.4490   45.6670 C   0  0  0  0  0  0  0  0  0  0  0  0
   44.4080   35.9820   44.3640 C   0  0  0  0  0  0  0  0  0  0  0  0
   44.9210   35.2510   43.2740 C   0  0  0  0  0  0  0  0  0  0  0  0
   45.5220   34.0670   43.5490 N   0  0  0  0  0  0  0  0  0  0  0  0
   45.6390   33.5790   44.8150 C   0  0  0  0  0  0  0  0  0  0  0  0
   45.1470   34.2760   45.8760 N   0  0  0  0  0  0  0  0  0  0  0  0
   46.2920   32.3180   44.9860 N   0  0  0  0  0  0  0  0  0  0  0  0
   46.1270   31.7080   46.3050 C   0  0  0  0  0  0  0  0  0  0  0  0
   47.0900   30.6340   46.6150 C   0  0  0  0  0  0  0  0  0  0  0  0
   47.4550   29.8620   45.3910 C   0  0  0  0  0  0  0  0  0  0  0  0
   48.1000   30.8220   44.4470 C   0  0  0  0  0  0  0  0  0  0  0  0
   47.0470   31.7260   43.9100 C   0  0  2  0  0  0  0  0  0  0  0  0
   44.1650   35.9750   46.5340 H   0  0  0  0  0  0  0  0  0  0  0  0
   43.9120   36.9380   44.2250 H   0  0  0  0  0  0  0  0  0  0  0  0
   44.8240   35.6430   42.2830 H   0  0  0  0  0  0  0  0  0  0  0  0
   45.1050   31.2310   46.2540 H   0  0  0  0  0  0  0  0  0  0  0  0
   46.0360   32.4800   47.0980 H   0  0  0  0  0  0  0  0  0  0  0  0
   48.0000   31.0160   47.1190 H   0  0  0  0  0  0  0  0  0  0  0  0
   46.6090   29.9240   47.3370 H   0  0  0  0  0  0  0  0  0  0  0  0
   46.5860   29.3240   44.9780 H   0  0  0  0  0  0  0  0  0  0  0  0
   48.2360   29.1090   45.6740 H   0  0  0  0  0  0  0  0  0  0  0  0
   48.8420   31.4110   44.9980 H   0  0  0  0  0  0  0  0  0  0  0  0
   48.5950   30.2660   43.6050 H   0  0  0  0  0  0  0  0  0  0  0  0
   46.3220   31.1180   43.3240 H   0  0  0  0  0  0  0  0  0  0  0  0
   46.4950   31.7240   41.1110 F   0  0  0  0  0  0  0  0  0  0  0  0
   47.3130   32.6980   41.5770 C   0  0  0  0  0  0  0  0  0  0  0  0
   47.5880   32.7150   42.9340 C   0  0  0  0  0  0  0  0  0  0  0  0
   48.4320   33.7390   43.3580 C   0  0  0  0  0  0  0  0  0  0  0  0
   48.9700   34.6820   42.5140 C   0  0  0  0  0  0  0  0  0  0  0  0
   48.6730   34.6310   41.1790 C   0  0  0  0  0  0  0  0  0  0  0  0
   47.8390   33.6280   40.7220 C   0  0  0  0  0  0  0  0  0  0  0  0
   48.6720   33.7880   44.4120 H   0  0  0  0  0  0  0  0  0  0  0  0
   49.6180   35.4450   42.9270 H   0  0  0  0  0  0  0  0  0  0  0  0
   49.1020   35.3760   40.5310 H   0  0  0  0  0  0  0  0  0  0  0  0
   47.5810   33.6540   39.2930 C   0  0  0  0  0  0  0  0  0  0  0  0
   48.3130   34.3080   38.3990 C   0  0  0  0  0  0  0  0  0  0  0  0
   49.1910   34.9350   38.4080 H   0  0  0  0  0  0  0  0  0  0  0  0
   48.0850   34.3410   37.0640 C   0  0  0  0  0  0  0  0  0  0  0  0
   46.8680   33.5210   36.7210 C   0  0  0  0  0  0  0  0  0  0  0  0
   46.3080   32.8740   38.4010 S   0  0  0  0  0  0  0  0  0  0  0  0
  1  6  1  0  0  0  0
  1 13  1  0  0  0  0
  2  1  2  0  0  0  0
  3  4  2  0  0  0  0
  3  2  1  0  0  0  0
  4  5  1  0  0  0  0
  5  7  1  0  0  0  0
  5  6  2  0  0  0  0
  7  8  1  0  0  0  0
  8  9  1  0  0  0  0
  8 17  1  0  0  0  0
  9 18  1  0  0  0  0
  9 19  1  0  0  0  0
 10 21  1  0  0  0  0
 10  9  1  0  0  0  0
 11 22  1  0  0  0  0
 11 10  1  0  0  0  0
 12 24  1  6  0  0  0
 12 11  1  0  0  0  0
 12  7  1  0  0  0  0
 14  2  1  0  0  0  0
 15  3  1  0  0  0  0
 16  8  1  0  0  0  0
 20 10  1  0  0  0  0
 23 11  1  0  0  0  0
 25 26  1  0  0  0  0
 26 27  1  0  0  0  0
 27 28  2  0  0  0  0
 27 12  1  0  0  0  0
 28 32  1  0  0  0  0
 29 33  1  0  0  0  0
 29 28  1  0  0  0  0
 30 29  2  0  0  0  0
 31 30  1  0  0  0  0
 31 26  2  0  0  0  0
 34 30  1  0  0  0  0
 35 31  1  0  0  0  0
 36 37  1  0  0  0  0
 36 35  2  0  0  0  0
 38 36  1  0  0  0  0
 39 38  2  0  0  0  0
 39 40  1  0  0  0  0
 40 35  1  0  0  0  0
M  END
>  <minimizedAffinity>
-5.96004009

>  <minimizedRMSD>
1.24380255

$$$$
