
 OpenBabel03242518293D

 18 19  0  0  0  0  0  0  0  0999 V2000
   38.1600   26.6720   42.9620 C   0  0  0  0  0  0  0  0  0  0  0  0
   39.3800   26.7050   43.6340 C   0  0  0  0  0  0  0  0  0  0  0  0
   40.1360   25.5160   43.6360 C   0  0  0  0  0  0  0  0  0  0  0  0
   39.6350   24.4230   42.9920 N   0  0  0  0  0  0  0  0  0  0  0  0
   38.4300   24.4630   42.3540 C   0  0  0  0  0  0  0  0  0  0  0  0
   37.7060   25.5910   42.3480 N   0  0  0  0  0  0  0  0  0  0  0  0
   39.8160   27.5390   44.1550 H   0  0  0  0  0  0  0  0  0  0  0  0
   41.0910   25.4940   44.1460 H   0  0  0  0  0  0  0  0  0  0  0  0
   38.0110   23.6180   41.8390 H   0  0  0  0  0  0  0  0  0  0  0  0
   37.4640   27.9300   43.0150 C   0  0  0  0  0  0  0  0  0  0  0  0
   37.8010   28.9530   43.6720 O   0  0  0  0  0  0  0  0  0  0  0  0
   36.3050   28.0040   42.2580 O   0  0  0  0  0  0  0  0  0  0  0  0
   36.3000   28.6120   41.0210 C   0  0  0  0  0  0  0  0  0  0  0  0
   36.3770   28.0550   39.8020 C   0  0  0  0  0  0  0  0  0  0  0  0
   36.4560   26.9660   39.6940 H   0  0  0  0  0  0  0  0  0  0  0  0
   36.3560   28.8530   38.6880 C   0  0  0  0  0  3  0  0  0  0  0  0
   36.2550   30.2190   38.9050 C   0  0  0  0  0  3  0  0  0  0  0  0
   36.1840   30.4070   40.7850 S   0  0  0  0  0  0  0  0  0  0  0  0
  1 10  1  0  0  0  0
  1  2  1  0  0  0  0
  2  3  2  0  0  0  0
  2  7  1  0  0  0  0
  3  8  1  0  0  0  0
  4  3  1  0  0  0  0
  5  4  2  0  0  0  0
  6  5  1  0  0  0  0
  6  1  2  0  0  0  0
  9  5  1  0  0  0  0
 10 11  2  0  0  0  0
 12 10  1  0  0  0  0
 13 12  1  0  0  0  0
 14 13  2  0  0  0  0
 15 14  1  0  0  0  0
 16 17  2  0  0  0  0
 16 14  1  0  0  0  0
 17 18  1  0  0  0  0
 18 13  1  0  0  0  0
M  END
>  <minimizedAffinity>
-4.02433825

$$$$

 OpenBabel03242518293D

 18 19  0  0  0  0  0  0  0  0999 V2000
   36.3130   30.3760   39.7580 C   0  0  0  0  0  0  0  0  0  0  0  0
   36.7570   30.4110   38.4380 C   0  0  0  0  0  0  0  0  0  0  0  0
   37.5420   31.5190   38.0610 C   0  0  0  0  0  0  0  0  0  0  0  0
   37.8140   32.4740   38.9950 N   0  0  0  0  0  0  0  0  0  0  0  0
   37.3430   32.3750   40.2720 C   0  0  0  0  0  0  0  0  0  0  0  0
   36.5970   31.3230   40.6370 N   0  0  0  0  0  0  0  0  0  0  0  0
   36.5710   29.6840   37.6670 H   0  0  0  0  0  0  0  0  0  0  0  0
   37.9100   31.5890   37.0440 H   0  0  0  0  0  0  0  0  0  0  0  0
   37.5410   33.1120   41.0280 H   0  0  0  0  0  0  0  0  0  0  0  0
   35.5220   29.2090   40.0450 C   0  0  0  0  0  0  0  0  0  0  0  0
   34.2650   29.1460   40.1120 O   0  0  0  0  0  0  0  0  0  0  0  0
   36.2390   28.0430   40.2690 O   0  0  0  0  0  0  0  0  0  0  0  0
   36.9910   27.8780   41.4120 C   0  0  0  0  0  0  0  0  0  0  0  0
   36.5820   27.7250   42.6810 C   0  0  0  0  0  0  0  0  0  0  0  0
   35.5130   27.7190   42.9220 H   0  0  0  0  0  0  0  0  0  0  0  0
   37.5090   27.5750   43.6800 C   0  0  0  0  0  3  0  0  0  0  0  0
   38.8420   27.5940   43.2970 C   0  0  0  0  0  3  0  0  0  0  0  0
   38.8050   27.8360   41.4220 S   0  0  0  0  0  0  0  0  0  0  0  0
  1 10  1  0  0  0  0
  1  6  1  0  0  0  0
  2  1  2  0  0  0  0
  3  2  1  0  0  0  0
  3  4  2  0  0  0  0
  4  5  1  0  0  0  0
  5  6  2  0  0  0  0
  5  9  1  0  0  0  0
  7  2  1  0  0  0  0
  8  3  1  0  0  0  0
 10 11  2  0  0  0  0
 10 12  1  0  0  0  0
 12 13  1  0  0  0  0
 13 18  1  0  0  0  0
 13 14  2  0  0  0  0
 14 15  1  0  0  0  0
 14 16  1  0  0  0  0
 17 16  2  0  0  0  0
 18 17  1  0  0  0  0
M  END
>  <minimizedAffinity>
-4.00261164

$$$$

 OpenBabel03242518293D

 18 19  0  0  0  0  0  0  0  0999 V2000
   38.0980   31.7930   40.2260 C   0  0  0  0  0  0  0  0  0  0  0  0
   37.4060   32.9490   39.8720 C   0  0  0  0  0  0  0  0  0  0  0  0
   38.1250   34.1600   39.9210 C   0  0  0  0  0  0  0  0  0  0  0  0
   39.4320   34.1270   40.3070 N   0  0  0  0  0  0  0  0  0  0  0  0
   40.0460   32.9560   40.6410 C   0  0  0  0  0  0  0  0  0  0  0  0
   39.3680   31.8000   40.5960 N   0  0  0  0  0  0  0  0  0  0  0  0
   36.3780   33.0250   39.5610 H   0  0  0  0  0  0  0  0  0  0  0  0
   37.6270   35.0840   39.6540 H   0  0  0  0  0  0  0  0  0  0  0  0
   41.0750   32.9000   40.9490 H   0  0  0  0  0  0  0  0  0  0  0  0
   37.2810   30.6110   40.1430 C   0  0  0  0  0  0  0  0  0  0  0  0
   37.0950   29.8910   39.1250 O   0  0  0  0  0  0  0  0  0  0  0  0
   36.6410   30.2450   41.3180 O   0  0  0  0  0  0  0  0  0  0  0  0
   37.0580   29.1490   42.0430 C   0  0  0  0  0  0  0  0  0  0  0  0
   36.4620   27.9560   42.1930 C   0  0  0  0  0  0  0  0  0  0  0  0
   35.5060   27.7470   41.6990 H   0  0  0  0  0  0  0  0  0  0  0  0
   37.0540   26.9940   42.9700 C   0  0  0  0  0  3  0  0  0  0  0  0
   38.2620   27.3320   43.5620 C   0  0  0  0  0  3  0  0  0  0  0  0
   38.5970   29.1060   43.0030 S   0  0  0  0  0  0  0  0  0  0  0  0
  1  6  1  0  0  0  0
  2  3  1  0  0  0  0
  2  1  2  0  0  0  0
  3  4  2  0  0  0  0
  4  5  1  0  0  0  0
  5  9  1  0  0  0  0
  6  5  2  0  0  0  0
  7  2  1  0  0  0  0
  8  3  1  0  0  0  0
 10  1  1  0  0  0  0
 10 12  1  0  0  0  0
 11 10  2  0  0  0  0
 12 13  1  0  0  0  0
 13 14  2  0  0  0  0
 13 18  1  0  0  0  0
 14 16  1  0  0  0  0
 15 14  1  0  0  0  0
 16 17  2  0  0  0  0
 18 17  1  0  0  0  0
M  END
>  <minimizedAffinity>
-3.98776078

$$$$

 OpenBabel03242518293D

 18 19  0  0  0  0  0  0  0  0999 V2000
   37.5980   31.3430   40.8930 C   0  0  0  0  0  0  0  0  0  0  0  0
   37.0110   32.3370   40.1120 C   0  0  0  0  0  0  0  0  0  0  0  0
   37.8290   33.4260   39.7510 C   0  0  0  0  0  0  0  0  0  0  0  0
   39.1230   33.4420   40.1820 N   0  0  0  0  0  0  0  0  0  0  0  0
   39.6300   32.4330   40.9470 C   0  0  0  0  0  0  0  0  0  0  0  0
   38.8580   31.3930   41.2930 N   0  0  0  0  0  0  0  0  0  0  0  0
   35.9990   32.3690   39.7490 H   0  0  0  0  0  0  0  0  0  0  0  0
   37.4160   34.2230   39.1450 H   0  0  0  0  0  0  0  0  0  0  0  0
   40.6450   32.4190   41.3000 H   0  0  0  0  0  0  0  0  0  0  0  0
   36.6860   30.2760   41.2080 C   0  0  0  0  0  0  0  0  0  0  0  0
   35.5810   30.0360   40.6490 O   0  0  0  0  0  0  0  0  0  0  0  0
   37.0840   29.4350   42.2370 O   0  0  0  0  0  0  0  0  0  0  0  0
   37.2820   28.0890   42.0200 C   0  0  0  0  0  0  0  0  0  0  0  0
   36.8540   27.0410   42.7410 C   0  0  0  0  0  0  0  0  0  0  0  0
   36.2540   27.1990   43.6450 H   0  0  0  0  0  0  0  0  0  0  0  0
   37.1690   25.7680   42.3430 C   0  0  0  0  0  3  0  0  0  0  0  0
   37.9310   25.6490   41.1890 C   0  0  0  0  0  3  0  0  0  0  0  0
   38.2290   27.4270   40.6200 S   0  0  0  0  0  0  0  0  0  0  0  0
  1 10  1  0  0  0  0
  1  6  1  0  0  0  0
  2  1  2  0  0  0  0
  3  2  1  0  0  0  0
  3  4  2  0  0  0  0
  4  5  1  0  0  0  0
  5  6  2  0  0  0  0
  5  9  1  0  0  0  0
  7  2  1  0  0  0  0
  8  3  1  0  0  0  0
 10 12  1  0  0  0  0
 11 10  2  0  0  0  0
 13 12  1  0  0  0  0
 13 14  2  0  0  0  0
 14 15  1  0  0  0  0
 16 14  1  0  0  0  0
 17 16  2  0  0  0  0
 18 17  1  0  0  0  0
 18 13  1  0  0  0  0
M  END
>  <minimizedAffinity>
-3.94845343

$$$$

 OpenBabel03242518293D

 18 19  0  0  0  0  0  0  0  0999 V2000
   36.6720   28.5080   41.7420 C   0  0  0  0  0  0  0  0  0  0  0  0
   36.8290   27.2710   41.1190 C   0  0  0  0  0  0  0  0  0  0  0  0
   37.6750   26.3420   41.7560 C   0  0  0  0  0  0  0  0  0  0  0  0
   38.2810   26.7040   42.9230 N   0  0  0  0  0  0  0  0  0  0  0  0
   38.0810   27.9360   43.4760 C   0  0  0  0  0  0  0  0  0  0  0  0
   37.2770   28.8240   42.8750 N   0  0  0  0  0  0  0  0  0  0  0  0
   36.3740   26.9400   40.2020 H   0  0  0  0  0  0  0  0  0  0  0  0
   37.8270   25.3680   41.3080 H   0  0  0  0  0  0  0  0  0  0  0  0
   38.5450   28.2480   44.3940 H   0  0  0  0  0  0  0  0  0  0  0  0
   35.7910   29.3850   41.0180 C   0  0  0  0  0  0  0  0  0  0  0  0
   34.7760   29.0510   40.3470 O   0  0  0  0  0  0  0  0  0  0  0  0
   36.1100   30.7330   41.0760 O   0  0  0  0  0  0  0  0  0  0  0  0
   37.0420   31.2810   40.2220 C   0  0  0  0  0  0  0  0  0  0  0  0
   36.9920   31.4200   38.8880 C   0  0  0  0  0  0  0  0  0  0  0  0
   36.1160   31.0720   38.3270 H   0  0  0  0  0  0  0  0  0  0  0  0
   38.0420   31.9990   38.2250 C   0  0  0  0  0  3  0  0  0  0  0  0
   39.1140   32.4140   39.0020 C   0  0  0  0  0  3  0  0  0  0  0  0
   38.6290   31.9670   40.7740 S   0  0  0  0  0  0  0  0  0  0  0  0
  1  6  1  0  0  0  0
  2  1  2  0  0  0  0
  2  3  1  0  0  0  0
  3  4  2  0  0  0  0
  4  5  1  0  0  0  0
  5  9  1  0  0  0  0
  6  5  2  0  0  0  0
  7  2  1  0  0  0  0
  8  3  1  0  0  0  0
 10 12  1  0  0  0  0
 10  1  1  0  0  0  0
 11 10  2  0  0  0  0
 13 18  1  0  0  0  0
 13 12  1  0  0  0  0
 14 13  2  0  0  0  0
 15 14  1  0  0  0  0
 16 14  1  0  0  0  0
 16 17  2  0  0  0  0
 17 18  1  0  0  0  0
M  END
>  <minimizedAffinity>
-3.93763232

$$$$

 OpenBabel03242518293D

 18 19  0  0  0  0  0  0  0  0999 V2000
   36.5820   30.3110   39.4340 C   0  0  0  0  0  0  0  0  0  0  0  0
   36.9210   31.6510   39.6100 C   0  0  0  0  0  0  0  0  0  0  0  0
   37.4880   32.3120   38.5020 C   0  0  0  0  0  0  0  0  0  0  0  0
   37.6690   31.6120   37.3460 N   0  0  0  0  0  0  0  0  0  0  0  0
   37.3130   30.2990   37.2470 C   0  0  0  0  0  0  0  0  0  0  0  0
   36.7730   29.6640   38.2960 N   0  0  0  0  0  0  0  0  0  0  0  0
   36.7980   32.2440   40.4980 H   0  0  0  0  0  0  0  0  0  0  0  0
   37.7680   33.3550   38.5920 H   0  0  0  0  0  0  0  0  0  0  0  0
   37.4440   29.7230   36.3490 H   0  0  0  0  0  0  0  0  0  0  0  0
   36.0100   29.7250   40.6170 C   0  0  0  0  0  0  0  0  0  0  0  0
   34.9960   28.9760   40.6760 O   0  0  0  0  0  0  0  0  0  0  0  0
   36.6570   30.0280   41.8060 O   0  0  0  0  0  0  0  0  0  0  0  0
   37.5330   29.1370   42.3870 C   0  0  0  0  0  0  0  0  0  0  0  0
   38.8750   29.1570   42.4070 C   0  0  0  0  0  0  0  0  0  0  0  0
   39.4240   29.9670   41.9120 H   0  0  0  0  0  0  0  0  0  0  0  0
   39.5600   28.1590   43.0490 C   0  0  0  0  0  3  0  0  0  0  0  0
   38.7960   27.1690   43.6500 C   0  0  0  0  0  3  0  0  0  0  0  0
   37.0040   27.6590   43.2990 S   0  0  0  0  0  0  0  0  0  0  0  0
  1  2  1  0  0  0  0
  1 10  1  0  0  0  0
  2  7  1  0  0  0  0
  3  8  1  0  0  0  0
  3  2  2  0  0  0  0
  4  3  1  0  0  0  0
  5  4  2  0  0  0  0
  5  6  1  0  0  0  0
  6  1  2  0  0  0  0
  9  5  1  0  0  0  0
 10 11  2  0  0  0  0
 10 12  1  0  0  0  0
 12 13  1  0  0  0  0
 13 14  2  0  0  0  0
 13 18  1  0  0  0  0
 14 16  1  0  0  0  0
 15 14  1  0  0  0  0
 16 17  2  0  0  0  0
 18 17  1  0  0  0  0
M  END
>  <minimizedAffinity>
-3.92234397

$$$$

 OpenBabel03242518293D

 18 19  0  0  0  0  0  0  0  0999 V2000
   37.0830   29.1430   41.9140 C   0  0  0  0  0  0  0  0  0  0  0  0
   36.5940   27.8890   42.2720 C   0  0  0  0  0  0  0  0  0  0  0  0
   37.4540   27.0630   43.0240 C   0  0  0  0  0  0  0  0  0  0  0  0
   38.6910   27.5340   43.3490 N   0  0  0  0  0  0  0  0  0  0  0  0
   39.1050   28.7760   42.9630 C   0  0  0  0  0  0  0  0  0  0  0  0
   38.2920   29.5660   42.2470 N   0  0  0  0  0  0  0  0  0  0  0  0
   35.6290   27.4740   42.0400 H   0  0  0  0  0  0  0  0  0  0  0  0
   37.1160   26.0790   43.3250 H   0  0  0  0  0  0  0  0  0  0  0  0
   40.0740   29.1720   43.2040 H   0  0  0  0  0  0  0  0  0  0  0  0
   36.1350   29.9100   41.1500 C   0  0  0  0  0  0  0  0  0  0  0  0
   36.1420   31.1590   40.9720 O   0  0  0  0  0  0  0  0  0  0  0  0
   35.1160   29.1800   40.5580 O   0  0  0  0  0  0  0  0  0  0  0  0
   35.0090   29.0890   39.1870 C   0  0  0  0  0  0  0  0  0  0  0  0
   33.9170   28.8930   38.4320 C   0  0  0  0  0  0  0  0  0  0  0  0
   32.9320   28.7790   38.9010 H   0  0  0  0  0  0  0  0  0  0  0  0
   34.0360   28.8330   37.0680 C   0  0  0  0  0  3  0  0  0  0  0  0
   35.3130   28.9840   36.5490 C   0  0  0  0  0  3  0  0  0  0  0  0
   36.4250   29.2250   38.0590 S   0  0  0  0  0  0  0  0  0  0  0  0
  1  6  2  0  0  0  0
  1  2  1  0  0  0  0
  2  3  2  0  0  0  0
  3  8  1  0  0  0  0
  3  4  1  0  0  0  0
  5  9  1  0  0  0  0
  5  4  2  0  0  0  0
  6  5  1  0  0  0  0
  7  2  1  0  0  0  0
 10  1  1  0  0  0  0
 11 10  2  0  0  0  0
 12 10  1  0  0  0  0
 13 12  1  0  0  0  0
 14 15  1  0  0  0  0
 14 13  2  0  0  0  0
 16 14  1  0  0  0  0
 17 16  2  0  0  0  0
 17 18  1  0  0  0  0
 18 13  1  0  0  0  0
M  END
>  <minimizedAffinity>
-3.88925862

$$$$

 OpenBabel03242518293D

 18 19  0  0  0  0  0  0  0  0999 V2000
   37.7290   26.6370   41.9830 C   0  0  0  0  0  0  0  0  0  0  0  0
   37.3490   25.3300   41.6850 C   0  0  0  0  0  0  0  0  0  0  0  0
   38.1450   24.3000   42.2250 C   0  0  0  0  0  0  0  0  0  0  0  0
   39.2190   24.6390   42.9940 N   0  0  0  0  0  0  0  0  0  0  0  0
   39.5320   25.9430   43.2430 C   0  0  0  0  0  0  0  0  0  0  0  0
   38.7790   26.9280   42.7320 N   0  0  0  0  0  0  0  0  0  0  0  0
   36.5140   25.0130   41.0860 H   0  0  0  0  0  0  0  0  0  0  0  0
   37.8880   23.2680   42.0200 H   0  0  0  0  0  0  0  0  0  0  0  0
   40.3720   26.2400   43.8440 H   0  0  0  0  0  0  0  0  0  0  0  0
   36.8580   27.6160   41.3880 C   0  0  0  0  0  0  0  0  0  0  0  0
   36.2080   27.4960   40.3140 O   0  0  0  0  0  0  0  0  0  0  0  0
   36.7350   28.8080   42.0850 O   0  0  0  0  0  0  0  0  0  0  0  0
   37.1900   29.9950   41.5520 C   0  0  0  0  0  0  0  0  0  0  0  0
   36.5100   30.9400   40.8850 C   0  0  0  0  0  0  0  0  0  0  0  0
   35.4350   30.8240   40.6990 H   0  0  0  0  0  0  0  0  0  0  0  0
   37.1640   32.0570   40.4340 C   0  0  0  0  0  3  0  0  0  0  0  0
   38.5220   32.1330   40.7060 C   0  0  0  0  0  3  0  0  0  0  0  0
   38.9160   30.5440   41.6530 S   0  0  0  0  0  0  0  0  0  0  0  0
  1  6  1  0  0  0  0
  2  1  2  0  0  0  0
  2  3  1  0  0  0  0
  3  4  2  0  0  0  0
  4  5  1  0  0  0  0
  5  9  1  0  0  0  0
  6  5  2  0  0  0  0
  7  2  1  0  0  0  0
  8  3  1  0  0  0  0
 10  1  1  0  0  0  0
 10 12  1  0  0  0  0
 11 10  2  0  0  0  0
 13 18  1  0  0  0  0
 13 12  1  0  0  0  0
 14 13  2  0  0  0  0
 15 14  1  0  0  0  0
 16 17  2  0  0  0  0
 16 14  1  0  0  0  0
 17 18  1  0  0  0  0
M  END
>  <minimizedAffinity>
-3.81764936

$$$$

 OpenBabel03242518293D

 18 19  0  0  0  0  0  0  0  0999 V2000
   38.2120   29.8480   41.6810 C   0  0  0  0  0  0  0  0  0  0  0  0
   38.9170   30.2980   40.5670 C   0  0  0  0  0  0  0  0  0  0  0  0
   38.1900   31.0330   39.6100 C   0  0  0  0  0  0  0  0  0  0  0  0
   36.8620   31.2550   39.8270 N   0  0  0  0  0  0  0  0  0  0  0  0
   36.2360   30.7810   40.9430 C   0  0  0  0  0  0  0  0  0  0  0  0
   36.9220   30.0820   41.8580 N   0  0  0  0  0  0  0  0  0  0  0  0
   39.9610   30.1500   40.3510 H   0  0  0  0  0  0  0  0  0  0  0  0
   38.6970   31.4030   38.7270 H   0  0  0  0  0  0  0  0  0  0  0  0
   35.1910   30.9400   41.1410 H   0  0  0  0  0  0  0  0  0  0  0  0
   39.0390   29.1100   42.5990 C   0  0  0  0  0  0  0  0  0  0  0  0
   40.2860   29.2230   42.7510 O   0  0  0  0  0  0  0  0  0  0  0  0
   38.3740   28.1830   43.3880 O   0  0  0  0  0  0  0  0  0  0  0  0
   38.1840   26.8880   42.9580 C   0  0  0  0  0  0  0  0  0  0  0  0
   37.0730   26.3100   42.4750 C   0  0  0  0  0  0  0  0  0  0  0  0
   36.1450   26.8860   42.3780 H   0  0  0  0  0  0  0  0  0  0  0  0
   37.1010   24.9920   42.1010 C   0  0  0  0  0  3  0  0  0  0  0  0
   38.3100   24.3290   42.2520 C   0  0  0  0  0  3  0  0  0  0  0  0
   39.4880   25.6260   42.9640 S   0  0  0  0  0  0  0  0  0  0  0  0
  1  6  1  0  0  0  0
  1 10  1  0  0  0  0
  2  1  2  0  0  0  0
  3  4  2  0  0  0  0
  3  2  1  0  0  0  0
  4  5  1  0  0  0  0
  5  9  1  0  0  0  0
  5  6  2  0  0  0  0
  7  2  1  0  0  0  0
  8  3  1  0  0  0  0
 10 11  2  0  0  0  0
 10 12  1  0  0  0  0
 13 18  1  0  0  0  0
 13 12  1  0  0  0  0
 14 13  2  0  0  0  0
 15 14  1  0  0  0  0
 16 17  2  0  0  0  0
 16 14  1  0  0  0  0
 17 18  1  0  0  0  0
M  END
>  <minimizedAffinity>
-3.79833388

$$$$
