
 OpenBabel03252508053D

 37 40  0  0  0  0  0  0  0  0999 V2000
   45.1570   35.5930   41.8560 C   0  0  0  0  0  0  0  0  0  0  0  0
   44.9480   34.2160   41.7910 C   0  0  0  0  0  0  0  0  0  0  0  0
   44.7740   33.5020   42.9610 C   0  0  0  0  0  0  0  0  0  0  0  0
   44.8060   34.1930   44.1480 N   0  0  0  0  0  0  0  0  0  0  0  0
   45.0060   35.5170   44.1860 C   0  0  0  0  0  0  0  0  0  0  0  0
   45.1810   36.2010   43.0410 N   0  0  0  0  0  0  0  0  0  0  0  0
   45.3030   36.1970   40.9630 H   0  0  0  0  0  0  0  0  0  0  0  0
   45.0120   35.9630   45.1910 H   0  0  0  0  0  0  0  0  0  0  0  0
   44.5510   32.0960   43.0310 C   0  0  0  0  0  0  0  0  0  0  0  0
   43.4740   31.4280   42.4720 C   0  0  0  0  0  0  0  0  0  0  0  0
   43.2360   30.0840   42.6390 C   0  0  0  0  0  0  0  0  0  0  0  0
   44.0950   29.3210   43.4040 C   0  0  0  0  0  0  0  0  0  0  0  0
   45.2030   29.9920   43.9810 C   0  0  0  0  0  0  0  0  0  0  0  0
   46.0590   29.2440   44.7430 C   0  0  0  0  0  0  0  0  0  0  0  0
   47.1660   29.8260   45.3340 C   0  0  0  0  0  0  0  0  0  0  0  0
   47.4050   31.1890   45.1420 C   0  0  0  0  0  0  0  0  0  0  0  0
   46.5050   31.9310   44.3550 C   0  0  0  0  0  0  0  0  0  0  0  0
   45.4050   31.3230   43.7870 C   0  0  0  0  0  0  0  0  0  0  0  0
   42.7670   31.9270   41.8820 H   0  0  0  0  0  0  0  0  0  0  0  0
   42.4000   29.5640   42.2040 H   0  0  0  0  0  0  0  0  0  0  0  0
   43.9160   28.2630   43.5460 H   0  0  0  0  0  0  0  0  0  0  0  0
   45.8450   28.1700   44.8720 H   0  0  0  0  0  0  0  0  0  0  0  0
   47.7750   29.1320   45.9190 H   0  0  0  0  0  0  0  0  0  0  0  0
   48.3010   31.4690   45.6640 H   0  0  0  0  0  0  0  0  0  0  0  0
   46.9380   32.8790   44.3480 H   0  0  0  0  0  0  0  0  0  0  0  0
   44.9180   33.6530   40.5480 O   0  0  0  0  0  0  0  0  0  0  0  0
   45.9180   31.9920   38.7660 O   0  0  0  0  0  0  0  0  0  0  0  0
   46.2980   33.0290   39.7680 P   0  0  1  0  0  0  0  0  0  0  0  0
   47.1180   34.2540   38.9310 O   0  0  0  0  0  0  0  0  0  0  0  0
   47.7060   33.8110   38.2810 H   0  0  0  0  0  0  0  0  0  0  0  0
   47.3320   32.3930   40.9210 O   0  0  0  0  0  0  0  0  0  0  0  0
   48.4270   32.9490   41.4660 C   0  0  0  0  0  0  0  0  0  0  0  0
   48.6150   34.1510   42.1440 C   0  0  0  0  0  0  0  0  0  0  0  0
   47.7460   34.7770   42.2740 H   0  0  0  0  0  0  0  0  0  0  0  0
   49.8730   34.4610   42.5970 C   0  0  0  0  0  3  0  0  0  0  0  0
   50.9140   33.6140   42.3900 C   0  0  0  0  0  3  0  0  0  0  0  0
   50.1190   32.1710   41.4460 S   0  0  0  0  0  0  0  0  0  0  0  0
  1  6  1  0  0  0  0
  2  1  2  0  0  0  0
  2  3  1  0  0  0  0
  3  9  1  0  0  0  0
  3  4  2  0  0  0  0
  4  5  1  0  0  0  0
  5  8  1  0  0  0  0
  6  5  2  0  0  0  0
  7  1  1  0  0  0  0
  9 18  1  0  0  0  0
 10 11  1  0  0  0  0
 10  9  2  0  0  0  0
 11 12  2  0  0  0  0
 12 21  1  0  0  0  0
 12 13  1  0  0  0  0
 13 14  1  0  0  0  0
 14 22  1  0  0  0  0
 14 15  2  0  0  0  0
 15 23  1  0  0  0  0
 16 15  1  0  0  0  0
 16 24  1  0  0  0  0
 17 16  2  0  0  0  0
 18 13  2  0  0  0  0
 18 17  1  0  0  0  0
 19 10  1  0  0  0  0
 20 11  1  0  0  0  0
 25 17  1  0  0  0  0
 26  2  1  0  0  0  0
 28 27  2  6  0  0  0
 28 26  1  0  0  0  0
 28 31  1  0  0  0  0
 29 28  1  0  0  0  0
 30 29  1  0  0  0  0
 31 32  1  0  0  0  0
 32 33  2  0  0  0  0
 33 34  1  0  0  0  0
 33 35  1  0  0  0  0
 36 35  2  0  0  0  0
 37 32  1  0  0  0  0
 37 36  1  0  0  0  0
M  END
>  <minimizedAffinity>
-4.47398376

>  <minimizedRMSD>
3.8040905

$$$$
