
 OpenBabel03252508073D

 41 44  0  0  0  0  0  0  0  0999 V2000
   45.2140   35.7980   42.9590 C   0  0  0  0  0  0  0  0  0  0  0  0
   45.5040   34.4430   43.0040 C   0  0  0  0  0  0  0  0  0  0  0  0
   45.3410   33.7420   44.1740 C   0  0  0  0  0  0  0  0  0  0  0  0
   44.8820   34.4460   45.2680 N   0  0  0  0  0  0  0  0  0  0  0  0
   44.6030   35.7480   45.2230 C   0  0  0  0  0  0  0  0  0  0  0  0
   44.7730   36.4140   44.0630 N   0  0  0  0  0  0  0  0  0  0  0  0
   45.3450   36.3590   42.0250 H   0  0  0  0  0  0  0  0  0  0  0  0
   44.2470   36.2500   46.1090 H   0  0  0  0  0  0  0  0  0  0  0  0
   45.5930   32.3670   44.3780 C   0  0  0  0  0  0  0  0  0  0  0  0
   45.1800   31.3550   43.5080 C   0  0  0  0  0  0  0  0  0  0  0  0
   45.3650   30.0180   43.7380 C   0  0  0  0  0  0  0  0  0  0  0  0
   45.9930   29.6050   44.8860 C   0  0  0  0  0  0  0  0  0  0  0  0
   46.4270   30.6220   45.7920 C   0  0  0  0  0  0  0  0  0  0  0  0
   47.0530   30.2130   46.9400 C   0  0  0  0  0  0  0  0  0  0  0  0
   47.4980   31.1450   47.8540 C   0  0  0  0  0  0  0  0  0  0  0  0
   47.3040   32.5100   47.5970 C   0  0  0  0  0  0  0  0  0  0  0  0
   46.6560   32.8760   46.4050 C   0  0  0  0  0  0  0  0  0  0  0  0
   46.2190   31.9340   45.5150 C   0  0  0  0  0  0  0  0  0  0  0  0
   44.6790   31.6310   42.5900 H   0  0  0  0  0  0  0  0  0  0  0  0
   45.0130   29.2880   43.0070 H   0  0  0  0  0  0  0  0  0  0  0  0
   46.1450   28.5690   45.0810 H   0  0  0  0  0  0  0  0  0  0  0  0
   47.1940   29.1520   47.1190 H   0  0  0  0  0  0  0  0  0  0  0  0
   47.9860   30.7580   48.7440 H   0  0  0  0  0  0  0  0  0  0  0  0
   47.6860   33.1510   48.3640 H   0  0  0  0  0  0  0  0  0  0  0  0
   46.6250   33.9440   46.3810 H   0  0  0  0  0  0  0  0  0  0  0  0
   45.9470   33.8640   41.8450 O   0  0  0  0  0  0  0  0  0  0  0  0
   48.0310   32.4020   41.2320 O   0  0  0  0  0  0  0  0  0  0  0  0
   47.5690   33.8120   41.3610 P   0  0  1  0  0  0  0  0  0  0  0  0
   47.7640   34.5350   39.8430 O   0  0  0  0  0  0  0  0  0  0  0  0
   47.8480   33.7520   38.6560 C   0  0  0  0  0  0  0  0  0  0  0  0
   48.6870   33.2760   37.5980 C   0  0  0  0  0  0  0  0  0  0  0  0
   49.6520   33.6950   37.8020 H   0  0  0  0  0  0  0  0  0  0  0  0
   48.0310   32.4800   36.7050 C   0  0  0  0  0  3  0  0  0  0  0  0
   46.7220   32.1630   36.7970 C   0  0  0  0  0  3  0  0  0  0  0  0
   46.1530   33.0000   38.2710 S   0  0  0  0  0  0  0  0  0  0  0  0
   48.4860   34.6510   42.4840 O   0  0  0  0  0  0  0  0  0  0  0  0
   49.6990   35.2830   42.2600 C   0  0  0  0  0  0  0  0  0  0  0  0
   49.3960   36.3680   41.7290 O   0  0  0  0  0  0  0  0  0  0  0  0
   50.7940   34.4640   42.7130 N   0  0  0  0  0  0  0  0  0  0  0  0
   51.5350   33.9570   42.1740 H   0  0  0  0  0  0  0  0  0  0  0  0
   50.8830   34.3400   43.7460 H   0  0  0  0  0  0  0  0  0  0  0  0
  1  2  2  0  0  0  0
  1  6  1  0  0  0  0
  2  3  1  0  0  0  0
  3  9  1  0  0  0  0
  3  4  2  0  0  0  0
  5  4  1  0  0  0  0
  5  8  1  0  0  0  0
  6  5  2  0  0  0  0
  7  1  1  0  0  0  0
  9 18  1  0  0  0  0
 10 11  1  0  0  0  0
 10  9  2  0  0  0  0
 11 12  2  0  0  0  0
 12 21  1  0  0  0  0
 12 13  1  0  0  0  0
 13 14  1  0  0  0  0
 14 22  1  0  0  0  0
 14 15  2  0  0  0  0
 15 23  1  0  0  0  0
 16 15  1  0  0  0  0
 16 24  1  0  0  0  0
 17 16  2  0  0  0  0
 18 13  2  0  0  0  0
 18 17  1  0  0  0  0
 19 10  1  0  0  0  0
 20 11  1  0  0  0  0
 25 17  1  0  0  0  0
 26  2  1  0  0  0  0
 28 27  2  6  0  0  0
 28 26  1  0  0  0  0
 28 36  1  0  0  0  0
 29 28  1  0  0  0  0
 30 29  1  0  0  0  0
 31 32  1  0  0  0  0
 31 30  2  0  0  0  0
 33 34  2  0  0  0  0
 33 31  1  0  0  0  0
 34 35  1  0  0  0  0
 35 30  1  0  0  0  0
 37 36  1  0  0  0  0
 37 39  1  0  0  0  0
 38 37  2  0  0  0  0
 39 41  1  0  0  0  0
 40 39  1  0  0  0  0
M  END
>  <minimizedAffinity>
-6.01703501

>  <minimizedRMSD>
1.23524201

$$$$
