
 OpenBabel03242517353D

 20 21  0  0  0  0  0  0  0  0999 V2000
   44.0090   35.2880   41.6480 C   0  0  0  0  0  0  0  0  0  0  0  0
   42.9390   34.8440   41.0350 C   0  0  0  0  0  0  0  0  0  0  0  0
   44.2710   35.8410   44.0730 C   0  0  0  0  0  0  0  0  0  0  0  0
   44.4350   34.9710   42.9950 C   0  0  0  0  0  0  0  0  0  0  0  0
   45.0380   33.7490   43.2500 C   0  0  0  0  0  0  0  0  0  0  0  0
   45.4430   33.4430   44.5240 N   0  0  0  0  0  0  0  0  0  0  0  0
   45.2570   34.3290   45.5370 C   0  0  0  0  0  0  0  0  0  0  0  0
   44.6730   35.5170   45.2940 N   0  0  0  0  0  0  0  0  0  0  0  0
   43.7960   36.7980   43.8540 H   0  0  0  0  0  0  0  0  0  0  0  0
   45.2040   33.0120   42.4670 H   0  0  0  0  0  0  0  0  0  0  0  0
   45.6160   33.9690   46.4720 H   0  0  0  0  0  0  0  0  0  0  0  0
   42.5840   35.2300   39.6380 C   0  0  0  0  0  0  0  0  0  0  0  0
   43.2130   34.6490   38.9210 H   0  0  0  0  0  0  0  0  0  0  0  0
   42.7500   36.3150   39.4800 H   0  0  0  0  0  0  0  0  0  0  0  0
   41.1690   34.8420   39.4390 C   0  0  0  0  0  0  0  0  0  0  0  0
   40.4280   34.7190   38.2630 C   0  0  0  0  0  0  0  0  0  0  0  0
   40.9480   34.9380   37.3460 H   0  0  0  0  0  0  0  0  0  0  0  0
   39.1190   34.3380   38.3430 C   0  0  0  0  0  0  0  0  0  0  0  0
   38.5790   34.0850   39.6520 C   0  0  0  0  0  0  0  0  0  0  0  0
   40.0800   34.4320   40.7440 S   0  0  0  0  0  0  0  0  0  0  0  0
  1  4  1  0  0  0  0
  2  1  2  0  0  0  0
  3  8  1  0  0  0  0
  4  5  1  0  0  0  0
  4  3  2  0  0  0  0
  5  6  2  0  0  0  0
  6  7  1  0  0  0  0
  7 11  1  0  0  0  0
  8  7  2  0  0  0  0
  9  3  1  0  0  0  0
 10  5  1  0  0  0  0
 12  2  1  0  0  0  0
 13 12  1  0  0  0  0
 14 12  1  0  0  0  0
 15 12  1  0  0  0  0
 15 20  1  0  0  0  0
 16 18  1  0  0  0  0
 16 15  2  0  0  0  0
 17 16  1  0  0  0  0
 18 19  2  0  0  0  0
 19 20  1  0  0  0  0
M  END
>  <minimizedAffinity>
-4.60306978

>  <minimizedRMSD>
2.25769973

$$$$
