
 OpenBabel03252508463D

 42 44  0  0  0  0  0  0  0  0999 V2000
   42.9790   32.4410   41.6870 C   0  0  0  0  0  0  0  0  0  0  0  0
   42.0450   32.8950   41.3070 H   0  0  0  0  0  0  0  0  0  0  0  0
   43.5200   32.0390   40.7810 H   0  0  0  0  0  0  0  0  0  0  0  0
   43.6690   34.8380   41.9110 C   0  0  0  0  0  0  0  0  0  0  0  0
   43.8730   33.5080   42.2250 C   0  0  0  0  0  0  0  0  0  0  0  0
   44.9290   33.1790   43.0500 C   0  0  0  0  0  0  0  0  0  0  0  0
   45.7460   34.1650   43.5390 C   0  0  0  0  0  0  0  0  0  0  0  0
   45.5610   35.4970   43.2410 C   0  0  0  0  0  0  0  0  0  0  0  0
   44.4890   35.7760   42.4100 C   0  0  0  0  0  0  0  0  0  0  0  0
   45.1390   32.1560   43.3290 H   0  0  0  0  0  0  0  0  0  0  0  0
   46.5770   33.9130   44.1890 H   0  0  0  0  0  0  0  0  0  0  0  0
   46.1520   36.3140   43.5840 H   0  0  0  0  0  0  0  0  0  0  0  0
   44.2670   36.7950   42.1220 H   0  0  0  0  0  0  0  0  0  0  0  0
   40.2500   35.7400   40.5530 C   0  0  0  0  0  0  0  0  0  0  0  0
   41.2730   35.4920   41.4850 C   0  0  0  0  0  0  0  0  0  0  0  0
   42.5330   35.1210   41.0320 C   0  0  0  0  0  0  0  0  0  0  0  0
   42.7090   35.0160   39.6860 N   0  0  0  0  0  0  0  0  0  0  0  0
   41.7140   35.2580   38.8030 C   0  0  0  0  0  0  0  0  0  0  0  0
   40.4880   35.6200   39.2470 N   0  0  0  0  0  0  0  0  0  0  0  0
   39.2890   36.0250   40.9210 H   0  0  0  0  0  0  0  0  0  0  0  0
   41.1320   35.5760   42.5520 H   0  0  0  0  0  0  0  0  0  0  0  0
   41.9930   35.1360   37.7700 H   0  0  0  0  0  0  0  0  0  0  0  0
   42.6850   31.3820   42.5940 N   0  0  0  0  0  0  0  0  0  0  0  0
   43.0500   31.5020   43.5570 H   0  0  0  0  0  0  0  0  0  0  0  0
   41.0240   31.0050   42.6450 S   0  0  0  0  0  0  0  0  0  0  0  0
   40.1730   32.2380   42.4440 O   0  0  0  0  0  0  0  0  0  0  0  0
   39.8740   32.7410   43.2610 H   0  0  0  0  0  0  0  0  0  0  0  0
   40.6540   30.3480   43.9320 O   0  0  0  0  0  0  0  0  0  0  0  0
   39.8240   30.4810   44.4520 H   0  0  0  0  0  0  0  0  0  0  0  0
   40.6960   29.9450   41.3820 O   0  0  0  0  0  0  0  0  0  0  0  0
   39.4780   29.3360   41.6310 C   0  0  0  0  0  0  0  0  0  0  0  0
   38.8150   29.5720   40.7960 H   0  0  0  0  0  0  0  0  0  0  0  0
   38.9910   29.6270   42.5710 H   0  0  0  0  0  0  0  0  0  0  0  0
   39.6580   27.8290   41.7170 C   0  0  0  0  0  0  0  0  0  0  0  0
   39.9120   27.5120   42.7500 H   0  0  0  0  0  0  0  0  0  0  0  0
   40.4390   27.5210   40.9860 H   0  0  0  0  0  0  0  0  0  0  0  0
   38.4170   27.1320   41.2480 C   0  0  0  0  0  0  0  0  0  0  0  0
   38.1000   25.7490   41.3770 C   0  0  0  0  0  0  0  0  0  0  0  0
   38.8180   25.1140   41.8600 H   0  0  0  0  0  0  0  0  0  0  0  0
   36.9030   25.3570   40.8730 C   0  0  0  0  0  3  0  0  0  0  0  0
   36.0230   26.2820   40.2510 C   0  0  0  0  0  3  0  0  0  0  0  0
   36.9730   27.8780   40.3870 S   0  0  0  0  0  0  0  0  0  0  0  0
  1  5  1  0  0  0  0
  1 23  1  0  0  0  0
  2  1  1  0  0  0  0
  3  1  1  0  0  0  0
  4  5  2  0  0  0  0
  4  9  1  0  0  0  0
  5  6  1  0  0  0  0
  6 10  1  0  0  0  0
  6  7  2  0  0  0  0
  7 11  1  0  0  0  0
  8  7  1  0  0  0  0
  8 12  1  0  0  0  0
  9  8  2  0  0  0  0
 13  9  1  0  0  0  0
 14 20  1  0  0  0  0
 14 15  1  0  0  0  0
 15 21  1  0  0  0  0
 16 15  2  0  0  0  0
 16  4  1  0  0  0  0
 17 16  1  0  0  0  0
 18 19  1  0  0  0  0
 18 17  2  0  0  0  0
 19 14  2  0  0  0  0
 22 18  1  0  0  0  0
 23 25  1  0  0  0  0
 23 24  1  0  0  0  0
 25 28  1  0  0  0  0
 26 25  1  0  0  0  0
 26 27  1  0  0  0  0
 28 29  1  0  0  0  0
 30 31  1  0  0  0  0
 30 25  1  0  0  0  0
 31 34  1  0  0  0  0
 31 33  1  0  0  0  0
 32 31  1  0  0  0  0
 34 35  1  0  0  0  0
 36 34  1  0  0  0  0
 37 38  2  0  0  0  0
 37 34  1  0  0  0  0
 38 39  1  0  0  0  0
 40 38  1  0  0  0  0
 41 42  1  0  0  0  0
 41 40  2  0  0  0  0
 42 37  1  0  0  0  0
M  END
>  <minimizedAffinity>
-5.06992483

>  <minimizedRMSD>
1.39738262

$$$$
