
 OpenBabel03242522243D

 25 27  0  0  0  0  0  0  0  0999 V2000
   39.6060   33.9720   40.0300 C   0  0  0  0  0  0  0  0  0  0  0  0
   38.9600   32.9740   40.7710 C   0  0  0  0  0  0  0  0  0  0  0  0
   39.2940   31.6390   40.6470 C   0  0  0  0  0  0  0  0  0  0  0  0
   40.2920   31.3400   39.7580 N   0  0  0  0  0  0  0  0  0  0  0  0
   40.9000   32.3130   39.0560 C   0  0  0  0  0  0  0  0  0  0  0  0
   40.5740   33.5960   39.1800 N   0  0  0  0  0  0  0  0  0  0  0  0
   39.3240   35.0050   40.1470 H   0  0  0  0  0  0  0  0  0  0  0  0
   38.1650   33.2180   41.4770 H   0  0  0  0  0  0  0  0  0  0  0  0
   36.8220   30.6940   39.3690 Cl  0  0  0  0  0  0  0  0  0  0  0  0
   37.4420   30.0830   40.8960 C   0  0  0  0  0  0  0  0  0  0  0  0
   38.6220   30.5920   41.4190 C   0  0  0  0  0  0  0  0  0  0  0  0
   39.0720   30.0870   42.6140 C   0  0  0  0  0  0  0  0  0  0  0  0
   38.3820   29.1000   43.2920 C   0  0  0  0  0  0  0  0  0  0  0  0
   37.2020   28.6220   42.7230 C   0  0  0  0  0  0  0  0  0  0  0  0
   36.2910   27.3810   43.5480 Cl  0  0  0  0  0  0  0  0  0  0  0  0
   36.7110   29.0970   41.5280 C   0  0  0  0  0  0  0  0  0  0  0  0
   39.9930   30.4970   43.0060 H   0  0  0  0  0  0  0  0  0  0  0  0
   38.7360   28.7030   44.2310 H   0  0  0  0  0  0  0  0  0  0  0  0
   35.7940   28.7300   41.0780 H   0  0  0  0  0  0  0  0  0  0  0  0
   41.9820   31.8730   38.1100 C   0  0  0  0  0  0  0  0  0  0  0  0
   41.7820   30.9570   37.0930 C   0  0  0  0  0  0  0  0  0  0  0  0
   40.8190   30.4960   36.9160 H   0  0  0  0  0  0  0  0  0  0  0  0
   42.8120   30.6220   36.2930 C   0  0  0  0  0  3  0  0  0  0  0  0
   44.0860   31.1920   36.4800 C   0  0  0  0  0  3  0  0  0  0  0  0
   43.7650   32.3240   37.9560 S   0  0  0  0  0  0  0  0  0  0  0  0
  1  7  1  0  0  0  0
  1  2  1  0  0  0  0
  2  8  1  0  0  0  0
  3  2  2  0  0  0  0
  3 11  1  0  0  0  0
  4  3  1  0  0  0  0
  5  6  1  0  0  0  0
  5  4  2  0  0  0  0
  6  1  2  0  0  0  0
  9 10  1  0  0  0  0
 10 11  2  0  0  0  0
 10 16  1  0  0  0  0
 11 12  1  0  0  0  0
 12 17  1  0  0  0  0
 12 13  2  0  0  0  0
 13 18  1  0  0  0  0
 14 13  1  0  0  0  0
 14 15  1  0  0  0  0
 16 14  2  0  0  0  0
 19 16  1  0  0  0  0
 20  5  1  0  0  0  0
 21 20  2  0  0  0  0
 22 21  1  0  0  0  0
 23 24  2  0  0  0  0
 23 21  1  0  0  0  0
 24 25  1  0  0  0  0
 25 20  1  0  0  0  0
M  END
>  <minimizedAffinity>
-5.18617344

$$$$

 OpenBabel03242522243D

 25 27  0  0  0  0  0  0  0  0999 V2000
   37.3070   32.7070   40.0360 C   0  0  0  0  0  0  0  0  0  0  0  0
   37.0110   31.3990   40.4390 C   0  0  0  0  0  0  0  0  0  0  0  0
   37.9780   30.5500   40.9400 C   0  0  0  0  0  0  0  0  0  0  0  0
   39.2480   31.0550   41.0230 N   0  0  0  0  0  0  0  0  0  0  0  0
   39.5130   32.3140   40.6300 C   0  0  0  0  0  0  0  0  0  0  0  0
   38.5770   33.1260   40.1490 N   0  0  0  0  0  0  0  0  0  0  0  0
   36.5310   33.3470   39.6490 H   0  0  0  0  0  0  0  0  0  0  0  0
   35.9960   31.0020   40.3700 H   0  0  0  0  0  0  0  0  0  0  0  0
   38.2430   28.6020   38.7560 Cl  0  0  0  0  0  0  0  0  0  0  0  0
   37.7680   28.1890   40.3980 C   0  0  0  0  0  0  0  0  0  0  0  0
   37.6730   29.1820   41.3620 C   0  0  0  0  0  0  0  0  0  0  0  0
   37.3000   28.8170   42.6330 C   0  0  0  0  0  0  0  0  0  0  0  0
   37.0210   27.5040   42.9600 C   0  0  0  0  0  0  0  0  0  0  0  0
   37.1320   26.5440   41.9540 C   0  0  0  0  0  0  0  0  0  0  0  0
   36.7820   24.8720   42.3180 Cl  0  0  0  0  0  0  0  0  0  0  0  0
   37.5040   26.8610   40.6670 C   0  0  0  0  0  0  0  0  0  0  0  0
   37.2300   29.6060   43.3700 H   0  0  0  0  0  0  0  0  0  0  0  0
   36.7290   27.2170   43.9580 H   0  0  0  0  0  0  0  0  0  0  0  0
   37.5930   26.1200   39.8780 H   0  0  0  0  0  0  0  0  0  0  0  0
   40.9410   32.7660   40.7650 C   0  0  0  0  0  0  0  0  0  0  0  0
   41.8700   32.1320   41.5700 C   0  0  0  0  0  0  0  0  0  0  0  0
   41.6200   31.2600   42.1590 H   0  0  0  0  0  0  0  0  0  0  0  0
   43.1280   32.6090   41.6290 C   0  0  0  0  0  3  0  0  0  0  0  0
   43.5070   33.7410   40.8820 C   0  0  0  0  0  3  0  0  0  0  0  0
   41.8860   34.1590   40.0090 S   0  0  0  0  0  0  0  0  0  0  0  0
  1  6  2  0  0  0  0
  1  2  1  0  0  0  0
  2  3  2  0  0  0  0
  3  4  1  0  0  0  0
  3 11  1  0  0  0  0
  5 20  1  0  0  0  0
  5  4  2  0  0  0  0
  6  5  1  0  0  0  0
  7  1  1  0  0  0  0
  8  2  1  0  0  0  0
  9 10  1  0  0  0  0
 10 16  2  0  0  0  0
 10 11  1  0  0  0  0
 11 12  2  0  0  0  0
 12 13  1  0  0  0  0
 12 17  1  0  0  0  0
 13 18  1  0  0  0  0
 14 15  1  0  0  0  0
 14 13  2  0  0  0  0
 16 14  1  0  0  0  0
 19 16  1  0  0  0  0
 20 21  2  0  0  0  0
 21 23  1  0  0  0  0
 21 22  1  0  0  0  0
 24 23  2  0  0  0  0
 25 20  1  0  0  0  0
 25 24  1  0  0  0  0
M  END
>  <minimizedAffinity>
-4.93967295

$$$$

 OpenBabel03242522243D

 25 27  0  0  0  0  0  0  0  0999 V2000
   36.5820   27.2380   43.6790 C   0  0  0  0  0  0  0  0  0  0  0  0
   36.9630   28.5140   43.2470 C   0  0  0  0  0  0  0  0  0  0  0  0
   37.6080   28.7170   42.0420 C   0  0  0  0  0  0  0  0  0  0  0  0
   37.8590   27.6010   41.2900 N   0  0  0  0  0  0  0  0  0  0  0  0
   37.4850   26.3830   41.7230 C   0  0  0  0  0  0  0  0  0  0  0  0
   36.8640   26.1950   42.8830 N   0  0  0  0  0  0  0  0  0  0  0  0
   36.0800   27.1100   44.6240 H   0  0  0  0  0  0  0  0  0  0  0  0
   36.7610   29.4000   43.8510 H   0  0  0  0  0  0  0  0  0  0  0  0
   35.5550   30.0120   40.3860 Cl  0  0  0  0  0  0  0  0  0  0  0  0
   37.1020   30.7410   40.7940 C   0  0  0  0  0  0  0  0  0  0  0  0
   38.0070   30.0490   41.5860 C   0  0  0  0  0  0  0  0  0  0  0  0
   39.2040   30.6550   41.8820 C   0  0  0  0  0  0  0  0  0  0  0  0
   39.5160   31.9160   41.4120 C   0  0  0  0  0  0  0  0  0  0  0  0
   38.5720   32.5690   40.6200 C   0  0  0  0  0  0  0  0  0  0  0  0
   38.9260   34.1610   39.9960 Cl  0  0  0  0  0  0  0  0  0  0  0  0
   37.3590   32.0030   40.2970 C   0  0  0  0  0  0  0  0  0  0  0  0
   39.8960   30.1000   42.5010 H   0  0  0  0  0  0  0  0  0  0  0  0
   40.4560   32.3920   41.6450 H   0  0  0  0  0  0  0  0  0  0  0  0
   36.6180   32.5040   39.6810 H   0  0  0  0  0  0  0  0  0  0  0  0
   37.8090   25.2270   40.8170 C   0  0  0  0  0  0  0  0  0  0  0  0
   37.7370   23.9030   41.2120 C   0  0  0  0  0  0  0  0  0  0  0  0
   37.4380   23.6180   42.2130 H   0  0  0  0  0  0  0  0  0  0  0  0
   38.0460   22.9330   40.3320 C   0  0  0  0  0  3  0  0  0  0  0  0
   38.4400   23.2500   39.0180 C   0  0  0  0  0  3  0  0  0  0  0  0
   38.3560   25.1350   39.0580 S   0  0  0  0  0  0  0  0  0  0  0  0
  1  7  1  0  0  0  0
  2  1  1  0  0  0  0
  2  8  1  0  0  0  0
  3  2  2  0  0  0  0
  4  5  2  0  0  0  0
  4  3  1  0  0  0  0
  5  6  1  0  0  0  0
  6  1  2  0  0  0  0
  9 10  1  0  0  0  0
 10 11  1  0  0  0  0
 11 12  2  0  0  0  0
 11  3  1  0  0  0  0
 12 17  1  0  0  0  0
 13 18  1  0  0  0  0
 13 12  1  0  0  0  0
 14 13  2  0  0  0  0
 15 14  1  0  0  0  0
 16 14  1  0  0  0  0
 16 10  2  0  0  0  0
 19 16  1  0  0  0  0
 20 21  2  0  0  0  0
 20  5  1  0  0  0  0
 21 22  1  0  0  0  0
 23 21  1  0  0  0  0
 24 25  1  0  0  0  0
 24 23  2  0  0  0  0
 25 20  1  0  0  0  0
M  END
>  <minimizedAffinity>
-4.939363

$$$$

 OpenBabel03242522243D

 25 27  0  0  0  0  0  0  0  0999 V2000
   36.6190   31.5190   40.6880 C   0  0  0  0  0  0  0  0  0  0  0  0
   36.9560   30.2890   41.2660 C   0  0  0  0  0  0  0  0  0  0  0  0
   38.2250   29.7530   41.1600 C   0  0  0  0  0  0  0  0  0  0  0  0
   39.1410   30.4900   40.4570 N   0  0  0  0  0  0  0  0  0  0  0  0
   38.7980   31.6700   39.9100 C   0  0  0  0  0  0  0  0  0  0  0  0
   37.5750   32.1800   40.0160 N   0  0  0  0  0  0  0  0  0  0  0  0
   35.6210   31.9130   40.7880 H   0  0  0  0  0  0  0  0  0  0  0  0
   36.2210   29.7060   41.8240 H   0  0  0  0  0  0  0  0  0  0  0  0
   37.9480   27.5070   39.2860 Cl  0  0  0  0  0  0  0  0  0  0  0  0
   38.4800   27.3440   40.9540 C   0  0  0  0  0  0  0  0  0  0  0  0
   38.5810   28.4670   41.7620 C   0  0  0  0  0  0  0  0  0  0  0  0
   39.0020   28.2970   43.0580 C   0  0  0  0  0  0  0  0  0  0  0  0
   39.3180   27.0490   43.5620 C   0  0  0  0  0  0  0  0  0  0  0  0
   39.2000   25.9520   42.7080 C   0  0  0  0  0  0  0  0  0  0  0  0
   39.5800   24.3550   43.3030 Cl  0  0  0  0  0  0  0  0  0  0  0  0
   38.7840   26.0740   41.4020 C   0  0  0  0  0  0  0  0  0  0  0  0
   39.0740   29.1840   43.6730 H   0  0  0  0  0  0  0  0  0  0  0  0
   39.6490   26.9160   44.5800 H   0  0  0  0  0  0  0  0  0  0  0  0
   38.6890   25.2260   40.7300 H   0  0  0  0  0  0  0  0  0  0  0  0
   39.8820   32.3950   39.1610 C   0  0  0  0  0  0  0  0  0  0  0  0
   40.4470   33.5810   39.5950 C   0  0  0  0  0  0  0  0  0  0  0  0
   40.1380   34.0630   40.5130 H   0  0  0  0  0  0  0  0  0  0  0  0
   41.4130   34.1610   38.8580 C   0  0  0  0  0  3  0  0  0  0  0  0
   41.8530   33.5750   37.6550 C   0  0  0  0  0  3  0  0  0  0  0  0
   40.7630   32.0350   37.5810 S   0  0  0  0  0  0  0  0  0  0  0  0
  1  7  1  0  0  0  0
  1  2  1  0  0  0  0
  2  8  1  0  0  0  0
  3  2  2  0  0  0  0
  3 11  1  0  0  0  0
  4  3  1  0  0  0  0
  5  6  1  0  0  0  0
  5  4  2  0  0  0  0
  6  1  2  0  0  0  0
  9 10  1  0  0  0  0
 10 16  2  0  0  0  0
 10 11  1  0  0  0  0
 11 12  2  0  0  0  0
 12 13  1  0  0  0  0
 12 17  1  0  0  0  0
 13 18  1  0  0  0  0
 14 15  1  0  0  0  0
 14 13  2  0  0  0  0
 16 14  1  0  0  0  0
 19 16  1  0  0  0  0
 20 21  2  0  0  0  0
 20  5  1  0  0  0  0
 21 22  1  0  0  0  0
 23 21  1  0  0  0  0
 24 23  2  0  0  0  0
 25 24  1  0  0  0  0
 25 20  1  0  0  0  0
M  END
>  <minimizedAffinity>
-4.93810701

$$$$

 OpenBabel03242522243D

 25 27  0  0  0  0  0  0  0  0999 V2000
   37.9130   28.2550   43.6770 C   0  0  0  0  0  0  0  0  0  0  0  0
   37.6310   27.1490   42.8650 C   0  0  0  0  0  0  0  0  0  0  0  0
   37.4830   27.2640   41.4970 C   0  0  0  0  0  0  0  0  0  0  0  0
   37.6260   28.5200   40.9720 N   0  0  0  0  0  0  0  0  0  0  0  0
   37.8970   29.5700   41.7680 C   0  0  0  0  0  0  0  0  0  0  0  0
   38.0380   29.4530   43.0840 N   0  0  0  0  0  0  0  0  0  0  0  0
   38.0230   28.1350   44.7420 H   0  0  0  0  0  0  0  0  0  0  0  0
   37.5170   26.1500   43.2900 H   0  0  0  0  0  0  0  0  0  0  0  0
   35.7730   27.9510   39.2080 Cl  0  0  0  0  0  0  0  0  0  0  0  0
   36.3840   26.3360   39.5360 C   0  0  0  0  0  0  0  0  0  0  0  0
   37.1880   26.1110   40.6450 C   0  0  0  0  0  0  0  0  0  0  0  0
   37.6450   24.8340   40.8650 C   0  0  0  0  0  0  0  0  0  0  0  0
   37.3220   23.7910   40.0180 C   0  0  0  0  0  0  0  0  0  0  0  0
   36.5110   24.0700   38.9190 C   0  0  0  0  0  0  0  0  0  0  0  0
   36.0690   22.7810   37.8270 Cl  0  0  0  0  0  0  0  0  0  0  0  0
   36.0300   25.3330   38.6560 C   0  0  0  0  0  0  0  0  0  0  0  0
   38.2700   24.6790   41.7340 H   0  0  0  0  0  0  0  0  0  0  0  0
   37.6810   22.7880   40.1920 H   0  0  0  0  0  0  0  0  0  0  0  0
   35.3980   25.5590   37.8030 H   0  0  0  0  0  0  0  0  0  0  0  0
   38.0340   30.9040   41.0870 C   0  0  0  0  0  0  0  0  0  0  0  0
   37.0450   31.4650   40.2990 C   0  0  0  0  0  0  0  0  0  0  0  0
   36.1000   30.9690   40.1240 H   0  0  0  0  0  0  0  0  0  0  0  0
   37.2570   32.6650   39.7270 C   0  0  0  0  0  3  0  0  0  0  0  0
   38.4700   33.3530   39.9220 C   0  0  0  0  0  3  0  0  0  0  0  0
   39.3960   32.1480   41.0420 S   0  0  0  0  0  0  0  0  0  0  0  0
  1  7  1  0  0  0  0
  2  8  1  0  0  0  0
  2  1  2  0  0  0  0
  3  2  1  0  0  0  0
  4  3  2  0  0  0  0
  4  5  1  0  0  0  0
  5  6  2  0  0  0  0
  6  1  1  0  0  0  0
  9 10  1  0  0  0  0
 10 11  1  0  0  0  0
 11 12  2  0  0  0  0
 11  3  1  0  0  0  0
 12 17  1  0  0  0  0
 13 18  1  0  0  0  0
 13 12  1  0  0  0  0
 14 13  2  0  0  0  0
 15 14  1  0  0  0  0
 16 14  1  0  0  0  0
 16 10  2  0  0  0  0
 19 16  1  0  0  0  0
 20  5  1  0  0  0  0
 21 20  2  0  0  0  0
 22 21  1  0  0  0  0
 23 24  2  0  0  0  0
 23 21  1  0  0  0  0
 24 25  1  0  0  0  0
 25 20  1  0  0  0  0
M  END
>  <minimizedAffinity>
-4.92162704

$$$$

 OpenBabel03242522243D

 25 27  0  0  0  0  0  0  0  0999 V2000
   37.2980   32.6830   39.9900 C   0  0  0  0  0  0  0  0  0  0  0  0
   37.0140   31.3760   40.4050 C   0  0  0  0  0  0  0  0  0  0  0  0
   37.8870   30.3300   40.1800 C   0  0  0  0  0  0  0  0  0  0  0  0
   39.0510   30.6370   39.5260 N   0  0  0  0  0  0  0  0  0  0  0  0
   39.3060   31.8990   39.1360 C   0  0  0  0  0  0  0  0  0  0  0  0
   38.4610   32.9010   39.3560 N   0  0  0  0  0  0  0  0  0  0  0  0
   36.5980   33.4790   40.1800 H   0  0  0  0  0  0  0  0  0  0  0  0
   36.0840   31.1370   40.9250 H   0  0  0  0  0  0  0  0  0  0  0  0
   38.8470   29.7680   42.9000 Cl  0  0  0  0  0  0  0  0  0  0  0  0
   38.0110   28.6010   41.8850 C   0  0  0  0  0  0  0  0  0  0  0  0
   37.5940   28.9620   40.6120 C   0  0  0  0  0  0  0  0  0  0  0  0
   36.9440   28.0210   39.8520 C   0  0  0  0  0  0  0  0  0  0  0  0
   36.7040   26.7440   40.3240 C   0  0  0  0  0  0  0  0  0  0  0  0
   37.1440   26.4320   41.6100 C   0  0  0  0  0  0  0  0  0  0  0  0
   36.8720   24.8290   42.2460 Cl  0  0  0  0  0  0  0  0  0  0  0  0
   37.7990   27.3420   42.4090 C   0  0  0  0  0  0  0  0  0  0  0  0
   36.6270   28.3220   38.8620 H   0  0  0  0  0  0  0  0  0  0  0  0
   36.1930   26.0050   39.7270 H   0  0  0  0  0  0  0  0  0  0  0  0
   38.1440   27.1070   43.4120 H   0  0  0  0  0  0  0  0  0  0  0  0
   40.6130   32.1240   38.4270 C   0  0  0  0  0  0  0  0  0  0  0  0
   41.1880   33.3720   38.2650 C   0  0  0  0  0  0  0  0  0  0  0  0
   40.7240   34.2730   38.6430 H   0  0  0  0  0  0  0  0  0  0  0  0
   42.3630   33.4780   37.6150 C   0  0  0  0  0  3  0  0  0  0  0  0
   43.0100   32.3370   37.1030 C   0  0  0  0  0  3  0  0  0  0  0  0
   41.8030   30.9770   37.6080 S   0  0  0  0  0  0  0  0  0  0  0  0
  1  7  1  0  0  0  0
  1  2  1  0  0  0  0
  2  8  1  0  0  0  0
  3  2  2  0  0  0  0
  3 11  1  0  0  0  0
  4  3  1  0  0  0  0
  5  6  1  0  0  0  0
  5  4  2  0  0  0  0
  6  1  2  0  0  0  0
 10 16  1  0  0  0  0
 10  9  1  0  0  0  0
 11 10  2  0  0  0  0
 12 13  2  0  0  0  0
 12 11  1  0  0  0  0
 13 14  1  0  0  0  0
 14 15  1  0  0  0  0
 14 16  2  0  0  0  0
 16 19  1  0  0  0  0
 17 12  1  0  0  0  0
 18 13  1  0  0  0  0
 20  5  1  0  0  0  0
 21 20  2  0  0  0  0
 21 22  1  0  0  0  0
 23 21  1  0  0  0  0
 24 25  1  0  0  0  0
 24 23  2  0  0  0  0
 25 20  1  0  0  0  0
M  END
>  <minimizedAffinity>
-4.91983461

$$$$

 OpenBabel03242522243D

 25 27  0  0  0  0  0  0  0  0999 V2000
   34.5280   26.7620   37.0070 C   0  0  0  0  0  0  0  0  0  0  0  0
   34.9680   28.0590   37.2970 C   0  0  0  0  0  0  0  0  0  0  0  0
   35.9630   28.3050   38.2230 C   0  0  0  0  0  0  0  0  0  0  0  0
   36.4980   27.2100   38.8480 N   0  0  0  0  0  0  0  0  0  0  0  0
   36.0610   25.9710   38.5560 C   0  0  0  0  0  0  0  0  0  0  0  0
   35.1040   25.7420   37.6630 N   0  0  0  0  0  0  0  0  0  0  0  0
   33.7500   26.6010   36.2790 H   0  0  0  0  0  0  0  0  0  0  0  0
   34.5380   28.9280   36.7960 H   0  0  0  0  0  0  0  0  0  0  0  0
   35.4290   29.0860   41.0050 Cl  0  0  0  0  0  0  0  0  0  0  0  0
   36.2170   30.1200   39.8210 C   0  0  0  0  0  0  0  0  0  0  0  0
   36.4270   29.6590   38.5290 C   0  0  0  0  0  0  0  0  0  0  0  0
   37.0470   30.4970   37.6350 C   0  0  0  0  0  0  0  0  0  0  0  0
   37.4550   31.7680   37.9930 C   0  0  0  0  0  0  0  0  0  0  0  0
   37.2200   32.1830   39.3040 C   0  0  0  0  0  0  0  0  0  0  0  0
   37.7110   33.7840   39.7990 Cl  0  0  0  0  0  0  0  0  0  0  0  0
   36.6040   31.3780   40.2350 C   0  0  0  0  0  0  0  0  0  0  0  0
   37.2010   30.1200   36.6330 H   0  0  0  0  0  0  0  0  0  0  0  0
   37.9420   32.4260   37.2900 H   0  0  0  0  0  0  0  0  0  0  0  0
   36.4180   31.6930   41.2570 H   0  0  0  0  0  0  0  0  0  0  0  0
   36.7180   24.8410   39.2990 C   0  0  0  0  0  0  0  0  0  0  0  0
   36.8740   24.8200   40.6740 C   0  0  0  0  0  0  0  0  0  0  0  0
   36.5270   25.6280   41.3040 H   0  0  0  0  0  0  0  0  0  0  0  0
   37.4770   23.7650   41.2540 C   0  0  0  0  0  3  0  0  0  0  0  0
   37.9470   22.6870   40.4800 C   0  0  0  0  0  3  0  0  0  0  0  0
   37.4730   23.2530   38.7420 S   0  0  0  0  0  0  0  0  0  0  0  0
  1  2  2  0  0  0  0
  1  6  1  0  0  0  0
  2  3  1  0  0  0  0
  3 11  1  0  0  0  0
  3  4  2  0  0  0  0
  5  4  1  0  0  0  0
  5 20  1  0  0  0  0
  6  5  2  0  0  0  0
  7  1  1  0  0  0  0
  8  2  1  0  0  0  0
 10 16  1  0  0  0  0
 10  9  1  0  0  0  0
 11 10  2  0  0  0  0
 12 13  2  0  0  0  0
 12 11  1  0  0  0  0
 13 14  1  0  0  0  0
 14 15  1  0  0  0  0
 14 16  2  0  0  0  0
 16 19  1  0  0  0  0
 17 12  1  0  0  0  0
 18 13  1  0  0  0  0
 20 21  2  0  0  0  0
 21 23  1  0  0  0  0
 21 22  1  0  0  0  0
 24 23  2  0  0  0  0
 25 20  1  0  0  0  0
 25 24  1  0  0  0  0
M  END
>  <minimizedAffinity>
-4.84852266

$$$$

 OpenBabel03242522243D

 25 27  0  0  0  0  0  0  0  0999 V2000
   39.2880   26.6860   43.5840 C   0  0  0  0  0  0  0  0  0  0  0  0
   38.9500   27.9270   43.0300 C   0  0  0  0  0  0  0  0  0  0  0  0
   38.2760   28.0340   41.8290 C   0  0  0  0  0  0  0  0  0  0  0  0
   37.9530   26.8590   41.2050 N   0  0  0  0  0  0  0  0  0  0  0  0
   38.2860   25.6760   41.7530 C   0  0  0  0  0  0  0  0  0  0  0  0
   38.9350   25.5810   42.9100 N   0  0  0  0  0  0  0  0  0  0  0  0
   39.8140   26.6340   44.5230 H   0  0  0  0  0  0  0  0  0  0  0  0
   39.2100   28.8600   43.5330 H   0  0  0  0  0  0  0  0  0  0  0  0
   40.4350   29.1730   40.1950 Cl  0  0  0  0  0  0  0  0  0  0  0  0
   38.8800   29.9490   40.4580 C   0  0  0  0  0  0  0  0  0  0  0  0
   37.9210   29.3290   41.2470 C   0  0  0  0  0  0  0  0  0  0  0  0
   36.7180   29.9680   41.4260 C   0  0  0  0  0  0  0  0  0  0  0  0
   36.4530   31.1950   40.8470 C   0  0  0  0  0  0  0  0  0  0  0  0
   37.4510   31.7750   40.0640 C   0  0  0  0  0  0  0  0  0  0  0  0
   37.1650   33.3290   39.3200 Cl  0  0  0  0  0  0  0  0  0  0  0  0
   38.6710   31.1720   39.8540 C   0  0  0  0  0  0  0  0  0  0  0  0
   35.9840   29.4690   42.0440 H   0  0  0  0  0  0  0  0  0  0  0  0
   35.5080   31.6960   40.9890 H   0  0  0  0  0  0  0  0  0  0  0  0
   39.4530   31.6170   39.2460 H   0  0  0  0  0  0  0  0  0  0  0  0
   37.8830   24.4490   40.9840 C   0  0  0  0  0  0  0  0  0  0  0  0
   38.7570   23.4260   40.6640 C   0  0  0  0  0  0  0  0  0  0  0  0
   39.8000   23.4490   40.9540 H   0  0  0  0  0  0  0  0  0  0  0  0
   38.3070   22.3640   39.9700 C   0  0  0  0  0  3  0  0  0  0  0  0
   36.9590   22.2830   39.5690 C   0  0  0  0  0  3  0  0  0  0  0  0
   36.2760   23.9010   40.2610 S   0  0  0  0  0  0  0  0  0  0  0  0
  1  7  1  0  0  0  0
  2  8  1  0  0  0  0
  2  1  1  0  0  0  0
  3  2  2  0  0  0  0
  4  5  2  0  0  0  0
  4  3  1  0  0  0  0
  5  6  1  0  0  0  0
  6  1  2  0  0  0  0
  9 10  1  0  0  0  0
 10 11  1  0  0  0  0
 11 12  2  0  0  0  0
 11  3  1  0  0  0  0
 12 17  1  0  0  0  0
 13 18  1  0  0  0  0
 13 12  1  0  0  0  0
 14 13  2  0  0  0  0
 15 14  1  0  0  0  0
 16 14  1  0  0  0  0
 16 10  2  0  0  0  0
 19 16  1  0  0  0  0
 20  5  1  0  0  0  0
 21 22  1  0  0  0  0
 21 20  2  0  0  0  0
 23 21  1  0  0  0  0
 24 23  2  0  0  0  0
 24 25  1  0  0  0  0
 25 20  1  0  0  0  0
M  END
>  <minimizedAffinity>
-4.78972054

$$$$

 OpenBabel03242522243D

 25 27  0  0  0  0  0  0  0  0999 V2000
   37.2860   28.1280   43.6570 C   0  0  0  0  0  0  0  0  0  0  0  0
   37.3350   26.9270   42.9390 C   0  0  0  0  0  0  0  0  0  0  0  0
   37.5870   26.8950   41.5810 C   0  0  0  0  0  0  0  0  0  0  0  0
   37.7870   28.1040   40.9700 N   0  0  0  0  0  0  0  0  0  0  0  0
   37.7360   29.2470   41.6770 C   0  0  0  0  0  0  0  0  0  0  0  0
   37.4940   29.2710   42.9840 N   0  0  0  0  0  0  0  0  0  0  0  0
   37.0880   28.1220   44.7160 H   0  0  0  0  0  0  0  0  0  0  0  0
   37.1740   25.9660   43.4320 H   0  0  0  0  0  0  0  0  0  0  0  0
   40.2910   25.7510   41.4660 Cl  0  0  0  0  0  0  0  0  0  0  0  0
   38.8770   25.0250   40.7150 C   0  0  0  0  0  0  0  0  0  0  0  0
   37.6390   25.6420   40.8270 C   0  0  0  0  0  0  0  0  0  0  0  0
   36.5600   25.0410   40.2260 C   0  0  0  0  0  0  0  0  0  0  0  0
   36.6840   23.8570   39.5240 C   0  0  0  0  0  0  0  0  0  0  0  0
   37.9510   23.2780   39.4420 C   0  0  0  0  0  0  0  0  0  0  0  0
   38.1580   21.7860   38.5570 Cl  0  0  0  0  0  0  0  0  0  0  0  0
   39.0610   23.8420   40.0280 C   0  0  0  0  0  0  0  0  0  0  0  0
   35.6040   25.5380   40.3240 H   0  0  0  0  0  0  0  0  0  0  0  0
   35.8360   23.3860   39.0520 H   0  0  0  0  0  0  0  0  0  0  0  0
   40.0500   23.3980   39.9690 H   0  0  0  0  0  0  0  0  0  0  0  0
   37.9720   30.5170   40.9060 C   0  0  0  0  0  0  0  0  0  0  0  0
   36.9700   31.4190   40.5970 C   0  0  0  0  0  0  0  0  0  0  0  0
   35.9420   31.2620   40.8960 H   0  0  0  0  0  0  0  0  0  0  0  0
   37.2740   32.5310   39.9010 C   0  0  0  0  0  3  0  0  0  0  0  0
   38.5960   32.7850   39.4880 C   0  0  0  0  0  3  0  0  0  0  0  0
   39.4880   31.2680   40.1710 S   0  0  0  0  0  0  0  0  0  0  0  0
  1  7  1  0  0  0  0
  2  8  1  0  0  0  0
  2  1  2  0  0  0  0
  3  2  1  0  0  0  0
  4  3  2  0  0  0  0
  4  5  1  0  0  0  0
  5  6  2  0  0  0  0
  6  1  1  0  0  0  0
 10 11  1  0  0  0  0
 10  9  1  0  0  0  0
 11  3  1  0  0  0  0
 12 17  1  0  0  0  0
 12 11  2  0  0  0  0
 13 12  1  0  0  0  0
 14 13  2  0  0  0  0
 14 16  1  0  0  0  0
 15 14  1  0  0  0  0
 16 10  2  0  0  0  0
 18 13  1  0  0  0  0
 19 16  1  0  0  0  0
 20  5  1  0  0  0  0
 21 22  1  0  0  0  0
 21 20  2  0  0  0  0
 23 21  1  0  0  0  0
 24 23  2  0  0  0  0
 24 25  1  0  0  0  0
 25 20  1  0  0  0  0
M  END
>  <minimizedAffinity>
-4.77438974

$$$$
