
 OpenBabel03252507553D

 41 44  0  0  1  0  0  0  0  0999 V2000
   47.1390   34.8070   42.0110 C   0  0  2  0  0  0  0  0  0  0  0  0
   46.3710   34.2920   40.7930 C   0  0  0  0  0  0  0  0  0  0  0  0
   47.5680   34.1340   39.8330 C   0  0  0  0  0  0  0  0  0  0  0  0
   48.6980   33.6770   40.7020 C   0  0  1  0  0  0  0  0  0  0  0  0
   48.1870   33.7320   42.1110 C   0  0  0  0  0  0  0  0  0  0  0  0
   47.5640   35.7790   41.7440 H   0  0  0  0  0  0  0  0  0  0  0  0
   45.9720   33.2920   40.9920 H   0  0  0  0  0  0  0  0  0  0  0  0
   45.6560   35.0230   40.4070 H   0  0  0  0  0  0  0  0  0  0  0  0
   47.8220   35.1520   39.4530 H   0  0  0  0  0  0  0  0  0  0  0  0
   47.3220   33.4200   39.0290 H   0  0  0  0  0  0  0  0  0  0  0  0
   49.5940   34.3330   40.6300 H   0  0  0  0  0  0  0  0  0  0  0  0
   48.9610   34.0920   42.8230 H   0  0  0  0  0  0  0  0  0  0  0  0
   47.7120   32.7880   42.4370 H   0  0  0  0  0  0  0  0  0  0  0  0
   44.5640   35.8070   44.5710 C   0  0  0  0  0  0  0  0  0  0  0  0
   45.2960   35.8450   43.3750 C   0  0  0  0  0  0  0  0  0  0  0  0
   46.2730   34.8670   43.2180 C   0  0  0  0  0  0  0  0  0  0  0  0
   46.4960   33.9060   44.2160 N   0  0  0  0  0  0  0  0  0  0  0  0
   45.7510   33.9280   45.3500 C   0  0  0  0  0  0  0  0  0  0  0  0
   44.7910   34.8760   45.5210 N   0  0  0  0  0  0  0  0  0  0  0  0
   43.7960   36.5570   44.7210 H   0  0  0  0  0  0  0  0  0  0  0  0
   45.1490   36.5660   42.5960 H   0  0  0  0  0  0  0  0  0  0  0  0
   46.0180   33.1400   46.0370 H   0  0  0  0  0  0  0  0  0  0  0  0
   49.1500   32.2570   40.4450 C   0  0  2  0  0  0  0  0  0  0  0  0
   50.3520   31.8340   41.1560 C   0  0  0  0  0  0  0  0  0  0  0  0
   50.3580   31.9650   39.6710 C   0  0  1  0  0  0  0  0  0  0  0  0
   48.3170   31.5360   40.3690 H   0  0  0  0  0  0  0  0  0  0  0  0
   50.8770   32.5460   41.7960 H   0  0  0  0  0  0  0  0  0  0  0  0
   50.3400   30.8050   41.6180 H   0  0  0  0  0  0  0  0  0  0  0  0
   50.8820   32.8160   39.2130 H   0  0  0  0  0  0  0  0  0  0  0  0
   50.3690   30.7730   38.9080 O   0  0  0  0  0  0  0  0  0  0  0  0
   50.8300   30.8970   36.3470 O   0  0  0  0  0  0  0  0  0  0  0  0
   51.5150   30.9330   37.6930 P   0  0  1  0  0  0  0  0  0  0  0  0
   52.2950   32.4570   37.8260 O   0  0  0  0  0  0  0  0  0  0  0  0
   52.7920   32.4460   38.7010 H   0  0  0  0  0  0  0  0  0  0  0  0
   52.7170   29.7880   37.7030 O   0  0  0  0  0  0  0  0  0  0  0  0
   53.8860   30.0310   36.9870 C   0  0  0  0  0  0  0  0  0  0  0  0
   55.0690   30.6410   37.2040 C   0  0  0  0  0  0  0  0  0  0  0  0
   55.1280   31.0560   38.2000 H   0  0  0  0  0  0  0  0  0  0  0  0
   56.0230   30.6960   36.2490 C   0  0  0  0  0  3  0  0  0  0  0  0
   55.6880   30.0720   35.0300 C   0  0  0  0  0  3  0  0  0  0  0  0
   53.9450   29.4240   35.3610 S   0  0  0  0  0  0  0  0  0  0  0  0
  1  6  1  6  0  0  0
  1  5  1  0  0  0  0
  1 16  1  0  0  0  0
  2  7  1  0  0  0  0
  2  1  1  0  0  0  0
  3  4  1  0  0  0  0
  3  2  1  0  0  0  0
  4 11  1  6  0  0  0
  4  5  1  0  0  0  0
  5 13  1  0  0  0  0
  5 12  1  0  0  0  0
  8  2  1  0  0  0  0
  9  3  1  0  0  0  0
 10  3  1  0  0  0  0
 14 20  1  0  0  0  0
 14 19  1  0  0  0  0
 15 14  2  0  0  0  0
 16 15  1  0  0  0  0
 16 17  2  0  0  0  0
 17 18  1  0  0  0  0
 18 19  2  0  0  0  0
 18 22  1  0  0  0  0
 21 15  1  0  0  0  0
 23 26  1  6  0  0  0
 23  4  1  0  0  0  0
 23 24  1  0  0  0  0
 24 28  1  0  0  0  0
 24 27  1  0  0  0  0
 25 29  1  6  0  0  0
 25 23  1  0  0  0  0
 25 24  1  0  0  0  0
 30 25  1  0  0  0  0
 32 31  2  6  0  0  0
 32 35  1  0  0  0  0
 32 33  1  0  0  0  0
 32 30  1  0  0  0  0
 33 34  1  0  0  0  0
 36 37  2  0  0  0  0
 36 35  1  0  0  0  0
 37 38  1  0  0  0  0
 39 37  1  0  0  0  0
 40 41  1  0  0  0  0
 40 39  2  0  0  0  0
 41 36  1  0  0  0  0
M  END
>  <minimizedAffinity>
-5.50232744

>  <minimizedRMSD>
1.65640736

$$$$
