
 OpenBabel03252508073D

 41 44  0  0  0  0  0  0  0  0999 V2000
   45.2170   35.8700   43.0060 C   0  0  0  0  0  0  0  0  0  0  0  0
   45.4870   34.5110   43.0400 C   0  0  0  0  0  0  0  0  0  0  0  0
   45.2970   33.8000   44.2000 C   0  0  0  0  0  0  0  0  0  0  0  0
   44.8330   34.4990   45.2950 N   0  0  0  0  0  0  0  0  0  0  0  0
   44.5740   35.8050   45.2610 C   0  0  0  0  0  0  0  0  0  0  0  0
   44.7700   36.4810   44.1100 N   0  0  0  0  0  0  0  0  0  0  0  0
   45.3700   36.4390   42.0800 H   0  0  0  0  0  0  0  0  0  0  0  0
   44.2130   36.3030   46.1470 H   0  0  0  0  0  0  0  0  0  0  0  0
   45.5250   32.4180   44.3930 C   0  0  0  0  0  0  0  0  0  0  0  0
   45.0760   31.4200   43.5260 C   0  0  0  0  0  0  0  0  0  0  0  0
   45.2390   30.0780   43.7460 C   0  0  0  0  0  0  0  0  0  0  0  0
   45.8810   29.6470   44.8800 C   0  0  0  0  0  0  0  0  0  0  0  0
   46.3510   30.6500   45.7820 C   0  0  0  0  0  0  0  0  0  0  0  0
   46.9910   30.2230   46.9160 C   0  0  0  0  0  0  0  0  0  0  0  0
   47.4710   31.1420   47.8260 C   0  0  0  0  0  0  0  0  0  0  0  0
   47.3000   32.5110   47.5790 C   0  0  0  0  0  0  0  0  0  0  0  0
   46.6370   32.8960   46.4020 C   0  0  0  0  0  0  0  0  0  0  0  0
   46.1640   31.9680   45.5150 C   0  0  0  0  0  0  0  0  0  0  0  0
   44.5640   31.7100   42.6190 H   0  0  0  0  0  0  0  0  0  0  0  0
   44.8590   29.3590   43.0180 H   0  0  0  0  0  0  0  0  0  0  0  0
   46.0150   28.6070   45.0670 H   0  0  0  0  0  0  0  0  0  0  0  0
   47.1140   29.1590   47.0870 H   0  0  0  0  0  0  0  0  0  0  0  0
   47.9680   30.7400   48.7050 H   0  0  0  0  0  0  0  0  0  0  0  0
   47.7080   33.1410   48.3430 H   0  0  0  0  0  0  0  0  0  0  0  0
   46.6260   33.9650   46.3830 H   0  0  0  0  0  0  0  0  0  0  0  0
   45.9370   33.9370   41.8820 O   0  0  0  0  0  0  0  0  0  0  0  0
   47.9580   32.3070   41.5420 O   0  0  0  0  0  0  0  0  0  0  0  0
   47.5720   33.7440   41.4820 P   0  0  1  0  0  0  0  0  0  0  0  0
   47.8670   34.2680   39.9000 O   0  0  0  0  0  0  0  0  0  0  0  0
   48.4420   33.4000   38.9290 C   0  0  0  0  0  0  0  0  0  0  0  0
   49.2040   32.2110   38.6920 C   0  0  0  0  0  0  0  0  0  0  0  0
   49.4250   31.8290   39.6680 H   0  0  0  0  0  0  0  0  0  0  0  0
   49.4000   31.9490   37.3680 C   0  0  0  0  0  3  0  0  0  0  0  0
   48.9300   32.7240   36.3670 C   0  0  0  0  0  3  0  0  0  0  0  0
   48.0650   34.0550   37.1920 S   0  0  0  0  0  0  0  0  0  0  0  0
   48.4890   34.6650   42.5400 O   0  0  0  0  0  0  0  0  0  0  0  0
   49.7000   35.2820   42.2670 C   0  0  0  0  0  0  0  0  0  0  0  0
   49.3900   36.3560   41.7170 O   0  0  0  0  0  0  0  0  0  0  0  0
   50.8010   34.4670   42.7110 N   0  0  0  0  0  0  0  0  0  0  0  0
   51.5240   33.9420   42.1650 H   0  0  0  0  0  0  0  0  0  0  0  0
   50.9180   34.3680   43.7440 H   0  0  0  0  0  0  0  0  0  0  0  0
  1  2  2  0  0  0  0
  1  6  1  0  0  0  0
  2  3  1  0  0  0  0
  3  9  1  0  0  0  0
  3  4  2  0  0  0  0
  5  4  1  0  0  0  0
  5  8  1  0  0  0  0
  6  5  2  0  0  0  0
  7  1  1  0  0  0  0
  9 18  1  0  0  0  0
 10 11  1  0  0  0  0
 10  9  2  0  0  0  0
 11 12  2  0  0  0  0
 12 21  1  0  0  0  0
 12 13  1  0  0  0  0
 13 14  1  0  0  0  0
 14 22  1  0  0  0  0
 14 15  2  0  0  0  0
 15 23  1  0  0  0  0
 16 15  1  0  0  0  0
 16 24  1  0  0  0  0
 17 16  2  0  0  0  0
 18 13  2  0  0  0  0
 18 17  1  0  0  0  0
 19 10  1  0  0  0  0
 20 11  1  0  0  0  0
 25 17  1  0  0  0  0
 26  2  1  0  0  0  0
 28 27  2  1  0  0  0
 28 26  1  0  0  0  0
 28 36  1  0  0  0  0
 29 28  1  0  0  0  0
 30 29  1  0  0  0  0
 31 30  2  0  0  0  0
 31 32  1  0  0  0  0
 33 31  1  0  0  0  0
 34 35  1  0  0  0  0
 34 33  2  0  0  0  0
 35 30  1  0  0  0  0
 37 36  1  0  0  0  0
 37 39  1  0  0  0  0
 38 37  2  0  0  0  0
 39 41  1  0  0  0  0
 40 39  1  0  0  0  0
M  END
>  <minimizedAffinity>
-6.06001902

>  <minimizedRMSD>
0.743091047

$$$$
