
 OpenBabel03242519373D

 24 25  0  0  0  0  0  0  0  0999 V2000
   48.3900   32.8830   41.2800 O   0  0  0  0  0  0  0  0  0  0  0  0
   47.2320   33.8760   41.2330 P   0  0  2  0  0  0  0  0  0  0  0  0
   45.9240   33.2470   42.1400 O   0  0  0  0  0  0  0  0  0  0  0  0
   44.3990   35.8300   44.2680 C   0  0  0  0  0  0  0  0  0  0  0  0
   44.8120   35.1380   43.1060 C   0  0  0  0  0  0  0  0  0  0  0  0
   45.5120   33.9370   43.2920 C   0  0  0  0  0  0  0  0  0  0  0  0
   45.7600   33.4950   44.5520 N   0  0  0  0  0  0  0  0  0  0  0  0
   45.3480   34.1860   45.6330 C   0  0  0  0  0  0  0  0  0  0  0  0
   44.6710   35.3470   45.5010 N   0  0  0  0  0  0  0  0  0  0  0  0
   43.8740   36.7310   44.0530 H   0  0  0  0  0  0  0  0  0  0  0  0
   44.6030   35.5090   42.1200 H   0  0  0  0  0  0  0  0  0  0  0  0
   45.6010   33.7400   46.5780 H   0  0  0  0  0  0  0  0  0  0  0  0
   46.6990   34.1620   39.6680 O   0  0  0  0  0  0  0  0  0  0  0  0
   47.2090   33.4570   38.5630 C   0  0  0  0  0  0  0  0  0  0  0  0
   46.9730   32.1290   38.1850 C   0  0  0  0  0  0  0  0  0  0  0  0
   46.3150   31.5560   38.8170 H   0  0  0  0  0  0  0  0  0  0  0  0
   47.6210   31.7340   37.0460 C   0  0  0  0  0  0  0  0  0  0  0  0
   48.4090   32.5650   36.3670 C   0  0  0  0  0  0  0  0  0  0  0  0
   48.3760   34.1220   37.2500 S   0  0  0  0  0  0  0  0  0  0  0  0
   47.7450   35.2960   41.9600 O   0  0  0  0  0  0  0  0  0  0  0  0
   48.9770   35.7350   41.5140 C   0  0  0  0  0  0  0  0  0  0  0  0
   49.2910   37.0210   41.9150 F   0  0  0  0  0  0  0  0  0  0  0  0
   49.9450   34.8050   41.8500 F   0  0  0  0  0  0  0  0  0  0  0  0
   48.8860   35.7520   40.1210 F   0  0  0  0  0  0  0  0  0  0  0  0
  2  1  2  6  0  0  0
  2 20  1  0  0  0  0
  2  3  1  0  0  0  0
  3  6  1  0  0  0  0
  4  9  1  0  0  0  0
  5  6  1  0  0  0  0
  5  4  2  0  0  0  0
  6  7  2  0  0  0  0
  7  8  1  0  0  0  0
  8 12  1  0  0  0  0
  9  8  2  0  0  0  0
 10  4  1  0  0  0  0
 11  5  1  0  0  0  0
 13  2  1  0  0  0  0
 14 13  1  0  0  0  0
 15 14  2  0  0  0  0
 15 16  1  0  0  0  0
 17 15  1  0  0  0  0
 18 17  2  0  0  0  0
 18 19  1  0  0  0  0
 19 14  1  0  0  0  0
 21 23  1  0  0  0  0
 21 22  1  0  0  0  0
 21 20  1  0  0  0  0
 24 21  1  0  0  0  0
M  END
>  <minimizedAffinity>
-5.1078167

>  <minimizedRMSD>
0.7086429

$$$$
