
 OpenBabel03252507043D

 44 47  0  0  0  0  0  0  0  0999 V2000
   41.8750   31.4860   42.0610 C   0  0  0  0  0  0  0  0  0  0  0  0
   41.4110   32.1060   42.8570 H   0  0  0  0  0  0  0  0  0  0  0  0
   41.7860   32.1450   41.1310 H   0  0  0  0  0  0  0  0  0  0  0  0
   41.2950   30.2880   41.9150 N   0  0  0  0  0  0  0  0  0  0  0  0
   41.3630   29.1830   42.8220 C   0  0  0  0  0  0  0  0  0  0  0  0
   39.9550   29.2800   43.4120 C   0  0  0  0  0  0  0  0  0  0  0  0
   38.8970   29.1370   42.4270 C   0  0  0  0  0  0  0  0  0  0  0  0
   39.1730   29.4690   41.0470 C   0  0  0  0  0  0  0  0  0  0  0  0
   40.4810   30.1290   40.6930 C   0  0  0  0  0  0  0  0  0  0  0  0
   42.0860   29.4350   43.6320 H   0  0  0  0  0  0  0  0  0  0  0  0
   41.5630   28.2000   42.4330 H   0  0  0  0  0  0  0  0  0  0  0  0
   39.9080   30.3040   43.8650 H   0  0  0  0  0  0  0  0  0  0  0  0
   39.8930   28.5700   44.2590 H   0  0  0  0  0  0  0  0  0  0  0  0
   38.5230   28.0740   42.4430 H   0  0  0  0  0  0  0  0  0  0  0  0
   37.9950   29.7300   42.7560 H   0  0  0  0  0  0  0  0  0  0  0  0
   38.5240   29.3110   40.2400 H   0  0  0  0  0  0  0  0  0  0  0  0
   40.9090   30.6370   39.1040 S   0  0  0  0  0  0  0  0  0  0  0  0
   40.5370   32.1950   38.6300 C   0  0  0  0  0  0  0  0  0  0  0  0
   40.7750   33.5310   38.4190 C   0  0  0  0  0  0  0  0  0  0  0  0
   41.7710   33.7320   38.7190 H   0  0  0  0  0  0  0  0  0  0  0  0
   39.8630   34.3920   37.9120 C   0  0  0  0  0  3  0  0  0  0  0  0
   38.5420   33.8250   37.5790 C   0  0  0  0  0  3  0  0  0  0  0  0
   38.8160   32.0150   38.0720 S   0  0  0  0  0  0  0  0  0  0  0  0
   43.3360   31.4150   42.3160 C   0  0  0  0  0  0  0  0  0  0  0  0
   43.8420   30.5740   41.7980 H   0  0  0  0  0  0  0  0  0  0  0  0
   43.4810   31.2230   43.3990 H   0  0  0  0  0  0  0  0  0  0  0  0
   43.9250   32.7290   42.0000 C   0  0  0  0  0  0  0  0  0  0  0  0
   43.1290   33.7630   41.5560 C   0  0  0  0  0  0  0  0  0  0  0  0
   43.7360   34.9740   41.2630 C   0  0  0  0  0  0  0  0  0  0  0  0
   45.0910   35.0830   41.4310 N   0  0  0  0  0  0  0  0  0  0  0  0
   45.8210   34.0600   41.8620 C   0  0  0  0  0  0  0  0  0  0  0  0
   45.2190   32.9010   42.1380 N   0  0  0  0  0  0  0  0  0  0  0  0
   42.0750   33.8810   41.3800 H   0  0  0  0  0  0  0  0  0  0  0  0
   43.2800   35.8920   40.9040 H   0  0  0  0  0  0  0  0  0  0  0  0
   47.2580   34.2730   42.0380 C   0  0  0  0  0  0  0  0  0  0  0  0
   48.0410   33.2940   42.6340 C   0  0  0  0  0  0  0  0  0  0  0  0
   49.4000   33.5170   42.8040 C   0  0  0  0  0  0  0  0  0  0  0  0
   49.8480   34.7400   42.3430 C   0  0  0  0  0  0  0  0  0  0  0  0
   49.0940   35.7330   41.7470 C   0  0  0  0  0  0  0  0  0  0  0  0
   47.7780   35.4360   41.6180 N   0  0  0  0  0  0  0  0  0  0  0  0
   47.6280   32.3530   42.9740 H   0  0  0  0  0  0  0  0  0  0  0  0
   50.0860   32.8150   43.2560 H   0  0  0  0  0  0  0  0  0  0  0  0
   50.9100   34.9520   42.4600 H   0  0  0  0  0  0  0  0  0  0  0  0
   49.5260   36.6480   41.4210 H   0  0  0  0  0  0  0  0  0  0  0  0
  1 24  1  0  0  0  0
  1  2  1  0  0  0  0
  3  1  1  0  0  0  0
  4  1  1  0  0  0  0
  4  5  1  0  0  0  0
  5  6  1  0  0  0  0
  5 10  1  0  0  0  0
  6 12  1  0  0  0  0
  6 13  1  0  0  0  0
  7 14  1  0  0  0  0
  7 15  1  0  0  0  0
  7  6  1  0  0  0  0
  8  7  1  0  0  0  0
  9  8  2  0  0  0  0
  9  4  1  0  0  0  0
 11  5  1  0  0  0  0
 16  8  1  0  0  0  0
 17  9  1  0  0  0  0
 18 17  1  0  0  0  0
 19 18  2  0  0  0  0
 19 20  1  0  0  0  0
 21 19  1  0  0  0  0
 22 21  2  0  0  0  0
 22 23  1  0  0  0  0
 23 18  1  0  0  0  0
 24 26  1  0  0  0  0
 25 24  1  0  0  0  0
 27 32  1  0  0  0  0
 27 24  1  0  0  0  0
 28 27  2  0  0  0  0
 29 30  2  0  0  0  0
 29 28  1  0  0  0  0
 30 31  1  0  0  0  0
 31 35  1  0  0  0  0
 31 32  2  0  0  0  0
 33 28  1  0  0  0  0
 34 29  1  0  0  0  0
 35 36  1  0  0  0  0
 36 37  2  0  0  0  0
 36 41  1  0  0  0  0
 37 42  1  0  0  0  0
 38 43  1  0  0  0  0
 38 37  1  0  0  0  0
 39 38  2  0  0  0  0
 40 39  1  0  0  0  0
 40 35  2  0  0  0  0
 44 39  1  0  0  0  0
M  END
>  <minimizedAffinity>
-5.04530811

>  <minimizedRMSD>
3.30148983

$$$$
