
 OpenBabel03252507033D

 44 47  0  0  0  0  0  0  0  0999 V2000
   41.9880   32.7320   41.9940 C   0  0  0  0  0  0  0  0  0  0  0  0
   41.6680   32.4440   43.0180 H   0  0  0  0  0  0  0  0  0  0  0  0
   42.1060   33.8670   42.0660 H   0  0  0  0  0  0  0  0  0  0  0  0
   41.1270   32.3510   41.0420 N   0  0  0  0  0  0  0  0  0  0  0  0
   40.4580   31.0900   40.9400 C   0  0  0  0  0  0  0  0  0  0  0  0
   39.0620   31.5310   41.3820 C   0  0  0  0  0  0  0  0  0  0  0  0
   38.4740   32.5510   40.5310 C   0  0  0  0  0  0  0  0  0  0  0  0
   39.3450   33.4190   39.7710 C   0  0  0  0  0  0  0  0  0  0  0  0
   40.8320   33.3730   40.0180 C   0  0  0  0  0  0  0  0  0  0  0  0
   40.8620   30.4120   41.7270 H   0  0  0  0  0  0  0  0  0  0  0  0
   40.4330   30.5870   39.9890 H   0  0  0  0  0  0  0  0  0  0  0  0
   39.2080   31.9440   42.4130 H   0  0  0  0  0  0  0  0  0  0  0  0
   38.4430   30.6210   41.5040 H   0  0  0  0  0  0  0  0  0  0  0  0
   37.7750   32.0570   39.7970 H   0  0  0  0  0  0  0  0  0  0  0  0
   37.7830   33.1990   41.1440 H   0  0  0  0  0  0  0  0  0  0  0  0
   39.0360   34.1170   39.0530 H   0  0  0  0  0  0  0  0  0  0  0  0
   41.9740   34.3960   39.2320 S   0  0  0  0  0  0  0  0  0  0  0  0
   41.4350   35.4380   38.0420 C   0  0  0  0  0  0  0  0  0  0  0  0
   40.5030   36.1400   37.3210 C   0  0  0  0  0  0  0  0  0  0  0  0
   39.5480   35.9200   37.7270 H   0  0  0  0  0  0  0  0  0  0  0  0
   40.8020   36.9560   36.2840 C   0  0  0  0  0  3  0  0  0  0  0  0
   42.2330   37.0730   35.9380 C   0  0  0  0  0  3  0  0  0  0  0  0
   42.9920   35.9200   37.2350 S   0  0  0  0  0  0  0  0  0  0  0  0
   43.3710   32.2360   41.7800 C   0  0  0  0  0  0  0  0  0  0  0  0
   43.5360   31.7810   40.7820 H   0  0  0  0  0  0  0  0  0  0  0  0
   43.5540   31.4200   42.5080 H   0  0  0  0  0  0  0  0  0  0  0  0
   44.3070   33.3350   42.0780 C   0  0  0  0  0  0  0  0  0  0  0  0
   43.8350   34.5960   42.3710 C   0  0  0  0  0  0  0  0  0  0  0  0
   44.7580   35.5950   42.6330 C   0  0  0  0  0  0  0  0  0  0  0  0
   46.0900   35.2800   42.5900 N   0  0  0  0  0  0  0  0  0  0  0  0
   46.5040   34.0510   42.3040 C   0  0  0  0  0  0  0  0  0  0  0  0
   45.5990   33.1020   42.0530 N   0  0  0  0  0  0  0  0  0  0  0  0
   42.8560   35.0300   42.4700 H   0  0  0  0  0  0  0  0  0  0  0  0
   44.5790   36.6380   42.8790 H   0  0  0  0  0  0  0  0  0  0  0  0
   47.9450   33.7960   42.3050 C   0  0  0  0  0  0  0  0  0  0  0  0
   48.4260   32.5060   42.1390 C   0  0  0  0  0  0  0  0  0  0  0  0
   49.7950   32.2800   42.1560 C   0  0  0  0  0  0  0  0  0  0  0  0
   50.5660   33.4120   42.3430 C   0  0  0  0  0  0  0  0  0  0  0  0
   50.1160   34.7080   42.5110 C   0  0  0  0  0  0  0  0  0  0  0  0
   48.7680   34.8410   42.4820 N   0  0  0  0  0  0  0  0  0  0  0  0
   47.7680   31.6580   41.9940 H   0  0  0  0  0  0  0  0  0  0  0  0
   50.2600   31.3120   42.0340 H   0  0  0  0  0  0  0  0  0  0  0  0
   51.6460   33.2750   42.3630 H   0  0  0  0  0  0  0  0  0  0  0  0
   50.7860   35.5220   42.6510 H   0  0  0  0  0  0  0  0  0  0  0  0
  1  3  1  0  0  0  0
  1  2  1  0  0  0  0
  4  1  1  0  0  0  0
  5  4  1  0  0  0  0
  5  6  1  0  0  0  0
  5 10  1  0  0  0  0
  6 13  1  0  0  0  0
  6 12  1  0  0  0  0
  7 15  1  0  0  0  0
  7  6  1  0  0  0  0
  8  9  2  0  0  0  0
  8  7  1  0  0  0  0
  9  4  1  0  0  0  0
 11  5  1  0  0  0  0
 14  7  1  0  0  0  0
 16  8  1  0  0  0  0
 17  9  1  0  0  0  0
 18 17  1  0  0  0  0
 19 20  1  0  0  0  0
 19 18  2  0  0  0  0
 21 19  1  0  0  0  0
 22 21  2  0  0  0  0
 22 23  1  0  0  0  0
 23 18  1  0  0  0  0
 24  1  1  0  0  0  0
 24 27  1  0  0  0  0
 24 26  1  0  0  0  0
 25 24  1  0  0  0  0
 27 28  1  0  0  0  0
 28 33  1  0  0  0  0
 28 29  2  0  0  0  0
 29 34  1  0  0  0  0
 30 29  1  0  0  0  0
 31 35  1  0  0  0  0
 31 30  2  0  0  0  0
 32 27  2  0  0  0  0
 32 31  1  0  0  0  0
 35 40  1  0  0  0  0
 36 37  1  0  0  0  0
 36 35  2  0  0  0  0
 37 38  2  0  0  0  0
 38 43  1  0  0  0  0
 38 39  1  0  0  0  0
 39 44  1  0  0  0  0
 40 39  2  0  0  0  0
 41 36  1  0  0  0  0
 42 37  1  0  0  0  0
M  END
>  <minimizedAffinity>
-3.68800521

>  <minimizedRMSD>
1.04030919

$$$$
