
 OpenBabel03252501373D

 32 34  0  0  0  0  0  0  0  0999 V2000
   43.7770   35.2950   40.7960 O   0  0  0  0  0  0  0  0  0  0  0  0
   43.4460   32.9910   39.0010 Cl  0  0  0  0  0  0  0  0  0  0  0  0
   42.1670   33.9500   39.7150 C   0  0  0  0  0  0  0  0  0  0  0  0
   42.4400   35.0200   40.5430 C   0  0  0  0  0  0  0  0  0  0  0  0
   41.4200   35.7550   41.0770 C   0  0  0  0  0  0  0  0  0  0  0  0
   40.0810   35.4800   40.8250 C   0  0  0  0  0  0  0  0  0  0  0  0
   39.7920   34.3940   39.9830 C   0  0  0  0  0  0  0  0  0  0  0  0
   38.1200   34.0330   39.6280 Cl  0  0  0  0  0  0  0  0  0  0  0  0
   40.8370   33.6800   39.4680 C   0  0  0  0  0  0  0  0  0  0  0  0
   41.6050   36.5890   41.7230 H   0  0  0  0  0  0  0  0  0  0  0  0
   39.2890   36.0630   41.2480 H   0  0  0  0  0  0  0  0  0  0  0  0
   40.6270   32.5130   38.5680 C   0  0  0  0  0  0  0  0  0  0  0  0
   41.4780   31.6250   38.1930 C   0  0  0  0  0  0  0  0  0  0  0  0
   42.5140   31.4270   38.3730 H   0  0  0  0  0  0  0  0  0  0  0  0
   41.2360   30.5860   37.3660 C   0  0  0  0  0  0  0  0  0  0  0  0
   39.8400   30.5690   36.9150 C   0  0  0  0  0  0  0  0  0  0  0  0
   39.1410   32.0840   37.7890 S   0  0  0  0  0  0  0  0  0  0  0  0
   44.3990   34.7030   41.9120 C   0  0  0  0  0  0  0  0  0  0  0  0
   44.2170   33.4980   42.3100 O   0  0  0  0  0  0  0  0  0  0  0  0
   45.3220   35.4300   42.7230 N   0  0  0  0  0  0  0  0  0  0  0  0
   45.5550   36.3920   42.4800 H   0  0  0  0  0  0  0  0  0  0  0  0
   45.7630   34.5650   43.8090 C   0  0  0  0  0  0  0  0  0  0  0  0
   45.2270   34.5660   45.0670 C   0  0  0  0  0  0  0  0  0  0  0  0
   45.7760   33.6710   45.9600 C   0  0  0  0  0  0  0  0  0  0  0  0
   46.7790   32.8770   45.5430 N   0  0  0  0  0  0  0  0  0  0  0  0
   47.2750   32.9090   44.2970 C   0  0  0  0  0  0  0  0  0  0  0  0
   46.7590   33.7770   43.3910 N   0  0  0  0  0  0  0  0  0  0  0  0
   45.3560   33.6630   46.9650 H   0  0  0  0  0  0  0  0  0  0  0  0
   48.0770   32.2290   44.0750 H   0  0  0  0  0  0  0  0  0  0  0  0
   44.1750   35.4690   45.3280 N   0  0  0  0  0  0  0  0  0  0  0  0
   44.5600   36.2770   45.8930 H   0  0  0  0  0  0  0  0  0  0  0  0
   43.1750   35.4070   45.0400 H   0  0  0  0  0  0  0  0  0  0  0  0
  1 18  1  0  0  0  0
  2  3  1  0  0  0  0
  3  4  1  0  0  0  0
  4  1  1  0  0  0  0
  4  5  2  0  0  0  0
  5 10  1  0  0  0  0
  6  5  1  0  0  0  0
  6 11  1  0  0  0  0
  7  6  2  0  0  0  0
  8  7  1  0  0  0  0
  9  3  2  0  0  0  0
  9  7  1  0  0  0  0
 12  9  1  0  0  0  0
 13 14  1  0  0  0  0
 13 12  2  0  0  0  0
 15 13  1  0  0  0  0
 16 15  2  0  0  0  0
 16 17  1  0  0  0  0
 17 12  1  0  0  0  0
 18 19  2  0  0  0  0
 18 20  1  0  0  0  0
 20 22  1  0  0  0  0
 21 20  1  0  0  0  0
 22 23  1  0  0  0  0
 23 30  1  0  0  0  0
 23 24  2  0  0  0  0
 24 28  1  0  0  0  0
 25 24  1  0  0  0  0
 26 25  2  0  0  0  0
 27 22  2  0  0  0  0
 27 26  1  0  0  0  0
 29 26  1  0  0  0  0
 30 31  1  0  0  0  0
 32 30  1  0  0  0  0
M  END
>  <minimizedAffinity>
-6.07796049

>  <minimizedRMSD>
0.610396802

$$$$
