
 OpenBabel03242523543D

 42 45  0  0  1  0  0  0  0  0999 V2000
   42.8150   34.5000   38.7660 C   0  0  1  0  0  0  0  0  0  0  0  0
   42.9570   35.1820   40.1180 C   0  0  1  0  0  0  0  0  0  0  0  0
   41.6700   35.4220   40.6310 O   0  0  0  0  0  0  0  0  0  0  0  0
   40.7460   35.7500   39.6360 C   0  0  0  0  0  0  0  0  0  0  0  0
   40.4340   34.5630   38.7430 C   0  0  2  0  0  0  0  0  0  0  0  0
   41.6470   33.5780   38.8870 C   0  0  1  0  0  0  0  0  0  0  0  0
   43.7600   33.9630   38.4970 H   0  0  0  0  0  0  0  0  0  0  0  0
   43.5550   36.1050   40.0770 H   0  0  0  0  0  0  0  0  0  0  0  0
   39.8210   36.0220   40.1550 H   0  0  0  0  0  0  0  0  0  0  0  0
   41.0620   36.6370   39.0520 H   0  0  0  0  0  0  0  0  0  0  0  0
   39.5030   34.0560   39.0370 H   0  0  0  0  0  0  0  0  0  0  0  0
   41.4320   33.3130   39.9760 H   0  0  0  0  0  0  0  0  0  0  0  0
   42.6020   35.4400   37.7480 O   0  0  0  0  0  0  0  0  0  0  0  0
   43.4150   35.9220   37.5300 H   0  0  0  0  0  0  0  0  0  0  0  0
   40.4500   34.9630   37.4150 O   0  0  0  0  0  0  0  0  0  0  0  0
   39.5300   35.1720   37.0810 H   0  0  0  0  0  0  0  0  0  0  0  0
   43.4900   34.2050   40.9740 O   0  0  0  0  0  0  0  0  0  0  0  0
   44.6000   34.3480   41.7070 C   0  0  0  0  0  0  0  0  0  0  0  0
   45.8600   34.4440   41.0980 C   0  0  0  0  0  0  0  0  0  0  0  0
   46.9760   34.5930   41.9050 C   0  0  0  0  0  0  0  0  0  0  0  0
   46.8150   34.6420   43.2790 N   0  0  0  0  0  0  0  0  0  0  0  0
   45.5840   34.5460   43.8300 C   0  0  0  0  0  0  0  0  0  0  0  0
   44.4820   34.4000   43.0470 N   0  0  0  0  0  0  0  0  0  0  0  0
   45.9920   34.4070   40.0310 H   0  0  0  0  0  0  0  0  0  0  0  0
   45.5340   34.5920   44.9100 H   0  0  0  0  0  0  0  0  0  0  0  0
   48.3530   34.6860   41.3330 C   0  0  0  0  0  0  0  0  0  0  0  0
   49.0770   36.0220   41.5060 C   0  0  0  0  0  0  0  0  0  0  0  0
   49.5060   34.7020   42.1750 C   0  0  0  0  0  0  0  0  0  0  0  0
   48.4150   34.2920   40.2790 H   0  0  0  0  0  0  0  0  0  0  0  0
   48.6340   36.7560   42.1770 H   0  0  0  0  0  0  0  0  0  0  0  0
   49.7610   36.3420   40.6970 H   0  0  0  0  0  0  0  0  0  0  0  0
   50.4600   34.2380   41.8510 H   0  0  0  0  0  0  0  0  0  0  0  0
   49.3610   34.6430   43.2820 H   0  0  0  0  0  0  0  0  0  0  0  0
   41.5070   32.6240   37.9460 O   0  0  0  0  0  0  0  0  0  0  0  0
   40.8250   31.4810   37.9640 C   0  0  0  0  0  0  0  0  0  0  0  0
   39.6170   31.3530   37.4420 O   0  0  0  0  0  0  0  0  0  0  0  0
   41.1450   30.0320   38.5270 C   0  0  0  0  0  0  0  0  0  0  0  0
   41.3040   28.8890   37.9620 C   0  0  0  0  0  0  0  0  0  0  0  0
   41.2100   28.9000   36.8820 H   0  0  0  0  0  0  0  0  0  0  0  0
   41.5670   27.7890   38.7140 C   0  0  0  0  0  3  0  0  0  0  0  0
   41.6480   27.9910   40.0950 C   0  0  0  0  0  3  0  0  0  0  0  0
   41.3160   29.8810   40.2220 S   0  0  0  0  0  0  0  0  0  0  0  0
  1  7  1  6  0  0  0
  1  6  1  0  0  0  0
  1  2  1  0  0  0  0
  2  8  1  6  0  0  0
  2  3  1  0  0  0  0
  2 17  1  0  0  0  0
  4  9  1  0  0  0  0
  4  3  1  0  0  0  0
  5  6  1  0  0  0  0
  5 11  1  1  0  0  0
  5  4  1  0  0  0  0
  6 12  1  1  0  0  0
 10  4  1  0  0  0  0
 13  1  1  0  0  0  0
 14 13  1  0  0  0  0
 15  5  1  0  0  0  0
 16 15  1  0  0  0  0
 17 18  1  0  0  0  0
 18 23  1  0  0  0  0
 19 18  2  0  0  0  0
 19 20  1  0  0  0  0
 20 21  2  0  0  0  0
 21 22  1  0  0  0  0
 22 25  1  0  0  0  0
 23 22  2  0  0  0  0
 24 19  1  0  0  0  0
 26 27  1  0  0  0  0
 26 20  1  0  0  0  0
 26 28  1  0  0  0  0
 27 28  1  0  0  0  0
 27 30  1  0  0  0  0
 28 33  1  0  0  0  0
 29 26  1  0  0  0  0
 31 27  1  0  0  0  0
 32 28  1  0  0  0  0
 34 35  1  0  0  0  0
 34  6  1  0  0  0  0
 35 37  1  0  0  0  0
 36 35  2  0  0  0  0
 37 42  1  0  0  0  0
 38 37  2  0  0  0  0
 38 40  1  0  0  0  0
 39 38  1  0  0  0  0
 40 41  2  0  0  0  0
 41 42  1  0  0  0  0
M  END
>  <minimizedAffinity>
-5.62101555

>  <minimizedRMSD>
0.275832564

$$$$
