
 OpenBabel03252504163D

 32 34  0  0  0  0  0  0  0  0999 V2000
   36.8650   27.1710   40.6730 C   0  0  0  0  0  0  0  0  0  0  0  0
   36.9110   28.1660   41.6440 C   0  0  0  0  0  0  0  0  0  0  0  0
   36.2450   29.3700   41.3730 C   0  0  0  0  0  0  0  0  0  0  0  0
   35.5930   29.5080   40.1900 N   0  0  0  0  0  0  0  0  0  0  0  0
   35.5720   28.5180   39.2750 C   0  0  0  0  0  0  0  0  0  0  0  0
   36.2120   27.3490   39.5230 N   0  0  0  0  0  0  0  0  0  0  0  0
   36.2660   30.1580   42.1110 H   0  0  0  0  0  0  0  0  0  0  0  0
   32.8630   29.2860   39.0860 F   0  0  0  0  0  0  0  0  0  0  0  0
   33.5570   29.0310   37.9260 C   0  0  0  0  0  0  0  0  0  0  0  0
   34.8750   28.6570   37.9990 C   0  0  0  0  0  0  0  0  0  0  0  0
   35.5080   28.4180   36.7850 C   0  0  0  0  0  0  0  0  0  0  0  0
   34.8440   28.5500   35.5960 C   0  0  0  0  0  0  0  0  0  0  0  0
   33.5150   28.9310   35.5920 C   0  0  0  0  0  0  0  0  0  0  0  0
   32.8380   29.1820   36.7730 C   0  0  0  0  0  0  0  0  0  0  0  0
   36.5490   28.1210   36.8070 H   0  0  0  0  0  0  0  0  0  0  0  0
   35.3640   28.3570   34.6670 H   0  0  0  0  0  0  0  0  0  0  0  0
   33.0560   29.0160   34.6100 H   0  0  0  0  0  0  0  0  0  0  0  0
   31.4620   29.5710   36.6360 C   0  0  0  0  0  0  0  0  0  0  0  0
   30.8900   30.9030   36.8570 C   0  0  0  0  0  0  0  0  0  0  0  0
   31.4310   31.7820   37.1550 H   0  0  0  0  0  0  0  0  0  0  0  0
   29.5450   30.9980   36.6580 C   0  0  0  0  0  3  0  0  0  0  0  0
   28.7650   29.8570   36.2570 C   0  0  0  0  0  3  0  0  0  0  0  0
   30.1500   28.5590   36.1800 S   0  0  0  0  0  0  0  0  0  0  0  0
   37.6410   27.9400   42.9060 C   0  0  0  0  0  0  0  0  0  0  0  0
   37.6950   29.1150   43.6330 F   0  0  0  0  0  0  0  0  0  0  0  0
   36.8870   27.0470   43.6790 F   0  0  0  0  0  0  0  0  0  0  0  0
   38.8960   27.4430   42.7790 F   0  0  0  0  0  0  0  0  0  0  0  0
   37.5140   26.0090   40.9480 O   0  0  0  0  0  0  0  0  0  0  0  0
   36.9370   24.7440   41.1490 C   0  0  0  0  0  0  0  0  0  0  0  0
   36.2240   24.8080   42.3490 F   0  0  0  0  0  0  0  0  0  0  0  0
   36.1560   24.4130   40.0740 F   0  0  0  0  0  0  0  0  0  0  0  0
   37.9350   23.8230   41.3940 F   0  0  0  0  0  0  0  0  0  0  0  0
  1 28  1  0  0  0  0
  1  2  1  0  0  0  0
  2 24  1  0  0  0  0
  3  2  2  0  0  0  0
  3  7  1  0  0  0  0
  4  3  1  0  0  0  0
  5  6  1  0  0  0  0
  5  4  2  0  0  0  0
  6  1  2  0  0  0  0
  9 10  1  0  0  0  0
  9  8  1  0  0  0  0
 10  5  1  0  0  0  0
 11 15  1  0  0  0  0
 11 10  2  0  0  0  0
 12 11  1  0  0  0  0
 13 12  2  0  0  0  0
 13 14  1  0  0  0  0
 14  9  2  0  0  0  0
 16 12  1  0  0  0  0
 17 13  1  0  0  0  0
 18 14  1  0  0  0  0
 18 19  2  0  0  0  0
 19 20  1  0  0  0  0
 21 19  1  0  0  0  0
 22 21  2  0  0  0  0
 23 22  1  0  0  0  0
 23 18  1  0  0  0  0
 24 25  1  0  0  0  0
 24 26  1  0  0  0  0
 27 24  1  0  0  0  0
 28 29  1  0  0  0  0
 29 32  1  0  0  0  0
 29 30  1  0  0  0  0
 31 29  1  0  0  0  0
M  END
>  <minimizedAffinity>
-6.03616476

$$$$

 OpenBabel03252504163D

 32 34  0  0  0  0  0  0  0  0999 V2000
   38.9620   31.1430   39.5920 C   0  0  0  0  0  0  0  0  0  0  0  0
   39.7810   31.9790   40.3440 C   0  0  0  0  0  0  0  0  0  0  0  0
   39.9890   31.6470   41.6900 C   0  0  0  0  0  0  0  0  0  0  0  0
   39.3890   30.5370   42.1920 N   0  0  0  0  0  0  0  0  0  0  0  0
   38.6020   29.7520   41.4300 C   0  0  0  0  0  0  0  0  0  0  0  0
   38.3920   30.0610   40.1270 N   0  0  0  0  0  0  0  0  0  0  0  0
   40.6210   32.2810   42.2940 H   0  0  0  0  0  0  0  0  0  0  0  0
   38.5590   27.2900   40.0510 F   0  0  0  0  0  0  0  0  0  0  0  0
   37.9400   27.3690   41.2770 C   0  0  0  0  0  0  0  0  0  0  0  0
   37.9510   28.5580   41.9620 C   0  0  0  0  0  0  0  0  0  0  0  0
   37.3060   28.5580   43.1930 C   0  0  0  0  0  0  0  0  0  0  0  0
   36.6990   27.4320   43.6800 C   0  0  0  0  0  0  0  0  0  0  0  0
   36.7240   26.2650   42.9390 C   0  0  0  0  0  0  0  0  0  0  0  0
   37.3530   26.2110   41.7080 C   0  0  0  0  0  0  0  0  0  0  0  0
   37.2960   29.4800   43.7590 H   0  0  0  0  0  0  0  0  0  0  0  0
   36.2050   27.4640   44.6410 H   0  0  0  0  0  0  0  0  0  0  0  0
   36.2210   25.4130   43.3920 H   0  0  0  0  0  0  0  0  0  0  0  0
   37.3110   24.9420   41.0380 C   0  0  0  0  0  0  0  0  0  0  0  0
   38.0850   23.7390   41.3630 C   0  0  0  0  0  0  0  0  0  0  0  0
   38.8000   23.6430   42.1600 H   0  0  0  0  0  0  0  0  0  0  0  0
   37.8530   22.6630   40.5600 C   0  0  0  0  0  3  0  0  0  0  0  0
   36.9080   22.7280   39.4770 C   0  0  0  0  0  3  0  0  0  0  0  0
   36.3370   24.5280   39.6830 S   0  0  0  0  0  0  0  0  0  0  0  0
   40.3980   33.1670   39.7240 C   0  0  0  0  0  0  0  0  0  0  0  0
   39.4410   34.1490   39.5390 F   0  0  0  0  0  0  0  0  0  0  0  0
   41.3160   33.6970   40.6410 F   0  0  0  0  0  0  0  0  0  0  0  0
   41.0410   32.9520   38.5500 F   0  0  0  0  0  0  0  0  0  0  0  0
   38.7680   31.4750   38.2880 O   0  0  0  0  0  0  0  0  0  0  0  0
   37.5660   31.8840   37.6880 C   0  0  0  0  0  0  0  0  0  0  0  0
   36.7650   30.7450   37.5670 F   0  0  0  0  0  0  0  0  0  0  0  0
   36.9860   32.8740   38.4350 F   0  0  0  0  0  0  0  0  0  0  0  0
   37.8150   32.2650   36.3860 F   0  0  0  0  0  0  0  0  0  0  0  0
  1  6  2  0  0  0  0
  1  2  1  0  0  0  0
  2  3  2  0  0  0  0
  3  4  1  0  0  0  0
  3  7  1  0  0  0  0
  5 10  1  0  0  0  0
  5  4  2  0  0  0  0
  6  5  1  0  0  0  0
  8  9  1  0  0  0  0
  9 14  2  0  0  0  0
  9 10  1  0  0  0  0
 10 11  2  0  0  0  0
 11 12  1  0  0  0  0
 11 15  1  0  0  0  0
 12 16  1  0  0  0  0
 13 17  1  0  0  0  0
 13 12  2  0  0  0  0
 14 13  1  0  0  0  0
 18 19  2  0  0  0  0
 18 14  1  0  0  0  0
 19 20  1  0  0  0  0
 21 19  1  0  0  0  0
 22 23  1  0  0  0  0
 22 21  2  0  0  0  0
 23 18  1  0  0  0  0
 24  2  1  0  0  0  0
 24 26  1  0  0  0  0
 25 24  1  0  0  0  0
 27 24  1  0  0  0  0
 28  1  1  0  0  0  0
 29 28  1  0  0  0  0
 29 31  1  0  0  0  0
 30 29  1  0  0  0  0
 32 29  1  0  0  0  0
M  END
>  <minimizedAffinity>
-5.92691565

$$$$

 OpenBabel03252504163D

 32 34  0  0  0  0  0  0  0  0999 V2000
   36.1590   28.1460   40.4210 C   0  0  0  0  0  0  0  0  0  0  0  0
   36.6760   26.8550   40.4400 C   0  0  0  0  0  0  0  0  0  0  0  0
   36.4370   26.0430   39.3220 C   0  0  0  0  0  0  0  0  0  0  0  0
   35.7230   26.5480   38.2840 N   0  0  0  0  0  0  0  0  0  0  0  0
   35.2390   27.8060   38.3040 C   0  0  0  0  0  0  0  0  0  0  0  0
   35.4610   28.6030   39.3790 N   0  0  0  0  0  0  0  0  0  0  0  0
   36.8280   25.0360   39.3140 H   0  0  0  0  0  0  0  0  0  0  0  0
   32.7810   29.1460   38.6640 F   0  0  0  0  0  0  0  0  0  0  0  0
   33.2740   29.0070   37.3870 C   0  0  0  0  0  0  0  0  0  0  0  0
   34.4680   28.3590   37.1940 C   0  0  0  0  0  0  0  0  0  0  0  0
   34.9000   28.2580   35.8770 C   0  0  0  0  0  0  0  0  0  0  0  0
   34.1680   28.7790   34.8450 C   0  0  0  0  0  0  0  0  0  0  0  0
   32.9720   29.4210   35.1080 C   0  0  0  0  0  0  0  0  0  0  0  0
   32.4970   29.5490   36.4010 C   0  0  0  0  0  0  0  0  0  0  0  0
   35.8380   27.7530   35.6890 H   0  0  0  0  0  0  0  0  0  0  0  0
   34.5310   28.6860   33.8300 H   0  0  0  0  0  0  0  0  0  0  0  0
   32.4480   29.8090   34.2370 H   0  0  0  0  0  0  0  0  0  0  0  0
   31.2450   30.2370   36.5430 C   0  0  0  0  0  0  0  0  0  0  0  0
   30.9260   31.6010   36.1090 C   0  0  0  0  0  0  0  0  0  0  0  0
   31.5970   32.2810   35.6160 H   0  0  0  0  0  0  0  0  0  0  0  0
   29.6530   32.0120   36.3690 C   0  0  0  0  0  3  0  0  0  0  0  0
   28.7070   31.1480   37.0250 C   0  0  0  0  0  3  0  0  0  0  0  0
   29.8110   29.6210   37.2650 S   0  0  0  0  0  0  0  0  0  0  0  0
   37.4430   26.3790   41.6060 C   0  0  0  0  0  0  0  0  0  0  0  0
   38.6110   27.1090   41.7280 F   0  0  0  0  0  0  0  0  0  0  0  0
   36.6930   26.6650   42.7550 F   0  0  0  0  0  0  0  0  0  0  0  0
   37.7460   25.0570   41.6120 F   0  0  0  0  0  0  0  0  0  0  0  0
   36.3970   28.9240   41.5100 O   0  0  0  0  0  0  0  0  0  0  0  0
   37.2150   30.0650   41.5740 C   0  0  0  0  0  0  0  0  0  0  0  0
   38.1770   29.9320   40.5680 F   0  0  0  0  0  0  0  0  0  0  0  0
   36.4500   31.1930   41.4440 F   0  0  0  0  0  0  0  0  0  0  0  0
   37.9430   30.0370   42.7460 F   0  0  0  0  0  0  0  0  0  0  0  0
  1  2  1  0  0  0  0
  1 28  1  0  0  0  0
  2 24  1  0  0  0  0
  3  2  2  0  0  0  0
  4  5  2  0  0  0  0
  4  3  1  0  0  0  0
  5  6  1  0  0  0  0
  6  1  2  0  0  0  0
  7  3  1  0  0  0  0
  9  8  1  0  0  0  0
 10  9  1  0  0  0  0
 10  5  1  0  0  0  0
 11 10  2  0  0  0  0
 12 13  2  0  0  0  0
 12 11  1  0  0  0  0
 13 14  1  0  0  0  0
 14 18  1  0  0  0  0
 14  9  2  0  0  0  0
 15 11  1  0  0  0  0
 16 12  1  0  0  0  0
 17 13  1  0  0  0  0
 18 23  1  0  0  0  0
 19 21  1  0  0  0  0
 19 18  2  0  0  0  0
 20 19  1  0  0  0  0
 21 22  2  0  0  0  0
 22 23  1  0  0  0  0
 24 27  1  0  0  0  0
 24 25  1  0  0  0  0
 24 26  1  0  0  0  0
 28 29  1  0  0  0  0
 29 32  1  0  0  0  0
 30 29  1  0  0  0  0
 31 29  1  0  0  0  0
M  END
>  <minimizedAffinity>
-5.80512094

$$$$

 OpenBabel03252504163D

 32 34  0  0  0  0  0  0  0  0999 V2000
   37.8680   26.8840   41.6750 C   0  0  0  0  0  0  0  0  0  0  0  0
   37.1280   26.0470   40.8460 C   0  0  0  0  0  0  0  0  0  0  0  0
   36.5650   26.6080   39.6910 C   0  0  0  0  0  0  0  0  0  0  0  0
   36.7670   27.9270   39.4360 N   0  0  0  0  0  0  0  0  0  0  0  0
   37.4900   28.7050   40.2650 C   0  0  0  0  0  0  0  0  0  0  0  0
   38.0400   28.1760   41.3860 N   0  0  0  0  0  0  0  0  0  0  0  0
   35.9870   25.9780   39.0320 H   0  0  0  0  0  0  0  0  0  0  0  0
   39.9360   29.7170   39.2850 F   0  0  0  0  0  0  0  0  0  0  0  0
   38.9070   30.5980   39.5250 C   0  0  0  0  0  0  0  0  0  0  0  0
   37.7110   30.1240   40.0010 C   0  0  0  0  0  0  0  0  0  0  0  0
   36.7210   31.0750   40.2170 C   0  0  0  0  0  0  0  0  0  0  0  0
   36.9410   32.4020   39.9660 C   0  0  0  0  0  0  0  0  0  0  0  0
   38.1700   32.8150   39.4860 C   0  0  0  0  0  0  0  0  0  0  0  0
   39.1890   31.9090   39.2540 C   0  0  0  0  0  0  0  0  0  0  0  0
   35.7650   30.7340   40.5920 H   0  0  0  0  0  0  0  0  0  0  0  0
   36.1500   33.1190   40.1440 H   0  0  0  0  0  0  0  0  0  0  0  0
   38.2680   33.8840   39.3110 H   0  0  0  0  0  0  0  0  0  0  0  0
   40.4170   32.4620   38.7550 C   0  0  0  0  0  0  0  0  0  0  0  0
   41.0070   32.2610   37.4270 C   0  0  0  0  0  0  0  0  0  0  0  0
   40.5930   31.6640   36.6350 H   0  0  0  0  0  0  0  0  0  0  0  0
   42.1890   32.9040   37.2120 C   0  0  0  0  0  3  0  0  0  0  0  0
   42.7940   33.7190   38.2330 C   0  0  0  0  0  3  0  0  0  0  0  0
   41.4970   33.4960   39.6030 S   0  0  0  0  0  0  0  0  0  0  0  0
   36.9550   24.6240   41.1920 C   0  0  0  0  0  0  0  0  0  0  0  0
   36.4970   24.5100   42.4920 F   0  0  0  0  0  0  0  0  0  0  0  0
   35.9340   24.1100   40.3810 F   0  0  0  0  0  0  0  0  0  0  0  0
   38.0540   23.8440   41.0420 F   0  0  0  0  0  0  0  0  0  0  0  0
   38.4080   26.3290   42.7920 O   0  0  0  0  0  0  0  0  0  0  0  0
   39.7500   25.9650   42.9920 C   0  0  0  0  0  0  0  0  0  0  0  0
   40.3630   27.0250   43.6650 F   0  0  0  0  0  0  0  0  0  0  0  0
   39.8130   24.7820   43.6780 F   0  0  0  0  0  0  0  0  0  0  0  0
   40.3940   25.9180   41.7730 F   0  0  0  0  0  0  0  0  0  0  0  0
  1 28  1  0  0  0  0
  2 24  1  0  0  0  0
  2  1  2  0  0  0  0
  3  2  1  0  0  0  0
  4  3  2  0  0  0  0
  4  5  1  0  0  0  0
  5  6  2  0  0  0  0
  6  1  1  0  0  0  0
  7  3  1  0  0  0  0
  8  9  1  0  0  0  0
  9 10  1  0  0  0  0
 10 11  2  0  0  0  0
 10  5  1  0  0  0  0
 11 15  1  0  0  0  0
 12 16  1  0  0  0  0
 12 11  1  0  0  0  0
 13 12  2  0  0  0  0
 14 13  1  0  0  0  0
 14  9  2  0  0  0  0
 17 13  1  0  0  0  0
 18 14  1  0  0  0  0
 18 23  1  0  0  0  0
 19 18  2  0  0  0  0
 20 19  1  0  0  0  0
 21 19  1  0  0  0  0
 21 22  2  0  0  0  0
 22 23  1  0  0  0  0
 24 25  1  0  0  0  0
 26 24  1  0  0  0  0
 27 24  1  0  0  0  0
 28 29  1  0  0  0  0
 29 30  1  0  0  0  0
 29 31  1  0  0  0  0
 32 29  1  0  0  0  0
M  END
>  <minimizedAffinity>
-5.77814388

$$$$

 OpenBabel03252504163D

 32 34  0  0  0  0  0  0  0  0999 V2000
   37.9520   28.5570   40.8190 C   0  0  0  0  0  0  0  0  0  0  0  0
   38.3180   29.7780   41.3770 C   0  0  0  0  0  0  0  0  0  0  0  0
   37.9730   30.9420   40.6750 C   0  0  0  0  0  0  0  0  0  0  0  0
   37.3050   30.8260   39.4990 N   0  0  0  0  0  0  0  0  0  0  0  0
   36.9680   29.6240   38.9920 C   0  0  0  0  0  0  0  0  0  0  0  0
   37.2950   28.4890   39.6580 N   0  0  0  0  0  0  0  0  0  0  0  0
   38.2450   31.9020   41.0890 H   0  0  0  0  0  0  0  0  0  0  0  0
   34.2000   29.0930   38.8500 F   0  0  0  0  0  0  0  0  0  0  0  0
   34.9050   29.2300   37.6760 C   0  0  0  0  0  0  0  0  0  0  0  0
   36.2520   29.4890   37.7270 C   0  0  0  0  0  0  0  0  0  0  0  0
   36.8940   29.6150   36.5010 C   0  0  0  0  0  0  0  0  0  0  0  0
   36.2110   29.4860   35.3220 C   0  0  0  0  0  0  0  0  0  0  0  0
   34.8540   29.2250   35.3410 C   0  0  0  0  0  0  0  0  0  0  0  0
   34.1670   29.0910   36.5340 C   0  0  0  0  0  0  0  0  0  0  0  0
   37.9570   29.8190   36.5050 H   0  0  0  0  0  0  0  0  0  0  0  0
   36.7390   29.5890   34.3830 H   0  0  0  0  0  0  0  0  0  0  0  0
   34.3810   29.1360   34.3650 H   0  0  0  0  0  0  0  0  0  0  0  0
   32.7600   28.8220   36.4210 C   0  0  0  0  0  0  0  0  0  0  0  0
   31.6540   29.6710   36.8780 C   0  0  0  0  0  0  0  0  0  0  0  0
   31.7480   30.6230   37.3660 H   0  0  0  0  0  0  0  0  0  0  0  0
   30.4060   29.1740   36.6460 C   0  0  0  0  0  3  0  0  0  0  0  0
   30.2150   27.9050   35.9950 C   0  0  0  0  0  3  0  0  0  0  0  0
   32.0330   27.4320   35.7190 S   0  0  0  0  0  0  0  0  0  0  0  0
   39.0420   29.8200   42.6610 C   0  0  0  0  0  0  0  0  0  0  0  0
   39.4870   31.1070   42.9050 F   0  0  0  0  0  0  0  0  0  0  0  0
   38.1220   29.5350   43.6780 F   0  0  0  0  0  0  0  0  0  0  0  0
   40.0860   28.9630   42.7760 F   0  0  0  0  0  0  0  0  0  0  0  0
   38.2920   27.4350   41.5080 O   0  0  0  0  0  0  0  0  0  0  0  0
   37.4400   26.6230   42.2750 C   0  0  0  0  0  0  0  0  0  0  0  0
   36.3600   27.4190   42.6650 F   0  0  0  0  0  0  0  0  0  0  0  0
   37.0660   25.5250   41.5480 F   0  0  0  0  0  0  0  0  0  0  0  0
   38.0690   26.2980   43.4600 F   0  0  0  0  0  0  0  0  0  0  0  0
  1  2  1  0  0  0  0
  1 28  1  0  0  0  0
  2 24  1  0  0  0  0
  3  7  1  0  0  0  0
  3  2  2  0  0  0  0
  4  3  1  0  0  0  0
  5  4  2  0  0  0  0
  5  6  1  0  0  0  0
  6  1  2  0  0  0  0
  9 10  1  0  0  0  0
  9  8  1  0  0  0  0
 10  5  1  0  0  0  0
 11 15  1  0  0  0  0
 11 10  2  0  0  0  0
 12 13  2  0  0  0  0
 12 11  1  0  0  0  0
 13 14  1  0  0  0  0
 14  9  2  0  0  0  0
 16 12  1  0  0  0  0
 17 13  1  0  0  0  0
 18 14  1  0  0  0  0
 18 19  2  0  0  0  0
 19 20  1  0  0  0  0
 21 19  1  0  0  0  0
 22 21  2  0  0  0  0
 23 22  1  0  0  0  0
 23 18  1  0  0  0  0
 24 27  1  0  0  0  0
 24 25  1  0  0  0  0
 24 26  1  0  0  0  0
 28 29  1  0  0  0  0
 29 30  1  0  0  0  0
 29 32  1  0  0  0  0
 31 29  1  0  0  0  0
M  END
>  <minimizedAffinity>
-5.62014103

$$$$

 OpenBabel03252504163D

 32 34  0  0  0  0  0  0  0  0999 V2000
   37.2140   29.9070   40.8800 C   0  0  0  0  0  0  0  0  0  0  0  0
   37.5520   28.7010   41.4850 C   0  0  0  0  0  0  0  0  0  0  0  0
   37.0320   27.5250   40.9260 C   0  0  0  0  0  0  0  0  0  0  0  0
   36.2330   27.6150   39.8320 N   0  0  0  0  0  0  0  0  0  0  0  0
   35.9290   28.8040   39.2750 C   0  0  0  0  0  0  0  0  0  0  0  0
   36.4240   29.9500   39.8040 N   0  0  0  0  0  0  0  0  0  0  0  0
   37.2800   26.5760   41.3790 H   0  0  0  0  0  0  0  0  0  0  0  0
   33.1440   29.2260   39.4490 F   0  0  0  0  0  0  0  0  0  0  0  0
   33.7160   29.1170   38.2030 C   0  0  0  0  0  0  0  0  0  0  0  0
   35.0690   28.9120   38.0990 C   0  0  0  0  0  0  0  0  0  0  0  0
   35.5730   28.8120   36.8080 C   0  0  0  0  0  0  0  0  0  0  0  0
   34.7560   28.9140   35.7150 C   0  0  0  0  0  0  0  0  0  0  0  0
   33.4000   29.1210   35.8880 C   0  0  0  0  0  0  0  0  0  0  0  0
   32.8480   29.2280   37.1520 C   0  0  0  0  0  0  0  0  0  0  0  0
   36.6360   28.6500   36.6910 H   0  0  0  0  0  0  0  0  0  0  0  0
   35.1780   28.8330   34.7220 H   0  0  0  0  0  0  0  0  0  0  0  0
   32.8170   29.1920   34.9730 H   0  0  0  0  0  0  0  0  0  0  0  0
   31.4290   29.4430   37.2000 C   0  0  0  0  0  0  0  0  0  0  0  0
   30.7080   30.4360   38.0030 C   0  0  0  0  0  0  0  0  0  0  0  0
   31.1510   31.1490   38.6740 H   0  0  0  0  0  0  0  0  0  0  0  0
   29.3520   30.4260   37.8610 C   0  0  0  0  0  3  0  0  0  0  0  0
   28.7000   29.4960   36.9770 C   0  0  0  0  0  3  0  0  0  0  0  0
   30.2290   28.5800   36.3230 S   0  0  0  0  0  0  0  0  0  0  0  0
   38.4270   28.6850   42.6720 C   0  0  0  0  0  0  0  0  0  0  0  0
   38.3980   27.4340   43.2600 F   0  0  0  0  0  0  0  0  0  0  0  0
   39.7450   28.8690   42.2310 F   0  0  0  0  0  0  0  0  0  0  0  0
   38.1570   29.6210   43.6150 F   0  0  0  0  0  0  0  0  0  0  0  0
   37.7250   31.0400   41.4300 O   0  0  0  0  0  0  0  0  0  0  0  0
   38.7020   31.8840   40.8770 C   0  0  0  0  0  0  0  0  0  0  0  0
   38.9820   31.3980   39.5970 F   0  0  0  0  0  0  0  0  0  0  0  0
   38.2530   33.1770   40.8760 F   0  0  0  0  0  0  0  0  0  0  0  0
   39.8850   31.7230   41.5680 F   0  0  0  0  0  0  0  0  0  0  0  0
  1 28  1  0  0  0  0
  1  2  1  0  0  0  0
  2 24  1  0  0  0  0
  3  7  1  0  0  0  0
  3  2  2  0  0  0  0
  4  3  1  0  0  0  0
  5  6  1  0  0  0  0
  5  4  2  0  0  0  0
  6  1  2  0  0  0  0
  9  8  1  0  0  0  0
 10  9  1  0  0  0  0
 10  5  1  0  0  0  0
 11 10  2  0  0  0  0
 12 13  2  0  0  0  0
 12 11  1  0  0  0  0
 13 14  1  0  0  0  0
 14 18  1  0  0  0  0
 14  9  2  0  0  0  0
 15 11  1  0  0  0  0
 16 12  1  0  0  0  0
 17 13  1  0  0  0  0
 18 19  2  0  0  0  0
 19 20  1  0  0  0  0
 21 19  1  0  0  0  0
 22 21  2  0  0  0  0
 23 22  1  0  0  0  0
 23 18  1  0  0  0  0
 24 25  1  0  0  0  0
 24 27  1  0  0  0  0
 26 24  1  0  0  0  0
 29 28  1  0  0  0  0
 29 32  1  0  0  0  0
 30 29  1  0  0  0  0
 31 29  1  0  0  0  0
M  END
>  <minimizedAffinity>
-5.60125113

$$$$

 OpenBabel03252504163D

 32 34  0  0  0  0  0  0  0  0999 V2000
   38.7780   31.2200   41.2350 C   0  0  0  0  0  0  0  0  0  0  0  0
   37.8600   31.9570   40.4930 C   0  0  0  0  0  0  0  0  0  0  0  0
   36.6770   31.3150   40.1010 C   0  0  0  0  0  0  0  0  0  0  0  0
   36.4830   30.0200   40.4590 N   0  0  0  0  0  0  0  0  0  0  0  0
   37.3980   29.3410   41.1780 C   0  0  0  0  0  0  0  0  0  0  0  0
   38.5460   29.9480   41.5650 N   0  0  0  0  0  0  0  0  0  0  0  0
   35.9490   31.8670   39.5240 H   0  0  0  0  0  0  0  0  0  0  0  0
   37.9020   27.1790   39.4350 F   0  0  0  0  0  0  0  0  0  0  0  0
   37.4480   26.9080   40.7060 C   0  0  0  0  0  0  0  0  0  0  0  0
   37.1980   27.9470   41.5670 C   0  0  0  0  0  0  0  0  0  0  0  0
   36.7440   27.5940   42.8320 C   0  0  0  0  0  0  0  0  0  0  0  0
   36.5610   26.2840   43.1830 C   0  0  0  0  0  0  0  0  0  0  0  0
   36.8320   25.2840   42.2680 C   0  0  0  0  0  0  0  0  0  0  0  0
   37.2860   25.5810   40.9960 C   0  0  0  0  0  0  0  0  0  0  0  0
   36.5370   28.3890   43.5350 H   0  0  0  0  0  0  0  0  0  0  0  0
   36.2060   26.0400   44.1760 H   0  0  0  0  0  0  0  0  0  0  0  0
   36.6620   24.2690   42.6200 H   0  0  0  0  0  0  0  0  0  0  0  0
   37.5320   24.4560   40.1380 C   0  0  0  0  0  0  0  0  0  0  0  0
   38.4440   23.3340   40.3850 C   0  0  0  0  0  0  0  0  0  0  0  0
   39.0610   23.2000   41.2550 H   0  0  0  0  0  0  0  0  0  0  0  0
   38.4890   22.3930   39.4000 C   0  0  0  0  0  3  0  0  0  0  0  0
   37.6860   22.5150   38.2120 C   0  0  0  0  0  3  0  0  0  0  0  0
   36.8120   24.1540   38.6070 S   0  0  0  0  0  0  0  0  0  0  0  0
   38.1440   33.3610   40.1440 C   0  0  0  0  0  0  0  0  0  0  0  0
   39.1120   33.4130   39.1570 F   0  0  0  0  0  0  0  0  0  0  0  0
   36.9850   33.9010   39.5710 F   0  0  0  0  0  0  0  0  0  0  0  0
   38.5230   34.1590   41.1740 F   0  0  0  0  0  0  0  0  0  0  0  0
   39.9210   31.8530   41.6100 O   0  0  0  0  0  0  0  0  0  0  0  0
   41.1980   31.7010   41.0440 C   0  0  0  0  0  0  0  0  0  0  0  0
   41.6840   32.9860   40.7860 F   0  0  0  0  0  0  0  0  0  0  0  0
   41.9990   30.9820   41.8900 F   0  0  0  0  0  0  0  0  0  0  0  0
   41.0760   31.1260   39.7960 F   0  0  0  0  0  0  0  0  0  0  0  0
  1  6  1  0  0  0  0
  1 28  1  0  0  0  0
  2  1  2  0  0  0  0
  3  4  2  0  0  0  0
  3  2  1  0  0  0  0
  4  5  1  0  0  0  0
  5  6  2  0  0  0  0
  5 10  1  0  0  0  0
  7  3  1  0  0  0  0
  8  9  1  0  0  0  0
  9 14  2  0  0  0  0
  9 10  1  0  0  0  0
 10 11  2  0  0  0  0
 11 12  1  0  0  0  0
 11 15  1  0  0  0  0
 12 16  1  0  0  0  0
 13 17  1  0  0  0  0
 13 12  2  0  0  0  0
 14 13  1  0  0  0  0
 18 19  2  0  0  0  0
 18 14  1  0  0  0  0
 19 20  1  0  0  0  0
 21 19  1  0  0  0  0
 22 23  1  0  0  0  0
 22 21  2  0  0  0  0
 23 18  1  0  0  0  0
 24  2  1  0  0  0  0
 24 27  1  0  0  0  0
 25 24  1  0  0  0  0
 26 24  1  0  0  0  0
 29 28  1  0  0  0  0
 29 31  1  0  0  0  0
 30 29  1  0  0  0  0
 32 29  1  0  0  0  0
M  END
>  <minimizedAffinity>
-5.4734993

$$$$

 OpenBabel03252504163D

 32 34  0  0  0  0  0  0  0  0999 V2000
   36.9240   27.2740   40.6150 C   0  0  0  0  0  0  0  0  0  0  0  0
   36.9300   28.1880   41.6640 C   0  0  0  0  0  0  0  0  0  0  0  0
   36.2190   29.3840   41.4860 C   0  0  0  0  0  0  0  0  0  0  0  0
   35.5660   29.5920   40.3150 N   0  0  0  0  0  0  0  0  0  0  0  0
   35.5850   28.6800   39.3230 C   0  0  0  0  0  0  0  0  0  0  0  0
   36.2680   27.5190   39.4790 N   0  0  0  0  0  0  0  0  0  0  0  0
   36.2090   30.1100   42.2860 H   0  0  0  0  0  0  0  0  0  0  0  0
   36.9270   29.3090   36.9210 F   0  0  0  0  0  0  0  0  0  0  0  0
   35.5560   29.2010   36.9000 C   0  0  0  0  0  0  0  0  0  0  0  0
   34.8870   28.8950   38.0580 C   0  0  0  0  0  0  0  0  0  0  0  0
   33.5040   28.8030   37.9570 C   0  0  0  0  0  0  0  0  0  0  0  0
   32.8610   29.0080   36.7660 C   0  0  0  0  0  0  0  0  0  0  0  0
   33.5950   29.3130   35.6340 C   0  0  0  0  0  0  0  0  0  0  0  0
   34.9730   29.4160   35.6810 C   0  0  0  0  0  0  0  0  0  0  0  0
   32.9460   28.5640   38.8520 H   0  0  0  0  0  0  0  0  0  0  0  0
   31.7830   28.9290   36.7190 H   0  0  0  0  0  0  0  0  0  0  0  0
   33.0140   29.4610   34.7270 H   0  0  0  0  0  0  0  0  0  0  0  0
   35.6200   29.7360   34.4400 C   0  0  0  0  0  0  0  0  0  0  0  0
   36.0570   31.0590   33.9810 C   0  0  0  0  0  0  0  0  0  0  0  0
   35.9510   31.9830   34.5210 H   0  0  0  0  0  0  0  0  0  0  0  0
   36.6470   31.0840   32.7530 C   0  0  0  0  0  3  0  0  0  0  0  0
   36.8190   29.8810   31.9810 C   0  0  0  0  0  3  0  0  0  0  0  0
   36.0380   28.6380   33.1850 S   0  0  0  0  0  0  0  0  0  0  0  0
   37.6640   27.8890   42.9070 C   0  0  0  0  0  0  0  0  0  0  0  0
   38.9770   27.5710   42.6110 F   0  0  0  0  0  0  0  0  0  0  0  0
   37.7180   29.0660   43.6640 F   0  0  0  0  0  0  0  0  0  0  0  0
   37.1370   26.9070   43.6800 F   0  0  0  0  0  0  0  0  0  0  0  0
   37.6160   26.1180   40.7990 O   0  0  0  0  0  0  0  0  0  0  0  0
   37.0830   24.8270   40.9490 C   0  0  0  0  0  0  0  0  0  0  0  0
   36.0780   24.6880   39.9880 F   0  0  0  0  0  0  0  0  0  0  0  0
   38.0800   23.8960   40.8260 F   0  0  0  0  0  0  0  0  0  0  0  0
   36.4160   24.7480   42.1530 F   0  0  0  0  0  0  0  0  0  0  0  0
  1 28  1  0  0  0  0
  1  2  1  0  0  0  0
  2 24  1  0  0  0  0
  3  2  2  0  0  0  0
  3  7  1  0  0  0  0
  4  3  1  0  0  0  0
  5  6  1  0  0  0  0
  5  4  2  0  0  0  0
  6  1  2  0  0  0  0
  9  8  1  0  0  0  0
  9 10  1  0  0  0  0
 10  5  1  0  0  0  0
 11 10  2  0  0  0  0
 11 15  1  0  0  0  0
 12 11  1  0  0  0  0
 13 14  1  0  0  0  0
 13 12  2  0  0  0  0
 14  9  2  0  0  0  0
 16 12  1  0  0  0  0
 17 13  1  0  0  0  0
 18 14  1  0  0  0  0
 19 18  2  0  0  0  0
 19 20  1  0  0  0  0
 21 19  1  0  0  0  0
 22 21  2  0  0  0  0
 22 23  1  0  0  0  0
 23 18  1  0  0  0  0
 24 26  1  0  0  0  0
 24 27  1  0  0  0  0
 25 24  1  0  0  0  0
 28 29  1  0  0  0  0
 29 32  1  0  0  0  0
 30 29  1  0  0  0  0
 31 29  1  0  0  0  0
M  END
>  <minimizedAffinity>
-5.36348009

$$$$

 OpenBabel03252504163D

 32 34  0  0  0  0  0  0  0  0999 V2000
   36.6680   29.0260   37.7400 C   0  0  0  0  0  0  0  0  0  0  0  0
   35.9520   28.0140   37.1100 C   0  0  0  0  0  0  0  0  0  0  0  0
   35.6840   26.8510   37.8470 C   0  0  0  0  0  0  0  0  0  0  0  0
   36.1300   26.7680   39.1260 N   0  0  0  0  0  0  0  0  0  0  0  0
   36.8210   27.7720   39.7020 C   0  0  0  0  0  0  0  0  0  0  0  0
   37.0870   28.9020   39.0020 N   0  0  0  0  0  0  0  0  0  0  0  0
   35.1300   26.0510   37.3790 H   0  0  0  0  0  0  0  0  0  0  0  0
   39.5100   27.2060   40.3460 F   0  0  0  0  0  0  0  0  0  0  0  0
   38.6170   27.4150   41.3720 C   0  0  0  0  0  0  0  0  0  0  0  0
   37.3050   27.6910   41.0770 C   0  0  0  0  0  0  0  0  0  0  0  0
   36.4650   27.8900   42.1660 C   0  0  0  0  0  0  0  0  0  0  0  0
   36.9310   27.8110   43.4500 C   0  0  0  0  0  0  0  0  0  0  0  0
   38.2650   27.5280   43.6790 C   0  0  0  0  0  0  0  0  0  0  0  0
   39.1440   27.3220   42.6300 C   0  0  0  0  0  0  0  0  0  0  0  0
   35.4240   28.1100   41.9680 H   0  0  0  0  0  0  0  0  0  0  0  0
   36.2530   27.9710   44.2770 H   0  0  0  0  0  0  0  0  0  0  0  0
   38.5610   27.4820   44.7250 H   0  0  0  0  0  0  0  0  0  0  0  0
   40.5030   27.0380   42.9980 C   0  0  0  0  0  0  0  0  0  0  0  0
   41.0680   25.7370   43.3720 C   0  0  0  0  0  0  0  0  0  0  0  0
   40.5340   24.8060   43.4220 H   0  0  0  0  0  0  0  0  0  0  0  0
   42.3960   25.7460   43.6780 C   0  0  0  0  0  3  0  0  0  0  0  0
   43.1670   26.9610   43.6290 C   0  0  0  0  0  3  0  0  0  0  0  0
   41.8000   28.1630   43.0880 S   0  0  0  0  0  0  0  0  0  0  0  0
   35.5010   28.1810   35.7160 C   0  0  0  0  0  0  0  0  0  0  0  0
   36.5960   28.2350   34.8730 F   0  0  0  0  0  0  0  0  0  0  0  0
   34.7990   27.0230   35.3540 F   0  0  0  0  0  0  0  0  0  0  0  0
   34.7080   29.2540   35.4770 F   0  0  0  0  0  0  0  0  0  0  0  0
   36.9200   30.1490   37.0160 O   0  0  0  0  0  0  0  0  0  0  0  0
   37.5960   31.3020   37.4490 C   0  0  0  0  0  0  0  0  0  0  0  0
   38.8120   30.8800   37.9950 F   0  0  0  0  0  0  0  0  0  0  0  0
   37.7480   32.1720   36.4040 F   0  0  0  0  0  0  0  0  0  0  0  0
   36.9170   31.8520   38.5170 F   0  0  0  0  0  0  0  0  0  0  0  0
  1  6  1  0  0  0  0
  2  1  2  0  0  0  0
  2  3  1  0  0  0  0
  3  4  2  0  0  0  0
  4  5  1  0  0  0  0
  5 10  1  0  0  0  0
  6  5  2  0  0  0  0
  7  3  1  0  0  0  0
  8  9  1  0  0  0  0
  9 14  1  0  0  0  0
 10  9  2  0  0  0  0
 10 11  1  0  0  0  0
 11 12  2  0  0  0  0
 12 13  1  0  0  0  0
 12 16  1  0  0  0  0
 13 17  1  0  0  0  0
 14 18  1  0  0  0  0
 14 13  2  0  0  0  0
 15 11  1  0  0  0  0
 18 23  1  0  0  0  0
 18 19  2  0  0  0  0
 19 20  1  0  0  0  0
 19 21  1  0  0  0  0
 22 21  2  0  0  0  0
 23 22  1  0  0  0  0
 24  2  1  0  0  0  0
 25 24  1  0  0  0  0
 26 24  1  0  0  0  0
 27 24  1  0  0  0  0
 28 29  1  0  0  0  0
 28  1  1  0  0  0  0
 29 30  1  0  0  0  0
 29 32  1  0  0  0  0
 31 29  1  0  0  0  0
M  END
>  <minimizedAffinity>
-5.32871675

$$$$
