
 OpenBabel03252506353D

 30 32  0  0  1  0  0  0  0  0999 V2000
   40.7510   24.7890   42.9300 C   0  0  0  0  0  0  0  0  0  0  0  0
   41.9690   25.4860   42.9600 C   0  0  0  0  0  0  0  0  0  0  0  0
   42.0270   26.7670   42.4830 C   0  0  0  0  0  0  0  0  0  0  0  0
   40.8690   27.2820   42.0020 N   0  0  0  0  0  0  0  0  0  0  0  0
   39.7160   26.6220   41.9750 C   0  0  0  0  0  0  0  0  0  0  0  0
   39.6300   25.3620   42.4370 N   0  0  0  0  0  0  0  0  0  0  0  0
   38.5820   27.2870   41.4450 N   0  0  0  0  0  0  0  0  0  0  0  0
   37.2000   26.8250   41.6290 C   0  0  0  0  0  0  0  0  0  0  0  0
   36.5770   27.1590   40.2910 C   0  0  0  0  0  0  0  0  0  0  0  0
   37.5620   28.0280   39.5580 C   0  0  0  0  0  0  0  0  0  0  0  0
   38.4810   28.4820   40.6600 C   0  0  1  0  0  0  0  0  0  0  0  0
   40.6740   23.7760   43.2990 H   0  0  0  0  0  0  0  0  0  0  0  0
   42.9650   27.3000   42.5070 H   0  0  0  0  0  0  0  0  0  0  0  0
   37.2270   25.7110   41.7990 H   0  0  0  0  0  0  0  0  0  0  0  0
   36.7130   27.3400   42.4790 H   0  0  0  0  0  0  0  0  0  0  0  0
   36.2810   26.2490   39.7250 H   0  0  0  0  0  0  0  0  0  0  0  0
   35.6620   27.7610   40.5000 H   0  0  0  0  0  0  0  0  0  0  0  0
   38.1500   27.3840   38.8700 H   0  0  0  0  0  0  0  0  0  0  0  0
   37.0830   28.8820   39.0370 H   0  0  0  0  0  0  0  0  0  0  0  0
   39.4830   28.7930   40.2550 H   0  0  0  0  0  0  0  0  0  0  0  0
   43.1020   24.7870   43.5060 N   0  0  0  0  0  0  0  0  0  0  0  0
   43.2140   23.7720   43.3890 H   0  0  0  0  0  0  0  0  0  0  0  0
   43.8480   25.3230   44.0430 H   0  0  0  0  0  0  0  0  0  0  0  0
   37.7040   29.8470   41.5720 S   0  0  0  0  0  0  0  0  0  0  0  0
   37.7610   31.3600   40.8150 C   0  0  0  0  0  0  0  0  0  0  0  0
   36.9490   32.1710   39.9850 C   0  0  0  0  0  0  0  0  0  0  0  0
   36.0300   31.6630   39.7860 H   0  0  0  0  0  0  0  0  0  0  0  0
   37.3550   33.3980   39.5530 C   0  0  0  0  0  3  0  0  0  0  0  0
   38.7090   33.8540   39.9990 C   0  0  0  0  0  3  0  0  0  0  0  0
   39.3060   32.4110   41.0500 S   0  0  0  0  0  0  0  0  0  0  0  0
  1  2  1  0  0  0  0
  1 12  1  0  0  0  0
  2 21  1  0  0  0  0
  3 13  1  0  0  0  0
  3  2  2  0  0  0  0
  4  3  1  0  0  0  0
  5  4  2  0  0  0  0
  5  6  1  0  0  0  0
  6  1  2  0  0  0  0
  7  8  1  0  0  0  0
  7  5  1  0  0  0  0
  8 14  1  0  0  0  0
  8 15  1  0  0  0  0
  9 17  1  0  0  0  0
  9  8  1  0  0  0  0
 10  9  1  0  0  0  0
 10 11  1  0  0  0  0
 11 20  1  6  0  0  0
 11  7  1  0  0  0  0
 11 24  1  0  0  0  0
 16  9  1  0  0  0  0
 18 10  1  0  0  0  0
 19 10  1  0  0  0  0
 21 23  1  0  0  0  0
 22 21  1  0  0  0  0
 25 30  1  0  0  0  0
 25 24  1  0  0  0  0
 26 25  2  0  0  0  0
 27 26  1  0  0  0  0
 28 26  1  0  0  0  0
 28 29  2  0  0  0  0
 29 30  1  0  0  0  0
M  END
>  <minimizedAffinity>
-4.96096849

$$$$

 OpenBabel03252506353D

 30 32  0  0  1  0  0  0  0  0999 V2000
   38.8230   24.1110   42.0390 C   0  0  0  0  0  0  0  0  0  0  0  0
   38.1050   23.6220   40.9370 C   0  0  0  0  0  0  0  0  0  0  0  0
   37.5050   24.5010   40.0770 C   0  0  0  0  0  0  0  0  0  0  0  0
   37.6540   25.8170   40.3630 N   0  0  0  0  0  0  0  0  0  0  0  0
   38.3340   26.2800   41.4070 C   0  0  0  0  0  0  0  0  0  0  0  0
   38.9340   25.4390   42.2680 N   0  0  0  0  0  0  0  0  0  0  0  0
   38.4090   27.6840   41.5820 N   0  0  0  0  0  0  0  0  0  0  0  0
   39.3630   28.3490   42.4790 C   0  0  0  0  0  0  0  0  0  0  0  0
   38.5340   29.4910   43.0270 C   0  0  0  0  0  0  0  0  0  0  0  0
   37.2800   29.5530   42.1990 C   0  0  0  0  0  0  0  0  0  0  0  0
   37.6490   28.7420   40.9850 C   0  0  1  0  0  0  0  0  0  0  0  0
   39.3080   23.4420   42.7360 H   0  0  0  0  0  0  0  0  0  0  0  0
   36.9530   24.1210   39.2310 H   0  0  0  0  0  0  0  0  0  0  0  0
   39.6390   27.6190   43.2930 H   0  0  0  0  0  0  0  0  0  0  0  0
   40.2630   28.6860   41.9320 H   0  0  0  0  0  0  0  0  0  0  0  0
   38.3410   29.3860   44.1170 H   0  0  0  0  0  0  0  0  0  0  0  0
   39.1170   30.4260   42.8570 H   0  0  0  0  0  0  0  0  0  0  0  0
   36.4770   29.0080   42.7400 H   0  0  0  0  0  0  0  0  0  0  0  0
   36.9870   30.5900   41.9340 H   0  0  0  0  0  0  0  0  0  0  0  0
   36.7340   28.3470   40.4640 H   0  0  0  0  0  0  0  0  0  0  0  0
   38.0480   22.1920   40.7830 N   0  0  0  0  0  0  0  0  0  0  0  0
   38.0270   21.5650   41.5970 H   0  0  0  0  0  0  0  0  0  0  0  0
   38.0270   21.7640   39.8100 H   0  0  0  0  0  0  0  0  0  0  0  0
   38.6430   29.7600   39.8570 S   0  0  0  0  0  0  0  0  0  0  0  0
   38.2780   31.4130   39.8470 C   0  0  0  0  0  0  0  0  0  0  0  0
   37.2590   32.2800   39.3820 C   0  0  0  0  0  0  0  0  0  0  0  0
   36.5020   31.7030   38.8930 H   0  0  0  0  0  0  0  0  0  0  0  0
   37.3140   33.6280   39.5700 C   0  0  0  0  0  3  0  0  0  0  0  0
   38.5100   34.1560   40.2980 C   0  0  0  0  0  3  0  0  0  0  0  0
   39.4950   32.5950   40.6640 S   0  0  0  0  0  0  0  0  0  0  0  0
  1  6  1  0  0  0  0
  1 12  1  0  0  0  0
  2  1  2  0  0  0  0
  3  4  2  0  0  0  0
  3  2  1  0  0  0  0
  4  5  1  0  0  0  0
  5  7  1  0  0  0  0
  5  6  2  0  0  0  0
  7  8  1  0  0  0  0
  8  9  1  0  0  0  0
  8 14  1  0  0  0  0
  9 16  1  0  0  0  0
 10 18  1  0  0  0  0
 10  9  1  0  0  0  0
 11 20  1  6  0  0  0
 11  7  1  0  0  0  0
 11 10  1  0  0  0  0
 13  3  1  0  0  0  0
 15  8  1  0  0  0  0
 17  9  1  0  0  0  0
 19 10  1  0  0  0  0
 21  2  1  0  0  0  0
 21 22  1  0  0  0  0
 23 21  1  0  0  0  0
 24 11  1  0  0  0  0
 25 24  1  0  0  0  0
 25 30  1  0  0  0  0
 26 28  1  0  0  0  0
 26 25  2  0  0  0  0
 27 26  1  0  0  0  0
 28 29  2  0  0  0  0
 29 30  1  0  0  0  0
M  END
>  <minimizedAffinity>
-4.91752577

$$$$

 OpenBabel03252506353D

 30 32  0  0  1  0  0  0  0  0999 V2000
   39.0070   32.0850   39.0450 C   0  0  0  0  0  0  0  0  0  0  0  0
   39.5050   31.4670   37.8870 C   0  0  0  0  0  0  0  0  0  0  0  0
   39.5750   30.1030   37.8260 C   0  0  0  0  0  0  0  0  0  0  0  0
   39.1450   29.4290   38.9210 N   0  0  0  0  0  0  0  0  0  0  0  0
   38.6740   30.0150   40.0170 C   0  0  0  0  0  0  0  0  0  0  0  0
   38.5940   31.3550   40.1050 N   0  0  0  0  0  0  0  0  0  0  0  0
   38.2570   29.1850   41.0870 N   0  0  0  0  0  0  0  0  0  0  0  0
   37.4380   29.6490   42.2150 C   0  0  0  0  0  0  0  0  0  0  0  0
   38.0290   28.8720   43.3720 C   0  0  0  0  0  0  0  0  0  0  0  0
   38.9390   27.8330   42.7780 C   0  0  0  0  0  0  0  0  0  0  0  0
   38.4960   27.7940   41.3400 C   0  0  1  0  0  0  0  0  0  0  0  0
   38.9400   33.1610   39.1230 H   0  0  0  0  0  0  0  0  0  0  0  0
   39.9580   29.6300   36.9340 H   0  0  0  0  0  0  0  0  0  0  0  0
   37.6120   30.7560   42.3360 H   0  0  0  0  0  0  0  0  0  0  0  0
   36.3660   29.4350   42.0470 H   0  0  0  0  0  0  0  0  0  0  0  0
   38.5330   29.5340   44.1090 H   0  0  0  0  0  0  0  0  0  0  0  0
   37.1830   28.3540   43.8800 H   0  0  0  0  0  0  0  0  0  0  0  0
   39.9780   28.2230   42.8030 H   0  0  0  0  0  0  0  0  0  0  0  0
   38.8440   26.8420   43.2690 H   0  0  0  0  0  0  0  0  0  0  0  0
   39.3070   27.3890   40.6730 H   0  0  0  0  0  0  0  0  0  0  0  0
   39.9170   32.3350   36.8160 N   0  0  0  0  0  0  0  0  0  0  0  0
   40.3350   33.2550   37.0010 H   0  0  0  0  0  0  0  0  0  0  0  0
   39.7910   32.0280   35.8050 H   0  0  0  0  0  0  0  0  0  0  0  0
   36.9870   26.7940   41.1970 S   0  0  0  0  0  0  0  0  0  0  0  0
   37.2220   25.1690   40.7830 C   0  0  0  0  0  0  0  0  0  0  0  0
   37.8850   24.0230   41.2870 C   0  0  0  0  0  0  0  0  0  0  0  0
   38.3820   24.2770   42.1990 H   0  0  0  0  0  0  0  0  0  0  0  0
   37.8460   22.8230   40.6420 C   0  0  0  0  0  3  0  0  0  0  0  0
   37.0620   22.7700   39.3690 C   0  0  0  0  0  3  0  0  0  0  0  0
   36.4220   24.5320   39.2030 S   0  0  0  0  0  0  0  0  0  0  0  0
  1 12  1  0  0  0  0
  1  6  1  0  0  0  0
  2  1  2  0  0  0  0
  3  2  1  0  0  0  0
  3  4  2  0  0  0  0
  4  5  1  0  0  0  0
  5  6  2  0  0  0  0
  5  7  1  0  0  0  0
  7 11  1  0  0  0  0
  7  8  1  0  0  0  0
  8 14  1  0  0  0  0
  8  9  1  0  0  0  0
  9 17  1  0  0  0  0
  9 16  1  0  0  0  0
 10 18  1  0  0  0  0
 10 19  1  0  0  0  0
 10  9  1  0  0  0  0
 11 20  1  6  0  0  0
 11 10  1  0  0  0  0
 13  3  1  0  0  0  0
 15  8  1  0  0  0  0
 21 22  1  0  0  0  0
 21  2  1  0  0  0  0
 23 21  1  0  0  0  0
 24 11  1  0  0  0  0
 25 24  1  0  0  0  0
 25 26  2  0  0  0  0
 26 27  1  0  0  0  0
 28 26  1  0  0  0  0
 29 28  2  0  0  0  0
 30 29  1  0  0  0  0
 30 25  1  0  0  0  0
M  END
>  <minimizedAffinity>
-4.91364002

$$$$

 OpenBabel03252506353D

 30 32  0  0  1  0  0  0  0  0999 V2000
   39.4420   32.4980   39.5340 C   0  0  0  0  0  0  0  0  0  0  0  0
   39.9900   32.5820   40.8230 C   0  0  0  0  0  0  0  0  0  0  0  0
   39.5830   31.7040   41.7890 C   0  0  0  0  0  0  0  0  0  0  0  0
   38.6540   30.7900   41.4170 N   0  0  0  0  0  0  0  0  0  0  0  0
   38.1360   30.7100   40.1960 C   0  0  0  0  0  0  0  0  0  0  0  0
   38.5170   31.5610   39.2270 N   0  0  0  0  0  0  0  0  0  0  0  0
   37.1720   29.7010   39.9480 N   0  0  0  0  0  0  0  0  0  0  0  0
   36.7480   29.2850   38.6040 C   0  0  0  0  0  0  0  0  0  0  0  0
   35.2710   29.0210   38.8100 C   0  0  0  0  0  0  0  0  0  0  0  0
   35.0310   29.0360   40.2940 C   0  0  0  0  0  0  0  0  0  0  0  0
   36.4190   28.8830   40.8530 C   0  0  1  0  0  0  0  0  0  0  0  0
   39.7430   33.1790   38.7490 H   0  0  0  0  0  0  0  0  0  0  0  0
   40.0060   31.7710   42.7800 H   0  0  0  0  0  0  0  0  0  0  0  0
   36.9140   30.1530   37.9050 H   0  0  0  0  0  0  0  0  0  0  0  0
   37.3080   28.3940   38.2640 H   0  0  0  0  0  0  0  0  0  0  0  0
   34.6340   29.7390   38.2490 H   0  0  0  0  0  0  0  0  0  0  0  0
   35.0700   27.9930   38.4290 H   0  0  0  0  0  0  0  0  0  0  0  0
   34.6600   30.0440   40.5770 H   0  0  0  0  0  0  0  0  0  0  0  0
   34.3540   28.2240   40.6310 H   0  0  0  0  0  0  0  0  0  0  0  0
   36.4820   29.2730   41.9070 H   0  0  0  0  0  0  0  0  0  0  0  0
   40.9680   33.6150   41.0450 N   0  0  0  0  0  0  0  0  0  0  0  0
   40.9100   34.5210   40.5650 H   0  0  0  0  0  0  0  0  0  0  0  0
   41.7720   33.4470   41.7210 H   0  0  0  0  0  0  0  0  0  0  0  0
   36.9120   27.1370   40.7830 S   0  0  0  0  0  0  0  0  0  0  0  0
   38.0860   26.6610   41.9070 C   0  0  0  0  0  0  0  0  0  0  0  0
   38.8560   27.2280   42.9520 C   0  0  0  0  0  0  0  0  0  0  0  0
   38.6130   28.2650   43.0460 H   0  0  0  0  0  0  0  0  0  0  0  0
   39.7470   26.4930   43.6740 C   0  0  0  0  0  3  0  0  0  0  0  0
   39.8750   25.0470   43.3110 C   0  0  0  0  0  3  0  0  0  0  0  0
   38.6460   24.8640   41.8980 S   0  0  0  0  0  0  0  0  0  0  0  0
  1  2  1  0  0  0  0
  2 21  1  0  0  0  0
  2  3  2  0  0  0  0
  3 13  1  0  0  0  0
  4  3  1  0  0  0  0
  5  4  2  0  0  0  0
  6  1  2  0  0  0  0
  6  5  1  0  0  0  0
  7  5  1  0  0  0  0
  7 11  1  0  0  0  0
  8  9  1  0  0  0  0
  8  7  1  0  0  0  0
  9 10  1  0  0  0  0
 10 18  1  0  0  0  0
 10 19  1  0  0  0  0
 10 11  1  0  0  0  0
 11 20  1  1  0  0  0
 12  1  1  0  0  0  0
 14  8  1  0  0  0  0
 15  8  1  0  0  0  0
 16  9  1  0  0  0  0
 17  9  1  0  0  0  0
 21 23  1  0  0  0  0
 22 21  1  0  0  0  0
 24 11  1  0  0  0  0
 24 25  1  0  0  0  0
 25 26  2  0  0  0  0
 26 27  1  0  0  0  0
 26 28  1  0  0  0  0
 29 28  2  0  0  0  0
 30 25  1  0  0  0  0
 30 29  1  0  0  0  0
M  END
>  <minimizedAffinity>
-4.82995367

$$$$

 OpenBabel03252506353D

 30 32  0  0  1  0  0  0  0  0999 V2000
   42.6090   33.9410   37.3620 C   0  0  0  0  0  0  0  0  0  0  0  0
   43.8050   33.2910   37.7020 C   0  0  0  0  0  0  0  0  0  0  0  0
   43.7910   32.2930   38.6370 C   0  0  0  0  0  0  0  0  0  0  0  0
   42.5850   31.9980   39.1820 N   0  0  0  0  0  0  0  0  0  0  0  0
   41.4520   32.6130   38.8590 C   0  0  0  0  0  0  0  0  0  0  0  0
   41.4370   33.5980   37.9440 N   0  0  0  0  0  0  0  0  0  0  0  0
   40.2630   32.1990   39.5090 N   0  0  0  0  0  0  0  0  0  0  0  0
   38.9130   32.5490   39.0490 C   0  0  0  0  0  0  0  0  0  0  0  0
   38.1790   32.7530   40.3580 C   0  0  0  0  0  0  0  0  0  0  0  0
   39.0810   32.2380   41.4450 C   0  0  0  0  0  0  0  0  0  0  0  0
   40.0680   31.3980   40.6810 C   0  0  1  0  0  0  0  0  0  0  0  0
   42.5880   34.7340   36.6270 H   0  0  0  0  0  0  0  0  0  0  0  0
   44.7130   31.7960   38.8960 H   0  0  0  0  0  0  0  0  0  0  0  0
   38.9840   33.5110   38.4670 H   0  0  0  0  0  0  0  0  0  0  0  0
   38.4790   31.7440   38.4260 H   0  0  0  0  0  0  0  0  0  0  0  0
   37.8660   33.8100   40.5040 H   0  0  0  0  0  0  0  0  0  0  0  0
   37.2670   32.1140   40.3210 H   0  0  0  0  0  0  0  0  0  0  0  0
   39.6310   33.0990   41.8790 H   0  0  0  0  0  0  0  0  0  0  0  0
   38.5390   31.6480   42.2140 H   0  0  0  0  0  0  0  0  0  0  0  0
   41.0280   31.2700   41.2560 H   0  0  0  0  0  0  0  0  0  0  0  0
   44.9960   33.7310   37.0240 N   0  0  0  0  0  0  0  0  0  0  0  0
   45.1270   34.7130   36.7500 H   0  0  0  0  0  0  0  0  0  0  0  0
   45.7660   33.0330   36.7960 H   0  0  0  0  0  0  0  0  0  0  0  0
   39.3270   29.7840   40.3030 S   0  0  0  0  0  0  0  0  0  0  0  0
   38.4510   29.0670   41.5630 C   0  0  0  0  0  0  0  0  0  0  0  0
   38.3370   29.1580   42.9720 C   0  0  0  0  0  0  0  0  0  0  0  0
   39.0110   29.9050   43.3320 H   0  0  0  0  0  0  0  0  0  0  0  0
   37.4750   28.3750   43.6800 C   0  0  0  0  0  3  0  0  0  0  0  0
   36.6470   27.4070   42.8940 C   0  0  0  0  0  3  0  0  0  0  0  0
   37.2060   27.7240   41.1250 S   0  0  0  0  0  0  0  0  0  0  0  0
  1  2  2  0  0  0  0
  1  6  1  0  0  0  0
  2  3  1  0  0  0  0
  3 13  1  0  0  0  0
  3  4  2  0  0  0  0
  5  4  1  0  0  0  0
  5  7  1  0  0  0  0
  6  5  2  0  0  0  0
  7 11  1  0  0  0  0
  8  7  1  0  0  0  0
  8  9  1  0  0  0  0
  9 16  1  0  0  0  0
  9 10  1  0  0  0  0
 10 18  1  0  0  0  0
 10 19  1  0  0  0  0
 11 20  1  1  0  0  0
 11 10  1  0  0  0  0
 12  1  1  0  0  0  0
 14  8  1  0  0  0  0
 15  8  1  0  0  0  0
 17  9  1  0  0  0  0
 21  2  1  0  0  0  0
 22 21  1  0  0  0  0
 23 21  1  0  0  0  0
 24 11  1  0  0  0  0
 24 25  1  0  0  0  0
 25 26  2  0  0  0  0
 26 27  1  0  0  0  0
 26 28  1  0  0  0  0
 29 28  2  0  0  0  0
 30 25  1  0  0  0  0
 30 29  1  0  0  0  0
M  END
>  <minimizedAffinity>
-4.77474785

$$$$

 OpenBabel03252506353D

 30 32  0  0  1  0  0  0  0  0999 V2000
   38.8280   32.0600   38.9830 C   0  0  0  0  0  0  0  0  0  0  0  0
   39.4950   31.4680   37.9000 C   0  0  0  0  0  0  0  0  0  0  0  0
   39.7630   30.1270   37.9220 C   0  0  0  0  0  0  0  0  0  0  0  0
   39.3520   29.4500   39.0220 N   0  0  0  0  0  0  0  0  0  0  0  0
   38.7190   30.0110   40.0470 C   0  0  0  0  0  0  0  0  0  0  0  0
   38.4430   31.3270   40.0520 N   0  0  0  0  0  0  0  0  0  0  0  0
   38.3450   29.1800   41.1320 N   0  0  0  0  0  0  0  0  0  0  0  0
   37.3840   29.5720   42.1720 C   0  0  0  0  0  0  0  0  0  0  0  0
   37.9890   28.9450   43.4100 C   0  0  0  0  0  0  0  0  0  0  0  0
   39.0800   28.0230   42.9400 C   0  0  0  0  0  0  0  0  0  0  0  0
   38.7590   27.8530   41.4800 C   0  0  1  0  0  0  0  0  0  0  0  0
   38.6020   33.1170   38.9950 H   0  0  0  0  0  0  0  0  0  0  0  0
   40.2770   29.6750   37.0870 H   0  0  0  0  0  0  0  0  0  0  0  0
   37.3880   30.6960   42.2410 H   0  0  0  0  0  0  0  0  0  0  0  0
   36.3690   29.1960   41.9430 H   0  0  0  0  0  0  0  0  0  0  0  0
   38.3360   29.7070   44.1410 H   0  0  0  0  0  0  0  0  0  0  0  0
   37.1890   28.3320   43.8870 H   0  0  0  0  0  0  0  0  0  0  0  0
   40.0480   28.5620   43.0140 H   0  0  0  0  0  0  0  0  0  0  0  0
   39.0900   27.0530   43.4800 H   0  0  0  0  0  0  0  0  0  0  0  0
   39.6680   27.5400   40.8940 H   0  0  0  0  0  0  0  0  0  0  0  0
   39.8610   32.3360   36.8110 N   0  0  0  0  0  0  0  0  0  0  0  0
   40.1280   33.3150   36.9720 H   0  0  0  0  0  0  0  0  0  0  0  0
   39.8570   31.9660   35.8140 H   0  0  0  0  0  0  0  0  0  0  0  0
   37.4230   26.6370   41.2900 S   0  0  0  0  0  0  0  0  0  0  0  0
   36.5700   26.7070   39.8290 C   0  0  0  0  0  0  0  0  0  0  0  0
   35.9480   27.6730   39.0010 C   0  0  0  0  0  0  0  0  0  0  0  0
   36.0560   28.6400   39.4440 H   0  0  0  0  0  0  0  0  0  0  0  0
   35.3280   27.3340   37.8350 C   0  0  0  0  0  3  0  0  0  0  0  0
   35.3350   25.8840   37.4670 C   0  0  0  0  0  3  0  0  0  0  0  0
   36.2770   25.0990   38.8950 S   0  0  0  0  0  0  0  0  0  0  0  0
  1 12  1  0  0  0  0
  1  6  1  0  0  0  0
  2  3  1  0  0  0  0
  2  1  2  0  0  0  0
  3  4  2  0  0  0  0
  4  5  1  0  0  0  0
  5  6  2  0  0  0  0
  5  7  1  0  0  0  0
  7 11  1  0  0  0  0
  7  8  1  0  0  0  0
  8 14  1  0  0  0  0
  8  9  1  0  0  0  0
  9 17  1  0  0  0  0
  9 16  1  0  0  0  0
 10 18  1  0  0  0  0
 10  9  1  0  0  0  0
 10 19  1  0  0  0  0
 11 20  1  6  0  0  0
 11 10  1  0  0  0  0
 13  3  1  0  0  0  0
 15  8  1  0  0  0  0
 21 22  1  0  0  0  0
 21  2  1  0  0  0  0
 23 21  1  0  0  0  0
 24 11  1  0  0  0  0
 25 24  1  0  0  0  0
 26 27  1  0  0  0  0
 26 25  2  0  0  0  0
 28 26  1  0  0  0  0
 29 28  2  0  0  0  0
 29 30  1  0  0  0  0
 30 25  1  0  0  0  0
M  END
>  <minimizedAffinity>
-4.75765657

$$$$

 OpenBabel03252506353D

 30 32  0  0  1  0  0  0  0  0999 V2000
   37.6580   31.9690   38.3710 C   0  0  0  0  0  0  0  0  0  0  0  0
   37.1590   32.3910   39.6130 C   0  0  0  0  0  0  0  0  0  0  0  0
   36.5770   31.4810   40.4520 C   0  0  0  0  0  0  0  0  0  0  0  0
   36.5240   30.2010   40.0070 N   0  0  0  0  0  0  0  0  0  0  0  0
   36.9970   29.8020   38.8310 C   0  0  0  0  0  0  0  0  0  0  0  0
   37.5740   30.6750   37.9860 N   0  0  0  0  0  0  0  0  0  0  0  0
   36.8760   28.4310   38.4970 N   0  0  0  0  0  0  0  0  0  0  0  0
   37.6120   27.7850   37.4020 C   0  0  0  0  0  0  0  0  0  0  0  0
   36.5840   26.8140   36.8630 C   0  0  0  0  0  0  0  0  0  0  0  0
   35.4540   26.7820   37.8560 C   0  0  0  0  0  0  0  0  0  0  0  0
   36.0790   27.3920   39.0810 C   0  0  1  0  0  0  0  0  0  0  0  0
   38.1220   32.6650   37.6860 H   0  0  0  0  0  0  0  0  0  0  0  0
   36.1940   31.8080   41.4070 H   0  0  0  0  0  0  0  0  0  0  0  0
   37.8630   28.5770   36.6400 H   0  0  0  0  0  0  0  0  0  0  0  0
   38.5300   27.2900   37.7710 H   0  0  0  0  0  0  0  0  0  0  0  0
   36.2610   27.0720   35.8310 H   0  0  0  0  0  0  0  0  0  0  0  0
   37.0660   25.8090   36.8430 H   0  0  0  0  0  0  0  0  0  0  0  0
   34.6590   27.4710   37.5010 H   0  0  0  0  0  0  0  0  0  0  0  0
   35.0750   25.7570   38.0480 H   0  0  0  0  0  0  0  0  0  0  0  0
   35.2970   27.8150   39.7720 H   0  0  0  0  0  0  0  0  0  0  0  0
   37.2980   33.7890   39.9260 N   0  0  0  0  0  0  0  0  0  0  0  0
   37.2450   34.5100   39.1970 H   0  0  0  0  0  0  0  0  0  0  0  0
   37.4610   34.0930   40.9330 H   0  0  0  0  0  0  0  0  0  0  0  0
   37.0840   26.1440   39.9350 S   0  0  0  0  0  0  0  0  0  0  0  0
   37.6740   26.5940   41.4570 C   0  0  0  0  0  0  0  0  0  0  0  0
   37.2700   27.3660   42.5740 C   0  0  0  0  0  0  0  0  0  0  0  0
   36.3040   27.7820   42.3840 H   0  0  0  0  0  0  0  0  0  0  0  0
   38.0560   27.5050   43.6790 C   0  0  0  0  0  3  0  0  0  0  0  0
   39.3750   26.7980   43.6590 C   0  0  0  0  0  3  0  0  0  0  0  0
   39.3690   25.9580   41.9750 S   0  0  0  0  0  0  0  0  0  0  0  0
  1  2  1  0  0  0  0
  2 21  1  0  0  0  0
  2  3  2  0  0  0  0
  3 13  1  0  0  0  0
  4  3  1  0  0  0  0
  5  4  2  0  0  0  0
  6  1  2  0  0  0  0
  6  5  1  0  0  0  0
  7  5  1  0  0  0  0
  7 11  1  0  0  0  0
  8 15  1  0  0  0  0
  8  7  1  0  0  0  0
  9  8  1  0  0  0  0
  9 10  1  0  0  0  0
 10 19  1  0  0  0  0
 10 11  1  0  0  0  0
 11 20  1  1  0  0  0
 11 24  1  0  0  0  0
 12  1  1  0  0  0  0
 14  8  1  0  0  0  0
 16  9  1  0  0  0  0
 17  9  1  0  0  0  0
 18 10  1  0  0  0  0
 21 23  1  0  0  0  0
 22 21  1  0  0  0  0
 24 25  1  0  0  0  0
 25 30  1  0  0  0  0
 25 26  2  0  0  0  0
 26 28  1  0  0  0  0
 27 26  1  0  0  0  0
 29 28  2  0  0  0  0
 30 29  1  0  0  0  0
M  END
>  <minimizedAffinity>
-4.68661118

$$$$

 OpenBabel03252506353D

 30 32  0  0  1  0  0  0  0  0999 V2000
   35.2060   26.7430   37.5410 C   0  0  0  0  0  0  0  0  0  0  0  0
   34.3250   27.8160   37.3340 C   0  0  0  0  0  0  0  0  0  0  0  0
   34.2570   28.8230   38.2570 C   0  0  0  0  0  0  0  0  0  0  0  0
   35.0690   28.7050   39.3360 N   0  0  0  0  0  0  0  0  0  0  0  0
   35.9030   27.6890   39.5310 C   0  0  0  0  0  0  0  0  0  0  0  0
   35.9910   26.6860   38.6400 N   0  0  0  0  0  0  0  0  0  0  0  0
   36.6970   27.6970   40.7050 N   0  0  0  0  0  0  0  0  0  0  0  0
   37.8670   26.8340   40.9100 C   0  0  0  0  0  0  0  0  0  0  0  0
   37.7560   26.4990   42.3820 C   0  0  0  0  0  0  0  0  0  0  0  0
   36.7060   27.4110   42.9560 C   0  0  0  0  0  0  0  0  0  0  0  0
   36.5880   28.4780   41.9020 C   0  0  1  0  0  0  0  0  0  0  0  0
   35.2820   25.9330   36.8290 H   0  0  0  0  0  0  0  0  0  0  0  0
   33.5780   29.6470   38.0950 H   0  0  0  0  0  0  0  0  0  0  0  0
   37.7350   25.9150   40.2720 H   0  0  0  0  0  0  0  0  0  0  0  0
   38.8050   27.3600   40.6510 H   0  0  0  0  0  0  0  0  0  0  0  0
   37.5500   25.4210   42.5540 H   0  0  0  0  0  0  0  0  0  0  0  0
   38.7370   26.7530   42.8470 H   0  0  0  0  0  0  0  0  0  0  0  0
   35.7440   26.8570   42.9880 H   0  0  0  0  0  0  0  0  0  0  0  0
   36.9900   27.8300   43.9440 H   0  0  0  0  0  0  0  0  0  0  0  0
   35.5940   29.0030   41.9610 H   0  0  0  0  0  0  0  0  0  0  0  0
   33.5340   27.7820   36.1310 N   0  0  0  0  0  0  0  0  0  0  0  0
   33.2010   26.8960   35.7330 H   0  0  0  0  0  0  0  0  0  0  0  0
   33.2830   28.6900   35.6360 H   0  0  0  0  0  0  0  0  0  0  0  0
   37.9520   29.6630   42.0840 S   0  0  0  0  0  0  0  0  0  0  0  0
   37.8620   31.0390   41.1010 C   0  0  0  0  0  0  0  0  0  0  0  0
   36.9610   31.6470   40.1930 C   0  0  0  0  0  0  0  0  0  0  0  0
   36.0800   31.0460   40.1160 H   0  0  0  0  0  0  0  0  0  0  0  0
   37.2520   32.8180   39.5590 C   0  0  0  0  0  3  0  0  0  0  0  0
   38.5790   33.4370   39.8690 C   0  0  0  0  0  3  0  0  0  0  0  0
   39.3240   32.2260   41.1010 S   0  0  0  0  0  0  0  0  0  0  0  0
  1  6  1  0  0  0  0
  2  1  2  0  0  0  0
  2  3  1  0  0  0  0
  3  4  2  0  0  0  0
  4  5  1  0  0  0  0
  5  7  1  0  0  0  0
  6  5  2  0  0  0  0
  7  8  1  0  0  0  0
  7 11  1  0  0  0  0
  8  9  1  0  0  0  0
  9 16  1  0  0  0  0
  9 17  1  0  0  0  0
  9 10  1  0  0  0  0
 10 18  1  0  0  0  0
 10 19  1  0  0  0  0
 11 20  1  1  0  0  0
 11 24  1  0  0  0  0
 11 10  1  0  0  0  0
 12  1  1  0  0  0  0
 13  3  1  0  0  0  0
 14  8  1  0  0  0  0
 15  8  1  0  0  0  0
 21  2  1  0  0  0  0
 22 21  1  0  0  0  0
 23 21  1  0  0  0  0
 25 30  1  0  0  0  0
 25 24  1  0  0  0  0
 26 25  2  0  0  0  0
 27 26  1  0  0  0  0
 28 29  2  0  0  0  0
 28 26  1  0  0  0  0
 29 30  1  0  0  0  0
M  END
>  <minimizedAffinity>
-4.67284346

$$$$

 OpenBabel03252506353D

 30 32  0  0  1  0  0  0  0  0999 V2000
   39.4670   32.3690   39.6270 C   0  0  0  0  0  0  0  0  0  0  0  0
   38.4290   32.9610   40.3630 C   0  0  0  0  0  0  0  0  0  0  0  0
   37.1700   32.4310   40.3030 C   0  0  0  0  0  0  0  0  0  0  0  0
   37.0140   31.3400   39.5140 N   0  0  0  0  0  0  0  0  0  0  0  0
   37.9970   30.7790   38.8180 C   0  0  0  0  0  0  0  0  0  0  0  0
   39.2450   31.2800   38.8570 N   0  0  0  0  0  0  0  0  0  0  0  0
   37.6900   29.6390   38.0340 N   0  0  0  0  0  0  0  0  0  0  0  0
   38.7010   28.7350   37.4710 C   0  0  0  0  0  0  0  0  0  0  0  0
   38.0950   28.3840   36.1290 C   0  0  0  0  0  0  0  0  0  0  0  0
   36.6760   28.8840   36.1500 C   0  0  0  0  0  0  0  0  0  0  0  0
   36.4280   29.1030   37.6180 C   0  0  1  0  0  0  0  0  0  0  0  0
   40.4720   32.7660   39.6530 H   0  0  0  0  0  0  0  0  0  0  0  0
   36.3740   32.8890   40.8710 H   0  0  0  0  0  0  0  0  0  0  0  0
   39.6570   29.3190   37.3460 H   0  0  0  0  0  0  0  0  0  0  0  0
   38.8610   27.8550   38.1220 H   0  0  0  0  0  0  0  0  0  0  0  0
   38.6930   28.7800   35.2800 H   0  0  0  0  0  0  0  0  0  0  0  0
   38.0760   27.2710   36.0630 H   0  0  0  0  0  0  0  0  0  0  0  0
   36.6500   29.8750   35.6490 H   0  0  0  0  0  0  0  0  0  0  0  0
   35.9570   28.1650   35.7080 H   0  0  0  0  0  0  0  0  0  0  0  0
   35.5940   29.8390   37.7860 H   0  0  0  0  0  0  0  0  0  0  0  0
   38.7710   34.1160   41.1510 N   0  0  0  0  0  0  0  0  0  0  0  0
   39.4860   34.7850   40.8410 H   0  0  0  0  0  0  0  0  0  0  0  0
   38.2780   34.2910   42.0780 H   0  0  0  0  0  0  0  0  0  0  0  0
   36.0530   27.5140   38.4120 S   0  0  0  0  0  0  0  0  0  0  0  0
   36.3880   27.4270   40.0700 C   0  0  0  0  0  0  0  0  0  0  0  0
   36.2630   28.2310   41.2290 C   0  0  0  0  0  0  0  0  0  0  0  0
   35.8270   29.1700   40.9600 H   0  0  0  0  0  0  0  0  0  0  0  0
   36.6630   27.7980   42.4570 C   0  0  0  0  0  3  0  0  0  0  0  0
   37.2440   26.4210   42.5260 C   0  0  0  0  0  3  0  0  0  0  0  0
   37.1600   25.8450   40.7370 S   0  0  0  0  0  0  0  0  0  0  0  0
  1 12  1  0  0  0  0
  1  2  1  0  0  0  0
  2 21  1  0  0  0  0
  3  2  2  0  0  0  0
  3 13  1  0  0  0  0
  4  3  1  0  0  0  0
  5  6  1  0  0  0  0
  5  4  2  0  0  0  0
  6  1  2  0  0  0  0
  7  5  1  0  0  0  0
  8  7  1  0  0  0  0
  8 15  1  0  0  0  0
  9 10  1  0  0  0  0
  9  8  1  0  0  0  0
 10 11  1  0  0  0  0
 11 20  1  1  0  0  0
 11  7  1  0  0  0  0
 11 24  1  0  0  0  0
 14  8  1  0  0  0  0
 16  9  1  0  0  0  0
 17  9  1  0  0  0  0
 18 10  1  0  0  0  0
 19 10  1  0  0  0  0
 21 23  1  0  0  0  0
 22 21  1  0  0  0  0
 24 25  1  0  0  0  0
 25 30  1  0  0  0  0
 25 26  2  0  0  0  0
 26 28  1  0  0  0  0
 27 26  1  0  0  0  0
 28 29  2  0  0  0  0
 30 29  1  0  0  0  0
M  END
>  <minimizedAffinity>
-4.65949202

$$$$
