
 OpenBabel03252508143D

 34 37  0  0  1  0  0  0  0  0999 V2000
   46.2330   30.8600   46.8170 C   0  0  0  0  0  0  0  0  0  0  0  0
   45.4590   30.0850   46.6000 H   0  0  0  0  0  0  0  0  0  0  0  0
   47.2670   30.4770   46.7450 H   0  0  0  0  0  0  0  0  0  0  0  0
   45.9670   31.4450   48.1830 C   0  0  1  0  0  0  0  0  0  0  0  0
   45.7100   30.4730   49.2780 C   0  0  0  0  0  0  0  0  0  0  0  0
   46.9520   31.2220   49.2700 C   0  0  1  0  0  0  0  0  0  0  0  0
   45.4700   32.4300   48.2140 H   0  0  0  0  0  0  0  0  0  0  0  0
   45.7720   29.3860   49.0260 H   0  0  0  0  0  0  0  0  0  0  0  0
   44.9120   30.6800   50.0320 H   0  0  0  0  0  0  0  0  0  0  0  0
   47.0220   32.0100   50.0840 H   0  0  0  0  0  0  0  0  0  0  0  0
   48.2810   30.6830   48.9000 C   0  0  0  0  0  0  0  0  0  0  0  0
   49.2380   30.4240   50.0890 C   0  0  0  0  0  0  0  0  0  0  0  0
   49.4760   31.5980   49.2250 C   0  0  0  0  0  0  0  0  0  0  0  0
   48.3990   30.0080   48.0300 H   0  0  0  0  0  0  0  0  0  0  0  0
   49.9190   29.5530   49.9960 H   0  0  0  0  0  0  0  0  0  0  0  0
   48.7970   30.5010   51.1000 H   0  0  0  0  0  0  0  0  0  0  0  0
   49.2410   32.5810   49.7040 H   0  0  0  0  0  0  0  0  0  0  0  0
   50.3080   31.5520   48.5050 H   0  0  0  0  0  0  0  0  0  0  0  0
   45.7670   33.0960   46.1770 C   0  0  0  0  0  3  0  0  0  0  0  0
   46.0460   31.9260   45.7530 C   0  0  0  0  0  3  0  0  0  0  0  0
   44.5070   36.1260   44.5170 C   0  0  0  0  0  0  0  0  0  0  0  0
   45.1590   36.1200   43.2930 C   0  0  0  0  0  0  0  0  0  0  0  0
   46.0210   35.0900   43.0780 C   0  0  0  0  0  0  0  0  0  0  0  0
   46.2060   34.1400   44.0310 N   0  0  0  0  0  0  0  0  0  0  0  0
   45.5630   34.1640   45.2080 C   0  0  0  0  0  0  0  0  0  0  0  0
   44.7200   35.1720   45.4170 N   0  0  0  0  0  0  0  0  0  0  0  0
   43.8270   36.9540   44.6670 H   0  0  0  0  0  0  0  0  0  0  0  0
   45.0930   36.8030   42.4810 H   0  0  0  0  0  0  0  0  0  0  0  0
   46.8300   34.8700   41.8560 C   0  0  0  0  0  0  0  0  0  0  0  0
   48.0990   35.4160   41.6100 C   0  0  0  0  0  0  0  0  0  0  0  0
   48.5670   36.0550   42.3410 H   0  0  0  0  0  0  0  0  0  0  0  0
   48.6870   35.0990   40.4250 C   0  0  0  0  0  3  0  0  0  0  0  0
   48.0830   34.2760   39.4840 C   0  0  0  0  0  3  0  0  0  0  0  0
   46.4430   33.8940   40.4100 S   0  0  0  0  0  0  0  0  0  0  0  0
  1  4  1  0  0  0  0
  2  1  1  0  0  0  0
  3  1  1  0  0  0  0
  4  7  1  1  0  0  0
  4  6  1  0  0  0  0
  4  5  1  0  0  0  0
  5  9  1  0  0  0  0
  6  5  1  0  0  0  0
  6 10  1  1  0  0  0
  8  5  1  0  0  0  0
 11 13  1  0  0  0  0
 11  6  1  0  0  0  0
 11 12  1  0  0  0  0
 12 16  1  0  0  0  0
 13 17  1  0  0  0  0
 13 12  1  0  0  0  0
 14 11  1  0  0  0  0
 15 12  1  0  0  0  0
 18 13  1  0  0  0  0
 20 19  2  0  0  0  0
 20  1  1  0  0  0  0
 21 27  1  0  0  0  0
 21 26  1  0  0  0  0
 22 21  2  0  0  0  0
 23 22  1  0  0  0  0
 23 24  2  0  0  0  0
 24 25  1  0  0  0  0
 25 26  2  0  0  0  0
 25 19  1  0  0  0  0
 28 22  1  0  0  0  0
 29 23  1  0  0  0  0
 30 29  2  0  0  0  0
 30 31  1  0  0  0  0
 32 30  1  0  0  0  0
 33 34  1  0  0  0  0
 33 32  2  0  0  0  0
 34 29  1  0  0  0  0
M  END
>  <minimizedAffinity>
-5.84126139

>  <minimizedRMSD>
0.531894267

$$$$
