
 OpenBabel03252509213D

 22 24  0  0  0  0  0  0  0  0999 V2000
   44.7480   35.4790   45.4650 C   0  0  0  0  0  0  0  0  0  0  0  0
   45.2650   35.9800   44.2510 C   0  0  0  0  0  0  0  0  0  0  0  0
   45.8200   35.0380   43.4250 C   0  0  0  0  0  0  0  0  0  0  0  0
   45.8290   33.7170   43.8340 N   0  0  0  0  0  0  0  0  0  0  0  0
   45.3290   33.2840   44.9920 C   0  0  0  0  0  0  0  0  0  0  0  0
   44.7870   34.2010   45.8000 N   0  0  0  0  0  0  0  0  0  0  0  0
   44.2970   36.1300   46.1760 H   0  0  0  0  0  0  0  0  0  0  0  0
   45.4580   32.2170   45.0740 H   0  0  0  0  0  0  0  0  0  0  0  0
   46.3120   35.4030   42.0420 C   0  0  0  0  0  0  0  0  0  0  0  0
   47.8230   35.1630   41.9320 C   0  0  0  0  0  0  0  0  0  0  0  0
   46.7490   34.3370   41.1610 C   0  0  0  0  0  0  0  0  0  0  0  0
   46.1370   36.4750   41.8040 H   0  0  0  0  0  0  0  0  0  0  0  0
   48.4390   35.8100   41.3030 H   0  0  0  0  0  0  0  0  0  0  0  0
   48.3430   34.5870   42.7130 H   0  0  0  0  0  0  0  0  0  0  0  0
   46.5920   33.3020   41.5070 H   0  0  0  0  0  0  0  0  0  0  0  0
   46.6970   34.5490   40.0710 H   0  0  0  0  0  0  0  0  0  0  0  0
   45.2220   37.3650   43.9360 C   0  0  0  0  0  0  0  0  0  0  0  0
   45.3220   38.3110   44.9680 C   0  0  0  0  0  0  0  0  0  0  0  0
   45.4370   38.2050   46.0380 H   0  0  0  0  0  0  0  0  0  0  0  0
   45.2860   39.6350   44.7560 C   0  0  0  0  0  3  0  0  0  0  0  0
   45.1380   40.0820   43.4070 C   0  0  0  0  0  3  0  0  0  0  0  0
   45.0620   38.4200   42.5240 S   0  0  0  0  0  0  0  0  0  0  0  0
  1  6  1  0  0  0  0
  1  7  1  0  0  0  0
  2  1  2  0  0  0  0
  3  4  2  0  0  0  0
  3  2  1  0  0  0  0
  4  5  1  0  0  0  0
  5  8  1  0  0  0  0
  5  6  2  0  0  0  0
  9  3  1  0  0  0  0
 10  9  1  0  0  0  0
 10 14  1  0  0  0  0
 11 15  1  0  0  0  0
 11 10  1  0  0  0  0
 11  9  1  0  0  0  0
 12  9  1  0  0  0  0
 13 10  1  0  0  0  0
 16 11  1  0  0  0  0
 17  2  1  0  0  0  0
 17 18  2  0  0  0  0
 18 19  1  0  0  0  0
 20 18  1  0  0  0  0
 21 20  2  0  0  0  0
 22 21  1  0  0  0  0
 22 17  1  0  0  0  0
M  END
>  <minimizedAffinity>
0.193989843

>  <minimizedRMSD>
1.86846077

$$$$
