
 OpenBabel03242517243D

 40 43  0  0  1  0  0  0  0  0999 V2000
   38.8170   32.5160   40.6990 C   0  0  0  0  0  0  0  0  0  0  0  0
   38.0200   32.8520   39.5790 C   0  0  0  0  0  0  0  0  0  0  0  0
   36.9510   32.0030   39.2270 C   0  0  0  0  0  0  0  0  0  0  0  0
   36.7530   30.9030   39.9950 N   0  0  0  0  0  0  0  0  0  0  0  0
   37.5380   30.6050   41.0680 C   0  0  0  0  0  0  0  0  0  0  0  0
   38.5730   31.4170   41.4180 N   0  0  0  0  0  0  0  0  0  0  0  0
   37.2350   29.4180   41.8060 N   0  0  0  0  0  0  0  0  0  0  0  0
   37.9050   29.3060   43.1020 C   0  0  0  0  0  0  0  0  0  0  0  0
   37.9110   27.9480   43.6800 C   0  0  0  0  0  0  0  0  0  0  0  0
   36.6670   27.2030   43.3290 C   0  0  0  0  0  0  0  0  0  0  0  0
   36.6330   27.0880   41.8410 C   0  0  0  0  0  0  0  0  0  0  0  0
   36.3300   28.4290   41.2760 C   0  0  2  0  0  0  0  0  0  0  0  0
   39.6470   33.1380   41.0060 H   0  0  0  0  0  0  0  0  0  0  0  0
   38.2420   33.7520   39.0140 H   0  0  0  0  0  0  0  0  0  0  0  0
   36.3400   32.2450   38.3830 H   0  0  0  0  0  0  0  0  0  0  0  0
   37.2800   29.9530   43.7840 H   0  0  0  0  0  0  0  0  0  0  0  0
   38.9010   29.7980   43.0860 H   0  0  0  0  0  0  0  0  0  0  0  0
   38.8080   27.3690   43.3830 H   0  0  0  0  0  0  0  0  0  0  0  0
   37.9540   28.0390   44.7970 H   0  0  0  0  0  0  0  0  0  0  0  0
   35.7750   27.6730   43.7740 H   0  0  0  0  0  0  0  0  0  0  0  0
   36.7590   26.1620   43.7350 H   0  0  0  0  0  0  0  0  0  0  0  0
   37.6190   26.7580   41.4920 H   0  0  0  0  0  0  0  0  0  0  0  0
   35.8450   26.3510   41.5260 H   0  0  0  0  0  0  0  0  0  0  0  0
   35.3130   28.7340   41.6100 H   0  0  0  0  0  0  0  0  0  0  0  0
   33.9960   29.0600   39.7610 F   0  0  0  0  0  0  0  0  0  0  0  0
   35.1100   28.7230   39.0660 C   0  0  0  0  0  0  0  0  0  0  0  0
   36.2520   28.4170   39.7860 C   0  0  0  0  0  0  0  0  0  0  0  0
   37.3660   28.0800   39.0220 C   0  0  0  0  0  0  0  0  0  0  0  0
   37.3640   28.0440   37.6470 C   0  0  0  0  0  0  0  0  0  0  0  0
   36.2150   28.3530   36.9720 C   0  0  0  0  0  0  0  0  0  0  0  0
   35.0890   28.6920   37.6980 C   0  0  0  0  0  0  0  0  0  0  0  0
   38.2790   27.8340   39.5470 H   0  0  0  0  0  0  0  0  0  0  0  0
   38.2760   27.7710   37.1300 H   0  0  0  0  0  0  0  0  0  0  0  0
   36.2300   28.3200   35.8960 H   0  0  0  0  0  0  0  0  0  0  0  0
   33.9190   29.0040   36.8970 C   0  0  0  0  0  0  0  0  0  0  0  0
   32.7000   29.2120   37.3800 C   0  0  0  0  0  0  0  0  0  0  0  0
   32.2290   29.2210   38.3510 H   0  0  0  0  0  0  0  0  0  0  0  0
   31.5990   29.5050   36.6470 C   0  0  0  0  0  3  0  0  0  0  0  0
   31.9480   29.5660   35.1820 C   0  0  0  0  0  3  0  0  0  0  0  0
   33.7950   29.1870   35.1720 S   0  0  0  0  0  0  0  0  0  0  0  0
  1 13  1  0  0  0  0
  1  6  1  0  0  0  0
  2  1  2  0  0  0  0
  3  2  1  0  0  0  0
  3  4  2  0  0  0  0
  4  5  1  0  0  0  0
  5  6  2  0  0  0  0
  5  7  1  0  0  0  0
  7  8  1  0  0  0  0
  8  9  1  0  0  0  0
  8 16  1  0  0  0  0
  9 19  1  0  0  0  0
 10  9  1  0  0  0  0
 10 21  1  0  0  0  0
 10 20  1  0  0  0  0
 11 10  1  0  0  0  0
 12 24  1  1  0  0  0
 12  7  1  0  0  0  0
 12 11  1  0  0  0  0
 14  2  1  0  0  0  0
 15  3  1  0  0  0  0
 17  8  1  0  0  0  0
 18  9  1  0  0  0  0
 22 11  1  0  0  0  0
 23 11  1  0  0  0  0
 26 25  1  0  0  0  0
 26 27  1  0  0  0  0
 27 12  1  0  0  0  0
 28 32  1  0  0  0  0
 28 27  2  0  0  0  0
 29 28  1  0  0  0  0
 30 29  2  0  0  0  0
 30 31  1  0  0  0  0
 31 26  2  0  0  0  0
 33 29  1  0  0  0  0
 34 30  1  0  0  0  0
 35 36  2  0  0  0  0
 35 31  1  0  0  0  0
 36 37  1  0  0  0  0
 38 36  1  0  0  0  0
 39 38  2  0  0  0  0
 40 39  1  0  0  0  0
 40 35  1  0  0  0  0
M  END
>  <minimizedAffinity>
-6.33231163

$$$$

 OpenBabel03242517243D

 40 43  0  0  1  0  0  0  0  0999 V2000
   42.0580   30.8400   42.9250 C   0  0  0  0  0  0  0  0  0  0  0  0
   42.1920   29.4340   42.9990 C   0  0  0  0  0  0  0  0  0  0  0  0
   41.2240   28.6250   42.3690 C   0  0  0  0  0  0  0  0  0  0  0  0
   40.2140   29.2570   41.7220 N   0  0  0  0  0  0  0  0  0  0  0  0
   40.1110   30.6140   41.6680 C   0  0  0  0  0  0  0  0  0  0  0  0
   41.0390   31.4050   42.2730 N   0  0  0  0  0  0  0  0  0  0  0  0
   39.0020   31.1700   40.9570 N   0  0  0  0  0  0  0  0  0  0  0  0
   39.1010   32.6030   40.6760 C   0  0  0  0  0  0  0  0  0  0  0  0
   37.8280   33.2500   40.3050 C   0  0  0  0  0  0  0  0  0  0  0  0
   36.9490   32.3210   39.5370 C   0  0  0  0  0  0  0  0  0  0  0  0
   36.6520   31.1640   40.4320 C   0  0  0  0  0  0  0  0  0  0  0  0
   37.8870   30.3450   40.5630 C   0  0  2  0  0  0  0  0  0  0  0  0
   42.7770   31.4990   43.3930 H   0  0  0  0  0  0  0  0  0  0  0  0
   43.0310   29.0020   43.5360 H   0  0  0  0  0  0  0  0  0  0  0  0
   41.3140   27.5600   42.4170 H   0  0  0  0  0  0  0  0  0  0  0  0
   39.7740   32.6530   39.7710 H   0  0  0  0  0  0  0  0  0  0  0  0
   39.6650   33.1320   41.4730 H   0  0  0  0  0  0  0  0  0  0  0  0
   37.2900   33.6560   41.1840 H   0  0  0  0  0  0  0  0  0  0  0  0
   38.0560   34.1290   39.6460 H   0  0  0  0  0  0  0  0  0  0  0  0
   37.3980   32.0480   38.5680 H   0  0  0  0  0  0  0  0  0  0  0  0
   35.9760   32.8420   39.3430 H   0  0  0  0  0  0  0  0  0  0  0  0
   36.3620   31.5480   41.4170 H   0  0  0  0  0  0  0  0  0  0  0  0
   35.8220   30.5410   40.0010 H   0  0  0  0  0  0  0  0  0  0  0  0
   38.1490   29.9340   39.5630 H   0  0  0  0  0  0  0  0  0  0  0  0
   37.9560   27.6450   39.6420 F   0  0  0  0  0  0  0  0  0  0  0  0
   37.7220   27.8410   40.9620 C   0  0  0  0  0  0  0  0  0  0  0  0
   37.6890   29.1450   41.4260 C   0  0  0  0  0  0  0  0  0  0  0  0
   37.4470   29.2860   42.7900 C   0  0  0  0  0  0  0  0  0  0  0  0
   37.2500   28.2260   43.6430 C   0  0  0  0  0  0  0  0  0  0  0  0
   37.2910   26.9520   43.1450 C   0  0  0  0  0  0  0  0  0  0  0  0
   37.5280   26.7730   41.7960 C   0  0  0  0  0  0  0  0  0  0  0  0
   37.4130   30.2900   43.1930 H   0  0  0  0  0  0  0  0  0  0  0  0
   37.0680   28.4250   44.6920 H   0  0  0  0  0  0  0  0  0  0  0  0
   37.1350   26.1320   43.8270 H   0  0  0  0  0  0  0  0  0  0  0  0
   37.5540   25.3880   41.3600 C   0  0  0  0  0  0  0  0  0  0  0  0
   36.5750   24.7800   40.6990 C   0  0  0  0  0  0  0  0  0  0  0  0
   35.5980   25.0430   40.3220 H   0  0  0  0  0  0  0  0  0  0  0  0
   36.5850   23.4910   40.2850 C   0  0  0  0  0  3  0  0  0  0  0  0
   37.8770   22.8240   40.6800 C   0  0  0  0  0  3  0  0  0  0  0  0
   38.8080   24.2020   41.5670 S   0  0  0  0  0  0  0  0  0  0  0  0
  1  2  1  0  0  0  0
  1 13  1  0  0  0  0
  2 14  1  0  0  0  0
  3 15  1  0  0  0  0
  3  2  2  0  0  0  0
  4  3  1  0  0  0  0
  5  4  2  0  0  0  0
  5  6  1  0  0  0  0
  6  1  2  0  0  0  0
  7  5  1  0  0  0  0
  8  7  1  0  0  0  0
  8 17  1  0  0  0  0
  9  8  1  0  0  0  0
  9 18  1  0  0  0  0
 10  9  1  0  0  0  0
 10 11  1  0  0  0  0
 11 12  1  0  0  0  0
 11 22  1  0  0  0  0
 12 24  1  6  0  0  0
 12  7  1  0  0  0  0
 12 27  1  0  0  0  0
 16  8  1  0  0  0  0
 19  9  1  0  0  0  0
 20 10  1  0  0  0  0
 21 10  1  0  0  0  0
 23 11  1  0  0  0  0
 25 26  1  0  0  0  0
 26 27  2  0  0  0  0
 26 31  1  0  0  0  0
 27 28  1  0  0  0  0
 28 32  1  0  0  0  0
 28 29  2  0  0  0  0
 29 33  1  0  0  0  0
 30 29  1  0  0  0  0
 30 34  1  0  0  0  0
 31 30  2  0  0  0  0
 35 40  1  0  0  0  0
 35 31  1  0  0  0  0
 36 35  2  0  0  0  0
 37 36  1  0  0  0  0
 38 39  2  0  0  0  0
 38 36  1  0  0  0  0
 39 40  1  0  0  0  0
M  END
>  <minimizedAffinity>
-6.24765444

$$$$

 OpenBabel03242517243D

 40 43  0  0  1  0  0  0  0  0999 V2000
   35.5200   27.9380   37.7040 C   0  0  0  0  0  0  0  0  0  0  0  0
   36.2810   28.7660   36.8470 C   0  0  0  0  0  0  0  0  0  0  0  0
   37.3960   29.4480   37.3750 C   0  0  0  0  0  0  0  0  0  0  0  0
   37.6710   29.2630   38.6900 N   0  0  0  0  0  0  0  0  0  0  0  0
   36.9200   28.4590   39.4920 C   0  0  0  0  0  0  0  0  0  0  0  0
   35.8410   27.7950   38.9930 N   0  0  0  0  0  0  0  0  0  0  0  0
   37.3040   28.3390   40.8640 N   0  0  0  0  0  0  0  0  0  0  0  0
   36.6570   27.2480   41.5960 C   0  0  0  0  0  0  0  0  0  0  0  0
   36.7420   27.3540   43.0650 C   0  0  0  0  0  0  0  0  0  0  0  0
   38.0250   27.9840   43.4920 C   0  0  0  0  0  0  0  0  0  0  0  0
   38.0490   29.3600   42.9130 C   0  0  0  0  0  0  0  0  0  0  0  0
   38.2620   29.2450   41.4450 C   0  0  2  0  0  0  0  0  0  0  0  0
   34.6570   27.3950   37.3430 H   0  0  0  0  0  0  0  0  0  0  0  0
   35.9980   28.8630   35.8040 H   0  0  0  0  0  0  0  0  0  0  0  0
   37.9810   30.0780   36.7380 H   0  0  0  0  0  0  0  0  0  0  0  0
   37.2500   26.3360   41.2950 H   0  0  0  0  0  0  0  0  0  0  0  0
   35.6330   27.0560   41.2110 H   0  0  0  0  0  0  0  0  0  0  0  0
   35.8790   27.8980   43.4980 H   0  0  0  0  0  0  0  0  0  0  0  0
   36.7070   26.3200   43.4970 H   0  0  0  0  0  0  0  0  0  0  0  0
   38.8920   27.3580   43.2230 H   0  0  0  0  0  0  0  0  0  0  0  0
   38.0030   28.0990   44.6060 H   0  0  0  0  0  0  0  0  0  0  0  0
   37.0810   29.8380   43.1060 H   0  0  0  0  0  0  0  0  0  0  0  0
   38.8770   29.9630   43.3750 H   0  0  0  0  0  0  0  0  0  0  0  0
   39.2620   28.7910   41.2650 H   0  0  0  0  0  0  0  0  0  0  0  0
   40.5860   30.3380   40.2020 F   0  0  0  0  0  0  0  0  0  0  0  0
   39.4600   31.0920   40.1760 C   0  0  0  0  0  0  0  0  0  0  0  0
   38.3230   30.5750   40.7710 C   0  0  0  0  0  0  0  0  0  0  0  0
   37.1960   31.3900   40.7120 C   0  0  0  0  0  0  0  0  0  0  0  0
   37.1810   32.6270   40.1120 C   0  0  0  0  0  0  0  0  0  0  0  0
   38.3260   33.1030   39.5340 C   0  0  0  0  0  0  0  0  0  0  0  0
   39.4650   32.3210   39.5740 C   0  0  0  0  0  0  0  0  0  0  0  0
   36.2850   31.0220   41.1660 H   0  0  0  0  0  0  0  0  0  0  0  0
   36.2600   33.1970   40.1110 H   0  0  0  0  0  0  0  0  0  0  0  0
   38.2980   34.0740   39.0680 H   0  0  0  0  0  0  0  0  0  0  0  0
   40.6300   32.9070   38.9350 C   0  0  0  0  0  0  0  0  0  0  0  0
   41.0940   32.5660   37.7390 C   0  0  0  0  0  0  0  0  0  0  0  0
   40.8280   31.8660   36.9620 H   0  0  0  0  0  0  0  0  0  0  0  0
   42.1780   33.1030   37.1310 C   0  0  0  0  0  3  0  0  0  0  0  0
   42.7990   34.1610   38.0060 C   0  0  0  0  0  3  0  0  0  0  0  0
   41.6850   34.1570   39.5260 S   0  0  0  0  0  0  0  0  0  0  0  0
  1  6  1  0  0  0  0
  2  3  1  0  0  0  0
  2  1  2  0  0  0  0
  3  4  2  0  0  0  0
  4  5  1  0  0  0  0
  5  7  1  0  0  0  0
  6  5  2  0  0  0  0
  7 12  1  0  0  0  0
  7  8  1  0  0  0  0
  8  9  1  0  0  0  0
  9 10  1  0  0  0  0
  9 19  1  0  0  0  0
  9 18  1  0  0  0  0
 10 21  1  0  0  0  0
 11 22  1  0  0  0  0
 11 23  1  0  0  0  0
 11 10  1  0  0  0  0
 12 24  1  6  0  0  0
 12 11  1  0  0  0  0
 13  1  1  0  0  0  0
 14  2  1  0  0  0  0
 15  3  1  0  0  0  0
 16  8  1  0  0  0  0
 17  8  1  0  0  0  0
 20 10  1  0  0  0  0
 26 25  1  0  0  0  0
 26 27  1  0  0  0  0
 27 12  1  0  0  0  0
 28 27  2  0  0  0  0
 28 32  1  0  0  0  0
 29 28  1  0  0  0  0
 30 31  1  0  0  0  0
 30 29  2  0  0  0  0
 31 26  2  0  0  0  0
 33 29  1  0  0  0  0
 34 30  1  0  0  0  0
 35 40  1  0  0  0  0
 35 31  1  0  0  0  0
 36 35  2  0  0  0  0
 37 36  1  0  0  0  0
 38 36  1  0  0  0  0
 38 39  2  0  0  0  0
 39 40  1  0  0  0  0
M  END
>  <minimizedAffinity>
-5.94890404

$$$$

 OpenBabel03242517243D

 40 43  0  0  1  0  0  0  0  0999 V2000
   36.5350   30.2570   38.1350 C   0  0  0  0  0  0  0  0  0  0  0  0
   35.3980   29.6870   38.7540 C   0  0  0  0  0  0  0  0  0  0  0  0
   35.4550   29.3790   40.1280 C   0  0  0  0  0  0  0  0  0  0  0  0
   36.6130   29.6540   40.7780 N   0  0  0  0  0  0  0  0  0  0  0  0
   37.6920   30.2030   40.1560 C   0  0  0  0  0  0  0  0  0  0  0  0
   37.6500   30.5050   38.8290 N   0  0  0  0  0  0  0  0  0  0  0  0
   38.8620   30.4500   40.9420 N   0  0  0  0  0  0  0  0  0  0  0  0
   39.8670   31.3020   40.3070 C   0  0  0  0  0  0  0  0  0  0  0  0
   41.2060   31.2440   40.9240 C   0  0  0  0  0  0  0  0  0  0  0  0
   41.1160   31.0360   42.3990 C   0  0  0  0  0  0  0  0  0  0  0  0
   40.4360   29.7250   42.6120 C   0  0  0  0  0  0  0  0  0  0  0  0
   39.0000   29.8810   42.2590 C   0  0  2  0  0  0  0  0  0  0  0  0
   36.5370   30.5100   37.0840 H   0  0  0  0  0  0  0  0  0  0  0  0
   34.5060   29.4970   38.1650 H   0  0  0  0  0  0  0  0  0  0  0  0
   34.6020   28.9480   40.6090 H   0  0  0  0  0  0  0  0  0  0  0  0
   39.4730   32.3480   40.4690 H   0  0  0  0  0  0  0  0  0  0  0  0
   39.8680   31.1730   39.2040 H   0  0  0  0  0  0  0  0  0  0  0  0
   41.8500   30.4700   40.4610 H   0  0  0  0  0  0  0  0  0  0  0  0
   41.7210   32.2250   40.7470 H   0  0  0  0  0  0  0  0  0  0  0  0
   40.6340   31.8910   42.8990 H   0  0  0  0  0  0  0  0  0  0  0  0
   42.1580   30.9320   42.8000 H   0  0  0  0  0  0  0  0  0  0  0  0
   40.8960   28.9790   41.9530 H   0  0  0  0  0  0  0  0  0  0  0  0
   40.5350   29.4050   43.6850 H   0  0  0  0  0  0  0  0  0  0  0  0
   38.5390   30.6130   42.9590 H   0  0  0  0  0  0  0  0  0  0  0  0
   39.3950   27.4670   40.7900 F   0  0  0  0  0  0  0  0  0  0  0  0
   38.4240   27.4620   41.7360 C   0  0  0  0  0  0  0  0  0  0  0  0
   38.2220   28.6240   42.4600 C   0  0  0  0  0  0  0  0  0  0  0  0
   37.2140   28.5610   43.4190 C   0  0  0  0  0  0  0  0  0  0  0  0
   36.4550   27.4390   43.6550 C   0  0  0  0  0  0  0  0  0  0  0  0
   36.6870   26.3090   42.9180 C   0  0  0  0  0  0  0  0  0  0  0  0
   37.6780   26.3350   41.9560 C   0  0  0  0  0  0  0  0  0  0  0  0
   37.0240   29.4490   44.0070 H   0  0  0  0  0  0  0  0  0  0  0  0
   35.6910   27.4760   44.4210 H   0  0  0  0  0  0  0  0  0  0  0  0
   36.0840   25.4390   43.1150 H   0  0  0  0  0  0  0  0  0  0  0  0
   37.8520   25.0920   41.2260 C   0  0  0  0  0  0  0  0  0  0  0  0
   36.8620   24.3450   40.7500 C   0  0  0  0  0  0  0  0  0  0  0  0
   35.7840   24.3820   40.7380 H   0  0  0  0  0  0  0  0  0  0  0  0
   37.0080   23.1850   40.0670 C   0  0  0  0  0  3  0  0  0  0  0  0
   38.4690   22.8480   39.9130 C   0  0  0  0  0  3  0  0  0  0  0  0
   39.3260   24.2790   40.7900 S   0  0  0  0  0  0  0  0  0  0  0  0
  1  2  2  0  0  0  0
  1  6  1  0  0  0  0
  2  3  1  0  0  0  0
  3 15  1  0  0  0  0
  3  4  2  0  0  0  0
  5  4  1  0  0  0  0
  5  7  1  0  0  0  0
  6  5  2  0  0  0  0
  7 12  1  0  0  0  0
  8 16  1  0  0  0  0
  8  9  1  0  0  0  0
  8  7  1  0  0  0  0
  9 10  1  0  0  0  0
 10 11  1  0  0  0  0
 10 21  1  0  0  0  0
 10 20  1  0  0  0  0
 11 23  1  0  0  0  0
 12 27  1  0  0  0  0
 12 11  1  0  0  0  0
 12 24  1  1  0  0  0
 13  1  1  0  0  0  0
 14  2  1  0  0  0  0
 17  8  1  0  0  0  0
 18  9  1  0  0  0  0
 19  9  1  0  0  0  0
 22 11  1  0  0  0  0
 25 26  1  0  0  0  0
 26 31  2  0  0  0  0
 26 27  1  0  0  0  0
 27 28  2  0  0  0  0
 28 29  1  0  0  0  0
 28 32  1  0  0  0  0
 29 33  1  0  0  0  0
 30 34  1  0  0  0  0
 30 29  2  0  0  0  0
 31 30  1  0  0  0  0
 35 31  1  0  0  0  0
 36 35  2  0  0  0  0
 37 36  1  0  0  0  0
 38 36  1  0  0  0  0
 39 38  2  0  0  0  0
 39 40  1  0  0  0  0
 40 35  1  0  0  0  0
M  END
>  <minimizedAffinity>
-5.88595438

$$$$

 OpenBabel03242517243D

 40 43  0  0  1  0  0  0  0  0999 V2000
   37.8440   31.0270   38.6180 C   0  0  0  0  0  0  0  0  0  0  0  0
   36.5670   30.7820   39.1740 C   0  0  0  0  0  0  0  0  0  0  0  0
   36.4820   30.3060   40.4970 C   0  0  0  0  0  0  0  0  0  0  0  0
   37.6470   30.1090   41.1620 N   0  0  0  0  0  0  0  0  0  0  0  0
   38.8630   30.3530   40.6010 C   0  0  0  0  0  0  0  0  0  0  0  0
   38.9580   30.8140   39.3230 N   0  0  0  0  0  0  0  0  0  0  0  0
   40.0260   30.1100   41.3970 N   0  0  0  0  0  0  0  0  0  0  0  0
   41.2710   30.6640   40.8620 C   0  0  0  0  0  0  0  0  0  0  0  0
   42.5010   30.1020   41.4510 C   0  0  0  0  0  0  0  0  0  0  0  0
   42.3070   29.7530   42.8880 C   0  0  0  0  0  0  0  0  0  0  0  0
   41.2340   28.7160   42.9430 C   0  0  0  0  0  0  0  0  0  0  0  0
   39.9360   29.3700   42.6300 C   0  0  2  0  0  0  0  0  0  0  0  0
   37.9580   31.3930   37.6070 H   0  0  0  0  0  0  0  0  0  0  0  0
   35.6780   30.9650   38.5770 H   0  0  0  0  0  0  0  0  0  0  0  0
   35.5210   30.1170   40.9300 H   0  0  0  0  0  0  0  0  0  0  0  0
   41.2300   31.7520   41.1600 H   0  0  0  0  0  0  0  0  0  0  0  0
   41.2620   30.6780   39.7520 H   0  0  0  0  0  0  0  0  0  0  0  0
   42.8750   29.2240   40.8860 H   0  0  0  0  0  0  0  0  0  0  0  0
   43.3090   30.8770   41.3920 H   0  0  0  0  0  0  0  0  0  0  0  0
   42.1100   30.6500   43.4980 H   0  0  0  0  0  0  0  0  0  0  0  0
   43.2470   29.2700   43.2600 H   0  0  0  0  0  0  0  0  0  0  0  0
   41.4490   27.9490   42.1900 H   0  0  0  0  0  0  0  0  0  0  0  0
   41.1940   28.2510   43.9660 H   0  0  0  0  0  0  0  0  0  0  0  0
   39.7150   30.1200   43.4230 H   0  0  0  0  0  0  0  0  0  0  0  0
   39.6580   27.0640   40.9720 F   0  0  0  0  0  0  0  0  0  0  0  0
   38.6680   27.3040   41.8670 C   0  0  0  0  0  0  0  0  0  0  0  0
   38.7890   28.4170   42.6810 C   0  0  0  0  0  0  0  0  0  0  0  0
   37.7450   28.6120   43.5820 C   0  0  0  0  0  0  0  0  0  0  0  0
   36.6570   27.7780   43.6800 C   0  0  0  0  0  0  0  0  0  0  0  0
   36.5750   26.6880   42.8570 C   0  0  0  0  0  0  0  0  0  0  0  0
   37.5920   26.4620   41.9500 C   0  0  0  0  0  0  0  0  0  0  0  0
   37.8020   29.4720   44.2370 H   0  0  0  0  0  0  0  0  0  0  0  0
   35.8890   28.0040   44.4090 H   0  0  0  0  0  0  0  0  0  0  0  0
   35.7160   26.0440   42.9460 H   0  0  0  0  0  0  0  0  0  0  0  0
   37.4190   25.2830   41.1200 C   0  0  0  0  0  0  0  0  0  0  0  0
   37.8530   24.0660   41.4270 C   0  0  0  0  0  0  0  0  0  0  0  0
   38.3880   23.6040   42.2430 H   0  0  0  0  0  0  0  0  0  0  0  0
   37.6990   22.9570   40.6650 C   0  0  0  0  0  3  0  0  0  0  0  0
   36.9540   23.2930   39.3980 C   0  0  0  0  0  3  0  0  0  0  0  0
   36.6330   25.1420   39.5750 S   0  0  0  0  0  0  0  0  0  0  0  0
  1  2  2  0  0  0  0
  1  6  1  0  0  0  0
  2  3  1  0  0  0  0
  3 15  1  0  0  0  0
  3  4  2  0  0  0  0
  5  4  1  0  0  0  0
  5  7  1  0  0  0  0
  6  5  2  0  0  0  0
  7 12  1  0  0  0  0
  8 16  1  0  0  0  0
  8  7  1  0  0  0  0
  8  9  1  0  0  0  0
  9 10  1  0  0  0  0
 10 11  1  0  0  0  0
 10 21  1  0  0  0  0
 10 20  1  0  0  0  0
 11 23  1  0  0  0  0
 12 27  1  0  0  0  0
 12 11  1  0  0  0  0
 12 24  1  1  0  0  0
 13  1  1  0  0  0  0
 14  2  1  0  0  0  0
 17  8  1  0  0  0  0
 18  9  1  0  0  0  0
 19  9  1  0  0  0  0
 22 11  1  0  0  0  0
 25 26  1  0  0  0  0
 26 31  2  0  0  0  0
 26 27  1  0  0  0  0
 27 28  2  0  0  0  0
 28 29  1  0  0  0  0
 28 32  1  0  0  0  0
 29 33  1  0  0  0  0
 30 34  1  0  0  0  0
 30 29  2  0  0  0  0
 31 30  1  0  0  0  0
 35 36  2  0  0  0  0
 35 31  1  0  0  0  0
 36 37  1  0  0  0  0
 38 36  1  0  0  0  0
 39 40  1  0  0  0  0
 39 38  2  0  0  0  0
 40 35  1  0  0  0  0
M  END
>  <minimizedAffinity>
-5.88099861

$$$$

 OpenBabel03242517243D

 40 43  0  0  1  0  0  0  0  0999 V2000
   37.0270   26.4960   36.0750 C   0  0  0  0  0  0  0  0  0  0  0  0
   37.3600   27.8620   35.9220 C   0  0  0  0  0  0  0  0  0  0  0  0
   37.7850   28.5880   37.0530 C   0  0  0  0  0  0  0  0  0  0  0  0
   37.8480   27.9210   38.2310 N   0  0  0  0  0  0  0  0  0  0  0  0
   37.5200   26.6040   38.3480 C   0  0  0  0  0  0  0  0  0  0  0  0
   37.1090   25.8920   37.2630 N   0  0  0  0  0  0  0  0  0  0  0  0
   37.6250   26.0030   39.6420 N   0  0  0  0  0  0  0  0  0  0  0  0
   37.5530   24.5410   39.6540 C   0  0  0  0  0  0  0  0  0  0  0  0
   37.2720   23.9470   40.9750 C   0  0  0  0  0  0  0  0  0  0  0  0
   37.8820   24.7500   42.0740 C   0  0  0  0  0  0  0  0  0  0  0  0
   37.2610   26.1060   42.0190 C   0  0  0  0  0  0  0  0  0  0  0  0
   37.7890   26.8140   40.8220 C   0  0  2  0  0  0  0  0  0  0  0  0
   36.6970   25.9000   35.2350 H   0  0  0  0  0  0  0  0  0  0  0  0
   37.2850   28.3270   34.9440 H   0  0  0  0  0  0  0  0  0  0  0  0
   38.0400   29.6220   36.9520 H   0  0  0  0  0  0  0  0  0  0  0  0
   38.5950   24.2200   39.3620 H   0  0  0  0  0  0  0  0  0  0  0  0
   36.9050   24.1620   38.8360 H   0  0  0  0  0  0  0  0  0  0  0  0
   36.1860   23.8090   41.1510 H   0  0  0  0  0  0  0  0  0  0  0  0
   37.7250   22.9220   41.0060 H   0  0  0  0  0  0  0  0  0  0  0  0
   38.9820   24.7460   42.0140 H   0  0  0  0  0  0  0  0  0  0  0  0
   37.5790   24.2910   43.0510 H   0  0  0  0  0  0  0  0  0  0  0  0
   36.1740   25.9910   41.9260 H   0  0  0  0  0  0  0  0  0  0  0  0
   37.5090   26.6860   42.9490 H   0  0  0  0  0  0  0  0  0  0  0  0
   38.8850   26.9550   40.9480 H   0  0  0  0  0  0  0  0  0  0  0  0
   39.3640   29.1920   40.7590 F   0  0  0  0  0  0  0  0  0  0  0  0
   38.0200   29.3390   40.6620 C   0  0  0  0  0  0  0  0  0  0  0  0
   37.2420   28.1950   40.6880 C   0  0  0  0  0  0  0  0  0  0  0  0
   35.8690   28.4060   40.5830 C   0  0  0  0  0  0  0  0  0  0  0  0
   35.2960   29.6500   40.4610 C   0  0  0  0  0  0  0  0  0  0  0  0
   36.1010   30.7570   40.4390 C   0  0  0  0  0  0  0  0  0  0  0  0
   37.4680   30.5860   40.5420 C   0  0  0  0  0  0  0  0  0  0  0  0
   35.2250   27.5370   40.5990 H   0  0  0  0  0  0  0  0  0  0  0  0
   34.2190   29.7240   40.3850 H   0  0  0  0  0  0  0  0  0  0  0  0
   35.6370   31.7240   40.3430 H   0  0  0  0  0  0  0  0  0  0  0  0
   38.2400   31.8150   40.5090 C   0  0  0  0  0  0  0  0  0  0  0  0
   37.7650   33.0040   40.1560 C   0  0  0  0  0  0  0  0  0  0  0  0
   36.8180   33.4070   39.8290 H   0  0  0  0  0  0  0  0  0  0  0  0
   38.4720   34.1580   40.1210 C   0  0  0  0  0  3  0  0  0  0  0  0
   39.8970   33.9120   40.5450 C   0  0  0  0  0  3  0  0  0  0  0  0
   39.9160   32.0620   40.9040 S   0  0  0  0  0  0  0  0  0  0  0  0
  1  6  1  0  0  0  0
  2  1  2  0  0  0  0
  2  3  1  0  0  0  0
  3  4  2  0  0  0  0
  4  5  1  0  0  0  0
  5  7  1  0  0  0  0
  6  5  2  0  0  0  0
  7  8  1  0  0  0  0
  7 12  1  0  0  0  0
  8  9  1  0  0  0  0
  9 19  1  0  0  0  0
  9 18  1  0  0  0  0
  9 10  1  0  0  0  0
 10 21  1  0  0  0  0
 11 10  1  0  0  0  0
 11 23  1  0  0  0  0
 12 24  1  1  0  0  0
 12 11  1  0  0  0  0
 13  1  1  0  0  0  0
 14  2  1  0  0  0  0
 15  3  1  0  0  0  0
 16  8  1  0  0  0  0
 17  8  1  0  0  0  0
 20 10  1  0  0  0  0
 22 11  1  0  0  0  0
 26 27  1  0  0  0  0
 26 25  1  0  0  0  0
 27 12  1  0  0  0  0
 28 32  1  0  0  0  0
 28 27  2  0  0  0  0
 29 28  1  0  0  0  0
 30 29  2  0  0  0  0
 30 31  1  0  0  0  0
 31 26  2  0  0  0  0
 33 29  1  0  0  0  0
 34 30  1  0  0  0  0
 35 31  1  0  0  0  0
 35 40  1  0  0  0  0
 36 35  2  0  0  0  0
 37 36  1  0  0  0  0
 38 36  1  0  0  0  0
 38 39  2  0  0  0  0
 39 40  1  0  0  0  0
M  END
>  <minimizedAffinity>
-5.71095371

$$$$

 OpenBabel03242517243D

 40 43  0  0  1  0  0  0  0  0999 V2000
   41.9570   29.5190   38.1870 C   0  0  0  0  0  0  0  0  0  0  0  0
   41.2860   28.5760   37.3730 C   0  0  0  0  0  0  0  0  0  0  0  0
   39.9220   28.7790   37.0830 C   0  0  0  0  0  0  0  0  0  0  0  0
   39.3320   29.8800   37.6100 N   0  0  0  0  0  0  0  0  0  0  0  0
   40.0040   30.7710   38.3910 C   0  0  0  0  0  0  0  0  0  0  0  0
   41.3220   30.5860   38.6790 N   0  0  0  0  0  0  0  0  0  0  0  0
   39.2790   31.8970   38.8930 N   0  0  0  0  0  0  0  0  0  0  0  0
   40.1050   32.9610   39.4650 C   0  0  0  0  0  0  0  0  0  0  0  0
   39.3760   33.9200   40.3160 C   0  0  0  0  0  0  0  0  0  0  0  0
   37.9840   34.1340   39.8250 C   0  0  0  0  0  0  0  0  0  0  0  0
   37.2910   32.8140   39.8930 C   0  0  0  0  0  0  0  0  0  0  0  0
   37.8400   31.9420   38.8200 C   0  0  2  0  0  0  0  0  0  0  0  0
   43.0040   29.4040   38.4360 H   0  0  0  0  0  0  0  0  0  0  0  0
   41.8280   27.7190   36.9870 H   0  0  0  0  0  0  0  0  0  0  0  0
   39.4020   28.0740   36.4680 H   0  0  0  0  0  0  0  0  0  0  0  0
   40.4710   33.5310   38.5620 H   0  0  0  0  0  0  0  0  0  0  0  0
   41.0280   32.5510   39.9280 H   0  0  0  0  0  0  0  0  0  0  0  0
   39.3690   33.6170   41.3820 H   0  0  0  0  0  0  0  0  0  0  0  0
   39.9090   34.9060   40.2760 H   0  0  0  0  0  0  0  0  0  0  0  0
   37.9750   34.6070   38.8290 H   0  0  0  0  0  0  0  0  0  0  0  0
   37.4600   34.8150   40.5450 H   0  0  0  0  0  0  0  0  0  0  0  0
   37.4920   32.3620   40.8710 H   0  0  0  0  0  0  0  0  0  0  0  0
   36.1840   32.9470   39.7500 H   0  0  0  0  0  0  0  0  0  0  0  0
   37.5970   32.3950   37.8340 H   0  0  0  0  0  0  0  0  0  0  0  0
   38.0920   29.9640   40.8620 F   0  0  0  0  0  0  0  0  0  0  0  0
   37.3290   29.6480   39.7870 C   0  0  0  0  0  0  0  0  0  0  0  0
   37.1940   30.5980   38.7890 C   0  0  0  0  0  0  0  0  0  0  0  0
   36.3980   30.2200   37.7110 C   0  0  0  0  0  0  0  0  0  0  0  0
   35.7760   28.9980   37.6140 C   0  0  0  0  0  0  0  0  0  0  0  0
   35.9340   28.0860   38.6230 C   0  0  0  0  0  0  0  0  0  0  0  0
   36.7180   28.4260   39.7090 C   0  0  0  0  0  0  0  0  0  0  0  0
   36.2670   30.9350   36.9090 H   0  0  0  0  0  0  0  0  0  0  0  0
   35.1740   28.7850   36.7400 H   0  0  0  0  0  0  0  0  0  0  0  0
   35.4400   27.1330   38.5320 H   0  0  0  0  0  0  0  0  0  0  0  0
   36.8270   27.3970   40.7270 C   0  0  0  0  0  0  0  0  0  0  0  0
   36.7000   27.6030   42.0330 C   0  0  0  0  0  0  0  0  0  0  0  0
   36.5090   28.4440   42.6820 H   0  0  0  0  0  0  0  0  0  0  0  0
   36.7990   26.6540   42.9950 C   0  0  0  0  0  3  0  0  0  0  0  0
   37.0750   25.3080   42.3760 C   0  0  0  0  0  3  0  0  0  0  0  0
   37.1360   25.6970   40.5320 S   0  0  0  0  0  0  0  0  0  0  0  0
  1 13  1  0  0  0  0
  1  6  1  0  0  0  0
  2  1  2  0  0  0  0
  3  2  1  0  0  0  0
  3  4  2  0  0  0  0
  4  5  1  0  0  0  0
  5  6  2  0  0  0  0
  5  7  1  0  0  0  0
  7  8  1  0  0  0  0
  8 17  1  0  0  0  0
  8  9  1  0  0  0  0
  9 18  1  0  0  0  0
 10 11  1  0  0  0  0
 10  9  1  0  0  0  0
 10 21  1  0  0  0  0
 11 22  1  0  0  0  0
 12 24  1  6  0  0  0
 12  7  1  0  0  0  0
 12 11  1  0  0  0  0
 14  2  1  0  0  0  0
 15  3  1  0  0  0  0
 16  8  1  0  0  0  0
 19  9  1  0  0  0  0
 20 10  1  0  0  0  0
 23 11  1  0  0  0  0
 26 25  1  0  0  0  0
 27 12  1  0  0  0  0
 27 26  2  0  0  0  0
 28 27  1  0  0  0  0
 29 28  2  0  0  0  0
 29 30  1  0  0  0  0
 30 31  2  0  0  0  0
 31 26  1  0  0  0  0
 31 35  1  0  0  0  0
 32 28  1  0  0  0  0
 33 29  1  0  0  0  0
 34 30  1  0  0  0  0
 35 36  2  0  0  0  0
 36 37  1  0  0  0  0
 36 38  1  0  0  0  0
 39 38  2  0  0  0  0
 40 35  1  0  0  0  0
 40 39  1  0  0  0  0
M  END
>  <minimizedAffinity>
-5.70692539

$$$$

 OpenBabel03242517243D

 40 43  0  0  1  0  0  0  0  0999 V2000
   37.5870   32.7670   40.1530 C   0  0  0  0  0  0  0  0  0  0  0  0
   38.7290   32.5550   40.9600 C   0  0  0  0  0  0  0  0  0  0  0  0
   39.2140   31.2410   41.1180 C   0  0  0  0  0  0  0  0  0  0  0  0
   38.5460   30.2510   40.4770 N   0  0  0  0  0  0  0  0  0  0  0  0
   37.4480   30.4860   39.7060 C   0  0  0  0  0  0  0  0  0  0  0  0
   36.9690   31.7500   39.5460 N   0  0  0  0  0  0  0  0  0  0  0  0
   36.8220   29.3630   39.0770 N   0  0  0  0  0  0  0  0  0  0  0  0
   35.8480   29.6980   38.0380 C   0  0  0  0  0  0  0  0  0  0  0  0
   34.9360   28.6000   37.6680 C   0  0  0  0  0  0  0  0  0  0  0  0
   35.6150   27.2740   37.7630 C   0  0  0  0  0  0  0  0  0  0  0  0
   36.0230   27.0950   39.1870 C   0  0  0  0  0  0  0  0  0  0  0  0
   37.1570   28.0170   39.4670 C   0  0  2  0  0  0  0  0  0  0  0  0
   37.1790   33.7580   40.0030 H   0  0  0  0  0  0  0  0  0  0  0  0
   39.2100   33.4010   41.4400 H   0  0  0  0  0  0  0  0  0  0  0  0
   40.0780   31.0670   41.7250 H   0  0  0  0  0  0  0  0  0  0  0  0
   36.4860   29.9180   37.1330 H   0  0  0  0  0  0  0  0  0  0  0  0
   35.3370   30.6600   38.2590 H   0  0  0  0  0  0  0  0  0  0  0  0
   34.0060   28.6030   38.2700 H   0  0  0  0  0  0  0  0  0  0  0  0
   34.6180   28.7460   36.6030 H   0  0  0  0  0  0  0  0  0  0  0  0
   36.4380   27.1890   37.0350 H   0  0  0  0  0  0  0  0  0  0  0  0
   34.8590   26.4780   37.5380 H   0  0  0  0  0  0  0  0  0  0  0  0
   35.1740   27.3540   39.8310 H   0  0  0  0  0  0  0  0  0  0  0  0
   36.3380   26.0320   39.3720 H   0  0  0  0  0  0  0  0  0  0  0  0
   38.0220   27.7200   38.8330 H   0  0  0  0  0  0  0  0  0  0  0  0
   39.8090   27.2540   40.1940 F   0  0  0  0  0  0  0  0  0  0  0  0
   38.9460   27.5240   41.2040 C   0  0  0  0  0  0  0  0  0  0  0  0
   37.6560   27.8990   40.8680 C   0  0  0  0  0  0  0  0  0  0  0  0
   36.8150   28.1670   41.9440 C   0  0  0  0  0  0  0  0  0  0  0  0
   37.2060   28.0740   43.2590 C   0  0  0  0  0  0  0  0  0  0  0  0
   38.4900   27.7000   43.5490 C   0  0  0  0  0  0  0  0  0  0  0  0
   39.3540   27.4260   42.5060 C   0  0  0  0  0  0  0  0  0  0  0  0
   35.7970   28.4630   41.7250 H   0  0  0  0  0  0  0  0  0  0  0  0
   36.4860   28.3000   44.0360 H   0  0  0  0  0  0  0  0  0  0  0  0
   38.7810   27.6330   44.5840 H   0  0  0  0  0  0  0  0  0  0  0  0
   40.6930   27.0390   42.9100 C   0  0  0  0  0  0  0  0  0  0  0  0
   41.1220   25.7870   43.0240 C   0  0  0  0  0  0  0  0  0  0  0  0
   40.7100   24.7990   42.8850 H   0  0  0  0  0  0  0  0  0  0  0  0
   42.3680   25.4100   43.3980 C   0  0  0  0  0  3  0  0  0  0  0  0
   43.2200   26.6220   43.6730 C   0  0  0  0  0  3  0  0  0  0  0  0
   42.0420   28.0530   43.3330 S   0  0  0  0  0  0  0  0  0  0  0  0
  1  2  1  0  0  0  0
  2  3  2  0  0  0  0
  2 14  1  0  0  0  0
  3 15  1  0  0  0  0
  4  3  1  0  0  0  0
  5  4  2  0  0  0  0
  6  5  1  0  0  0  0
  6  1  2  0  0  0  0
  7 12  1  0  0  0  0
  7  5  1  0  0  0  0
  8 17  1  0  0  0  0
  8  7  1  0  0  0  0
  9 10  1  0  0  0  0
  9  8  1  0  0  0  0
  9 18  1  0  0  0  0
 10 11  1  0  0  0  0
 11 23  1  0  0  0  0
 11 12  1  0  0  0  0
 11 22  1  0  0  0  0
 12 24  1  6  0  0  0
 12 27  1  0  0  0  0
 13  1  1  0  0  0  0
 16  8  1  0  0  0  0
 19  9  1  0  0  0  0
 20 10  1  0  0  0  0
 21 10  1  0  0  0  0
 25 26  1  0  0  0  0
 26 31  1  0  0  0  0
 27 26  2  0  0  0  0
 27 28  1  0  0  0  0
 28 29  2  0  0  0  0
 29 30  1  0  0  0  0
 29 33  1  0  0  0  0
 30 34  1  0  0  0  0
 31 35  1  0  0  0  0
 31 30  2  0  0  0  0
 32 28  1  0  0  0  0
 35 36  2  0  0  0  0
 35 40  1  0  0  0  0
 36 38  1  0  0  0  0
 37 36  1  0  0  0  0
 38 39  2  0  0  0  0
 40 39  1  0  0  0  0
M  END
>  <minimizedAffinity>
-5.70318031

$$$$

 OpenBabel03242517243D

 40 43  0  0  1  0  0  0  0  0999 V2000
   39.6980   31.0890   38.5790 C   0  0  0  0  0  0  0  0  0  0  0  0
   38.6580   31.4490   37.6910 C   0  0  0  0  0  0  0  0  0  0  0  0
   37.3300   31.1200   38.0310 C   0  0  0  0  0  0  0  0  0  0  0  0
   37.1320   30.4690   39.2040 N   0  0  0  0  0  0  0  0  0  0  0  0
   38.1540   30.1350   40.0400 C   0  0  0  0  0  0  0  0  0  0  0  0
   39.4410   30.4470   39.7230 N   0  0  0  0  0  0  0  0  0  0  0  0
   37.8280   29.4500   41.2520 N   0  0  0  0  0  0  0  0  0  0  0  0
   38.9080   29.3830   42.2370 C   0  0  0  0  0  0  0  0  0  0  0  0
   38.7190   28.3710   43.2940 C   0  0  0  0  0  0  0  0  0  0  0  0
   37.2770   28.2100   43.6420 C   0  0  0  0  0  0  0  0  0  0  0  0
   36.5810   27.7450   42.4060 C   0  0  0  0  0  0  0  0  0  0  0  0
   36.5180   28.8810   41.4490 C   0  0  2  0  0  0  0  0  0  0  0  0
   40.7310   31.3210   38.3600 H   0  0  0  0  0  0  0  0  0  0  0  0
   38.8960   31.9700   36.7690 H   0  0  0  0  0  0  0  0  0  0  0  0
   36.5330   31.3870   37.3680 H   0  0  0  0  0  0  0  0  0  0  0  0
   38.8760   30.3940   42.7380 H   0  0  0  0  0  0  0  0  0  0  0  0
   39.9020   29.3470   41.7440 H   0  0  0  0  0  0  0  0  0  0  0  0
   39.1650   27.3930   43.0250 H   0  0  0  0  0  0  0  0  0  0  0  0
   39.2580   28.7160   44.2150 H   0  0  0  0  0  0  0  0  0  0  0  0
   36.8630   29.1310   44.0830 H   0  0  0  0  0  0  0  0  0  0  0  0
   37.1910   27.3860   44.3960 H   0  0  0  0  0  0  0  0  0  0  0  0
   37.1610   26.9250   41.9640 H   0  0  0  0  0  0  0  0  0  0  0  0
   35.5430   27.3930   42.6540 H   0  0  0  0  0  0  0  0  0  0  0  0
   35.8970   29.6890   41.8970 H   0  0  0  0  0  0  0  0  0  0  0  0
   37.3640   26.8460   39.6370 F   0  0  0  0  0  0  0  0  0  0  0  0
   36.2420   27.5350   39.3120 C   0  0  0  0  0  0  0  0  0  0  0  0
   35.8170   28.5230   40.1820 C   0  0  0  0  0  0  0  0  0  0  0  0
   34.6590   29.1950   39.8000 C   0  0  0  0  0  0  0  0  0  0  0  0
   33.9650   28.9210   38.6450 C   0  0  0  0  0  0  0  0  0  0  0  0
   34.4180   27.9360   37.8110 C   0  0  0  0  0  0  0  0  0  0  0  0
   35.5650   27.2470   38.1580 C   0  0  0  0  0  0  0  0  0  0  0  0
   34.2920   29.9760   40.4530 H   0  0  0  0  0  0  0  0  0  0  0  0
   33.0720   29.4930   38.4230 H   0  0  0  0  0  0  0  0  0  0  0  0
   33.8630   27.7330   36.9100 H   0  0  0  0  0  0  0  0  0  0  0  0
   35.9690   26.2210   37.2140 C   0  0  0  0  0  0  0  0  0  0  0  0
   36.9470   26.3480   36.3240 C   0  0  0  0  0  0  0  0  0  0  0  0
   37.6550   27.1100   36.0370 H   0  0  0  0  0  0  0  0  0  0  0  0
   37.3360   25.4010   35.4380 C   0  0  0  0  0  3  0  0  0  0  0  0
   36.4970   24.1590   35.5980 C   0  0  0  0  0  3  0  0  0  0  0  0
   35.3210   24.6220   36.9970 S   0  0  0  0  0  0  0  0  0  0  0  0
  1  6  1  0  0  0  0
  2  3  1  0  0  0  0
  2  1  2  0  0  0  0
  3  4  2  0  0  0  0
  4  5  1  0  0  0  0
  5  7  1  0  0  0  0
  6  5  2  0  0  0  0
  7 12  1  0  0  0  0
  7  8  1  0  0  0  0
  8 16  1  0  0  0  0
  8  9  1  0  0  0  0
  9 10  1  0  0  0  0
  9 19  1  0  0  0  0
 10 20  1  0  0  0  0
 10 21  1  0  0  0  0
 11 23  1  0  0  0  0
 11 10  1  0  0  0  0
 12 24  1  1  0  0  0
 12 11  1  0  0  0  0
 13  1  1  0  0  0  0
 14  2  1  0  0  0  0
 15  3  1  0  0  0  0
 17  8  1  0  0  0  0
 18  9  1  0  0  0  0
 22 11  1  0  0  0  0
 26 25  1  0  0  0  0
 26 27  1  0  0  0  0
 27 12  1  0  0  0  0
 28 27  2  0  0  0  0
 28 32  1  0  0  0  0
 29 28  1  0  0  0  0
 30 31  1  0  0  0  0
 30 29  2  0  0  0  0
 31 26  2  0  0  0  0
 33 29  1  0  0  0  0
 34 30  1  0  0  0  0
 35 31  1  0  0  0  0
 36 35  2  0  0  0  0
 37 36  1  0  0  0  0
 38 39  2  0  0  0  0
 38 36  1  0  0  0  0
 39 40  1  0  0  0  0
 40 35  1  0  0  0  0
M  END
>  <minimizedAffinity>
-5.66375351

$$$$
