
 OpenBabel03252504503D

 31 33  0  0  0  0  0  0  0  0999 V2000
   45.6120   34.0230   42.4810 C   0  0  0  0  0  0  0  0  0  0  0  0
   46.9380   34.2320   42.0700 C   0  0  0  0  0  0  0  0  0  0  0  0
   47.9390   33.8050   42.9370 C   0  0  0  0  0  0  0  0  0  0  0  0
   47.5690   33.2200   44.1110 N   0  0  0  0  0  0  0  0  0  0  0  0
   46.3010   33.0370   44.4690 C   0  0  0  0  0  0  0  0  0  0  0  0
   45.3050   33.4410   43.6470 N   0  0  0  0  0  0  0  0  0  0  0  0
   44.8050   34.3500   41.8150 H   0  0  0  0  0  0  0  0  0  0  0  0
   48.9600   33.9510   42.6520 H   0  0  0  0  0  0  0  0  0  0  0  0
   46.3430   29.9850   44.4410 Cl  0  0  0  0  0  0  0  0  0  0  0  0
   45.9650   31.0190   45.8210 C   0  0  0  0  0  0  0  0  0  0  0  0
   45.9720   32.4020   45.7400 C   0  0  0  0  0  0  0  0  0  0  0  0
   45.6740   33.1800   46.8320 C   0  0  0  0  0  0  0  0  0  0  0  0
   45.3620   32.5580   48.0370 C   0  0  0  0  0  0  0  0  0  0  0  0
   45.3660   31.1770   48.0800 C   0  0  0  0  0  0  0  0  0  0  0  0
   44.9660   30.4550   49.6210 Cl  0  0  0  0  0  0  0  0  0  0  0  0
   45.6590   30.3790   47.0070 C   0  0  0  0  0  0  0  0  0  0  0  0
   45.6940   34.2620   46.7070 H   0  0  0  0  0  0  0  0  0  0  0  0
   45.1270   33.1850   48.8970 H   0  0  0  0  0  0  0  0  0  0  0  0
   45.6490   29.2880   47.0920 H   0  0  0  0  0  0  0  0  0  0  0  0
   47.1720   34.8730   40.7850 C   0  0  0  0  0  0  0  0  0  0  0  0
   47.3970   35.9410   40.9820 H   0  0  0  0  0  0  0  0  0  0  0  0
   46.2620   34.8430   40.1810 H   0  0  0  0  0  0  0  0  0  0  0  0
   48.3400   34.1950   40.1220 C   0  0  0  0  0  0  0  0  0  0  0  0
   49.1990   34.9270   40.1570 H   0  0  0  0  0  0  0  0  0  0  0  0
   48.6960   33.3680   40.8050 H   0  0  0  0  0  0  0  0  0  0  0  0
   48.1370   33.7740   38.7700 C   0  0  0  0  0  0  0  0  0  0  0  0
   48.6250   34.2300   37.4940 C   0  0  0  0  0  0  0  0  0  0  0  0
   49.2780   35.0740   37.5860 H   0  0  0  0  0  0  0  0  0  0  0  0
   48.2200   33.5730   36.3810 C   0  0  0  0  0  3  0  0  0  0  0  0
   47.3290   32.4490   36.4560 C   0  0  0  0  0  3  0  0  0  0  0  0
   47.0520   32.3350   38.3200 S   0  0  0  0  0  0  0  0  0  0  0  0
  1  6  1  0  0  0  0
  2  1  2  0  0  0  0
  2  3  1  0  0  0  0
  3  4  2  0  0  0  0
  4  5  1  0  0  0  0
  5 11  1  0  0  0  0
  6  5  2  0  0  0  0
  7  1  1  0  0  0  0
  8  3  1  0  0  0  0
  9 10  1  0  0  0  0
 10 16  1  0  0  0  0
 11 10  2  0  0  0  0
 11 12  1  0  0  0  0
 12 13  2  0  0  0  0
 13 14  1  0  0  0  0
 13 18  1  0  0  0  0
 14 15  1  0  0  0  0
 16 19  1  0  0  0  0
 16 14  2  0  0  0  0
 17 12  1  0  0  0  0
 20 21  1  0  0  0  0
 20  2  1  0  0  0  0
 22 20  1  0  0  0  0
 23 24  1  0  0  0  0
 23 20  1  0  0  0  0
 23 25  1  0  0  0  0
 26 23  1  0  0  0  0
 27 28  1  0  0  0  0
 27 26  2  0  0  0  0
 29 30  2  0  0  0  0
 29 27  1  0  0  0  0
 30 31  1  0  0  0  0
 31 26  1  0  0  0  0
M  END
>  <minimizedAffinity>
-4.55552101

>  <minimizedRMSD>
1.99507093

$$$$
