
 OpenBabel03252502203D

 30 32  0  0  1  0  0  0  0  0999 V2000
   46.7630   34.6070   42.2510 N   0  0  0  0  0  0  0  0  0  0  0  0
   48.2220   34.5980   42.2930 C   0  0  0  0  0  0  0  0  0  0  0  0
   48.6250   35.3230   40.9990 C   0  0  0  0  0  0  0  0  0  0  0  0
   48.2030   34.5610   39.7860 C   0  0  0  0  0  0  0  0  0  0  0  0
   46.8910   33.8720   39.9220 C   0  0  0  0  0  0  0  0  0  0  0  0
   46.0310   34.3940   41.0370 C   0  0  1  0  0  0  0  0  0  0  0  0
   48.6460   33.5840   42.3000 H   0  0  0  0  0  0  0  0  0  0  0  0
   48.6320   35.1550   43.1400 H   0  0  0  0  0  0  0  0  0  0  0  0
   48.0830   36.3050   40.9980 H   0  0  0  0  0  0  0  0  0  0  0  0
   49.7310   35.4380   40.9790 H   0  0  0  0  0  0  0  0  0  0  0  0
   48.2420   35.2740   38.9230 H   0  0  0  0  0  0  0  0  0  0  0  0
   48.9940   33.8030   39.5810 H   0  0  0  0  0  0  0  0  0  0  0  0
   47.0270   32.7800   40.0950 H   0  0  0  0  0  0  0  0  0  0  0  0
   46.3530   33.9820   38.9660 H   0  0  0  0  0  0  0  0  0  0  0  0
   45.7280   35.4300   40.7010 H   0  0  0  0  0  0  0  0  0  0  0  0
   44.4680   36.0860   44.7990 C   0  0  0  0  0  0  0  0  0  0  0  0
   45.1670   35.9460   43.5990 C   0  0  0  0  0  0  0  0  0  0  0  0
   46.0080   34.8330   43.4430 C   0  0  0  0  0  0  0  0  0  0  0  0
   46.0800   33.9630   44.4840 N   0  0  0  0  0  0  0  0  0  0  0  0
   45.4010   34.1090   45.6370 C   0  0  0  0  0  0  0  0  0  0  0  0
   44.5910   35.1810   45.7880 N   0  0  0  0  0  0  0  0  0  0  0  0
   43.8110   36.9330   44.9520 H   0  0  0  0  0  0  0  0  0  0  0  0
   45.0830   36.6580   42.7990 H   0  0  0  0  0  0  0  0  0  0  0  0
   45.5810   33.3180   46.3560 H   0  0  0  0  0  0  0  0  0  0  0  0
   44.8220   33.6300   41.2080 C   0  0  0  0  0  0  0  0  0  0  0  0
   44.5840   32.3220   41.6070 C   0  0  0  0  0  0  0  0  0  0  0  0
   45.4570   31.7340   41.8430 H   0  0  0  0  0  0  0  0  0  0  0  0
   43.2990   31.8520   41.6810 C   0  0  0  0  0  0  0  0  0  0  0  0
   42.2330   32.6790   41.3580 C   0  0  0  0  0  0  0  0  0  0  0  0
   43.1040   34.2980   40.8970 S   0  0  0  0  0  0  0  0  0  0  0  0
  1  2  1  0  0  0  0
  1 18  1  0  0  0  0
  2  7  1  0  0  0  0
  2  8  1  0  0  0  0
  3  2  1  0  0  0  0
  4  5  1  0  0  0  0
  4  3  1  0  0  0  0
  5 13  1  0  0  0  0
  5  6  1  0  0  0  0
  6 15  1  6  0  0  0
  6 25  1  0  0  0  0
  6  1  1  0  0  0  0
  9  3  1  0  0  0  0
 10  3  1  0  0  0  0
 11  4  1  0  0  0  0
 12  4  1  0  0  0  0
 14  5  1  0  0  0  0
 16 22  1  0  0  0  0
 16 21  1  0  0  0  0
 17 16  2  0  0  0  0
 18 17  1  0  0  0  0
 18 19  2  0  0  0  0
 19 20  1  0  0  0  0
 20 21  2  0  0  0  0
 20 24  1  0  0  0  0
 23 17  1  0  0  0  0
 25 26  2  0  0  0  0
 26 28  1  0  0  0  0
 26 27  1  0  0  0  0
 29 28  2  0  0  0  0
 30 25  1  0  0  0  0
 30 29  1  0  0  0  0
M  END
>  <minimizedAffinity>
-5.20529938

>  <minimizedRMSD>
0.484616816

$$$$
