
 OpenBabel03242520533D

 24 25  0  0  0  0  0  0  0  0999 V2000
   44.4470   35.9110   44.6110 C   0  0  0  0  0  0  0  0  0  0  0  0
   45.1690   35.9220   43.4160 C   0  0  0  0  0  0  0  0  0  0  0  0
   46.1730   34.9870   43.2280 C   0  0  0  0  0  0  0  0  0  0  0  0
   46.3940   34.1130   44.2280 N   0  0  0  0  0  0  0  0  0  0  0  0
   45.7020   34.1080   45.3670 C   0  0  0  0  0  0  0  0  0  0  0  0
   44.7280   35.0030   45.5640 N   0  0  0  0  0  0  0  0  0  0  0  0
   43.6610   36.6630   44.7230 H   0  0  0  0  0  0  0  0  0  0  0  0
   45.0130   36.6060   42.6070 H   0  0  0  0  0  0  0  0  0  0  0  0
   46.0030   33.1150   46.4180 C   0  0  0  0  0  0  0  0  0  0  0  0
   45.2800   33.0200   47.4920 C   0  0  0  0  0  0  0  0  0  0  0  0
   45.5500   32.0420   48.5660 C   0  0  0  0  0  0  0  0  0  0  0  0
   46.4990   32.3260   49.0660 H   0  0  0  0  0  0  0  0  0  0  0  0
   44.7430   32.0310   49.3320 H   0  0  0  0  0  0  0  0  0  0  0  0
   45.6940   30.7350   47.9730 C   0  0  0  0  0  0  0  0  0  0  0  0
   44.8050   29.8190   47.4190 C   0  0  0  0  0  0  0  0  0  0  0  0
   43.7740   30.1380   47.4270 H   0  0  0  0  0  0  0  0  0  0  0  0
   45.2760   28.6470   46.9330 C   0  0  0  0  0  0  0  0  0  0  0  0
   46.6460   28.4000   47.0050 C   0  0  0  0  0  0  0  0  0  0  0  0
   47.3410   29.9180   47.8150 S   0  0  0  0  0  0  0  0  0  0  0  0
   46.9770   34.8670   42.1050 O   0  0  0  0  0  0  0  0  0  0  0  0
   46.4280   34.1430   40.9960 C   0  0  0  0  0  0  0  0  0  0  0  0
   45.1630   34.6480   40.7090 F   0  0  0  0  0  0  0  0  0  0  0  0
   47.2710   34.3630   39.9000 F   0  0  0  0  0  0  0  0  0  0  0  0
   46.3850   32.7750   41.2520 F   0  0  0  0  0  0  0  0  0  0  0  0
  1  7  1  0  0  0  0
  1  6  1  0  0  0  0
  2  1  2  0  0  0  0
  3  2  1  0  0  0  0
  3  4  2  0  0  0  0
  4  5  1  0  0  0  0
  5  6  2  0  0  0  0
  5  9  1  0  0  0  0
  8  2  1  0  0  0  0
  9 10  2  0  0  0  0
 10 11  1  0  0  0  0
 11 12  1  0  0  0  0
 11 13  1  0  0  0  0
 14 11  1  0  0  0  0
 15 16  1  0  0  0  0
 15 14  2  0  0  0  0
 17 18  2  0  0  0  0
 17 15  1  0  0  0  0
 18 19  1  0  0  0  0
 19 14  1  0  0  0  0
 20  3  1  0  0  0  0
 21 24  1  0  0  0  0
 21 20  1  0  0  0  0
 22 21  1  0  0  0  0
 23 21  1  0  0  0  0
M  END
>  <minimizedAffinity>
-5.05758524

>  <minimizedRMSD>
1.1694032

$$$$
