
 OpenBabel03242520023D

 22 24  0  0  0  0  0  0  0  0999 V2000
   46.1000   33.4250   45.7700 C   0  0  0  0  0  0  0  0  0  0  0  0
   45.1540   34.4270   45.5260 C   0  0  0  0  0  0  0  0  0  0  0  0
   45.3690   34.9240   44.2800 C   0  0  0  0  0  0  0  0  0  0  0  0
   46.4140   34.2520   43.7720 N   0  0  0  0  0  0  0  0  0  0  0  0
   46.8420   33.3540   44.6820 N   0  0  0  0  0  0  0  0  0  0  0  0
   44.3750   34.7480   46.2290 H   0  0  0  0  0  0  0  0  0  0  0  0
   44.8380   35.7040   43.7510 H   0  0  0  0  0  0  0  0  0  0  0  0
   47.5500   31.6110   48.6180 C   0  0  0  0  0  0  0  0  0  0  0  0
   46.4050   31.1950   49.3170 C   0  0  0  0  0  0  0  0  0  0  0  0
   45.1230   31.5420   48.8050 C   0  0  0  0  0  0  0  0  0  0  0  0
   45.0930   32.2650   47.6520 N   0  0  0  0  0  0  0  0  0  0  0  0
   46.1970   32.6520   47.0010 C   0  0  0  0  0  0  0  0  0  0  0  0
   47.4150   32.3240   47.4850 N   0  0  0  0  0  0  0  0  0  0  0  0
   48.5070   31.3430   49.0160 H   0  0  0  0  0  0  0  0  0  0  0  0
   46.5050   30.6140   50.2420 H   0  0  0  0  0  0  0  0  0  0  0  0
   44.2440   31.2300   49.3290 H   0  0  0  0  0  0  0  0  0  0  0  0
   47.0240   34.4050   42.4960 C   0  0  0  0  0  0  0  0  0  0  0  0
   46.4450   33.9070   41.2790 C   0  0  0  0  0  0  0  0  0  0  0  0
   45.5030   33.3870   41.2850 H   0  0  0  0  0  0  0  0  0  0  0  0
   47.1390   34.1240   40.1230 C   0  0  0  0  0  0  0  0  0  0  0  0
   48.3740   34.8100   40.1410 C   0  0  0  0  0  0  0  0  0  0  0  0
   48.5910   35.1930   41.9450 S   0  0  0  0  0  0  0  0  0  0  0  0
  1 12  1  0  0  0  0
  2  1  1  0  0  0  0
  2  6  1  0  0  0  0
  3  2  2  0  0  0  0
  4  3  1  0  0  0  0
  4  5  1  0  0  0  0
  5  1  2  0  0  0  0
  7  3  1  0  0  0  0
  8 14  1  0  0  0  0
  8  9  1  0  0  0  0
  9 15  1  0  0  0  0
 10  9  2  0  0  0  0
 10 16  1  0  0  0  0
 11 10  1  0  0  0  0
 12 13  1  0  0  0  0
 12 11  2  0  0  0  0
 13  8  2  0  0  0  0
 17  4  1  0  0  0  0
 18 19  1  0  0  0  0
 18 17  2  0  0  0  0
 20 21  2  0  0  0  0
 20 18  1  0  0  0  0
 21 22  1  0  0  0  0
 22 17  1  0  0  0  0
M  END
>  <minimizedAffinity>
-4.89994812

>  <minimizedRMSD>
7.33969116

$$$$
