
 OpenBabel03252506343D

 30 32  0  0  1  0  0  0  0  0999 V2000
   44.4650   35.7340   45.0090 C   0  0  0  0  0  0  0  0  0  0  0  0
   45.1170   35.6970   43.7670 C   0  0  0  0  0  0  0  0  0  0  0  0
   46.0330   34.7140   43.5130 C   0  0  0  0  0  0  0  0  0  0  0  0
   46.2500   33.8220   44.5100 N   0  0  0  0  0  0  0  0  0  0  0  0
   45.6320   33.8570   45.6860 C   0  0  0  0  0  0  0  0  0  0  0  0
   44.7270   34.8120   45.9630 N   0  0  0  0  0  0  0  0  0  0  0  0
   45.9560   32.8580   46.6370 N   0  0  0  0  0  0  0  0  0  0  0  0
   45.1540   32.5730   47.8340 C   0  0  0  0  0  0  0  0  0  0  0  0
   46.2220   32.2560   48.8590 C   0  0  0  0  0  0  0  0  0  0  0  0
   47.5160   32.1120   48.1060 C   0  0  0  0  0  0  0  0  0  0  0  0
   47.0510   31.9340   46.6860 C   0  0  1  0  0  0  0  0  0  0  0  0
   43.7360   36.4990   45.2400 H   0  0  0  0  0  0  0  0  0  0  0  0
   46.5330   34.6890   42.5560 H   0  0  0  0  0  0  0  0  0  0  0  0
   44.5940   33.5120   48.1060 H   0  0  0  0  0  0  0  0  0  0  0  0
   44.4540   31.7350   47.6580 H   0  0  0  0  0  0  0  0  0  0  0  0
   46.2630   33.0120   49.6720 H   0  0  0  0  0  0  0  0  0  0  0  0
   45.9600   31.2680   49.3050 H   0  0  0  0  0  0  0  0  0  0  0  0
   48.0630   33.0760   48.1670 H   0  0  0  0  0  0  0  0  0  0  0  0
   48.1270   31.2530   48.4550 H   0  0  0  0  0  0  0  0  0  0  0  0
   47.8580   32.2140   45.9540 H   0  0  0  0  0  0  0  0  0  0  0  0
   44.7650   36.7240   42.8200 N   0  0  0  0  0  0  0  0  0  0  0  0
   44.5180   37.6730   43.1250 H   0  0  0  0  0  0  0  0  0  0  0  0
   44.7590   36.5050   41.7790 H   0  0  0  0  0  0  0  0  0  0  0  0
   46.5210   30.2160   46.4330 S   0  0  0  0  0  0  0  0  0  0  0  0
   46.8950   29.5490   44.9220 C   0  0  0  0  0  0  0  0  0  0  0  0
   46.6260   28.3750   44.1760 C   0  0  0  0  0  0  0  0  0  0  0  0
   45.9990   27.7280   44.7520 H   0  0  0  0  0  0  0  0  0  0  0  0
   47.1280   28.1830   42.9240 C   0  0  0  0  0  3  0  0  0  0  0  0
   47.9840   29.2770   42.3690 C   0  0  0  0  0  3  0  0  0  0  0  0
   47.9930   30.5440   43.7600 S   0  0  0  0  0  0  0  0  0  0  0  0
  1 12  1  0  0  0  0
  1  6  1  0  0  0  0
  2  1  2  0  0  0  0
  3  2  1  0  0  0  0
  3  4  2  0  0  0  0
  4  5  1  0  0  0  0
  5  6  2  0  0  0  0
  5  7  1  0  0  0  0
  7 11  1  0  0  0  0
  7  8  1  0  0  0  0
  8 14  1  0  0  0  0
  8  9  1  0  0  0  0
  9 17  1  0  0  0  0
  9 16  1  0  0  0  0
 10 18  1  0  0  0  0
 10 19  1  0  0  0  0
 10  9  1  0  0  0  0
 11 20  1  6  0  0  0
 11 10  1  0  0  0  0
 13  3  1  0  0  0  0
 15  8  1  0  0  0  0
 21 22  1  0  0  0  0
 21  2  1  0  0  0  0
 23 21  1  0  0  0  0
 24 11  1  0  0  0  0
 25 24  1  0  0  0  0
 26 27  1  0  0  0  0
 26 25  2  0  0  0  0
 28 26  1  0  0  0  0
 29 28  2  0  0  0  0
 29 30  1  0  0  0  0
 30 25  1  0  0  0  0
M  END
>  <minimizedAffinity>
-4.75528622

>  <minimizedRMSD>
1.2052176

$$$$
