
 OpenBabel03252506423D

 37 40  0  0  1  0  0  0  0  0999 V2000
   49.2990   33.2120   41.5110 N   0  0  1  0  0  0  0  0  0  0  0  0
   50.6580   33.1910   42.0640 C   0  0  0  0  0  0  0  0  0  0  0  0
   51.3560   31.8940   41.7950 C   0  0  0  0  0  0  0  0  0  0  0  0
   50.6960   30.8410   42.6640 C   0  0  0  0  0  0  0  0  0  0  0  0
   49.2190   31.0450   42.7100 C   0  0  0  0  0  0  0  0  0  0  0  0
   48.7600   31.8760   41.5190 C   0  0  2  0  0  0  0  0  0  0  0  0
   50.5950   33.2980   43.1820 H   0  0  0  0  0  0  0  0  0  0  0  0
   51.2210   34.0820   41.7120 H   0  0  0  0  0  0  0  0  0  0  0  0
   51.4230   31.6380   40.7380 H   0  0  0  0  0  0  0  0  0  0  0  0
   52.3990   32.0210   42.1530 H   0  0  0  0  0  0  0  0  0  0  0  0
   51.0760   30.9770   43.7140 H   0  0  0  0  0  0  0  0  0  0  0  0
   51.0240   29.8460   42.3490 H   0  0  0  0  0  0  0  0  0  0  0  0
   48.9100   31.6270   43.6010 H   0  0  0  0  0  0  0  0  0  0  0  0
   48.6540   30.0850   42.6260 H   0  0  0  0  0  0  0  0  0  0  0  0
   47.6670   32.0020   41.6910 H   0  0  0  0  0  0  0  0  0  0  0  0
   47.1490   34.5310   42.0370 C   0  0  1  0  0  0  0  0  0  0  0  0
   48.2520   35.4470   41.7090 C   0  0  0  0  0  0  0  0  0  0  0  0
   48.5630   34.1300   42.3150 C   0  0  2  0  0  0  0  0  0  0  0  0
   46.6720   34.0240   41.1740 H   0  0  0  0  0  0  0  0  0  0  0  0
   48.3560   36.3670   42.3330 H   0  0  0  0  0  0  0  0  0  0  0  0
   48.5090   35.6510   40.6330 H   0  0  0  0  0  0  0  0  0  0  0  0
   48.8580   34.1800   43.4030 H   0  0  0  0  0  0  0  0  0  0  0  0
   45.4870   36.0250   43.1910 C   0  0  0  0  0  0  0  0  0  0  0  0
   46.2510   34.8410   43.1810 C   0  0  0  0  0  0  0  0  0  0  0  0
   46.1290   33.9680   44.2740 C   0  0  0  0  0  0  0  0  0  0  0  0
   45.2840   34.3110   45.2820 N   0  0  0  0  0  0  0  0  0  0  0  0
   44.5620   35.4620   45.2570 C   0  0  0  0  0  0  0  0  0  0  0  0
   44.6590   36.3310   44.2080 N   0  0  0  0  0  0  0  0  0  0  0  0
   45.6260   36.6530   42.3230 H   0  0  0  0  0  0  0  0  0  0  0  0
   46.7050   33.0470   44.2970 H   0  0  0  0  0  0  0  0  0  0  0  0
   43.8900   35.7360   46.0560 H   0  0  0  0  0  0  0  0  0  0  0  0
   48.9340   31.1500   40.2550 C   0  0  0  0  0  0  0  0  0  0  0  0
   48.9010   29.8640   39.9500 C   0  0  0  0  0  0  0  0  0  0  0  0
   48.7130   29.1480   40.7360 H   0  0  0  0  0  0  0  0  0  0  0  0
   49.1020   29.4680   38.6570 C   0  0  0  0  0  3  0  0  0  0  0  0
   49.3370   30.4440   37.7080 C   0  0  0  0  0  3  0  0  0  0  0  0
   49.2770   32.0790   38.6700 S   0  0  0  0  0  0  0  0  0  0  0  0
  1  6  1  0  0  0  0
  1  2  1  1  0  0  0
  1 18  1  0  0  0  0
  2  7  1  0  0  0  0
  3  2  1  0  0  0  0
  3 10  1  0  0  0  0
  3  4  1  0  0  0  0
  4  5  1  0  0  0  0
  4 11  1  0  0  0  0
  5 13  1  0  0  0  0
  6 15  1  1  0  0  0
  6  5  1  0  0  0  0
  8  2  1  0  0  0  0
  9  3  1  0  0  0  0
 12  4  1  0  0  0  0
 14  5  1  0  0  0  0
 16 19  1  6  0  0  0
 16 18  1  0  0  0  0
 16 24  1  0  0  0  0
 17 16  1  0  0  0  0
 17 18  1  0  0  0  0
 17 20  1  0  0  0  0
 18 22  1  1  0  0  0
 21 17  1  0  0  0  0
 23 28  1  0  0  0  0
 24 23  2  0  0  0  0
 24 25  1  0  0  0  0
 25 30  1  0  0  0  0
 25 26  2  0  0  0  0
 27 26  1  0  0  0  0
 27 31  1  0  0  0  0
 28 27  2  0  0  0  0
 29 23  1  0  0  0  0
 32  6  1  0  0  0  0
 33 32  2  0  0  0  0
 33 34  1  0  0  0  0
 35 33  1  0  0  0  0
 36 35  2  0  0  0  0
 36 37  1  0  0  0  0
 37 32  1  0  0  0  0
M  END
>  <minimizedAffinity>
-4.67913008

>  <minimizedRMSD>
0.1261172

$$$$
