
 OpenBabel03252509263D

 27 29  0  0  1  0  0  0  0  0999 V2000
   46.8140   35.1330   41.8870 C   0  0  1  0  0  0  0  0  0  0  0  0
   48.3170   35.5350   41.9450 C   0  0  0  0  0  0  0  0  0  0  0  0
   47.7200   34.2670   41.2510 C   0  0  2  0  0  0  0  0  0  0  0  0
   46.1970   35.8760   41.3430 H   0  0  0  0  0  0  0  0  0  0  0  0
   48.8680   35.4040   42.8690 H   0  0  0  0  0  0  0  0  0  0  0  0
   48.6310   36.3170   41.2360 H   0  0  0  0  0  0  0  0  0  0  0  0
   48.0020   33.3260   41.8190 H   0  0  0  0  0  0  0  0  0  0  0  0
   44.8240   35.0800   45.0690 C   0  0  0  0  0  0  0  0  0  0  0  0
   45.2730   35.5090   43.7810 C   0  0  0  0  0  0  0  0  0  0  0  0
   46.3030   34.8000   43.2610 C   0  0  0  0  0  0  0  0  0  0  0  0
   46.8760   33.7400   43.9380 N   0  0  0  0  0  0  0  0  0  0  0  0
   46.4180   33.3680   45.1590 C   0  0  0  0  0  0  0  0  0  0  0  0
   45.3900   34.0420   45.7240 N   0  0  0  0  0  0  0  0  0  0  0  0
   43.9960   35.6540   45.4800 H   0  0  0  0  0  0  0  0  0  0  0  0
   46.8580   32.5410   45.6990 H   0  0  0  0  0  0  0  0  0  0  0  0
   44.6950   36.6070   43.1040 N   0  0  0  0  0  0  0  0  0  0  0  0
   44.7070   37.6390   43.3200 H   0  0  0  0  0  0  0  0  0  0  0  0
   44.2290   36.1440   42.2980 H   0  0  0  0  0  0  0  0  0  0  0  0
   47.8070   34.1770   39.7450 C   0  0  0  0  0  0  0  0  0  0  0  0
   46.7640   33.9320   39.4000 H   0  0  0  0  0  0  0  0  0  0  0  0
   48.1790   35.1240   39.3020 H   0  0  0  0  0  0  0  0  0  0  0  0
   48.6430   33.0200   39.3780 C   0  0  0  0  0  0  0  0  0  0  0  0
   49.0410   32.4300   38.2120 C   0  0  0  0  0  0  0  0  0  0  0  0
   48.6940   32.8660   37.2870 H   0  0  0  0  0  0  0  0  0  0  0  0
   49.8510   31.3260   38.2940 C   0  0  0  0  0  3  0  0  0  0  0  0
   50.2180   30.8720   39.5320 C   0  0  0  0  0  3  0  0  0  0  0  0
   49.3560   32.0960   40.6650 S   0  0  0  0  0  0  0  0  0  0  0  0
  1  4  1  6  0  0  0
  1  2  1  0  0  0  0
  1 10  1  0  0  0  0
  2  5  1  0  0  0  0
  3  7  1  1  0  0  0
  3  1  1  0  0  0  0
  3  2  1  0  0  0  0
  6  2  1  0  0  0  0
  8 14  1  0  0  0  0
  8 13  1  0  0  0  0
  9  8  2  0  0  0  0
 10  9  1  0  0  0  0
 10 11  2  0  0  0  0
 11 12  1  0  0  0  0
 12 15  1  0  0  0  0
 12 13  2  0  0  0  0
 16 17  1  0  0  0  0
 16  9  1  0  0  0  0
 18 16  1  0  0  0  0
 19  3  1  0  0  0  0
 20 19  1  0  0  0  0
 21 19  1  0  0  0  0
 22 19  1  0  0  0  0
 22 27  1  0  0  0  0
 23 25  1  0  0  0  0
 23 22  2  0  0  0  0
 24 23  1  0  0  0  0
 25 26  2  0  0  0  0
 26 27  1  0  0  0  0
M  END
>  <minimizedAffinity>
-4.59951496

>  <minimizedRMSD>
0.431682736

$$$$
