
 OpenBabel03242516143D

 38 41  0  0  0  0  0  0  0  0999 V2000
   48.0570   34.5240   41.7490 C   0  0  0  0  0  0  0  0  0  0  0  0
   48.8840   35.7870   41.4500 C   0  0  0  0  0  0  0  0  0  0  0  0
   49.4560   34.6570   42.1330 C   0  0  0  0  0  0  0  0  0  0  0  0
   49.1850   35.9780   40.4190 H   0  0  0  0  0  0  0  0  0  0  0  0
   48.6090   36.7020   42.0030 H   0  0  0  0  0  0  0  0  0  0  0  0
   49.7780   34.8140   43.1940 H   0  0  0  0  0  0  0  0  0  0  0  0
   50.1660   33.9450   41.6280 H   0  0  0  0  0  0  0  0  0  0  0  0
   47.6770   33.7730   40.5240 C   0  0  0  0  0  0  0  0  0  0  0  0
   48.1600   34.3830   39.2100 C   0  0  0  0  0  0  0  0  0  0  0  0
   47.7990   33.3130   38.1570 C   0  0  0  0  0  0  0  0  0  0  0  0
   46.4280   33.4120   37.9630 O   0  0  0  0  0  0  0  0  0  0  0  0
   45.8790   32.8200   39.1350 C   0  0  0  0  0  0  0  0  0  0  0  0
   46.1520   33.7300   40.3290 C   0  0  0  0  0  0  0  0  0  0  0  0
   48.0250   32.7080   40.4830 H   0  0  0  0  0  0  0  0  0  0  0  0
   47.6710   35.3260   38.9770 H   0  0  0  0  0  0  0  0  0  0  0  0
   49.2820   34.4090   39.1670 H   0  0  0  0  0  0  0  0  0  0  0  0
   48.3510   33.5120   37.2300 H   0  0  0  0  0  0  0  0  0  0  0  0
   48.0160   32.3080   38.5280 H   0  0  0  0  0  0  0  0  0  0  0  0
   44.7950   32.7870   38.9640 H   0  0  0  0  0  0  0  0  0  0  0  0
   46.3610   31.8450   39.2280 H   0  0  0  0  0  0  0  0  0  0  0  0
   45.8000   34.7430   40.0710 H   0  0  0  0  0  0  0  0  0  0  0  0
   45.6520   33.2680   41.1980 H   0  0  0  0  0  0  0  0  0  0  0  0
   46.1840   35.8530   42.8090 C   0  0  0  0  0  0  0  0  0  0  0  0
   46.9880   34.6990   42.7930 C   0  0  0  0  0  0  0  0  0  0  0  0
   46.7570   33.7370   43.7860 C   0  0  0  0  0  0  0  0  0  0  0  0
   45.7750   33.9770   44.7000 N   0  0  0  0  0  0  0  0  0  0  0  0
   45.0450   35.0860   44.6690 C   0  0  0  0  0  0  0  0  0  0  0  0
   45.2390   36.0000   43.7520 N   0  0  0  0  0  0  0  0  0  0  0  0
   44.0280   35.3070   45.6280 N   0  0  0  0  0  0  0  0  0  0  0  0
   46.3800   36.5710   42.0410 H   0  0  0  0  0  0  0  0  0  0  0  0
   43.0940   35.5630   45.2170 H   0  0  0  0  0  0  0  0  0  0  0  0
   44.3290   35.1900   46.6330 H   0  0  0  0  0  0  0  0  0  0  0  0
   47.4310   32.4610   43.9100 C   0  0  0  0  0  0  0  0  0  0  0  0
   48.2980   31.6520   43.1880 C   0  0  0  0  0  0  0  0  0  0  0  0
   48.6570   31.9490   42.2400 H   0  0  0  0  0  0  0  0  0  0  0  0
   48.6880   30.4620   43.6510 C   0  0  0  0  0  0  0  0  0  0  0  0
   48.2180   29.9810   44.9240 C   0  0  0  0  0  0  0  0  0  0  0  0
   47.1570   31.4120   45.3860 S   0  0  0  0  0  0  0  0  0  0  0  0
  1  3  1  0  0  0  0
  1 24  1  0  0  0  0
  2  1  1  0  0  0  0
  2  5  1  0  0  0  0
  2  3  1  0  0  0  0
  3  6  1  0  0  0  0
  4  2  1  0  0  0  0
  7  3  1  0  0  0  0
  8  1  1  0  0  0  0
  9  8  1  0  0  0  0
 10 18  1  0  0  0  0
 10  9  1  0  0  0  0
 11 10  1  0  0  0  0
 11 12  1  0  0  0  0
 12 20  1  0  0  0  0
 12 13  1  0  0  0  0
 13  8  1  0  0  0  0
 13 22  1  0  0  0  0
 14  8  1  0  0  0  0
 15  9  1  0  0  0  0
 16  9  1  0  0  0  0
 17 10  1  0  0  0  0
 19 12  1  0  0  0  0
 21 13  1  0  0  0  0
 23 28  1  0  0  0  0
 24 23  2  0  0  0  0
 24 25  1  0  0  0  0
 25 33  1  0  0  0  0
 25 26  2  0  0  0  0
 27 26  1  0  0  0  0
 27 29  1  0  0  0  0
 28 27  2  0  0  0  0
 29 32  1  0  0  0  0
 30 23  1  0  0  0  0
 31 29  1  0  0  0  0
 33 38  1  0  0  0  0
 34 36  1  0  0  0  0
 34 33  2  0  0  0  0
 35 34  1  0  0  0  0
 36 37  2  0  0  0  0
 37 38  1  0  0  0  0
M  END
>  <minimizedAffinity>
-5.77677774

>  <minimizedRMSD>
0.523692966

$$$$
