
 OpenBabel03252500393D

 18 19  0  0  0  0  0  0  0  0999 V2000
   46.4550   32.9850   45.4780 C   0  0  0  0  0  0  0  0  0  0  0  0
   47.0150   31.7280   45.7520 C   0  0  0  0  0  0  0  0  0  0  0  0
   46.6460   31.0780   46.9400 C   0  0  0  0  0  0  0  0  0  0  0  0
   45.7600   31.7120   47.7560 N   0  0  0  0  0  0  0  0  0  0  0  0
   45.2350   32.9290   47.4640 C   0  0  0  0  0  0  0  0  0  0  0  0
   45.5900   33.5630   46.3130 N   0  0  0  0  0  0  0  0  0  0  0  0
   47.7110   31.2850   45.0590 H   0  0  0  0  0  0  0  0  0  0  0  0
   47.0760   30.1280   47.1390 H   0  0  0  0  0  0  0  0  0  0  0  0
   44.5310   33.3970   48.1460 H   0  0  0  0  0  0  0  0  0  0  0  0
   46.8680   33.6460   44.2110 C   0  0  0  0  0  0  0  0  0  0  0  0
   47.4330   32.8830   43.6000 H   0  0  0  0  0  0  0  0  0  0  0  0
   47.5750   34.4790   44.4400 H   0  0  0  0  0  0  0  0  0  0  0  0
   45.7970   34.1420   43.4180 C   0  0  0  0  0  0  0  0  0  0  0  0
   45.4300   35.4990   43.1300 C   0  0  0  0  0  0  0  0  0  0  0  0
   46.0370   36.2740   43.5640 H   0  0  0  0  0  0  0  0  0  0  0  0
   44.3460   35.7310   42.3330 C   0  0  0  0  0  0  0  0  0  0  0  0
   43.6410   34.5260   41.8330 C   0  0  0  0  0  0  0  0  0  0  0  0
   44.6500   33.1190   42.5920 S   0  0  0  0  0  0  0  0  0  0  0  0
  1  2  2  0  0  0  0
  1  6  1  0  0  0  0
  2  3  1  0  0  0  0
  3  8  1  0  0  0  0
  3  4  2  0  0  0  0
  5  4  1  0  0  0  0
  5  9  1  0  0  0  0
  6  5  2  0  0  0  0
  7  2  1  0  0  0  0
 10 12  1  0  0  0  0
 10  1  1  0  0  0  0
 11 10  1  0  0  0  0
 13 10  1  0  0  0  0
 14 13  2  0  0  0  0
 14 15  1  0  0  0  0
 16 14  1  0  0  0  0
 17 16  2  0  0  0  0
 17 18  1  0  0  0  0
 18 13  1  0  0  0  0
M  END
>  <minimizedAffinity>
-3.40485358

>  <minimizedRMSD>
3.74688745

$$$$
