
 OpenBabel03252507413D

 22 23  0  0  0  0  0  0  0  0999 V2000
   37.8630   28.5310   43.0700 C   0  0  0  0  0  0  0  0  0  0  0  0
   38.8310   28.0340   42.7900 H   0  0  0  0  0  0  0  0  0  0  0  0
   37.9720   28.8440   44.1200 H   0  0  0  0  0  0  0  0  0  0  0  0
   37.6390   29.6550   42.1500 C   0  0  0  0  0  0  0  0  0  0  0  0
   38.7770   30.3850   41.8150 C   0  0  0  0  0  0  0  0  0  0  0  0
   38.6400   31.4670   40.9460 C   0  0  0  0  0  0  0  0  0  0  0  0
   37.3930   31.7780   40.4500 N   0  0  0  0  0  0  0  0  0  0  0  0
   36.3280   31.0350   40.8100 C   0  0  0  0  0  0  0  0  0  0  0  0
   36.4460   29.9970   41.6410 N   0  0  0  0  0  0  0  0  0  0  0  0
   39.4880   32.0620   40.6560 H   0  0  0  0  0  0  0  0  0  0  0  0
   35.3150   31.2050   40.4700 H   0  0  0  0  0  0  0  0  0  0  0  0
   40.3850   29.9660   42.4690 S   0  0  0  0  0  0  0  0  0  0  0  0
   41.1200   31.1060   42.8260 H   0  0  0  0  0  0  0  0  0  0  0  0
   36.8050   27.4580   42.9880 C   0  0  0  0  0  0  0  0  0  0  0  0
   36.3650   27.2330   43.9840 H   0  0  0  0  0  0  0  0  0  0  0  0
   36.0540   27.7590   42.2460 H   0  0  0  0  0  0  0  0  0  0  0  0
   37.4810   26.2280   42.5280 C   0  0  0  0  0  0  0  0  0  0  0  0
   36.9320   25.0450   42.1100 C   0  0  0  0  0  0  0  0  0  0  0  0
   35.8540   24.9640   42.1050 H   0  0  0  0  0  0  0  0  0  0  0  0
   37.7010   24.0150   41.7190 C   0  0  0  0  0  3  0  0  0  0  0  0
   39.1680   24.3250   41.7980 C   0  0  0  0  0  3  0  0  0  0  0  0
   39.2000   26.1030   42.4430 S   0  0  0  0  0  0  0  0  0  0  0  0
  1  3  1  0  0  0  0
  2  1  1  0  0  0  0
  4  1  1  0  0  0  0
  5  4  1  0  0  0  0
  5 12  1  0  0  0  0
  6  5  2  0  0  0  0
  7  8  2  0  0  0  0
  7  6  1  0  0  0  0
  8  9  1  0  0  0  0
  9  4  2  0  0  0  0
 10  6  1  0  0  0  0
 11  8  1  0  0  0  0
 12 13  1  0  0  0  0
 14  1  1  0  0  0  0
 14 15  1  0  0  0  0
 16 14  1  0  0  0  0
 17 14  1  0  0  0  0
 18 17  2  0  0  0  0
 19 18  1  0  0  0  0
 20 21  2  0  0  0  0
 20 18  1  0  0  0  0
 21 22  1  0  0  0  0
 22 17  1  0  0  0  0
M  END
>  <minimizedAffinity>
-4.13800526

$$$$

 OpenBabel03252507413D

 22 23  0  0  0  0  0  0  0  0999 V2000
   39.2330   30.3590   41.1010 C   0  0  0  0  0  0  0  0  0  0  0  0
   38.5430   29.6200   40.6090 H   0  0  0  0  0  0  0  0  0  0  0  0
   40.2480   30.1050   40.7590 H   0  0  0  0  0  0  0  0  0  0  0  0
   38.8110   31.7120   40.7130 C   0  0  0  0  0  0  0  0  0  0  0  0
   37.6660   31.7750   39.9240 C   0  0  0  0  0  0  0  0  0  0  0  0
   37.2070   33.0280   39.5170 C   0  0  0  0  0  0  0  0  0  0  0  0
   37.8960   34.1550   39.9060 N   0  0  0  0  0  0  0  0  0  0  0  0
   38.9990   34.0330   40.6710 C   0  0  0  0  0  0  0  0  0  0  0  0
   39.4480   32.8390   41.0660 N   0  0  0  0  0  0  0  0  0  0  0  0
   36.3270   33.1300   38.9070 H   0  0  0  0  0  0  0  0  0  0  0  0
   39.6010   34.8600   41.0230 H   0  0  0  0  0  0  0  0  0  0  0  0
   36.7860   30.3020   39.4300 S   0  0  0  0  0  0  0  0  0  0  0  0
   36.3570   30.3690   38.0960 H   0  0  0  0  0  0  0  0  0  0  0  0
   39.1370   30.0930   42.5830 C   0  0  0  0  0  0  0  0  0  0  0  0
   40.1310   29.8770   43.0310 H   0  0  0  0  0  0  0  0  0  0  0  0
   38.6290   30.9410   43.0610 H   0  0  0  0  0  0  0  0  0  0  0  0
   38.3160   28.8760   42.7470 C   0  0  0  0  0  0  0  0  0  0  0  0
   37.3470   28.6050   43.6750 C   0  0  0  0  0  0  0  0  0  0  0  0
   37.1250   29.3680   44.4090 H   0  0  0  0  0  0  0  0  0  0  0  0
   36.6890   27.4330   43.6800 C   0  0  0  0  0  3  0  0  0  0  0  0
   37.1400   26.5120   42.5830 C   0  0  0  0  0  3  0  0  0  0  0  0
   38.4790   27.5140   41.7000 S   0  0  0  0  0  0  0  0  0  0  0  0
  1 14  1  0  0  0  0
  2  1  1  0  0  0  0
  3  1  1  0  0  0  0
  4  9  1  0  0  0  0
  4  1  1  0  0  0  0
  5  4  2  0  0  0  0
  6  7  2  0  0  0  0
  6  5  1  0  0  0  0
  7  8  1  0  0  0  0
  8 11  1  0  0  0  0
  8  9  2  0  0  0  0
 10  6  1  0  0  0  0
 12  5  1  0  0  0  0
 13 12  1  0  0  0  0
 14 17  1  0  0  0  0
 14 15  1  0  0  0  0
 14 16  1  0  0  0  0
 17 18  2  0  0  0  0
 18 20  1  0  0  0  0
 18 19  1  0  0  0  0
 21 20  2  0  0  0  0
 22 21  1  0  0  0  0
 22 17  1  0  0  0  0
M  END
>  <minimizedAffinity>
-4.10592079

$$$$

 OpenBabel03252507413D

 22 23  0  0  0  0  0  0  0  0999 V2000
   37.6460   28.2150   43.2180 C   0  0  0  0  0  0  0  0  0  0  0  0
   37.2580   28.5220   44.2270 H   0  0  0  0  0  0  0  0  0  0  0  0
   36.7990   27.7460   42.6940 H   0  0  0  0  0  0  0  0  0  0  0  0
   38.1570   29.4130   42.5380 C   0  0  0  0  0  0  0  0  0  0  0  0
   37.4010   29.8500   41.4530 C   0  0  0  0  0  0  0  0  0  0  0  0
   37.8260   30.9820   40.7580 C   0  0  0  0  0  0  0  0  0  0  0  0
   38.9730   31.6290   41.1640 N   0  0  0  0  0  0  0  0  0  0  0  0
   39.6640   31.1600   42.2230 C   0  0  0  0  0  0  0  0  0  0  0  0
   39.2670   30.0780   42.8950 N   0  0  0  0  0  0  0  0  0  0  0  0
   37.2780   31.3590   39.9140 H   0  0  0  0  0  0  0  0  0  0  0  0
   40.5710   31.6030   42.6110 H   0  0  0  0  0  0  0  0  0  0  0  0
   35.9180   28.9970   40.9410 S   0  0  0  0  0  0  0  0  0  0  0  0
   35.8200   28.9050   39.5450 H   0  0  0  0  0  0  0  0  0  0  0  0
   38.7000   27.1680   43.4790 C   0  0  0  0  0  0  0  0  0  0  0  0
   39.7010   27.4870   43.1180 H   0  0  0  0  0  0  0  0  0  0  0  0
   38.6900   26.9170   44.5470 H   0  0  0  0  0  0  0  0  0  0  0  0
   38.3190   25.9750   42.6940 C   0  0  0  0  0  0  0  0  0  0  0  0
   37.0810   25.5850   42.2600 C   0  0  0  0  0  0  0  0  0  0  0  0
   36.2380   26.2140   42.5100 H   0  0  0  0  0  0  0  0  0  0  0  0
   36.9110   24.4590   41.5470 C   0  0  0  0  0  3  0  0  0  0  0  0
   38.1990   23.7270   41.3040 C   0  0  0  0  0  3  0  0  0  0  0  0
   39.4830   24.8140   42.1700 S   0  0  0  0  0  0  0  0  0  0  0  0
  1 14  1  0  0  0  0
  1  2  1  0  0  0  0
  3  1  1  0  0  0  0
  4  9  1  0  0  0  0
  4  1  1  0  0  0  0
  5  4  2  0  0  0  0
  6  7  2  0  0  0  0
  6  5  1  0  0  0  0
  7  8  1  0  0  0  0
  8 11  1  0  0  0  0
  8  9  2  0  0  0  0
 10  6  1  0  0  0  0
 12  5  1  0  0  0  0
 13 12  1  0  0  0  0
 14 16  1  0  0  0  0
 15 14  1  0  0  0  0
 17 14  1  0  0  0  0
 18 19  1  0  0  0  0
 18 17  2  0  0  0  0
 20 18  1  0  0  0  0
 21 20  2  0  0  0  0
 21 22  1  0  0  0  0
 22 17  1  0  0  0  0
M  END
>  <minimizedAffinity>
-4.09336758

$$$$

 OpenBabel03252507413D

 22 23  0  0  0  0  0  0  0  0999 V2000
   36.7290   30.3820   41.4510 C   0  0  0  0  0  0  0  0  0  0  0  0
   36.1570   30.9710   42.2190 H   0  0  0  0  0  0  0  0  0  0  0  0
   37.5210   31.0510   41.0790 H   0  0  0  0  0  0  0  0  0  0  0  0
   37.2500   29.1680   42.0940 C   0  0  0  0  0  0  0  0  0  0  0  0
   38.5750   29.2400   42.5160 C   0  0  0  0  0  0  0  0  0  0  0  0
   39.1370   28.1240   43.1350 C   0  0  0  0  0  0  0  0  0  0  0  0
   38.3700   26.9940   43.3090 N   0  0  0  0  0  0  0  0  0  0  0  0
   37.0920   26.9820   42.8810 C   0  0  0  0  0  0  0  0  0  0  0  0
   36.5430   28.0440   42.2860 N   0  0  0  0  0  0  0  0  0  0  0  0
   40.1560   28.1300   43.4790 H   0  0  0  0  0  0  0  0  0  0  0  0
   36.4170   26.1420   42.9750 H   0  0  0  0  0  0  0  0  0  0  0  0
   39.5540   30.7150   42.2810 S   0  0  0  0  0  0  0  0  0  0  0  0
   40.8660   30.4170   41.8830 H   0  0  0  0  0  0  0  0  0  0  0  0
   35.7570   30.1080   40.3300 C   0  0  0  0  0  0  0  0  0  0  0  0
   35.5100   29.0270   40.2500 H   0  0  0  0  0  0  0  0  0  0  0  0
   34.8700   30.7390   40.4700 H   0  0  0  0  0  0  0  0  0  0  0  0
   36.4350   30.4890   39.0740 C   0  0  0  0  0  0  0  0  0  0  0  0
   36.4910   29.8160   37.8830 C   0  0  0  0  0  0  0  0  0  0  0  0
   35.9790   28.8660   37.8160 H   0  0  0  0  0  0  0  0  0  0  0  0
   37.1590   30.3130   36.8280 C   0  0  0  0  0  3  0  0  0  0  0  0
   37.8000   31.6390   37.1200 C   0  0  0  0  0  3  0  0  0  0  0  0
   37.3220   31.9610   38.9220 S   0  0  0  0  0  0  0  0  0  0  0  0
  1  4  1  0  0  0  0
  1  2  1  0  0  0  0
  3  1  1  0  0  0  0
  4  9  2  0  0  0  0
  4  5  1  0  0  0  0
  5  6  2  0  0  0  0
  6  7  1  0  0  0  0
  6 10  1  0  0  0  0
  8 11  1  0  0  0  0
  8  7  2  0  0  0  0
  9  8  1  0  0  0  0
 12  5  1  0  0  0  0
 13 12  1  0  0  0  0
 14 16  1  0  0  0  0
 14  1  1  0  0  0  0
 15 14  1  0  0  0  0
 17 14  1  0  0  0  0
 18 17  2  0  0  0  0
 19 18  1  0  0  0  0
 20 21  2  0  0  0  0
 20 18  1  0  0  0  0
 21 22  1  0  0  0  0
 22 17  1  0  0  0  0
M  END
>  <minimizedAffinity>
-3.98139644

$$$$

 OpenBabel03252507413D

 22 23  0  0  0  0  0  0  0  0999 V2000
   36.1480   28.1440   41.5620 C   0  0  0  0  0  0  0  0  0  0  0  0
   35.1090   28.2110   41.9850 H   0  0  0  0  0  0  0  0  0  0  0  0
   36.1730   27.2250   40.9550 H   0  0  0  0  0  0  0  0  0  0  0  0
   36.4090   29.3620   40.7830 C   0  0  0  0  0  0  0  0  0  0  0  0
   36.3040   29.2180   39.4010 C   0  0  0  0  0  0  0  0  0  0  0  0
   36.5380   30.3330   38.5970 C   0  0  0  0  0  0  0  0  0  0  0  0
   36.8650   31.5330   39.1900 N   0  0  0  0  0  0  0  0  0  0  0  0
   36.9520   31.6120   40.5330 C   0  0  0  0  0  0  0  0  0  0  0  0
   36.7300   30.5520   41.3130 N   0  0  0  0  0  0  0  0  0  0  0  0
   36.4690   30.2750   37.5260 H   0  0  0  0  0  0  0  0  0  0  0  0
   37.2010   32.5100   41.0830 H   0  0  0  0  0  0  0  0  0  0  0  0
   35.8800   27.6540   38.6520 S   0  0  0  0  0  0  0  0  0  0  0  0
   36.6380   27.4020   37.4990 H   0  0  0  0  0  0  0  0  0  0  0  0
   37.0670   27.9700   42.7460 C   0  0  0  0  0  0  0  0  0  0  0  0
   37.9130   28.6910   42.7240 H   0  0  0  0  0  0  0  0  0  0  0  0
   36.4730   28.0370   43.6660 H   0  0  0  0  0  0  0  0  0  0  0  0
   37.6510   26.6180   42.6390 C   0  0  0  0  0  0  0  0  0  0  0  0
   37.0760   25.4610   42.1840 C   0  0  0  0  0  0  0  0  0  0  0  0
   36.0480   25.5070   41.8490 H   0  0  0  0  0  0  0  0  0  0  0  0
   37.7580   24.3040   42.1520 C   0  0  0  0  0  3  0  0  0  0  0  0
   39.1650   24.4480   42.6560 C   0  0  0  0  0  3  0  0  0  0  0  0
   39.2770   26.2810   43.1080 S   0  0  0  0  0  0  0  0  0  0  0  0
  1  2  1  0  0  0  0
  1 14  1  0  0  0  0
  3  1  1  0  0  0  0
  4  9  1  0  0  0  0
  4  1  1  0  0  0  0
  5  4  2  0  0  0  0
  6  7  2  0  0  0  0
  6  5  1  0  0  0  0
  7  8  1  0  0  0  0
  8 11  1  0  0  0  0
  8  9  2  0  0  0  0
 10  6  1  0  0  0  0
 12  5  1  0  0  0  0
 13 12  1  0  0  0  0
 14 16  1  0  0  0  0
 15 14  1  0  0  0  0
 17 14  1  0  0  0  0
 17 22  1  0  0  0  0
 18 17  2  0  0  0  0
 19 18  1  0  0  0  0
 20 18  1  0  0  0  0
 20 21  2  0  0  0  0
 21 22  1  0  0  0  0
M  END
>  <minimizedAffinity>
-3.95193458

$$$$

 OpenBabel03252507413D

 22 23  0  0  0  0  0  0  0  0999 V2000
   36.8510   30.9950   39.7310 C   0  0  0  0  0  0  0  0  0  0  0  0
   36.0200   31.3420   39.0590 H   0  0  0  0  0  0  0  0  0  0  0  0
   37.1890   30.0280   39.3260 H   0  0  0  0  0  0  0  0  0  0  0  0
   37.9020   32.0210   39.7330 C   0  0  0  0  0  0  0  0  0  0  0  0
   39.1450   31.6020   39.2640 C   0  0  0  0  0  0  0  0  0  0  0  0
   40.1910   32.5240   39.2370 C   0  0  0  0  0  0  0  0  0  0  0  0
   39.9650   33.8110   39.6720 N   0  0  0  0  0  0  0  0  0  0  0  0
   38.7410   34.1600   40.1150 C   0  0  0  0  0  0  0  0  0  0  0  0
   37.7320   33.2860   40.1460 N   0  0  0  0  0  0  0  0  0  0  0  0
   41.1690   32.2500   38.8830 H   0  0  0  0  0  0  0  0  0  0  0  0
   38.4720   35.1440   40.4740 H   0  0  0  0  0  0  0  0  0  0  0  0
   39.4180   29.9280   38.7040 S   0  0  0  0  0  0  0  0  0  0  0  0
   40.6570   29.4280   39.1310 H   0  0  0  0  0  0  0  0  0  0  0  0
   36.2230   30.7640   41.0830 C   0  0  0  0  0  0  0  0  0  0  0  0
   36.4820   31.5700   41.8040 H   0  0  0  0  0  0  0  0  0  0  0  0
   35.1410   30.6390   40.9520 H   0  0  0  0  0  0  0  0  0  0  0  0
   36.7990   29.5110   41.6130 C   0  0  0  0  0  0  0  0  0  0  0  0
   36.3630   28.2240   41.4530 C   0  0  0  0  0  0  0  0  0  0  0  0
   35.4720   28.0630   40.8620 H   0  0  0  0  0  0  0  0  0  0  0  0
   37.0150   27.1880   42.0100 C   0  0  0  0  0  3  0  0  0  0  0  0
   38.2240   27.6170   42.7890 C   0  0  0  0  0  3  0  0  0  0  0  0
   38.2230   29.4980   42.5870 S   0  0  0  0  0  0  0  0  0  0  0  0
  1  4  1  0  0  0  0
  1 14  1  0  0  0  0
  2  1  1  0  0  0  0
  3  1  1  0  0  0  0
  4  9  1  0  0  0  0
  5  4  2  0  0  0  0
  6  5  1  0  0  0  0
  6  7  2  0  0  0  0
  7  8  1  0  0  0  0
  8  9  2  0  0  0  0
  8 11  1  0  0  0  0
 10  6  1  0  0  0  0
 12 13  1  0  0  0  0
 12  5  1  0  0  0  0
 14 17  1  0  0  0  0
 14 15  1  0  0  0  0
 16 14  1  0  0  0  0
 17 22  1  0  0  0  0
 18 17  2  0  0  0  0
 18 20  1  0  0  0  0
 19 18  1  0  0  0  0
 20 21  2  0  0  0  0
 22 21  1  0  0  0  0
M  END
>  <minimizedAffinity>
-3.94273758

$$$$

 OpenBabel03252507413D

 22 23  0  0  0  0  0  0  0  0999 V2000
   36.1950   27.8310   40.2160 C   0  0  0  0  0  0  0  0  0  0  0  0
   36.8340   27.9700   39.3020 H   0  0  0  0  0  0  0  0  0  0  0  0
   35.5910   26.9290   40.0330 H   0  0  0  0  0  0  0  0  0  0  0  0
   37.0800   27.7100   41.3830 C   0  0  0  0  0  0  0  0  0  0  0  0
   38.4210   27.4730   41.0910 C   0  0  0  0  0  0  0  0  0  0  0  0
   39.3190   27.3460   42.1510 C   0  0  0  0  0  0  0  0  0  0  0  0
   38.8560   27.4590   43.4430 N   0  0  0  0  0  0  0  0  0  0  0  0
   37.5460   27.6890   43.6640 C   0  0  0  0  0  0  0  0  0  0  0  0
   36.6770   27.8120   42.6590 N   0  0  0  0  0  0  0  0  0  0  0  0
   40.3640   27.1640   41.9780 H   0  0  0  0  0  0  0  0  0  0  0  0
   37.0950   27.7920   44.6420 H   0  0  0  0  0  0  0  0  0  0  0  0
   39.0020   27.3300   39.4090 S   0  0  0  0  0  0  0  0  0  0  0  0
   39.9430   26.3000   39.2650 H   0  0  0  0  0  0  0  0  0  0  0  0
   35.2790   29.0290   40.2680 C   0  0  0  0  0  0  0  0  0  0  0  0
   34.4590   28.9560   39.5220 H   0  0  0  0  0  0  0  0  0  0  0  0
   34.9130   29.1480   41.2960 H   0  0  0  0  0  0  0  0  0  0  0  0
   36.0940   30.2050   39.9010 C   0  0  0  0  0  0  0  0  0  0  0  0
   36.4880   31.2610   40.6780 C   0  0  0  0  0  0  0  0  0  0  0  0
   36.1760   31.2690   41.7130 H   0  0  0  0  0  0  0  0  0  0  0  0
   37.2370   32.2580   40.1780 C   0  0  0  0  0  3  0  0  0  0  0  0
   37.5660   32.0630   38.7260 C   0  0  0  0  0  3  0  0  0  0  0  0
   36.7150   30.4270   38.3060 S   0  0  0  0  0  0  0  0  0  0  0  0
  1 14  1  0  0  0  0
  1  4  1  0  0  0  0
  2  1  1  0  0  0  0
  3  1  1  0  0  0  0
  4  9  1  0  0  0  0
  5  4  2  0  0  0  0
  5  6  1  0  0  0  0
  6  7  2  0  0  0  0
  7  8  1  0  0  0  0
  8 11  1  0  0  0  0
  9  8  2  0  0  0  0
 10  6  1  0  0  0  0
 12  5  1  0  0  0  0
 13 12  1  0  0  0  0
 14 16  1  0  0  0  0
 15 14  1  0  0  0  0
 17 14  1  0  0  0  0
 17 18  2  0  0  0  0
 18 19  1  0  0  0  0
 20 18  1  0  0  0  0
 21 20  2  0  0  0  0
 22 21  1  0  0  0  0
 22 17  1  0  0  0  0
M  END
>  <minimizedAffinity>
-3.87401319

$$$$

 OpenBabel03252507413D

 22 23  0  0  0  0  0  0  0  0999 V2000
   35.8570   29.2590   40.8720 C   0  0  0  0  0  0  0  0  0  0  0  0
   35.9940   29.0150   39.7830 H   0  0  0  0  0  0  0  0  0  0  0  0
   34.7890   29.0990   41.0890 H   0  0  0  0  0  0  0  0  0  0  0  0
   36.7450   28.3880   41.6540 C   0  0  0  0  0  0  0  0  0  0  0  0
   37.1160   27.2000   41.0290 C   0  0  0  0  0  0  0  0  0  0  0  0
   37.9570   26.3230   41.7130 C   0  0  0  0  0  0  0  0  0  0  0  0
   38.3930   26.6570   42.9760 N   0  0  0  0  0  0  0  0  0  0  0  0
   38.0010   27.8210   43.5310 C   0  0  0  0  0  0  0  0  0  0  0  0
   37.1960   28.6680   42.8860 N   0  0  0  0  0  0  0  0  0  0  0  0
   38.2730   25.3940   41.2730 H   0  0  0  0  0  0  0  0  0  0  0  0
   38.2930   28.1650   44.5150 H   0  0  0  0  0  0  0  0  0  0  0  0
   36.5400   26.7850   39.3900 S   0  0  0  0  0  0  0  0  0  0  0  0
   36.1940   25.4300   39.2830 H   0  0  0  0  0  0  0  0  0  0  0  0
   36.1680   30.7280   41.0120 C   0  0  0  0  0  0  0  0  0  0  0  0
   35.2600   31.3580   40.8890 H   0  0  0  0  0  0  0  0  0  0  0  0
   36.6750   30.8920   41.9710 H   0  0  0  0  0  0  0  0  0  0  0  0
   37.0870   31.0760   39.9080 C   0  0  0  0  0  0  0  0  0  0  0  0
   36.8670   31.0430   38.5570 C   0  0  0  0  0  0  0  0  0  0  0  0
   35.8950   30.7180   38.2130 H   0  0  0  0  0  0  0  0  0  0  0  0
   37.8240   31.3980   37.6830 C   0  0  0  0  0  3  0  0  0  0  0  0
   39.0980   31.8170   38.3570 C   0  0  0  0  0  3  0  0  0  0  0  0
   38.6980   31.6230   40.1960 S   0  0  0  0  0  0  0  0  0  0  0  0
  1 14  1  0  0  0  0
  1  3  1  0  0  0  0
  1  4  1  0  0  0  0
  2  1  1  0  0  0  0
  4  9  1  0  0  0  0
  5  4  2  0  0  0  0
  5  6  1  0  0  0  0
  6  7  2  0  0  0  0
  7  8  1  0  0  0  0
  8 11  1  0  0  0  0
  9  8  2  0  0  0  0
 10  6  1  0  0  0  0
 12  5  1  0  0  0  0
 13 12  1  0  0  0  0
 14 16  1  0  0  0  0
 15 14  1  0  0  0  0
 17 22  1  0  0  0  0
 17 14  1  0  0  0  0
 18 17  2  0  0  0  0
 19 18  1  0  0  0  0
 20 21  2  0  0  0  0
 20 18  1  0  0  0  0
 21 22  1  0  0  0  0
M  END
>  <minimizedAffinity>
-3.83034134

$$$$

 OpenBabel03252507413D

 22 23  0  0  0  0  0  0  0  0999 V2000
   36.2590   28.8480   39.7240 C   0  0  0  0  0  0  0  0  0  0  0  0
   35.4220   28.5980   39.0160 H   0  0  0  0  0  0  0  0  0  0  0  0
   37.0460   28.0990   39.5440 H   0  0  0  0  0  0  0  0  0  0  0  0
   36.6950   30.2250   39.4530 C   0  0  0  0  0  0  0  0  0  0  0  0
   37.1380   30.4650   38.1550 C   0  0  0  0  0  0  0  0  0  0  0  0
   37.5690   31.7500   37.8260 C   0  0  0  0  0  0  0  0  0  0  0  0
   37.5420   32.7350   38.7880 N   0  0  0  0  0  0  0  0  0  0  0  0
   37.1020   32.4440   40.0290 C   0  0  0  0  0  0  0  0  0  0  0  0
   36.6880   31.2180   40.3550 N   0  0  0  0  0  0  0  0  0  0  0  0
   37.9200   31.9860   36.8370 H   0  0  0  0  0  0  0  0  0  0  0  0
   37.0450   33.1520   40.8450 H   0  0  0  0  0  0  0  0  0  0  0  0
   37.1660   29.1740   36.9210 S   0  0  0  0  0  0  0  0  0  0  0  0
   38.3260   29.2250   36.1340 H   0  0  0  0  0  0  0  0  0  0  0  0
   35.7030   28.6470   41.1120 C   0  0  0  0  0  0  0  0  0  0  0  0
   35.4890   29.6140   41.6170 H   0  0  0  0  0  0  0  0  0  0  0  0
   34.8220   27.9950   41.0480 H   0  0  0  0  0  0  0  0  0  0  0  0
   36.7550   27.9730   41.8990 C   0  0  0  0  0  0  0  0  0  0  0  0
   37.1920   26.6780   41.8260 C   0  0  0  0  0  0  0  0  0  0  0  0
   36.7230   26.0270   41.1020 H   0  0  0  0  0  0  0  0  0  0  0  0
   38.1720   26.2230   42.6260 C   0  0  0  0  0  3  0  0  0  0  0  0
   38.6930   27.2770   43.5600 C   0  0  0  0  0  3  0  0  0  0  0  0
   37.6540   28.7950   43.1200 S   0  0  0  0  0  0  0  0  0  0  0  0
  1 14  1  0  0  0  0
  2  1  1  0  0  0  0
  3  1  1  0  0  0  0
  4  1  1  0  0  0  0
  4  9  1  0  0  0  0
  5  4  2  0  0  0  0
  6  5  1  0  0  0  0
  6  7  2  0  0  0  0
  7  8  1  0  0  0  0
  8  9  2  0  0  0  0
  8 11  1  0  0  0  0
 10  6  1  0  0  0  0
 12  5  1  0  0  0  0
 13 12  1  0  0  0  0
 14 15  1  0  0  0  0
 14 17  1  0  0  0  0
 16 14  1  0  0  0  0
 17 22  1  0  0  0  0
 18 17  2  0  0  0  0
 18 20  1  0  0  0  0
 19 18  1  0  0  0  0
 20 21  2  0  0  0  0
 22 21  1  0  0  0  0
M  END
>  <minimizedAffinity>
-3.79608274

$$$$
