
 OpenBabel03252507273D

 24 26  0  0  0  0  0  0  0  0999 V2000
   37.8760   28.1030   41.8740 C   0  0  0  0  0  0  0  0  0  0  0  0
   36.5420   27.7810   41.6250 C   0  0  0  0  0  0  0  0  0  0  0  0
   35.7440   28.7780   41.0540 C   0  0  0  0  0  0  0  0  0  0  0  0
   36.3110   29.9930   40.7740 N   0  0  0  0  0  0  0  0  0  0  0  0
   37.5970   30.2490   41.0330 C   0  0  0  0  0  0  0  0  0  0  0  0
   38.3900   29.3090   41.5830 N   0  0  0  0  0  0  0  0  0  0  0  0
   36.1100   26.8390   41.8440 H   0  0  0  0  0  0  0  0  0  0  0  0
   34.7060   28.5990   40.8350 H   0  0  0  0  0  0  0  0  0  0  0  0
   38.1550   31.5630   40.7160 C   0  0  0  0  0  0  0  0  0  0  0  0
   37.3350   32.5430   40.1670 C   0  0  0  0  0  0  0  0  0  0  0  0
   37.7690   33.8120   39.8360 C   0  0  0  0  0  0  0  0  0  0  0  0
   39.1230   34.0420   40.0990 C   0  0  0  0  0  0  0  0  0  0  0  0
   39.9490   33.0720   40.6460 C   0  0  0  0  0  0  0  0  0  0  0  0
   39.4430   31.8450   40.9440 N   0  0  0  0  0  0  0  0  0  0  0  0
   36.2990   32.2650   40.0020 H   0  0  0  0  0  0  0  0  0  0  0  0
   37.0940   34.5170   39.4190 H   0  0  0  0  0  0  0  0  0  0  0  0
   39.5130   35.0310   39.8530 H   0  0  0  0  0  0  0  0  0  0  0  0
   40.9960   33.2670   40.8420 H   0  0  0  0  0  0  0  0  0  0  0  0
   38.7590   27.0790   42.4780 C   0  0  0  0  0  0  0  0  0  0  0  0
   39.8120   27.1460   43.2790 C   0  0  0  0  0  0  0  0  0  0  0  0
   40.1190   28.1620   43.5750 H   0  0  0  0  0  0  0  0  0  0  0  0
   40.4320   26.0200   43.6780 C   0  0  0  0  0  3  0  0  0  0  0  0
   39.9420   24.8360   43.2330 C   0  0  0  0  0  3  0  0  0  0  0  0
   38.4710   25.3640   42.1520 S   0  0  0  0  0  0  0  0  0  0  0  0
  1 19  1  0  0  0  0
  2  7  1  0  0  0  0
  2  1  1  0  0  0  0
  3  2  2  0  0  0  0
  4  5  2  0  0  0  0
  4  3  1  0  0  0  0
  5  6  1  0  0  0  0
  6  1  2  0  0  0  0
  8  3  1  0  0  0  0
  9 14  1  0  0  0  0
  9  5  1  0  0  0  0
 10  9  2  0  0  0  0
 11 12  2  0  0  0  0
 11 10  1  0  0  0  0
 12 13  1  0  0  0  0
 13 18  1  0  0  0  0
 13 14  2  0  0  0  0
 15 10  1  0  0  0  0
 16 11  1  0  0  0  0
 17 12  1  0  0  0  0
 19 20  2  0  0  0  0
 20 21  1  0  0  0  0
 20 22  1  0  0  0  0
 23 22  2  0  0  0  0
 24 19  1  0  0  0  0
 24 23  1  0  0  0  0
M  END
>  <minimizedAffinity>
-4.99145937

$$$$

 OpenBabel03252507273D

 24 26  0  0  0  0  0  0  0  0999 V2000
   37.3840   26.8670   41.6810 C   0  0  0  0  0  0  0  0  0  0  0  0
   37.4110   27.0980   43.0560 C   0  0  0  0  0  0  0  0  0  0  0  0
   37.4260   28.4330   43.4760 C   0  0  0  0  0  0  0  0  0  0  0  0
   37.4100   29.4190   42.5260 N   0  0  0  0  0  0  0  0  0  0  0  0
   37.3830   29.1420   41.2180 C   0  0  0  0  0  0  0  0  0  0  0  0
   37.3690   27.8660   40.7850 N   0  0  0  0  0  0  0  0  0  0  0  0
   37.4240   26.3300   43.7860 H   0  0  0  0  0  0  0  0  0  0  0  0
   37.4480   28.6850   44.5210 H   0  0  0  0  0  0  0  0  0  0  0  0
   37.3680   30.2320   40.2430 C   0  0  0  0  0  0  0  0  0  0  0  0
   37.2960   31.5480   40.6870 C   0  0  0  0  0  0  0  0  0  0  0  0
   37.2770   32.6430   39.8440 C   0  0  0  0  0  0  0  0  0  0  0  0
   37.3360   32.3210   38.4840 C   0  0  0  0  0  0  0  0  0  0  0  0
   37.4080   31.0120   38.0330 C   0  0  0  0  0  0  0  0  0  0  0  0
   37.4220   29.9900   38.9290 N   0  0  0  0  0  0  0  0  0  0  0  0
   37.2540   31.6910   41.7610 H   0  0  0  0  0  0  0  0  0  0  0  0
   37.2200   33.6240   40.2430 H   0  0  0  0  0  0  0  0  0  0  0  0
   37.3230   33.1540   37.7790 H   0  0  0  0  0  0  0  0  0  0  0  0
   37.4520   30.7810   36.9750 H   0  0  0  0  0  0  0  0  0  0  0  0
   37.3670   25.4700   41.1910 C   0  0  0  0  0  0  0  0  0  0  0  0
   36.6070   24.8210   40.3200 C   0  0  0  0  0  0  0  0  0  0  0  0
   35.8140   25.4200   39.8460 H   0  0  0  0  0  0  0  0  0  0  0  0
   36.8290   23.5180   40.0660 C   0  0  0  0  0  3  0  0  0  0  0  0
   37.8450   22.9090   40.7270 C   0  0  0  0  0  3  0  0  0  0  0  0
   38.5500   24.3050   41.8050 S   0  0  0  0  0  0  0  0  0  0  0  0
  1  2  1  0  0  0  0
  2  3  2  0  0  0  0
  2  7  1  0  0  0  0
  3  8  1  0  0  0  0
  4  3  1  0  0  0  0
  5  4  2  0  0  0  0
  6  5  1  0  0  0  0
  6  1  2  0  0  0  0
  9 10  1  0  0  0  0
  9  5  1  0  0  0  0
 10 15  1  0  0  0  0
 11 16  1  0  0  0  0
 11 10  2  0  0  0  0
 12 11  1  0  0  0  0
 13 12  2  0  0  0  0
 13 14  1  0  0  0  0
 14  9  2  0  0  0  0
 17 12  1  0  0  0  0
 18 13  1  0  0  0  0
 19  1  1  0  0  0  0
 19 24  1  0  0  0  0
 20 19  2  0  0  0  0
 21 20  1  0  0  0  0
 22 20  1  0  0  0  0
 22 23  2  0  0  0  0
 23 24  1  0  0  0  0
M  END
>  <minimizedAffinity>
-4.8127799

$$$$

 OpenBabel03252507273D

 24 26  0  0  0  0  0  0  0  0999 V2000
   37.6830   29.4090   41.7420 C   0  0  0  0  0  0  0  0  0  0  0  0
   37.9380   29.2640   43.1060 C   0  0  0  0  0  0  0  0  0  0  0  0
   37.8070   27.9790   43.6440 C   0  0  0  0  0  0  0  0  0  0  0  0
   37.4450   26.9530   42.8120 N   0  0  0  0  0  0  0  0  0  0  0  0
   37.2120   27.1480   41.5100 C   0  0  0  0  0  0  0  0  0  0  0  0
   37.3290   28.3740   40.9640 N   0  0  0  0  0  0  0  0  0  0  0  0
   38.2180   30.0620   43.7450 H   0  0  0  0  0  0  0  0  0  0  0  0
   37.9880   27.7940   44.6870 H   0  0  0  0  0  0  0  0  0  0  0  0
   36.8270   26.0190   40.6630 C   0  0  0  0  0  0  0  0  0  0  0  0
   36.8920   24.7260   41.1710 C   0  0  0  0  0  0  0  0  0  0  0  0
   36.5480   23.5990   40.4500 C   0  0  0  0  0  0  0  0  0  0  0  0
   36.1220   23.8610   39.1440 C   0  0  0  0  0  0  0  0  0  0  0  0
   36.0540   25.1460   38.6280 C   0  0  0  0  0  0  0  0  0  0  0  0
   36.4110   26.2040   39.4050 N   0  0  0  0  0  0  0  0  0  0  0  0
   37.2350   24.6300   42.1960 H   0  0  0  0  0  0  0  0  0  0  0  0
   36.6200   22.6380   40.8940 H   0  0  0  0  0  0  0  0  0  0  0  0
   35.8410   23.0010   38.5350 H   0  0  0  0  0  0  0  0  0  0  0  0
   35.7220   25.3310   37.6140 H   0  0  0  0  0  0  0  0  0  0  0  0
   37.8080   30.7510   41.1300 C   0  0  0  0  0  0  0  0  0  0  0  0
   36.9850   31.5050   40.4160 C   0  0  0  0  0  0  0  0  0  0  0  0
   35.9930   31.0690   40.2210 H   0  0  0  0  0  0  0  0  0  0  0  0
   37.3810   32.7160   39.9800 C   0  0  0  0  0  3  0  0  0  0  0  0
   38.6350   33.1230   40.2980 C   0  0  0  0  0  3  0  0  0  0  0  0
   39.3160   31.6620   41.3030 S   0  0  0  0  0  0  0  0  0  0  0  0
  1  2  1  0  0  0  0
  2  3  2  0  0  0  0
  2  7  1  0  0  0  0
  3  8  1  0  0  0  0
  4  3  1  0  0  0  0
  5  4  2  0  0  0  0
  6  5  1  0  0  0  0
  6  1  2  0  0  0  0
  9 10  1  0  0  0  0
  9  5  1  0  0  0  0
 10 15  1  0  0  0  0
 11 16  1  0  0  0  0
 11 10  2  0  0  0  0
 12 11  1  0  0  0  0
 13 12  2  0  0  0  0
 13 14  1  0  0  0  0
 14  9  2  0  0  0  0
 17 12  1  0  0  0  0
 18 13  1  0  0  0  0
 19 24  1  0  0  0  0
 19  1  1  0  0  0  0
 20 19  2  0  0  0  0
 21 20  1  0  0  0  0
 22 23  2  0  0  0  0
 22 20  1  0  0  0  0
 23 24  1  0  0  0  0
M  END
>  <minimizedAffinity>
-4.8059473

$$$$

 OpenBabel03252507273D

 24 26  0  0  0  0  0  0  0  0999 V2000
   39.2540   27.7130   42.0450 C   0  0  0  0  0  0  0  0  0  0  0  0
   40.4660   27.7880   42.7320 C   0  0  0  0  0  0  0  0  0  0  0  0
   41.0920   29.0390   42.7820 C   0  0  0  0  0  0  0  0  0  0  0  0
   40.4860   30.1010   42.1650 N   0  0  0  0  0  0  0  0  0  0  0  0
   39.3220   29.9740   41.5200 C   0  0  0  0  0  0  0  0  0  0  0  0
   38.6960   28.7820   41.4550 N   0  0  0  0  0  0  0  0  0  0  0  0
   40.9300   26.9620   43.2070 H   0  0  0  0  0  0  0  0  0  0  0  0
   42.0290   29.1700   43.2930 H   0  0  0  0  0  0  0  0  0  0  0  0
   38.7150   31.1390   40.8770 C   0  0  0  0  0  0  0  0  0  0  0  0
   37.6340   30.9640   40.0200 C   0  0  0  0  0  0  0  0  0  0  0  0
   36.9940   32.0000   39.3680 C   0  0  0  0  0  0  0  0  0  0  0  0
   37.5280   33.2640   39.6400 C   0  0  0  0  0  0  0  0  0  0  0  0
   38.6060   33.4490   40.4910 C   0  0  0  0  0  0  0  0  0  0  0  0
   39.1790   32.3740   41.0950 N   0  0  0  0  0  0  0  0  0  0  0  0
   37.2950   29.9430   39.8770 H   0  0  0  0  0  0  0  0  0  0  0  0
   36.1730   31.8030   38.7260 H   0  0  0  0  0  0  0  0  0  0  0  0
   37.0560   34.1160   39.1460 H   0  0  0  0  0  0  0  0  0  0  0  0
   39.0070   34.4350   40.6900 H   0  0  0  0  0  0  0  0  0  0  0  0
   38.5570   26.4100   41.9670 C   0  0  0  0  0  0  0  0  0  0  0  0
   37.3060   26.0350   42.1890 C   0  0  0  0  0  0  0  0  0  0  0  0
   36.6180   26.8370   42.4990 H   0  0  0  0  0  0  0  0  0  0  0  0
   36.9470   24.7460   42.0340 C   0  0  0  0  0  3  0  0  0  0  0  0
   37.9040   23.8650   41.6470 C   0  0  0  0  0  3  0  0  0  0  0  0
   39.4500   24.9590   41.4890 S   0  0  0  0  0  0  0  0  0  0  0  0
  1  2  1  0  0  0  0
  2  3  2  0  0  0  0
  2  7  1  0  0  0  0
  3  8  1  0  0  0  0
  4  3  1  0  0  0  0
  5  4  2  0  0  0  0
  6  5  1  0  0  0  0
  6  1  2  0  0  0  0
  9 14  1  0  0  0  0
  9  5  1  0  0  0  0
 10  9  2  0  0  0  0
 11 12  2  0  0  0  0
 11 10  1  0  0  0  0
 12 13  1  0  0  0  0
 13 18  1  0  0  0  0
 13 14  2  0  0  0  0
 15 10  1  0  0  0  0
 16 11  1  0  0  0  0
 17 12  1  0  0  0  0
 19  1  1  0  0  0  0
 19 20  2  0  0  0  0
 20 21  1  0  0  0  0
 22 20  1  0  0  0  0
 23 22  2  0  0  0  0
 24 23  1  0  0  0  0
 24 19  1  0  0  0  0
M  END
>  <minimizedAffinity>
-4.60406637

$$$$

 OpenBabel03252507273D

 24 26  0  0  0  0  0  0  0  0999 V2000
   39.5450   27.8280   42.9930 C   0  0  0  0  0  0  0  0  0  0  0  0
   38.4040   27.3720   43.6530 C   0  0  0  0  0  0  0  0  0  0  0  0
   37.2500   28.1550   43.5410 C   0  0  0  0  0  0  0  0  0  0  0  0
   37.3070   29.3050   42.7990 N   0  0  0  0  0  0  0  0  0  0  0  0
   38.4280   29.6960   42.1860 C   0  0  0  0  0  0  0  0  0  0  0  0
   39.5550   28.9630   42.2760 N   0  0  0  0  0  0  0  0  0  0  0  0
   38.3670   26.4810   44.2250 H   0  0  0  0  0  0  0  0  0  0  0  0
   36.3340   27.8650   44.0240 H   0  0  0  0  0  0  0  0  0  0  0  0
   38.4380   30.9330   41.4060 C   0  0  0  0  0  0  0  0  0  0  0  0
   37.3450   31.2470   40.6040 C   0  0  0  0  0  0  0  0  0  0  0  0
   37.2610   32.3900   39.8330 C   0  0  0  0  0  0  0  0  0  0  0  0
   38.3800   33.2250   39.9210 C   0  0  0  0  0  0  0  0  0  0  0  0
   39.4730   32.9210   40.7180 C   0  0  0  0  0  0  0  0  0  0  0  0
   39.4770   31.7730   41.4470 N   0  0  0  0  0  0  0  0  0  0  0  0
   36.5280   30.5340   40.6050 H   0  0  0  0  0  0  0  0  0  0  0  0
   36.4010   32.5740   39.2400 H   0  0  0  0  0  0  0  0  0  0  0  0
   38.3600   34.1420   39.3290 H   0  0  0  0  0  0  0  0  0  0  0  0
   40.3320   33.5790   40.7740 H   0  0  0  0  0  0  0  0  0  0  0  0
   40.7900   27.0310   43.0830 C   0  0  0  0  0  0  0  0  0  0  0  0
   41.0840   25.7700   42.8020 C   0  0  0  0  0  0  0  0  0  0  0  0
   40.2490   25.1630   42.4190 H   0  0  0  0  0  0  0  0  0  0  0  0
   42.3340   25.3080   42.9890 C   0  0  0  0  0  3  0  0  0  0  0  0
   43.2630   26.1730   43.4680 C   0  0  0  0  0  3  0  0  0  0  0  0
   42.2790   27.7850   43.6730 S   0  0  0  0  0  0  0  0  0  0  0  0
  1 19  1  0  0  0  0
  1  2  1  0  0  0  0
  2  7  1  0  0  0  0
  3  2  2  0  0  0  0
  3  8  1  0  0  0  0
  4  3  1  0  0  0  0
  5  6  1  0  0  0  0
  5  4  2  0  0  0  0
  6  1  2  0  0  0  0
  9 14  1  0  0  0  0
  9  5  1  0  0  0  0
 10 15  1  0  0  0  0
 10  9  2  0  0  0  0
 11 12  2  0  0  0  0
 11 10  1  0  0  0  0
 12 13  1  0  0  0  0
 13 18  1  0  0  0  0
 13 14  2  0  0  0  0
 16 11  1  0  0  0  0
 17 12  1  0  0  0  0
 19 24  1  0  0  0  0
 20 22  1  0  0  0  0
 20 19  2  0  0  0  0
 21 20  1  0  0  0  0
 22 23  2  0  0  0  0
 23 24  1  0  0  0  0
M  END
>  <minimizedAffinity>
-4.58408976

$$$$

 OpenBabel03252507273D

 24 26  0  0  0  0  0  0  0  0999 V2000
   37.6070   30.8060   39.0350 C   0  0  0  0  0  0  0  0  0  0  0  0
   37.0030   30.7370   37.7790 C   0  0  0  0  0  0  0  0  0  0  0  0
   36.3890   29.5280   37.4340 C   0  0  0  0  0  0  0  0  0  0  0  0
   36.4140   28.4990   38.3380 N   0  0  0  0  0  0  0  0  0  0  0  0
   37.0070   28.6190   39.5300 C   0  0  0  0  0  0  0  0  0  0  0  0
   37.6070   29.7710   39.8890 N   0  0  0  0  0  0  0  0  0  0  0  0
   36.9880   31.5380   37.0840 H   0  0  0  0  0  0  0  0  0  0  0  0
   35.9050   29.4050   36.4820 H   0  0  0  0  0  0  0  0  0  0  0  0
   37.0060   27.4900   40.4590 C   0  0  0  0  0  0  0  0  0  0  0  0
   36.9590   27.7280   41.8290 C   0  0  0  0  0  0  0  0  0  0  0  0
   36.9530   26.7300   42.7830 C   0  0  0  0  0  0  0  0  0  0  0  0
   37.0010   25.4340   42.2580 C   0  0  0  0  0  0  0  0  0  0  0  0
   37.0480   25.1860   40.8950 C   0  0  0  0  0  0  0  0  0  0  0  0
   37.0500   26.2270   40.0200 N   0  0  0  0  0  0  0  0  0  0  0  0
   36.9240   28.7690   42.1340 H   0  0  0  0  0  0  0  0  0  0  0  0
   36.9170   26.9750   43.8150 H   0  0  0  0  0  0  0  0  0  0  0  0
   36.9990   24.6110   42.9740 H   0  0  0  0  0  0  0  0  0  0  0  0
   37.0850   24.1760   40.5050 H   0  0  0  0  0  0  0  0  0  0  0  0
   38.2690   32.0660   39.4420 C   0  0  0  0  0  0  0  0  0  0  0  0
   37.8580   33.1330   40.1110 C   0  0  0  0  0  0  0  0  0  0  0  0
   36.8090   33.1080   40.4460 H   0  0  0  0  0  0  0  0  0  0  0  0
   38.7020   34.1570   40.3390 C   0  0  0  0  0  3  0  0  0  0  0  0
   39.9680   34.0500   39.8640 C   0  0  0  0  0  3  0  0  0  0  0  0
   39.9640   32.3490   39.0190 S   0  0  0  0  0  0  0  0  0  0  0  0
  1 19  1  0  0  0  0
  1  6  1  0  0  0  0
  2  1  2  0  0  0  0
  3  2  1  0  0  0  0
  3  4  2  0  0  0  0
  4  5  1  0  0  0  0
  5  6  2  0  0  0  0
  5  9  1  0  0  0  0
  7  2  1  0  0  0  0
  8  3  1  0  0  0  0
  9 10  1  0  0  0  0
 10 15  1  0  0  0  0
 10 11  2  0  0  0  0
 11 16  1  0  0  0  0
 12 11  1  0  0  0  0
 12 17  1  0  0  0  0
 13 12  2  0  0  0  0
 14  9  2  0  0  0  0
 14 13  1  0  0  0  0
 18 13  1  0  0  0  0
 19 20  2  0  0  0  0
 20 22  1  0  0  0  0
 20 21  1  0  0  0  0
 23 22  2  0  0  0  0
 24 19  1  0  0  0  0
 24 23  1  0  0  0  0
M  END
>  <minimizedAffinity>
-4.57917023

$$$$

 OpenBabel03252507273D

 24 26  0  0  0  0  0  0  0  0999 V2000
   36.4870   27.9260   39.6270 C   0  0  0  0  0  0  0  0  0  0  0  0
   35.6470   27.9460   38.5140 C   0  0  0  0  0  0  0  0  0  0  0  0
   35.4970   29.1700   37.8530 C   0  0  0  0  0  0  0  0  0  0  0  0
   36.1750   30.2600   38.3290 N   0  0  0  0  0  0  0  0  0  0  0  0
   36.9700   30.1860   39.4010 C   0  0  0  0  0  0  0  0  0  0  0  0
   37.1330   29.0200   40.0580 N   0  0  0  0  0  0  0  0  0  0  0  0
   35.1240   27.0980   38.1510 H   0  0  0  0  0  0  0  0  0  0  0  0
   34.8640   29.2580   36.9880 H   0  0  0  0  0  0  0  0  0  0  0  0
   37.6720   31.3790   39.8710 C   0  0  0  0  0  0  0  0  0  0  0  0
   37.2210   32.6370   39.4850 C   0  0  0  0  0  0  0  0  0  0  0  0
   37.8160   33.8210   39.8770 C   0  0  0  0  0  0  0  0  0  0  0  0
   38.9300   33.6550   40.7070 C   0  0  0  0  0  0  0  0  0  0  0  0
   39.3880   32.4060   41.0960 C   0  0  0  0  0  0  0  0  0  0  0  0
   38.7440   31.2880   40.6660 N   0  0  0  0  0  0  0  0  0  0  0  0
   36.3480   32.6570   38.8400 H   0  0  0  0  0  0  0  0  0  0  0  0
   37.4250   34.7510   39.5490 H   0  0  0  0  0  0  0  0  0  0  0  0
   39.4350   34.5620   41.0420 H   0  0  0  0  0  0  0  0  0  0  0  0
   40.2530   32.2960   41.7390 H   0  0  0  0  0  0  0  0  0  0  0  0
   36.6770   26.6520   40.3580 C   0  0  0  0  0  0  0  0  0  0  0  0
   36.5990   25.3790   39.9990 C   0  0  0  0  0  0  0  0  0  0  0  0
   36.3420   25.1990   38.9440 H   0  0  0  0  0  0  0  0  0  0  0  0
   36.8270   24.4060   40.9010 C   0  0  0  0  0  3  0  0  0  0  0  0
   37.1350   24.7780   42.1690 C   0  0  0  0  0  3  0  0  0  0  0  0
   37.0970   26.6760   42.0770 S   0  0  0  0  0  0  0  0  0  0  0  0
  1  6  1  0  0  0  0
  1 19  1  0  0  0  0
  2  1  2  0  0  0  0
  3  4  2  0  0  0  0
  3  2  1  0  0  0  0
  4  5  1  0  0  0  0
  5  9  1  0  0  0  0
  5  6  2  0  0  0  0
  7  2  1  0  0  0  0
  8  3  1  0  0  0  0
  9 14  1  0  0  0  0
 10  9  2  0  0  0  0
 10 11  1  0  0  0  0
 11 12  2  0  0  0  0
 12 17  1  0  0  0  0
 12 13  1  0  0  0  0
 13 18  1  0  0  0  0
 14 13  2  0  0  0  0
 15 10  1  0  0  0  0
 16 11  1  0  0  0  0
 19 24  1  0  0  0  0
 20 19  2  0  0  0  0
 20 22  1  0  0  0  0
 21 20  1  0  0  0  0
 22 23  2  0  0  0  0
 24 23  1  0  0  0  0
M  END
>  <minimizedAffinity>
-4.52042007

$$$$

 OpenBabel03252507273D

 24 26  0  0  0  0  0  0  0  0999 V2000
   37.5670   29.5340   40.0210 C   0  0  0  0  0  0  0  0  0  0  0  0
   36.6640   29.2820   38.9880 C   0  0  0  0  0  0  0  0  0  0  0  0
   36.8120   30.0320   37.8170 C   0  0  0  0  0  0  0  0  0  0  0  0
   37.8210   30.9550   37.7520 N   0  0  0  0  0  0  0  0  0  0  0  0
   38.6610   31.1570   38.7730 C   0  0  0  0  0  0  0  0  0  0  0  0
   38.5420   30.4500   39.9140 N   0  0  0  0  0  0  0  0  0  0  0  0
   35.8840   28.5660   39.0440 H   0  0  0  0  0  0  0  0  0  0  0  0
   36.1510   29.8900   36.9800 H   0  0  0  0  0  0  0  0  0  0  0  0
   39.7230   32.1560   38.6550 C   0  0  0  0  0  0  0  0  0  0  0  0
   40.6660   32.0380   37.6400 C   0  0  0  0  0  0  0  0  0  0  0  0
   41.7040   32.9290   37.4470 C   0  0  0  0  0  0  0  0  0  0  0  0
   41.7350   33.9810   38.3690 C   0  0  0  0  0  0  0  0  0  0  0  0
   40.7990   34.1070   39.3840 C   0  0  0  0  0  0  0  0  0  0  0  0
   39.8070   33.1850   39.5050 N   0  0  0  0  0  0  0  0  0  0  0  0
   40.5540   31.1860   36.9770 H   0  0  0  0  0  0  0  0  0  0  0  0
   42.3930   32.7850   36.6540 H   0  0  0  0  0  0  0  0  0  0  0  0
   42.5380   34.7120   38.2570 H   0  0  0  0  0  0  0  0  0  0  0  0
   40.8390   34.9280   40.0900 H   0  0  0  0  0  0  0  0  0  0  0  0
   37.4470   28.7630   41.2790 C   0  0  0  0  0  0  0  0  0  0  0  0
   36.5510   27.9020   41.7350 C   0  0  0  0  0  0  0  0  0  0  0  0
   35.7060   27.6950   41.0600 H   0  0  0  0  0  0  0  0  0  0  0  0
   36.7050   27.3420   42.9500 C   0  0  0  0  0  3  0  0  0  0  0  0
   37.7980   27.6920   43.6730 C   0  0  0  0  0  3  0  0  0  0  0  0
   38.6870   28.9240   42.5320 S   0  0  0  0  0  0  0  0  0  0  0  0
  1 19  1  0  0  0  0
  2  7  1  0  0  0  0
  2  1  2  0  0  0  0
  3  2  1  0  0  0  0
  4  3  2  0  0  0  0
  4  5  1  0  0  0  0
  5  6  2  0  0  0  0
  6  1  1  0  0  0  0
  8  3  1  0  0  0  0
  9  5  1  0  0  0  0
  9 14  1  0  0  0  0
 10  9  2  0  0  0  0
 11 10  1  0  0  0  0
 11 12  2  0  0  0  0
 12 13  1  0  0  0  0
 13 14  2  0  0  0  0
 13 18  1  0  0  0  0
 15 10  1  0  0  0  0
 16 11  1  0  0  0  0
 17 12  1  0  0  0  0
 19 20  2  0  0  0  0
 19 24  1  0  0  0  0
 20 22  1  0  0  0  0
 21 20  1  0  0  0  0
 22 23  2  0  0  0  0
 24 23  1  0  0  0  0
M  END
>  <minimizedAffinity>
-4.50699568

$$$$

 OpenBabel03252507273D

 24 26  0  0  0  0  0  0  0  0999 V2000
   38.0360   30.8410   40.8860 C   0  0  0  0  0  0  0  0  0  0  0  0
   36.6960   31.1580   40.6670 C   0  0  0  0  0  0  0  0  0  0  0  0
   35.7640   30.1280   40.8310 C   0  0  0  0  0  0  0  0  0  0  0  0
   36.2150   28.8870   41.1940 N   0  0  0  0  0  0  0  0  0  0  0  0
   37.5130   28.6370   41.3920 C   0  0  0  0  0  0  0  0  0  0  0  0
   38.4340   29.6090   41.2410 N   0  0  0  0  0  0  0  0  0  0  0  0
   36.3530   32.1210   40.3860 H   0  0  0  0  0  0  0  0  0  0  0  0
   34.7140   30.3010   40.6780 H   0  0  0  0  0  0  0  0  0  0  0  0
   37.9450   27.2940   41.7790 C   0  0  0  0  0  0  0  0  0  0  0  0
   37.0080   26.2690   41.8620 C   0  0  0  0  0  0  0  0  0  0  0  0
   37.3180   24.9710   42.2160 C   0  0  0  0  0  0  0  0  0  0  0  0
   38.6740   24.7600   42.4910 C   0  0  0  0  0  0  0  0  0  0  0  0
   39.6150   25.7740   42.4110 C   0  0  0  0  0  0  0  0  0  0  0  0
   39.2260   27.0280   42.0540 N   0  0  0  0  0  0  0  0  0  0  0  0
   35.9830   26.5360   41.6290 H   0  0  0  0  0  0  0  0  0  0  0  0
   36.5580   24.2320   42.2630 H   0  0  0  0  0  0  0  0  0  0  0  0
   38.9680   23.7480   42.7770 H   0  0  0  0  0  0  0  0  0  0  0  0
   40.6610   25.5930   42.6280 H   0  0  0  0  0  0  0  0  0  0  0  0
   39.0580   31.9010   40.7240 C   0  0  0  0  0  0  0  0  0  0  0  0
   39.0120   33.1440   40.2690 C   0  0  0  0  0  0  0  0  0  0  0  0
   38.0220   33.4900   39.9330 H   0  0  0  0  0  0  0  0  0  0  0  0
   40.1290   33.8950   40.2370 C   0  0  0  0  0  3  0  0  0  0  0  0
   41.2810   33.3350   40.6840 C   0  0  0  0  0  3  0  0  0  0  0  0
   40.7350   31.5880   41.1940 S   0  0  0  0  0  0  0  0  0  0  0  0
  1  6  1  0  0  0  0
  2  3  1  0  0  0  0
  2  1  2  0  0  0  0
  3  4  2  0  0  0  0
  4  5  1  0  0  0  0
  5  9  1  0  0  0  0
  6  5  2  0  0  0  0
  7  2  1  0  0  0  0
  8  3  1  0  0  0  0
  9 10  2  0  0  0  0
  9 14  1  0  0  0  0
 10 11  1  0  0  0  0
 11 16  1  0  0  0  0
 11 12  2  0  0  0  0
 12 17  1  0  0  0  0
 13 12  1  0  0  0  0
 13 18  1  0  0  0  0
 14 13  2  0  0  0  0
 15 10  1  0  0  0  0
 19  1  1  0  0  0  0
 19 24  1  0  0  0  0
 20 19  2  0  0  0  0
 21 20  1  0  0  0  0
 22 20  1  0  0  0  0
 22 23  2  0  0  0  0
 23 24  1  0  0  0  0
M  END
>  <minimizedAffinity>
-4.44345093

$$$$
