
 OpenBabel03252501433D

 42 45  0  0  0  0  0  0  0  0999 V2000
   38.0490   28.8030   42.3500 Cl  0  0  0  0  0  0  0  0  0  0  0  0
   37.0180   28.6590   40.9280 C   0  0  0  0  0  0  0  0  0  0  0  0
   36.3660   29.7490   40.3590 C   0  0  0  0  0  0  0  0  0  0  0  0
   35.5800   29.5830   39.2620 C   0  0  0  0  0  0  0  0  0  0  0  0
   35.3870   28.3600   38.6620 C   0  0  0  0  0  0  0  0  0  0  0  0
   36.0300   27.2410   39.2080 C   0  0  0  0  0  0  0  0  0  0  0  0
   35.8460   25.6400   38.5140 Cl  0  0  0  0  0  0  0  0  0  0  0  0
   36.8200   27.4400   40.3200 C   0  0  0  0  0  0  0  0  0  0  0  0
   35.0850   30.4480   38.8430 H   0  0  0  0  0  0  0  0  0  0  0  0
   34.7680   28.2460   37.8010 H   0  0  0  0  0  0  0  0  0  0  0  0
   39.3160   26.7620   39.4890 F   0  0  0  0  0  0  0  0  0  0  0  0
   38.7620   25.9730   40.4700 C   0  0  0  0  0  0  0  0  0  0  0  0
   37.5030   26.2900   40.9110 C   0  0  0  0  0  0  0  0  0  0  0  0
   36.9620   25.4690   41.9130 C   0  0  0  0  0  0  0  0  0  0  0  0
   37.7210   24.4060   42.3880 C   0  0  0  0  0  0  0  0  0  0  0  0
   39.0080   24.1400   41.8880 C   0  0  0  0  0  0  0  0  0  0  0  0
   39.5590   24.9360   40.9000 C   0  0  0  0  0  0  0  0  0  0  0  0
   35.9840   25.7110   42.2590 H   0  0  0  0  0  0  0  0  0  0  0  0
   37.3080   23.7720   43.1590 H   0  0  0  0  0  0  0  0  0  0  0  0
   39.5800   23.3040   42.2750 H   0  0  0  0  0  0  0  0  0  0  0  0
   40.5400   24.7630   40.4950 H   0  0  0  0  0  0  0  0  0  0  0  0
   36.5720   30.9920   40.9850 O   0  0  0  0  0  0  0  0  0  0  0  0
   37.5690   31.8230   40.4770 C   0  0  0  0  0  0  0  0  0  0  0  0
   37.5080   32.5360   39.4070 O   0  0  0  0  0  0  0  0  0  0  0  0
   38.8200   31.9560   41.1510 N   0  0  0  0  0  0  0  0  0  0  0  0
   39.0420   31.4730   42.0420 H   0  0  0  0  0  0  0  0  0  0  0  0
   39.6700   32.8490   40.3880 C   0  0  0  0  0  0  0  0  0  0  0  0
   39.6920   34.2040   40.4810 C   0  0  0  0  0  0  0  0  0  0  0  0
   40.5620   34.8990   39.6840 C   0  0  0  0  0  0  0  0  0  0  0  0
   41.3440   34.1830   38.8520 N   0  0  0  0  0  0  0  0  0  0  0  0
   41.3050   32.8350   38.7770 C   0  0  0  0  0  0  0  0  0  0  0  0
   40.4470   32.1280   39.5620 N   0  0  0  0  0  0  0  0  0  0  0  0
   40.5870   35.9740   39.7510 H   0  0  0  0  0  0  0  0  0  0  0  0
   42.1960   32.1020   37.8340 C   0  0  0  0  0  0  0  0  0  0  0  0
   41.9470   31.0520   37.0770 C   0  0  0  0  0  0  0  0  0  0  0  0
   40.9540   30.6130   37.1070 H   0  0  0  0  0  0  0  0  0  0  0  0
   42.8980   30.5080   36.2630 C   0  0  0  0  0  3  0  0  0  0  0  0
   44.1790   31.1970   36.3220 C   0  0  0  0  0  3  0  0  0  0  0  0
   43.8430   32.5580   37.5590 S   0  0  0  0  0  0  0  0  0  0  0  0
   38.7960   34.8060   41.4140 N   0  0  0  0  0  0  0  0  0  0  0  0
   38.3000   35.7090   41.3700 H   0  0  0  0  0  0  0  0  0  0  0  0
   38.5470   34.3250   42.3080 H   0  0  0  0  0  0  0  0  0  0  0  0
  2  1  1  0  0  0  0
  3  2  1  0  0  0  0
  3 22  1  0  0  0  0
  4  3  2  0  0  0  0
  5  6  2  0  0  0  0
  5  4  1  0  0  0  0
  6  8  1  0  0  0  0
  7  6  1  0  0  0  0
  8 13  1  0  0  0  0
  8  2  2  0  0  0  0
  9  4  1  0  0  0  0
 10  5  1  0  0  0  0
 11 12  1  0  0  0  0
 12 17  2  0  0  0  0
 12 13  1  0  0  0  0
 13 14  2  0  0  0  0
 14 18  1  0  0  0  0
 14 15  1  0  0  0  0
 15 19  1  0  0  0  0
 16 20  1  0  0  0  0
 16 15  2  0  0  0  0
 17 16  1  0  0  0  0
 21 17  1  0  0  0  0
 23 22  1  0  0  0  0
 23 25  1  0  0  0  0
 24 23  2  0  0  0  0
 25 26  1  0  0  0  0
 27 28  1  0  0  0  0
 27 25  1  0  0  0  0
 28 40  1  0  0  0  0
 29 33  1  0  0  0  0
 29 28  2  0  0  0  0
 30 29  1  0  0  0  0
 31 30  2  0  0  0  0
 31 32  1  0  0  0  0
 32 27  2  0  0  0  0
 34 31  1  0  0  0  0
 35 36  1  0  0  0  0
 35 34  2  0  0  0  0
 37 38  2  0  0  0  0
 37 35  1  0  0  0  0
 38 39  1  0  0  0  0
 39 34  1  0  0  0  0
 40 42  1  0  0  0  0
 41 40  1  0  0  0  0
M  END
>  <minimizedAffinity>
-6.92520618

$$$$

 OpenBabel03252501433D

 42 45  0  0  0  0  0  0  0  0999 V2000
   36.7320   27.6910   39.8460 Cl  0  0  0  0  0  0  0  0  0  0  0  0
   37.6360   27.4880   41.3450 C   0  0  0  0  0  0  0  0  0  0  0  0
   37.8210   28.5230   42.2580 C   0  0  0  0  0  0  0  0  0  0  0  0
   38.5280   28.3130   43.4000 C   0  0  0  0  0  0  0  0  0  0  0  0
   39.0900   27.0970   43.7150 C   0  0  0  0  0  0  0  0  0  0  0  0
   38.9230   26.0330   42.8200 C   0  0  0  0  0  0  0  0  0  0  0  0
   39.6000   24.4460   43.1340 Cl  0  0  0  0  0  0  0  0  0  0  0  0
   38.2010   26.2760   41.6700 C   0  0  0  0  0  0  0  0  0  0  0  0
   38.6560   29.1360   44.0890 H   0  0  0  0  0  0  0  0  0  0  0  0
   39.6420   26.9480   44.6160 H   0  0  0  0  0  0  0  0  0  0  0  0
   36.1860   24.4890   42.0300 F   0  0  0  0  0  0  0  0  0  0  0  0
   36.9840   24.2970   40.9260 C   0  0  0  0  0  0  0  0  0  0  0  0
   38.0100   25.1830   40.7170 C   0  0  0  0  0  0  0  0  0  0  0  0
   38.8090   24.9650   39.5830 C   0  0  0  0  0  0  0  0  0  0  0  0
   38.5160   23.8860   38.7580 C   0  0  0  0  0  0  0  0  0  0  0  0
   37.4460   23.0160   39.0350 C   0  0  0  0  0  0  0  0  0  0  0  0
   36.6480   23.2130   40.1470 C   0  0  0  0  0  0  0  0  0  0  0  0
   39.6070   25.6500   39.4160 H   0  0  0  0  0  0  0  0  0  0  0  0
   39.1290   23.7150   37.8850 H   0  0  0  0  0  0  0  0  0  0  0  0
   37.2390   22.1810   38.3750 H   0  0  0  0  0  0  0  0  0  0  0  0
   35.8210   22.5700   40.3900 H   0  0  0  0  0  0  0  0  0  0  0  0
   37.2420   29.7590   41.9200 O   0  0  0  0  0  0  0  0  0  0  0  0
   37.9840   30.6370   41.1330 C   0  0  0  0  0  0  0  0  0  0  0  0
   37.6390   31.1340   39.9960 O   0  0  0  0  0  0  0  0  0  0  0  0
   39.2730   31.0810   41.5540 N   0  0  0  0  0  0  0  0  0  0  0  0
   39.7060   30.8020   42.4540 H   0  0  0  0  0  0  0  0  0  0  0  0
   39.8240   31.9520   40.5340 C   0  0  0  0  0  0  0  0  0  0  0  0
   39.6560   33.2980   40.4560 C   0  0  0  0  0  0  0  0  0  0  0  0
   40.2510   33.9720   39.4230 C   0  0  0  0  0  0  0  0  0  0  0  0
   40.9710   33.2450   38.5450 N   0  0  0  0  0  0  0  0  0  0  0  0
   41.1260   31.9070   38.6440 C   0  0  0  0  0  0  0  0  0  0  0  0
   40.5410   31.2210   39.6640 N   0  0  0  0  0  0  0  0  0  0  0  0
   40.1230   35.0390   39.3530 H   0  0  0  0  0  0  0  0  0  0  0  0
   41.9330   31.1610   37.6380 C   0  0  0  0  0  0  0  0  0  0  0  0
   41.7060   29.9960   37.0650 C   0  0  0  0  0  0  0  0  0  0  0  0
   40.8050   29.4520   37.3310 H   0  0  0  0  0  0  0  0  0  0  0  0
   42.5690   29.4610   36.1530 C   0  0  0  0  0  3  0  0  0  0  0  0
   43.7320   30.2960   35.8910 C   0  0  0  0  0  3  0  0  0  0  0  0
   43.4290   31.7640   37.0070 S   0  0  0  0  0  0  0  0  0  0  0  0
   38.8610   33.9130   41.4690 N   0  0  0  0  0  0  0  0  0  0  0  0
   38.2330   34.7290   41.4150 H   0  0  0  0  0  0  0  0  0  0  0  0
   38.8530   33.5430   42.4460 H   0  0  0  0  0  0  0  0  0  0  0  0
  1  2  1  0  0  0  0
  2  8  2  0  0  0  0
  2  3  1  0  0  0  0
  3  4  2  0  0  0  0
  4  5  1  0  0  0  0
  4  9  1  0  0  0  0
  5 10  1  0  0  0  0
  6  7  1  0  0  0  0
  6  5  2  0  0  0  0
  8  6  1  0  0  0  0
 12 11  1  0  0  0  0
 13 12  1  0  0  0  0
 13  8  1  0  0  0  0
 14 13  2  0  0  0  0
 15 16  2  0  0  0  0
 15 14  1  0  0  0  0
 16 17  1  0  0  0  0
 17 21  1  0  0  0  0
 17 12  2  0  0  0  0
 18 14  1  0  0  0  0
 19 15  1  0  0  0  0
 20 16  1  0  0  0  0
 22  3  1  0  0  0  0
 23 25  1  0  0  0  0
 23 22  1  0  0  0  0
 24 23  2  0  0  0  0
 25 26  1  0  0  0  0
 27 25  1  0  0  0  0
 28 27  1  0  0  0  0
 28 40  1  0  0  0  0
 29 28  2  0  0  0  0
 30 31  2  0  0  0  0
 30 29  1  0  0  0  0
 31 32  1  0  0  0  0
 32 27  2  0  0  0  0
 33 29  1  0  0  0  0
 34 31  1  0  0  0  0
 35 36  1  0  0  0  0
 35 34  2  0  0  0  0
 37 35  1  0  0  0  0
 38 37  2  0  0  0  0
 38 39  1  0  0  0  0
 39 34  1  0  0  0  0
 40 42  1  0  0  0  0
 41 40  1  0  0  0  0
M  END
>  <minimizedAffinity>
-6.83108377

$$$$

 OpenBabel03252501433D

 42 45  0  0  0  0  0  0  0  0999 V2000
   37.3020   27.8770   39.2940 Cl  0  0  0  0  0  0  0  0  0  0  0  0
   38.2380   28.2300   40.7450 C   0  0  0  0  0  0  0  0  0  0  0  0
   38.6410   29.5200   41.0830 C   0  0  0  0  0  0  0  0  0  0  0  0
   39.3640   29.7380   42.2150 C   0  0  0  0  0  0  0  0  0  0  0  0
   39.7300   28.7260   43.0710 C   0  0  0  0  0  0  0  0  0  0  0  0
   39.3400   27.4170   42.7620 C   0  0  0  0  0  0  0  0  0  0  0  0
   39.7580   26.0600   43.7930 Cl  0  0  0  0  0  0  0  0  0  0  0  0
   38.6090   27.2250   41.6090 C   0  0  0  0  0  0  0  0  0  0  0  0
   39.6630   30.7490   42.4510 H   0  0  0  0  0  0  0  0  0  0  0  0
   40.2960   28.9130   43.9560 H   0  0  0  0  0  0  0  0  0  0  0  0
   40.2190   25.6420   40.0990 F   0  0  0  0  0  0  0  0  0  0  0  0
   39.0220   25.0940   40.4970 C   0  0  0  0  0  0  0  0  0  0  0  0
   38.1870   25.8690   41.2610 C   0  0  0  0  0  0  0  0  0  0  0  0
   36.9720   25.2860   41.6550 C   0  0  0  0  0  0  0  0  0  0  0  0
   36.6950   23.9840   41.2550 C   0  0  0  0  0  0  0  0  0  0  0  0
   37.6000   23.2480   40.4700 C   0  0  0  0  0  0  0  0  0  0  0  0
   38.8020   23.8040   40.0710 C   0  0  0  0  0  0  0  0  0  0  0  0
   36.3200   25.8840   42.2480 H   0  0  0  0  0  0  0  0  0  0  0  0
   35.7610   23.5330   41.5560 H   0  0  0  0  0  0  0  0  0  0  0  0
   37.3600   22.2340   40.1700 H   0  0  0  0  0  0  0  0  0  0  0  0
   39.5180   23.2710   39.4710 H   0  0  0  0  0  0  0  0  0  0  0  0
   38.2600   30.5420   40.1970 O   0  0  0  0  0  0  0  0  0  0  0  0
   39.2260   31.4690   39.8120 C   0  0  0  0  0  0  0  0  0  0  0  0
   39.1200   32.7520   39.8420 O   0  0  0  0  0  0  0  0  0  0  0  0
   40.4940   31.0380   39.3190 N   0  0  0  0  0  0  0  0  0  0  0  0
   40.7680   30.0400   39.2450 H   0  0  0  0  0  0  0  0  0  0  0  0
   41.2810   32.2040   38.9670 C   0  0  0  0  0  0  0  0  0  0  0  0
   41.2340   32.8710   37.7850 C   0  0  0  0  0  0  0  0  0  0  0  0
   42.0490   33.9600   37.6170 C   0  0  0  0  0  0  0  0  0  0  0  0
   42.8480   34.2980   38.6490 N   0  0  0  0  0  0  0  0  0  0  0  0
   42.8770   33.6190   39.8160 C   0  0  0  0  0  0  0  0  0  0  0  0
   42.0750   32.5350   39.9990 N   0  0  0  0  0  0  0  0  0  0  0  0
   42.0190   34.4950   36.6830 H   0  0  0  0  0  0  0  0  0  0  0  0
   43.7860   34.0430   40.9170 C   0  0  0  0  0  0  0  0  0  0  0  0
   43.5490   34.1810   42.2060 C   0  0  0  0  0  0  0  0  0  0  0  0
   42.5510   33.9650   42.5770 H   0  0  0  0  0  0  0  0  0  0  0  0
   44.5180   34.5850   43.0780 C   0  0  0  0  0  3  0  0  0  0  0  0
   45.8040   34.8380   42.4450 C   0  0  0  0  0  3  0  0  0  0  0  0
   45.4470   34.4560   40.6510 S   0  0  0  0  0  0  0  0  0  0  0  0
   40.3310   32.3810   36.7960 N   0  0  0  0  0  0  0  0  0  0  0  0
   40.4100   32.3750   35.7680 H   0  0  0  0  0  0  0  0  0  0  0  0
   39.4230   31.9400   37.0680 H   0  0  0  0  0  0  0  0  0  0  0  0
  1  2  1  0  0  0  0
  2  3  2  0  0  0  0
  2  8  1  0  0  0  0
  3  4  1  0  0  0  0
  4  9  1  0  0  0  0
  4  5  2  0  0  0  0
  5 10  1  0  0  0  0
  6  5  1  0  0  0  0
  6  7  1  0  0  0  0
  8  6  2  0  0  0  0
 11 12  1  0  0  0  0
 12 13  1  0  0  0  0
 13  8  1  0  0  0  0
 13 14  2  0  0  0  0
 14 18  1  0  0  0  0
 15 19  1  0  0  0  0
 15 14  1  0  0  0  0
 16 15  2  0  0  0  0
 17 16  1  0  0  0  0
 17 12  2  0  0  0  0
 20 16  1  0  0  0  0
 21 17  1  0  0  0  0
 22  3  1  0  0  0  0
 23 24  2  0  0  0  0
 23 22  1  0  0  0  0
 25 23  1  0  0  0  0
 26 25  1  0  0  0  0
 27 25  1  0  0  0  0
 27 32  1  0  0  0  0
 28 27  2  0  0  0  0
 29 28  1  0  0  0  0
 29 30  2  0  0  0  0
 30 31  1  0  0  0  0
 31 32  2  0  0  0  0
 31 34  1  0  0  0  0
 33 29  1  0  0  0  0
 34 35  2  0  0  0  0
 35 36  1  0  0  0  0
 35 37  1  0  0  0  0
 38 37  2  0  0  0  0
 39 34  1  0  0  0  0
 39 38  1  0  0  0  0
 40 42  1  0  0  0  0
 40 28  1  0  0  0  0
 41 40  1  0  0  0  0
M  END
>  <minimizedAffinity>
-6.65248775

$$$$

 OpenBabel03252501433D

 42 45  0  0  0  0  0  0  0  0999 V2000
   36.1020   29.9410   38.1420 Cl  0  0  0  0  0  0  0  0  0  0  0  0
   36.4210   29.0870   39.6510 C   0  0  0  0  0  0  0  0  0  0  0  0
   36.5150   29.7380   40.8780 C   0  0  0  0  0  0  0  0  0  0  0  0
   36.7640   29.0320   42.0130 C   0  0  0  0  0  0  0  0  0  0  0  0
   36.9320   27.6670   42.0180 C   0  0  0  0  0  0  0  0  0  0  0  0
   36.8420   26.9780   40.8020 C   0  0  0  0  0  0  0  0  0  0  0  0
   37.0420   25.2380   40.7070 Cl  0  0  0  0  0  0  0  0  0  0  0  0
   36.5900   27.7210   39.6670 C   0  0  0  0  0  0  0  0  0  0  0  0
   36.8330   29.5650   42.9500 H   0  0  0  0  0  0  0  0  0  0  0  0
   37.1260   27.1260   42.9180 H   0  0  0  0  0  0  0  0  0  0  0  0
   38.8050   27.3670   38.1330 F   0  0  0  0  0  0  0  0  0  0  0  0
   37.6260   26.8670   37.6310 C   0  0  0  0  0  0  0  0  0  0  0  0
   36.4900   27.0290   38.3820 C   0  0  0  0  0  0  0  0  0  0  0  0
   35.3010   26.5090   37.8470 C   0  0  0  0  0  0  0  0  0  0  0  0
   35.3470   25.8730   36.6130 C   0  0  0  0  0  0  0  0  0  0  0  0
   36.5500   25.7420   35.8960 C   0  0  0  0  0  0  0  0  0  0  0  0
   37.7320   26.2490   36.4060 C   0  0  0  0  0  0  0  0  0  0  0  0
   34.4160   26.6330   38.4270 H   0  0  0  0  0  0  0  0  0  0  0  0
   34.4340   25.4710   36.1980 H   0  0  0  0  0  0  0  0  0  0  0  0
   36.5590   25.2410   34.9350 H   0  0  0  0  0  0  0  0  0  0  0  0
   38.6700   26.1670   35.8870 H   0  0  0  0  0  0  0  0  0  0  0  0
   36.3420   31.1340   40.8550 O   0  0  0  0  0  0  0  0  0  0  0  0
   37.3970   31.9170   40.3920 C   0  0  0  0  0  0  0  0  0  0  0  0
   37.3810   32.7150   39.3820 O   0  0  0  0  0  0  0  0  0  0  0  0
   38.6650   31.8930   41.0480 N   0  0  0  0  0  0  0  0  0  0  0  0
   38.8580   31.3260   41.8950 H   0  0  0  0  0  0  0  0  0  0  0  0
   39.5750   32.7710   40.3390 C   0  0  0  0  0  0  0  0  0  0  0  0
   39.6590   34.1190   40.4820 C   0  0  0  0  0  0  0  0  0  0  0  0
   40.5810   34.7990   39.7320 C   0  0  0  0  0  0  0  0  0  0  0  0
   41.3510   34.0750   38.8950 N   0  0  0  0  0  0  0  0  0  0  0  0
   41.2510   32.7340   38.7700 C   0  0  0  0  0  0  0  0  0  0  0  0
   40.3400   32.0430   39.5080 N   0  0  0  0  0  0  0  0  0  0  0  0
   40.6550   35.8680   39.8380 H   0  0  0  0  0  0  0  0  0  0  0  0
   42.1300   31.9930   37.8240 C   0  0  0  0  0  0  0  0  0  0  0  0
   41.8630   30.9590   37.0520 C   0  0  0  0  0  0  0  0  0  0  0  0
   40.8600   30.5410   37.0710 H   0  0  0  0  0  0  0  0  0  0  0  0
   42.8070   30.4030   36.2380 C   0  0  0  0  0  3  0  0  0  0  0  0
   44.1030   31.0610   36.3140 C   0  0  0  0  0  3  0  0  0  0  0  0
   43.7900   32.4140   37.5650 S   0  0  0  0  0  0  0  0  0  0  0  0
   38.7680   34.7310   41.4130 N   0  0  0  0  0  0  0  0  0  0  0  0
   38.3160   35.6570   41.3890 H   0  0  0  0  0  0  0  0  0  0  0  0
   38.4720   34.2320   42.2830 H   0  0  0  0  0  0  0  0  0  0  0  0
  1  2  1  0  0  0  0
  2  8  2  0  0  0  0
  2  3  1  0  0  0  0
  3  4  2  0  0  0  0
  4  5  1  0  0  0  0
  4  9  1  0  0  0  0
  5 10  1  0  0  0  0
  6  5  2  0  0  0  0
  7  6  1  0  0  0  0
  8  6  1  0  0  0  0
 12 11  1  0  0  0  0
 12 13  1  0  0  0  0
 13  8  1  0  0  0  0
 14 13  2  0  0  0  0
 14 18  1  0  0  0  0
 15 14  1  0  0  0  0
 16 17  1  0  0  0  0
 16 15  2  0  0  0  0
 17 12  2  0  0  0  0
 19 15  1  0  0  0  0
 20 16  1  0  0  0  0
 21 17  1  0  0  0  0
 22  3  1  0  0  0  0
 23 22  1  0  0  0  0
 23 25  1  0  0  0  0
 24 23  2  0  0  0  0
 25 26  1  0  0  0  0
 27 28  1  0  0  0  0
 27 25  1  0  0  0  0
 28 40  1  0  0  0  0
 29 33  1  0  0  0  0
 29 28  2  0  0  0  0
 30 29  1  0  0  0  0
 31 30  2  0  0  0  0
 31 32  1  0  0  0  0
 32 27  2  0  0  0  0
 34 31  1  0  0  0  0
 35 36  1  0  0  0  0
 35 34  2  0  0  0  0
 37 38  2  0  0  0  0
 37 35  1  0  0  0  0
 38 39  1  0  0  0  0
 39 34  1  0  0  0  0
 40 42  1  0  0  0  0
 41 40  1  0  0  0  0
M  END
>  <minimizedAffinity>
-6.4978199

$$$$

 OpenBabel03252501433D

 42 45  0  0  0  0  0  0  0  0999 V2000
   36.5600   27.6530   40.0080 Cl  0  0  0  0  0  0  0  0  0  0  0  0
   37.5790   27.3900   41.4220 C   0  0  0  0  0  0  0  0  0  0  0  0
   37.9320   28.4160   42.2950 C   0  0  0  0  0  0  0  0  0  0  0  0
   38.7230   28.1590   43.3710 C   0  0  0  0  0  0  0  0  0  0  0  0
   39.2070   26.9040   43.6570 C   0  0  0  0  0  0  0  0  0  0  0  0
   38.8700   25.8480   42.8010 C   0  0  0  0  0  0  0  0  0  0  0  0
   39.4380   24.2120   43.0820 Cl  0  0  0  0  0  0  0  0  0  0  0  0
   38.0670   26.1380   41.7170 C   0  0  0  0  0  0  0  0  0  0  0  0
   38.9810   28.9760   44.0300 H   0  0  0  0  0  0  0  0  0  0  0  0
   39.8260   26.7180   44.5060 H   0  0  0  0  0  0  0  0  0  0  0  0
   39.6500   25.5460   39.5900 F   0  0  0  0  0  0  0  0  0  0  0  0
   38.5170   24.7810   39.7410 C   0  0  0  0  0  0  0  0  0  0  0  0
   37.6980   25.0550   40.8060 C   0  0  0  0  0  0  0  0  0  0  0  0
   36.5490   24.2590   40.9380 C   0  0  0  0  0  0  0  0  0  0  0  0
   36.3170   23.2610   40.0000 C   0  0  0  0  0  0  0  0  0  0  0  0
   37.2030   23.0350   38.9310 C   0  0  0  0  0  0  0  0  0  0  0  0
   38.3400   23.8090   38.7830 C   0  0  0  0  0  0  0  0  0  0  0  0
   35.9090   24.4690   41.7640 H   0  0  0  0  0  0  0  0  0  0  0  0
   35.4340   22.6470   40.0990 H   0  0  0  0  0  0  0  0  0  0  0  0
   36.9980   22.2500   38.2120 H   0  0  0  0  0  0  0  0  0  0  0  0
   39.0390   23.6650   37.9790 H   0  0  0  0  0  0  0  0  0  0  0  0
   37.4300   29.6930   41.9880 O   0  0  0  0  0  0  0  0  0  0  0  0
   38.2940   30.6120   41.3950 C   0  0  0  0  0  0  0  0  0  0  0  0
   39.3190   31.1700   41.9400 O   0  0  0  0  0  0  0  0  0  0  0  0
   38.0950   31.0340   40.0470 N   0  0  0  0  0  0  0  0  0  0  0  0
   37.3320   30.6740   39.4430 H   0  0  0  0  0  0  0  0  0  0  0  0
   39.1130   32.0090   39.7060 C   0  0  0  0  0  0  0  0  0  0  0  0
   39.0820   33.3340   40.0030 C   0  0  0  0  0  0  0  0  0  0  0  0
   40.1330   34.1170   39.6060 C   0  0  0  0  0  0  0  0  0  0  0  0
   41.1370   33.5120   38.9410 N   0  0  0  0  0  0  0  0  0  0  0  0
   41.1470   32.1910   38.6570 C   0  0  0  0  0  0  0  0  0  0  0  0
   40.1110   31.3980   39.0440 N   0  0  0  0  0  0  0  0  0  0  0  0
   40.1170   35.1680   39.8370 H   0  0  0  0  0  0  0  0  0  0  0  0
   42.2870   31.5840   37.9150 C   0  0  0  0  0  0  0  0  0  0  0  0
   42.3530   31.1490   36.6720 C   0  0  0  0  0  0  0  0  0  0  0  0
   41.4670   31.2200   36.0480 H   0  0  0  0  0  0  0  0  0  0  0  0
   43.4980   30.6150   36.1550 C   0  0  0  0  0  3  0  0  0  0  0  0
   44.6040   30.5810   37.1000 C   0  0  0  0  0  3  0  0  0  0  0  0
   43.8430   31.3340   38.6320 S   0  0  0  0  0  0  0  0  0  0  0  0
   37.9430   33.8140   40.7140 N   0  0  0  0  0  0  0  0  0  0  0  0
   37.4640   34.7250   40.6630 H   0  0  0  0  0  0  0  0  0  0  0  0
   37.4520   33.2130   41.4150 H   0  0  0  0  0  0  0  0  0  0  0  0
  1  2  1  0  0  0  0
  2  8  2  0  0  0  0
  2  3  1  0  0  0  0
  3  4  2  0  0  0  0
  4  5  1  0  0  0  0
  4  9  1  0  0  0  0
  5 10  1  0  0  0  0
  6  7  1  0  0  0  0
  6  5  2  0  0  0  0
  8  6  1  0  0  0  0
 11 12  1  0  0  0  0
 12 13  1  0  0  0  0
 13 14  2  0  0  0  0
 13  8  1  0  0  0  0
 14 18  1  0  0  0  0
 15 19  1  0  0  0  0
 15 14  1  0  0  0  0
 16 15  2  0  0  0  0
 17 16  1  0  0  0  0
 17 12  2  0  0  0  0
 20 16  1  0  0  0  0
 21 17  1  0  0  0  0
 22  3  1  0  0  0  0
 23 24  2  0  0  0  0
 23 22  1  0  0  0  0
 25 23  1  0  0  0  0
 26 25  1  0  0  0  0
 27 28  1  0  0  0  0
 27 25  1  0  0  0  0
 28 40  1  0  0  0  0
 29 33  1  0  0  0  0
 29 28  2  0  0  0  0
 30 29  1  0  0  0  0
 31 30  2  0  0  0  0
 31 32  1  0  0  0  0
 32 27  2  0  0  0  0
 34 39  1  0  0  0  0
 34 31  1  0  0  0  0
 35 34  2  0  0  0  0
 36 35  1  0  0  0  0
 37 35  1  0  0  0  0
 37 38  2  0  0  0  0
 38 39  1  0  0  0  0
 40 42  1  0  0  0  0
 41 40  1  0  0  0  0
M  END
>  <minimizedAffinity>
-6.49393988

$$$$

 OpenBabel03252501433D

 42 45  0  0  0  0  0  0  0  0999 V2000
   40.0820   27.3110   40.1460 Cl  0  0  0  0  0  0  0  0  0  0  0  0
   38.8430   28.1380   39.2060 C   0  0  0  0  0  0  0  0  0  0  0  0
   38.9980   28.4370   37.8550 C   0  0  0  0  0  0  0  0  0  0  0  0
   38.0090   29.0780   37.1750 C   0  0  0  0  0  0  0  0  0  0  0  0
   36.8270   29.4610   37.7660 C   0  0  0  0  0  0  0  0  0  0  0  0
   36.6370   29.1750   39.1240 C   0  0  0  0  0  0  0  0  0  0  0  0
   35.1630   29.6220   39.9650 Cl  0  0  0  0  0  0  0  0  0  0  0  0
   37.6560   28.5240   39.7870 C   0  0  0  0  0  0  0  0  0  0  0  0
   38.1590   29.2970   36.1280 H   0  0  0  0  0  0  0  0  0  0  0  0
   36.0600   29.9630   37.2200 H   0  0  0  0  0  0  0  0  0  0  0  0
   38.3620   30.3430   41.6780 F   0  0  0  0  0  0  0  0  0  0  0  0
   37.8510   29.1500   42.1360 C   0  0  0  0  0  0  0  0  0  0  0  0
   37.4850   28.2120   41.2060 C   0  0  0  0  0  0  0  0  0  0  0  0
   36.9660   27.0050   41.6990 C   0  0  0  0  0  0  0  0  0  0  0  0
   36.8560   26.8380   43.0750 C   0  0  0  0  0  0  0  0  0  0  0  0
   37.2520   27.8460   43.9720 C   0  0  0  0  0  0  0  0  0  0  0  0
   37.7670   29.0420   43.5060 C   0  0  0  0  0  0  0  0  0  0  0  0
   36.6800   26.2730   40.9800 H   0  0  0  0  0  0  0  0  0  0  0  0
   36.4570   25.9100   43.4580 H   0  0  0  0  0  0  0  0  0  0  0  0
   37.1570   27.6910   45.0410 H   0  0  0  0  0  0  0  0  0  0  0  0
   38.0790   29.8350   44.1620 H   0  0  0  0  0  0  0  0  0  0  0  0
   40.2120   28.0400   37.2670 O   0  0  0  0  0  0  0  0  0  0  0  0
   41.2890   28.9210   37.3310 C   0  0  0  0  0  0  0  0  0  0  0  0
   42.4020   28.7360   37.9500 O   0  0  0  0  0  0  0  0  0  0  0  0
   41.2370   30.1850   36.6690 N   0  0  0  0  0  0  0  0  0  0  0  0
   40.4280   30.4990   36.1010 H   0  0  0  0  0  0  0  0  0  0  0  0
   42.4700   30.9020   36.9310 C   0  0  0  0  0  0  0  0  0  0  0  0
   43.6210   30.7990   36.2160 C   0  0  0  0  0  0  0  0  0  0  0  0
   44.6980   31.5530   36.6010 C   0  0  0  0  0  0  0  0  0  0  0  0
   44.5400   32.3530   37.6740 N   0  0  0  0  0  0  0  0  0  0  0  0
   43.3850   32.4390   38.3690 C   0  0  0  0  0  0  0  0  0  0  0  0
   42.3050   31.6970   38.0010 N   0  0  0  0  0  0  0  0  0  0  0  0
   45.6140   31.4780   36.0400 H   0  0  0  0  0  0  0  0  0  0  0  0
   43.2770   33.3420   39.5500 C   0  0  0  0  0  0  0  0  0  0  0  0
   42.2950   34.1400   39.9170 C   0  0  0  0  0  0  0  0  0  0  0  0
   41.4030   34.1870   39.3000 H   0  0  0  0  0  0  0  0  0  0  0  0
   42.3720   34.9050   41.0450 C   0  0  0  0  0  3  0  0  0  0  0  0
   43.6210   34.7440   41.7750 C   0  0  0  0  0  3  0  0  0  0  0  0
   44.5360   33.4950   40.7280 S   0  0  0  0  0  0  0  0  0  0  0  0
   43.6190   29.9030   35.1060 N   0  0  0  0  0  0  0  0  0  0  0  0
   44.3780   29.3210   34.7220 H   0  0  0  0  0  0  0  0  0  0  0  0
   42.7540   29.7510   34.5390 H   0  0  0  0  0  0  0  0  0  0  0  0
  2  8  1  0  0  0  0
  2  1  1  0  0  0  0
  3  2  2  0  0  0  0
  4  5  2  0  0  0  0
  4  3  1  0  0  0  0
  5  6  1  0  0  0  0
  6  8  2  0  0  0  0
  6  7  1  0  0  0  0
  8 13  1  0  0  0  0
  9  4  1  0  0  0  0
 10  5  1  0  0  0  0
 11 12  1  0  0  0  0
 12 17  1  0  0  0  0
 13 14  1  0  0  0  0
 13 12  2  0  0  0  0
 14 15  2  0  0  0  0
 15 19  1  0  0  0  0
 15 16  1  0  0  0  0
 16 20  1  0  0  0  0
 17 16  2  0  0  0  0
 17 21  1  0  0  0  0
 18 14  1  0  0  0  0
 22 23  1  0  0  0  0
 22  3  1  0  0  0  0
 23 24  2  0  0  0  0
 25 27  1  0  0  0  0
 25 23  1  0  0  0  0
 26 25  1  0  0  0  0
 27 32  1  0  0  0  0
 28 29  1  0  0  0  0
 28 27  2  0  0  0  0
 29 30  2  0  0  0  0
 30 31  1  0  0  0  0
 31 34  1  0  0  0  0
 32 31  2  0  0  0  0
 33 29  1  0  0  0  0
 34 35  2  0  0  0  0
 34 39  1  0  0  0  0
 35 37  1  0  0  0  0
 36 35  1  0  0  0  0
 37 38  2  0  0  0  0
 39 38  1  0  0  0  0
 40 28  1  0  0  0  0
 41 40  1  0  0  0  0
 42 40  1  0  0  0  0
M  END
>  <minimizedAffinity>
-6.36295462

$$$$

 OpenBabel03252501433D

 42 45  0  0  0  0  0  0  0  0999 V2000
   37.5120   29.5250   36.0570 Cl  0  0  0  0  0  0  0  0  0  0  0  0
   37.2910   30.1220   37.7000 C   0  0  0  0  0  0  0  0  0  0  0  0
   37.9680   31.2330   38.1930 C   0  0  0  0  0  0  0  0  0  0  0  0
   37.7610   31.6530   39.4710 C   0  0  0  0  0  0  0  0  0  0  0  0
   36.8930   31.0210   40.3300 C   0  0  0  0  0  0  0  0  0  0  0  0
   36.1930   29.9000   39.8660 C   0  0  0  0  0  0  0  0  0  0  0  0
   35.0630   29.0280   40.8860 Cl  0  0  0  0  0  0  0  0  0  0  0  0
   36.4230   29.4980   38.5670 C   0  0  0  0  0  0  0  0  0  0  0  0
   38.3020   32.5180   39.8260 H   0  0  0  0  0  0  0  0  0  0  0  0
   36.7400   31.3620   41.3290 H   0  0  0  0  0  0  0  0  0  0  0  0
   37.4830   27.0120   38.8520 F   0  0  0  0  0  0  0  0  0  0  0  0
   36.2670   27.0890   38.2140 C   0  0  0  0  0  0  0  0  0  0  0  0
   35.7060   28.3300   38.0550 C   0  0  0  0  0  0  0  0  0  0  0  0
   34.4640   28.3810   37.4020 C   0  0  0  0  0  0  0  0  0  0  0  0
   33.8910   27.1930   36.9640 C   0  0  0  0  0  0  0  0  0  0  0  0
   34.5250   25.9530   37.1620 C   0  0  0  0  0  0  0  0  0  0  0  0
   35.7490   25.8820   37.8030 C   0  0  0  0  0  0  0  0  0  0  0  0
   34.0240   29.3430   37.2760 H   0  0  0  0  0  0  0  0  0  0  0  0
   32.9360   27.2280   36.4610 H   0  0  0  0  0  0  0  0  0  0  0  0
   34.0570   25.0410   36.8100 H   0  0  0  0  0  0  0  0  0  0  0  0
   36.2630   24.9530   37.9710 H   0  0  0  0  0  0  0  0  0  0  0  0
   38.8530   31.8670   37.3030 O   0  0  0  0  0  0  0  0  0  0  0  0
   40.1460   32.1390   37.7470 C   0  0  0  0  0  0  0  0  0  0  0  0
   41.1500   31.3330   37.7400 O   0  0  0  0  0  0  0  0  0  0  0  0
   40.4780   33.4200   38.2810 N   0  0  0  0  0  0  0  0  0  0  0  0
   39.8020   34.2040   38.3440 H   0  0  0  0  0  0  0  0  0  0  0  0
   41.8690   33.4100   38.6900 C   0  0  0  0  0  0  0  0  0  0  0  0
   42.9240   33.8380   37.9480 C   0  0  0  0  0  0  0  0  0  0  0  0
   44.1790   33.7580   38.4910 C   0  0  0  0  0  0  0  0  0  0  0  0
   44.2820   33.2560   39.7370 N   0  0  0  0  0  0  0  0  0  0  0  0
   43.2190   32.8370   40.4570 C   0  0  0  0  0  0  0  0  0  0  0  0
   41.9640   32.9080   39.9330 N   0  0  0  0  0  0  0  0  0  0  0  0
   45.0200   34.0950   37.9100 H   0  0  0  0  0  0  0  0  0  0  0  0
   43.4010   32.2880   41.8300 C   0  0  0  0  0  0  0  0  0  0  0  0
   42.5890   31.5530   42.5620 C   0  0  0  0  0  0  0  0  0  0  0  0
   41.6240   31.2750   42.1500 H   0  0  0  0  0  0  0  0  0  0  0  0
   42.9290   31.1360   43.8170 C   0  0  0  0  0  3  0  0  0  0  0  0
   44.2490   31.5800   44.2420 C   0  0  0  0  0  3  0  0  0  0  0  0
   44.8380   32.5540   42.7590 S   0  0  0  0  0  0  0  0  0  0  0  0
   42.6390   34.3420   36.6450 N   0  0  0  0  0  0  0  0  0  0  0  0
   43.1950   34.2930   35.7780 H   0  0  0  0  0  0  0  0  0  0  0  0
   41.7490   34.8540   36.4480 H   0  0  0  0  0  0  0  0  0  0  0  0
  1  2  1  0  0  0  0
  2  3  2  0  0  0  0
  2  8  1  0  0  0  0
  3  4  1  0  0  0  0
  4  9  1  0  0  0  0
  4  5  2  0  0  0  0
  5 10  1  0  0  0  0
  6  5  1  0  0  0  0
  6  7  1  0  0  0  0
  8  6  2  0  0  0  0
 12 11  1  0  0  0  0
 13 12  1  0  0  0  0
 13  8  1  0  0  0  0
 14 13  2  0  0  0  0
 15 16  2  0  0  0  0
 15 14  1  0  0  0  0
 16 17  1  0  0  0  0
 17 21  1  0  0  0  0
 17 12  2  0  0  0  0
 18 14  1  0  0  0  0
 19 15  1  0  0  0  0
 20 16  1  0  0  0  0
 22 23  1  0  0  0  0
 22  3  1  0  0  0  0
 23 25  1  0  0  0  0
 24 23  2  0  0  0  0
 25 26  1  0  0  0  0
 25 27  1  0  0  0  0
 27 32  1  0  0  0  0
 28 29  1  0  0  0  0
 28 27  2  0  0  0  0
 29 30  2  0  0  0  0
 30 31  1  0  0  0  0
 31 34  1  0  0  0  0
 32 31  2  0  0  0  0
 33 29  1  0  0  0  0
 34 35  2  0  0  0  0
 34 39  1  0  0  0  0
 35 37  1  0  0  0  0
 36 35  1  0  0  0  0
 37 38  2  0  0  0  0
 39 38  1  0  0  0  0
 40 28  1  0  0  0  0
 41 40  1  0  0  0  0
 42 40  1  0  0  0  0
M  END
>  <minimizedAffinity>
-6.23081923

$$$$

 OpenBabel03252501433D

 42 45  0  0  0  0  0  0  0  0999 V2000
   36.4600   27.2580   40.4690 Cl  0  0  0  0  0  0  0  0  0  0  0  0
   37.5950   27.0300   41.7970 C   0  0  0  0  0  0  0  0  0  0  0  0
   37.8810   28.0310   42.7220 C   0  0  0  0  0  0  0  0  0  0  0  0
   38.7660   27.8040   43.7290 C   0  0  0  0  0  0  0  0  0  0  0  0
   39.4160   26.6020   43.8920 C   0  0  0  0  0  0  0  0  0  0  0  0
   39.1510   25.5710   42.9800 C   0  0  0  0  0  0  0  0  0  0  0  0
   39.9290   24.0040   43.1050 Cl  0  0  0  0  0  0  0  0  0  0  0  0
   38.2490   25.8320   41.9700 C   0  0  0  0  0  0  0  0  0  0  0  0
   38.9690   28.6000   44.4300 H   0  0  0  0  0  0  0  0  0  0  0  0
   40.1080   26.4380   44.6870 H   0  0  0  0  0  0  0  0  0  0  0  0
   39.8440   25.4810   39.7980 F   0  0  0  0  0  0  0  0  0  0  0  0
   38.7750   24.6230   39.9180 C   0  0  0  0  0  0  0  0  0  0  0  0
   37.9520   24.7740   41.0040 C   0  0  0  0  0  0  0  0  0  0  0  0
   36.8700   23.8850   41.1030 C   0  0  0  0  0  0  0  0  0  0  0  0
   36.7030   22.9240   40.1130 C   0  0  0  0  0  0  0  0  0  0  0  0
   37.5890   22.8270   39.0250 C   0  0  0  0  0  0  0  0  0  0  0  0
   38.6610   23.6940   38.9090 C   0  0  0  0  0  0  0  0  0  0  0  0
   36.2270   23.9990   41.9450 H   0  0  0  0  0  0  0  0  0  0  0  0
   35.8720   22.2380   40.1860 H   0  0  0  0  0  0  0  0  0  0  0  0
   37.4360   22.0680   38.2650 H   0  0  0  0  0  0  0  0  0  0  0  0
   39.3580   23.6490   38.0920 H   0  0  0  0  0  0  0  0  0  0  0  0
   37.2100   29.2540   42.5410 O   0  0  0  0  0  0  0  0  0  0  0  0
   37.3420   29.8970   41.3120 C   0  0  0  0  0  0  0  0  0  0  0  0
   38.4130   29.9980   40.6050 O   0  0  0  0  0  0  0  0  0  0  0  0
   36.2230   30.5400   40.7020 N   0  0  0  0  0  0  0  0  0  0  0  0
   35.2720   30.5420   41.1150 H   0  0  0  0  0  0  0  0  0  0  0  0
   36.6540   31.1490   39.4590 C   0  0  0  0  0  0  0  0  0  0  0  0
   37.2130   32.3800   39.3250 C   0  0  0  0  0  0  0  0  0  0  0  0
   37.5650   32.8040   38.0710 C   0  0  0  0  0  0  0  0  0  0  0  0
   37.3300   31.9610   37.0450 N   0  0  0  0  0  0  0  0  0  0  0  0
   36.7730   30.7410   37.2030 C   0  0  0  0  0  0  0  0  0  0  0  0
   36.4170   30.3040   38.4420 N   0  0  0  0  0  0  0  0  0  0  0  0
   38.0090   33.7780   37.9550 H   0  0  0  0  0  0  0  0  0  0  0  0
   36.5370   29.8580   36.0270 C   0  0  0  0  0  0  0  0  0  0  0  0
   36.4640   30.1570   34.7450 C   0  0  0  0  0  0  0  0  0  0  0  0
   36.5870   31.1930   34.4440 H   0  0  0  0  0  0  0  0  0  0  0  0
   36.2380   29.2030   33.7940 C   0  0  0  0  0  3  0  0  0  0  0  0
   36.0920   27.8610   34.3380 C   0  0  0  0  0  3  0  0  0  0  0  0
   36.3030   28.1490   36.1730 S   0  0  0  0  0  0  0  0  0  0  0  0
   37.3920   33.1460   40.5140 N   0  0  0  0  0  0  0  0  0  0  0  0
   37.3440   34.1650   40.6610 H   0  0  0  0  0  0  0  0  0  0  0  0
   37.6070   32.6820   41.4260 H   0  0  0  0  0  0  0  0  0  0  0  0
  1  2  1  0  0  0  0
  2  8  2  0  0  0  0
  2  3  1  0  0  0  0
  3  4  2  0  0  0  0
  4  5  1  0  0  0  0
  4  9  1  0  0  0  0
  5 10  1  0  0  0  0
  6  7  1  0  0  0  0
  6  5  2  0  0  0  0
  8  6  1  0  0  0  0
 11 12  1  0  0  0  0
 12 13  1  0  0  0  0
 13 14  2  0  0  0  0
 13  8  1  0  0  0  0
 14 18  1  0  0  0  0
 15 19  1  0  0  0  0
 15 14  1  0  0  0  0
 16 15  2  0  0  0  0
 17 16  1  0  0  0  0
 17 12  2  0  0  0  0
 20 16  1  0  0  0  0
 21 17  1  0  0  0  0
 22  3  1  0  0  0  0
 23 22  1  0  0  0  0
 24 23  2  0  0  0  0
 25 26  1  0  0  0  0
 25 23  1  0  0  0  0
 27 25  1  0  0  0  0
 28 27  1  0  0  0  0
 28 40  1  0  0  0  0
 29 28  2  0  0  0  0
 30 31  2  0  0  0  0
 30 29  1  0  0  0  0
 31 32  1  0  0  0  0
 32 27  2  0  0  0  0
 33 29  1  0  0  0  0
 34 39  1  0  0  0  0
 34 31  1  0  0  0  0
 35 34  2  0  0  0  0
 36 35  1  0  0  0  0
 37 38  2  0  0  0  0
 37 35  1  0  0  0  0
 38 39  1  0  0  0  0
 40 41  1  0  0  0  0
 40 42  1  0  0  0  0
M  END
>  <minimizedAffinity>
-6.05217171

$$$$

 OpenBabel03252501433D

 42 45  0  0  0  0  0  0  0  0999 V2000
   36.2050   27.3850   38.2470 Cl  0  0  0  0  0  0  0  0  0  0  0  0
   36.5120   27.1590   39.9670 C   0  0  0  0  0  0  0  0  0  0  0  0
   36.3900   28.1910   40.8950 C   0  0  0  0  0  0  0  0  0  0  0  0
   36.6400   27.9630   42.2120 C   0  0  0  0  0  0  0  0  0  0  0  0
   37.0170   26.7310   42.6960 C   0  0  0  0  0  0  0  0  0  0  0  0
   37.1480   25.6700   41.7910 C   0  0  0  0  0  0  0  0  0  0  0  0
   37.6230   24.0640   42.3130 Cl  0  0  0  0  0  0  0  0  0  0  0  0
   36.8890   25.9310   40.4620 C   0  0  0  0  0  0  0  0  0  0  0  0
   36.5380   28.7830   42.9080 H   0  0  0  0  0  0  0  0  0  0  0  0
   37.2090   26.5680   43.7330 H   0  0  0  0  0  0  0  0  0  0  0  0
   39.2700   25.4650   39.2410 F   0  0  0  0  0  0  0  0  0  0  0  0
   38.2310   24.6320   38.8940 C   0  0  0  0  0  0  0  0  0  0  0  0
   37.0170   24.8420   39.4940 C   0  0  0  0  0  0  0  0  0  0  0  0
   35.9740   23.9780   39.1240 C   0  0  0  0  0  0  0  0  0  0  0  0
   36.2320   22.9820   38.1910 C   0  0  0  0  0  0  0  0  0  0  0  0
   37.5050   22.8250   37.6150 C   0  0  0  0  0  0  0  0  0  0  0  0
   38.5460   23.6660   37.9660 C   0  0  0  0  0  0  0  0  0  0  0  0
   35.0280   24.1370   39.5870 H   0  0  0  0  0  0  0  0  0  0  0  0
   35.4320   22.3150   37.9030 H   0  0  0  0  0  0  0  0  0  0  0  0
   37.6810   22.0390   36.8880 H   0  0  0  0  0  0  0  0  0  0  0  0
   39.5320   23.5750   37.5470 H   0  0  0  0  0  0  0  0  0  0  0  0
   36.0050   29.4430   40.3830 O   0  0  0  0  0  0  0  0  0  0  0  0
   36.9910   30.4140   40.2190 C   0  0  0  0  0  0  0  0  0  0  0  0
   37.7540   30.5730   39.1940 O   0  0  0  0  0  0  0  0  0  0  0  0
   37.2480   31.3730   41.2440 N   0  0  0  0  0  0  0  0  0  0  0  0
   36.7150   31.4130   42.1330 H   0  0  0  0  0  0  0  0  0  0  0  0
   38.3360   32.2310   40.8200 C   0  0  0  0  0  0  0  0  0  0  0  0
   38.2190   33.3640   40.0800 C   0  0  0  0  0  0  0  0  0  0  0  0
   39.3560   34.0610   39.7670 C   0  0  0  0  0  0  0  0  0  0  0  0
   40.5260   33.5690   40.2210 N   0  0  0  0  0  0  0  0  0  0  0  0
   40.6180   32.4400   40.9570 C   0  0  0  0  0  0  0  0  0  0  0  0
   39.4990   31.7350   41.2760 N   0  0  0  0  0  0  0  0  0  0  0  0
   39.2720   34.9600   39.1810 H   0  0  0  0  0  0  0  0  0  0  0  0
   41.9440   31.9480   41.4260 C   0  0  0  0  0  0  0  0  0  0  0  0
   43.1270   32.0230   40.8500 C   0  0  0  0  0  0  0  0  0  0  0  0
   43.2050   32.5090   39.8820 H   0  0  0  0  0  0  0  0  0  0  0  0
   44.2480   31.5090   41.4350 C   0  0  0  0  0  3  0  0  0  0  0  0
   43.9980   30.8870   42.7280 C   0  0  0  0  0  3  0  0  0  0  0  0
   42.1560   31.1280   42.9360 S   0  0  0  0  0  0  0  0  0  0  0  0
   36.9040   33.7450   39.6790 N   0  0  0  0  0  0  0  0  0  0  0  0
   36.5820   34.2170   38.8210 H   0  0  0  0  0  0  0  0  0  0  0  0
   36.0780   33.5530   40.2900 H   0  0  0  0  0  0  0  0  0  0  0  0
  1  2  1  0  0  0  0
  2  8  2  0  0  0  0
  2  3  1  0  0  0  0
  3  4  2  0  0  0  0
  4  5  1  0  0  0  0
  4  9  1  0  0  0  0
  5 10  1  0  0  0  0
  6  7  1  0  0  0  0
  6  5  2  0  0  0  0
  8  6  1  0  0  0  0
 12 11  1  0  0  0  0
 12 13  1  0  0  0  0
 13  8  1  0  0  0  0
 14 13  2  0  0  0  0
 14 18  1  0  0  0  0
 15 14  1  0  0  0  0
 16 17  1  0  0  0  0
 16 15  2  0  0  0  0
 17 12  2  0  0  0  0
 19 15  1  0  0  0  0
 20 16  1  0  0  0  0
 21 17  1  0  0  0  0
 22  3  1  0  0  0  0
 23 22  1  0  0  0  0
 23 25  1  0  0  0  0
 24 23  2  0  0  0  0
 25 26  1  0  0  0  0
 27 25  1  0  0  0  0
 27 32  1  0  0  0  0
 28 27  2  0  0  0  0
 29 28  1  0  0  0  0
 29 30  2  0  0  0  0
 30 31  1  0  0  0  0
 31 32  2  0  0  0  0
 31 34  1  0  0  0  0
 33 29  1  0  0  0  0
 34 39  1  0  0  0  0
 35 34  2  0  0  0  0
 35 37  1  0  0  0  0
 36 35  1  0  0  0  0
 37 38  2  0  0  0  0
 38 39  1  0  0  0  0
 40 28  1  0  0  0  0
 40 42  1  0  0  0  0
 41 40  1  0  0  0  0
M  END
>  <minimizedAffinity>
-6.04537249

$$$$
