
 OpenBabel03242522443D

 44 47  0  0  0  0  0  0  0  0999 V2000
   35.5470   27.8430   38.8230 C   0  0  0  0  0  0  0  0  0  0  0  0
   35.0120   27.7390   37.8610 H   0  0  0  0  0  0  0  0  0  0  0  0
   34.7020   27.6850   39.5310 H   0  0  0  0  0  0  0  0  0  0  0  0
   35.7960   29.7860   40.3510 C   0  0  0  0  0  0  0  0  0  0  0  0
   36.0410   29.1870   39.0970 C   0  0  0  0  0  0  0  0  0  0  0  0
   36.7700   29.9280   38.1740 C   0  0  0  0  0  0  0  0  0  0  0  0
   37.2020   31.1570   38.5100 N   0  0  0  0  0  0  0  0  0  0  0  0
   36.9490   31.6830   39.7040 C   0  0  0  0  0  0  0  0  0  0  0  0
   36.2450   31.0140   40.6440 N   0  0  0  0  0  0  0  0  0  0  0  0
   35.2580   29.3940   41.1930 H   0  0  0  0  0  0  0  0  0  0  0  0
   36.9670   29.4840   37.2050 H   0  0  0  0  0  0  0  0  0  0  0  0
   37.4860   33.0570   40.0200 C   0  0  0  0  0  0  0  0  0  0  0  0
   37.3940   33.6460   39.0830 H   0  0  0  0  0  0  0  0  0  0  0  0
   36.8230   33.5380   40.7530 H   0  0  0  0  0  0  0  0  0  0  0  0
   38.8780   33.0560   40.4330 C   0  0  0  0  0  0  0  0  0  0  0  0
   39.8740   33.8810   39.9280 C   0  0  0  0  0  0  0  0  0  0  0  0
   41.0510   33.5910   40.5590 C   0  0  0  0  0  0  0  0  0  0  0  0
   40.7400   32.6000   41.4300 N   0  0  0  0  0  0  0  0  0  0  0  0
   39.4470   32.2760   41.3600 N   0  0  0  0  0  0  0  0  0  0  0  0
   39.7970   34.6450   39.1620 H   0  0  0  0  0  0  0  0  0  0  0  0
   42.0500   33.9630   40.4960 H   0  0  0  0  0  0  0  0  0  0  0  0
   41.3560   32.0830   42.1160 H   0  0  0  0  0  0  0  0  0  0  0  0
   36.6880   26.8840   39.0010 C   0  0  0  0  0  0  0  0  0  0  0  0
   37.4580   27.0900   38.2210 H   0  0  0  0  0  0  0  0  0  0  0  0
   37.0620   27.1300   40.0100 H   0  0  0  0  0  0  0  0  0  0  0  0
   37.0410   24.6710   39.9850 C   0  0  0  0  0  0  0  0  0  0  0  0
   36.3440   25.4600   39.0740 C   0  0  0  0  0  0  0  0  0  0  0  0
   35.3660   25.0160   38.2650 C   0  0  0  0  0  0  0  0  0  0  0  0
   35.0140   23.6930   38.3260 C   0  0  0  0  0  0  0  0  0  0  0  0
   35.6240   22.8170   39.1860 C   0  0  0  0  0  0  0  0  0  0  0  0
   36.6280   23.3350   39.9980 C   0  0  0  0  0  0  0  0  0  0  0  0
   34.7620   25.5060   37.5580 H   0  0  0  0  0  0  0  0  0  0  0  0
   34.2440   23.1870   37.7320 H   0  0  0  0  0  0  0  0  0  0  0  0
   35.4180   21.7670   39.3100 H   0  0  0  0  0  0  0  0  0  0  0  0
   37.1440   22.6870   40.6970 H   0  0  0  0  0  0  0  0  0  0  0  0
   38.2680   25.2140   41.0570 S   0  0  0  0  0  0  0  0  0  0  0  0
   39.5320   25.5920   40.1740 O   0  0  0  0  0  0  0  0  0  0  0  0
   38.7840   24.0720   41.8600 O   0  0  0  0  0  0  0  0  0  0  0  0
   38.1420   26.6310   41.8960 C   0  0  0  0  0  0  0  0  0  0  0  0
   36.9740   26.7690   42.8990 C   0  0  0  0  0  0  0  0  0  0  0  0
   36.2380   26.0160   43.0970 H   0  0  0  0  0  0  0  0  0  0  0  0
   36.9530   27.9640   43.5320 C   0  0  0  0  0  3  0  0  0  0  0  0
   37.9030   28.9910   43.3050 C   0  0  0  0  0  3  0  0  0  0  0  0
   39.0170   28.2190   42.0190 S   0  0  0  0  0  0  0  0  0  0  0  0
  1 23  1  0  0  0  0
  1  5  1  0  0  0  0
  1  3  1  0  0  0  0
  2  1  1  0  0  0  0
  4  9  1  0  0  0  0
  4 10  1  0  0  0  0
  5  4  2  0  0  0  0
  6  7  2  0  0  0  0
  6  5  1  0  0  0  0
  7  8  1  0  0  0  0
  8 12  1  0  0  0  0
  8  9  2  0  0  0  0
 11  6  1  0  0  0  0
 12 15  1  0  0  0  0
 12 14  1  0  0  0  0
 13 12  1  0  0  0  0
 15 19  2  0  0  0  0
 16 15  1  0  0  0  0
 16 17  2  0  0  0  0
 17 18  1  0  0  0  0
 18 22  1  0  0  0  0
 19 18  1  0  0  0  0
 20 16  1  0  0  0  0
 21 17  1  0  0  0  0
 23 27  1  0  0  0  0
 23 25  1  0  0  0  0
 24 23  1  0  0  0  0
 26 31  1  0  0  0  0
 26 36  1  0  0  0  0
 27 26  2  0  0  0  0
 28 29  2  0  0  0  0
 28 27  1  0  0  0  0
 29 30  1  0  0  0  0
 30 34  1  0  0  0  0
 30 31  2  0  0  0  0
 31 35  1  0  0  0  0
 32 28  1  0  0  0  0
 33 29  1  0  0  0  0
 36 38  2  0  0  0  0
 36 39  1  0  0  0  0
 37 36  2  0  0  0  0
 39 44  1  0  0  0  0
 39 40  2  0  0  0  0
 40 41  1  0  0  0  0
 40 42  1  0  0  0  0
 43 42  2  0  0  0  0
 44 43  1  0  0  0  0
M  END
>  <minimizedAffinity>
-5.98581457

$$$$

 OpenBabel03242522443D

 44 47  0  0  0  0  0  0  0  0999 V2000
   35.4000   26.0460   37.6940 C   0  0  0  0  0  0  0  0  0  0  0  0
   35.8190   25.3730   36.9230 H   0  0  0  0  0  0  0  0  0  0  0  0
   34.7900   25.3180   38.2750 H   0  0  0  0  0  0  0  0  0  0  0  0
   33.2860   26.6070   36.5150 C   0  0  0  0  0  0  0  0  0  0  0  0
   34.4530   27.0310   37.1860 C   0  0  0  0  0  0  0  0  0  0  0  0
   34.6320   28.4010   37.3390 C   0  0  0  0  0  0  0  0  0  0  0  0
   33.7040   29.2450   36.8510 N   0  0  0  0  0  0  0  0  0  0  0  0
   32.6180   28.8020   36.2260 C   0  0  0  0  0  0  0  0  0  0  0  0
   32.3870   27.4820   36.0450 N   0  0  0  0  0  0  0  0  0  0  0  0
   32.9620   25.6090   36.2900 H   0  0  0  0  0  0  0  0  0  0  0  0
   35.5230   28.7460   37.8510 H   0  0  0  0  0  0  0  0  0  0  0  0
   31.6080   29.8050   35.7270 C   0  0  0  0  0  0  0  0  0  0  0  0
   32.1850   30.5690   35.1650 H   0  0  0  0  0  0  0  0  0  0  0  0
   30.9500   29.3140   34.9960 H   0  0  0  0  0  0  0  0  0  0  0  0
   30.8730   30.4670   36.7910 C   0  0  0  0  0  0  0  0  0  0  0  0
   30.3800   31.7650   36.7480 C   0  0  0  0  0  0  0  0  0  0  0  0
   29.7470   32.0360   37.9290 C   0  0  0  0  0  0  0  0  0  0  0  0
   29.8710   30.8980   38.6550 N   0  0  0  0  0  0  0  0  0  0  0  0
   30.5410   29.9600   37.9840 N   0  0  0  0  0  0  0  0  0  0  0  0
   30.4520   32.4910   35.9470 H   0  0  0  0  0  0  0  0  0  0  0  0
   29.2330   32.8820   38.3300 H   0  0  0  0  0  0  0  0  0  0  0  0
   29.5240   30.6760   39.6290 H   0  0  0  0  0  0  0  0  0  0  0  0
   36.4330   26.7720   38.5070 C   0  0  0  0  0  0  0  0  0  0  0  0
   37.3680   26.8590   37.9060 H   0  0  0  0  0  0  0  0  0  0  0  0
   35.9670   27.7590   38.6720 H   0  0  0  0  0  0  0  0  0  0  0  0
   36.7780   27.1770   40.8950 C   0  0  0  0  0  0  0  0  0  0  0  0
   36.6900   26.2560   39.8550 C   0  0  0  0  0  0  0  0  0  0  0  0
   36.8080   24.9240   39.9970 C   0  0  0  0  0  0  0  0  0  0  0  0
   37.0310   24.4150   41.2500 C   0  0  0  0  0  0  0  0  0  0  0  0
   37.1320   25.2200   42.3550 C   0  0  0  0  0  0  0  0  0  0  0  0
   37.0020   26.5890   42.1440 C   0  0  0  0  0  0  0  0  0  0  0  0
   36.7440   24.1350   39.3060 H   0  0  0  0  0  0  0  0  0  0  0  0
   37.1510   23.3600   41.5220 H   0  0  0  0  0  0  0  0  0  0  0  0
   37.3020   24.9180   43.3750 H   0  0  0  0  0  0  0  0  0  0  0  0
   37.0730   27.2730   42.9830 H   0  0  0  0  0  0  0  0  0  0  0  0
   36.5960   28.8780   40.7530 S   0  0  0  0  0  0  0  0  0  0  0  0
   37.0750   29.5190   42.1240 O   0  0  0  0  0  0  0  0  0  0  0  0
   35.1510   29.2360   40.7360 O   0  0  0  0  0  0  0  0  0  0  0  0
   37.5310   29.7840   39.7370 C   0  0  0  0  0  0  0  0  0  0  0  0
   36.8260   30.8580   38.8800 C   0  0  0  0  0  0  0  0  0  0  0  0
   35.7750   31.0660   38.8920 H   0  0  0  0  0  0  0  0  0  0  0  0
   37.6730   31.5430   38.0780 C   0  0  0  0  0  3  0  0  0  0  0  0
   39.0700   31.3060   38.0260 C   0  0  0  0  0  3  0  0  0  0  0  0
   39.2810   29.9240   39.2660 S   0  0  0  0  0  0  0  0  0  0  0  0
  1  3  1  0  0  0  0
  1 23  1  0  0  0  0
  2  1  1  0  0  0  0
  4  5  1  0  0  0  0
  5  6  2  0  0  0  0
  5  1  1  0  0  0  0
  6 11  1  0  0  0  0
  7  6  1  0  0  0  0
  8  7  2  0  0  0  0
  9  8  1  0  0  0  0
  9  4  2  0  0  0  0
 10  4  1  0  0  0  0
 12  8  1  0  0  0  0
 12 15  1  0  0  0  0
 13 12  1  0  0  0  0
 14 12  1  0  0  0  0
 15 19  2  0  0  0  0
 16 15  1  0  0  0  0
 16 17  2  0  0  0  0
 17 21  1  0  0  0  0
 17 18  1  0  0  0  0
 18 22  1  0  0  0  0
 19 18  1  0  0  0  0
 20 16  1  0  0  0  0
 23 25  1  0  0  0  0
 23 27  1  0  0  0  0
 24 23  1  0  0  0  0
 26 31  1  0  0  0  0
 27 28  1  0  0  0  0
 27 26  2  0  0  0  0
 28 29  2  0  0  0  0
 29 33  1  0  0  0  0
 29 30  1  0  0  0  0
 30 34  1  0  0  0  0
 31 30  2  0  0  0  0
 31 35  1  0  0  0  0
 32 28  1  0  0  0  0
 36 26  1  0  0  0  0
 36 37  2  0  0  0  0
 38 36  2  0  0  0  0
 39 36  1  0  0  0  0
 40 41  1  0  0  0  0
 40 39  2  0  0  0  0
 42 40  1  0  0  0  0
 43 42  2  0  0  0  0
 43 44  1  0  0  0  0
 44 39  1  0  0  0  0
M  END
>  <minimizedAffinity>
-5.83644199

$$$$

 OpenBabel03242522443D

 44 47  0  0  0  0  0  0  0  0999 V2000
   37.2340   28.4240   42.7630 C   0  0  0  0  0  0  0  0  0  0  0  0
   36.6170   28.5760   43.6690 H   0  0  0  0  0  0  0  0  0  0  0  0
   38.1410   27.9710   43.2220 H   0  0  0  0  0  0  0  0  0  0  0  0
   39.0000   30.1250   42.3630 C   0  0  0  0  0  0  0  0  0  0  0  0
   37.6900   29.6560   42.1300 C   0  0  0  0  0  0  0  0  0  0  0  0
   36.8900   30.4090   41.2770 C   0  0  0  0  0  0  0  0  0  0  0  0
   37.3920   31.5270   40.7220 N   0  0  0  0  0  0  0  0  0  0  0  0
   38.6330   31.9320   40.9680 C   0  0  0  0  0  0  0  0  0  0  0  0
   39.4590   31.2450   41.7890 N   0  0  0  0  0  0  0  0  0  0  0  0
   39.7680   29.7020   42.9820 H   0  0  0  0  0  0  0  0  0  0  0  0
   35.8810   30.0640   41.0870 H   0  0  0  0  0  0  0  0  0  0  0  0
   39.1350   33.1830   40.2900 C   0  0  0  0  0  0  0  0  0  0  0  0
   38.2390   33.8060   40.0910 H   0  0  0  0  0  0  0  0  0  0  0  0
   39.7530   33.7490   41.0020 H   0  0  0  0  0  0  0  0  0  0  0  0
   39.8140   32.9300   39.0320 C   0  0  0  0  0  0  0  0  0  0  0  0
   41.0880   33.3670   38.6970 C   0  0  0  0  0  0  0  0  0  0  0  0
   41.3870   32.9350   37.4350 C   0  0  0  0  0  0  0  0  0  0  0  0
   40.2880   32.2480   37.0380 N   0  0  0  0  0  0  0  0  0  0  0  0
   39.3470   32.2410   37.9840 N   0  0  0  0  0  0  0  0  0  0  0  0
   41.7810   33.9550   39.2880 H   0  0  0  0  0  0  0  0  0  0  0  0
   42.2300   33.0310   36.7860 H   0  0  0  0  0  0  0  0  0  0  0  0
   40.0960   31.7470   36.1260 H   0  0  0  0  0  0  0  0  0  0  0  0
   36.5840   27.5740   41.7100 C   0  0  0  0  0  0  0  0  0  0  0  0
   35.5010   27.4640   41.9520 H   0  0  0  0  0  0  0  0  0  0  0  0
   36.7330   28.1650   40.7900 H   0  0  0  0  0  0  0  0  0  0  0  0
   37.8590   26.1340   40.1970 C   0  0  0  0  0  0  0  0  0  0  0  0
   37.2190   26.2840   41.4240 C   0  0  0  0  0  0  0  0  0  0  0  0
   37.1520   25.3350   42.3760 C   0  0  0  0  0  0  0  0  0  0  0  0
   37.7520   24.1260   42.1400 C   0  0  0  0  0  0  0  0  0  0  0  0
   38.4180   23.8590   40.9720 C   0  0  0  0  0  0  0  0  0  0  0  0
   38.4520   24.8790   40.0260 C   0  0  0  0  0  0  0  0  0  0  0  0
   36.7210   25.3310   43.3340 H   0  0  0  0  0  0  0  0  0  0  0  0
   37.7800   23.2610   42.8130 H   0  0  0  0  0  0  0  0  0  0  0  0
   38.9200   22.9470   40.6950 H   0  0  0  0  0  0  0  0  0  0  0  0
   38.9650   24.7230   39.0830 H   0  0  0  0  0  0  0  0  0  0  0  0
   37.9940   27.3350   38.9780 S   0  0  0  0  0  0  0  0  0  0  0  0
   38.6230   26.6370   37.6970 O   0  0  0  0  0  0  0  0  0  0  0  0
   39.0520   28.3150   39.3430 O   0  0  0  0  0  0  0  0  0  0  0  0
   36.6720   28.0030   38.2490 C   0  0  0  0  0  0  0  0  0  0  0  0
   35.4130   27.1200   38.0970 C   0  0  0  0  0  0  0  0  0  0  0  0
   35.3270   26.1050   38.4300 H   0  0  0  0  0  0  0  0  0  0  0  0
   34.3870   27.7540   37.4850 C   0  0  0  0  0  3  0  0  0  0  0  0
   34.4510   29.0940   37.0270 C   0  0  0  0  0  3  0  0  0  0  0  0
   36.1900   29.5870   37.4990 S   0  0  0  0  0  0  0  0  0  0  0  0
  1  3  1  0  0  0  0
  1  2  1  0  0  0  0
  4 10  1  0  0  0  0
  5  4  1  0  0  0  0
  5  1  1  0  0  0  0
  6  5  2  0  0  0  0
  7  8  2  0  0  0  0
  7  6  1  0  0  0  0
  8  9  1  0  0  0  0
  9  4  2  0  0  0  0
 11  6  1  0  0  0  0
 12  8  1  0  0  0  0
 12 14  1  0  0  0  0
 13 12  1  0  0  0  0
 15 12  1  0  0  0  0
 16 15  1  0  0  0  0
 16 20  1  0  0  0  0
 17 16  2  0  0  0  0
 18 17  1  0  0  0  0
 18 19  1  0  0  0  0
 19 15  2  0  0  0  0
 21 17  1  0  0  0  0
 22 18  1  0  0  0  0
 23 24  1  0  0  0  0
 23  1  1  0  0  0  0
 25 23  1  0  0  0  0
 26 27  1  0  0  0  0
 27 23  1  0  0  0  0
 27 28  2  0  0  0  0
 28 32  1  0  0  0  0
 29 28  1  0  0  0  0
 29 33  1  0  0  0  0
 30 29  2  0  0  0  0
 31 26  2  0  0  0  0
 31 30  1  0  0  0  0
 34 30  1  0  0  0  0
 35 31  1  0  0  0  0
 36 38  2  0  0  0  0
 36 26  1  0  0  0  0
 37 36  2  0  0  0  0
 39 36  1  0  0  0  0
 40 39  2  0  0  0  0
 40 41  1  0  0  0  0
 42 40  1  0  0  0  0
 43 42  2  0  0  0  0
 43 44  1  0  0  0  0
 44 39  1  0  0  0  0
M  END
>  <minimizedAffinity>
-5.78881216

$$$$

 OpenBabel03242522443D

 44 47  0  0  0  0  0  0  0  0999 V2000
   36.3600   28.4040   38.7090 C   0  0  0  0  0  0  0  0  0  0  0  0
   37.2660   28.6610   38.1310 H   0  0  0  0  0  0  0  0  0  0  0  0
   36.4390   27.2930   38.7090 H   0  0  0  0  0  0  0  0  0  0  0  0
   33.9360   28.9440   38.7840 C   0  0  0  0  0  0  0  0  0  0  0  0
   35.1050   28.7060   38.0310 C   0  0  0  0  0  0  0  0  0  0  0  0
   34.9930   28.7880   36.6470 C   0  0  0  0  0  0  0  0  0  0  0  0
   33.8010   29.0850   36.0990 N   0  0  0  0  0  0  0  0  0  0  0  0
   32.7250   29.3020   36.8480 C   0  0  0  0  0  0  0  0  0  0  0  0
   32.7680   29.2370   38.1980 N   0  0  0  0  0  0  0  0  0  0  0  0
   33.8040   28.9270   39.8490 H   0  0  0  0  0  0  0  0  0  0  0  0
   35.8810   28.6070   36.0520 H   0  0  0  0  0  0  0  0  0  0  0  0
   31.4260   29.6550   36.1650 C   0  0  0  0  0  0  0  0  0  0  0  0
   31.6570   30.4990   35.4810 H   0  0  0  0  0  0  0  0  0  0  0  0
   31.1200   28.8140   35.5260 H   0  0  0  0  0  0  0  0  0  0  0  0
   30.3820   30.0740   37.0830 C   0  0  0  0  0  0  0  0  0  0  0  0
   30.1490   31.3760   37.5050 C   0  0  0  0  0  0  0  0  0  0  0  0
   29.0860   31.3790   38.3640 C   0  0  0  0  0  0  0  0  0  0  0  0
   28.7010   30.0810   38.4400 N   0  0  0  0  0  0  0  0  0  0  0  0
   29.4700   29.2980   37.6810 N   0  0  0  0  0  0  0  0  0  0  0  0
   30.6830   32.2810   37.2380 H   0  0  0  0  0  0  0  0  0  0  0  0
   28.5670   32.1310   38.9160 H   0  0  0  0  0  0  0  0  0  0  0  0
   27.9160   29.6390   38.9940 H   0  0  0  0  0  0  0  0  0  0  0  0
   36.3060   29.0180   40.0780 C   0  0  0  0  0  0  0  0  0  0  0  0
   35.2390   29.1600   40.3690 H   0  0  0  0  0  0  0  0  0  0  0  0
   36.7970   28.2560   40.7090 H   0  0  0  0  0  0  0  0  0  0  0  0
   38.0900   30.2020   41.2640 C   0  0  0  0  0  0  0  0  0  0  0  0
   37.1010   30.2330   40.2850 C   0  0  0  0  0  0  0  0  0  0  0  0
   36.8300   31.2920   39.5010 C   0  0  0  0  0  0  0  0  0  0  0  0
   37.5700   32.4340   39.6630 C   0  0  0  0  0  0  0  0  0  0  0  0
   38.5750   32.5250   40.5900 C   0  0  0  0  0  0  0  0  0  0  0  0
   38.8080   31.3970   41.3710 C   0  0  0  0  0  0  0  0  0  0  0  0
   36.1330   31.4330   38.7280 H   0  0  0  0  0  0  0  0  0  0  0  0
   37.4650   33.3720   39.1050 H   0  0  0  0  0  0  0  0  0  0  0  0
   39.2100   33.3720   40.7900 H   0  0  0  0  0  0  0  0  0  0  0  0
   39.5910   31.4130   42.1210 H   0  0  0  0  0  0  0  0  0  0  0  0
   38.4860   28.8560   42.2540 S   0  0  0  0  0  0  0  0  0  0  0  0
   37.4710   28.8560   43.4760 O   0  0  0  0  0  0  0  0  0  0  0  0
   39.7870   29.0910   42.9360 O   0  0  0  0  0  0  0  0  0  0  0  0
   38.2500   27.2980   41.7600 C   0  0  0  0  0  0  0  0  0  0  0  0
   37.2100   26.4520   42.5290 C   0  0  0  0  0  0  0  0  0  0  0  0
   36.6260   26.7960   43.3590 H   0  0  0  0  0  0  0  0  0  0  0  0
   37.0920   25.1910   42.0540 C   0  0  0  0  0  3  0  0  0  0  0  0
   37.8410   24.6890   40.9600 C   0  0  0  0  0  3  0  0  0  0  0  0
   38.8860   26.1650   40.4900 S   0  0  0  0  0  0  0  0  0  0  0  0
  1 23  1  0  0  0  0
  2  1  1  0  0  0  0
  3  1  1  0  0  0  0
  4 10  1  0  0  0  0
  5  1  1  0  0  0  0
  5  4  2  0  0  0  0
  6  5  1  0  0  0  0
  7  6  2  0  0  0  0
  7  8  1  0  0  0  0
  8  9  2  0  0  0  0
  9  4  1  0  0  0  0
 11  6  1  0  0  0  0
 12  8  1  0  0  0  0
 12 15  1  0  0  0  0
 13 12  1  0  0  0  0
 14 12  1  0  0  0  0
 15 16  1  0  0  0  0
 15 19  2  0  0  0  0
 16 17  2  0  0  0  0
 17 18  1  0  0  0  0
 17 21  1  0  0  0  0
 18 22  1  0  0  0  0
 19 18  1  0  0  0  0
 20 16  1  0  0  0  0
 23 27  1  0  0  0  0
 23 24  1  0  0  0  0
 23 25  1  0  0  0  0
 26 31  1  0  0  0  0
 26 36  1  0  0  0  0
 27 26  2  0  0  0  0
 28 29  2  0  0  0  0
 28 27  1  0  0  0  0
 29 30  1  0  0  0  0
 30 34  1  0  0  0  0
 30 31  2  0  0  0  0
 31 35  1  0  0  0  0
 32 28  1  0  0  0  0
 33 29  1  0  0  0  0
 36 38  2  0  0  0  0
 36 37  2  0  0  0  0
 39 36  1  0  0  0  0
 39 40  2  0  0  0  0
 40 41  1  0  0  0  0
 42 40  1  0  0  0  0
 43 42  2  0  0  0  0
 44 43  1  0  0  0  0
 44 39  1  0  0  0  0
M  END
>  <minimizedAffinity>
-5.67914343

$$$$

 OpenBabel03242522443D

 44 47  0  0  0  0  0  0  0  0999 V2000
   39.9350   30.6210   42.3600 C   0  0  0  0  0  0  0  0  0  0  0  0
   41.0040   30.3850   42.2010 H   0  0  0  0  0  0  0  0  0  0  0  0
   39.9780   31.0190   43.3990 H   0  0  0  0  0  0  0  0  0  0  0  0
   39.1950   28.4220   41.4700 C   0  0  0  0  0  0  0  0  0  0  0  0
   39.0630   29.4540   42.4240 C   0  0  0  0  0  0  0  0  0  0  0  0
   38.0900   29.2900   43.4040 C   0  0  0  0  0  0  0  0  0  0  0  0
   37.3340   28.1760   43.4000 N   0  0  0  0  0  0  0  0  0  0  0  0
   37.4930   27.2290   42.4830 C   0  0  0  0  0  0  0  0  0  0  0  0
   38.4200   27.3300   41.5040 N   0  0  0  0  0  0  0  0  0  0  0  0
   39.8700   28.3530   40.6390 H   0  0  0  0  0  0  0  0  0  0  0  0
   37.9750   30.0720   44.1440 H   0  0  0  0  0  0  0  0  0  0  0  0
   36.6250   25.9960   42.5560 C   0  0  0  0  0  0  0  0  0  0  0  0
   36.4700   25.7930   43.6360 H   0  0  0  0  0  0  0  0  0  0  0  0
   35.6350   26.2330   42.1410 H   0  0  0  0  0  0  0  0  0  0  0  0
   37.2280   24.8250   41.9450 C   0  0  0  0  0  0  0  0  0  0  0  0
   36.7840   24.1960   40.7900 C   0  0  0  0  0  0  0  0  0  0  0  0
   37.6000   23.1320   40.5230 C   0  0  0  0  0  0  0  0  0  0  0  0
   38.5170   23.1450   41.5210 N   0  0  0  0  0  0  0  0  0  0  0  0
   38.3010   24.1490   42.3720 N   0  0  0  0  0  0  0  0  0  0  0  0
   35.9400   24.4520   40.1590 H   0  0  0  0  0  0  0  0  0  0  0  0
   37.6400   22.3860   39.7600 H   0  0  0  0  0  0  0  0  0  0  0  0
   39.3330   22.4950   41.6990 H   0  0  0  0  0  0  0  0  0  0  0  0
   39.3590   31.5770   41.3560 C   0  0  0  0  0  0  0  0  0  0  0  0
   38.3270   31.2450   41.0930 H   0  0  0  0  0  0  0  0  0  0  0  0
   39.3450   32.5330   41.9070 H   0  0  0  0  0  0  0  0  0  0  0  0
   39.5110   31.9830   38.9480 C   0  0  0  0  0  0  0  0  0  0  0  0
   40.1710   31.8500   40.1670 C   0  0  0  0  0  0  0  0  0  0  0  0
   41.5000   31.9680   40.3370 C   0  0  0  0  0  0  0  0  0  0  0  0
   42.2800   32.2400   39.2430 C   0  0  0  0  0  0  0  0  0  0  0  0
   41.7470   32.3980   37.9900 C   0  0  0  0  0  0  0  0  0  0  0  0
   40.3660   32.2640   37.8770 C   0  0  0  0  0  0  0  0  0  0  0  0
   42.1060   31.9070   41.1930 H   0  0  0  0  0  0  0  0  0  0  0  0
   43.3690   32.3610   39.2230 H   0  0  0  0  0  0  0  0  0  0  0  0
   42.2710   32.6150   37.0750 H   0  0  0  0  0  0  0  0  0  0  0  0
   39.8900   32.3790   36.9100 H   0  0  0  0  0  0  0  0  0  0  0  0
   37.8150   31.8750   38.7030 S   0  0  0  0  0  0  0  0  0  0  0  0
   37.5590   31.9680   37.1390 O   0  0  0  0  0  0  0  0  0  0  0  0
   37.1490   33.1110   39.1970 O   0  0  0  0  0  0  0  0  0  0  0  0
   36.9690   30.4870   38.9920 C   0  0  0  0  0  0  0  0  0  0  0  0
   36.0610   30.4480   40.2420 C   0  0  0  0  0  0  0  0  0  0  0  0
   35.9330   31.2520   40.9380 H   0  0  0  0  0  0  0  0  0  0  0  0
   35.4140   29.2700   40.3950 C   0  0  0  0  0  3  0  0  0  0  0  0
   35.5500   28.1760   39.5030 C   0  0  0  0  0  3  0  0  0  0  0  0
   36.7540   28.8460   38.2410 S   0  0  0  0  0  0  0  0  0  0  0  0
  1  5  1  0  0  0  0
  1  3  1  0  0  0  0
  2  1  1  0  0  0  0
  4  9  2  0  0  0  0
  4  5  1  0  0  0  0
  5  6  2  0  0  0  0
  6 11  1  0  0  0  0
  7  6  1  0  0  0  0
  8 12  1  0  0  0  0
  8  7  2  0  0  0  0
  9  8  1  0  0  0  0
 10  4  1  0  0  0  0
 12 13  1  0  0  0  0
 14 12  1  0  0  0  0
 15 19  2  0  0  0  0
 15 12  1  0  0  0  0
 16 15  1  0  0  0  0
 17 16  2  0  0  0  0
 17 18  1  0  0  0  0
 18 22  1  0  0  0  0
 18 19  1  0  0  0  0
 20 16  1  0  0  0  0
 21 17  1  0  0  0  0
 23 25  1  0  0  0  0
 23  1  1  0  0  0  0
 24 23  1  0  0  0  0
 26 27  1  0  0  0  0
 27 28  2  0  0  0  0
 27 23  1  0  0  0  0
 28 32  1  0  0  0  0
 29 28  1  0  0  0  0
 30 29  2  0  0  0  0
 31 30  1  0  0  0  0
 31 26  2  0  0  0  0
 33 29  1  0  0  0  0
 34 30  1  0  0  0  0
 35 31  1  0  0  0  0
 36 26  1  0  0  0  0
 36 39  1  0  0  0  0
 36 38  2  0  0  0  0
 37 36  2  0  0  0  0
 39 40  2  0  0  0  0
 40 42  1  0  0  0  0
 40 41  1  0  0  0  0
 43 42  2  0  0  0  0
 44 39  1  0  0  0  0
 44 43  1  0  0  0  0
M  END
>  <minimizedAffinity>
-5.6566391

$$$$

 OpenBabel03242522443D

 44 47  0  0  0  0  0  0  0  0999 V2000
   36.7360   27.5760   38.4780 C   0  0  0  0  0  0  0  0  0  0  0  0
   37.6200   27.0630   38.0540 H   0  0  0  0  0  0  0  0  0  0  0  0
   36.0230   27.4630   37.6300 H   0  0  0  0  0  0  0  0  0  0  0  0
   36.3110   29.6540   39.7710 C   0  0  0  0  0  0  0  0  0  0  0  0
   36.9020   29.0120   38.6610 C   0  0  0  0  0  0  0  0  0  0  0  0
   37.6380   29.8070   37.7890 C   0  0  0  0  0  0  0  0  0  0  0  0
   37.7530   31.1240   38.0370 N   0  0  0  0  0  0  0  0  0  0  0  0
   37.1810   31.6870   39.0960 C   0  0  0  0  0  0  0  0  0  0  0  0
   36.4520   30.9700   39.9800 N   0  0  0  0  0  0  0  0  0  0  0  0
   35.7080   29.2330   40.5520 H   0  0  0  0  0  0  0  0  0  0  0  0
   38.0980   29.3310   36.9310 H   0  0  0  0  0  0  0  0  0  0  0  0
   37.3740   33.1670   39.3240 C   0  0  0  0  0  0  0  0  0  0  0  0
   37.2560   33.6480   38.3310 H   0  0  0  0  0  0  0  0  0  0  0  0
   36.5500   33.5400   39.9480 H   0  0  0  0  0  0  0  0  0  0  0  0
   38.6830   33.5070   39.8530 C   0  0  0  0  0  0  0  0  0  0  0  0
   39.8870   33.3930   39.1700 C   0  0  0  0  0  0  0  0  0  0  0  0
   40.9000   33.8070   39.9890 C   0  0  0  0  0  0  0  0  0  0  0  0
   40.2860   34.1610   41.1440 N   0  0  0  0  0  0  0  0  0  0  0  0
   38.9660   33.9840   41.0710 N   0  0  0  0  0  0  0  0  0  0  0  0
   40.0620   33.0430   38.1590 H   0  0  0  0  0  0  0  0  0  0  0  0
   41.9600   33.8920   39.8900 H   0  0  0  0  0  0  0  0  0  0  0  0
   40.6990   34.5360   42.0430 H   0  0  0  0  0  0  0  0  0  0  0  0
   36.2490   26.9950   39.7740 C   0  0  0  0  0  0  0  0  0  0  0  0
   36.3950   27.7480   40.5840 H   0  0  0  0  0  0  0  0  0  0  0  0
   35.1770   26.8190   39.5780 H   0  0  0  0  0  0  0  0  0  0  0  0
   37.5290   25.5860   41.3120 C   0  0  0  0  0  0  0  0  0  0  0  0
   36.7760   25.6790   40.1440 C   0  0  0  0  0  0  0  0  0  0  0  0
   36.4840   24.6440   39.3360 C   0  0  0  0  0  0  0  0  0  0  0  0
   36.9500   23.3990   39.6690 C   0  0  0  0  0  0  0  0  0  0  0  0
   37.6980   23.1790   40.7960 C   0  0  0  0  0  0  0  0  0  0  0  0
   37.9680   24.2880   41.5920 C   0  0  0  0  0  0  0  0  0  0  0  0
   35.9210   24.5810   38.4510 H   0  0  0  0  0  0  0  0  0  0  0  0
   36.7980   22.4670   39.1120 H   0  0  0  0  0  0  0  0  0  0  0  0
   38.1060   22.2450   41.1430 H   0  0  0  0  0  0  0  0  0  0  0  0
   38.5550   24.1730   42.4970 H   0  0  0  0  0  0  0  0  0  0  0  0
   37.8880   26.8780   42.3840 S   0  0  0  0  0  0  0  0  0  0  0  0
   38.8660   26.3080   43.4970 O   0  0  0  0  0  0  0  0  0  0  0  0
   36.6830   27.2270   43.1830 O   0  0  0  0  0  0  0  0  0  0  0  0
   38.7980   28.1780   41.9240 C   0  0  0  0  0  0  0  0  0  0  0  0
   38.6050   29.4990   42.7020 C   0  0  0  0  0  0  0  0  0  0  0  0
   37.9280   29.6400   43.5210 H   0  0  0  0  0  0  0  0  0  0  0  0
   39.3890   30.5040   42.2500 C   0  0  0  0  0  3  0  0  0  0  0  0
   40.2990   30.3680   41.1720 C   0  0  0  0  0  3  0  0  0  0  0  0
   40.0600   28.5810   40.6810 S   0  0  0  0  0  0  0  0  0  0  0  0
  1  5  1  0  0  0  0
  1 23  1  0  0  0  0
  2  1  1  0  0  0  0
  3  1  1  0  0  0  0
  4  9  1  0  0  0  0
  4 10  1  0  0  0  0
  5  4  2  0  0  0  0
  6  7  2  0  0  0  0
  6  5  1  0  0  0  0
  7  8  1  0  0  0  0
  8 12  1  0  0  0  0
  8  9  2  0  0  0  0
 11  6  1  0  0  0  0
 12 15  1  0  0  0  0
 12 14  1  0  0  0  0
 13 12  1  0  0  0  0
 15 19  2  0  0  0  0
 16 15  1  0  0  0  0
 16 17  2  0  0  0  0
 17 18  1  0  0  0  0
 18 22  1  0  0  0  0
 19 18  1  0  0  0  0
 20 16  1  0  0  0  0
 21 17  1  0  0  0  0
 23 27  1  0  0  0  0
 23 24  1  0  0  0  0
 25 23  1  0  0  0  0
 26 31  1  0  0  0  0
 26 36  1  0  0  0  0
 27 26  2  0  0  0  0
 28 29  2  0  0  0  0
 28 27  1  0  0  0  0
 29 30  1  0  0  0  0
 30 34  1  0  0  0  0
 30 31  2  0  0  0  0
 31 35  1  0  0  0  0
 32 28  1  0  0  0  0
 33 29  1  0  0  0  0
 36 38  2  0  0  0  0
 36 37  2  0  0  0  0
 39 36  1  0  0  0  0
 39 40  2  0  0  0  0
 40 41  1  0  0  0  0
 42 40  1  0  0  0  0
 43 42  2  0  0  0  0
 44 43  1  0  0  0  0
 44 39  1  0  0  0  0
M  END
>  <minimizedAffinity>
-5.61135197

$$$$

 OpenBabel03242522443D

 44 47  0  0  0  0  0  0  0  0999 V2000
   36.2620   29.9290   41.2350 C   0  0  0  0  0  0  0  0  0  0  0  0
   35.4330   29.9810   40.5060 H   0  0  0  0  0  0  0  0  0  0  0  0
   35.7480   30.3240   42.1410 H   0  0  0  0  0  0  0  0  0  0  0  0
   38.6340   30.6120   41.5210 C   0  0  0  0  0  0  0  0  0  0  0  0
   37.3570   30.8550   40.9720 C   0  0  0  0  0  0  0  0  0  0  0  0
   37.2140   31.9880   40.1790 C   0  0  0  0  0  0  0  0  0  0  0  0
   38.2780   32.7860   39.9730 N   0  0  0  0  0  0  0  0  0  0  0  0
   39.4640   32.5180   40.5090 C   0  0  0  0  0  0  0  0  0  0  0  0
   39.6670   31.4330   41.2900 N   0  0  0  0  0  0  0  0  0  0  0  0
   38.9540   29.8080   42.1550 H   0  0  0  0  0  0  0  0  0  0  0  0
   36.2400   32.1910   39.7490 H   0  0  0  0  0  0  0  0  0  0  0  0
   40.6190   33.4450   40.2160 C   0  0  0  0  0  0  0  0  0  0  0  0
   40.2040   34.4740   40.2540 H   0  0  0  0  0  0  0  0  0  0  0  0
   41.3480   33.3750   41.0360 H   0  0  0  0  0  0  0  0  0  0  0  0
   41.2160   33.2320   38.9100 C   0  0  0  0  0  0  0  0  0  0  0  0
   41.3660   32.0050   38.2780 C   0  0  0  0  0  0  0  0  0  0  0  0
   41.9680   32.2010   37.0670 C   0  0  0  0  0  0  0  0  0  0  0  0
   42.1660   33.5400   36.9940 N   0  0  0  0  0  0  0  0  0  0  0  0
   41.7220   34.1600   38.0890 N   0  0  0  0  0  0  0  0  0  0  0  0
   41.0780   31.0210   38.6310 H   0  0  0  0  0  0  0  0  0  0  0  0
   42.2710   31.5640   36.2650 H   0  0  0  0  0  0  0  0  0  0  0  0
   42.6040   34.1190   36.2250 H   0  0  0  0  0  0  0  0  0  0  0  0
   36.8470   28.5570   41.4080 C   0  0  0  0  0  0  0  0  0  0  0  0
   37.9390   28.6530   41.6130 H   0  0  0  0  0  0  0  0  0  0  0  0
   36.3060   28.1670   42.2870 H   0  0  0  0  0  0  0  0  0  0  0  0
   36.8390   26.2450   40.6050 C   0  0  0  0  0  0  0  0  0  0  0  0
   36.5690   27.5860   40.3450 C   0  0  0  0  0  0  0  0  0  0  0  0
   36.0560   28.0560   39.1940 C   0  0  0  0  0  0  0  0  0  0  0  0
   35.7710   27.1660   38.1910 C   0  0  0  0  0  0  0  0  0  0  0  0
   35.9880   25.8200   38.3280 C   0  0  0  0  0  0  0  0  0  0  0  0
   36.5210   25.3940   39.5410 C   0  0  0  0  0  0  0  0  0  0  0  0
   35.7950   29.0260   38.8860 H   0  0  0  0  0  0  0  0  0  0  0  0
   35.3560   27.3970   37.2030 H   0  0  0  0  0  0  0  0  0  0  0  0
   35.7960   25.0460   37.6050 H   0  0  0  0  0  0  0  0  0  0  0  0
   36.7130   24.3400   39.7050 H   0  0  0  0  0  0  0  0  0  0  0  0
   37.4580   25.6080   42.0740 S   0  0  0  0  0  0  0  0  0  0  0  0
   37.5900   24.0370   41.8880 O   0  0  0  0  0  0  0  0  0  0  0  0
   36.4290   25.7050   43.1450 O   0  0  0  0  0  0  0  0  0  0  0  0
   39.0000   25.9080   42.5850 C   0  0  0  0  0  0  0  0  0  0  0  0
   40.0180   24.7490   42.5090 C   0  0  0  0  0  0  0  0  0  0  0  0
   39.8060   23.7620   42.1480 H   0  0  0  0  0  0  0  0  0  0  0  0
   41.2500   25.0900   42.9530 C   0  0  0  0  0  3  0  0  0  0  0  0
   41.5810   26.3800   43.4390 C   0  0  0  0  0  3  0  0  0  0  0  0
   39.9580   27.2910   43.2730 S   0  0  0  0  0  0  0  0  0  0  0  0
  1 23  1  0  0  0  0
  1  3  1  0  0  0  0
  2  1  1  0  0  0  0
  4 10  1  0  0  0  0
  5  1  1  0  0  0  0
  5  4  2  0  0  0  0
  6  5  1  0  0  0  0
  7  6  2  0  0  0  0
  7  8  1  0  0  0  0
  8  9  2  0  0  0  0
  9  4  1  0  0  0  0
 11  6  1  0  0  0  0
 12 13  1  0  0  0  0
 12  8  1  0  0  0  0
 12 14  1  0  0  0  0
 15 12  1  0  0  0  0
 16 20  1  0  0  0  0
 16 15  1  0  0  0  0
 17 16  2  0  0  0  0
 18 17  1  0  0  0  0
 18 19  1  0  0  0  0
 19 15  2  0  0  0  0
 21 17  1  0  0  0  0
 22 18  1  0  0  0  0
 23 24  1  0  0  0  0
 23 25  1  0  0  0  0
 26 36  1  0  0  0  0
 27 26  1  0  0  0  0
 27 23  1  0  0  0  0
 28 27  2  0  0  0  0
 29 30  2  0  0  0  0
 29 28  1  0  0  0  0
 30 31  1  0  0  0  0
 31 35  1  0  0  0  0
 31 26  2  0  0  0  0
 32 28  1  0  0  0  0
 33 29  1  0  0  0  0
 34 30  1  0  0  0  0
 36 39  1  0  0  0  0
 36 38  2  0  0  0  0
 37 36  2  0  0  0  0
 39 44  1  0  0  0  0
 40 39  2  0  0  0  0
 40 42  1  0  0  0  0
 41 40  1  0  0  0  0
 42 43  2  0  0  0  0
 44 43  1  0  0  0  0
M  END
>  <minimizedAffinity>
-5.60315561

$$$$

 OpenBabel03242522443D

 44 47  0  0  0  0  0  0  0  0999 V2000
   37.4650   28.5040   43.0890 C   0  0  0  0  0  0  0  0  0  0  0  0
   36.5050   28.0590   42.7710 H   0  0  0  0  0  0  0  0  0  0  0  0
   37.1810   28.8730   44.1010 H   0  0  0  0  0  0  0  0  0  0  0  0
   39.1460   30.2410   42.5150 C   0  0  0  0  0  0  0  0  0  0  0  0
   37.8600   29.6900   42.3380 C   0  0  0  0  0  0  0  0  0  0  0  0
   37.0230   30.3180   41.4220 C   0  0  0  0  0  0  0  0  0  0  0  0
   37.4680   31.4010   40.7580 N   0  0  0  0  0  0  0  0  0  0  0  0
   38.6890   31.8860   40.9560 C   0  0  0  0  0  0  0  0  0  0  0  0
   39.5490   31.3220   41.8340 N   0  0  0  0  0  0  0  0  0  0  0  0
   39.9350   29.9180   43.1670 H   0  0  0  0  0  0  0  0  0  0  0  0
   36.0310   29.9080   41.2730 H   0  0  0  0  0  0  0  0  0  0  0  0
   39.1290   33.0900   40.1580 C   0  0  0  0  0  0  0  0  0  0  0  0
   38.2020   33.6440   39.9020 H   0  0  0  0  0  0  0  0  0  0  0  0
   39.7150   33.7530   40.8100 H   0  0  0  0  0  0  0  0  0  0  0  0
   39.8210   32.7490   38.9290 C   0  0  0  0  0  0  0  0  0  0  0  0
   41.1120   33.1340   38.5930 C   0  0  0  0  0  0  0  0  0  0  0  0
   41.4200   32.6260   37.3630 C   0  0  0  0  0  0  0  0  0  0  0  0
   40.3110   31.9450   36.9840 N   0  0  0  0  0  0  0  0  0  0  0  0
   39.3540   32.0150   37.9110 N   0  0  0  0  0  0  0  0  0  0  0  0
   41.8100   33.7370   39.1640 H   0  0  0  0  0  0  0  0  0  0  0  0
   42.2760   32.6630   36.7250 H   0  0  0  0  0  0  0  0  0  0  0  0
   40.1200   31.3990   36.0980 H   0  0  0  0  0  0  0  0  0  0  0  0
   38.6210   27.5460   43.0850 C   0  0  0  0  0  0  0  0  0  0  0  0
   39.5180   28.0640   42.6700 H   0  0  0  0  0  0  0  0  0  0  0  0
   38.7510   27.3120   44.1550 H   0  0  0  0  0  0  0  0  0  0  0  0
   39.4930   25.5910   41.8980 C   0  0  0  0  0  0  0  0  0  0  0  0
   38.3930   26.2450   42.4490 C   0  0  0  0  0  0  0  0  0  0  0  0
   37.1370   25.7630   42.4540 C   0  0  0  0  0  0  0  0  0  0  0  0
   36.9010   24.5410   41.8810 C   0  0  0  0  0  0  0  0  0  0  0  0
   37.9020   23.7990   41.3100 C   0  0  0  0  0  0  0  0  0  0  0  0
   39.1800   24.3490   41.3350 C   0  0  0  0  0  0  0  0  0  0  0  0
   36.2410   26.1450   42.8460 H   0  0  0  0  0  0  0  0  0  0  0  0
   35.9380   24.0230   41.8060 H   0  0  0  0  0  0  0  0  0  0  0  0
   37.8190   22.8330   40.8410 H   0  0  0  0  0  0  0  0  0  0  0  0
   40.0100   23.8060   40.8980 H   0  0  0  0  0  0  0  0  0  0  0  0
   41.1120   26.1610   41.9070 S   0  0  0  0  0  0  0  0  0  0  0  0
   41.9700   25.1540   41.0290 O   0  0  0  0  0  0  0  0  0  0  0  0
   41.7100   25.9760   43.2570 O   0  0  0  0  0  0  0  0  0  0  0  0
   41.5590   27.5600   41.1530 C   0  0  0  0  0  0  0  0  0  0  0  0
   40.6910   28.0460   39.9700 C   0  0  0  0  0  0  0  0  0  0  0  0
   39.8180   27.5470   39.5990 H   0  0  0  0  0  0  0  0  0  0  0  0
   41.1390   29.1960   39.4160 C   0  0  0  0  0  3  0  0  0  0  0  0
   42.2870   29.8930   39.8710 C   0  0  0  0  0  3  0  0  0  0  0  0
   42.8650   28.8170   41.2850 S   0  0  0  0  0  0  0  0  0  0  0  0
  1  3  1  0  0  0  0
  2  1  1  0  0  0  0
  4 10  1  0  0  0  0
  5  4  1  0  0  0  0
  5  1  1  0  0  0  0
  6  5  2  0  0  0  0
  7  8  2  0  0  0  0
  7  6  1  0  0  0  0
  8  9  1  0  0  0  0
  9  4  2  0  0  0  0
 11  6  1  0  0  0  0
 12 14  1  0  0  0  0
 12  8  1  0  0  0  0
 13 12  1  0  0  0  0
 15 12  1  0  0  0  0
 16 15  1  0  0  0  0
 16 20  1  0  0  0  0
 17 16  2  0  0  0  0
 18 17  1  0  0  0  0
 18 19  1  0  0  0  0
 19 15  2  0  0  0  0
 21 17  1  0  0  0  0
 22 18  1  0  0  0  0
 23  1  1  0  0  0  0
 23 25  1  0  0  0  0
 24 23  1  0  0  0  0
 26 36  1  0  0  0  0
 26 27  1  0  0  0  0
 27 28  2  0  0  0  0
 27 23  1  0  0  0  0
 28 32  1  0  0  0  0
 29 28  1  0  0  0  0
 30 31  1  0  0  0  0
 30 29  2  0  0  0  0
 31 26  2  0  0  0  0
 33 29  1  0  0  0  0
 34 30  1  0  0  0  0
 35 31  1  0  0  0  0
 36 38  2  0  0  0  0
 37 36  2  0  0  0  0
 39 44  1  0  0  0  0
 39 36  1  0  0  0  0
 40 39  2  0  0  0  0
 41 40  1  0  0  0  0
 42 43  2  0  0  0  0
 42 40  1  0  0  0  0
 43 44  1  0  0  0  0
M  END
>  <minimizedAffinity>
-5.59514713

$$$$

 OpenBabel03242522443D

 44 47  0  0  0  0  0  0  0  0999 V2000
   36.3480   30.4250   40.7460 C   0  0  0  0  0  0  0  0  0  0  0  0
   35.3340   30.7890   40.4950 H   0  0  0  0  0  0  0  0  0  0  0  0
   36.2450   30.3120   41.8480 H   0  0  0  0  0  0  0  0  0  0  0  0
   38.7290   31.1070   40.9460 C   0  0  0  0  0  0  0  0  0  0  0  0
   37.4080   31.4070   40.5510 C   0  0  0  0  0  0  0  0  0  0  0  0
   37.1880   32.6520   39.9720 C   0  0  0  0  0  0  0  0  0  0  0  0
   38.2240   33.4970   39.8160 N   0  0  0  0  0  0  0  0  0  0  0  0
   39.4530   33.1730   40.2010 C   0  0  0  0  0  0  0  0  0  0  0  0
   39.7310   31.9790   40.7720 N   0  0  0  0  0  0  0  0  0  0  0  0
   39.1090   30.2170   41.4090 H   0  0  0  0  0  0  0  0  0  0  0  0
   36.1790   32.9000   39.6630 H   0  0  0  0  0  0  0  0  0  0  0  0
   40.5700   34.1610   39.9720 C   0  0  0  0  0  0  0  0  0  0  0  0
   40.0800   35.1380   39.7740 H   0  0  0  0  0  0  0  0  0  0  0  0
   41.1350   34.2820   40.9070 H   0  0  0  0  0  0  0  0  0  0  0  0
   41.4170   33.8290   38.8400 C   0  0  0  0  0  0  0  0  0  0  0  0
   42.7670   34.1310   38.7220 C   0  0  0  0  0  0  0  0  0  0  0  0
   43.2230   33.6590   37.5230 C   0  0  0  0  0  0  0  0  0  0  0  0
   42.1400   33.0840   36.9460 N   0  0  0  0  0  0  0  0  0  0  0  0
   41.0610   33.1820   37.7240 N   0  0  0  0  0  0  0  0  0  0  0  0
   43.4090   34.6510   39.4250 H   0  0  0  0  0  0  0  0  0  0  0  0
   44.1660   33.6630   37.0230 H   0  0  0  0  0  0  0  0  0  0  0  0
   42.0500   32.5970   36.0110 H   0  0  0  0  0  0  0  0  0  0  0  0
   36.7460   29.1660   40.0310 C   0  0  0  0  0  0  0  0  0  0  0  0
   36.0970   29.0410   39.1320 H   0  0  0  0  0  0  0  0  0  0  0  0
   37.7930   29.3640   39.7460 H   0  0  0  0  0  0  0  0  0  0  0  0
   36.9080   26.7280   40.1670 C   0  0  0  0  0  0  0  0  0  0  0  0
   36.8090   27.9440   40.8380 C   0  0  0  0  0  0  0  0  0  0  0  0
   36.7830   28.0820   42.1760 C   0  0  0  0  0  0  0  0  0  0  0  0
   36.8590   26.9560   42.9540 C   0  0  0  0  0  0  0  0  0  0  0  0
   36.9640   25.7020   42.4110 C   0  0  0  0  0  0  0  0  0  0  0  0
   36.9860   25.6230   41.0220 C   0  0  0  0  0  0  0  0  0  0  0  0
   36.7300   28.9310   42.7930 H   0  0  0  0  0  0  0  0  0  0  0  0
   36.8470   26.9090   44.0490 H   0  0  0  0  0  0  0  0  0  0  0  0
   37.0320   24.7630   42.9330 H   0  0  0  0  0  0  0  0  0  0  0  0
   37.0670   24.6560   40.5380 H   0  0  0  0  0  0  0  0  0  0  0  0
   36.9810   26.5190   38.4650 S   0  0  0  0  0  0  0  0  0  0  0  0
   36.7520   24.9760   38.1690 O   0  0  0  0  0  0  0  0  0  0  0  0
   38.3750   26.7210   37.9860 O   0  0  0  0  0  0  0  0  0  0  0  0
   35.8220   27.1200   37.4530 C   0  0  0  0  0  0  0  0  0  0  0  0
   34.5280   26.2950   37.2750 C   0  0  0  0  0  0  0  0  0  0  0  0
   34.3190   25.3620   37.7590 H   0  0  0  0  0  0  0  0  0  0  0  0
   33.6430   26.8660   36.4250 C   0  0  0  0  0  3  0  0  0  0  0  0
   33.8730   28.0970   35.7620 C   0  0  0  0  0  3  0  0  0  0  0  0
   35.5690   28.5690   36.3860 S   0  0  0  0  0  0  0  0  0  0  0  0
  1  3  1  0  0  0  0
  2  1  1  0  0  0  0
  4 10  1  0  0  0  0
  5  1  1  0  0  0  0
  5  4  2  0  0  0  0
  6  5  1  0  0  0  0
  7  6  2  0  0  0  0
  7  8  1  0  0  0  0
  8  9  2  0  0  0  0
  9  4  1  0  0  0  0
 11  6  1  0  0  0  0
 12  8  1  0  0  0  0
 12 14  1  0  0  0  0
 13 12  1  0  0  0  0
 15 12  1  0  0  0  0
 16 15  1  0  0  0  0
 16 20  1  0  0  0  0
 17 16  2  0  0  0  0
 18 17  1  0  0  0  0
 18 19  1  0  0  0  0
 19 15  2  0  0  0  0
 21 17  1  0  0  0  0
 22 18  1  0  0  0  0
 23  1  1  0  0  0  0
 23 27  1  0  0  0  0
 24 23  1  0  0  0  0
 25 23  1  0  0  0  0
 26 27  2  0  0  0  0
 26 31  1  0  0  0  0
 27 28  1  0  0  0  0
 28 32  1  0  0  0  0
 28 29  2  0  0  0  0
 29 33  1  0  0  0  0
 30 34  1  0  0  0  0
 30 29  1  0  0  0  0
 31 30  2  0  0  0  0
 35 31  1  0  0  0  0
 36 26  1  0  0  0  0
 37 36  2  0  0  0  0
 38 36  2  0  0  0  0
 39 36  1  0  0  0  0
 40 39  2  0  0  0  0
 40 41  1  0  0  0  0
 42 40  1  0  0  0  0
 43 44  1  0  0  0  0
 43 42  2  0  0  0  0
 44 39  1  0  0  0  0
M  END
>  <minimizedAffinity>
-5.49712801

$$$$
