
 OpenBabel03252508073D

 41 44  0  0  0  0  0  0  0  0999 V2000
   45.0620   35.4710   43.3230 C   0  0  0  0  0  0  0  0  0  0  0  0
   45.5030   34.1580   43.3690 C   0  0  0  0  0  0  0  0  0  0  0  0
   45.4920   33.4690   44.5560 C   0  0  0  0  0  0  0  0  0  0  0  0
   45.0270   34.1410   45.6680 N   0  0  0  0  0  0  0  0  0  0  0  0
   44.6030   35.4030   45.6230 C   0  0  0  0  0  0  0  0  0  0  0  0
   44.6250   36.0590   44.4440 N   0  0  0  0  0  0  0  0  0  0  0  0
   45.0710   36.0240   42.3750 H   0  0  0  0  0  0  0  0  0  0  0  0
   44.2500   35.8820   46.5230 H   0  0  0  0  0  0  0  0  0  0  0  0
   45.9070   32.1330   44.7630 C   0  0  0  0  0  0  0  0  0  0  0  0
   45.6380   31.0830   43.8840 C   0  0  0  0  0  0  0  0  0  0  0  0
   45.9820   29.7770   44.1160 C   0  0  0  0  0  0  0  0  0  0  0  0
   46.6340   29.4400   45.2750 C   0  0  0  0  0  0  0  0  0  0  0  0
   46.9230   30.4990   46.1900 C   0  0  0  0  0  0  0  0  0  0  0  0
   47.5720   30.1660   47.3500 C   0  0  0  0  0  0  0  0  0  0  0  0
   47.8820   31.1420   48.2740 C   0  0  0  0  0  0  0  0  0  0  0  0
   47.5270   32.4740   48.0150 C   0  0  0  0  0  0  0  0  0  0  0  0
   46.8610   32.7620   46.8110 C   0  0  0  0  0  0  0  0  0  0  0  0
   46.5600   31.7770   45.9110 C   0  0  0  0  0  0  0  0  0  0  0  0
   45.1250   31.2980   42.9570 H   0  0  0  0  0  0  0  0  0  0  0  0
   45.7360   29.0120   43.3770 H   0  0  0  0  0  0  0  0  0  0  0  0
   46.9080   28.4300   45.4710 H   0  0  0  0  0  0  0  0  0  0  0  0
   47.8390   29.1300   47.5300 H   0  0  0  0  0  0  0  0  0  0  0  0
   48.3960   30.8150   49.1730 H   0  0  0  0  0  0  0  0  0  0  0  0
   47.8120   33.1540   48.7910 H   0  0  0  0  0  0  0  0  0  0  0  0
   46.6990   33.8180   46.7880 H   0  0  0  0  0  0  0  0  0  0  0  0
   45.9340   33.6070   42.1920 O   0  0  0  0  0  0  0  0  0  0  0  0
   48.2250   32.5600   41.4760 O   0  0  0  0  0  0  0  0  0  0  0  0
   47.4750   33.8460   41.5310 P   0  0  1  0  0  0  0  0  0  0  0  0
   47.3620   34.4200   39.9430 O   0  0  0  0  0  0  0  0  0  0  0  0
   47.3700   33.5280   38.8320 C   0  0  0  0  0  0  0  0  0  0  0  0
   46.9280   32.2700   38.3090 C   0  0  0  0  0  0  0  0  0  0  0  0
   46.3530   31.8310   39.0990 H   0  0  0  0  0  0  0  0  0  0  0  0
   47.3560   32.0350   37.0340 C   0  0  0  0  0  3  0  0  0  0  0  0
   48.1200   32.8930   36.3250 C   0  0  0  0  0  3  0  0  0  0  0  0
   48.3830   34.2820   37.4210 S   0  0  0  0  0  0  0  0  0  0  0  0
   48.2820   34.9800   42.4630 O   0  0  0  0  0  0  0  0  0  0  0  0
   49.5660   35.4610   42.2580 C   0  0  0  0  0  0  0  0  0  0  0  0
   49.4100   36.5020   41.5920 O   0  0  0  0  0  0  0  0  0  0  0  0
   50.5400   34.5970   42.8740 N   0  0  0  0  0  0  0  0  0  0  0  0
   51.2550   33.9620   42.4470 H   0  0  0  0  0  0  0  0  0  0  0  0
   50.5550   34.5850   43.9180 H   0  0  0  0  0  0  0  0  0  0  0  0
  1  2  2  0  0  0  0
  1  6  1  0  0  0  0
  2  3  1  0  0  0  0
  3  9  1  0  0  0  0
  3  4  2  0  0  0  0
  5  4  1  0  0  0  0
  5  8  1  0  0  0  0
  6  5  2  0  0  0  0
  7  1  1  0  0  0  0
  9 18  1  0  0  0  0
 10 11  1  0  0  0  0
 10  9  2  0  0  0  0
 11 12  2  0  0  0  0
 12 21  1  0  0  0  0
 12 13  1  0  0  0  0
 13 14  1  0  0  0  0
 14 22  1  0  0  0  0
 14 15  2  0  0  0  0
 15 23  1  0  0  0  0
 16 15  1  0  0  0  0
 16 24  1  0  0  0  0
 17 16  2  0  0  0  0
 18 13  2  0  0  0  0
 18 17  1  0  0  0  0
 19 10  1  0  0  0  0
 20 11  1  0  0  0  0
 25 17  1  0  0  0  0
 26  2  1  0  0  0  0
 28 27  2  1  0  0  0
 28 26  1  0  0  0  0
 28 36  1  0  0  0  0
 29 28  1  0  0  0  0
 30 29  1  0  0  0  0
 31 30  2  0  0  0  0
 31 32  1  0  0  0  0
 33 31  1  0  0  0  0
 34 33  2  0  0  0  0
 34 35  1  0  0  0  0
 35 30  1  0  0  0  0
 37 36  1  0  0  0  0
 37 39  1  0  0  0  0
 38 37  2  0  0  0  0
 39 41  1  0  0  0  0
 40 39  1  0  0  0  0
M  END
>  <minimizedAffinity>
-6.32102442

>  <minimizedRMSD>
1.5152508

$$$$
