
 OpenBabel03242511433D

 31 33  0  0  0  0  0  0  0  0999 V2000
   36.2030   30.1300   38.9550 C   0  0  0  0  0  0  0  0  0  0  0  0
   35.7320   29.2360   37.9930 C   0  0  0  0  0  0  0  0  0  0  0  0
   36.0980   29.2570   36.6620 C   0  0  0  0  0  0  0  0  0  0  0  0
   36.9760   30.2210   36.2770 C   0  0  0  0  0  0  0  0  0  0  0  0
   37.4340   31.0900   37.2250 C   0  0  0  0  0  0  0  0  0  0  0  0
   37.0780   31.0860   38.5990 C   0  0  0  0  0  0  0  0  0  0  0  0
   35.0420   28.5380   38.4670 H   0  0  0  0  0  0  0  0  0  0  0  0
   35.6050   28.4710   36.1340 H   0  0  0  0  0  0  0  0  0  0  0  0
   37.2230   30.1920   35.2320 H   0  0  0  0  0  0  0  0  0  0  0  0
   38.1260   31.7930   36.7370 H   0  0  0  0  0  0  0  0  0  0  0  0
   38.0360   32.0400   39.2720 C   0  0  0  0  0  0  0  0  0  0  0  0
   37.6870   33.2820   39.6020 C   0  0  0  0  0  0  0  0  0  0  0  0
   36.7160   33.7600   39.3740 H   0  0  0  0  0  0  0  0  0  0  0  0
   38.4070   34.1600   40.2470 C   0  0  0  0  0  3  0  0  0  0  0  0
   39.6710   33.6680   40.5950 C   0  0  0  0  0  3  0  0  0  0  0  0
   39.6440   31.9160   39.9080 S   0  0  0  0  0  0  0  0  0  0  0  0
   35.8030   30.2030   40.3630 C   0  0  0  0  0  0  0  0  0  0  0  0
   36.5150   30.8330   40.8840 H   0  0  0  0  0  0  0  0  0  0  0  0
   34.8160   30.7470   40.3980 H   0  0  0  0  0  0  0  0  0  0  0  0
   35.5670   28.8650   40.9710 C   0  0  0  0  0  0  0  0  0  0  0  0
   35.6360   28.0840   40.2120 H   0  0  0  0  0  0  0  0  0  0  0  0
   34.6930   28.8420   41.6520 H   0  0  0  0  0  0  0  0  0  0  0  0
   38.6770   29.1260   42.9840 C   0  0  0  0  0  0  0  0  0  0  0  0
   38.9090   27.7930   43.3600 C   0  0  0  0  0  0  0  0  0  0  0  0
   37.9870   26.8700   42.9120 C   0  0  0  0  0  0  0  0  0  0  0  0
   36.9530   27.2640   42.1680 N   0  0  0  0  0  0  0  0  0  0  0  0
   36.7770   28.5710   41.8330 C   0  0  0  0  0  0  0  0  0  0  0  0
   37.6240   29.4870   42.2340 N   0  0  0  0  0  0  0  0  0  0  0  0
   39.3960   29.8780   43.3280 H   0  0  0  0  0  0  0  0  0  0  0  0
   39.7850   27.5700   43.9720 H   0  0  0  0  0  0  0  0  0  0  0  0
   38.1540   25.8360   43.1950 H   0  0  0  0  0  0  0  0  0  0  0  0
  1 17  1  0  0  0  0
  2  7  1  0  0  0  0
  2  1  2  0  0  0  0
  3  2  1  0  0  0  0
  4  3  2  0  0  0  0
  4  5  1  0  0  0  0
  5  6  2  0  0  0  0
  6  1  1  0  0  0  0
  6 11  1  0  0  0  0
  8  3  1  0  0  0  0
  9  4  1  0  0  0  0
 10  5  1  0  0  0  0
 11 12  2  0  0  0  0
 11 16  1  0  0  0  0
 12 14  1  0  0  0  0
 13 12  1  0  0  0  0
 14 15  2  0  0  0  0
 16 15  1  0  0  0  0
 17 19  1  0  0  0  0
 17 18  1  0  0  0  0
 17 20  1  0  0  0  0
 20 22  1  0  0  0  0
 20 27  1  0  0  0  0
 21 20  1  0  0  0  0
 23 29  1  0  0  0  0
 23 24  1  0  0  0  0
 24 30  1  0  0  0  0
 25 31  1  0  0  0  0
 25 24  2  0  0  0  0
 26 25  1  0  0  0  0
 27 26  2  0  0  0  0
 27 28  1  0  0  0  0
 28 23  2  0  0  0  0
M  END
>  <minimizedAffinity>
-5.35591459

$$$$

 OpenBabel03242511433D

 31 33  0  0  0  0  0  0  0  0999 V2000
   38.2210   26.5830   42.8800 C   0  0  0  0  0  0  0  0  0  0  0  0
   39.3630   26.7210   43.6690 C   0  0  0  0  0  0  0  0  0  0  0  0
   40.4170   25.8290   43.6800 C   0  0  0  0  0  0  0  0  0  0  0  0
   40.3200   24.7470   42.8630 C   0  0  0  0  0  0  0  0  0  0  0  0
   39.2010   24.6210   42.0930 C   0  0  0  0  0  0  0  0  0  0  0  0
   38.1070   25.5250   42.0590 C   0  0  0  0  0  0  0  0  0  0  0  0
   39.2770   27.6330   44.2600 H   0  0  0  0  0  0  0  0  0  0  0  0
   41.1690   26.1590   44.3620 H   0  0  0  0  0  0  0  0  0  0  0  0
   41.1650   24.0860   42.9140 H   0  0  0  0  0  0  0  0  0  0  0  0
   39.2940   23.6950   41.5040 H   0  0  0  0  0  0  0  0  0  0  0  0
   37.2660   25.1060   40.8770 C   0  0  0  0  0  0  0  0  0  0  0  0
   36.5840   23.9610   40.8620 C   0  0  0  0  0  0  0  0  0  0  0  0
   36.6050   23.1880   41.6520 H   0  0  0  0  0  0  0  0  0  0  0  0
   35.7740   23.5370   39.9280 C   0  0  0  0  0  3  0  0  0  0  0  0
   35.6620   24.4390   38.8630 C   0  0  0  0  0  3  0  0  0  0  0  0
   36.8000   25.8450   39.3800 S   0  0  0  0  0  0  0  0  0  0  0  0
   37.0430   27.4550   42.8730 C   0  0  0  0  0  0  0  0  0  0  0  0
   36.5710   27.3760   41.9000 H   0  0  0  0  0  0  0  0  0  0  0  0
   36.3100   27.0250   43.6150 H   0  0  0  0  0  0  0  0  0  0  0  0
   37.3400   28.8400   43.3300 C   0  0  0  0  0  0  0  0  0  0  0  0
   38.3650   28.9070   43.7010 H   0  0  0  0  0  0  0  0  0  0  0  0
   36.5390   29.2750   43.9580 H   0  0  0  0  0  0  0  0  0  0  0  0
   38.4230   31.1050   40.5940 C   0  0  0  0  0  0  0  0  0  0  0  0
   37.2700   31.1950   39.7980 C   0  0  0  0  0  0  0  0  0  0  0  0
   36.1790   30.4710   40.2330 C   0  0  0  0  0  0  0  0  0  0  0  0
   36.2580   29.7450   41.3470 N   0  0  0  0  0  0  0  0  0  0  0  0
   37.4040   29.6940   42.0810 C   0  0  0  0  0  0  0  0  0  0  0  0
   38.4690   30.3620   41.7110 N   0  0  0  0  0  0  0  0  0  0  0  0
   39.3030   31.6710   40.2690 H   0  0  0  0  0  0  0  0  0  0  0  0
   37.3020   31.8180   38.9020 H   0  0  0  0  0  0  0  0  0  0  0  0
   35.2800   30.5320   39.6270 H   0  0  0  0  0  0  0  0  0  0  0  0
  1  2  1  0  0  0  0
  2  3  2  0  0  0  0
  2  7  1  0  0  0  0
  3  8  1  0  0  0  0
  4  9  1  0  0  0  0
  4  3  1  0  0  0  0
  5  4  2  0  0  0  0
  6  5  1  0  0  0  0
  6  1  2  0  0  0  0
 10  5  1  0  0  0  0
 11  6  1  0  0  0  0
 12 11  2  0  0  0  0
 12 13  1  0  0  0  0
 14 12  1  0  0  0  0
 15 16  1  0  0  0  0
 15 14  2  0  0  0  0
 16 11  1  0  0  0  0
 17  1  1  0  0  0  0
 17 20  1  0  0  0  0
 17 19  1  0  0  0  0
 18 17  1  0  0  0  0
 20 21  1  0  0  0  0
 20 22  1  0  0  0  0
 23 28  1  0  0  0  0
 24 25  1  0  0  0  0
 24 23  2  0  0  0  0
 25 26  2  0  0  0  0
 26 27  1  0  0  0  0
 27 20  1  0  0  0  0
 28 27  2  0  0  0  0
 29 23  1  0  0  0  0
 30 24  1  0  0  0  0
 31 25  1  0  0  0  0
M  END
>  <minimizedAffinity>
-5.24225426

$$$$

 OpenBabel03242511433D

 31 33  0  0  0  0  0  0  0  0999 V2000
   38.8790   31.7430   40.7190 C   0  0  0  0  0  0  0  0  0  0  0  0
   39.2270   33.0750   40.9460 C   0  0  0  0  0  0  0  0  0  0  0  0
   38.5630   34.1590   40.4080 C   0  0  0  0  0  0  0  0  0  0  0  0
   37.5000   33.8950   39.6010 C   0  0  0  0  0  0  0  0  0  0  0  0
   37.1650   32.5900   39.3860 C   0  0  0  0  0  0  0  0  0  0  0  0
   37.8280   31.4590   39.9310 C   0  0  0  0  0  0  0  0  0  0  0  0
   40.0940   33.1060   41.6060 H   0  0  0  0  0  0  0  0  0  0  0  0
   39.0190   35.0670   40.7350 H   0  0  0  0  0  0  0  0  0  0  0  0
   37.0240   34.7730   39.2090 H   0  0  0  0  0  0  0  0  0  0  0  0
   36.2930   32.5680   38.7150 H   0  0  0  0  0  0  0  0  0  0  0  0
   36.9360   30.2780   39.6310 C   0  0  0  0  0  0  0  0  0  0  0  0
   35.8190   30.0380   40.3170 C   0  0  0  0  0  0  0  0  0  0  0  0
   35.4640   30.6160   41.1900 H   0  0  0  0  0  0  0  0  0  0  0  0
   34.9440   29.0940   40.0950 C   0  0  0  0  0  3  0  0  0  0  0  0
   35.2860   28.2890   39.0030 C   0  0  0  0  0  3  0  0  0  0  0  0
   36.9070   29.0420   38.4150 S   0  0  0  0  0  0  0  0  0  0  0  0
   39.5820   30.5520   41.2030 C   0  0  0  0  0  0  0  0  0  0  0  0
   39.3820   29.7390   40.5140 H   0  0  0  0  0  0  0  0  0  0  0  0
   40.6870   30.7660   41.1260 H   0  0  0  0  0  0  0  0  0  0  0  0
   39.3090   30.2580   42.6360 C   0  0  0  0  0  0  0  0  0  0  0  0
   38.6310   31.0040   43.0560 H   0  0  0  0  0  0  0  0  0  0  0  0
   40.2220   30.0140   43.2150 H   0  0  0  0  0  0  0  0  0  0  0  0
   36.8060   27.6490   43.4800 C   0  0  0  0  0  0  0  0  0  0  0  0
   37.0600   26.6600   42.5160 C   0  0  0  0  0  0  0  0  0  0  0  0
   38.0710   26.9360   41.6200 C   0  0  0  0  0  0  0  0  0  0  0  0
   38.7430   28.0850   41.7010 N   0  0  0  0  0  0  0  0  0  0  0  0
   38.4540   29.0100   42.6580 C   0  0  0  0  0  0  0  0  0  0  0  0
   37.5010   28.7960   43.5320 N   0  0  0  0  0  0  0  0  0  0  0  0
   36.0060   27.4520   44.2030 H   0  0  0  0  0  0  0  0  0  0  0  0
   36.4550   25.7510   42.5310 H   0  0  0  0  0  0  0  0  0  0  0  0
   38.2790   26.1800   40.8690 H   0  0  0  0  0  0  0  0  0  0  0  0
  1  2  1  0  0  0  0
  1 17  1  0  0  0  0
  2  7  1  0  0  0  0
  3  8  1  0  0  0  0
  3  2  2  0  0  0  0
  4  3  1  0  0  0  0
  5  4  2  0  0  0  0
  5  6  1  0  0  0  0
  6  1  2  0  0  0  0
  9  4  1  0  0  0  0
 10  5  1  0  0  0  0
 11  6  1  0  0  0  0
 11 12  2  0  0  0  0
 12 13  1  0  0  0  0
 14 12  1  0  0  0  0
 15 14  2  0  0  0  0
 16 15  1  0  0  0  0
 16 11  1  0  0  0  0
 17 20  1  0  0  0  0
 18 17  1  0  0  0  0
 19 17  1  0  0  0  0
 20 27  1  0  0  0  0
 20 21  1  0  0  0  0
 20 22  1  0  0  0  0
 23 28  1  0  0  0  0
 23 29  1  0  0  0  0
 24 30  1  0  0  0  0
 24 23  2  0  0  0  0
 25 26  2  0  0  0  0
 25 24  1  0  0  0  0
 26 27  1  0  0  0  0
 27 28  2  0  0  0  0
 31 25  1  0  0  0  0
M  END
>  <minimizedAffinity>
-5.20973492

$$$$

 OpenBabel03242511433D

 31 33  0  0  0  0  0  0  0  0999 V2000
   36.4130   26.1080   39.2080 C   0  0  0  0  0  0  0  0  0  0  0  0
   35.8160   24.9420   38.7270 C   0  0  0  0  0  0  0  0  0  0  0  0
   35.7620   23.7490   39.4190 C   0  0  0  0  0  0  0  0  0  0  0  0
   36.3370   23.7230   40.6510 C   0  0  0  0  0  0  0  0  0  0  0  0
   36.9160   24.8670   41.1150 C   0  0  0  0  0  0  0  0  0  0  0  0
   36.9800   26.1070   40.4270 C   0  0  0  0  0  0  0  0  0  0  0  0
   35.4110   25.1370   37.7330 H   0  0  0  0  0  0  0  0  0  0  0  0
   35.2510   23.0130   38.8400 H   0  0  0  0  0  0  0  0  0  0  0  0
   36.2680   22.7700   41.1420 H   0  0  0  0  0  0  0  0  0  0  0  0
   37.3270   24.6600   42.1150 H   0  0  0  0  0  0  0  0  0  0  0  0
   37.4620   27.1150   41.4420 C   0  0  0  0  0  0  0  0  0  0  0  0
   36.8480   27.2950   42.6110 C   0  0  0  0  0  0  0  0  0  0  0  0
   35.9170   26.7930   42.9340 H   0  0  0  0  0  0  0  0  0  0  0  0
   37.2200   28.0820   43.5850 C   0  0  0  0  0  3  0  0  0  0  0  0
   38.3990   28.7790   43.2940 C   0  0  0  0  0  3  0  0  0  0  0  0
   38.8310   28.1710   41.5660 S   0  0  0  0  0  0  0  0  0  0  0  0
   36.5620   27.3810   38.4980 C   0  0  0  0  0  0  0  0  0  0  0  0
   37.5330   27.7940   38.7470 H   0  0  0  0  0  0  0  0  0  0  0  0
   36.5940   27.1430   37.3960 H   0  0  0  0  0  0  0  0  0  0  0  0
   35.4070   28.2980   38.6970 C   0  0  0  0  0  0  0  0  0  0  0  0
   34.8340   28.0030   39.5780 H   0  0  0  0  0  0  0  0  0  0  0  0
   34.8430   28.5000   37.7650 H   0  0  0  0  0  0  0  0  0  0  0  0
   37.1370   31.5810   38.8140 C   0  0  0  0  0  0  0  0  0  0  0  0
   36.9750   31.9630   40.1560 C   0  0  0  0  0  0  0  0  0  0  0  0
   36.2760   31.0820   40.9540 C   0  0  0  0  0  0  0  0  0  0  0  0
   35.8020   29.9460   40.4420 N   0  0  0  0  0  0  0  0  0  0  0  0
   35.9880   29.6260   39.1320 C   0  0  0  0  0  0  0  0  0  0  0  0
   36.6440   30.4300   38.3310 N   0  0  0  0  0  0  0  0  0  0  0  0
   37.6880   32.2660   38.1600 H   0  0  0  0  0  0  0  0  0  0  0  0
   37.4010   32.9140   40.4810 H   0  0  0  0  0  0  0  0  0  0  0  0
   36.1440   31.3640   41.9940 H   0  0  0  0  0  0  0  0  0  0  0  0
  1  6  1  0  0  0  0
  2  1  2  0  0  0  0
  2  3  1  0  0  0  0
  3  4  2  0  0  0  0
  4  5  1  0  0  0  0
  4  9  1  0  0  0  0
  5 10  1  0  0  0  0
  6  5  2  0  0  0  0
  6 11  1  0  0  0  0
  7  2  1  0  0  0  0
  8  3  1  0  0  0  0
 11 16  1  0  0  0  0
 11 12  2  0  0  0  0
 12 13  1  0  0  0  0
 12 14  1  0  0  0  0
 15 14  2  0  0  0  0
 16 15  1  0  0  0  0
 17 20  1  0  0  0  0
 17 18  1  0  0  0  0
 17  1  1  0  0  0  0
 19 17  1  0  0  0  0
 20 27  1  0  0  0  0
 20 21  1  0  0  0  0
 22 20  1  0  0  0  0
 23 24  1  0  0  0  0
 24 30  1  0  0  0  0
 24 25  2  0  0  0  0
 25 31  1  0  0  0  0
 26 25  1  0  0  0  0
 27 26  2  0  0  0  0
 28 23  2  0  0  0  0
 28 27  1  0  0  0  0
 29 23  1  0  0  0  0
M  END
>  <minimizedAffinity>
-5.1452136

$$$$

 OpenBabel03242511433D

 31 33  0  0  0  0  0  0  0  0999 V2000
   38.5780   28.0950   42.7710 C   0  0  0  0  0  0  0  0  0  0  0  0
   39.5130   27.3350   43.4740 C   0  0  0  0  0  0  0  0  0  0  0  0
   39.6040   25.9590   43.4160 C   0  0  0  0  0  0  0  0  0  0  0  0
   38.7110   25.3130   42.6190 C   0  0  0  0  0  0  0  0  0  0  0  0
   37.8010   26.0640   41.9330 C   0  0  0  0  0  0  0  0  0  0  0  0
   37.6910   27.4790   41.9700 C   0  0  0  0  0  0  0  0  0  0  0  0
   40.1430   28.0050   44.0600 H   0  0  0  0  0  0  0  0  0  0  0  0
   40.4010   25.6180   44.0390 H   0  0  0  0  0  0  0  0  0  0  0  0
   38.8250   24.2460   42.6140 H   0  0  0  0  0  0  0  0  0  0  0  0
   37.1670   25.3800   41.3480 H   0  0  0  0  0  0  0  0  0  0  0  0
   36.7380   27.8440   40.8580 C   0  0  0  0  0  0  0  0  0  0  0  0
   35.7440   28.7140   41.0310 C   0  0  0  0  0  0  0  0  0  0  0  0
   35.4730   29.2000   41.9860 H   0  0  0  0  0  0  0  0  0  0  0  0
   34.9120   29.1530   40.1240 C   0  0  0  0  0  3  0  0  0  0  0  0
   35.1570   28.6050   38.8590 C   0  0  0  0  0  3  0  0  0  0  0  0
   36.6280   27.4730   39.1680 S   0  0  0  0  0  0  0  0  0  0  0  0
   38.3870   29.5460   42.8420 C   0  0  0  0  0  0  0  0  0  0  0  0
   37.3610   29.7650   42.5670 H   0  0  0  0  0  0  0  0  0  0  0  0
   38.4930   29.8410   43.9250 H   0  0  0  0  0  0  0  0  0  0  0  0
   39.4260   30.3070   42.0950 C   0  0  0  0  0  0  0  0  0  0  0  0
   40.2070   29.6340   41.7380 H   0  0  0  0  0  0  0  0  0  0  0  0
   39.7450   31.2340   42.6110 H   0  0  0  0  0  0  0  0  0  0  0  0
   38.5060   30.7660   38.5270 C   0  0  0  0  0  0  0  0  0  0  0  0
   37.4820   31.7250   38.5970 C   0  0  0  0  0  0  0  0  0  0  0  0
   37.1520   32.1630   39.8630 C   0  0  0  0  0  0  0  0  0  0  0  0
   37.7920   31.6800   40.9270 N   0  0  0  0  0  0  0  0  0  0  0  0
   38.7790   30.7500   40.8000 C   0  0  0  0  0  0  0  0  0  0  0  0
   39.1290   30.3000   39.6210 N   0  0  0  0  0  0  0  0  0  0  0  0
   38.7860   30.4020   37.5320 H   0  0  0  0  0  0  0  0  0  0  0  0
   37.0170   32.0590   37.6680 H   0  0  0  0  0  0  0  0  0  0  0  0
   36.3620   32.9050   39.9320 H   0  0  0  0  0  0  0  0  0  0  0  0
  1 17  1  0  0  0  0
  1  2  1  0  0  0  0
  2  7  1  0  0  0  0
  3  2  2  0  0  0  0
  3  8  1  0  0  0  0
  4  3  1  0  0  0  0
  5  6  1  0  0  0  0
  5  4  2  0  0  0  0
  6  1  2  0  0  0  0
  9  4  1  0  0  0  0
 10  5  1  0  0  0  0
 11 12  2  0  0  0  0
 11  6  1  0  0  0  0
 12 13  1  0  0  0  0
 14 12  1  0  0  0  0
 15 16  1  0  0  0  0
 15 14  2  0  0  0  0
 16 11  1  0  0  0  0
 17 19  1  0  0  0  0
 18 17  1  0  0  0  0
 20 22  1  0  0  0  0
 20 17  1  0  0  0  0
 21 20  1  0  0  0  0
 23 24  2  0  0  0  0
 23 28  1  0  0  0  0
 24 25  1  0  0  0  0
 25 31  1  0  0  0  0
 25 26  2  0  0  0  0
 27 26  1  0  0  0  0
 27 20  1  0  0  0  0
 28 27  2  0  0  0  0
 29 23  1  0  0  0  0
 30 24  1  0  0  0  0
M  END
>  <minimizedAffinity>
-5.01618767

$$$$

 OpenBabel03242511433D

 31 33  0  0  0  0  0  0  0  0999 V2000
   36.2060   29.3380   39.1690 C   0  0  0  0  0  0  0  0  0  0  0  0
   35.4410   29.0910   38.0290 C   0  0  0  0  0  0  0  0  0  0  0  0
   35.1370   27.8320   37.5490 C   0  0  0  0  0  0  0  0  0  0  0  0
   35.6270   26.7710   38.2440 C   0  0  0  0  0  0  0  0  0  0  0  0
   36.3730   27.0210   39.3590 C   0  0  0  0  0  0  0  0  0  0  0  0
   36.6940   28.3030   39.8760 C   0  0  0  0  0  0  0  0  0  0  0  0
   35.1330   30.0430   37.5970 H   0  0  0  0  0  0  0  0  0  0  0  0
   34.5370   27.9110   36.6700 H   0  0  0  0  0  0  0  0  0  0  0  0
   35.3630   25.8180   37.8250 H   0  0  0  0  0  0  0  0  0  0  0  0
   36.6830   26.0550   39.7850 H   0  0  0  0  0  0  0  0  0  0  0  0
   37.2880   28.0570   41.2420 C   0  0  0  0  0  0  0  0  0  0  0  0
   36.5330   27.9030   42.3280 C   0  0  0  0  0  0  0  0  0  0  0  0
   35.4320   27.9970   42.3650 H   0  0  0  0  0  0  0  0  0  0  0  0
   36.9370   27.6160   43.5370 C   0  0  0  0  0  3  0  0  0  0  0  0
   38.3260   27.4700   43.6190 C   0  0  0  0  0  3  0  0  0  0  0  0
   38.8880   27.7830   41.8510 S   0  0  0  0  0  0  0  0  0  0  0  0
   36.6190   30.6440   39.6900 C   0  0  0  0  0  0  0  0  0  0  0  0
   35.8480   30.9960   40.3650 H   0  0  0  0  0  0  0  0  0  0  0  0
   37.5370   30.4720   40.3210 H   0  0  0  0  0  0  0  0  0  0  0  0
   37.0170   31.5980   38.6190 C   0  0  0  0  0  0  0  0  0  0  0  0
   36.2120   32.3090   38.4240 H   0  0  0  0  0  0  0  0  0  0  0  0
   37.4860   31.1040   37.7450 H   0  0  0  0  0  0  0  0  0  0  0  0
   38.8530   34.1610   40.5800 C   0  0  0  0  0  0  0  0  0  0  0  0
   40.1740   33.9970   40.1340 C   0  0  0  0  0  0  0  0  0  0  0  0
   40.3740   33.0130   39.1880 C   0  0  0  0  0  0  0  0  0  0  0  0
   39.3460   32.2860   38.7510 N   0  0  0  0  0  0  0  0  0  0  0  0
   38.0840   32.4880   39.2190 C   0  0  0  0  0  0  0  0  0  0  0  0
   37.8410   33.4090   40.1180 N   0  0  0  0  0  0  0  0  0  0  0  0
   38.6690   34.9360   41.3320 H   0  0  0  0  0  0  0  0  0  0  0  0
   40.9490   34.6420   40.5530 H   0  0  0  0  0  0  0  0  0  0  0  0
   41.3910   32.8760   38.8340 H   0  0  0  0  0  0  0  0  0  0  0  0
  1 17  1  0  0  0  0
  1  6  1  0  0  0  0
  2  1  2  0  0  0  0
  3  2  1  0  0  0  0
  3  4  2  0  0  0  0
  4  5  1  0  0  0  0
  5 10  1  0  0  0  0
  5  6  2  0  0  0  0
  6 11  1  0  0  0  0
  7  2  1  0  0  0  0
  8  3  1  0  0  0  0
  9  4  1  0  0  0  0
 11 16  1  0  0  0  0
 11 12  2  0  0  0  0
 12 13  1  0  0  0  0
 12 14  1  0  0  0  0
 14 15  2  0  0  0  0
 16 15  1  0  0  0  0
 17 19  1  0  0  0  0
 17 18  1  0  0  0  0
 20 27  1  0  0  0  0
 20 17  1  0  0  0  0
 21 20  1  0  0  0  0
 22 20  1  0  0  0  0
 23 29  1  0  0  0  0
 24 30  1  0  0  0  0
 24 23  1  0  0  0  0
 25 24  2  0  0  0  0
 26 25  1  0  0  0  0
 26 27  2  0  0  0  0
 27 28  1  0  0  0  0
 28 23  2  0  0  0  0
 31 25  1  0  0  0  0
M  END
>  <minimizedAffinity>
-4.99183702

$$$$

 OpenBabel03242511433D

 31 33  0  0  0  0  0  0  0  0999 V2000
   36.8640   26.6070   41.6740 C   0  0  0  0  0  0  0  0  0  0  0  0
   37.2160   25.4000   42.2770 C   0  0  0  0  0  0  0  0  0  0  0  0
   37.4080   24.2140   41.5980 C   0  0  0  0  0  0  0  0  0  0  0  0
   37.2340   24.2380   40.2490 C   0  0  0  0  0  0  0  0  0  0  0  0
   36.8920   25.4230   39.6660 C   0  0  0  0  0  0  0  0  0  0  0  0
   36.6950   26.6570   40.3410 C   0  0  0  0  0  0  0  0  0  0  0  0
   37.3110   25.5570   43.3520 H   0  0  0  0  0  0  0  0  0  0  0  0
   37.6750   23.4390   42.2820 H   0  0  0  0  0  0  0  0  0  0  0  0
   37.3930   23.2890   39.7740 H   0  0  0  0  0  0  0  0  0  0  0  0
   36.7930   25.2550   38.5830 H   0  0  0  0  0  0  0  0  0  0  0  0
   36.6050   27.7050   39.2580 C   0  0  0  0  0  0  0  0  0  0  0  0
   35.4420   28.2280   38.8700 C   0  0  0  0  0  0  0  0  0  0  0  0
   34.4450   27.9220   39.2360 H   0  0  0  0  0  0  0  0  0  0  0  0
   35.2580   29.1850   38.0000 C   0  0  0  0  0  3  0  0  0  0  0  0
   36.4590   29.6610   37.4610 C   0  0  0  0  0  3  0  0  0  0  0  0
   37.7560   28.6080   38.3270 S   0  0  0  0  0  0  0  0  0  0  0  0
   36.5800   27.8800   42.3430 C   0  0  0  0  0  0  0  0  0  0  0  0
   35.9080   28.4500   41.7120 H   0  0  0  0  0  0  0  0  0  0  0  0
   36.0030   27.6380   43.2810 H   0  0  0  0  0  0  0  0  0  0  0  0
   37.8110   28.5950   42.7780 C   0  0  0  0  0  0  0  0  0  0  0  0
   38.7020   28.0550   42.4510 H   0  0  0  0  0  0  0  0  0  0  0  0
   37.7740   28.9270   43.8350 H   0  0  0  0  0  0  0  0  0  0  0  0
   38.9700   31.5970   40.9260 C   0  0  0  0  0  0  0  0  0  0  0  0
   37.7680   32.1410   40.4440 C   0  0  0  0  0  0  0  0  0  0  0  0
   36.6190   31.4500   40.7710 C   0  0  0  0  0  0  0  0  0  0  0  0
   36.6920   30.3390   41.5040 N   0  0  0  0  0  0  0  0  0  0  0  0
   37.8860   29.8560   41.9450 C   0  0  0  0  0  0  0  0  0  0  0  0
   39.0060   30.4740   41.6610 N   0  0  0  0  0  0  0  0  0  0  0  0
   39.8950   32.1280   40.6790 H   0  0  0  0  0  0  0  0  0  0  0  0
   37.8110   33.0570   39.8520 H   0  0  0  0  0  0  0  0  0  0  0  0
   35.6820   31.8590   40.4060 H   0  0  0  0  0  0  0  0  0  0  0  0
  1  2  1  0  0  0  0
  1 17  1  0  0  0  0
  2  7  1  0  0  0  0
  3  2  2  0  0  0  0
  3  8  1  0  0  0  0
  4  3  1  0  0  0  0
  5  4  2  0  0  0  0
  5  6  1  0  0  0  0
  6  1  2  0  0  0  0
  9  4  1  0  0  0  0
 10  5  1  0  0  0  0
 11  6  1  0  0  0  0
 12 13  1  0  0  0  0
 12 11  2  0  0  0  0
 14 12  1  0  0  0  0
 15 14  2  0  0  0  0
 15 16  1  0  0  0  0
 16 11  1  0  0  0  0
 17 20  1  0  0  0  0
 17 19  1  0  0  0  0
 18 17  1  0  0  0  0
 20 22  1  0  0  0  0
 21 20  1  0  0  0  0
 23 28  1  0  0  0  0
 24 25  1  0  0  0  0
 24 23  2  0  0  0  0
 25 26  2  0  0  0  0
 26 27  1  0  0  0  0
 27 20  1  0  0  0  0
 28 27  2  0  0  0  0
 29 23  1  0  0  0  0
 30 24  1  0  0  0  0
 31 25  1  0  0  0  0
M  END
>  <minimizedAffinity>
-4.95223045

$$$$

 OpenBabel03242511433D

 31 33  0  0  0  0  0  0  0  0999 V2000
   37.6570   29.8850   42.0820 C   0  0  0  0  0  0  0  0  0  0  0  0
   36.5270   30.2640   41.3580 C   0  0  0  0  0  0  0  0  0  0  0  0
   36.5140   31.2450   40.3870 C   0  0  0  0  0  0  0  0  0  0  0  0
   37.6900   31.8780   40.1320 C   0  0  0  0  0  0  0  0  0  0  0  0
   38.7910   31.5000   40.8420 C   0  0  0  0  0  0  0  0  0  0  0  0
   38.8330   30.4910   41.8400 C   0  0  0  0  0  0  0  0  0  0  0  0
   35.6780   29.6640   41.6880 H   0  0  0  0  0  0  0  0  0  0  0  0
   35.5320   31.3440   39.9800 H   0  0  0  0  0  0  0  0  0  0  0  0
   37.6200   32.6330   39.3710 H   0  0  0  0  0  0  0  0  0  0  0  0
   39.6410   32.1140   40.5070 H   0  0  0  0  0  0  0  0  0  0  0  0
   40.2970   30.2590   42.1270 C   0  0  0  0  0  0  0  0  0  0  0  0
   41.0360   31.1360   42.8030 C   0  0  0  0  0  0  0  0  0  0  0  0
   40.6940   32.1240   43.1630 H   0  0  0  0  0  0  0  0  0  0  0  0
   42.2840   31.0030   43.1660 C   0  0  0  0  0  3  0  0  0  0  0  0
   42.8340   29.7800   42.7650 C   0  0  0  0  0  3  0  0  0  0  0  0
   41.4020   28.9480   41.8720 S   0  0  0  0  0  0  0  0  0  0  0  0
   37.7220   28.9030   43.1680 C   0  0  0  0  0  0  0  0  0  0  0  0
   38.7570   28.8100   43.4770 H   0  0  0  0  0  0  0  0  0  0  0  0
   37.1690   29.3450   44.0460 H   0  0  0  0  0  0  0  0  0  0  0  0
   37.0350   27.6240   42.8380 C   0  0  0  0  0  0  0  0  0  0  0  0
   36.7840   27.5890   41.7770 H   0  0  0  0  0  0  0  0  0  0  0  0
   36.2390   27.3560   43.5610 H   0  0  0  0  0  0  0  0  0  0  0  0
   40.0620   25.6430   43.6760 C   0  0  0  0  0  0  0  0  0  0  0  0
   39.8480   24.4480   42.9700 C   0  0  0  0  0  0  0  0  0  0  0  0
   38.6750   24.3750   42.2470 C   0  0  0  0  0  0  0  0  0  0  0  0
   37.8260   25.4010   42.2450 N   0  0  0  0  0  0  0  0  0  0  0  0
   38.0840   26.5390   42.9480 C   0  0  0  0  0  0  0  0  0  0  0  0
   39.1830   26.6570   43.6520 N   0  0  0  0  0  0  0  0  0  0  0  0
   40.9860   25.7240   44.2580 H   0  0  0  0  0  0  0  0  0  0  0  0
   40.6050   23.6630   43.0340 H   0  0  0  0  0  0  0  0  0  0  0  0
   38.4980   23.4560   41.6970 H   0  0  0  0  0  0  0  0  0  0  0  0
  1 17  1  0  0  0  0
  2  7  1  0  0  0  0
  2  1  2  0  0  0  0
  3  2  1  0  0  0  0
  4  3  2  0  0  0  0
  4  5  1  0  0  0  0
  5  6  2  0  0  0  0
  6  1  1  0  0  0  0
  6 11  1  0  0  0  0
  8  3  1  0  0  0  0
  9  4  1  0  0  0  0
 10  5  1  0  0  0  0
 11 12  2  0  0  0  0
 12 13  1  0  0  0  0
 12 14  1  0  0  0  0
 15 14  2  0  0  0  0
 16 11  1  0  0  0  0
 16 15  1  0  0  0  0
 17 18  1  0  0  0  0
 17 19  1  0  0  0  0
 20 27  1  0  0  0  0
 20 17  1  0  0  0  0
 20 22  1  0  0  0  0
 21 20  1  0  0  0  0
 23 29  1  0  0  0  0
 24 30  1  0  0  0  0
 24 23  2  0  0  0  0
 25 24  1  0  0  0  0
 26 25  2  0  0  0  0
 26 27  1  0  0  0  0
 27 28  2  0  0  0  0
 28 23  1  0  0  0  0
 31 25  1  0  0  0  0
M  END
>  <minimizedAffinity>
-4.9299612

$$$$

 OpenBabel03242511433D

 31 33  0  0  0  0  0  0  0  0999 V2000
   36.3740   29.4370   40.8000 C   0  0  0  0  0  0  0  0  0  0  0  0
   36.7280   30.7450   41.1280 C   0  0  0  0  0  0  0  0  0  0  0  0
   36.9630   31.7460   40.2060 C   0  0  0  0  0  0  0  0  0  0  0  0
   36.8410   31.4170   38.8920 C   0  0  0  0  0  0  0  0  0  0  0  0
   36.4930   30.1350   38.5800 C   0  0  0  0  0  0  0  0  0  0  0  0
   36.2390   29.0910   39.5080 C   0  0  0  0  0  0  0  0  0  0  0  0
   36.7830   30.8350   42.2130 H   0  0  0  0  0  0  0  0  0  0  0  0
   37.2130   32.6540   40.7080 H   0  0  0  0  0  0  0  0  0  0  0  0
   37.0390   32.2310   38.2210 H   0  0  0  0  0  0  0  0  0  0  0  0
   36.4440   30.0530   37.4830 H   0  0  0  0  0  0  0  0  0  0  0  0
   35.6350   27.9660   38.7020 C   0  0  0  0  0  0  0  0  0  0  0  0
   34.5580   28.1380   37.9370 C   0  0  0  0  0  0  0  0  0  0  0  0
   33.9690   29.0700   37.8560 H   0  0  0  0  0  0  0  0  0  0  0  0
   34.0000   27.2580   37.1500 C   0  0  0  0  0  3  0  0  0  0  0  0
   34.6630   26.0250   37.1650 C   0  0  0  0  0  3  0  0  0  0  0  0
   36.0720   26.3200   38.3780 S   0  0  0  0  0  0  0  0  0  0  0  0
   36.1770   28.3170   41.7240 C   0  0  0  0  0  0  0  0  0  0  0  0
   35.1350   28.3050   42.0230 H   0  0  0  0  0  0  0  0  0  0  0  0
   36.3470   27.3700   41.1370 H   0  0  0  0  0  0  0  0  0  0  0  0
   37.1630   28.3030   42.8390 C   0  0  0  0  0  0  0  0  0  0  0  0
   36.6500   28.2560   43.8020 H   0  0  0  0  0  0  0  0  0  0  0  0
   37.9650   29.0580   42.7240 H   0  0  0  0  0  0  0  0  0  0  0  0
   39.5550   25.4850   43.1970 C   0  0  0  0  0  0  0  0  0  0  0  0
   38.8960   24.4400   42.5280 C   0  0  0  0  0  0  0  0  0  0  0  0
   37.6630   24.7480   41.9920 C   0  0  0  0  0  0  0  0  0  0  0  0
   37.1650   25.9780   42.1240 N   0  0  0  0  0  0  0  0  0  0  0  0
   37.8470   26.9540   42.7840 C   0  0  0  0  0  0  0  0  0  0  0  0
   39.0220   26.7110   43.3120 N   0  0  0  0  0  0  0  0  0  0  0  0
   40.5350   25.2630   43.6310 H   0  0  0  0  0  0  0  0  0  0  0  0
   39.3870   23.4660   42.4730 H   0  0  0  0  0  0  0  0  0  0  0  0
   37.1430   23.9500   41.4720 H   0  0  0  0  0  0  0  0  0  0  0  0
  1  2  1  0  0  0  0
  1 17  1  0  0  0  0
  2  7  1  0  0  0  0
  3  8  1  0  0  0  0
  3  2  2  0  0  0  0
  4  3  1  0  0  0  0
  5  4  2  0  0  0  0
  5  6  1  0  0  0  0
  6  1  2  0  0  0  0
  9  4  1  0  0  0  0
 10  5  1  0  0  0  0
 11  6  1  0  0  0  0
 12 11  2  0  0  0  0
 13 12  1  0  0  0  0
 14 15  2  0  0  0  0
 14 12  1  0  0  0  0
 15 16  1  0  0  0  0
 16 11  1  0  0  0  0
 17 18  1  0  0  0  0
 17 20  1  0  0  0  0
 19 17  1  0  0  0  0
 20 21  1  0  0  0  0
 22 20  1  0  0  0  0
 23 28  1  0  0  0  0
 23 29  1  0  0  0  0
 24 23  2  0  0  0  0
 25 26  2  0  0  0  0
 25 24  1  0  0  0  0
 26 27  1  0  0  0  0
 27 20  1  0  0  0  0
 27 28  2  0  0  0  0
 30 24  1  0  0  0  0
 31 25  1  0  0  0  0
M  END
>  <minimizedAffinity>
-4.90320921

$$$$
