
 OpenBabel03252505513D

 22 23  0  0  0  0  0  0  0  0999 V2000
   44.6900   35.1590   45.1150 C   0  0  0  0  0  0  0  0  0  0  0  0
   45.4070   34.9230   43.9430 C   0  0  0  0  0  0  0  0  0  0  0  0
   46.3770   33.9020   43.9620 C   0  0  0  0  0  0  0  0  0  0  0  0
   46.5660   33.2040   45.1070 N   0  0  0  0  0  0  0  0  0  0  0  0
   45.8550   33.4630   46.2110 C   0  0  0  0  0  0  0  0  0  0  0  0
   44.9170   34.4320   46.2380 N   0  0  0  0  0  0  0  0  0  0  0  0
   43.9430   35.9380   45.1150 H   0  0  0  0  0  0  0  0  0  0  0  0
   46.9060   33.7490   43.0500 H   0  0  0  0  0  0  0  0  0  0  0  0
   45.0880   35.7730   42.7480 C   0  0  0  0  0  0  0  0  0  0  0  0
   45.3800   37.0530   43.1170 F   0  0  0  0  0  0  0  0  0  0  0  0
   43.7190   35.6370   42.5350 F   0  0  0  0  0  0  0  0  0  0  0  0
   45.7980   35.2930   41.6820 F   0  0  0  0  0  0  0  0  0  0  0  0
   46.0170   32.7730   47.3980 O   0  0  0  0  0  0  0  0  0  0  0  0
   47.1720   32.0080   47.6730 C   0  0  0  0  0  0  0  0  0  0  0  0
   47.9450   32.1350   46.8700 H   0  0  0  0  0  0  0  0  0  0  0  0
   47.5960   32.1990   48.6740 H   0  0  0  0  0  0  0  0  0  0  0  0
   46.7580   30.5810   47.5940 C   0  0  0  0  0  0  0  0  0  0  0  0
   47.4500   29.4860   47.2700 C   0  0  0  0  0  0  0  0  0  0  0  0
   48.4950   29.6060   47.0130 H   0  0  0  0  0  0  0  0  0  0  0  0
   46.8680   28.2470   47.2580 C   0  0  0  0  0  3  0  0  0  0  0  0
   45.4640   28.2620   47.6250 C   0  0  0  0  0  3  0  0  0  0  0  0
   45.1460   30.0840   47.9480 S   0  0  0  0  0  0  0  0  0  0  0  0
  1  6  1  0  0  0  0
  2  3  1  0  0  0  0
  2  1  2  0  0  0  0
  3  4  2  0  0  0  0
  4  5  1  0  0  0  0
  5  6  2  0  0  0  0
  5 13  1  0  0  0  0
  7  1  1  0  0  0  0
  8  3  1  0  0  0  0
  9 10  1  0  0  0  0
  9  2  1  0  0  0  0
 11  9  1  0  0  0  0
 12  9  1  0  0  0  0
 13 14  1  0  0  0  0
 14 16  1  0  0  0  0
 15 14  1  0  0  0  0
 17 14  1  0  0  0  0
 17 22  1  0  0  0  0
 18 17  2  0  0  0  0
 19 18  1  0  0  0  0
 20 18  1  0  0  0  0
 20 21  2  0  0  0  0
 21 22  1  0  0  0  0
M  END
>  <minimizedAffinity>
-4.50466204

>  <minimizedRMSD>
2.44012928

$$$$
