
 OpenBabel03242517363D

 20 21  0  0  0  0  0  0  0  0999 V2000
   36.8240   27.6190   42.1720 C   0  0  0  0  0  3  0  0  0  0  0  0
   36.3970   27.8970   40.9650 C   0  0  0  0  0  3  0  0  0  0  0  0
   38.8980   26.8870   43.3630 C   0  0  0  0  0  0  0  0  0  0  0  0
   37.8050   26.6200   42.5390 C   0  0  0  0  0  0  0  0  0  0  0  0
   37.6740   25.3260   42.0580 C   0  0  0  0  0  0  0  0  0  0  0  0
   38.6000   24.3750   42.4010 N   0  0  0  0  0  0  0  0  0  0  0  0
   39.6450   24.6920   43.2090 C   0  0  0  0  0  0  0  0  0  0  0  0
   39.7780   25.9460   43.6780 N   0  0  0  0  0  0  0  0  0  0  0  0
   38.9860   27.9100   43.7320 H   0  0  0  0  0  0  0  0  0  0  0  0
   36.8510   25.0320   41.4090 H   0  0  0  0  0  0  0  0  0  0  0  0
   40.2880   23.8640   43.3970 H   0  0  0  0  0  0  0  0  0  0  0  0
   35.3770   28.9510   40.6870 C   0  0  0  0  0  0  0  0  0  0  0  0
   34.9030   29.2710   41.6470 H   0  0  0  0  0  0  0  0  0  0  0  0
   34.5980   28.5660   39.9990 H   0  0  0  0  0  0  0  0  0  0  0  0
   36.1080   30.1070   40.1200 C   0  0  0  0  0  0  0  0  0  0  0  0
   36.5890   31.2590   40.7430 C   0  0  0  0  0  0  0  0  0  0  0  0
   36.4110   31.3390   41.8020 H   0  0  0  0  0  0  0  0  0  0  0  0
   37.2430   32.1940   39.9910 C   0  0  0  0  0  3  0  0  0  0  0  0
   37.3940   31.9280   38.5850 C   0  0  0  0  0  3  0  0  0  0  0  0
   36.5360   30.2530   38.4310 S   0  0  0  0  0  0  0  0  0  0  0  0
  1  4  1  0  0  0  0
  2  1  2  0  0  0  0
  3  8  1  0  0  0  0
  3  9  1  0  0  0  0
  4  3  2  0  0  0  0
  5  6  2  0  0  0  0
  5  4  1  0  0  0  0
  6  7  1  0  0  0  0
  7 11  1  0  0  0  0
  7  8  2  0  0  0  0
 10  5  1  0  0  0  0
 12  2  1  0  0  0  0
 12 13  1  0  0  0  0
 14 12  1  0  0  0  0
 15 12  1  0  0  0  0
 15 16  2  0  0  0  0
 16 17  1  0  0  0  0
 18 16  1  0  0  0  0
 19 18  2  0  0  0  0
 20 19  1  0  0  0  0
 20 15  1  0  0  0  0
M  END
>  <minimizedAffinity>
-4.38731956

$$$$

 OpenBabel03242517363D

 20 21  0  0  0  0  0  0  0  0999 V2000
   36.8080   27.5980   42.1640 C   0  0  0  0  0  3  0  0  0  0  0  0
   36.3930   27.9040   40.9600 C   0  0  0  0  0  3  0  0  0  0  0  0
   37.7200   25.2720   42.0700 C   0  0  0  0  0  0  0  0  0  0  0  0
   37.7860   26.5900   42.5170 C   0  0  0  0  0  0  0  0  0  0  0  0
   38.8490   26.9300   43.3400 C   0  0  0  0  0  0  0  0  0  0  0  0
   39.7780   25.9800   43.6780 N   0  0  0  0  0  0  0  0  0  0  0  0
   39.6650   24.7090   43.2120 C   0  0  0  0  0  0  0  0  0  0  0  0
   38.6350   24.3750   42.4130 N   0  0  0  0  0  0  0  0  0  0  0  0
   36.8770   25.0220   41.4240 H   0  0  0  0  0  0  0  0  0  0  0  0
   38.9760   27.9360   43.7340 H   0  0  0  0  0  0  0  0  0  0  0  0
   40.4500   24.0740   43.5490 H   0  0  0  0  0  0  0  0  0  0  0  0
   35.3750   28.9650   40.6970 C   0  0  0  0  0  0  0  0  0  0  0  0
   34.9130   29.2840   41.6630 H   0  0  0  0  0  0  0  0  0  0  0  0
   34.5870   28.5870   40.0160 H   0  0  0  0  0  0  0  0  0  0  0  0
   36.1060   30.1190   40.1260 C   0  0  0  0  0  0  0  0  0  0  0  0
   36.5920   31.2710   40.7460 C   0  0  0  0  0  0  0  0  0  0  0  0
   36.4170   31.3520   41.8060 H   0  0  0  0  0  0  0  0  0  0  0  0
   37.2450   32.2030   39.9920 C   0  0  0  0  0  3  0  0  0  0  0  0
   37.3920   31.9360   38.5850 C   0  0  0  0  0  3  0  0  0  0  0  0
   36.5300   30.2620   38.4360 S   0  0  0  0  0  0  0  0  0  0  0  0
  1  4  1  0  0  0  0
  2  1  2  0  0  0  0
  3  8  2  0  0  0  0
  3  4  1  0  0  0  0
  4  5  2  0  0  0  0
  5  6  1  0  0  0  0
  5 10  1  0  0  0  0
  7 11  1  0  0  0  0
  7  6  2  0  0  0  0
  8  7  1  0  0  0  0
  9  3  1  0  0  0  0
 12  2  1  0  0  0  0
 12 13  1  0  0  0  0
 14 12  1  0  0  0  0
 15 12  1  0  0  0  0
 15 16  2  0  0  0  0
 16 17  1  0  0  0  0
 18 16  1  0  0  0  0
 19 18  2  0  0  0  0
 20 19  1  0  0  0  0
 20 15  1  0  0  0  0
M  END
>  <minimizedAffinity>
-4.38221645

$$$$

 OpenBabel03242517363D

 20 21  0  0  0  0  0  0  0  0999 V2000
   36.9700   29.1900   41.8150 C   0  0  0  0  0  3  0  0  0  0  0  0
   37.2700   28.4940   42.8840 C   0  0  0  0  0  3  0  0  0  0  0  0
   38.9140   30.7550   41.6490 C   0  0  0  0  0  0  0  0  0  0  0  0
   37.5850   30.4290   41.3840 C   0  0  0  0  0  0  0  0  0  0  0  0
   36.8330   31.3510   40.6720 C   0  0  0  0  0  0  0  0  0  0  0  0
   37.4090   32.5250   40.2610 N   0  0  0  0  0  0  0  0  0  0  0  0
   38.7100   32.7920   40.5470 C   0  0  0  0  0  0  0  0  0  0  0  0
   39.4430   31.9000   41.2380 N   0  0  0  0  0  0  0  0  0  0  0  0
   39.4900   30.0190   42.2110 H   0  0  0  0  0  0  0  0  0  0  0  0
   35.7890   31.1750   40.4220 H   0  0  0  0  0  0  0  0  0  0  0  0
   39.0310   33.7350   40.1710 H   0  0  0  0  0  0  0  0  0  0  0  0
   36.5750   27.2220   43.2450 C   0  0  0  0  0  0  0  0  0  0  0  0
   35.5630   27.2050   42.7740 H   0  0  0  0  0  0  0  0  0  0  0  0
   36.4730   27.1340   44.3450 H   0  0  0  0  0  0  0  0  0  0  0  0
   37.3790   26.1230   42.6640 C   0  0  0  0  0  0  0  0  0  0  0  0
   36.9710   24.9180   42.0910 C   0  0  0  0  0  0  0  0  0  0  0  0
   35.9090   24.7400   42.0570 H   0  0  0  0  0  0  0  0  0  0  0  0
   37.9190   24.0560   41.6180 C   0  0  0  0  0  3  0  0  0  0  0  0
   39.2970   24.4500   41.7430 C   0  0  0  0  0  3  0  0  0  0  0  0
   39.1250   26.1330   42.5820 S   0  0  0  0  0  0  0  0  0  0  0  0
  1  2  2  0  0  0  0
  2 12  1  0  0  0  0
  3  9  1  0  0  0  0
  4  3  1  0  0  0  0
  4  1  1  0  0  0  0
  5  4  2  0  0  0  0
  6  7  2  0  0  0  0
  6  5  1  0  0  0  0
  7  8  1  0  0  0  0
  8  3  2  0  0  0  0
 10  5  1  0  0  0  0
 11  7  1  0  0  0  0
 12 14  1  0  0  0  0
 13 12  1  0  0  0  0
 15 12  1  0  0  0  0
 16 15  2  0  0  0  0
 17 16  1  0  0  0  0
 18 19  2  0  0  0  0
 18 16  1  0  0  0  0
 19 20  1  0  0  0  0
 20 15  1  0  0  0  0
M  END
>  <minimizedAffinity>
-4.22457314

$$$$

 OpenBabel03242517363D

 20 21  0  0  0  0  0  0  0  0999 V2000
   36.2450   28.9150   41.1540 C   0  0  0  0  0  3  0  0  0  0  0  0
   36.9420   28.4720   42.1720 C   0  0  0  0  0  3  0  0  0  0  0  0
   36.6660   29.9330   38.9090 C   0  0  0  0  0  0  0  0  0  0  0  0
   36.5730   30.0340   40.2960 C   0  0  0  0  0  0  0  0  0  0  0  0
   36.8120   31.2790   40.8600 C   0  0  0  0  0  0  0  0  0  0  0  0
   37.1230   32.3420   40.0520 N   0  0  0  0  0  0  0  0  0  0  0  0
   37.1990   32.1860   38.7050 C   0  0  0  0  0  0  0  0  0  0  0  0
   36.9690   30.9800   38.1540 N   0  0  0  0  0  0  0  0  0  0  0  0
   36.4760   28.9470   38.4830 H   0  0  0  0  0  0  0  0  0  0  0  0
   36.7600   31.4460   41.9340 H   0  0  0  0  0  0  0  0  0  0  0  0
   37.4490   33.0880   38.1980 H   0  0  0  0  0  0  0  0  0  0  0  0
   36.5180   27.3050   43.0000 C   0  0  0  0  0  0  0  0  0  0  0  0
   35.4330   27.1040   42.8290 H   0  0  0  0  0  0  0  0  0  0  0  0
   36.6930   27.5070   44.0750 H   0  0  0  0  0  0  0  0  0  0  0  0
   37.2910   26.1390   42.5130 C   0  0  0  0  0  0  0  0  0  0  0  0
   36.8550   24.8750   42.1150 C   0  0  0  0  0  0  0  0  0  0  0  0
   35.7930   24.6990   42.1620 H   0  0  0  0  0  0  0  0  0  0  0  0
   37.7770   23.9580   41.6990 C   0  0  0  0  0  3  0  0  0  0  0  0
   39.1590   24.3580   41.6980 C   0  0  0  0  0  3  0  0  0  0  0  0
   39.0300   26.1320   42.3330 S   0  0  0  0  0  0  0  0  0  0  0  0
  1  2  2  0  0  0  0
  2 12  1  0  0  0  0
  3  4  1  0  0  0  0
  4  5  2  0  0  0  0
  4  1  1  0  0  0  0
  5 10  1  0  0  0  0
  6  5  1  0  0  0  0
  7  6  2  0  0  0  0
  8  7  1  0  0  0  0
  8  3  2  0  0  0  0
  9  3  1  0  0  0  0
 11  7  1  0  0  0  0
 12 14  1  0  0  0  0
 13 12  1  0  0  0  0
 15 12  1  0  0  0  0
 16 17  1  0  0  0  0
 16 15  2  0  0  0  0
 18 16  1  0  0  0  0
 19 18  2  0  0  0  0
 19 20  1  0  0  0  0
 20 15  1  0  0  0  0
M  END
>  <minimizedAffinity>
-4.22252941

$$$$

 OpenBabel03242517363D

 20 21  0  0  0  0  0  0  0  0999 V2000
   37.2890   29.6990   41.3590 C   0  0  0  0  0  3  0  0  0  0  0  0
   37.3180   29.1370   42.5430 C   0  0  0  0  0  3  0  0  0  0  0  0
   39.0590   31.4660   41.3730 C   0  0  0  0  0  0  0  0  0  0  0  0
   37.7940   31.0100   41.0060 C   0  0  0  0  0  0  0  0  0  0  0  0
   36.9970   31.8720   40.2670 C   0  0  0  0  0  0  0  0  0  0  0  0
   37.4700   33.1140   39.9300 N   0  0  0  0  0  0  0  0  0  0  0  0
   38.7120   33.5060   40.3150 C   0  0  0  0  0  0  0  0  0  0  0  0
   39.4890   32.6730   41.0320 N   0  0  0  0  0  0  0  0  0  0  0  0
   39.6720   30.7750   41.9540 H   0  0  0  0  0  0  0  0  0  0  0  0
   35.9970   31.5960   39.9400 H   0  0  0  0  0  0  0  0  0  0  0  0
   38.9550   34.4900   39.9890 H   0  0  0  0  0  0  0  0  0  0  0  0
   36.7680   27.7750   42.8080 C   0  0  0  0  0  0  0  0  0  0  0  0
   36.1690   27.4380   41.9270 H   0  0  0  0  0  0  0  0  0  0  0  0
   36.1260   27.7840   43.7110 H   0  0  0  0  0  0  0  0  0  0  0  0
   37.9320   26.8710   42.9530 C   0  0  0  0  0  0  0  0  0  0  0  0
   39.1120   27.0360   43.6800 C   0  0  0  0  0  0  0  0  0  0  0  0
   39.2120   27.9580   44.2260 H   0  0  0  0  0  0  0  0  0  0  0  0
   40.0480   26.0410   43.6550 C   0  0  0  0  0  3  0  0  0  0  0  0
   39.7540   24.8710   42.8700 C   0  0  0  0  0  3  0  0  0  0  0  0
   38.0510   25.3070   42.1810 S   0  0  0  0  0  0  0  0  0  0  0  0
  1  2  2  0  0  0  0
  2 12  1  0  0  0  0
  3  9  1  0  0  0  0
  4  1  1  0  0  0  0
  4  3  2  0  0  0  0
  5  4  1  0  0  0  0
  6  5  2  0  0  0  0
  6  7  1  0  0  0  0
  7  8  2  0  0  0  0
  8  3  1  0  0  0  0
 10  5  1  0  0  0  0
 11  7  1  0  0  0  0
 12 15  1  0  0  0  0
 12 14  1  0  0  0  0
 13 12  1  0  0  0  0
 15 16  2  0  0  0  0
 16 17  1  0  0  0  0
 18 16  1  0  0  0  0
 19 18  2  0  0  0  0
 20 19  1  0  0  0  0
 20 15  1  0  0  0  0
M  END
>  <minimizedAffinity>
-4.2025938

$$$$

 OpenBabel03242517363D

 20 21  0  0  0  0  0  0  0  0999 V2000
   38.8470   29.4220   42.3340 C   0  0  0  0  0  3  0  0  0  0  0  0
   38.0460   28.5440   42.8860 C   0  0  0  0  0  3  0  0  0  0  0  0
   37.2160   30.7500   40.9810 C   0  0  0  0  0  0  0  0  0  0  0  0
   38.4620   30.6020   41.5880 C   0  0  0  0  0  0  0  0  0  0  0  0
   39.3610   31.6500   41.4590 C   0  0  0  0  0  0  0  0  0  0  0  0
   39.0030   32.7700   40.7540 N   0  0  0  0  0  0  0  0  0  0  0  0
   37.7740   32.8610   40.1820 C   0  0  0  0  0  0  0  0  0  0  0  0
   36.8980   31.8460   40.3050 N   0  0  0  0  0  0  0  0  0  0  0  0
   36.5220   29.9160   41.0920 H   0  0  0  0  0  0  0  0  0  0  0  0
   40.3550   31.6170   41.9010 H   0  0  0  0  0  0  0  0  0  0  0  0
   37.6250   33.7800   39.6660 H   0  0  0  0  0  0  0  0  0  0  0  0
   38.5410   27.3530   43.6380 C   0  0  0  0  0  0  0  0  0  0  0  0
   37.9680   27.2510   44.5910 H   0  0  0  0  0  0  0  0  0  0  0  0
   39.6210   27.4580   43.8640 H   0  0  0  0  0  0  0  0  0  0  0  0
   38.2540   26.1710   42.7930 C   0  0  0  0  0  0  0  0  0  0  0  0
   37.0410   25.6990   42.2910 C   0  0  0  0  0  0  0  0  0  0  0  0
   36.1640   26.2680   42.5470 H   0  0  0  0  0  0  0  0  0  0  0  0
   37.0390   24.5700   41.5220 C   0  0  0  0  0  3  0  0  0  0  0  0
   38.3040   23.9300   41.2770 C   0  0  0  0  0  3  0  0  0  0  0  0
   39.4810   25.0630   42.2230 S   0  0  0  0  0  0  0  0  0  0  0  0
  1  2  2  0  0  0  0
  2 12  1  0  0  0  0
  3  9  1  0  0  0  0
  3  4  1  0  0  0  0
  4  1  1  0  0  0  0
  5  4  2  0  0  0  0
  5 10  1  0  0  0  0
  6  5  1  0  0  0  0
  7  8  1  0  0  0  0
  7  6  2  0  0  0  0
  8  3  2  0  0  0  0
 11  7  1  0  0  0  0
 12 14  1  0  0  0  0
 12 13  1  0  0  0  0
 15 12  1  0  0  0  0
 16 17  1  0  0  0  0
 16 15  2  0  0  0  0
 18 16  1  0  0  0  0
 19 18  2  0  0  0  0
 19 20  1  0  0  0  0
 20 15  1  0  0  0  0
M  END
>  <minimizedAffinity>
-4.03739262

$$$$

 OpenBabel03242517363D

 20 21  0  0  0  0  0  0  0  0999 V2000
   37.1370   30.8040   39.7010 C   0  0  0  0  0  3  0  0  0  0  0  0
   36.2960   30.4470   40.6410 C   0  0  0  0  0  3  0  0  0  0  0  0
   37.7350   33.1540   40.3150 C   0  0  0  0  0  0  0  0  0  0  0  0
   38.0510   31.9270   39.7340 C   0  0  0  0  0  0  0  0  0  0  0  0
   39.3090   31.7980   39.1650 C   0  0  0  0  0  0  0  0  0  0  0  0
   40.1790   32.8580   39.1920 N   0  0  0  0  0  0  0  0  0  0  0  0
   39.8170   34.0320   39.7730 C   0  0  0  0  0  0  0  0  0  0  0  0
   38.5980   34.1610   40.3270 N   0  0  0  0  0  0  0  0  0  0  0  0
   36.7410   33.2370   40.7570 H   0  0  0  0  0  0  0  0  0  0  0  0
   39.6370   30.8760   38.6900 H   0  0  0  0  0  0  0  0  0  0  0  0
   40.5830   34.7700   39.7260 H   0  0  0  0  0  0  0  0  0  0  0  0
   35.3900   29.2670   40.5130 C   0  0  0  0  0  0  0  0  0  0  0  0
   35.1590   29.0920   39.4340 H   0  0  0  0  0  0  0  0  0  0  0  0
   34.4470   29.4390   41.0700 H   0  0  0  0  0  0  0  0  0  0  0  0
   36.1420   28.0990   41.0240 C   0  0  0  0  0  0  0  0  0  0  0  0
   36.5720   27.8050   42.3190 C   0  0  0  0  0  0  0  0  0  0  0  0
   36.3300   28.5280   43.0790 H   0  0  0  0  0  0  0  0  0  0  0  0
   37.2590   26.6450   42.5400 C   0  0  0  0  0  3  0  0  0  0  0  0
   37.4980   25.7880   41.4080 C   0  0  0  0  0  3  0  0  0  0  0  0
   36.6710   26.7680   40.0220 S   0  0  0  0  0  0  0  0  0  0  0  0
  1  4  1  0  0  0  0
  1  2  2  0  0  0  0
  3  8  1  0  0  0  0
  3  9  1  0  0  0  0
  4  3  2  0  0  0  0
  5  6  2  0  0  0  0
  5  4  1  0  0  0  0
  6  7  1  0  0  0  0
  7  8  2  0  0  0  0
 10  5  1  0  0  0  0
 11  7  1  0  0  0  0
 12  2  1  0  0  0  0
 12 15  1  0  0  0  0
 12 14  1  0  0  0  0
 13 12  1  0  0  0  0
 15 16  2  0  0  0  0
 16 18  1  0  0  0  0
 16 17  1  0  0  0  0
 19 18  2  0  0  0  0
 20 15  1  0  0  0  0
 20 19  1  0  0  0  0
M  END
>  <minimizedAffinity>
-3.97526836

$$$$

 OpenBabel03242517363D

 20 21  0  0  0  0  0  0  0  0999 V2000
   36.8140   27.1040   42.1910 C   0  0  0  0  0  3  0  0  0  0  0  0
   37.1750   26.0410   41.5150 C   0  0  0  0  0  3  0  0  0  0  0  0
   37.6930   29.4390   42.0070 C   0  0  0  0  0  0  0  0  0  0  0  0
   36.7450   28.4650   41.6980 C   0  0  0  0  0  0  0  0  0  0  0  0
   35.6910   28.8400   40.8790 C   0  0  0  0  0  0  0  0  0  0  0  0
   35.6200   30.1270   40.4100 N   0  0  0  0  0  0  0  0  0  0  0  0
   36.5730   31.0350   40.7420 C   0  0  0  0  0  0  0  0  0  0  0  0
   37.5970   30.6750   41.5380 N   0  0  0  0  0  0  0  0  0  0  0  0
   38.5140   29.1260   42.6530 H   0  0  0  0  0  0  0  0  0  0  0  0
   34.9080   28.1430   40.5890 H   0  0  0  0  0  0  0  0  0  0  0  0
   36.3990   31.9930   40.3130 H   0  0  0  0  0  0  0  0  0  0  0  0
   37.2150   24.6740   42.1140 C   0  0  0  0  0  0  0  0  0  0  0  0
   36.3030   24.5160   42.7390 H   0  0  0  0  0  0  0  0  0  0  0  0
   38.1200   24.5510   42.7420 H   0  0  0  0  0  0  0  0  0  0  0  0
   37.1780   23.7170   40.9850 C   0  0  0  0  0  0  0  0  0  0  0  0
   38.1220   22.7740   40.5760 C   0  0  0  0  0  0  0  0  0  0  0  0
   39.0260   22.7190   41.1590 H   0  0  0  0  0  0  0  0  0  0  0  0
   37.8500   21.9960   39.4870 C   0  0  0  0  0  3  0  0  0  0  0  0
   36.5910   22.2010   38.8200 C   0  0  0  0  0  3  0  0  0  0  0  0
   35.8400   23.5800   39.8690 S   0  0  0  0  0  0  0  0  0  0  0  0
  2 12  1  0  0  0  0
  2  1  2  0  0  0  0
  3  9  1  0  0  0  0
  4  3  1  0  0  0  0
  4  1  1  0  0  0  0
  5  4  2  0  0  0  0
  6  7  2  0  0  0  0
  6  5  1  0  0  0  0
  7  8  1  0  0  0  0
  8  3  2  0  0  0  0
 10  5  1  0  0  0  0
 11  7  1  0  0  0  0
 12 13  1  0  0  0  0
 12 14  1  0  0  0  0
 15 12  1  0  0  0  0
 16 15  2  0  0  0  0
 16 17  1  0  0  0  0
 18 16  1  0  0  0  0
 19 18  2  0  0  0  0
 19 20  1  0  0  0  0
 20 15  1  0  0  0  0
M  END
>  <minimizedAffinity>
-3.94254899

$$$$

 OpenBabel03242517363D

 20 21  0  0  0  0  0  0  0  0999 V2000
   37.0180   25.1250   42.1840 C   0  0  0  0  0  3  0  0  0  0  0  0
   36.9260   26.4120   41.9550 C   0  0  0  0  0  3  0  0  0  0  0  0
   38.3030   23.3020   41.0520 C   0  0  0  0  0  0  0  0  0  0  0  0
   37.1510   24.0740   41.1970 C   0  0  0  0  0  0  0  0  0  0  0  0
   36.0930   23.8040   40.3410 C   0  0  0  0  0  0  0  0  0  0  0  0
   36.2130   22.8100   39.4040 N   0  0  0  0  0  0  0  0  0  0  0  0
   37.3600   22.0880   39.3080 C   0  0  0  0  0  0  0  0  0  0  0  0
   38.3890   22.3470   40.1360 N   0  0  0  0  0  0  0  0  0  0  0  0
   39.1250   23.5290   41.7330 H   0  0  0  0  0  0  0  0  0  0  0  0
   35.1580   24.3580   40.3860 H   0  0  0  0  0  0  0  0  0  0  0  0
   37.3210   21.3500   38.5420 H   0  0  0  0  0  0  0  0  0  0  0  0
   36.7910   27.4230   43.0460 C   0  0  0  0  0  0  0  0  0  0  0  0
   37.2110   27.0050   43.9930 H   0  0  0  0  0  0  0  0  0  0  0  0
   35.7260   27.6900   43.1990 H   0  0  0  0  0  0  0  0  0  0  0  0
   37.6120   28.5880   42.6450 C   0  0  0  0  0  0  0  0  0  0  0  0
   38.8980   28.9590   43.0400 C   0  0  0  0  0  0  0  0  0  0  0  0
   39.3870   28.3090   43.7460 H   0  0  0  0  0  0  0  0  0  0  0  0
   39.4480   30.0960   42.5190 C   0  0  0  0  0  3  0  0  0  0  0  0
   38.6540   30.8500   41.5850 C   0  0  0  0  0  3  0  0  0  0  0  0
   37.0790   29.8100   41.5150 S   0  0  0  0  0  0  0  0  0  0  0  0
  2  1  2  0  0  0  0
  2 12  1  0  0  0  0
  3  4  1  0  0  0  0
  3  9  1  0  0  0  0
  4  1  1  0  0  0  0
  5 10  1  0  0  0  0
  5  4  2  0  0  0  0
  6  5  1  0  0  0  0
  7  6  2  0  0  0  0
  7  8  1  0  0  0  0
  8  3  2  0  0  0  0
 11  7  1  0  0  0  0
 12 14  1  0  0  0  0
 12 13  1  0  0  0  0
 15 16  2  0  0  0  0
 15 12  1  0  0  0  0
 16 17  1  0  0  0  0
 18 16  1  0  0  0  0
 19 18  2  0  0  0  0
 20 19  1  0  0  0  0
 20 15  1  0  0  0  0
M  END
>  <minimizedAffinity>
-3.93449044

$$$$
