
 OpenBabel03252506343D

 30 32  0  0  1  0  0  0  0  0999 V2000
   44.4850   35.6240   45.0840 C   0  0  0  0  0  0  0  0  0  0  0  0
   45.1330   35.5930   43.8400 C   0  0  0  0  0  0  0  0  0  0  0  0
   46.0590   34.6200   43.5840 C   0  0  0  0  0  0  0  0  0  0  0  0
   46.2880   33.7310   44.5810 N   0  0  0  0  0  0  0  0  0  0  0  0
   45.6730   33.7600   45.7590 C   0  0  0  0  0  0  0  0  0  0  0  0
   44.7590   34.7060   46.0380 N   0  0  0  0  0  0  0  0  0  0  0  0
   46.0100   32.7650   46.7090 N   0  0  0  0  0  0  0  0  0  0  0  0
   45.2150   32.4720   47.9090 C   0  0  0  0  0  0  0  0  0  0  0  0
   46.2890   32.1670   48.9310 C   0  0  0  0  0  0  0  0  0  0  0  0
   47.5830   32.0360   48.1750 C   0  0  0  0  0  0  0  0  0  0  0  0
   47.1150   31.8520   46.7560 C   0  0  1  0  0  0  0  0  0  0  0  0
   43.7490   36.3810   45.3170 H   0  0  0  0  0  0  0  0  0  0  0  0
   46.5550   34.5990   42.6260 H   0  0  0  0  0  0  0  0  0  0  0  0
   44.6460   33.4060   48.1820 H   0  0  0  0  0  0  0  0  0  0  0  0
   44.5230   31.6270   47.7360 H   0  0  0  0  0  0  0  0  0  0  0  0
   46.3250   32.9250   49.7430 H   0  0  0  0  0  0  0  0  0  0  0  0
   46.0390   31.1770   49.3780 H   0  0  0  0  0  0  0  0  0  0  0  0
   48.1200   33.0060   48.2330 H   0  0  0  0  0  0  0  0  0  0  0  0
   48.2030   31.1840   48.5220 H   0  0  0  0  0  0  0  0  0  0  0  0
   47.9170   32.1400   46.0210 H   0  0  0  0  0  0  0  0  0  0  0  0
   44.7680   36.6150   42.8940 N   0  0  0  0  0  0  0  0  0  0  0  0
   44.5120   37.5620   43.1990 H   0  0  0  0  0  0  0  0  0  0  0  0
   44.7600   36.3960   41.8530 H   0  0  0  0  0  0  0  0  0  0  0  0
   46.6020   30.1280   46.5050 S   0  0  0  0  0  0  0  0  0  0  0  0
   45.4740   29.8720   45.2680 C   0  0  0  0  0  0  0  0  0  0  0  0
   45.2060   30.3320   43.9550 C   0  0  0  0  0  0  0  0  0  0  0  0
   45.9430   31.0560   43.6780 H   0  0  0  0  0  0  0  0  0  0  0  0
   44.1490   29.8700   43.2290 C   0  0  0  0  0  3  0  0  0  0  0  0
   43.2780   28.8460   43.8880 C   0  0  0  0  0  3  0  0  0  0  0  0
   44.0940   28.6280   45.5700 S   0  0  0  0  0  0  0  0  0  0  0  0
  1 12  1  0  0  0  0
  1  6  1  0  0  0  0
  2  1  2  0  0  0  0
  3  2  1  0  0  0  0
  3  4  2  0  0  0  0
  4  5  1  0  0  0  0
  5  6  2  0  0  0  0
  5  7  1  0  0  0  0
  7 11  1  0  0  0  0
  7  8  1  0  0  0  0
  8 14  1  0  0  0  0
  8  9  1  0  0  0  0
  9 17  1  0  0  0  0
  9 16  1  0  0  0  0
 10 18  1  0  0  0  0
 10 19  1  0  0  0  0
 10  9  1  0  0  0  0
 11 20  1  6  0  0  0
 11 10  1  0  0  0  0
 13  3  1  0  0  0  0
 15  8  1  0  0  0  0
 21 22  1  0  0  0  0
 21  2  1  0  0  0  0
 23 21  1  0  0  0  0
 24 11  1  0  0  0  0
 25 30  1  0  0  0  0
 25 24  1  0  0  0  0
 26 25  2  0  0  0  0
 27 26  1  0  0  0  0
 28 29  2  0  0  0  0
 28 26  1  0  0  0  0
 29 30  1  0  0  0  0
M  END
>  <minimizedAffinity>
-5.05118084

>  <minimizedRMSD>
0.683249533

$$$$
