
 OpenBabel03252506443D

 37 40  0  0  1  0  0  0  0  0999 V2000
   36.6670   29.2740   40.5700 N   0  0  1  0  0  0  0  0  0  0  0  0
   36.9230   30.7050   40.7600 C   0  0  0  0  0  0  0  0  0  0  0  0
   36.6000   31.5030   39.5340 C   0  0  0  0  0  0  0  0  0  0  0  0
   37.6560   31.1760   38.4960 C   0  0  0  0  0  0  0  0  0  0  0  0
   37.9970   29.7240   38.5290 C   0  0  0  0  0  0  0  0  0  0  0  0
   36.8760   28.9300   39.1870 C   0  0  2  0  0  0  0  0  0  0  0  0
   38.0200   30.8530   40.9610 H   0  0  0  0  0  0  0  0  0  0  0  0
   36.4030   31.0630   41.6740 H   0  0  0  0  0  0  0  0  0  0  0  0
   35.5730   31.3910   39.1920 H   0  0  0  0  0  0  0  0  0  0  0  0
   36.7230   32.5700   39.8150 H   0  0  0  0  0  0  0  0  0  0  0  0
   38.5930   31.7360   38.7720 H   0  0  0  0  0  0  0  0  0  0  0  0
   37.3460   31.5650   37.5210 H   0  0  0  0  0  0  0  0  0  0  0  0
   38.8920   29.5240   39.1500 H   0  0  0  0  0  0  0  0  0  0  0  0
   38.0970   29.2870   37.5060 H   0  0  0  0  0  0  0  0  0  0  0  0
   37.2640   27.8860   39.1990 H   0  0  0  0  0  0  0  0  0  0  0  0
   37.1220   27.4630   42.3460 C   0  0  1  0  0  0  0  0  0  0  0  0
   37.3110   28.8070   42.9150 C   0  0  0  0  0  0  0  0  0  0  0  0
   37.5440   28.5960   41.4660 C   0  0  2  0  0  0  0  0  0  0  0  0
   36.0710   27.1350   42.2270 H   0  0  0  0  0  0  0  0  0  0  0  0
   38.1890   28.9590   43.5880 H   0  0  0  0  0  0  0  0  0  0  0  0
   36.4190   29.3960   43.2660 H   0  0  0  0  0  0  0  0  0  0  0  0
   38.6340   28.5790   41.1710 H   0  0  0  0  0  0  0  0  0  0  0  0
   37.9190   25.0860   42.1550 C   0  0  0  0  0  0  0  0  0  0  0  0
   38.1030   26.3890   42.6560 C   0  0  0  0  0  0  0  0  0  0  0  0
   39.2400   26.6390   43.4420 C   0  0  0  0  0  0  0  0  0  0  0  0
   40.0980   25.6130   43.6790 N   0  0  0  0  0  0  0  0  0  0  0  0
   39.8890   24.3680   43.1780 C   0  0  0  0  0  0  0  0  0  0  0  0
   38.7940   24.0930   42.4100 N   0  0  0  0  0  0  0  0  0  0  0  0
   37.0280   24.9590   41.5580 H   0  0  0  0  0  0  0  0  0  0  0  0
   39.4100   27.6340   43.8440 H   0  0  0  0  0  0  0  0  0  0  0  0
   40.5700   23.5510   43.3640 H   0  0  0  0  0  0  0  0  0  0  0  0
   35.6550   28.9440   38.3720 C   0  0  0  0  0  0  0  0  0  0  0  0
   34.3720   28.9470   38.6840 C   0  0  0  0  0  0  0  0  0  0  0  0
   34.0900   28.9370   39.7280 H   0  0  0  0  0  0  0  0  0  0  0  0
   33.4310   28.9610   37.6930 C   0  0  0  0  0  3  0  0  0  0  0  0
   33.8690   28.9730   36.3840 C   0  0  0  0  0  3  0  0  0  0  0  0
   35.7630   28.9620   36.5050 S   0  0  0  0  0  0  0  0  0  0  0  0
  1  2  1  6  0  0  0
  1 18  1  0  0  0  0
  2  7  1  0  0  0  0
  2  8  1  0  0  0  0
  3 10  1  0  0  0  0
  3  2  1  0  0  0  0
  4  5  1  0  0  0  0
  4 11  1  0  0  0  0
  4  3  1  0  0  0  0
  5 13  1  0  0  0  0
  5  6  1  0  0  0  0
  6 15  1  1  0  0  0
  6  1  1  0  0  0  0
  9  3  1  0  0  0  0
 12  4  1  0  0  0  0
 14  5  1  0  0  0  0
 16 19  1  6  0  0  0
 16 24  1  0  0  0  0
 16 17  1  0  0  0  0
 17 21  1  0  0  0  0
 17 20  1  0  0  0  0
 18 22  1  6  0  0  0
 18 16  1  0  0  0  0
 18 17  1  0  0  0  0
 23 28  2  0  0  0  0
 23 24  1  0  0  0  0
 24 25  2  0  0  0  0
 25 26  1  0  0  0  0
 25 30  1  0  0  0  0
 27 31  1  0  0  0  0
 27 26  2  0  0  0  0
 28 27  1  0  0  0  0
 29 23  1  0  0  0  0
 32 33  2  0  0  0  0
 32  6  1  0  0  0  0
 33 34  1  0  0  0  0
 35 33  1  0  0  0  0
 36 37  1  0  0  0  0
 36 35  2  0  0  0  0
 37 32  1  0  0  0  0
M  END
>  <minimizedAffinity>
-5.03380728

$$$$

 OpenBabel03252506443D

 37 40  0  0  1  0  0  0  0  0999 V2000
   37.4030   28.0840   40.6960 N   0  0  1  0  0  0  0  0  0  0  0  0
   37.5180   29.3000   41.5080 C   0  0  0  0  0  0  0  0  0  0  0  0
   38.2930   29.0660   42.7680 C   0  0  0  0  0  0  0  0  0  0  0  0
   37.4260   28.2160   43.6760 C   0  0  0  0  0  0  0  0  0  0  0  0
   36.6990   27.1770   42.8920 C   0  0  0  0  0  0  0  0  0  0  0  0
   37.3970   26.9310   41.5600 C   0  0  2  0  0  0  0  0  0  0  0  0
   36.4870   29.6250   41.8200 H   0  0  0  0  0  0  0  0  0  0  0  0
   37.9160   30.1310   40.8880 H   0  0  0  0  0  0  0  0  0  0  0  0
   39.2980   28.6790   42.6030 H   0  0  0  0  0  0  0  0  0  0  0  0
   38.4130   30.0580   43.2490 H   0  0  0  0  0  0  0  0  0  0  0  0
   36.6430   28.8870   44.1290 H   0  0  0  0  0  0  0  0  0  0  0  0
   38.0250   27.8410   44.5120 H   0  0  0  0  0  0  0  0  0  0  0  0
   35.6750   27.5030   42.6220 H   0  0  0  0  0  0  0  0  0  0  0  0
   36.6950   26.1830   43.4010 H   0  0  0  0  0  0  0  0  0  0  0  0
   36.7420   26.1870   41.0520 H   0  0  0  0  0  0  0  0  0  0  0  0
   35.9580   29.3680   38.9920 C   0  0  1  0  0  0  0  0  0  0  0  0
   35.3100   29.3510   40.3120 C   0  0  0  0  0  0  0  0  0  0  0  0
   36.2080   28.2330   39.9340 C   0  0  2  0  0  0  0  0  0  0  0  0
   36.7960   30.0830   38.8770 H   0  0  0  0  0  0  0  0  0  0  0  0
   34.2070   29.1730   40.3390 H   0  0  0  0  0  0  0  0  0  0  0  0
   35.6250   30.0900   41.0990 H   0  0  0  0  0  0  0  0  0  0  0  0
   35.6700   27.2770   39.6680 H   0  0  0  0  0  0  0  0  0  0  0  0
   33.7640   28.8630   37.8700 C   0  0  0  0  0  0  0  0  0  0  0  0
   35.1450   29.1220   37.7700 C   0  0  0  0  0  0  0  0  0  0  0  0
   35.7210   29.1520   36.4890 C   0  0  0  0  0  0  0  0  0  0  0  0
   34.9170   28.9260   35.4170 N   0  0  0  0  0  0  0  0  0  0  0  0
   33.5880   28.6790   35.5510 C   0  0  0  0  0  0  0  0  0  0  0  0
   33.0000   28.6440   36.7830 N   0  0  0  0  0  0  0  0  0  0  0  0
   33.3840   28.8540   38.8810 H   0  0  0  0  0  0  0  0  0  0  0  0
   36.7830   29.3490   36.3780 H   0  0  0  0  0  0  0  0  0  0  0  0
   32.9470   28.5010   34.7010 H   0  0  0  0  0  0  0  0  0  0  0  0
   38.7150   26.3140   41.7480 C   0  0  0  0  0  0  0  0  0  0  0  0
   39.1940   25.4880   42.6610 C   0  0  0  0  0  0  0  0  0  0  0  0
   38.5420   25.1600   43.4590 H   0  0  0  0  0  0  0  0  0  0  0  0
   40.4920   25.0680   42.5830 C   0  0  0  0  0  3  0  0  0  0  0  0
   41.2620   25.5310   41.5350 C   0  0  0  0  0  3  0  0  0  0  0  0
   40.1040   26.6620   40.5440 S   0  0  0  0  0  0  0  0  0  0  0  0
  1  2  1  1  0  0  0
  1  6  1  0  0  0  0
  2  7  1  0  0  0  0
  2  3  1  0  0  0  0
  3 10  1  0  0  0  0
  3  4  1  0  0  0  0
  4 11  1  0  0  0  0
  4 12  1  0  0  0  0
  5 14  1  0  0  0  0
  5  4  1  0  0  0  0
  6 15  1  6  0  0  0
  6 32  1  0  0  0  0
  6  5  1  0  0  0  0
  8  2  1  0  0  0  0
  9  3  1  0  0  0  0
 13  5  1  0  0  0  0
 16 19  1  6  0  0  0
 16 18  1  0  0  0  0
 16 17  1  0  0  0  0
 17 20  1  0  0  0  0
 17 21  1  0  0  0  0
 18 22  1  6  0  0  0
 18 17  1  0  0  0  0
 18  1  1  0  0  0  0
 23 29  1  0  0  0  0
 24 23  1  0  0  0  0
 24 16  1  0  0  0  0
 25 24  2  0  0  0  0
 26 27  2  0  0  0  0
 26 25  1  0  0  0  0
 27 28  1  0  0  0  0
 28 23  2  0  0  0  0
 30 25  1  0  0  0  0
 31 27  1  0  0  0  0
 32 33  2  0  0  0  0
 33 34  1  0  0  0  0
 35 33  1  0  0  0  0
 36 35  2  0  0  0  0
 37 36  1  0  0  0  0
 37 32  1  0  0  0  0
M  END
>  <minimizedAffinity>
-4.94252348

$$$$

 OpenBabel03252506443D

 37 40  0  0  1  0  0  0  0  0999 V2000
   37.3010   30.1010   40.6620 N   0  0  1  0  0  0  0  0  0  0  0  0
   35.9140   30.4780   40.3660 C   0  0  0  0  0  0  0  0  0  0  0  0
   35.0180   29.2840   40.2530 C   0  0  0  0  0  0  0  0  0  0  0  0
   35.3820   28.5690   38.9670 C   0  0  0  0  0  0  0  0  0  0  0  0
   36.8600   28.5750   38.7610 C   0  0  0  0  0  0  0  0  0  0  0  0
   37.5800   28.8120   40.0820 C   0  0  2  0  0  0  0  0  0  0  0  0
   35.8860   30.9980   39.3690 H   0  0  0  0  0  0  0  0  0  0  0  0
   35.5630   31.2310   41.1030 H   0  0  0  0  0  0  0  0  0  0  0  0
   35.0080   28.6520   41.1400 H   0  0  0  0  0  0  0  0  0  0  0  0
   33.9860   29.6790   40.1390 H   0  0  0  0  0  0  0  0  0  0  0  0
   34.9330   29.1500   38.1130 H   0  0  0  0  0  0  0  0  0  0  0  0
   34.9080   27.5830   38.9470 H   0  0  0  0  0  0  0  0  0  0  0  0
   37.1830   29.4080   38.1050 H   0  0  0  0  0  0  0  0  0  0  0  0
   37.2430   27.5900   38.3980 H   0  0  0  0  0  0  0  0  0  0  0  0
   38.6550   28.8470   39.7940 H   0  0  0  0  0  0  0  0  0  0  0  0
   38.8150   32.1600   40.9910 C   0  0  1  0  0  0  0  0  0  0  0  0
   37.5850   32.5300   40.2730 C   0  0  0  0  0  0  0  0  0  0  0  0
   38.1120   31.1510   40.1400 C   0  0  2  0  0  0  0  0  0  0  0  0
   38.7080   32.0170   42.0840 H   0  0  0  0  0  0  0  0  0  0  0  0
   37.6880   33.2330   39.4110 H   0  0  0  0  0  0  0  0  0  0  0  0
   36.6380   32.7230   40.8480 H   0  0  0  0  0  0  0  0  0  0  0  0
   38.6150   30.9400   39.1510 H   0  0  0  0  0  0  0  0  0  0  0  0
   41.3290   32.1850   41.0510 C   0  0  0  0  0  0  0  0  0  0  0  0
   40.1240   32.6990   40.5340 C   0  0  0  0  0  0  0  0  0  0  0  0
   40.2000   33.7210   39.5740 C   0  0  0  0  0  0  0  0  0  0  0  0
   41.4300   34.1600   39.1980 N   0  0  0  0  0  0  0  0  0  0  0  0
   42.5720   33.6400   39.7180 C   0  0  0  0  0  0  0  0  0  0  0  0
   42.5300   32.6460   40.6520 N   0  0  0  0  0  0  0  0  0  0  0  0
   41.2020   31.4020   41.7840 H   0  0  0  0  0  0  0  0  0  0  0  0
   39.2890   34.1400   39.1560 H   0  0  0  0  0  0  0  0  0  0  0  0
   43.5500   33.9870   39.4190 H   0  0  0  0  0  0  0  0  0  0  0  0
   37.3990   27.6860   41.0050 C   0  0  0  0  0  0  0  0  0  0  0  0
   37.1530   27.6220   42.3010 C   0  0  0  0  0  0  0  0  0  0  0  0
   37.0520   28.5430   42.8570 H   0  0  0  0  0  0  0  0  0  0  0  0
   37.0310   26.4050   42.9110 C   0  0  0  0  0  3  0  0  0  0  0  0
   37.1720   25.2730   42.1330 C   0  0  0  0  0  3  0  0  0  0  0  0
   37.5080   25.9250   40.3820 S   0  0  0  0  0  0  0  0  0  0  0  0
  1  2  1  6  0  0  0
  2  8  1  0  0  0  0
  3  2  1  0  0  0  0
  3  9  1  0  0  0  0
  4  3  1  0  0  0  0
  5  4  1  0  0  0  0
  5  6  1  0  0  0  0
  6 15  1  6  0  0  0
  6  1  1  0  0  0  0
  6 32  1  0  0  0  0
  7  2  1  0  0  0  0
 10  3  1  0  0  0  0
 11  4  1  0  0  0  0
 12  4  1  0  0  0  0
 13  5  1  0  0  0  0
 14  5  1  0  0  0  0
 16 19  1  1  0  0  0
 17 21  1  0  0  0  0
 17 16  1  0  0  0  0
 18 22  1  6  0  0  0
 18 17  1  0  0  0  0
 18  1  1  0  0  0  0
 18 16  1  0  0  0  0
 20 17  1  0  0  0  0
 23 29  1  0  0  0  0
 24 16  1  0  0  0  0
 24 23  2  0  0  0  0
 25 24  1  0  0  0  0
 26 25  2  0  0  0  0
 26 27  1  0  0  0  0
 27 28  2  0  0  0  0
 28 23  1  0  0  0  0
 30 25  1  0  0  0  0
 31 27  1  0  0  0  0
 32 33  2  0  0  0  0
 33 34  1  0  0  0  0
 33 35  1  0  0  0  0
 36 35  2  0  0  0  0
 37 32  1  0  0  0  0
 37 36  1  0  0  0  0
M  END
>  <minimizedAffinity>
-4.82313204

$$$$

 OpenBabel03252506443D

 37 40  0  0  1  0  0  0  0  0999 V2000
   38.2910   28.8500   41.3690 N   0  0  1  0  0  0  0  0  0  0  0  0
   37.4710   29.4680   42.4160 C   0  0  0  0  0  0  0  0  0  0  0  0
   37.4690   28.6620   43.6780 C   0  0  0  0  0  0  0  0  0  0  0  0
   36.6610   27.4080   43.4080 C   0  0  0  0  0  0  0  0  0  0  0  0
   36.9390   26.8860   42.0390 C   0  0  0  0  0  0  0  0  0  0  0  0
   38.2710   27.4190   41.5270 C   0  0  2  0  0  0  0  0  0  0  0  0
   36.4050   29.5130   42.0610 H   0  0  0  0  0  0  0  0  0  0  0  0
   37.7800   30.5250   42.5630 H   0  0  0  0  0  0  0  0  0  0  0  0
   38.4600   28.4860   44.0930 H   0  0  0  0  0  0  0  0  0  0  0  0
   36.9160   29.2630   44.4310 H   0  0  0  0  0  0  0  0  0  0  0  0
   35.5710   27.6910   43.4330 H   0  0  0  0  0  0  0  0  0  0  0  0
   36.8070   26.6930   44.2230 H   0  0  0  0  0  0  0  0  0  0  0  0
   36.1890   27.2360   41.3020 H   0  0  0  0  0  0  0  0  0  0  0  0
   37.0480   25.7740   42.0210 H   0  0  0  0  0  0  0  0  0  0  0  0
   38.3410   27.0080   40.4950 H   0  0  0  0  0  0  0  0  0  0  0  0
   38.5700   29.6030   38.9200 C   0  0  1  0  0  0  0  0  0  0  0  0
   38.0310   30.6980   39.7410 C   0  0  0  0  0  0  0  0  0  0  0  0
   37.7460   29.2960   40.1300 C   0  0  2  0  0  0  0  0  0  0  0  0
   39.6570   29.4140   39.0250 H   0  0  0  0  0  0  0  0  0  0  0  0
   37.2100   31.3130   39.2980 H   0  0  0  0  0  0  0  0  0  0  0  0
   38.7270   31.3280   40.3600 H   0  0  0  0  0  0  0  0  0  0  0  0
   36.6920   28.9590   39.9050 H   0  0  0  0  0  0  0  0  0  0  0  0
   38.3320   28.1710   36.8660 C   0  0  0  0  0  0  0  0  0  0  0  0
   37.9960   29.3420   37.5730 C   0  0  0  0  0  0  0  0  0  0  0  0
   37.0990   30.2400   36.9720 C   0  0  0  0  0  0  0  0  0  0  0  0
   36.6070   29.9340   35.7430 N   0  0  0  0  0  0  0  0  0  0  0  0
   36.9540   28.7940   35.0910 C   0  0  0  0  0  0  0  0  0  0  0  0
   37.8230   27.9010   35.6490 N   0  0  0  0  0  0  0  0  0  0  0  0
   39.0250   27.5220   37.3820 H   0  0  0  0  0  0  0  0  0  0  0  0
   36.8190   31.1520   37.4910 H   0  0  0  0  0  0  0  0  0  0  0  0
   36.5640   28.5490   34.1150 H   0  0  0  0  0  0  0  0  0  0  0  0
   39.3980   26.8830   42.3000 C   0  0  0  0  0  0  0  0  0  0  0  0
   39.6040   25.7210   42.8940 C   0  0  0  0  0  0  0  0  0  0  0  0
   38.8310   24.9670   42.8420 H   0  0  0  0  0  0  0  0  0  0  0  0
   40.7770   25.4950   43.5570 C   0  0  0  0  0  3  0  0  0  0  0  0
   41.7160   26.5070   43.5780 C   0  0  0  0  0  3  0  0  0  0  0  0
   40.9250   27.9240   42.5930 S   0  0  0  0  0  0  0  0  0  0  0  0
  1  6  1  0  0  0  0
  1  2  1  1  0  0  0
  2  8  1  0  0  0  0
  2  3  1  0  0  0  0
  3  9  1  0  0  0  0
  3 10  1  0  0  0  0
  4 11  1  0  0  0  0
  4  3  1  0  0  0  0
  4 12  1  0  0  0  0
  5  4  1  0  0  0  0
  6 15  1  6  0  0  0
  6  5  1  0  0  0  0
  6 32  1  0  0  0  0
  7  2  1  0  0  0  0
 13  5  1  0  0  0  0
 14  5  1  0  0  0  0
 16 19  1  1  0  0  0
 16 17  1  0  0  0  0
 16 18  1  0  0  0  0
 17 18  1  0  0  0  0
 17 21  1  0  0  0  0
 18 22  1  6  0  0  0
 18  1  1  0  0  0  0
 20 17  1  0  0  0  0
 23 29  1  0  0  0  0
 23 24  1  0  0  0  0
 24 16  1  0  0  0  0
 25 30  1  0  0  0  0
 25 24  2  0  0  0  0
 26 25  1  0  0  0  0
 27 28  1  0  0  0  0
 27 26  2  0  0  0  0
 28 23  2  0  0  0  0
 31 27  1  0  0  0  0
 32 37  1  0  0  0  0
 32 33  2  0  0  0  0
 33 35  1  0  0  0  0
 34 33  1  0  0  0  0
 35 36  2  0  0  0  0
 37 36  1  0  0  0  0
M  END
>  <minimizedAffinity>
-4.78710318

$$$$

 OpenBabel03252506443D

 37 40  0  0  1  0  0  0  0  0999 V2000
   38.9710   28.8490   42.1840 N   0  0  1  0  0  0  0  0  0  0  0  0
   38.0190   29.2160   43.2370 C   0  0  0  0  0  0  0  0  0  0  0  0
   37.1900   28.0500   43.6790 C   0  0  0  0  0  0  0  0  0  0  0  0
   36.2310   27.7280   42.5490 C   0  0  0  0  0  0  0  0  0  0  0  0
   36.9070   27.8680   41.2270 C   0  0  0  0  0  0  0  0  0  0  0  0
   38.4190   27.7800   41.3910 C   0  0  2  0  0  0  0  0  0  0  0  0
   37.3040   29.9820   42.8280 H   0  0  0  0  0  0  0  0  0  0  0  0
   38.5540   29.7220   44.0690 H   0  0  0  0  0  0  0  0  0  0  0  0
   37.7730   27.2030   44.0380 H   0  0  0  0  0  0  0  0  0  0  0  0
   36.5880   28.4040   44.5410 H   0  0  0  0  0  0  0  0  0  0  0  0
   35.4040   28.4910   42.5740 H   0  0  0  0  0  0  0  0  0  0  0  0
   35.7560   26.7600   42.7340 H   0  0  0  0  0  0  0  0  0  0  0  0
   36.7260   28.8630   40.7740 H   0  0  0  0  0  0  0  0  0  0  0  0
   36.6450   27.0400   40.5250 H   0  0  0  0  0  0  0  0  0  0  0  0
   38.8060   27.9480   40.3610 H   0  0  0  0  0  0  0  0  0  0  0  0
   40.5840   30.5410   41.0990 C   0  0  1  0  0  0  0  0  0  0  0  0
   39.8210   31.1750   42.1850 C   0  0  0  0  0  0  0  0  0  0  0  0
   39.2160   30.0420   41.4440 C   0  0  2  0  0  0  0  0  0  0  0  0
   41.4210   29.8890   41.4160 H   0  0  0  0  0  0  0  0  0  0  0  0
   39.4340   32.2070   42.0040 H   0  0  0  0  0  0  0  0  0  0  0  0
   40.1510   31.0420   43.2520 H   0  0  0  0  0  0  0  0  0  0  0  0
   38.4090   30.3440   40.7140 H   0  0  0  0  0  0  0  0  0  0  0  0
   40.7930   32.6770   39.7880 C   0  0  0  0  0  0  0  0  0  0  0  0
   40.7810   31.2690   39.8160 C   0  0  0  0  0  0  0  0  0  0  0  0
   40.9710   30.5820   38.6060 C   0  0  0  0  0  0  0  0  0  0  0  0
   41.1530   31.3120   37.4740 N   0  0  0  0  0  0  0  0  0  0  0  0
   41.1590   32.6700   37.4840 C   0  0  0  0  0  0  0  0  0  0  0  0
   40.9770   33.3650   38.6450 N   0  0  0  0  0  0  0  0  0  0  0  0
   40.6420   33.1440   40.7500 H   0  0  0  0  0  0  0  0  0  0  0  0
   40.9670   29.4960   38.5940 H   0  0  0  0  0  0  0  0  0  0  0  0
   41.3040   33.2510   36.5860 H   0  0  0  0  0  0  0  0  0  0  0  0
   38.8380   26.4390   41.8130 C   0  0  0  0  0  0  0  0  0  0  0  0
   38.3910   25.2290   41.5250 C   0  0  0  0  0  0  0  0  0  0  0  0
   37.5520   25.1320   40.8510 H   0  0  0  0  0  0  0  0  0  0  0  0
   38.9900   24.1340   42.0800 C   0  0  0  0  0  3  0  0  0  0  0  0
   40.0570   24.3390   42.9320 C   0  0  0  0  0  3  0  0  0  0  0  0
   40.2740   26.2230   42.9930 S   0  0  0  0  0  0  0  0  0  0  0  0
  1  2  1  1  0  0  0
  2  3  1  0  0  0  0
  2  8  1  0  0  0  0
  3  9  1  0  0  0  0
  3 10  1  0  0  0  0
  4 11  1  0  0  0  0
  4 12  1  0  0  0  0
  4  3  1  0  0  0  0
  5  6  1  0  0  0  0
  5  4  1  0  0  0  0
  6 15  1  6  0  0  0
  6 32  1  0  0  0  0
  6  1  1  0  0  0  0
  7  2  1  0  0  0  0
 13  5  1  0  0  0  0
 14  5  1  0  0  0  0
 16 19  1  1  0  0  0
 16 18  1  0  0  0  0
 16 17  1  0  0  0  0
 17 21  1  0  0  0  0
 18 22  1  6  0  0  0
 18  1  1  0  0  0  0
 18 17  1  0  0  0  0
 20 17  1  0  0  0  0
 23 24  1  0  0  0  0
 23 29  1  0  0  0  0
 24 16  1  0  0  0  0
 25 24  2  0  0  0  0
 26 27  2  0  0  0  0
 26 25  1  0  0  0  0
 27 28  1  0  0  0  0
 28 23  2  0  0  0  0
 30 25  1  0  0  0  0
 31 27  1  0  0  0  0
 32 37  1  0  0  0  0
 33 32  2  0  0  0  0
 33 35  1  0  0  0  0
 34 33  1  0  0  0  0
 35 36  2  0  0  0  0
 36 37  1  0  0  0  0
M  END
>  <minimizedAffinity>
-4.74029589

$$$$

 OpenBabel03252506443D

 37 40  0  0  1  0  0  0  0  0999 V2000
   39.3860   27.9100   41.3220 N   0  0  1  0  0  0  0  0  0  0  0  0
   40.6910   27.4340   41.7940 C   0  0  0  0  0  0  0  0  0  0  0  0
   40.6150   26.0500   42.3610 C   0  0  0  0  0  0  0  0  0  0  0  0
   39.8710   26.1470   43.6790 C   0  0  0  0  0  0  0  0  0  0  0  0
   38.7390   27.1120   43.5770 C   0  0  0  0  0  0  0  0  0  0  0  0
   38.3430   27.3160   42.1200 C   0  0  2  0  0  0  0  0  0  0  0  0
   41.0410   28.1050   42.6260 H   0  0  0  0  0  0  0  0  0  0  0  0
   41.4460   27.5430   40.9860 H   0  0  0  0  0  0  0  0  0  0  0  0
   40.2210   25.3090   41.6680 H   0  0  0  0  0  0  0  0  0  0  0  0
   41.6590   25.7470   42.5850 H   0  0  0  0  0  0  0  0  0  0  0  0
   40.5840   26.5620   44.4450 H   0  0  0  0  0  0  0  0  0  0  0  0
   39.6040   25.1440   44.0250 H   0  0  0  0  0  0  0  0  0  0  0  0
   39.0210   28.1200   43.9400 H   0  0  0  0  0  0  0  0  0  0  0  0
   37.8130   26.7380   44.0760 H   0  0  0  0  0  0  0  0  0  0  0  0
   37.5380   28.0840   42.1700 H   0  0  0  0  0  0  0  0  0  0  0  0
   39.7800   30.2250   40.2600 C   0  0  1  0  0  0  0  0  0  0  0  0
   40.7710   29.9630   41.3160 C   0  0  0  0  0  0  0  0  0  0  0  0
   39.4320   29.3320   41.4090 C   0  0  2  0  0  0  0  0  0  0  0  0
   39.9580   29.7100   39.2960 H   0  0  0  0  0  0  0  0  0  0  0  0
   41.0200   30.8060   42.0040 H   0  0  0  0  0  0  0  0  0  0  0  0
   41.6780   29.3370   41.0890 H   0  0  0  0  0  0  0  0  0  0  0  0
   38.7520   29.8010   42.1780 H   0  0  0  0  0  0  0  0  0  0  0  0
   37.8860   31.7160   39.5420 C   0  0  0  0  0  0  0  0  0  0  0  0
   39.1370   31.5630   40.1700 C   0  0  0  0  0  0  0  0  0  0  0  0
   39.7470   32.7060   40.7130 C   0  0  0  0  0  0  0  0  0  0  0  0
   39.1000   33.8960   40.6020 N   0  0  0  0  0  0  0  0  0  0  0  0
   37.8920   34.0050   39.9880 C   0  0  0  0  0  0  0  0  0  0  0  0
   37.2750   32.9120   39.4510 N   0  0  0  0  0  0  0  0  0  0  0  0
   37.4710   30.8000   39.1460 H   0  0  0  0  0  0  0  0  0  0  0  0
   40.7120   32.6220   41.2050 H   0  0  0  0  0  0  0  0  0  0  0  0
   37.3770   34.9490   39.8990 H   0  0  0  0  0  0  0  0  0  0  0  0
   37.7650   26.0970   41.5430 C   0  0  0  0  0  0  0  0  0  0  0  0
   37.0540   25.1120   42.0620 C   0  0  0  0  0  0  0  0  0  0  0  0
   36.8120   25.1440   43.1140 H   0  0  0  0  0  0  0  0  0  0  0  0
   36.6410   24.0800   41.2670 C   0  0  0  0  0  3  0  0  0  0  0  0
   36.9900   24.1100   39.9310 C   0  0  0  0  0  3  0  0  0  0  0  0
   37.9880   25.7110   39.7260 S   0  0  0  0  0  0  0  0  0  0  0  0
  1 18  1  0  0  0  0
  1  2  1  1  0  0  0
  1  6  1  0  0  0  0
  2  3  1  0  0  0  0
  2  7  1  0  0  0  0
  3 10  1  0  0  0  0
  3  4  1  0  0  0  0
  4 12  1  0  0  0  0
  4 11  1  0  0  0  0
  5  4  1  0  0  0  0
  5 13  1  0  0  0  0
  5 14  1  0  0  0  0
  6 15  1  1  0  0  0
  6  5  1  0  0  0  0
  8  2  1  0  0  0  0
  9  3  1  0  0  0  0
 16 19  1  6  0  0  0
 16 17  1  0  0  0  0
 16 18  1  0  0  0  0
 17 18  1  0  0  0  0
 17 20  1  0  0  0  0
 18 22  1  1  0  0  0
 21 17  1  0  0  0  0
 23 24  1  0  0  0  0
 24 16  1  0  0  0  0
 24 25  2  0  0  0  0
 25 30  1  0  0  0  0
 26 25  1  0  0  0  0
 27 26  2  0  0  0  0
 28 23  2  0  0  0  0
 28 27  1  0  0  0  0
 29 23  1  0  0  0  0
 31 27  1  0  0  0  0
 32 33  2  0  0  0  0
 32  6  1  0  0  0  0
 33 34  1  0  0  0  0
 35 33  1  0  0  0  0
 36 35  2  0  0  0  0
 37 36  1  0  0  0  0
 37 32  1  0  0  0  0
M  END
>  <minimizedAffinity>
-4.72685432

$$$$

 OpenBabel03252506443D

 37 40  0  0  1  0  0  0  0  0999 V2000
   37.6560   29.0790   41.3920 N   0  0  1  0  0  0  0  0  0  0  0  0
   36.9540   28.5540   42.5680 C   0  0  0  0  0  0  0  0  0  0  0  0
   37.9010   28.1490   43.6560 C   0  0  0  0  0  0  0  0  0  0  0  0
   38.6140   26.8960   43.1860 C   0  0  0  0  0  0  0  0  0  0  0  0
   38.9400   26.9880   41.7330 C   0  0  0  0  0  0  0  0  0  0  0  0
   38.9430   28.4420   41.2800 C   0  0  2  0  0  0  0  0  0  0  0  0
   36.3910   27.6270   42.2690 H   0  0  0  0  0  0  0  0  0  0  0  0
   36.1790   29.2780   42.8990 H   0  0  0  0  0  0  0  0  0  0  0  0
   38.5580   28.9500   43.9910 H   0  0  0  0  0  0  0  0  0  0  0  0
   37.2730   27.8720   44.5280 H   0  0  0  0  0  0  0  0  0  0  0  0
   37.9020   26.0320   43.3050 H   0  0  0  0  0  0  0  0  0  0  0  0
   39.4610   26.6850   43.8450 H   0  0  0  0  0  0  0  0  0  0  0  0
   38.1720   26.4940   41.1050 H   0  0  0  0  0  0  0  0  0  0  0  0
   39.9660   26.6120   41.5020 H   0  0  0  0  0  0  0  0  0  0  0  0
   39.1440   28.3770   40.1860 H   0  0  0  0  0  0  0  0  0  0  0  0
   36.1640   29.9160   39.4650 C   0  0  1  0  0  0  0  0  0  0  0  0
   35.3660   29.1770   40.4560 C   0  0  0  0  0  0  0  0  0  0  0  0
   36.7980   28.8350   40.2810 C   0  0  2  0  0  0  0  0  0  0  0  0
   36.4440   30.9500   39.7480 H   0  0  0  0  0  0  0  0  0  0  0  0
   34.5910   28.4740   40.0670 H   0  0  0  0  0  0  0  0  0  0  0  0
   35.0170   29.6950   41.3910 H   0  0  0  0  0  0  0  0  0  0  0  0
   36.9780   27.8700   39.7220 H   0  0  0  0  0  0  0  0  0  0  0  0
   34.7360   29.0960   37.5640 C   0  0  0  0  0  0  0  0  0  0  0  0
   35.9360   29.6820   38.0140 C   0  0  0  0  0  0  0  0  0  0  0  0
   36.8950   30.0430   37.0540 C   0  0  0  0  0  0  0  0  0  0  0  0
   36.6160   29.8070   35.7450 N   0  0  0  0  0  0  0  0  0  0  0  0
   35.4470   29.2400   35.3470 C   0  0  0  0  0  0  0  0  0  0  0  0
   34.4950   28.8780   36.2570 N   0  0  0  0  0  0  0  0  0  0  0  0
   34.0410   28.8420   38.3510 H   0  0  0  0  0  0  0  0  0  0  0  0
   37.8300   30.4960   37.3680 H   0  0  0  0  0  0  0  0  0  0  0  0
   35.2240   29.0520   34.3080 H   0  0  0  0  0  0  0  0  0  0  0  0
   40.0440   29.1950   41.8930 C   0  0  0  0  0  0  0  0  0  0  0  0
   41.2480   28.8430   42.3050 C   0  0  0  0  0  0  0  0  0  0  0  0
   41.5520   27.8110   42.2010 H   0  0  0  0  0  0  0  0  0  0  0  0
   42.0800   29.7800   42.8510 C   0  0  0  0  0  3  0  0  0  0  0  0
   41.6200   31.0770   42.9500 C   0  0  0  0  0  3  0  0  0  0  0  0
   39.8660   31.0280   42.2270 S   0  0  0  0  0  0  0  0  0  0  0  0
  1  2  1  1  0  0  0
  2  8  1  0  0  0  0
  2  3  1  0  0  0  0
  3  9  1  0  0  0  0
  3 10  1  0  0  0  0
  4 11  1  0  0  0  0
  4  3  1  0  0  0  0
  4 12  1  0  0  0  0
  5  4  1  0  0  0  0
  6 15  1  6  0  0  0
  6  1  1  0  0  0  0
  6  5  1  0  0  0  0
  6 32  1  0  0  0  0
  7  2  1  0  0  0  0
 13  5  1  0  0  0  0
 14  5  1  0  0  0  0
 16 19  1  1  0  0  0
 16 18  1  0  0  0  0
 16 17  1  0  0  0  0
 17 21  1  0  0  0  0
 18 22  1  6  0  0  0
 18 17  1  0  0  0  0
 18  1  1  0  0  0  0
 20 17  1  0  0  0  0
 23 24  1  0  0  0  0
 23 29  1  0  0  0  0
 24 16  1  0  0  0  0
 25 30  1  0  0  0  0
 25 24  2  0  0  0  0
 26 25  1  0  0  0  0
 27 26  2  0  0  0  0
 27 28  1  0  0  0  0
 28 23  2  0  0  0  0
 31 27  1  0  0  0  0
 32 37  1  0  0  0  0
 32 33  2  0  0  0  0
 33 35  1  0  0  0  0
 34 33  1  0  0  0  0
 35 36  2  0  0  0  0
 37 36  1  0  0  0  0
M  END
>  <minimizedAffinity>
-4.71934175

$$$$

 OpenBabel03252506443D

 37 40  0  0  1  0  0  0  0  0999 V2000
   38.3440   31.0580   40.5060 N   0  0  1  0  0  0  0  0  0  0  0  0
   37.0010   31.6470   40.4690 C   0  0  0  0  0  0  0  0  0  0  0  0
   35.9320   30.6320   40.7310 C   0  0  0  0  0  0  0  0  0  0  0  0
   35.8640   29.7290   39.5140 C   0  0  0  0  0  0  0  0  0  0  0  0
   37.2310   29.4430   38.9920 C   0  0  0  0  0  0  0  0  0  0  0  0
   38.2760   29.6850   40.0740 C   0  0  2  0  0  0  0  0  0  0  0  0
   36.8130   32.0540   39.4360 H   0  0  0  0  0  0  0  0  0  0  0  0
   36.9560   32.5260   41.1470 H   0  0  0  0  0  0  0  0  0  0  0  0
   36.0410   30.1110   41.6810 H   0  0  0  0  0  0  0  0  0  0  0  0
   34.9760   31.1930   40.7880 H   0  0  0  0  0  0  0  0  0  0  0  0
   35.3170   30.2870   38.7040 H   0  0  0  0  0  0  0  0  0  0  0  0
   35.2540   28.8500   39.7430 H   0  0  0  0  0  0  0  0  0  0  0  0
   37.5100   30.1280   38.1670 H   0  0  0  0  0  0  0  0  0  0  0  0
   37.3610   28.3720   38.7020 H   0  0  0  0  0  0  0  0  0  0  0  0
   39.2420   29.4920   39.5560 H   0  0  0  0  0  0  0  0  0  0  0  0
   40.3590   32.6260   40.1560 C   0  0  1  0  0  0  0  0  0  0  0  0
   39.0970   33.3410   39.9130 C   0  0  0  0  0  0  0  0  0  0  0  0
   39.1560   31.8800   39.6710 C   0  0  2  0  0  0  0  0  0  0  0  0
   40.6220   32.4630   41.2200 H   0  0  0  0  0  0  0  0  0  0  0  0
   39.0610   34.0330   39.0360 H   0  0  0  0  0  0  0  0  0  0  0  0
   38.5090   33.7490   40.7810 H   0  0  0  0  0  0  0  0  0  0  0  0
   39.1920   31.5920   38.5800 H   0  0  0  0  0  0  0  0  0  0  0  0
   41.5610   33.9510   38.3880 C   0  0  0  0  0  0  0  0  0  0  0  0
   41.5050   32.8210   39.2290 C   0  0  0  0  0  0  0  0  0  0  0  0
   42.5640   31.9010   39.1690 C   0  0  0  0  0  0  0  0  0  0  0  0
   43.5830   32.1470   38.3040 N   0  0  0  0  0  0  0  0  0  0  0  0
   43.6040   33.2480   37.5080 C   0  0  0  0  0  0  0  0  0  0  0  0
   42.5890   34.1610   37.5440 N   0  0  0  0  0  0  0  0  0  0  0  0
   40.7180   34.6190   38.4830 H   0  0  0  0  0  0  0  0  0  0  0  0
   42.5510   31.0200   39.8030 H   0  0  0  0  0  0  0  0  0  0  0  0
   44.4130   33.4450   36.8210 H   0  0  0  0  0  0  0  0  0  0  0  0
   38.1520   28.7160   41.1690 C   0  0  0  0  0  0  0  0  0  0  0  0
   37.7590   27.4550   41.2080 C   0  0  0  0  0  0  0  0  0  0  0  0
   37.4540   26.9770   40.2870 H   0  0  0  0  0  0  0  0  0  0  0  0
   37.7460   26.7840   42.3980 C   0  0  0  0  0  3  0  0  0  0  0  0
   38.1500   27.4620   43.5300 C   0  0  0  0  0  3  0  0  0  0  0  0
   38.5990   29.2020   42.9190 S   0  0  0  0  0  0  0  0  0  0  0  0
  1  2  1  6  0  0  0
  2  3  1  0  0  0  0
  2  8  1  0  0  0  0
  3 10  1  0  0  0  0
  3  9  1  0  0  0  0
  4 12  1  0  0  0  0
  4  3  1  0  0  0  0
  5  4  1  0  0  0  0
  5  6  1  0  0  0  0
  6 15  1  6  0  0  0
  6  1  1  0  0  0  0
  6 32  1  0  0  0  0
  7  2  1  0  0  0  0
 11  4  1  0  0  0  0
 13  5  1  0  0  0  0
 14  5  1  0  0  0  0
 16 19  1  1  0  0  0
 17 16  1  0  0  0  0
 17 21  1  0  0  0  0
 18 22  1  6  0  0  0
 18 17  1  0  0  0  0
 18 16  1  0  0  0  0
 18  1  1  0  0  0  0
 20 17  1  0  0  0  0
 23 29  1  0  0  0  0
 23 24  1  0  0  0  0
 24 16  1  0  0  0  0
 25 24  2  0  0  0  0
 25 30  1  0  0  0  0
 26 25  1  0  0  0  0
 27 28  1  0  0  0  0
 27 26  2  0  0  0  0
 28 23  2  0  0  0  0
 31 27  1  0  0  0  0
 32 33  2  0  0  0  0
 32 37  1  0  0  0  0
 33 35  1  0  0  0  0
 34 33  1  0  0  0  0
 35 36  2  0  0  0  0
 37 36  1  0  0  0  0
M  END
>  <minimizedAffinity>
-4.70204353

$$$$

 OpenBabel03252506443D

 37 40  0  0  1  0  0  0  0  0999 V2000
   36.5500   29.0910   38.8050 N   0  0  1  0  0  0  0  0  0  0  0  0
   37.7560   29.9210   38.7100 C   0  0  0  0  0  0  0  0  0  0  0  0
   38.4670   30.0340   40.0220 C   0  0  0  0  0  0  0  0  0  0  0  0
   37.6120   30.9040   40.9230 C   0  0  0  0  0  0  0  0  0  0  0  0
   36.1650   30.5920   40.7370 C   0  0  0  0  0  0  0  0  0  0  0  0
   35.9930   29.2070   40.1280 C   0  0  2  0  0  0  0  0  0  0  0  0
   37.4540   30.9640   38.4160 H   0  0  0  0  0  0  0  0  0  0  0  0
   38.4010   29.5540   37.8830 H   0  0  0  0  0  0  0  0  0  0  0  0
   38.7560   29.0760   40.4530 H   0  0  0  0  0  0  0  0  0  0  0  0
   39.4100   30.5830   39.8200 H   0  0  0  0  0  0  0  0  0  0  0  0
   37.7570   31.9730   40.6040 H   0  0  0  0  0  0  0  0  0  0  0  0
   37.9780   30.8400   41.9510 H   0  0  0  0  0  0  0  0  0  0  0  0
   35.6820   31.2830   40.0180 H   0  0  0  0  0  0  0  0  0  0  0  0
   35.6100   30.5510   41.7060 H   0  0  0  0  0  0  0  0  0  0  0  0
   34.8920   29.1130   39.9920 H   0  0  0  0  0  0  0  0  0  0  0  0
   34.8910   28.6370   36.8860 C   0  0  1  0  0  0  0  0  0  0  0  0
   36.1040   29.2960   36.3770 C   0  0  0  0  0  0  0  0  0  0  0  0
   35.6770   29.5470   37.7750 C   0  0  2  0  0  0  0  0  0  0  0  0
   34.9880   27.5560   37.1080 H   0  0  0  0  0  0  0  0  0  0  0  0
   35.9680   30.1030   35.6170 H   0  0  0  0  0  0  0  0  0  0  0  0
   37.0260   28.6860   36.1670 H   0  0  0  0  0  0  0  0  0  0  0  0
   35.2080   30.5610   37.9400 H   0  0  0  0  0  0  0  0  0  0  0  0
   32.4760   29.2040   37.2970 C   0  0  0  0  0  0  0  0  0  0  0  0
   33.5560   29.0800   36.4020 C   0  0  0  0  0  0  0  0  0  0  0  0
   33.3340   29.3980   35.0520 C   0  0  0  0  0  0  0  0  0  0  0  0
   32.0910   29.8040   34.6820 N   0  0  0  0  0  0  0  0  0  0  0  0
   31.0720   29.9110   35.5740 C   0  0  0  0  0  0  0  0  0  0  0  0
   31.2570   29.6100   36.8930 N   0  0  0  0  0  0  0  0  0  0  0  0
   32.7110   28.9450   38.3200 H   0  0  0  0  0  0  0  0  0  0  0  0
   34.1470   29.3130   34.3360 H   0  0  0  0  0  0  0  0  0  0  0  0
   30.0840   30.2340   35.2820 H   0  0  0  0  0  0  0  0  0  0  0  0
   36.4210   28.1530   41.0560 C   0  0  0  0  0  0  0  0  0  0  0  0
   36.4530   28.0810   42.3740 C   0  0  0  0  0  0  0  0  0  0  0  0
   36.1120   28.9300   42.9500 H   0  0  0  0  0  0  0  0  0  0  0  0
   36.9140   26.9470   42.9820 C   0  0  0  0  0  3  0  0  0  0  0  0
   37.3330   25.9050   42.1790 C   0  0  0  0  0  3  0  0  0  0  0  0
   37.0770   26.5270   40.4040 S   0  0  0  0  0  0  0  0  0  0  0  0
  1  2  1  1  0  0  0
  1  6  1  0  0  0  0
  2  3  1  0  0  0  0
  3  9  1  0  0  0  0
  3  4  1  0  0  0  0
  4 12  1  0  0  0  0
  5  4  1  0  0  0  0
  5 14  1  0  0  0  0
  6 15  1  6  0  0  0
  6  5  1  0  0  0  0
  6 32  1  0  0  0  0
  7  2  1  0  0  0  0
  8  2  1  0  0  0  0
 10  3  1  0  0  0  0
 11  4  1  0  0  0  0
 13  5  1  0  0  0  0
 16 19  1  1  0  0  0
 16 18  1  0  0  0  0
 17 16  1  0  0  0  0
 17 18  1  0  0  0  0
 18 22  1  1  0  0  0
 18  1  1  0  0  0  0
 20 17  1  0  0  0  0
 21 17  1  0  0  0  0
 23 29  1  0  0  0  0
 24 16  1  0  0  0  0
 24 23  2  0  0  0  0
 25 24  1  0  0  0  0
 26 25  2  0  0  0  0
 26 27  1  0  0  0  0
 27 28  2  0  0  0  0
 28 23  1  0  0  0  0
 30 25  1  0  0  0  0
 31 27  1  0  0  0  0
 32 33  2  0  0  0  0
 33 34  1  0  0  0  0
 33 35  1  0  0  0  0
 36 35  2  0  0  0  0
 37 32  1  0  0  0  0
 37 36  1  0  0  0  0
M  END
>  <minimizedAffinity>
-4.60818958

$$$$
