
 OpenBabel03242523533D

 42 45  0  0  1  0  0  0  0  0999 V2000
   42.8090   34.3840   38.8950 C   0  0  1  0  0  0  0  0  0  0  0  0
   43.0430   35.1860   40.1650 C   0  0  1  0  0  0  0  0  0  0  0  0
   41.7960   35.6160   40.6550 O   0  0  0  0  0  0  0  0  0  0  0  0
   40.8980   35.9340   39.6330 C   0  0  0  0  0  0  0  0  0  0  0  0
   40.4470   34.7000   38.8740 C   0  0  2  0  0  0  0  0  0  0  0  0
   41.5510   33.6110   39.1180 C   0  0  1  0  0  0  0  0  0  0  0  0
   43.6870   33.7230   38.6810 H   0  0  0  0  0  0  0  0  0  0  0  0
   43.7350   36.0300   40.0240 H   0  0  0  0  0  0  0  0  0  0  0  0
   40.0150   36.3580   40.1240 H   0  0  0  0  0  0  0  0  0  0  0  0
   41.2970   36.7150   38.9570 H   0  0  0  0  0  0  0  0  0  0  0  0
   39.4720   34.3300   39.2230 H   0  0  0  0  0  0  0  0  0  0  0  0
   41.3250   33.4880   40.2300 H   0  0  0  0  0  0  0  0  0  0  0  0
   42.6820   35.2280   37.7830 O   0  0  0  0  0  0  0  0  0  0  0  0
   43.5390   35.5940   37.5120 H   0  0  0  0  0  0  0  0  0  0  0  0
   40.4870   34.9530   37.5100 O   0  0  0  0  0  0  0  0  0  0  0  0
   39.5900   35.2230   37.1590 H   0  0  0  0  0  0  0  0  0  0  0  0
   43.4810   34.2540   41.1190 O   0  0  0  0  0  0  0  0  0  0  0  0
   44.6140   34.3500   41.8250 C   0  0  0  0  0  0  0  0  0  0  0  0
   45.8550   34.4760   41.1830 C   0  0  0  0  0  0  0  0  0  0  0  0
   46.9970   34.5730   41.9620 C   0  0  0  0  0  0  0  0  0  0  0  0
   46.8790   34.5440   43.3410 N   0  0  0  0  0  0  0  0  0  0  0  0
   45.6640   34.4220   43.9230 C   0  0  0  0  0  0  0  0  0  0  0  0
   44.5380   34.3250   43.1680 N   0  0  0  0  0  0  0  0  0  0  0  0
   45.9540   34.4990   40.1120 H   0  0  0  0  0  0  0  0  0  0  0  0
   45.6480   34.4060   45.0050 H   0  0  0  0  0  0  0  0  0  0  0  0
   48.3560   34.6940   41.3530 C   0  0  0  0  0  0  0  0  0  0  0  0
   49.0680   36.0350   41.5290 C   0  0  0  0  0  0  0  0  0  0  0  0
   49.5310   34.7100   42.1630 C   0  0  0  0  0  0  0  0  0  0  0  0
   48.3920   34.3190   40.2920 H   0  0  0  0  0  0  0  0  0  0  0  0
   48.6340   36.7530   42.2260 H   0  0  0  0  0  0  0  0  0  0  0  0
   49.7250   36.3780   40.7070 H   0  0  0  0  0  0  0  0  0  0  0  0
   50.4820   34.2630   41.8040 H   0  0  0  0  0  0  0  0  0  0  0  0
   49.4180   34.6290   43.2720 H   0  0  0  0  0  0  0  0  0  0  0  0
   41.2960   32.5840   38.2850 O   0  0  0  0  0  0  0  0  0  0  0  0
   40.3670   31.6320   38.3390 C   0  0  0  0  0  0  0  0  0  0  0  0
   40.0320   30.8880   37.2980 O   0  0  0  0  0  0  0  0  0  0  0  0
   39.4350   31.0870   39.5030 C   0  0  0  0  0  0  0  0  0  0  0  0
   38.3710   31.5450   40.0600 C   0  0  0  0  0  0  0  0  0  0  0  0
   38.0210   32.4910   39.6610 H   0  0  0  0  0  0  0  0  0  0  0  0
   37.7770   30.8510   41.0650 C   0  0  0  0  0  0  0  0  0  0  0  0
   38.3890   29.6490   41.4310 C   0  0  0  0  0  0  0  0  0  0  0  0
   39.8820   29.5990   40.2170 S   0  0  0  0  0  0  0  0  0  0  0  0
  1  7  1  6  0  0  0
  1  6  1  0  0  0  0
  1  2  1  0  0  0  0
  2  8  1  6  0  0  0
  2  3  1  0  0  0  0
  2 17  1  0  0  0  0
  4  9  1  0  0  0  0
  4  3  1  0  0  0  0
  5  6  1  0  0  0  0
  5 11  1  1  0  0  0
  5  4  1  0  0  0  0
  6 12  1  1  0  0  0
 10  4  1  0  0  0  0
 13  1  1  0  0  0  0
 14 13  1  0  0  0  0
 15  5  1  0  0  0  0
 16 15  1  0  0  0  0
 17 18  1  0  0  0  0
 18 23  1  0  0  0  0
 19 18  2  0  0  0  0
 19 20  1  0  0  0  0
 20 21  2  0  0  0  0
 21 22  1  0  0  0  0
 22 25  1  0  0  0  0
 23 22  2  0  0  0  0
 24 19  1  0  0  0  0
 26 27  1  0  0  0  0
 26 20  1  0  0  0  0
 26 28  1  0  0  0  0
 27 28  1  0  0  0  0
 27 30  1  0  0  0  0
 28 33  1  0  0  0  0
 29 26  1  0  0  0  0
 31 27  1  0  0  0  0
 32 28  1  0  0  0  0
 34 35  1  0  0  0  0
 34  6  1  0  0  0  0
 35 37  1  0  0  0  0
 36 35  2  0  0  0  0
 37 38  2  0  0  0  0
 37 42  1  0  0  0  0
 38 40  1  0  0  0  0
 39 38  1  0  0  0  0
 40 41  2  0  0  0  0
 42 41  1  0  0  0  0
M  END
>  <minimizedAffinity>
-6.23507071

>  <minimizedRMSD>
1.8763696

$$$$
