
 OpenBabel03252508463D

 42 44  0  0  0  0  0  0  0  0999 V2000
   42.9930   32.4220   41.7030 C   0  0  0  0  0  0  0  0  0  0  0  0
   42.0600   32.8640   41.3080 H   0  0  0  0  0  0  0  0  0  0  0  0
   43.5420   32.0070   40.8080 H   0  0  0  0  0  0  0  0  0  0  0  0
   43.6550   34.8280   41.9110 C   0  0  0  0  0  0  0  0  0  0  0  0
   43.8770   33.5020   42.2300 C   0  0  0  0  0  0  0  0  0  0  0  0
   44.9430   33.1890   43.0500 C   0  0  0  0  0  0  0  0  0  0  0  0
   45.7500   34.1870   43.5290 C   0  0  0  0  0  0  0  0  0  0  0  0
   45.5480   35.5150   43.2260 C   0  0  0  0  0  0  0  0  0  0  0  0
   44.4670   35.7780   42.4000 C   0  0  0  0  0  0  0  0  0  0  0  0
   45.1660   32.1700   43.3320 H   0  0  0  0  0  0  0  0  0  0  0  0
   46.5890   33.9480   44.1740 H   0  0  0  0  0  0  0  0  0  0  0  0
   46.1310   36.3410   43.5610 H   0  0  0  0  0  0  0  0  0  0  0  0
   44.2310   36.7920   42.1090 H   0  0  0  0  0  0  0  0  0  0  0  0
   40.2120   35.6630   40.5730 C   0  0  0  0  0  0  0  0  0  0  0  0
   41.2430   35.4290   41.4990 C   0  0  0  0  0  0  0  0  0  0  0  0
   42.5100   35.0920   41.0390 C   0  0  0  0  0  0  0  0  0  0  0  0
   42.6840   35.0060   39.6910 N   0  0  0  0  0  0  0  0  0  0  0  0
   41.6820   35.2340   38.8130 C   0  0  0  0  0  0  0  0  0  0  0  0
   40.4480   35.5620   39.2640 N   0  0  0  0  0  0  0  0  0  0  0  0
   39.2460   35.9210   40.9460 H   0  0  0  0  0  0  0  0  0  0  0  0
   41.1030   35.4990   42.5680 H   0  0  0  0  0  0  0  0  0  0  0  0
   41.9600   35.1300   37.7790 H   0  0  0  0  0  0  0  0  0  0  0  0
   42.6960   31.3770   42.6260 N   0  0  0  0  0  0  0  0  0  0  0  0
   43.0410   31.5210   43.5920 H   0  0  0  0  0  0  0  0  0  0  0  0
   41.0390   30.9760   42.6530 S   0  0  0  0  0  0  0  0  0  0  0  0
   40.1750   32.1960   42.4300 O   0  0  0  0  0  0  0  0  0  0  0  0
   39.8560   32.7010   43.2390 H   0  0  0  0  0  0  0  0  0  0  0  0
   40.6590   30.3240   43.9390 O   0  0  0  0  0  0  0  0  0  0  0  0
   39.8190   30.4480   44.4440 H   0  0  0  0  0  0  0  0  0  0  0  0
   40.7460   29.9040   41.3920 O   0  0  0  0  0  0  0  0  0  0  0  0
   40.1800   28.7570   41.9210 C   0  0  0  0  0  0  0  0  0  0  0  0
   39.2690   28.5480   41.3560 H   0  0  0  0  0  0  0  0  0  0  0  0
   39.9380   28.8020   42.9910 H   0  0  0  0  0  0  0  0  0  0  0  0
   41.1400   27.5870   41.7720 C   0  0  0  0  0  0  0  0  0  0  0  0
   42.1380   27.8310   42.1940 H   0  0  0  0  0  0  0  0  0  0  0  0
   41.2020   27.3110   40.6960 H   0  0  0  0  0  0  0  0  0  0  0  0
   40.5770   26.3680   42.4360 C   0  0  0  0  0  0  0  0  0  0  0  0
   40.9680   25.8050   43.6860 C   0  0  0  0  0  0  0  0  0  0  0  0
   41.7550   26.2910   44.2290 H   0  0  0  0  0  0  0  0  0  0  0  0
   40.2990   24.6910   44.0770 C   0  0  0  0  0  3  0  0  0  0  0  0
   39.2680   24.1260   43.2800 C   0  0  0  0  0  3  0  0  0  0  0  0
   39.2280   25.2800   41.8200 S   0  0  0  0  0  0  0  0  0  0  0  0
  1  5  1  0  0  0  0
  1 23  1  0  0  0  0
  2  1  1  0  0  0  0
  3  1  1  0  0  0  0
  4  5  2  0  0  0  0
  4  9  1  0  0  0  0
  5  6  1  0  0  0  0
  6 10  1  0  0  0  0
  6  7  2  0  0  0  0
  7 11  1  0  0  0  0
  8  7  1  0  0  0  0
  8 12  1  0  0  0  0
  9  8  2  0  0  0  0
 13  9  1  0  0  0  0
 14 20  1  0  0  0  0
 14 15  1  0  0  0  0
 15 21  1  0  0  0  0
 16 15  2  0  0  0  0
 16  4  1  0  0  0  0
 17 16  1  0  0  0  0
 18 19  1  0  0  0  0
 18 17  2  0  0  0  0
 19 14  2  0  0  0  0
 22 18  1  0  0  0  0
 23 25  1  0  0  0  0
 23 24  1  0  0  0  0
 25 28  1  0  0  0  0
 26 25  1  0  0  0  0
 26 27  1  0  0  0  0
 28 29  1  0  0  0  0
 30 31  1  0  0  0  0
 30 25  1  0  0  0  0
 31 33  1  0  0  0  0
 32 31  1  0  0  0  0
 34 31  1  0  0  0  0
 34 35  1  0  0  0  0
 34 37  1  0  0  0  0
 36 34  1  0  0  0  0
 37 38  2  0  0  0  0
 38 40  1  0  0  0  0
 38 39  1  0  0  0  0
 41 40  2  0  0  0  0
 42 37  1  0  0  0  0
 42 41  1  0  0  0  0
M  END
>  <minimizedAffinity>
-4.86885929

>  <minimizedRMSD>
0.546581566

$$$$
