
 OpenBabel03242515143D

 31 33  0  0  0  0  0  0  0  0999 V2000
   45.6820   32.3500   47.1170 C   0  0  0  0  0  0  0  0  0  0  0  0
   45.6710   32.8410   48.0870 H   0  0  0  0  0  0  0  0  0  0  0  0
   44.6700   32.4660   46.6800 H   0  0  0  0  0  0  0  0  0  0  0  0
   45.9350   30.9000   47.2100 C   0  0  0  0  0  0  0  0  0  0  0  0
   47.1110   30.2070   47.2410 C   0  0  0  0  0  0  0  0  0  0  0  0
   46.7840   28.8690   47.3350 C   0  0  0  0  0  0  0  0  0  0  0  0
   45.4550   28.7710   47.3620 N   0  0  0  0  0  0  0  0  0  0  0  0
   44.9570   30.0010   47.2860 N   0  0  0  0  0  0  0  0  0  0  0  0
   48.1000   30.6540   47.1950 H   0  0  0  0  0  0  0  0  0  0  0  0
   47.4750   28.0250   47.3820 H   0  0  0  0  0  0  0  0  0  0  0  0
   44.6420   27.5990   47.4530 C   0  0  0  0  0  0  0  0  0  0  0  0
   44.5480   26.7770   48.4990 C   0  0  0  0  0  0  0  0  0  0  0  0
   45.1190   26.9450   49.4260 H   0  0  0  0  0  0  0  0  0  0  0  0
   43.7280   25.6840   48.4560 C   0  0  0  0  0  0  0  0  0  0  0  0
   43.0090   25.5220   47.2150 C   0  0  0  0  0  0  0  0  0  0  0  0
   43.6010   27.0010   46.2060 S   0  0  0  0  0  0  0  0  0  0  0  0
   46.7410   33.0390   46.2950 C   0  0  0  0  0  0  0  0  0  0  0  0
   47.3860   33.6840   46.9270 H   0  0  0  0  0  0  0  0  0  0  0  0
   47.3500   32.2500   45.8460 H   0  0  0  0  0  0  0  0  0  0  0  0
   44.6620   35.4630   44.3160 C   0  0  0  0  0  0  0  0  0  0  0  0
   45.3980   35.4850   43.1030 C   0  0  0  0  0  0  0  0  0  0  0  0
   46.5480   34.6770   43.0380 C   0  0  0  0  0  0  0  0  0  0  0  0
   46.8750   33.9360   44.1300 N   0  0  0  0  0  0  0  0  0  0  0  0
   46.1350   33.9520   45.2680 C   0  0  0  0  0  0  0  0  0  0  0  0
   45.0440   34.7080   45.3540 N   0  0  0  0  0  0  0  0  0  0  0  0
   43.7760   36.0620   44.4210 H   0  0  0  0  0  0  0  0  0  0  0  0
   45.0460   36.1120   42.2980 H   0  0  0  0  0  0  0  0  0  0  0  0
   47.2730   34.7260   41.7820 C   0  0  0  0  0  0  0  0  0  0  0  0
   48.1950   33.6860   41.7590 F   0  0  0  0  0  0  0  0  0  0  0  0
   48.0380   35.8900   41.8110 F   0  0  0  0  0  0  0  0  0  0  0  0
   46.4730   34.6310   40.6850 F   0  0  0  0  0  0  0  0  0  0  0  0
  1  4  1  0  0  0  0
  1  2  1  0  0  0  0
  3  1  1  0  0  0  0
  4  5  1  0  0  0  0
  4  8  2  0  0  0  0
  5  6  2  0  0  0  0
  6  7  1  0  0  0  0
  6 10  1  0  0  0  0
  7 11  1  0  0  0  0
  8  7  1  0  0  0  0
  9  5  1  0  0  0  0
 11 12  2  0  0  0  0
 12 13  1  0  0  0  0
 14 12  1  0  0  0  0
 15 14  2  0  0  0  0
 16 15  1  0  0  0  0
 16 11  1  0  0  0  0
 17 18  1  0  0  0  0
 17  1  1  0  0  0  0
 19 17  1  0  0  0  0
 20 26  1  0  0  0  0
 20 25  1  0  0  0  0
 21 20  2  0  0  0  0
 22 21  1  0  0  0  0
 22 23  2  0  0  0  0
 23 24  1  0  0  0  0
 24 25  2  0  0  0  0
 24 17  1  0  0  0  0
 27 21  1  0  0  0  0
 28 30  1  0  0  0  0
 28 22  1  0  0  0  0
 29 28  1  0  0  0  0
 31 28  1  0  0  0  0
M  END
>  <minimizedAffinity>
-5.40989685

>  <minimizedRMSD>
2.3946681

$$$$
