
 OpenBabel03252508343D

 32 34  0  0  1  0  0  0  0  0999 V2000
   45.0760   34.3570   41.5990 N   0  0  0  0  0  0  0  0  0  0  0  0
   46.2810   33.8560   40.9790 C   0  0  1  0  0  0  0  0  0  0  0  0
   46.1860   33.7450   39.5060 C   0  0  0  0  0  0  0  0  0  0  0  0
   44.9640   33.3100   38.9750 N   0  0  0  0  0  0  0  0  0  0  0  0
   43.7930   33.6370   39.6750 C   0  0  0  0  0  0  0  0  0  0  0  0
   44.0230   34.7230   40.7040 C   0  0  0  0  0  0  0  0  0  0  0  0
   46.4590   32.8540   41.4150 H   0  0  0  0  0  0  0  0  0  0  0  0
   47.0210   33.1180   39.1310 H   0  0  0  0  0  0  0  0  0  0  0  0
   46.3990   34.7720   39.0860 H   0  0  0  0  0  0  0  0  0  0  0  0
   44.9050   33.6180   37.9590 H   0  0  0  0  0  0  0  0  0  0  0  0
   42.9100   33.8720   39.0510 H   0  0  0  0  0  0  0  0  0  0  0  0
   43.4880   32.7300   40.2740 H   0  0  0  0  0  0  0  0  0  0  0  0
   43.0980   35.0560   41.1890 H   0  0  0  0  0  0  0  0  0  0  0  0
   44.3820   35.6090   40.1070 H   0  0  0  0  0  0  0  0  0  0  0  0
   44.5730   35.6240   43.5610 C   0  0  0  0  0  0  0  0  0  0  0  0
   45.0610   34.4330   43.0100 C   0  0  0  0  0  0  0  0  0  0  0  0
   45.4910   33.4280   43.8820 C   0  0  0  0  0  0  0  0  0  0  0  0
   45.4270   33.6220   45.2270 N   0  0  0  0  0  0  0  0  0  0  0  0
   44.9530   34.7740   45.7230 C   0  0  0  0  0  0  0  0  0  0  0  0
   44.5310   35.7640   44.9160 N   0  0  0  0  0  0  0  0  0  0  0  0
   44.2170   36.4610   42.9760 H   0  0  0  0  0  0  0  0  0  0  0  0
   45.8600   32.5240   43.4290 H   0  0  0  0  0  0  0  0  0  0  0  0
   44.8790   34.9840   46.7820 H   0  0  0  0  0  0  0  0  0  0  0  0
   47.3940   34.8230   41.2960 C   0  0  0  0  0  0  0  0  0  0  0  0
   47.0040   35.4400   42.1600 H   0  0  0  0  0  0  0  0  0  0  0  0
   47.5140   35.5650   40.4810 H   0  0  0  0  0  0  0  0  0  0  0  0
   48.6720   34.1950   41.6300 C   0  0  0  0  0  0  0  0  0  0  0  0
   49.7890   34.7020   42.3960 C   0  0  0  0  0  0  0  0  0  0  0  0
   49.6700   35.6920   42.7800 H   0  0  0  0  0  0  0  0  0  0  0  0
   50.8380   33.8400   42.5230 C   0  0  0  0  0  0  0  0  0  0  0  0
   50.8620   32.5640   41.9670 C   0  0  0  0  0  0  0  0  0  0  0  0
   49.1970   32.4760   41.1190 S   0  0  0  0  0  0  0  0  0  0  0  0
  1 16  1  0  0  0  0
  2 24  1  0  0  0  0
  2  7  1  1  0  0  0
  2  1  1  0  0  0  0
  3  2  1  0  0  0  0
  4  3  1  0  0  0  0
  4  5  1  0  0  0  0
  5 12  1  0  0  0  0
  5  6  1  0  0  0  0
  6 13  1  0  0  0  0
  6  1  1  0  0  0  0
  8  3  1  0  0  0  0
  9  3  1  0  0  0  0
 10  4  1  0  0  0  0
 11  5  1  0  0  0  0
 14  6  1  0  0  0  0
 15 20  1  0  0  0  0
 16 15  2  0  0  0  0
 16 17  1  0  0  0  0
 17 18  2  0  0  0  0
 18 19  1  0  0  0  0
 19 23  1  0  0  0  0
 20 19  2  0  0  0  0
 21 15  1  0  0  0  0
 22 17  1  0  0  0  0
 24 27  1  0  0  0  0
 24 25  1  0  0  0  0
 26 24  1  0  0  0  0
 27 28  2  0  0  0  0
 28 30  1  0  0  0  0
 28 29  1  0  0  0  0
 31 30  2  0  0  0  0
 32 27  1  0  0  0  0
 32 31  1  0  0  0  0
M  END
>  <minimizedAffinity>
-4.88953829

>  <minimizedRMSD>
1.13455331

$$$$
