
 OpenBabel03252508063D

 37 40  0  0  0  0  0  0  0  0999 V2000
   39.5320   31.1640   41.4920 C   0  0  0  0  0  0  0  0  0  0  0  0
   38.4900   30.3850   40.9910 C   0  0  0  0  0  0  0  0  0  0  0  0
   37.4390   31.0010   40.3370 C   0  0  0  0  0  0  0  0  0  0  0  0
   37.4760   32.3680   40.2040 N   0  0  0  0  0  0  0  0  0  0  0  0
   38.4900   33.0950   40.6920 C   0  0  0  0  0  0  0  0  0  0  0  0
   39.5040   32.4860   41.3320 N   0  0  0  0  0  0  0  0  0  0  0  0
   40.3780   30.7250   42.0160 H   0  0  0  0  0  0  0  0  0  0  0  0
   38.4120   34.1800   40.5270 H   0  0  0  0  0  0  0  0  0  0  0  0
   36.3180   30.3220   39.7790 C   0  0  0  0  0  0  0  0  0  0  0  0
   35.2580   29.7980   40.5010 C   0  0  0  0  0  0  0  0  0  0  0  0
   34.2390   29.0620   39.9420 C   0  0  0  0  0  0  0  0  0  0  0  0
   34.2370   28.8050   38.5860 C   0  0  0  0  0  0  0  0  0  0  0  0
   35.3160   29.3370   37.8350 C   0  0  0  0  0  0  0  0  0  0  0  0
   35.3230   29.0850   36.4890 C   0  0  0  0  0  0  0  0  0  0  0  0
   36.3380   29.5760   35.6880 C   0  0  0  0  0  0  0  0  0  0  0  0
   37.3580   30.3350   36.2660 C   0  0  0  0  0  0  0  0  0  0  0  0
   37.3230   30.5750   37.6520 C   0  0  0  0  0  0  0  0  0  0  0  0
   36.3010   30.0640   38.4250 C   0  0  0  0  0  0  0  0  0  0  0  0
   35.1790   29.9370   41.5370 H   0  0  0  0  0  0  0  0  0  0  0  0
   33.4140   28.6570   40.5040 H   0  0  0  0  0  0  0  0  0  0  0  0
   33.4430   28.2250   38.1360 H   0  0  0  0  0  0  0  0  0  0  0  0
   34.5020   28.4860   36.0630 H   0  0  0  0  0  0  0  0  0  0  0  0
   36.2400   29.3100   34.6320 H   0  0  0  0  0  0  0  0  0  0  0  0
   38.0530   30.6350   35.5030 H   0  0  0  0  0  0  0  0  0  0  0  0
   38.1560   31.1830   37.7990 H   0  0  0  0  0  0  0  0  0  0  0  0
   38.5840   29.0360   41.1710 O   0  0  0  0  0  0  0  0  0  0  0  0
   39.2240   27.6610   43.3250 O   0  0  0  0  0  0  0  0  0  0  0  0
   38.0650   28.2420   42.5870 P   0  0  1  0  0  0  0  0  0  0  0  0
   37.3010   29.3310   43.6380 O   0  0  0  0  0  0  0  0  0  0  0  0
   37.2910   28.9120   44.5260 H   0  0  0  0  0  0  0  0  0  0  0  0
   36.9660   27.0500   42.1710 O   0  0  0  0  0  0  0  0  0  0  0  0
   37.0120   26.1870   41.1430 C   0  0  0  0  0  0  0  0  0  0  0  0
   36.7050   26.3380   39.7920 C   0  0  0  0  0  0  0  0  0  0  0  0
   36.3660   27.3130   39.4780 H   0  0  0  0  0  0  0  0  0  0  0  0
   36.8510   25.2570   38.9590 C   0  0  0  0  0  3  0  0  0  0  0  0
   37.2840   24.0630   39.4400 C   0  0  0  0  0  3  0  0  0  0  0  0
   37.5460   24.4080   41.2890 S   0  0  0  0  0  0  0  0  0  0  0  0
  1  7  1  0  0  0  0
  2 26  1  0  0  0  0
  2  1  2  0  0  0  0
  3  2  1  0  0  0  0
  4  3  2  0  0  0  0
  4  5  1  0  0  0  0
  5  6  2  0  0  0  0
  6  1  1  0  0  0  0
  8  5  1  0  0  0  0
  9  3  1  0  0  0  0
  9 10  1  0  0  0  0
 10 19  1  0  0  0  0
 11 10  2  0  0  0  0
 11 20  1  0  0  0  0
 12 11  1  0  0  0  0
 13 18  1  0  0  0  0
 13 12  2  0  0  0  0
 14 13  1  0  0  0  0
 15 16  1  0  0  0  0
 15 14  2  0  0  0  0
 16 17  2  0  0  0  0
 17 25  1  0  0  0  0
 17 18  1  0  0  0  0
 18  9  2  0  0  0  0
 21 12  1  0  0  0  0
 22 14  1  0  0  0  0
 23 15  1  0  0  0  0
 24 16  1  0  0  0  0
 26 28  1  0  0  0  0
 28 27  2  1  0  0  0
 28 29  1  0  0  0  0
 29 30  1  0  0  0  0
 31 28  1  0  0  0  0
 32 37  1  0  0  0  0
 32 31  1  0  0  0  0
 33 32  2  0  0  0  0
 34 33  1  0  0  0  0
 35 36  2  0  0  0  0
 35 33  1  0  0  0  0
 36 37  1  0  0  0  0
M  END
>  <minimizedAffinity>
-6.01229668

$$$$

 OpenBabel03252508063D

 37 40  0  0  0  0  0  0  0  0999 V2000
   37.2260   28.2260   39.2000 C   0  0  0  0  0  0  0  0  0  0  0  0
   37.9710   29.3100   39.6640 C   0  0  0  0  0  0  0  0  0  0  0  0
   37.8030   30.5490   39.0740 C   0  0  0  0  0  0  0  0  0  0  0  0
   36.8920   30.6570   38.0510 N   0  0  0  0  0  0  0  0  0  0  0  0
   36.1870   29.6010   37.6240 C   0  0  0  0  0  0  0  0  0  0  0  0
   36.3630   28.3990   38.2010 N   0  0  0  0  0  0  0  0  0  0  0  0
   37.3270   27.2320   39.6300 H   0  0  0  0  0  0  0  0  0  0  0  0
   35.4880   29.8060   36.7990 H   0  0  0  0  0  0  0  0  0  0  0  0
   38.4990   31.7320   39.4540 C   0  0  0  0  0  0  0  0  0  0  0  0
   38.0570   32.6560   40.3870 C   0  0  0  0  0  0  0  0  0  0  0  0
   38.7040   33.8380   40.6610 C   0  0  0  0  0  0  0  0  0  0  0  0
   39.8660   34.1610   39.9890 C   0  0  0  0  0  0  0  0  0  0  0  0
   40.3310   33.2230   39.0330 C   0  0  0  0  0  0  0  0  0  0  0  0
   41.4810   33.5360   38.3590 C   0  0  0  0  0  0  0  0  0  0  0  0
   42.0020   32.6680   37.4160 C   0  0  0  0  0  0  0  0  0  0  0  0
   41.3420   31.4630   37.1590 C   0  0  0  0  0  0  0  0  0  0  0  0
   40.1610   31.1720   37.8660 C   0  0  0  0  0  0  0  0  0  0  0  0
   39.6630   32.0630   38.7940 C   0  0  0  0  0  0  0  0  0  0  0  0
   37.1810   32.4990   40.9400 H   0  0  0  0  0  0  0  0  0  0  0  0
   38.3610   34.5560   41.3870 H   0  0  0  0  0  0  0  0  0  0  0  0
   40.3820   35.0890   40.1940 H   0  0  0  0  0  0  0  0  0  0  0  0
   41.9800   34.4920   38.5880 H   0  0  0  0  0  0  0  0  0  0  0  0
   42.9200   33.0240   36.9430 H   0  0  0  0  0  0  0  0  0  0  0  0
   41.8830   30.9160   36.4080 H   0  0  0  0  0  0  0  0  0  0  0  0
   39.9150   30.2230   37.5150 H   0  0  0  0  0  0  0  0  0  0  0  0
   38.8270   29.0740   40.7000 O   0  0  0  0  0  0  0  0  0  0  0  0
   39.2390   30.1670   43.0610 O   0  0  0  0  0  0  0  0  0  0  0  0
   38.3710   29.1930   42.3380 P   0  0  1  0  0  0  0  0  0  0  0  0
   36.7760   29.7490   42.4750 O   0  0  0  0  0  0  0  0  0  0  0  0
   36.6650   30.0750   43.3950 H   0  0  0  0  0  0  0  0  0  0  0  0
   38.4640   27.6760   43.0390 O   0  0  0  0  0  0  0  0  0  0  0  0
   38.1390   26.4850   42.5120 C   0  0  0  0  0  0  0  0  0  0  0  0
   36.9330   25.7880   42.4690 C   0  0  0  0  0  0  0  0  0  0  0  0
   36.0830   26.2620   42.9350 H   0  0  0  0  0  0  0  0  0  0  0  0
   36.9010   24.5640   41.8490 C   0  0  0  0  0  3  0  0  0  0  0  0
   38.0220   24.0410   41.2880 C   0  0  0  0  0  3  0  0  0  0  0  0
   39.3380   25.3670   41.6250 S   0  0  0  0  0  0  0  0  0  0  0  0
  1  7  1  0  0  0  0
  1  2  1  0  0  0  0
  2 26  1  0  0  0  0
  3  9  1  0  0  0  0
  3  2  2  0  0  0  0
  4  3  1  0  0  0  0
  5  4  2  0  0  0  0
  5  6  1  0  0  0  0
  6  1  2  0  0  0  0
  8  5  1  0  0  0  0
  9 10  1  0  0  0  0
 10 11  2  0  0  0  0
 10 19  1  0  0  0  0
 11 20  1  0  0  0  0
 12 21  1  0  0  0  0
 12 11  1  0  0  0  0
 13 12  2  0  0  0  0
 14 22  1  0  0  0  0
 14 13  1  0  0  0  0
 15 14  2  0  0  0  0
 16 15  1  0  0  0  0
 16 17  2  0  0  0  0
 17 18  1  0  0  0  0
 18 13  1  0  0  0  0
 18  9  2  0  0  0  0
 23 15  1  0  0  0  0
 24 16  1  0  0  0  0
 25 17  1  0  0  0  0
 26 28  1  0  0  0  0
 28 29  1  0  0  0  0
 28 31  1  0  0  0  0
 28 27  2  1  0  0  0
 29 30  1  0  0  0  0
 32 31  1  0  0  0  0
 33 32  2  0  0  0  0
 33 34  1  0  0  0  0
 35 33  1  0  0  0  0
 36 37  1  0  0  0  0
 36 35  2  0  0  0  0
 37 32  1  0  0  0  0
M  END
>  <minimizedAffinity>
-5.86727095

$$$$

 OpenBabel03252508063D

 37 40  0  0  0  0  0  0  0  0999 V2000
   36.5310   29.2100   37.7610 C   0  0  0  0  0  0  0  0  0  0  0  0
   37.0680   29.0880   39.0430 C   0  0  0  0  0  0  0  0  0  0  0  0
   36.7810   27.9630   39.7930 C   0  0  0  0  0  0  0  0  0  0  0  0
   35.9780   27.0010   39.2290 N   0  0  0  0  0  0  0  0  0  0  0  0
   35.4750   27.1390   37.9950 C   0  0  0  0  0  0  0  0  0  0  0  0
   35.7550   28.2420   37.2770 N   0  0  0  0  0  0  0  0  0  0  0  0
   36.7240   30.0780   37.1360 H   0  0  0  0  0  0  0  0  0  0  0  0
   34.8450   26.3070   37.6480 H   0  0  0  0  0  0  0  0  0  0  0  0
   37.2670   27.7170   41.1090 C   0  0  0  0  0  0  0  0  0  0  0  0
   36.6090   28.0520   42.2810 C   0  0  0  0  0  0  0  0  0  0  0  0
   37.1480   27.8910   43.5360 C   0  0  0  0  0  0  0  0  0  0  0  0
   38.4170   27.3690   43.6800 C   0  0  0  0  0  0  0  0  0  0  0  0
   39.1020   27.0200   42.4880 C   0  0  0  0  0  0  0  0  0  0  0  0
   40.3630   26.5030   42.6200 C   0  0  0  0  0  0  0  0  0  0  0  0
   41.0920   26.1320   41.5050 C   0  0  0  0  0  0  0  0  0  0  0  0
   40.5260   26.2870   40.2360 C   0  0  0  0  0  0  0  0  0  0  0  0
   39.2290   26.8230   40.1340 C   0  0  0  0  0  0  0  0  0  0  0  0
   38.5310   27.1910   41.2650 C   0  0  0  0  0  0  0  0  0  0  0  0
   35.6440   28.4610   42.2690 H   0  0  0  0  0  0  0  0  0  0  0  0
   36.6350   28.1500   44.4470 H   0  0  0  0  0  0  0  0  0  0  0  0
   38.8530   27.2400   44.6610 H   0  0  0  0  0  0  0  0  0  0  0  0
   40.7800   26.3900   43.6350 H   0  0  0  0  0  0  0  0  0  0  0  0
   42.0840   25.7350   41.7330 H   0  0  0  0  0  0  0  0  0  0  0  0
   41.2230   25.9480   39.4930 H   0  0  0  0  0  0  0  0  0  0  0  0
   39.0490   26.7870   39.1080 H   0  0  0  0  0  0  0  0  0  0  0  0
   37.8680   30.1050   39.4770 O   0  0  0  0  0  0  0  0  0  0  0  0
   36.9380   32.5450   39.1370 O   0  0  0  0  0  0  0  0  0  0  0  0
   37.2660   31.5340   40.1830 P   0  0  1  0  0  0  0  0  0  0  0  0
   35.8380   31.2220   41.0410 O   0  0  0  0  0  0  0  0  0  0  0  0
   35.3880   32.0850   41.1690 H   0  0  0  0  0  0  0  0  0  0  0  0
   38.4060   32.1330   41.2530 O   0  0  0  0  0  0  0  0  0  0  0  0
   39.5870   31.6000   41.6080 C   0  0  0  0  0  0  0  0  0  0  0  0
   39.9100   30.5520   42.4670 C   0  0  0  0  0  0  0  0  0  0  0  0
   39.0860   30.0530   42.9540 H   0  0  0  0  0  0  0  0  0  0  0  0
   41.2320   30.2250   42.6380 C   0  0  0  0  0  3  0  0  0  0  0  0
   42.2070   30.9080   41.9850 C   0  0  0  0  0  3  0  0  0  0  0  0
   41.2370   32.1930   40.9770 S   0  0  0  0  0  0  0  0  0  0  0  0
  1  2  1  0  0  0  0
  2 26  1  0  0  0  0
  2  3  2  0  0  0  0
  3  9  1  0  0  0  0
  4  3  1  0  0  0  0
  5  4  2  0  0  0  0
  6  1  2  0  0  0  0
  6  5  1  0  0  0  0
  7  1  1  0  0  0  0
  8  5  1  0  0  0  0
  9 18  2  0  0  0  0
  9 10  1  0  0  0  0
 10 11  2  0  0  0  0
 11 12  1  0  0  0  0
 11 20  1  0  0  0  0
 12 21  1  0  0  0  0
 13 14  1  0  0  0  0
 13 12  2  0  0  0  0
 14 22  1  0  0  0  0
 15 23  1  0  0  0  0
 15 14  2  0  0  0  0
 16 15  1  0  0  0  0
 17 16  2  0  0  0  0
 17 18  1  0  0  0  0
 18 13  1  0  0  0  0
 19 10  1  0  0  0  0
 24 16  1  0  0  0  0
 25 17  1  0  0  0  0
 26 28  1  0  0  0  0
 28 27  2  6  0  0  0
 28 29  1  0  0  0  0
 28 31  1  0  0  0  0
 29 30  1  0  0  0  0
 31 32  1  0  0  0  0
 32 33  2  0  0  0  0
 33 35  1  0  0  0  0
 33 34  1  0  0  0  0
 36 35  2  0  0  0  0
 37 32  1  0  0  0  0
 37 36  1  0  0  0  0
M  END
>  <minimizedAffinity>
-5.70582008

$$$$

 OpenBabel03252508063D

 37 40  0  0  0  0  0  0  0  0999 V2000
   36.8790   28.6030   36.4300 C   0  0  0  0  0  0  0  0  0  0  0  0
   37.2900   28.4150   37.7500 C   0  0  0  0  0  0  0  0  0  0  0  0
   36.3590   28.5040   38.7680 C   0  0  0  0  0  0  0  0  0  0  0  0
   35.0550   28.7690   38.4260 N   0  0  0  0  0  0  0  0  0  0  0  0
   34.6830   28.9440   37.1510 C   0  0  0  0  0  0  0  0  0  0  0  0
   35.5990   28.8610   36.1690 N   0  0  0  0  0  0  0  0  0  0  0  0
   37.5750   28.5460   35.5970 H   0  0  0  0  0  0  0  0  0  0  0  0
   33.6140   29.1500   36.9970 H   0  0  0  0  0  0  0  0  0  0  0  0
   36.6480   28.3320   40.1520 C   0  0  0  0  0  0  0  0  0  0  0  0
   36.9310   29.3530   41.0450 C   0  0  0  0  0  0  0  0  0  0  0  0
   37.3020   29.1470   42.3520 C   0  0  0  0  0  0  0  0  0  0  0  0
   37.4130   27.8620   42.8440 C   0  0  0  0  0  0  0  0  0  0  0  0
   37.1250   26.8070   41.9410 C   0  0  0  0  0  0  0  0  0  0  0  0
   37.2350   25.5280   42.4190 C   0  0  0  0  0  0  0  0  0  0  0  0
   36.9630   24.4460   41.6010 C   0  0  0  0  0  0  0  0  0  0  0  0
   36.5720   24.6710   40.2790 C   0  0  0  0  0  0  0  0  0  0  0  0
   36.4700   25.9960   39.8170 C   0  0  0  0  0  0  0  0  0  0  0  0
   36.7560   27.0530   40.6560 C   0  0  0  0  0  0  0  0  0  0  0  0
   36.8790   30.3600   40.7580 H   0  0  0  0  0  0  0  0  0  0  0  0
   37.5200   29.9410   43.0460 H   0  0  0  0  0  0  0  0  0  0  0  0
   37.7070   27.6870   43.8700 H   0  0  0  0  0  0  0  0  0  0  0  0
   37.5420   25.3850   43.4680 H   0  0  0  0  0  0  0  0  0  0  0  0
   37.0860   23.4770   42.0900 H   0  0  0  0  0  0  0  0  0  0  0  0
   36.4000   23.7270   39.7950 H   0  0  0  0  0  0  0  0  0  0  0  0
   36.1300   25.8710   38.8410 H   0  0  0  0  0  0  0  0  0  0  0  0
   38.6100   28.1370   37.9530 O   0  0  0  0  0  0  0  0  0  0  0  0
   40.2630   29.3800   39.5830 O   0  0  0  0  0  0  0  0  0  0  0  0
   39.7980   29.3400   38.1670 P   0  0  1  0  0  0  0  0  0  0  0  0
   41.1560   29.0180   37.2050 O   0  0  0  0  0  0  0  0  0  0  0  0
   41.8980   29.5460   37.5720 H   0  0  0  0  0  0  0  0  0  0  0  0
   39.1630   30.8190   37.7060 O   0  0  0  0  0  0  0  0  0  0  0  0
   38.7230   31.8230   38.4820 C   0  0  0  0  0  0  0  0  0  0  0  0
   37.4360   32.2620   38.7880 C   0  0  0  0  0  0  0  0  0  0  0  0
   36.6190   31.7200   38.3370 H   0  0  0  0  0  0  0  0  0  0  0  0
   37.2900   33.3380   39.6280 C   0  0  0  0  0  3  0  0  0  0  0  0
   38.3760   33.9630   40.1500 C   0  0  0  0  0  3  0  0  0  0  0  0
   39.8330   32.9840   39.4260 S   0  0  0  0  0  0  0  0  0  0  0  0
  1  2  1  0  0  0  0
  2 26  1  0  0  0  0
  2  3  2  0  0  0  0
  3  9  1  0  0  0  0
  4  3  1  0  0  0  0
  5  4  2  0  0  0  0
  6  1  2  0  0  0  0
  6  5  1  0  0  0  0
  7  1  1  0  0  0  0
  8  5  1  0  0  0  0
  9 18  2  0  0  0  0
  9 10  1  0  0  0  0
 10 11  2  0  0  0  0
 11 12  1  0  0  0  0
 11 20  1  0  0  0  0
 12 21  1  0  0  0  0
 13 14  1  0  0  0  0
 13 12  2  0  0  0  0
 14 22  1  0  0  0  0
 15 23  1  0  0  0  0
 15 14  2  0  0  0  0
 16 15  1  0  0  0  0
 17 16  2  0  0  0  0
 17 18  1  0  0  0  0
 18 13  1  0  0  0  0
 19 10  1  0  0  0  0
 24 16  1  0  0  0  0
 25 17  1  0  0  0  0
 26 28  1  0  0  0  0
 28 27  2  1  0  0  0
 29 30  1  0  0  0  0
 29 28  1  0  0  0  0
 31 28  1  0  0  0  0
 31 32  1  0  0  0  0
 32 33  2  0  0  0  0
 32 37  1  0  0  0  0
 33 35  1  0  0  0  0
 34 33  1  0  0  0  0
 35 36  2  0  0  0  0
 37 36  1  0  0  0  0
M  END
>  <minimizedAffinity>
-5.61874342

$$$$

 OpenBabel03252508063D

 37 40  0  0  0  0  0  0  0  0999 V2000
   42.0440   28.6310   39.9520 C   0  0  0  0  0  0  0  0  0  0  0  0
   40.7250   28.5210   40.3890 C   0  0  0  0  0  0  0  0  0  0  0  0
   40.4700   28.0240   41.6540 C   0  0  0  0  0  0  0  0  0  0  0  0
   41.5430   27.6660   42.4330 N   0  0  0  0  0  0  0  0  0  0  0  0
   42.8020   27.7820   41.9920 C   0  0  0  0  0  0  0  0  0  0  0  0
   43.0390   28.2610   40.7570 N   0  0  0  0  0  0  0  0  0  0  0  0
   42.2950   29.0120   38.9650 H   0  0  0  0  0  0  0  0  0  0  0  0
   43.5800   27.4640   42.7020 H   0  0  0  0  0  0  0  0  0  0  0  0
   39.1720   27.8650   42.2180 C   0  0  0  0  0  0  0  0  0  0  0  0
   38.5540   28.7640   43.0720 C   0  0  0  0  0  0  0  0  0  0  0  0
   37.3400   28.5350   43.6780 C   0  0  0  0  0  0  0  0  0  0  0  0
   36.6670   27.3520   43.4490 C   0  0  0  0  0  0  0  0  0  0  0  0
   37.2870   26.4240   42.5750 C   0  0  0  0  0  0  0  0  0  0  0  0
   36.6270   25.2470   42.3440 C   0  0  0  0  0  0  0  0  0  0  0  0
   37.1650   24.2940   41.4980 C   0  0  0  0  0  0  0  0  0  0  0  0
   38.3910   24.5460   40.8770 C   0  0  0  0  0  0  0  0  0  0  0  0
   39.0450   25.7640   41.1360 C   0  0  0  0  0  0  0  0  0  0  0  0
   38.4860   26.6900   41.9920 C   0  0  0  0  0  0  0  0  0  0  0  0
   38.9940   29.6840   43.3090 H   0  0  0  0  0  0  0  0  0  0  0  0
   36.8600   29.2340   44.3410 H   0  0  0  0  0  0  0  0  0  0  0  0
   35.7130   27.1600   43.9220 H   0  0  0  0  0  0  0  0  0  0  0  0
   35.6600   25.0800   42.8460 H   0  0  0  0  0  0  0  0  0  0  0  0
   36.5510   23.3960   41.3910 H   0  0  0  0  0  0  0  0  0  0  0  0
   38.6530   23.7080   40.2570 H   0  0  0  0  0  0  0  0  0  0  0  0
   39.8880   25.7030   40.5280 H   0  0  0  0  0  0  0  0  0  0  0  0
   39.7510   28.9310   39.5250 O   0  0  0  0  0  0  0  0  0  0  0  0
   40.4840   31.4540   39.7170 O   0  0  0  0  0  0  0  0  0  0  0  0
   39.6550   30.5160   38.9060 P   0  0  1  0  0  0  0  0  0  0  0  0
   40.2470   30.5740   37.3190 O   0  0  0  0  0  0  0  0  0  0  0  0
   40.4430   31.5160   37.1210 H   0  0  0  0  0  0  0  0  0  0  0  0
   38.0520   30.9970   38.8910 O   0  0  0  0  0  0  0  0  0  0  0  0
   36.9550   30.2730   39.1650 C   0  0  0  0  0  0  0  0  0  0  0  0
   36.3700   29.8990   40.3740 C   0  0  0  0  0  0  0  0  0  0  0  0
   36.8620   30.2330   41.2740 H   0  0  0  0  0  0  0  0  0  0  0  0
   35.2260   29.1410   40.3440 C   0  0  0  0  0  3  0  0  0  0  0  0
   34.6740   28.7620   39.1630 C   0  0  0  0  0  3  0  0  0  0  0  0
   35.8430   29.5220   37.8730 S   0  0  0  0  0  0  0  0  0  0  0  0
  1  2  2  0  0  0  0
  1  6  1  0  0  0  0
  2  3  1  0  0  0  0
  3  9  1  0  0  0  0
  3  4  2  0  0  0  0
  5  4  1  0  0  0  0
  5  8  1  0  0  0  0
  6  5  2  0  0  0  0
  7  1  1  0  0  0  0
  9 10  1  0  0  0  0
 10 19  1  0  0  0  0
 10 11  2  0  0  0  0
 11 20  1  0  0  0  0
 12 11  1  0  0  0  0
 12 21  1  0  0  0  0
 13 12  2  0  0  0  0
 14 13  1  0  0  0  0
 14 22  1  0  0  0  0
 15 14  2  0  0  0  0
 16 17  2  0  0  0  0
 16 15  1  0  0  0  0
 17 18  1  0  0  0  0
 18  9  2  0  0  0  0
 18 13  1  0  0  0  0
 23 15  1  0  0  0  0
 24 16  1  0  0  0  0
 25 17  1  0  0  0  0
 26  2  1  0  0  0  0
 28 26  1  0  0  0  0
 28 27  2  1  0  0  0
 29 28  1  0  0  0  0
 30 29  1  0  0  0  0
 31 28  1  0  0  0  0
 31 32  1  0  0  0  0
 32 33  2  0  0  0  0
 33 34  1  0  0  0  0
 35 33  1  0  0  0  0
 36 35  2  0  0  0  0
 37 36  1  0  0  0  0
 37 32  1  0  0  0  0
M  END
>  <minimizedAffinity>
-5.54655361

$$$$

 OpenBabel03252508063D

 37 40  0  0  0  0  0  0  0  0999 V2000
   37.1270   29.5920   37.1730 C   0  0  0  0  0  0  0  0  0  0  0  0
   37.4880   29.1910   38.4590 C   0  0  0  0  0  0  0  0  0  0  0  0
   36.5060   28.7830   39.3420 C   0  0  0  0  0  0  0  0  0  0  0  0
   35.2040   28.7820   38.9010 N   0  0  0  0  0  0  0  0  0  0  0  0
   34.8820   29.1690   37.6600 C   0  0  0  0  0  0  0  0  0  0  0  0
   35.8450   29.5710   36.8110 N   0  0  0  0  0  0  0  0  0  0  0  0
   37.8630   29.9250   36.4450 H   0  0  0  0  0  0  0  0  0  0  0  0
   33.8090   29.1280   37.4180 H   0  0  0  0  0  0  0  0  0  0  0  0
   36.7420   28.3490   40.6780 C   0  0  0  0  0  0  0  0  0  0  0  0
   36.9890   29.1810   41.7580 C   0  0  0  0  0  0  0  0  0  0  0  0
   37.3100   28.7290   43.0160 C   0  0  0  0  0  0  0  0  0  0  0  0
   37.4040   27.3730   43.2590 C   0  0  0  0  0  0  0  0  0  0  0  0
   37.1520   26.5100   42.1620 C   0  0  0  0  0  0  0  0  0  0  0  0
   37.2450   25.1630   42.3930 C   0  0  0  0  0  0  0  0  0  0  0  0
   37.0070   24.2580   41.3760 C   0  0  0  0  0  0  0  0  0  0  0  0
   36.6660   24.7310   40.1060 C   0  0  0  0  0  0  0  0  0  0  0  0
   36.5800   26.1200   39.9000 C   0  0  0  0  0  0  0  0  0  0  0  0
   36.8320   26.9980   40.9340 C   0  0  0  0  0  0  0  0  0  0  0  0
   36.9470   30.2240   41.6660 H   0  0  0  0  0  0  0  0  0  0  0  0
   37.5010   29.3750   43.8560 H   0  0  0  0  0  0  0  0  0  0  0  0
   37.6590   27.0060   44.2440 H   0  0  0  0  0  0  0  0  0  0  0  0
   37.5120   24.8220   43.4070 H   0  0  0  0  0  0  0  0  0  0  0  0
   37.1120   23.2120   41.6760 H   0  0  0  0  0  0  0  0  0  0  0  0
   36.5140   23.8970   39.4460 H   0  0  0  0  0  0  0  0  0  0  0  0
   36.2780   26.1850   38.9060 H   0  0  0  0  0  0  0  0  0  0  0  0
   38.8180   29.2190   38.7650 O   0  0  0  0  0  0  0  0  0  0  0  0
   38.7010   31.6400   39.7960 O   0  0  0  0  0  0  0  0  0  0  0  0
   39.6450   30.6370   39.2230 P   0  0  1  0  0  0  0  0  0  0  0  0
   40.7970   30.2980   40.4180 O   0  0  0  0  0  0  0  0  0  0  0  0
   41.0250   31.1510   40.8460 H   0  0  0  0  0  0  0  0  0  0  0  0
   40.4360   31.2600   37.8860 O   0  0  0  0  0  0  0  0  0  0  0  0
   41.4810   32.1030   37.8450 C   0  0  0  0  0  0  0  0  0  0  0  0
   42.7440   31.9860   37.2690 C   0  0  0  0  0  0  0  0  0  0  0  0
   42.9570   31.0630   36.7520 H   0  0  0  0  0  0  0  0  0  0  0  0
   43.6230   33.0330   37.3910 C   0  0  0  0  0  3  0  0  0  0  0  0
   43.2700   34.1610   38.0600 C   0  0  0  0  0  3  0  0  0  0  0  0
   41.4950   33.7950   38.6250 S   0  0  0  0  0  0  0  0  0  0  0  0
  1  2  1  0  0  0  0
  2 26  1  0  0  0  0
  2  3  2  0  0  0  0
  3  9  1  0  0  0  0
  4  3  1  0  0  0  0
  5  4  2  0  0  0  0
  6  1  2  0  0  0  0
  6  5  1  0  0  0  0
  7  1  1  0  0  0  0
  8  5  1  0  0  0  0
  9 18  2  0  0  0  0
  9 10  1  0  0  0  0
 10 11  2  0  0  0  0
 11 12  1  0  0  0  0
 11 20  1  0  0  0  0
 12 21  1  0  0  0  0
 13 14  1  0  0  0  0
 13 12  2  0  0  0  0
 14 22  1  0  0  0  0
 15 23  1  0  0  0  0
 15 14  2  0  0  0  0
 16 15  1  0  0  0  0
 17 16  2  0  0  0  0
 17 18  1  0  0  0  0
 18 13  1  0  0  0  0
 19 10  1  0  0  0  0
 24 16  1  0  0  0  0
 25 17  1  0  0  0  0
 26 28  1  0  0  0  0
 28 27  2  1  0  0  0
 28 29  1  0  0  0  0
 29 30  1  0  0  0  0
 31 28  1  0  0  0  0
 32 31  1  0  0  0  0
 32 37  1  0  0  0  0
 33 35  1  0  0  0  0
 33 32  2  0  0  0  0
 34 33  1  0  0  0  0
 35 36  2  0  0  0  0
 36 37  1  0  0  0  0
M  END
>  <minimizedAffinity>
-5.51192904

$$$$

 OpenBabel03252508063D

 37 40  0  0  0  0  0  0  0  0999 V2000
   36.6040   30.1440   37.4550 C   0  0  0  0  0  0  0  0  0  0  0  0
   37.5690   29.9120   38.4350 C   0  0  0  0  0  0  0  0  0  0  0  0
   37.8200   28.6160   38.8440 C   0  0  0  0  0  0  0  0  0  0  0  0
   37.1060   27.6030   38.2510 N   0  0  0  0  0  0  0  0  0  0  0  0
   36.1860   27.8500   37.3090 C   0  0  0  0  0  0  0  0  0  0  0  0
   35.9440   29.1160   36.9230 N   0  0  0  0  0  0  0  0  0  0  0  0
   36.3680   31.1460   37.1040 H   0  0  0  0  0  0  0  0  0  0  0  0
   35.6760   26.9630   36.9060 H   0  0  0  0  0  0  0  0  0  0  0  0
   38.7780   28.2460   39.8320 C   0  0  0  0  0  0  0  0  0  0  0  0
   40.1260   28.0270   39.5980 C   0  0  0  0  0  0  0  0  0  0  0  0
   41.0060   27.5760   40.5530 C   0  0  0  0  0  0  0  0  0  0  0  0
   40.5600   27.3130   41.8330 C   0  0  0  0  0  0  0  0  0  0  0  0
   39.1830   27.5350   42.0870 C   0  0  0  0  0  0  0  0  0  0  0  0
   38.7310   27.2750   43.3530 C   0  0  0  0  0  0  0  0  0  0  0  0
   37.4020   27.4740   43.6800 C   0  0  0  0  0  0  0  0  0  0  0  0
   36.5220   27.9480   42.7030 C   0  0  0  0  0  0  0  0  0  0  0  0
   37.0160   28.2040   41.4110 C   0  0  0  0  0  0  0  0  0  0  0  0
   38.3460   27.9870   41.1150 C   0  0  0  0  0  0  0  0  0  0  0  0
   40.5520   28.1930   38.6550 H   0  0  0  0  0  0  0  0  0  0  0  0
   42.0540   27.4060   40.3720 H   0  0  0  0  0  0  0  0  0  0  0  0
   41.2420   26.9550   42.5920 H   0  0  0  0  0  0  0  0  0  0  0  0
   39.4510   26.9060   44.1010 H   0  0  0  0  0  0  0  0  0  0  0  0
   37.1570   27.2310   44.7170 H   0  0  0  0  0  0  0  0  0  0  0  0
   35.5400   28.0460   43.1280 H   0  0  0  0  0  0  0  0  0  0  0  0
   36.1780   28.5750   40.9160 H   0  0  0  0  0  0  0  0  0  0  0  0
   38.2220   31.0030   38.9290 O   0  0  0  0  0  0  0  0  0  0  0  0
   36.9820   33.3190   39.1170 O   0  0  0  0  0  0  0  0  0  0  0  0
   37.4800   32.1690   39.9260 P   0  0  1  0  0  0  0  0  0  0  0  0
   36.1410   31.5060   40.7260 O   0  0  0  0  0  0  0  0  0  0  0  0
   35.5930   32.2590   41.0380 H   0  0  0  0  0  0  0  0  0  0  0  0
   38.5820   32.6820   41.0760 O   0  0  0  0  0  0  0  0  0  0  0  0
   39.7100   32.0790   41.4880 C   0  0  0  0  0  0  0  0  0  0  0  0
   39.9380   31.1050   42.4580 C   0  0  0  0  0  0  0  0  0  0  0  0
   39.0750   30.7460   42.9970 H   0  0  0  0  0  0  0  0  0  0  0  0
   41.2240   30.6710   42.6640 C   0  0  0  0  0  3  0  0  0  0  0  0
   42.2530   31.1790   41.9390 C   0  0  0  0  0  3  0  0  0  0  0  0
   41.4030   32.4340   40.7950 S   0  0  0  0  0  0  0  0  0  0  0  0
  1  2  1  0  0  0  0
  2  3  2  0  0  0  0
  2 26  1  0  0  0  0
  3  9  1  0  0  0  0
  4  3  1  0  0  0  0
  5  4  2  0  0  0  0
  6  5  1  0  0  0  0
  6  1  2  0  0  0  0
  7  1  1  0  0  0  0
  8  5  1  0  0  0  0
  9 18  1  0  0  0  0
 10  9  2  0  0  0  0
 10 11  1  0  0  0  0
 11 12  2  0  0  0  0
 12 13  1  0  0  0  0
 12 21  1  0  0  0  0
 13 14  1  0  0  0  0
 14 15  2  0  0  0  0
 14 22  1  0  0  0  0
 15 23  1  0  0  0  0
 16 24  1  0  0  0  0
 16 15  1  0  0  0  0
 17 16  2  0  0  0  0
 18 17  1  0  0  0  0
 18 13  2  0  0  0  0
 19 10  1  0  0  0  0
 20 11  1  0  0  0  0
 25 17  1  0  0  0  0
 26 28  1  0  0  0  0
 28 27  2  6  0  0  0
 28 29  1  0  0  0  0
 28 31  1  0  0  0  0
 29 30  1  0  0  0  0
 31 32  1  0  0  0  0
 32 33  2  0  0  0  0
 33 35  1  0  0  0  0
 33 34  1  0  0  0  0
 36 35  2  0  0  0  0
 37 32  1  0  0  0  0
 37 36  1  0  0  0  0
M  END
>  <minimizedAffinity>
-5.43628645

$$$$

 OpenBabel03252508063D

 37 40  0  0  0  0  0  0  0  0999 V2000
   36.2280   29.6560   37.2140 C   0  0  0  0  0  0  0  0  0  0  0  0
   36.8520   29.3810   38.4310 C   0  0  0  0  0  0  0  0  0  0  0  0
   36.1190   28.8060   39.4520 C   0  0  0  0  0  0  0  0  0  0  0  0
   34.7960   28.5200   39.2130 N   0  0  0  0  0  0  0  0  0  0  0  0
   34.2200   28.7910   38.0350 C   0  0  0  0  0  0  0  0  0  0  0  0
   34.9410   29.3580   37.0500 N   0  0  0  0  0  0  0  0  0  0  0  0
   36.7620   30.1120   36.3830 H   0  0  0  0  0  0  0  0  0  0  0  0
   33.1560   28.5200   37.9580 H   0  0  0  0  0  0  0  0  0  0  0  0
   36.6360   28.4740   40.7370 C   0  0  0  0  0  0  0  0  0  0  0  0
   36.9540   29.3850   41.7320 C   0  0  0  0  0  0  0  0  0  0  0  0
   37.5430   29.0410   42.9260 C   0  0  0  0  0  0  0  0  0  0  0  0
   37.8530   27.7220   43.1880 C   0  0  0  0  0  0  0  0  0  0  0  0
   37.5310   26.7790   42.1790 C   0  0  0  0  0  0  0  0  0  0  0  0
   37.8370   25.4680   42.4290 C   0  0  0  0  0  0  0  0  0  0  0  0
   37.5480   24.4880   41.4960 C   0  0  0  0  0  0  0  0  0  0  0  0
   36.9350   24.8500   40.2930 C   0  0  0  0  0  0  0  0  0  0  0  0
   36.6350   26.2050   40.0660 C   0  0  0  0  0  0  0  0  0  0  0  0
   36.9440   27.1590   41.0130 C   0  0  0  0  0  0  0  0  0  0  0  0
   36.7610   30.4080   41.6180 H   0  0  0  0  0  0  0  0  0  0  0  0
   37.7890   29.7490   43.6990 H   0  0  0  0  0  0  0  0  0  0  0  0
   38.3190   27.4400   44.1220 H   0  0  0  0  0  0  0  0  0  0  0  0
   38.3170   25.2150   43.3880 H   0  0  0  0  0  0  0  0  0  0  0  0
   37.8390   23.4800   41.8040 H   0  0  0  0  0  0  0  0  0  0  0  0
   36.7810   23.9700   39.6950 H   0  0  0  0  0  0  0  0  0  0  0  0
   36.1600   26.1800   39.1390 H   0  0  0  0  0  0  0  0  0  0  0  0
   38.1760   29.6950   38.5320 O   0  0  0  0  0  0  0  0  0  0  0  0
   39.5270   27.4340   38.5650 O   0  0  0  0  0  0  0  0  0  0  0  0
   39.4180   28.7430   37.8570 P   0  0  1  0  0  0  0  0  0  0  0  0
   39.0940   28.4040   36.2290 O   0  0  0  0  0  0  0  0  0  0  0  0
   39.6560   27.6390   35.9790 H   0  0  0  0  0  0  0  0  0  0  0  0
   40.8590   29.5900   37.9450 O   0  0  0  0  0  0  0  0  0  0  0  0
   41.0500   30.9090   38.1070 C   0  0  0  0  0  0  0  0  0  0  0  0
   41.3900   31.9140   37.2030 C   0  0  0  0  0  0  0  0  0  0  0  0
   41.5330   31.6140   36.1770 H   0  0  0  0  0  0  0  0  0  0  0  0
   41.5190   33.2000   37.6670 C   0  0  0  0  0  3  0  0  0  0  0  0
   41.3210   33.4880   38.9790 C   0  0  0  0  0  3  0  0  0  0  0  0
   40.8940   31.8000   39.7360 S   0  0  0  0  0  0  0  0  0  0  0  0
  1  2  1  0  0  0  0
  2 26  1  0  0  0  0
  2  3  2  0  0  0  0
  3  9  1  0  0  0  0
  4  3  1  0  0  0  0
  5  4  2  0  0  0  0
  6  1  2  0  0  0  0
  6  5  1  0  0  0  0
  7  1  1  0  0  0  0
  8  5  1  0  0  0  0
  9 18  2  0  0  0  0
  9 10  1  0  0  0  0
 10 11  2  0  0  0  0
 11 12  1  0  0  0  0
 11 20  1  0  0  0  0
 12 21  1  0  0  0  0
 13 14  1  0  0  0  0
 13 12  2  0  0  0  0
 14 22  1  0  0  0  0
 15 23  1  0  0  0  0
 15 14  2  0  0  0  0
 16 15  1  0  0  0  0
 17 16  2  0  0  0  0
 17 18  1  0  0  0  0
 18 13  1  0  0  0  0
 19 10  1  0  0  0  0
 24 16  1  0  0  0  0
 25 17  1  0  0  0  0
 28 31  1  0  0  0  0
 28 26  1  0  0  0  0
 28 27  2  1  0  0  0
 29 28  1  0  0  0  0
 30 29  1  0  0  0  0
 31 32  1  0  0  0  0
 32 37  1  0  0  0  0
 33 35  1  0  0  0  0
 33 32  2  0  0  0  0
 34 33  1  0  0  0  0
 35 36  2  0  0  0  0
 36 37  1  0  0  0  0
M  END
>  <minimizedAffinity>
-5.41145372

$$$$

 OpenBabel03252508063D

 37 40  0  0  0  0  0  0  0  0999 V2000
   37.1840   28.8040   37.8700 C   0  0  0  0  0  0  0  0  0  0  0  0
   37.5010   28.1230   39.0460 C   0  0  0  0  0  0  0  0  0  0  0  0
   37.5670   26.7430   39.0320 C   0  0  0  0  0  0  0  0  0  0  0  0
   37.3240   26.0980   37.8430 N   0  0  0  0  0  0  0  0  0  0  0  0
   37.0230   26.7730   36.7260 C   0  0  0  0  0  0  0  0  0  0  0  0
   36.9550   28.1170   36.7520 N   0  0  0  0  0  0  0  0  0  0  0  0
   37.1160   29.8880   37.8320 H   0  0  0  0  0  0  0  0  0  0  0  0
   36.8480   26.1530   35.8340 H   0  0  0  0  0  0  0  0  0  0  0  0
   37.8810   25.9320   40.1600 C   0  0  0  0  0  0  0  0  0  0  0  0
   36.9550   25.3360   41.0010 C   0  0  0  0  0  0  0  0  0  0  0  0
   37.2900   24.6400   42.1390 C   0  0  0  0  0  0  0  0  0  0  0  0
   38.6150   24.5070   42.5020 C   0  0  0  0  0  0  0  0  0  0  0  0
   39.5740   25.1110   41.6490 C   0  0  0  0  0  0  0  0  0  0  0  0
   40.8910   24.9860   42.0030 C   0  0  0  0  0  0  0  0  0  0  0  0
   41.8850   25.5420   41.2180 C   0  0  0  0  0  0  0  0  0  0  0  0
   41.5320   26.2330   40.0560 C   0  0  0  0  0  0  0  0  0  0  0  0
   40.1700   26.3450   39.7210 C   0  0  0  0  0  0  0  0  0  0  0  0
   39.2010   25.7870   40.5300 C   0  0  0  0  0  0  0  0  0  0  0  0
   35.9270   25.3910   40.8090 H   0  0  0  0  0  0  0  0  0  0  0  0
   36.5700   24.1760   42.7920 H   0  0  0  0  0  0  0  0  0  0  0  0
   38.8900   23.9650   43.3970 H   0  0  0  0  0  0  0  0  0  0  0  0
   41.1360   24.4320   42.9230 H   0  0  0  0  0  0  0  0  0  0  0  0
   42.8960   25.3800   41.6000 H   0  0  0  0  0  0  0  0  0  0  0  0
   42.4220   26.5910   39.5720 H   0  0  0  0  0  0  0  0  0  0  0  0
   40.2000   26.8570   38.8140 H   0  0  0  0  0  0  0  0  0  0  0  0
   37.7410   28.8830   40.1540 O   0  0  0  0  0  0  0  0  0  0  0  0
   35.1990   28.9480   40.8420 O   0  0  0  0  0  0  0  0  0  0  0  0
   36.5080   29.6290   41.0630 P   0  0  1  0  0  0  0  0  0  0  0  0
   36.8460   29.5340   42.7210 O   0  0  0  0  0  0  0  0  0  0  0  0
   36.0020   29.7010   43.1950 H   0  0  0  0  0  0  0  0  0  0  0  0
   36.4190   31.2450   40.6330 O   0  0  0  0  0  0  0  0  0  0  0  0
   37.4170   32.1310   40.4850 C   0  0  0  0  0  0  0  0  0  0  0  0
   37.4980   33.3230   39.7680 C   0  0  0  0  0  0  0  0  0  0  0  0
   36.6180   33.6200   39.2190 H   0  0  0  0  0  0  0  0  0  0  0  0
   38.6720   34.0340   39.8030 C   0  0  0  0  0  3  0  0  0  0  0  0
   39.7340   33.5860   40.5220 C   0  0  0  0  0  3  0  0  0  0  0  0
   39.0940   31.9660   41.2790 S   0  0  0  0  0  0  0  0  0  0  0  0
  1  2  1  0  0  0  0
  2 26  1  0  0  0  0
  3  2  2  0  0  0  0
  3  9  1  0  0  0  0
  4  3  1  0  0  0  0
  5  6  1  0  0  0  0
  5  4  2  0  0  0  0
  6  1  2  0  0  0  0
  7  1  1  0  0  0  0
  8  5  1  0  0  0  0
  9 18  2  0  0  0  0
  9 10  1  0  0  0  0
 10 11  2  0  0  0  0
 11 12  1  0  0  0  0
 11 20  1  0  0  0  0
 12 21  1  0  0  0  0
 13 14  1  0  0  0  0
 13 12  2  0  0  0  0
 14 22  1  0  0  0  0
 15 23  1  0  0  0  0
 15 14  2  0  0  0  0
 16 15  1  0  0  0  0
 17 16  2  0  0  0  0
 17 18  1  0  0  0  0
 18 13  1  0  0  0  0
 19 10  1  0  0  0  0
 24 16  1  0  0  0  0
 25 17  1  0  0  0  0
 26 28  1  0  0  0  0
 28 27  2  6  0  0  0
 28 29  1  0  0  0  0
 29 30  1  0  0  0  0
 31 28  1  0  0  0  0
 32 31  1  0  0  0  0
 32 37  1  0  0  0  0
 33 35  1  0  0  0  0
 33 32  2  0  0  0  0
 34 33  1  0  0  0  0
 35 36  2  0  0  0  0
 36 37  1  0  0  0  0
M  END
>  <minimizedAffinity>
-5.39879608

$$$$
