
 OpenBabel03252508143D

 34 37  0  0  1  0  0  0  0  0999 V2000
   46.9050   30.7570   46.8010 C   0  0  0  0  0  0  0  0  0  0  0  0
   46.0330   30.0600   46.7560 H   0  0  0  0  0  0  0  0  0  0  0  0
   47.8790   30.2360   46.8150 H   0  0  0  0  0  0  0  0  0  0  0  0
   46.7520   31.6490   48.0100 C   0  0  1  0  0  0  0  0  0  0  0  0
   46.1770   31.0190   49.2270 C   0  0  0  0  0  0  0  0  0  0  0  0
   47.5810   31.3870   49.2120 C   0  0  1  0  0  0  0  0  0  0  0  0
   46.5560   32.7180   47.8160 H   0  0  0  0  0  0  0  0  0  0  0  0
   45.9400   29.9280   49.1780 H   0  0  0  0  0  0  0  0  0  0  0  0
   45.4370   31.5780   49.8480 H   0  0  0  0  0  0  0  0  0  0  0  0
   47.8330   32.2710   49.8770 H   0  0  0  0  0  0  0  0  0  0  0  0
   48.7170   30.4460   49.0780 C   0  0  0  0  0  0  0  0  0  0  0  0
   49.5820   30.2770   50.3510 C   0  0  0  0  0  0  0  0  0  0  0  0
   50.1140   31.0770   49.2300 C   0  0  0  0  0  0  0  0  0  0  0  0
   48.6450   29.5570   48.4220 H   0  0  0  0  0  0  0  0  0  0  0  0
   50.0070   29.2690   50.5300 H   0  0  0  0  0  0  0  0  0  0  0  0
   49.1850   30.7310   51.2780 H   0  0  0  0  0  0  0  0  0  0  0  0
   50.1510   32.1780   49.4220 H   0  0  0  0  0  0  0  0  0  0  0  0
   50.8980   30.6280   48.6000 H   0  0  0  0  0  0  0  0  0  0  0  0
   46.3770   32.7720   45.6680 C   0  0  0  0  0  3  0  0  0  0  0  0
   46.8260   31.5860   45.5320 C   0  0  0  0  0  3  0  0  0  0  0  0
   45.3730   35.4600   43.3670 C   0  0  0  0  0  0  0  0  0  0  0  0
   46.0300   35.1400   42.1880 C   0  0  0  0  0  0  0  0  0  0  0  0
   46.8080   34.0250   42.2190 C   0  0  0  0  0  0  0  0  0  0  0  0
   46.9110   33.2910   43.3580 N   0  0  0  0  0  0  0  0  0  0  0  0
   46.2640   33.6180   44.4870 C   0  0  0  0  0  0  0  0  0  0  0  0
   45.5040   34.7090   44.4550 N   0  0  0  0  0  0  0  0  0  0  0  0
   44.7600   36.3510   43.3200 H   0  0  0  0  0  0  0  0  0  0  0  0
   46.0230   35.6350   41.2480 H   0  0  0  0  0  0  0  0  0  0  0  0
   47.6040   33.4850   41.0920 C   0  0  0  0  0  0  0  0  0  0  0  0
   48.7370   32.6660   41.2130 C   0  0  0  0  0  0  0  0  0  0  0  0
   49.0980   32.3780   42.1870 H   0  0  0  0  0  0  0  0  0  0  0  0
   49.3360   32.2680   40.0570 C   0  0  0  0  0  3  0  0  0  0  0  0
   48.8690   32.6410   38.8050 C   0  0  0  0  0  3  0  0  0  0  0  0
   47.3630   33.7090   39.3360 S   0  0  0  0  0  0  0  0  0  0  0  0
  1  3  1  0  0  0  0
  1  4  1  0  0  0  0
  2  1  1  0  0  0  0
  4  7  1  6  0  0  0
  4  6  1  0  0  0  0
  4  5  1  0  0  0  0
  5  9  1  0  0  0  0
  6  5  1  0  0  0  0
  6 10  1  1  0  0  0
  8  5  1  0  0  0  0
 11  6  1  0  0  0  0
 11 13  1  0  0  0  0
 11 12  1  0  0  0  0
 12 15  1  0  0  0  0
 12 16  1  0  0  0  0
 13 17  1  0  0  0  0
 13 12  1  0  0  0  0
 14 11  1  0  0  0  0
 18 13  1  0  0  0  0
 20 19  2  0  0  0  0
 20  1  1  0  0  0  0
 21 26  1  0  0  0  0
 22 23  1  0  0  0  0
 22 21  2  0  0  0  0
 23 24  2  0  0  0  0
 24 25  1  0  0  0  0
 25 19  1  0  0  0  0
 26 25  2  0  0  0  0
 27 21  1  0  0  0  0
 28 22  1  0  0  0  0
 29 30  2  0  0  0  0
 29 23  1  0  0  0  0
 30 31  1  0  0  0  0
 32 30  1  0  0  0  0
 33 34  1  0  0  0  0
 33 32  2  0  0  0  0
 34 29  1  0  0  0  0
M  END
>  <minimizedAffinity>
-4.51952839

>  <minimizedRMSD>
1.31926608

$$$$
