
 OpenBabel03242522123D

 17 18  0  0  0  0  0  0  0  0999 V2000
   37.5890   32.5530   40.2990 C   0  0  0  0  0  0  0  0  0  0  0  0
   37.2280   31.3640   40.9360 C   0  0  0  0  0  0  0  0  0  0  0  0
   38.2190   30.5130   41.3940 C   0  0  0  0  0  0  0  0  0  0  0  0
   39.4990   30.9250   41.1750 N   0  0  0  0  0  0  0  0  0  0  0  0
   39.8380   32.0660   40.5650 C   0  0  0  0  0  0  0  0  0  0  0  0
   38.8810   32.8930   40.1200 N   0  0  0  0  0  0  0  0  0  0  0  0
   36.8860   33.2740   39.9120 H   0  0  0  0  0  0  0  0  0  0  0  0
   40.9050   32.2890   40.4460 H   0  0  0  0  0  0  0  0  0  0  0  0
   37.8860   29.3190   42.0330 C   0  0  0  0  0  0  0  0  0  0  0  0
   37.7020   28.9550   43.3040 C   0  0  0  0  0  0  0  0  0  0  0  0
   37.7960   29.6220   44.1510 H   0  0  0  0  0  0  0  0  0  0  0  0
   37.3730   27.6910   43.6800 C   0  0  0  0  0  3  0  0  0  0  0  0
   37.2360   26.7440   42.5260 C   0  0  0  0  0  3  0  0  0  0  0  0
   37.6190   27.8780   41.0660 S   0  0  0  0  0  0  0  0  0  0  0  0
   35.8250   31.1330   41.0570 N   0  0  0  0  0  0  0  0  0  0  0  0
   35.1070   30.7270   40.4100 H   0  0  0  0  0  0  0  0  0  0  0  0
   35.7190   31.5110   42.0380 H   0  0  0  0  0  0  0  0  0  0  0  0
  1  2  1  0  0  0  0
  2 15  1  0  0  0  0
  2  3  2  0  0  0  0
  3  9  1  0  0  0  0
  4  3  1  0  0  0  0
  5  4  2  0  0  0  0
  6  1  2  0  0  0  0
  6  5  1  0  0  0  0
  7  1  1  0  0  0  0
  8  5  1  0  0  0  0
  9 10  2  0  0  0  0
 10 12  1  0  0  0  0
 10 11  1  0  0  0  0
 13 12  2  0  0  0  0
 14  9  1  0  0  0  0
 14 13  1  0  0  0  0
 15 17  1  0  0  0  0
 16 15  1  0  0  0  0
M  END
>  <minimizedAffinity>
-4.25169659

$$$$

 OpenBabel03242522123D

 17 18  0  0  0  0  0  0  0  0999 V2000
   35.0490   29.2690   39.8480 C   0  0  0  0  0  0  0  0  0  0  0  0
   35.8720   30.3480   40.1780 C   0  0  0  0  0  0  0  0  0  0  0  0
   36.6810   30.9050   39.2040 C   0  0  0  0  0  0  0  0  0  0  0  0
   36.6010   30.3320   37.9700 N   0  0  0  0  0  0  0  0  0  0  0  0
   35.8110   29.2980   37.6610 C   0  0  0  0  0  0  0  0  0  0  0  0
   35.0250   28.7560   38.6020 N   0  0  0  0  0  0  0  0  0  0  0  0
   34.3870   28.7740   40.5420 H   0  0  0  0  0  0  0  0  0  0  0  0
   35.8330   28.9220   36.6310 H   0  0  0  0  0  0  0  0  0  0  0  0
   37.5120   31.9840   39.5060 C   0  0  0  0  0  0  0  0  0  0  0  0
   37.3240   33.2930   39.6800 C   0  0  0  0  0  0  0  0  0  0  0  0
   36.3650   33.7880   39.6020 H   0  0  0  0  0  0  0  0  0  0  0  0
   38.3270   34.1610   39.9770 C   0  0  0  0  0  3  0  0  0  0  0  0
   39.6690   33.5020   40.0900 C   0  0  0  0  0  3  0  0  0  0  0  0
   39.2300   31.7000   39.7370 S   0  0  0  0  0  0  0  0  0  0  0  0
   35.7950   30.7880   41.5340 N   0  0  0  0  0  0  0  0  0  0  0  0
   36.2600   30.4690   42.4180 H   0  0  0  0  0  0  0  0  0  0  0  0
   35.0980   31.5650   41.3750 H   0  0  0  0  0  0  0  0  0  0  0  0
  1  2  1  0  0  0  0
  1  7  1  0  0  0  0
  2 15  1  0  0  0  0
  3  9  1  0  0  0  0
  3  2  2  0  0  0  0
  4  3  1  0  0  0  0
  5  4  2  0  0  0  0
  5  6  1  0  0  0  0
  6  1  2  0  0  0  0
  8  5  1  0  0  0  0
  9 10  2  0  0  0  0
  9 14  1  0  0  0  0
 10 12  1  0  0  0  0
 11 10  1  0  0  0  0
 12 13  2  0  0  0  0
 14 13  1  0  0  0  0
 15 16  1  0  0  0  0
 17 15  1  0  0  0  0
M  END
>  <minimizedAffinity>
-4.11665154

$$$$

 OpenBabel03242522123D

 17 18  0  0  0  0  0  0  0  0999 V2000
   40.6120   34.1610   39.7220 C   0  0  0  0  0  0  0  0  0  0  0  0
   39.5780   33.4260   40.3060 C   0  0  0  0  0  0  0  0  0  0  0  0
   39.2490   32.1870   39.7850 C   0  0  0  0  0  0  0  0  0  0  0  0
   39.9870   31.7820   38.7140 N   0  0  0  0  0  0  0  0  0  0  0  0
   40.9760   32.4900   38.1580 C   0  0  0  0  0  0  0  0  0  0  0  0
   41.2980   33.6920   38.6600 N   0  0  0  0  0  0  0  0  0  0  0  0
   40.9350   35.1330   40.0600 H   0  0  0  0  0  0  0  0  0  0  0  0
   41.4980   32.0580   37.2970 H   0  0  0  0  0  0  0  0  0  0  0  0
   38.2210   31.4320   40.3500 C   0  0  0  0  0  0  0  0  0  0  0  0
   36.8920   31.4200   40.2340 C   0  0  0  0  0  0  0  0  0  0  0  0
   36.3290   32.0880   39.5950 H   0  0  0  0  0  0  0  0  0  0  0  0
   36.0890   30.5600   40.9130 C   0  0  0  0  0  3  0  0  0  0  0  0
   36.8430   29.6220   41.8070 C   0  0  0  0  0  3  0  0  0  0  0  0
   38.6240   30.1670   41.4990 S   0  0  0  0  0  0  0  0  0  0  0  0
   38.9390   34.0450   41.4230 N   0  0  0  0  0  0  0  0  0  0  0  0
   38.1670   34.7490   41.5070 H   0  0  0  0  0  0  0  0  0  0  0  0
   39.5020   33.5610   42.1740 H   0  0  0  0  0  0  0  0  0  0  0  0
  1  7  1  0  0  0  0
  1  2  1  0  0  0  0
  2 15  1  0  0  0  0
  3  2  2  0  0  0  0
  3  9  1  0  0  0  0
  4  3  1  0  0  0  0
  5  6  1  0  0  0  0
  5  4  2  0  0  0  0
  6  1  2  0  0  0  0
  8  5  1  0  0  0  0
  9 14  1  0  0  0  0
 10  9  2  0  0  0  0
 10 12  1  0  0  0  0
 11 10  1  0  0  0  0
 12 13  2  0  0  0  0
 14 13  1  0  0  0  0
 15 16  1  0  0  0  0
 15 17  1  0  0  0  0
M  END
>  <minimizedAffinity>
-3.78832006

$$$$

 OpenBabel03242522123D

 17 18  0  0  0  0  0  0  0  0999 V2000
   42.2310   33.5510   37.4900 C   0  0  0  0  0  0  0  0  0  0  0  0
   41.0100   33.0020   37.8870 C   0  0  0  0  0  0  0  0  0  0  0  0
   40.6520   33.0400   39.2230 C   0  0  0  0  0  0  0  0  0  0  0  0
   41.5520   33.6300   40.0590 N   0  0  0  0  0  0  0  0  0  0  0  0
   42.7200   34.1550   39.6730 C   0  0  0  0  0  0  0  0  0  0  0  0
   43.0710   34.1190   38.3790 N   0  0  0  0  0  0  0  0  0  0  0  0
   42.5910   33.5660   36.4730 H   0  0  0  0  0  0  0  0  0  0  0  0
   43.3620   34.6020   40.4400 H   0  0  0  0  0  0  0  0  0  0  0  0
   39.4380   32.5000   39.6460 C   0  0  0  0  0  0  0  0  0  0  0  0
   38.1950   32.9680   39.7740 C   0  0  0  0  0  0  0  0  0  0  0  0
   37.8970   33.9820   39.5360 H   0  0  0  0  0  0  0  0  0  0  0  0
   37.1550   32.2180   40.2220 C   0  0  0  0  0  3  0  0  0  0  0  0
   37.5390   30.8090   40.5590 C   0  0  0  0  0  3  0  0  0  0  0  0
   39.3840   30.8210   40.1590 S   0  0  0  0  0  0  0  0  0  0  0  0
   40.2230   32.4350   36.8400 N   0  0  0  0  0  0  0  0  0  0  0  0
   40.2220   31.4970   36.3710 H   0  0  0  0  0  0  0  0  0  0  0  0
   39.6120   33.2800   36.6700 H   0  0  0  0  0  0  0  0  0  0  0  0
  1  2  2  0  0  0  0
  1  6  1  0  0  0  0
  2  3  1  0  0  0  0
  3  9  1  0  0  0  0
  3  4  2  0  0  0  0
  5  4  1  0  0  0  0
  5  8  1  0  0  0  0
  6  5  2  0  0  0  0
  7  1  1  0  0  0  0
  9 10  2  0  0  0  0
  9 14  1  0  0  0  0
 10 12  1  0  0  0  0
 11 10  1  0  0  0  0
 12 13  2  0  0  0  0
 14 13  1  0  0  0  0
 15  2  1  0  0  0  0
 16 15  1  0  0  0  0
 17 15  1  0  0  0  0
M  END
>  <minimizedAffinity>
-3.78319502

$$$$

 OpenBabel03242522123D

 17 18  0  0  0  0  0  0  0  0999 V2000
   37.7000   23.0370   40.7230 C   0  0  0  0  0  0  0  0  0  0  0  0
   37.9050   24.1470   41.5450 C   0  0  0  0  0  0  0  0  0  0  0  0
   37.3080   25.3520   41.2170 C   0  0  0  0  0  0  0  0  0  0  0  0
   36.5500   25.3460   40.0840 N   0  0  0  0  0  0  0  0  0  0  0  0
   36.3580   24.2790   39.3010 C   0  0  0  0  0  0  0  0  0  0  0  0
   36.9350   23.1100   39.6160 N   0  0  0  0  0  0  0  0  0  0  0  0
   38.1250   22.0610   40.9010 H   0  0  0  0  0  0  0  0  0  0  0  0
   35.7260   24.3990   38.4130 H   0  0  0  0  0  0  0  0  0  0  0  0
   37.4950   26.4760   42.0200 C   0  0  0  0  0  0  0  0  0  0  0  0
   36.8350   27.0170   43.0460 C   0  0  0  0  0  0  0  0  0  0  0  0
   35.9260   26.6100   43.4700 H   0  0  0  0  0  0  0  0  0  0  0  0
   37.2340   28.1520   43.6780 C   0  0  0  0  0  3  0  0  0  0  0  0
   38.4910   28.7380   43.1110 C   0  0  0  0  0  3  0  0  0  0  0  0
   38.8820   27.5130   41.7280 S   0  0  0  0  0  0  0  0  0  0  0  0
   38.7370   23.9250   42.6830 N   0  0  0  0  0  0  0  0  0  0  0  0
   39.7760   23.9270   42.8220 H   0  0  0  0  0  0  0  0  0  0  0  0
   37.9590   23.7470   43.3750 H   0  0  0  0  0  0  0  0  0  0  0  0
  1  7  1  0  0  0  0
  1  2  1  0  0  0  0
  2 15  1  0  0  0  0
  3  2  2  0  0  0  0
  3  9  1  0  0  0  0
  4  3  1  0  0  0  0
  5  6  1  0  0  0  0
  5  4  2  0  0  0  0
  6  1  2  0  0  0  0
  8  5  1  0  0  0  0
  9 10  2  0  0  0  0
 10 11  1  0  0  0  0
 10 12  1  0  0  0  0
 13 12  2  0  0  0  0
 14  9  1  0  0  0  0
 14 13  1  0  0  0  0
 15 16  1  0  0  0  0
 15 17  1  0  0  0  0
M  END
>  <minimizedAffinity>
-3.7717514

$$$$

 OpenBabel03242522123D

 17 18  0  0  0  0  0  0  0  0999 V2000
   39.2480   31.5500   39.1240 C   0  0  0  0  0  0  0  0  0  0  0  0
   38.9950   30.5140   40.0250 C   0  0  0  0  0  0  0  0  0  0  0  0
   37.8780   30.5820   40.8390 C   0  0  0  0  0  0  0  0  0  0  0  0
   37.1010   31.6910   40.6840 N   0  0  0  0  0  0  0  0  0  0  0  0
   37.3500   32.6810   39.8200 C   0  0  0  0  0  0  0  0  0  0  0  0
   38.4310   32.6180   39.0290 N   0  0  0  0  0  0  0  0  0  0  0  0
   40.0920   31.5810   38.4530 H   0  0  0  0  0  0  0  0  0  0  0  0
   36.6500   33.5240   39.7870 H   0  0  0  0  0  0  0  0  0  0  0  0
   37.6000   29.5600   41.7460 C   0  0  0  0  0  0  0  0  0  0  0  0
   37.9910   29.2770   42.9900 C   0  0  0  0  0  0  0  0  0  0  0  0
   38.6810   29.8810   43.5660 H   0  0  0  0  0  0  0  0  0  0  0  0
   37.5630   28.1870   43.6800 C   0  0  0  0  0  3  0  0  0  0  0  0
   36.6060   27.3310   42.9060 C   0  0  0  0  0  3  0  0  0  0  0  0
   36.4930   28.2790   41.2770 S   0  0  0  0  0  0  0  0  0  0  0  0
   39.9430   29.4470   40.0170 N   0  0  0  0  0  0  0  0  0  0  0  0
   40.8700   29.3090   40.4870 H   0  0  0  0  0  0  0  0  0  0  0  0
   39.4090   28.8080   39.3670 H   0  0  0  0  0  0  0  0  0  0  0  0
  1  2  1  0  0  0  0
  2  3  2  0  0  0  0
  3  9  1  0  0  0  0
  4  3  1  0  0  0  0
  5  4  2  0  0  0  0
  6  1  2  0  0  0  0
  6  5  1  0  0  0  0
  7  1  1  0  0  0  0
  8  5  1  0  0  0  0
  9 10  2  0  0  0  0
 10 11  1  0  0  0  0
 10 12  1  0  0  0  0
 13 12  2  0  0  0  0
 14  9  1  0  0  0  0
 14 13  1  0  0  0  0
 15  2  1  0  0  0  0
 15 16  1  0  0  0  0
 17 15  1  0  0  0  0
M  END
>  <minimizedAffinity>
-3.62527084

$$$$

 OpenBabel03242522123D

 17 18  0  0  0  0  0  0  0  0999 V2000
   36.9400   30.2790   41.4990 C   0  0  0  0  0  0  0  0  0  0  0  0
   37.2080   29.0050   42.0020 C   0  0  0  0  0  0  0  0  0  0  0  0
   37.5810   27.9970   41.1310 C   0  0  0  0  0  0  0  0  0  0  0  0
   37.6560   28.3500   39.8170 N   0  0  0  0  0  0  0  0  0  0  0  0
   37.3980   29.5730   39.3410 C   0  0  0  0  0  0  0  0  0  0  0  0
   37.0360   30.5520   40.1820 N   0  0  0  0  0  0  0  0  0  0  0  0
   36.6430   31.1230   42.1030 H   0  0  0  0  0  0  0  0  0  0  0  0
   37.4930   29.7360   38.2610 H   0  0  0  0  0  0  0  0  0  0  0  0
   37.8560   26.7150   41.6070 C   0  0  0  0  0  0  0  0  0  0  0  0
   37.1370   25.6040   41.7800 C   0  0  0  0  0  0  0  0  0  0  0  0
   36.0840   25.5150   41.5450 H   0  0  0  0  0  0  0  0  0  0  0  0
   37.6520   24.4490   42.2760 C   0  0  0  0  0  3  0  0  0  0  0  0
   39.1110   24.5430   42.6110 C   0  0  0  0  0  3  0  0  0  0  0  0
   39.4860   26.3320   42.1370 S   0  0  0  0  0  0  0  0  0  0  0  0
   37.0660   28.8590   43.4150 N   0  0  0  0  0  0  0  0  0  0  0  0
   36.2430   28.6730   44.0380 H   0  0  0  0  0  0  0  0  0  0  0  0
   38.0840   29.0030   43.6590 H   0  0  0  0  0  0  0  0  0  0  0  0
  1  2  1  0  0  0  0
  1  7  1  0  0  0  0
  2 15  1  0  0  0  0
  3  9  1  0  0  0  0
  3  2  2  0  0  0  0
  4  3  1  0  0  0  0
  5  4  2  0  0  0  0
  5  6  1  0  0  0  0
  6  1  2  0  0  0  0
  8  5  1  0  0  0  0
  9 10  2  0  0  0  0
  9 14  1  0  0  0  0
 10 12  1  0  0  0  0
 11 10  1  0  0  0  0
 12 13  2  0  0  0  0
 14 13  1  0  0  0  0
 15 17  1  0  0  0  0
 15 16  1  0  0  0  0
M  END
>  <minimizedAffinity>
-3.61358929

$$$$

 OpenBabel03242522123D

 17 18  0  0  0  0  0  0  0  0999 V2000
   36.9500   30.3910   36.4810 C   0  0  0  0  0  0  0  0  0  0  0  0
   37.6950   31.3330   37.1930 C   0  0  0  0  0  0  0  0  0  0  0  0
   37.6570   31.3210   38.5760 C   0  0  0  0  0  0  0  0  0  0  0  0
   36.8700   30.3610   39.1380 N   0  0  0  0  0  0  0  0  0  0  0  0
   36.1590   29.4610   38.4500 C   0  0  0  0  0  0  0  0  0  0  0  0
   36.1930   29.4690   37.1100 N   0  0  0  0  0  0  0  0  0  0  0  0
   36.9200   30.3250   35.4050 H   0  0  0  0  0  0  0  0  0  0  0  0
   35.5610   28.7360   39.0150 H   0  0  0  0  0  0  0  0  0  0  0  0
   38.3920   32.2510   39.3120 C   0  0  0  0  0  0  0  0  0  0  0  0
   38.1140   33.4180   39.8950 C   0  0  0  0  0  0  0  0  0  0  0  0
   37.1400   33.8890   39.8840 H   0  0  0  0  0  0  0  0  0  0  0  0
   39.0330   34.1540   40.5740 C   0  0  0  0  0  3  0  0  0  0  0  0
   40.3930   33.5250   40.6050 C   0  0  0  0  0  3  0  0  0  0  0  0
   40.0930   31.9410   39.6210 S   0  0  0  0  0  0  0  0  0  0  0  0
   38.4500   32.2470   36.3990 N   0  0  0  0  0  0  0  0  0  0  0  0
   38.2100   33.1490   35.9210 H   0  0  0  0  0  0  0  0  0  0  0  0
   39.3650   31.7210   36.4360 H   0  0  0  0  0  0  0  0  0  0  0  0
  1  6  2  0  0  0  0
  1  2  1  0  0  0  0
  2  3  2  0  0  0  0
  3  4  1  0  0  0  0
  3  9  1  0  0  0  0
  5  8  1  0  0  0  0
  5  4  2  0  0  0  0
  6  5  1  0  0  0  0
  7  1  1  0  0  0  0
  9 14  1  0  0  0  0
  9 10  2  0  0  0  0
 10 12  1  0  0  0  0
 11 10  1  0  0  0  0
 12 13  2  0  0  0  0
 14 13  1  0  0  0  0
 15 17  1  0  0  0  0
 15  2  1  0  0  0  0
 16 15  1  0  0  0  0
M  END
>  <minimizedAffinity>
-3.59555697

$$$$

 OpenBabel03242522123D

 17 18  0  0  0  0  0  0  0  0999 V2000
   37.0220   27.0760   41.6240 C   0  0  0  0  0  0  0  0  0  0  0  0
   37.2140   28.2780   40.9390 C   0  0  0  0  0  0  0  0  0  0  0  0
   37.5290   29.4210   41.6520 C   0  0  0  0  0  0  0  0  0  0  0  0
   37.6270   29.2670   43.0020 N   0  0  0  0  0  0  0  0  0  0  0  0
   37.4420   28.1130   43.6530 C   0  0  0  0  0  0  0  0  0  0  0  0
   37.1360   27.0030   42.9650 N   0  0  0  0  0  0  0  0  0  0  0  0
   36.7740   26.1390   41.1510 H   0  0  0  0  0  0  0  0  0  0  0  0
   37.5470   28.1140   44.7440 H   0  0  0  0  0  0  0  0  0  0  0  0
   37.7270   30.6340   40.9930 C   0  0  0  0  0  0  0  0  0  0  0  0
   36.9240   31.6000   40.5430 C   0  0  0  0  0  0  0  0  0  0  0  0
   35.8450   31.5880   40.6320 H   0  0  0  0  0  0  0  0  0  0  0  0
   37.3750   32.7180   39.9150 C   0  0  0  0  0  3  0  0  0  0  0  0
   38.8670   32.7610   39.7770 C   0  0  0  0  0  3  0  0  0  0  0  0
   39.3640   31.1360   40.6000 S   0  0  0  0  0  0  0  0  0  0  0  0
   37.0620   28.2090   39.5210 N   0  0  0  0  0  0  0  0  0  0  0  0
   36.2290   28.2550   38.8870 H   0  0  0  0  0  0  0  0  0  0  0  0
   38.0860   28.0910   39.2910 H   0  0  0  0  0  0  0  0  0  0  0  0
  1  6  1  0  0  0  0
  2  1  2  0  0  0  0
  2  3  1  0  0  0  0
  3  4  2  0  0  0  0
  4  5  1  0  0  0  0
  5  8  1  0  0  0  0
  6  5  2  0  0  0  0
  7  1  1  0  0  0  0
  9  3  1  0  0  0  0
 10 11  1  0  0  0  0
 10  9  2  0  0  0  0
 12 10  1  0  0  0  0
 13 12  2  0  0  0  0
 13 14  1  0  0  0  0
 14  9  1  0  0  0  0
 15  2  1  0  0  0  0
 16 15  1  0  0  0  0
 17 15  1  0  0  0  0
M  END
>  <minimizedAffinity>
-3.58970261

$$$$
