
 OpenBabel03242523533D

 42 45  0  0  1  0  0  0  0  0999 V2000
   42.7980   34.4720   38.7980 C   0  0  1  0  0  0  0  0  0  0  0  0
   42.9580   35.1890   40.1290 C   0  0  1  0  0  0  0  0  0  0  0  0
   41.6770   35.4690   40.6390 O   0  0  0  0  0  0  0  0  0  0  0  0
   40.7580   35.7890   39.6360 C   0  0  0  0  0  0  0  0  0  0  0  0
   40.4180   34.5850   38.7780 C   0  0  2  0  0  0  0  0  0  0  0  0
   41.6110   33.5780   38.9470 C   0  0  1  0  0  0  0  0  0  0  0  0
   43.7300   33.9080   38.5410 H   0  0  0  0  0  0  0  0  0  0  0  0
   43.5750   36.0970   40.0620 H   0  0  0  0  0  0  0  0  0  0  0  0
   39.8410   36.0950   40.1500 H   0  0  0  0  0  0  0  0  0  0  0  0
   41.0910   36.6530   39.0280 H   0  0  0  0  0  0  0  0  0  0  0  0
   39.4780   34.1060   39.0880 H   0  0  0  0  0  0  0  0  0  0  0  0
   41.3930   33.3490   40.0430 H   0  0  0  0  0  0  0  0  0  0  0  0
   42.6020   35.3880   37.7540 O   0  0  0  0  0  0  0  0  0  0  0  0
   43.4250   35.8460   37.5210 H   0  0  0  0  0  0  0  0  0  0  0  0
   40.4400   34.9480   37.4390 O   0  0  0  0  0  0  0  0  0  0  0  0
   39.5240   35.1670   37.1010 H   0  0  0  0  0  0  0  0  0  0  0  0
   43.4720   34.2250   41.0110 O   0  0  0  0  0  0  0  0  0  0  0  0
   44.5900   34.3620   41.7340 C   0  0  0  0  0  0  0  0  0  0  0  0
   45.8440   34.4540   41.1130 C   0  0  0  0  0  0  0  0  0  0  0  0
   46.9690   34.5970   41.9100 C   0  0  0  0  0  0  0  0  0  0  0  0
   46.8210   34.6450   43.2860 N   0  0  0  0  0  0  0  0  0  0  0  0
   45.5940   34.5540   43.8480 C   0  0  0  0  0  0  0  0  0  0  0  0
   44.4850   34.4130   43.0750 N   0  0  0  0  0  0  0  0  0  0  0  0
   45.9670   34.4170   40.0450 H   0  0  0  0  0  0  0  0  0  0  0  0
   45.5550   34.5990   44.9280 H   0  0  0  0  0  0  0  0  0  0  0  0
   48.3400   34.6860   41.3250 C   0  0  0  0  0  0  0  0  0  0  0  0
   49.0740   36.0160   41.4980 C   0  0  0  0  0  0  0  0  0  0  0  0
   49.5020   34.6910   42.1560 C   0  0  0  0  0  0  0  0  0  0  0  0
   48.3900   34.2960   40.2690 H   0  0  0  0  0  0  0  0  0  0  0  0
   48.6410   36.7500   42.1770 H   0  0  0  0  0  0  0  0  0  0  0  0
   49.7510   36.3360   40.6830 H   0  0  0  0  0  0  0  0  0  0  0  0
   50.4500   34.2230   41.8200 H   0  0  0  0  0  0  0  0  0  0  0  0
   49.3670   34.6260   43.2640 H   0  0  0  0  0  0  0  0  0  0  0  0
   41.4480   32.6020   38.0330 O   0  0  0  0  0  0  0  0  0  0  0  0
   40.7250   31.4860   38.0750 C   0  0  0  0  0  0  0  0  0  0  0  0
   39.5840   31.3380   37.4240 O   0  0  0  0  0  0  0  0  0  0  0  0
   40.9200   30.0910   38.8080 C   0  0  0  0  0  0  0  0  0  0  0  0
   41.9280   29.3030   38.9360 C   0  0  0  0  0  0  0  0  0  0  0  0
   42.8380   29.6500   38.4580 H   0  0  0  0  0  0  0  0  0  0  0  0
   41.8000   28.1410   39.6270 C   0  0  0  0  0  3  0  0  0  0  0  0
   40.5360   27.8810   40.1680 C   0  0  0  0  0  3  0  0  0  0  0  0
   39.5550   29.4360   39.6010 S   0  0  0  0  0  0  0  0  0  0  0  0
  1  7  1  6  0  0  0
  1  6  1  0  0  0  0
  1  2  1  0  0  0  0
  2  8  1  6  0  0  0
  2  3  1  0  0  0  0
  2 17  1  0  0  0  0
  4  9  1  0  0  0  0
  4  3  1  0  0  0  0
  5  6  1  0  0  0  0
  5 11  1  1  0  0  0
  5  4  1  0  0  0  0
  6 12  1  1  0  0  0
 10  4  1  0  0  0  0
 13  1  1  0  0  0  0
 14 13  1  0  0  0  0
 15  5  1  0  0  0  0
 16 15  1  0  0  0  0
 17 18  1  0  0  0  0
 18 23  1  0  0  0  0
 19 18  2  0  0  0  0
 19 20  1  0  0  0  0
 20 21  2  0  0  0  0
 21 22  1  0  0  0  0
 22 25  1  0  0  0  0
 23 22  2  0  0  0  0
 24 19  1  0  0  0  0
 26 27  1  0  0  0  0
 26 20  1  0  0  0  0
 26 28  1  0  0  0  0
 27 28  1  0  0  0  0
 27 30  1  0  0  0  0
 28 33  1  0  0  0  0
 29 26  1  0  0  0  0
 31 27  1  0  0  0  0
 32 28  1  0  0  0  0
 34 35  1  0  0  0  0
 34  6  1  0  0  0  0
 35 37  1  0  0  0  0
 36 35  2  0  0  0  0
 37 38  2  0  0  0  0
 37 42  1  0  0  0  0
 38 40  1  0  0  0  0
 39 38  1  0  0  0  0
 40 41  2  0  0  0  0
 42 41  1  0  0  0  0
M  END
>  <minimizedAffinity>
-5.67221165

>  <minimizedRMSD>
0.44418785

$$$$
