
 OpenBabel03242520313D

 38 40  0  0  0  0  0  0  0  0999 V2000
   36.3660   30.2990   37.9240 C   0  0  0  0  0  0  0  0  0  0  0  0
   36.7990   30.5650   39.2500 C   0  0  0  0  0  0  0  0  0  0  0  0
   36.1300   29.9460   40.2900 C   0  0  0  0  0  0  0  0  0  0  0  0
   35.0880   29.1100   39.9990 N   0  0  0  0  0  0  0  0  0  0  0  0
   34.6970   28.8750   38.7360 C   0  0  0  0  0  0  0  0  0  0  0  0
   35.3300   29.4640   37.7100 N   0  0  0  0  0  0  0  0  0  0  0  0
   36.8450   30.7490   37.0780 H   0  0  0  0  0  0  0  0  0  0  0  0
   33.8580   28.1970   38.5640 H   0  0  0  0  0  0  0  0  0  0  0  0
   37.8890   31.4520   39.3710 N   0  0  0  0  0  0  0  0  0  0  0  0
   37.7530   32.8410   39.7960 C   0  0  0  0  0  0  0  0  0  0  0  0
   39.1020   33.4740   39.9470 C   0  0  0  0  0  0  0  0  0  0  0  0
   39.9490   33.2870   38.8140 N   0  0  0  0  0  0  0  0  0  0  0  0
   40.0280   31.9560   38.2970 C   0  0  0  0  0  0  0  0  0  0  0  0
   39.2170   30.9500   39.0520 C   0  0  0  0  0  0  0  0  0  0  0  0
   37.2420   33.3720   38.9530 H   0  0  0  0  0  0  0  0  0  0  0  0
   37.1790   32.9600   40.7190 H   0  0  0  0  0  0  0  0  0  0  0  0
   38.9280   34.5620   40.0670 H   0  0  0  0  0  0  0  0  0  0  0  0
   39.5500   33.1160   40.8930 H   0  0  0  0  0  0  0  0  0  0  0  0
   39.8800   34.0260   38.0870 H   0  0  0  0  0  0  0  0  0  0  0  0
   39.6760   31.9810   37.2450 H   0  0  0  0  0  0  0  0  0  0  0  0
   41.0810   31.6270   38.2900 H   0  0  0  0  0  0  0  0  0  0  0  0
   39.1480   30.0370   38.4060 H   0  0  0  0  0  0  0  0  0  0  0  0
   39.7990   30.6770   39.9630 H   0  0  0  0  0  0  0  0  0  0  0  0
   36.5760   30.2260   41.5640 O   0  0  0  0  0  0  0  0  0  0  0  0
   37.2410   28.7490   43.6800 O   0  0  0  0  0  0  0  0  0  0  0  0
   37.7390   29.1750   42.2950 P   0  0  1  0  0  0  0  0  0  0  0  0
   37.9880   27.8690   41.3030 O   0  0  0  0  0  0  0  0  0  0  0  0
   37.5550   26.6630   41.2570 C   0  0  0  0  0  0  0  0  0  0  0  0
   37.4020   25.6320   42.2150 C   0  0  0  0  0  0  0  0  0  0  0  0
   37.7060   25.8810   43.2150 H   0  0  0  0  0  0  0  0  0  0  0  0
   36.8960   24.4160   41.8490 C   0  0  0  0  0  3  0  0  0  0  0  0
   36.5260   24.2020   40.4910 C   0  0  0  0  0  3  0  0  0  0  0  0
   36.9260   25.8580   39.6580 S   0  0  0  0  0  0  0  0  0  0  0  0
   39.1400   30.0900   42.5230 O   0  0  0  0  0  0  0  0  0  0  0  0
   40.2900   29.3190   42.5210 C   0  0  0  0  0  0  0  0  0  0  0  0
   40.6750   28.9070   41.2560 F   0  0  0  0  0  0  0  0  0  0  0  0
   40.2380   28.2220   43.3380 F   0  0  0  0  0  0  0  0  0  0  0  0
   41.2950   30.1370   43.0290 F   0  0  0  0  0  0  0  0  0  0  0  0
  1  2  1  0  0  0  0
  2  9  1  0  0  0  0
  2  3  2  0  0  0  0
  3 24  1  0  0  0  0
  4  3  1  0  0  0  0
  5  4  2  0  0  0  0
  6  1  2  0  0  0  0
  6  5  1  0  0  0  0
  7  1  1  0  0  0  0
  8  5  1  0  0  0  0
  9 10  1  0  0  0  0
 10 11  1  0  0  0  0
 10 16  1  0  0  0  0
 11 17  1  0  0  0  0
 11 18  1  0  0  0  0
 12 11  1  0  0  0  0
 13 12  1  0  0  0  0
 13 14  1  0  0  0  0
 14  9  1  0  0  0  0
 14 23  1  0  0  0  0
 15 10  1  0  0  0  0
 19 12  1  0  0  0  0
 20 13  1  0  0  0  0
 21 13  1  0  0  0  0
 22 14  1  0  0  0  0
 24 26  1  0  0  0  0
 26 34  1  0  0  0  0
 26 25  2  1  0  0  0
 27 26  1  0  0  0  0
 28 27  1  0  0  0  0
 28 29  2  0  0  0  0
 29 30  1  0  0  0  0
 31 29  1  0  0  0  0
 32 31  2  0  0  0  0
 33 32  1  0  0  0  0
 33 28  1  0  0  0  0
 35 34  1  0  0  0  0
 35 38  1  0  0  0  0
 35 37  1  0  0  0  0
 36 35  1  0  0  0  0
M  END
>  <minimizedAffinity>
-5.31454134

$$$$

 OpenBabel03242520313D

 38 40  0  0  0  0  0  0  0  0999 V2000
   41.1100   30.4800   39.2760 C   0  0  0  0  0  0  0  0  0  0  0  0
   39.9940   30.6690   40.1340 C   0  0  0  0  0  0  0  0  0  0  0  0
   39.7140   29.6830   41.0640 C   0  0  0  0  0  0  0  0  0  0  0  0
   40.5170   28.5790   41.1170 N   0  0  0  0  0  0  0  0  0  0  0  0
   41.5670   28.4240   40.2940 C   0  0  0  0  0  0  0  0  0  0  0  0
   41.8590   29.3650   39.3830 N   0  0  0  0  0  0  0  0  0  0  0  0
   41.3750   31.2070   38.5370 H   0  0  0  0  0  0  0  0  0  0  0  0
   42.1750   27.5200   40.3820 H   0  0  0  0  0  0  0  0  0  0  0  0
   39.2720   31.8650   39.9450 N   0  0  0  0  0  0  0  0  0  0  0  0
   39.2510   32.9540   40.9170 C   0  0  0  0  0  0  0  0  0  0  0  0
   38.5040   34.1290   40.3660 C   0  0  0  0  0  0  0  0  0  0  0  0
   37.2230   33.7910   39.8340 N   0  0  0  0  0  0  0  0  0  0  0  0
   37.1800   32.6620   38.9590 C   0  0  0  0  0  0  0  0  0  0  0  0
   38.5090   32.0170   38.7160 C   0  0  0  0  0  0  0  0  0  0  0  0
   38.6580   32.5760   41.7880 H   0  0  0  0  0  0  0  0  0  0  0  0
   40.2460   33.2650   41.2450 H   0  0  0  0  0  0  0  0  0  0  0  0
   38.3480   34.8290   41.2120 H   0  0  0  0  0  0  0  0  0  0  0  0
   39.1570   34.6470   39.6390 H   0  0  0  0  0  0  0  0  0  0  0  0
   36.4390   33.8380   40.5140 H   0  0  0  0  0  0  0  0  0  0  0  0
   36.4970   31.9110   39.4090 H   0  0  0  0  0  0  0  0  0  0  0  0
   36.7520   32.9660   37.9880 H   0  0  0  0  0  0  0  0  0  0  0  0
   38.3050   31.0170   38.2530 H   0  0  0  0  0  0  0  0  0  0  0  0
   39.0400   32.6380   37.9580 H   0  0  0  0  0  0  0  0  0  0  0  0
   38.6240   29.8980   41.8810 O   0  0  0  0  0  0  0  0  0  0  0  0
   36.1070   30.6430   41.4250 O   0  0  0  0  0  0  0  0  0  0  0  0
   37.0530   29.4430   41.3200 P   0  0  1  0  0  0  0  0  0  0  0  0
   37.1730   28.8910   39.7600 O   0  0  0  0  0  0  0  0  0  0  0  0
   36.3420   28.6200   38.8220 C   0  0  0  0  0  0  0  0  0  0  0  0
   35.5430   29.4030   37.9550 C   0  0  0  0  0  0  0  0  0  0  0  0
   35.6250   30.4670   38.0850 H   0  0  0  0  0  0  0  0  0  0  0  0
   34.7350   28.8040   37.0300 C   0  0  0  0  0  3  0  0  0  0  0  0
   34.7080   27.3840   36.9510 C   0  0  0  0  0  3  0  0  0  0  0  0
   35.9300   26.8440   38.2980 S   0  0  0  0  0  0  0  0  0  0  0  0
   36.4850   28.2600   42.3830 O   0  0  0  0  0  0  0  0  0  0  0  0
   37.3560   27.1900   42.5100 C   0  0  0  0  0  0  0  0  0  0  0  0
   38.3630   27.4080   43.4370 F   0  0  0  0  0  0  0  0  0  0  0  0
   37.9270   26.7810   41.3360 F   0  0  0  0  0  0  0  0  0  0  0  0
   36.5830   26.1240   42.9610 F   0  0  0  0  0  0  0  0  0  0  0  0
  1  6  2  0  0  0  0
  1  2  1  0  0  0  0
  2  3  2  0  0  0  0
  3  4  1  0  0  0  0
  3 24  1  0  0  0  0
  5  8  1  0  0  0  0
  5  4  2  0  0  0  0
  6  5  1  0  0  0  0
  7  1  1  0  0  0  0
  9  2  1  0  0  0  0
  9 10  1  0  0  0  0
 10 16  1  0  0  0  0
 10 15  1  0  0  0  0
 11 10  1  0  0  0  0
 11 17  1  0  0  0  0
 12 11  1  0  0  0  0
 12 19  1  0  0  0  0
 13 20  1  0  0  0  0
 13 12  1  0  0  0  0
 14 13  1  0  0  0  0
 14  9  1  0  0  0  0
 18 11  1  0  0  0  0
 21 13  1  0  0  0  0
 22 14  1  0  0  0  0
 23 14  1  0  0  0  0
 26 25  2  1  0  0  0
 26 24  1  0  0  0  0
 26 34  1  0  0  0  0
 27 26  1  0  0  0  0
 28 27  1  0  0  0  0
 29 30  1  0  0  0  0
 29 28  2  0  0  0  0
 31 29  1  0  0  0  0
 32 31  2  0  0  0  0
 32 33  1  0  0  0  0
 33 28  1  0  0  0  0
 34 35  1  0  0  0  0
 35 38  1  0  0  0  0
 35 36  1  0  0  0  0
 37 35  1  0  0  0  0
M  END
>  <minimizedAffinity>
-5.1286602

$$$$

 OpenBabel03242520313D

 38 40  0  0  0  0  0  0  0  0999 V2000
   36.9360   30.3440   36.4770 C   0  0  0  0  0  0  0  0  0  0  0  0
   37.4460   30.1220   37.7840 C   0  0  0  0  0  0  0  0  0  0  0  0
   37.2700   28.8700   38.3470 C   0  0  0  0  0  0  0  0  0  0  0  0
   36.6180   27.9090   37.6260 N   0  0  0  0  0  0  0  0  0  0  0  0
   36.1450   28.1440   36.3920 C   0  0  0  0  0  0  0  0  0  0  0  0
   36.3030   29.3500   35.8240 N   0  0  0  0  0  0  0  0  0  0  0  0
   37.0420   31.2920   35.9900 H   0  0  0  0  0  0  0  0  0  0  0  0
   35.6320   27.3380   35.8630 H   0  0  0  0  0  0  0  0  0  0  0  0
   38.0920   31.2220   38.3840 N   0  0  0  0  0  0  0  0  0  0  0  0
   39.5390   31.3170   38.5420 C   0  0  0  0  0  0  0  0  0  0  0  0
   39.9170   32.6570   39.0950 C   0  0  0  0  0  0  0  0  0  0  0  0
   39.1730   33.0220   40.2580 N   0  0  0  0  0  0  0  0  0  0  0  0
   37.7570   32.8440   40.1850 C   0  0  0  0  0  0  0  0  0  0  0  0
   37.2660   32.3170   38.8720 C   0  0  0  0  0  0  0  0  0  0  0  0
   39.8140   30.5590   39.3200 H   0  0  0  0  0  0  0  0  0  0  0  0
   40.0920   31.1260   37.6180 H   0  0  0  0  0  0  0  0  0  0  0  0
   40.9850   32.5910   39.3800 H   0  0  0  0  0  0  0  0  0  0  0  0
   39.8480   33.4010   38.2800 H   0  0  0  0  0  0  0  0  0  0  0  0
   39.5970   32.7290   41.1600 H   0  0  0  0  0  0  0  0  0  0  0  0
   37.4640   32.1330   40.9860 H   0  0  0  0  0  0  0  0  0  0  0  0
   37.2540   33.8050   40.3890 H   0  0  0  0  0  0  0  0  0  0  0  0
   36.2120   31.9730   39.0330 H   0  0  0  0  0  0  0  0  0  0  0  0
   37.2380   33.1770   38.1640 H   0  0  0  0  0  0  0  0  0  0  0  0
   37.7770   28.6870   39.6160 O   0  0  0  0  0  0  0  0  0  0  0  0
   35.3420   29.3200   40.4940 O   0  0  0  0  0  0  0  0  0  0  0  0
   36.7140   28.8330   40.9720 P   0  0  1  0  0  0  0  0  0  0  0  0
   36.6100   27.3660   41.7400 O   0  0  0  0  0  0  0  0  0  0  0  0
   37.2110   26.2390   41.6370 C   0  0  0  0  0  0  0  0  0  0  0  0
   38.2070   25.5780   42.3960 C   0  0  0  0  0  0  0  0  0  0  0  0
   38.5620   26.1120   43.2580 H   0  0  0  0  0  0  0  0  0  0  0  0
   38.6570   24.3430   42.0210 C   0  0  0  0  0  3  0  0  0  0  0  0
   38.1120   23.7320   40.8570 C   0  0  0  0  0  3  0  0  0  0  0  0
   36.8530   25.0090   40.2370 S   0  0  0  0  0  0  0  0  0  0  0  0
   37.3590   30.0390   41.9630 O   0  0  0  0  0  0  0  0  0  0  0  0
   38.5430   29.6560   42.5710 C   0  0  0  0  0  0  0  0  0  0  0  0
   39.3010   30.7240   43.0210 F   0  0  0  0  0  0  0  0  0  0  0  0
   39.3400   28.8500   41.8030 F   0  0  0  0  0  0  0  0  0  0  0  0
   38.1720   28.8980   43.6780 F   0  0  0  0  0  0  0  0  0  0  0  0
  1  2  1  0  0  0  0
  2  3  2  0  0  0  0
  2  9  1  0  0  0  0
  3 24  1  0  0  0  0
  4  3  1  0  0  0  0
  5  4  2  0  0  0  0
  6  5  1  0  0  0  0
  6  1  2  0  0  0  0
  7  1  1  0  0  0  0
  8  5  1  0  0  0  0
  9 10  1  0  0  0  0
  9 14  1  0  0  0  0
 10 11  1  0  0  0  0
 10 15  1  0  0  0  0
 11 17  1  0  0  0  0
 11 12  1  0  0  0  0
 12 19  1  0  0  0  0
 13 12  1  0  0  0  0
 13 21  1  0  0  0  0
 13 20  1  0  0  0  0
 14 22  1  0  0  0  0
 14 13  1  0  0  0  0
 16 10  1  0  0  0  0
 18 11  1  0  0  0  0
 23 14  1  0  0  0  0
 24 26  1  0  0  0  0
 26 25  2  6  0  0  0
 26 27  1  0  0  0  0
 26 34  1  0  0  0  0
 28 27  1  0  0  0  0
 28 29  2  0  0  0  0
 29 30  1  0  0  0  0
 31 29  1  0  0  0  0
 32 31  2  0  0  0  0
 33 32  1  0  0  0  0
 33 28  1  0  0  0  0
 34 35  1  0  0  0  0
 35 36  1  0  0  0  0
 35 38  1  0  0  0  0
 37 35  1  0  0  0  0
M  END
>  <minimizedAffinity>
-4.92982626

$$$$

 OpenBabel03242520313D

 38 40  0  0  0  0  0  0  0  0999 V2000
   38.7930   31.8020   38.3260 C   0  0  0  0  0  0  0  0  0  0  0  0
   38.1410   30.6000   38.7120 C   0  0  0  0  0  0  0  0  0  0  0  0
   37.8100   30.4390   40.0460 C   0  0  0  0  0  0  0  0  0  0  0  0
   38.1230   31.4350   40.9280 N   0  0  0  0  0  0  0  0  0  0  0  0
   38.7400   32.5620   40.5380 C   0  0  0  0  0  0  0  0  0  0  0  0
   39.0710   32.7420   39.2500 N   0  0  0  0  0  0  0  0  0  0  0  0
   39.0730   31.9830   37.3090 H   0  0  0  0  0  0  0  0  0  0  0  0
   38.9650   33.3240   41.2870 H   0  0  0  0  0  0  0  0  0  0  0  0
   37.8930   29.6780   37.6750 N   0  0  0  0  0  0  0  0  0  0  0  0
   38.8730   28.6970   37.2190 C   0  0  0  0  0  0  0  0  0  0  0  0
   38.2620   27.7860   36.1990 C   0  0  0  0  0  0  0  0  0  0  0  0
   37.5900   28.4780   35.1480 N   0  0  0  0  0  0  0  0  0  0  0  0
   36.6980   29.5210   35.5460 C   0  0  0  0  0  0  0  0  0  0  0  0
   36.5900   29.7110   37.0270 C   0  0  0  0  0  0  0  0  0  0  0  0
   39.6690   29.2820   36.6910 H   0  0  0  0  0  0  0  0  0  0  0  0
   39.3120   28.1090   38.0300 H   0  0  0  0  0  0  0  0  0  0  0  0
   39.0960   27.2100   35.7500 H   0  0  0  0  0  0  0  0  0  0  0  0
   37.6180   27.0570   36.7260 H   0  0  0  0  0  0  0  0  0  0  0  0
   38.1810   28.7090   34.3260 H   0  0  0  0  0  0  0  0  0  0  0  0
   37.0590   30.4670   35.0910 H   0  0  0  0  0  0  0  0  0  0  0  0
   35.6910   29.3180   35.1420 H   0  0  0  0  0  0  0  0  0  0  0  0
   36.0930   30.7020   37.1930 H   0  0  0  0  0  0  0  0  0  0  0  0
   35.9040   28.9200   37.4100 H   0  0  0  0  0  0  0  0  0  0  0  0
   37.1780   29.2620   40.3870 O   0  0  0  0  0  0  0  0  0  0  0  0
   37.4240   29.2430   43.0400 O   0  0  0  0  0  0  0  0  0  0  0  0
   37.7070   28.4020   41.7910 P   0  0  1  0  0  0  0  0  0  0  0  0
   36.9360   26.9350   41.8510 O   0  0  0  0  0  0  0  0  0  0  0  0
   36.9870   25.8490   41.1710 C   0  0  0  0  0  0  0  0  0  0  0  0
   37.0800   24.4770   41.5070 C   0  0  0  0  0  0  0  0  0  0  0  0
   37.1190   24.2610   42.5590 H   0  0  0  0  0  0  0  0  0  0  0  0
   37.1140   23.5250   40.5270 C   0  0  0  0  0  3  0  0  0  0  0  0
   37.0560   23.9330   39.1650 C   0  0  0  0  0  3  0  0  0  0  0  0
   36.9420   25.8230   39.2740 S   0  0  0  0  0  0  0  0  0  0  0  0
   39.3840   28.2470   41.6580 O   0  0  0  0  0  0  0  0  0  0  0  0
   39.9190   27.3830   42.5990 C   0  0  0  0  0  0  0  0  0  0  0  0
   39.0680   27.1330   43.6630 F   0  0  0  0  0  0  0  0  0  0  0  0
   41.1350   27.7680   43.0960 F   0  0  0  0  0  0  0  0  0  0  0  0
   40.1320   26.1810   41.9310 F   0  0  0  0  0  0  0  0  0  0  0  0
  1  2  2  0  0  0  0
  1  6  1  0  0  0  0
  2  3  1  0  0  0  0
  3 24  1  0  0  0  0
  3  4  2  0  0  0  0
  5  4  1  0  0  0  0
  5  8  1  0  0  0  0
  6  5  2  0  0  0  0
  7  1  1  0  0  0  0
  9  2  1  0  0  0  0
 10  9  1  0  0  0  0
 10 16  1  0  0  0  0
 11 18  1  0  0  0  0
 11 10  1  0  0  0  0
 12 13  1  0  0  0  0
 12 11  1  0  0  0  0
 13 14  1  0  0  0  0
 14 22  1  0  0  0  0
 14 23  1  0  0  0  0
 14  9  1  0  0  0  0
 15 10  1  0  0  0  0
 17 11  1  0  0  0  0
 19 12  1  0  0  0  0
 20 13  1  0  0  0  0
 21 13  1  0  0  0  0
 24 26  1  0  0  0  0
 26 27  1  0  0  0  0
 26 25  2  1  0  0  0
 28 29  2  0  0  0  0
 28 27  1  0  0  0  0
 29 30  1  0  0  0  0
 31 29  1  0  0  0  0
 32 33  1  0  0  0  0
 32 31  2  0  0  0  0
 33 28  1  0  0  0  0
 34 26  1  0  0  0  0
 34 35  1  0  0  0  0
 35 37  1  0  0  0  0
 35 36  1  0  0  0  0
 38 35  1  0  0  0  0
M  END
>  <minimizedAffinity>
-4.90238714

$$$$

 OpenBabel03242520313D

 38 40  0  0  0  0  0  0  0  0999 V2000
   37.4540   31.7410   38.0200 C   0  0  0  0  0  0  0  0  0  0  0  0
   37.1650   30.3640   38.2180 C   0  0  0  0  0  0  0  0  0  0  0  0
   36.8420   29.9450   39.4970 C   0  0  0  0  0  0  0  0  0  0  0  0
   36.8150   30.8660   40.5060 N   0  0  0  0  0  0  0  0  0  0  0  0
   37.0920   32.1620   40.2920 C   0  0  0  0  0  0  0  0  0  0  0  0
   37.4090   32.5940   39.0610 N   0  0  0  0  0  0  0  0  0  0  0  0
   37.7100   32.1240   37.0530 H   0  0  0  0  0  0  0  0  0  0  0  0
   37.0550   32.8540   41.1370 H   0  0  0  0  0  0  0  0  0  0  0  0
   37.2380   29.5510   37.0680 N   0  0  0  0  0  0  0  0  0  0  0  0
   36.1040   29.3060   36.1830 C   0  0  0  0  0  0  0  0  0  0  0  0
   36.5380   28.5120   34.9890 C   0  0  0  0  0  0  0  0  0  0  0  0
   37.2860   27.3430   35.3240 N   0  0  0  0  0  0  0  0  0  0  0  0
   38.3420   27.5180   36.2720 C   0  0  0  0  0  0  0  0  0  0  0  0
   38.5140   28.9250   36.7530 C   0  0  0  0  0  0  0  0  0  0  0  0
   35.3980   28.6560   36.7610 H   0  0  0  0  0  0  0  0  0  0  0  0
   35.5970   30.2190   35.8600 H   0  0  0  0  0  0  0  0  0  0  0  0
   35.6130   28.1880   34.4720 H   0  0  0  0  0  0  0  0  0  0  0  0
   37.0710   29.1890   34.2960 H   0  0  0  0  0  0  0  0  0  0  0  0
   36.7200   26.4850   35.4660 H   0  0  0  0  0  0  0  0  0  0  0  0
   38.1240   26.8680   37.1440 H   0  0  0  0  0  0  0  0  0  0  0  0
   39.2940   27.1780   35.8290 H   0  0  0  0  0  0  0  0  0  0  0  0
   39.1650   28.8800   37.6640 H   0  0  0  0  0  0  0  0  0  0  0  0
   39.0740   29.4760   35.9630 H   0  0  0  0  0  0  0  0  0  0  0  0
   36.5670   28.6030   39.6550 O   0  0  0  0  0  0  0  0  0  0  0  0
   38.7800   27.1190   39.6290 O   0  0  0  0  0  0  0  0  0  0  0  0
   37.6690   27.6220   40.5570 P   0  0  1  0  0  0  0  0  0  0  0  0
   38.2780   28.5100   41.8180 O   0  0  0  0  0  0  0  0  0  0  0  0
   39.4490   28.8570   42.2080 C   0  0  0  0  0  0  0  0  0  0  0  0
   40.5840   28.1510   42.6750 C   0  0  0  0  0  0  0  0  0  0  0  0
   40.4740   27.0830   42.7280 H   0  0  0  0  0  0  0  0  0  0  0  0
   41.7210   28.8230   43.0240 C   0  0  0  0  0  3  0  0  0  0  0  0
   41.7490   30.2410   42.9130 C   0  0  0  0  0  3  0  0  0  0  0  0
   40.0210   30.6660   42.2570 S   0  0  0  0  0  0  0  0  0  0  0  0
   36.7990   26.2710   41.0770 O   0  0  0  0  0  0  0  0  0  0  0  0
   37.1060   25.9040   42.3760 C   0  0  0  0  0  0  0  0  0  0  0  0
   36.6440   26.8000   43.3260 F   0  0  0  0  0  0  0  0  0  0  0  0
   38.4370   25.6790   42.6020 F   0  0  0  0  0  0  0  0  0  0  0  0
   36.4630   24.6870   42.5870 F   0  0  0  0  0  0  0  0  0  0  0  0
  1  2  2  0  0  0  0
  1  6  1  0  0  0  0
  2  3  1  0  0  0  0
  3 24  1  0  0  0  0
  3  4  2  0  0  0  0
  5  4  1  0  0  0  0
  5  8  1  0  0  0  0
  6  5  2  0  0  0  0
  7  1  1  0  0  0  0
  9  2  1  0  0  0  0
 10 15  1  0  0  0  0
 10  9  1  0  0  0  0
 11 12  1  0  0  0  0
 11 10  1  0  0  0  0
 12 19  1  0  0  0  0
 12 13  1  0  0  0  0
 13 14  1  0  0  0  0
 13 20  1  0  0  0  0
 14  9  1  0  0  0  0
 14 22  1  0  0  0  0
 16 10  1  0  0  0  0
 17 11  1  0  0  0  0
 18 11  1  0  0  0  0
 21 13  1  0  0  0  0
 23 14  1  0  0  0  0
 24 26  1  0  0  0  0
 26 25  2  6  0  0  0
 26 34  1  0  0  0  0
 26 27  1  0  0  0  0
 27 28  1  0  0  0  0
 28 33  1  0  0  0  0
 28 29  2  0  0  0  0
 29 30  1  0  0  0  0
 29 31  1  0  0  0  0
 32 31  2  0  0  0  0
 33 32  1  0  0  0  0
 34 35  1  0  0  0  0
 35 38  1  0  0  0  0
 35 37  1  0  0  0  0
 35 36  1  0  0  0  0
M  END
>  <minimizedAffinity>
-4.85293245

$$$$

 OpenBabel03242520313D

 38 40  0  0  0  0  0  0  0  0999 V2000
   37.3440   26.7350   41.7300 C   0  0  0  0  0  0  0  0  0  0  0  0
   37.1300   28.0950   41.3800 C   0  0  0  0  0  0  0  0  0  0  0  0
   37.7070   29.0700   42.1760 C   0  0  0  0  0  0  0  0  0  0  0  0
   38.4520   28.6850   43.2550 N   0  0  0  0  0  0  0  0  0  0  0  0
   38.6390   27.3920   43.5640 C   0  0  0  0  0  0  0  0  0  0  0  0
   38.0910   26.4280   42.8090 N   0  0  0  0  0  0  0  0  0  0  0  0
   36.9240   25.9370   41.1530 H   0  0  0  0  0  0  0  0  0  0  0  0
   39.2450   27.1430   44.4390 H   0  0  0  0  0  0  0  0  0  0  0  0
   36.3360   28.3150   40.2360 N   0  0  0  0  0  0  0  0  0  0  0  0
   35.0150   28.9340   40.2810 C   0  0  0  0  0  0  0  0  0  0  0  0
   34.4900   29.1430   38.8940 C   0  0  0  0  0  0  0  0  0  0  0  0
   34.5660   27.9760   38.0750 N   0  0  0  0  0  0  0  0  0  0  0  0
   35.8130   27.2770   38.0850 C   0  0  0  0  0  0  0  0  0  0  0  0
   36.8660   27.9010   38.9460 C   0  0  0  0  0  0  0  0  0  0  0  0
   34.3410   28.1840   40.7690 H   0  0  0  0  0  0  0  0  0  0  0  0
   34.9930   29.8770   40.8340 H   0  0  0  0  0  0  0  0  0  0  0  0
   33.4220   29.4180   38.9980 H   0  0  0  0  0  0  0  0  0  0  0  0
   35.0050   30.0190   38.4560 H   0  0  0  0  0  0  0  0  0  0  0  0
   33.7290   27.3620   38.1070 H   0  0  0  0  0  0  0  0  0  0  0  0
   35.6190   26.2460   38.4490 H   0  0  0  0  0  0  0  0  0  0  0  0
   36.2000   27.2010   37.0540 H   0  0  0  0  0  0  0  0  0  0  0  0
   37.6730   27.1350   39.0800 H   0  0  0  0  0  0  0  0  0  0  0  0
   37.2980   28.7520   38.3700 H   0  0  0  0  0  0  0  0  0  0  0  0
   37.4800   30.3790   41.8090 O   0  0  0  0  0  0  0  0  0  0  0  0
   39.9000   31.4720   42.0250 O   0  0  0  0  0  0  0  0  0  0  0  0
   38.7480   31.2650   41.0360 P   0  0  1  0  0  0  0  0  0  0  0  0
   39.2410   30.4390   39.6850 O   0  0  0  0  0  0  0  0  0  0  0  0
   40.1010   29.5200   39.4400 C   0  0  0  0  0  0  0  0  0  0  0  0
   40.7920   28.5770   40.2380 C   0  0  0  0  0  0  0  0  0  0  0  0
   40.5700   28.6100   41.2890 H   0  0  0  0  0  0  0  0  0  0  0  0
   41.6730   27.7010   39.6680 C   0  0  0  0  0  3  0  0  0  0  0  0
   41.8860   27.7520   38.2620 C   0  0  0  0  0  3  0  0  0  0  0  0
   40.7450   29.1560   37.6930 S   0  0  0  0  0  0  0  0  0  0  0  0
   38.1190   32.7890   40.6690 O   0  0  0  0  0  0  0  0  0  0  0  0
   37.4690   32.8200   39.4470 C   0  0  0  0  0  0  0  0  0  0  0  0
   38.3010   32.5450   38.3740 F   0  0  0  0  0  0  0  0  0  0  0  0
   36.8000   33.9860   39.1900 F   0  0  0  0  0  0  0  0  0  0  0  0
   36.5030   31.8200   39.5060 F   0  0  0  0  0  0  0  0  0  0  0  0
  1  6  1  0  0  0  0
  2  1  2  0  0  0  0
  2  3  1  0  0  0  0
  3  4  2  0  0  0  0
  4  5  1  0  0  0  0
  5  8  1  0  0  0  0
  6  5  2  0  0  0  0
  7  1  1  0  0  0  0
  9 10  1  0  0  0  0
  9  2  1  0  0  0  0
 10 15  1  0  0  0  0
 10 16  1  0  0  0  0
 11 17  1  0  0  0  0
 11 10  1  0  0  0  0
 12 13  1  0  0  0  0
 12 19  1  0  0  0  0
 12 11  1  0  0  0  0
 13 20  1  0  0  0  0
 13 14  1  0  0  0  0
 14 22  1  0  0  0  0
 14  9  1  0  0  0  0
 18 11  1  0  0  0  0
 21 13  1  0  0  0  0
 23 14  1  0  0  0  0
 24  3  1  0  0  0  0
 26 24  1  0  0  0  0
 26 25  2  1  0  0  0
 27 26  1  0  0  0  0
 28 27  1  0  0  0  0
 28 29  2  0  0  0  0
 29 30  1  0  0  0  0
 31 29  1  0  0  0  0
 32 31  2  0  0  0  0
 33 32  1  0  0  0  0
 33 28  1  0  0  0  0
 34 26  1  0  0  0  0
 35 38  1  0  0  0  0
 35 34  1  0  0  0  0
 36 35  1  0  0  0  0
 37 35  1  0  0  0  0
M  END
>  <minimizedAffinity>
-4.67534637

$$$$

 OpenBabel03242520313D

 38 40  0  0  0  0  0  0  0  0999 V2000
   40.0270   26.3520   38.6280 C   0  0  0  0  0  0  0  0  0  0  0  0
   39.7850   26.8300   39.9430 C   0  0  0  0  0  0  0  0  0  0  0  0
   40.1150   28.1430   40.2290 C   0  0  0  0  0  0  0  0  0  0  0  0
   40.6560   28.9180   39.2420 N   0  0  0  0  0  0  0  0  0  0  0  0
   40.8740   28.4420   38.0050 C   0  0  0  0  0  0  0  0  0  0  0  0
   40.5630   27.1720   37.7030 N   0  0  0  0  0  0  0  0  0  0  0  0
   39.7920   25.3460   38.3470 H   0  0  0  0  0  0  0  0  0  0  0  0
   41.3090   29.1070   37.2550 H   0  0  0  0  0  0  0  0  0  0  0  0
   39.2220   25.8980   40.8390 N   0  0  0  0  0  0  0  0  0  0  0  0
   40.0160   25.0530   41.7240 C   0  0  0  0  0  0  0  0  0  0  0  0
   39.1230   24.2700   42.6370 C   0  0  0  0  0  0  0  0  0  0  0  0
   38.0720   23.5860   41.9570 N   0  0  0  0  0  0  0  0  0  0  0  0
   37.3340   24.3510   41.0000 C   0  0  0  0  0  0  0  0  0  0  0  0
   37.7730   25.7770   40.8790 C   0  0  0  0  0  0  0  0  0  0  0  0
   40.5270   24.3080   41.0600 H   0  0  0  0  0  0  0  0  0  0  0  0
   40.7560   25.6050   42.3090 H   0  0  0  0  0  0  0  0  0  0  0  0
   39.7620   23.5100   43.1300 H   0  0  0  0  0  0  0  0  0  0  0  0
   38.7610   24.9480   43.4330 H   0  0  0  0  0  0  0  0  0  0  0  0
   38.3030   22.6210   41.6490 H   0  0  0  0  0  0  0  0  0  0  0  0
   37.4490   23.8580   40.0120 H   0  0  0  0  0  0  0  0  0  0  0  0
   36.2630   24.3320   41.2620 H   0  0  0  0  0  0  0  0  0  0  0  0
   37.3190   26.1780   39.9360 H   0  0  0  0  0  0  0  0  0  0  0  0
   37.3220   26.3320   41.7340 H   0  0  0  0  0  0  0  0  0  0  0  0
   39.8680   28.5760   41.5150 O   0  0  0  0  0  0  0  0  0  0  0  0
   37.7350   29.1090   43.0210 O   0  0  0  0  0  0  0  0  0  0  0  0
   38.5160   29.6150   41.8040 P   0  0  1  0  0  0  0  0  0  0  0  0
   39.0630   31.1650   42.0270 O   0  0  0  0  0  0  0  0  0  0  0  0
   39.3100   32.1640   41.2630 C   0  0  0  0  0  0  0  0  0  0  0  0
   38.5300   33.2180   40.7300 C   0  0  0  0  0  0  0  0  0  0  0  0
   37.4910   33.2100   41.0090 H   0  0  0  0  0  0  0  0  0  0  0  0
   39.0980   34.1610   39.9210 C   0  0  0  0  0  3  0  0  0  0  0  0
   40.4860   34.0680   39.6210 C   0  0  0  0  0  3  0  0  0  0  0  0
   41.0380   32.5160   40.5620 S   0  0  0  0  0  0  0  0  0  0  0  0
   37.5020   29.4730   40.4600 O   0  0  0  0  0  0  0  0  0  0  0  0
   36.2000   29.8620   40.7290 C   0  0  0  0  0  0  0  0  0  0  0  0
   36.1160   30.9750   41.5480 F   0  0  0  0  0  0  0  0  0  0  0  0
   35.4110   28.8740   41.2540 F   0  0  0  0  0  0  0  0  0  0  0  0
   35.6440   30.1940   39.4970 F   0  0  0  0  0  0  0  0  0  0  0  0
  1  2  1  0  0  0  0
  2  3  2  0  0  0  0
  2  9  1  0  0  0  0
  3 24  1  0  0  0  0
  4  3  1  0  0  0  0
  5  4  2  0  0  0  0
  6  5  1  0  0  0  0
  6  1  2  0  0  0  0
  7  1  1  0  0  0  0
  8  5  1  0  0  0  0
  9 14  1  0  0  0  0
  9 10  1  0  0  0  0
 10 16  1  0  0  0  0
 10 11  1  0  0  0  0
 11 17  1  0  0  0  0
 11 18  1  0  0  0  0
 12 11  1  0  0  0  0
 13 21  1  0  0  0  0
 13 12  1  0  0  0  0
 14 13  1  0  0  0  0
 14 23  1  0  0  0  0
 15 10  1  0  0  0  0
 19 12  1  0  0  0  0
 20 13  1  0  0  0  0
 22 14  1  0  0  0  0
 24 26  1  0  0  0  0
 26 27  1  0  0  0  0
 26 25  2  1  0  0  0
 28 27  1  0  0  0  0
 29 30  1  0  0  0  0
 29 28  2  0  0  0  0
 31 29  1  0  0  0  0
 32 31  2  0  0  0  0
 32 33  1  0  0  0  0
 33 28  1  0  0  0  0
 34 35  1  0  0  0  0
 34 26  1  0  0  0  0
 35 37  1  0  0  0  0
 35 36  1  0  0  0  0
 38 35  1  0  0  0  0
M  END
>  <minimizedAffinity>
-4.65403366

$$$$

 OpenBabel03242520313D

 38 40  0  0  0  0  0  0  0  0999 V2000
   37.4640   31.9670   38.1450 C   0  0  0  0  0  0  0  0  0  0  0  0
   37.3800   30.6000   38.5240 C   0  0  0  0  0  0  0  0  0  0  0  0
   37.3110   30.3030   39.8740 C   0  0  0  0  0  0  0  0  0  0  0  0
   37.3240   31.3290   40.7770 N   0  0  0  0  0  0  0  0  0  0  0  0
   37.4040   32.6130   40.3920 C   0  0  0  0  0  0  0  0  0  0  0  0
   37.4730   32.9270   39.0900 N   0  0  0  0  0  0  0  0  0  0  0  0
   37.5200   32.2580   37.1160 H   0  0  0  0  0  0  0  0  0  0  0  0
   37.4110   33.3920   41.1580 H   0  0  0  0  0  0  0  0  0  0  0  0
   37.3770   29.6700   37.4650 N   0  0  0  0  0  0  0  0  0  0  0  0
   38.5490   28.8930   37.0730 C   0  0  0  0  0  0  0  0  0  0  0  0
   38.1870   27.9070   36.0050 C   0  0  0  0  0  0  0  0  0  0  0  0
   37.4740   28.4870   34.9130 N   0  0  0  0  0  0  0  0  0  0  0  0
   36.3810   29.3430   35.2550 C   0  0  0  0  0  0  0  0  0  0  0  0
   36.1380   29.4790   36.7260 C   0  0  0  0  0  0  0  0  0  0  0  0
   39.2600   29.6230   36.6080 H   0  0  0  0  0  0  0  0  0  0  0  0
   39.0310   28.3790   37.9090 H   0  0  0  0  0  0  0  0  0  0  0  0
   39.1410   27.5020   35.6130 H   0  0  0  0  0  0  0  0  0  0  0  0
   37.6520   27.0630   36.4790 H   0  0  0  0  0  0  0  0  0  0  0  0
   38.0680   28.8380   34.1380 H   0  0  0  0  0  0  0  0  0  0  0  0
   36.5940   30.3480   34.8340 H   0  0  0  0  0  0  0  0  0  0  0  0
   35.4590   28.9690   34.7780 H   0  0  0  0  0  0  0  0  0  0  0  0
   35.4590   30.3600   36.8630 H   0  0  0  0  0  0  0  0  0  0  0  0
   35.5840   28.5690   37.0520 H   0  0  0  0  0  0  0  0  0  0  0  0
   37.2300   28.9680   40.2080 O   0  0  0  0  0  0  0  0  0  0  0  0
   38.8780   26.8760   40.2860 O   0  0  0  0  0  0  0  0  0  0  0  0
   38.5840   28.2130   40.9740 P   0  0  1  0  0  0  0  0  0  0  0  0
   39.8860   29.2380   40.9070 O   0  0  0  0  0  0  0  0  0  0  0  0
   40.7730   29.5290   40.0290 C   0  0  0  0  0  0  0  0  0  0  0  0
   41.7200   28.7760   39.2940 C   0  0  0  0  0  0  0  0  0  0  0  0
   41.7240   27.7200   39.4920 H   0  0  0  0  0  0  0  0  0  0  0  0
   42.5530   29.3920   38.4040 C   0  0  0  0  0  3  0  0  0  0  0  0
   42.4570   30.8010   38.2260 C   0  0  0  0  0  3  0  0  0  0  0  0
   41.0690   31.3010   39.4180 S   0  0  0  0  0  0  0  0  0  0  0  0
   38.1110   27.8690   42.5590 O   0  0  0  0  0  0  0  0  0  0  0  0
   37.1510   26.8740   42.6280 C   0  0  0  0  0  0  0  0  0  0  0  0
   36.4170   26.7360   41.4620 F   0  0  0  0  0  0  0  0  0  0  0  0
   36.2810   26.9970   43.6780 F   0  0  0  0  0  0  0  0  0  0  0  0
   37.8490   25.6880   42.8370 F   0  0  0  0  0  0  0  0  0  0  0  0
  1  2  2  0  0  0  0
  1  6  1  0  0  0  0
  2  3  1  0  0  0  0
  3 24  1  0  0  0  0
  3  4  2  0  0  0  0
  5  4  1  0  0  0  0
  5  8  1  0  0  0  0
  6  5  2  0  0  0  0
  7  1  1  0  0  0  0
  9  2  1  0  0  0  0
 10  9  1  0  0  0  0
 10 16  1  0  0  0  0
 11 18  1  0  0  0  0
 11 10  1  0  0  0  0
 12 13  1  0  0  0  0
 12 11  1  0  0  0  0
 13 14  1  0  0  0  0
 14 22  1  0  0  0  0
 14 23  1  0  0  0  0
 14  9  1  0  0  0  0
 15 10  1  0  0  0  0
 17 11  1  0  0  0  0
 19 12  1  0  0  0  0
 20 13  1  0  0  0  0
 21 13  1  0  0  0  0
 24 26  1  0  0  0  0
 26 25  2  6  0  0  0
 26 34  1  0  0  0  0
 27 26  1  0  0  0  0
 28 27  1  0  0  0  0
 29 30  1  0  0  0  0
 29 28  2  0  0  0  0
 31 29  1  0  0  0  0
 32 31  2  0  0  0  0
 32 33  1  0  0  0  0
 33 28  1  0  0  0  0
 34 35  1  0  0  0  0
 35 38  1  0  0  0  0
 35 37  1  0  0  0  0
 36 35  1  0  0  0  0
M  END
>  <minimizedAffinity>
-4.63917255

$$$$

 OpenBabel03242520313D

 38 40  0  0  0  0  0  0  0  0999 V2000
   40.8500   29.8150   40.3400 C   0  0  0  0  0  0  0  0  0  0  0  0
   40.2740   29.0270   41.3710 C   0  0  0  0  0  0  0  0  0  0  0  0
   39.0990   29.4730   41.9500 C   0  0  0  0  0  0  0  0  0  0  0  0
   38.5470   30.6430   41.5090 N   0  0  0  0  0  0  0  0  0  0  0  0
   39.1130   31.3690   40.5310 C   0  0  0  0  0  0  0  0  0  0  0  0
   40.2530   30.9600   39.9540 N   0  0  0  0  0  0  0  0  0  0  0  0
   41.7590   29.5220   39.8550 H   0  0  0  0  0  0  0  0  0  0  0  0
   38.6280   32.2970   40.2190 H   0  0  0  0  0  0  0  0  0  0  0  0
   40.9720   27.8480   41.7050 N   0  0  0  0  0  0  0  0  0  0  0  0
   40.9980   26.6620   40.8560 C   0  0  0  0  0  0  0  0  0  0  0  0
   41.9270   25.6340   41.4250 C   0  0  0  0  0  0  0  0  0  0  0  0
   41.6990   25.3640   42.8080 N   0  0  0  0  0  0  0  0  0  0  0  0
   41.5610   26.5030   43.6610 C   0  0  0  0  0  0  0  0  0  0  0  0
   41.7030   27.8190   42.9620 C   0  0  0  0  0  0  0  0  0  0  0  0
   39.9670   26.2250   40.9080 H   0  0  0  0  0  0  0  0  0  0  0  0
   41.2660   26.8730   39.8180 H   0  0  0  0  0  0  0  0  0  0  0  0
   41.7470   24.6980   40.8610 H   0  0  0  0  0  0  0  0  0  0  0  0
   42.9660   25.9460   41.2060 H   0  0  0  0  0  0  0  0  0  0  0  0
   41.0230   24.5990   43.0010 H   0  0  0  0  0  0  0  0  0  0  0  0
   40.5560   26.4550   44.1290 H   0  0  0  0  0  0  0  0  0  0  0  0
   42.3100   26.4500   44.4690 H   0  0  0  0  0  0  0  0  0  0  0  0
   41.3130   28.6030   43.6620 H   0  0  0  0  0  0  0  0  0  0  0  0
   42.7950   28.0010   42.8250 H   0  0  0  0  0  0  0  0  0  0  0  0
   38.5650   28.6840   42.9480 O   0  0  0  0  0  0  0  0  0  0  0  0
   36.2760   27.3910   43.3830 O   0  0  0  0  0  0  0  0  0  0  0  0
   37.5370   27.3640   42.5130 P   0  0  1  0  0  0  0  0  0  0  0  0
   37.1700   27.4710   40.8990 O   0  0  0  0  0  0  0  0  0  0  0  0
   36.2080   27.9700   40.2130 C   0  0  0  0  0  0  0  0  0  0  0  0
   35.2260   28.9570   40.4630 C   0  0  0  0  0  0  0  0  0  0  0  0
   35.2640   29.4120   41.4370 H   0  0  0  0  0  0  0  0  0  0  0  0
   34.3090   29.2810   39.5030 C   0  0  0  0  0  3  0  0  0  0  0  0
   34.3550   28.6100   38.2490 C   0  0  0  0  0  3  0  0  0  0  0  0
   35.8210   27.4210   38.4380 S   0  0  0  0  0  0  0  0  0  0  0  0
   38.3800   25.9500   42.8920 O   0  0  0  0  0  0  0  0  0  0  0  0
   37.9140   24.8460   42.1970 C   0  0  0  0  0  0  0  0  0  0  0  0
   38.3230   24.8150   40.8750 F   0  0  0  0  0  0  0  0  0  0  0  0
   36.5560   24.6830   42.2370 F   0  0  0  0  0  0  0  0  0  0  0  0
   38.4600   23.7380   42.8400 F   0  0  0  0  0  0  0  0  0  0  0  0
  1  2  1  0  0  0  0
  2  9  1  0  0  0  0
  2  3  2  0  0  0  0
  3 24  1  0  0  0  0
  4  3  1  0  0  0  0
  5  4  2  0  0  0  0
  6  1  2  0  0  0  0
  6  5  1  0  0  0  0
  7  1  1  0  0  0  0
  8  5  1  0  0  0  0
  9 14  1  0  0  0  0
 10 15  1  0  0  0  0
 10 11  1  0  0  0  0
 10  9  1  0  0  0  0
 11 12  1  0  0  0  0
 12 19  1  0  0  0  0
 12 13  1  0  0  0  0
 13 20  1  0  0  0  0
 13 21  1  0  0  0  0
 14 13  1  0  0  0  0
 14 22  1  0  0  0  0
 16 10  1  0  0  0  0
 17 11  1  0  0  0  0
 18 11  1  0  0  0  0
 23 14  1  0  0  0  0
 26 34  1  0  0  0  0
 26 24  1  0  0  0  0
 26 25  2  1  0  0  0
 27 26  1  0  0  0  0
 28 29  2  0  0  0  0
 28 27  1  0  0  0  0
 29 30  1  0  0  0  0
 31 29  1  0  0  0  0
 32 33  1  0  0  0  0
 32 31  2  0  0  0  0
 33 28  1  0  0  0  0
 35 37  1  0  0  0  0
 35 38  1  0  0  0  0
 35 34  1  0  0  0  0
 36 35  1  0  0  0  0
M  END
>  <minimizedAffinity>
-4.62969923

$$$$
