
 OpenBabel03252509233D

 24 26  0  0  1  0  0  0  0  0999 V2000
   47.6700   33.9690   42.4310 C   0  0  1  0  0  0  0  0  0  0  0  0
   49.0060   34.7310   42.6320 C   0  0  0  0  0  0  0  0  0  0  0  0
   48.8560   33.1910   42.4550 C   0  0  2  0  0  0  0  0  0  0  0  0
   47.1220   34.2810   41.5230 H   0  0  0  0  0  0  0  0  0  0  0  0
   49.3410   35.2730   41.7320 H   0  0  0  0  0  0  0  0  0  0  0  0
   49.2580   35.1280   43.6100 H   0  0  0  0  0  0  0  0  0  0  0  0
   49.1180   32.6590   43.4010 H   0  0  0  0  0  0  0  0  0  0  0  0
   44.9970   34.8600   44.9060 C   0  0  0  0  0  0  0  0  0  0  0  0
   45.7720   34.9100   43.7000 C   0  0  0  0  0  0  0  0  0  0  0  0
   46.8310   34.0400   43.6930 C   0  0  0  0  0  0  0  0  0  0  0  0
   47.1050   33.2050   44.7630 N   0  0  0  0  0  0  0  0  0  0  0  0
   46.3410   33.2070   45.8620 C   0  0  0  0  0  0  0  0  0  0  0  0
   45.2740   34.0450   45.9330 N   0  0  0  0  0  0  0  0  0  0  0  0
   44.1570   35.5140   44.9720 H   0  0  0  0  0  0  0  0  0  0  0  0
   46.7310   32.4850   46.5660 H   0  0  0  0  0  0  0  0  0  0  0  0
   45.4790   35.7870   42.6270 N   0  0  0  0  0  0  0  0  0  0  0  0
   45.8130   36.7420   42.9280 H   0  0  0  0  0  0  0  0  0  0  0  0
   45.0260   35.5690   41.7100 H   0  0  0  0  0  0  0  0  0  0  0  0
   49.3550   32.6040   41.2170 C   0  0  0  0  0  0  0  0  0  0  0  0
   50.4800   31.9440   40.8660 C   0  0  0  0  0  0  0  0  0  0  0  0
   51.2020   31.7940   41.6520 H   0  0  0  0  0  0  0  0  0  0  0  0
   50.6420   31.5130   39.5700 C   0  0  0  0  0  3  0  0  0  0  0  0
   49.5890   31.8000   38.6750 C   0  0  0  0  0  3  0  0  0  0  0  0
   48.3720   32.6920   39.7090 S   0  0  0  0  0  0  0  0  0  0  0  0
  1  4  1  6  0  0  0
  1  3  1  0  0  0  0
  1  2  1  0  0  0  0
  1 10  1  0  0  0  0
  2  6  1  0  0  0  0
  3  2  1  0  0  0  0
  3  7  1  1  0  0  0
  5  2  1  0  0  0  0
  8 14  1  0  0  0  0
  8 13  1  0  0  0  0
  9  8  2  0  0  0  0
 10  9  1  0  0  0  0
 10 11  2  0  0  0  0
 11 12  1  0  0  0  0
 12 13  2  0  0  0  0
 12 15  1  0  0  0  0
 16 17  1  0  0  0  0
 16  9  1  0  0  0  0
 18 16  1  0  0  0  0
 19  3  1  0  0  0  0
 20 19  2  0  0  0  0
 20 21  1  0  0  0  0
 22 20  1  0  0  0  0
 23 22  2  0  0  0  0
 23 24  1  0  0  0  0
 24 19  1  0  0  0  0
M  END
>  <minimizedAffinity>
-4.05436277

>  <minimizedRMSD>
2.11211848

$$$$
