
 OpenBabel03242519043D

 29 31  0  0  1  0  0  0  0  0999 V2000
   37.3360   30.5770   41.2440 N   0  0  0  0  0  0  0  0  0  0  0  0
   37.5620   29.6030   42.2850 C   0  0  0  0  0  0  0  0  0  0  0  0
   37.2050   28.3650   41.5070 C   0  0  2  0  0  0  0  0  0  0  0  0
   35.8570   28.7450   40.9570 C   0  0  0  0  0  0  0  0  0  0  0  0
   36.0720   30.2150   40.6040 C   0  0  0  0  0  0  0  0  0  0  0  0
   38.6160   29.5390   42.6050 H   0  0  0  0  0  0  0  0  0  0  0  0
   36.8460   29.6920   43.1170 H   0  0  0  0  0  0  0  0  0  0  0  0
   37.9250   28.1500   40.6910 H   0  0  0  0  0  0  0  0  0  0  0  0
   35.0890   28.7090   41.7360 H   0  0  0  0  0  0  0  0  0  0  0  0
   35.5890   28.1710   40.0580 H   0  0  0  0  0  0  0  0  0  0  0  0
   35.2320   30.8430   40.9070 H   0  0  0  0  0  0  0  0  0  0  0  0
   36.2640   30.2750   39.5020 H   0  0  0  0  0  0  0  0  0  0  0  0
   40.1080   32.9370   40.4690 C   0  0  0  0  0  0  0  0  0  0  0  0
   39.4780   31.7740   40.9130 C   0  0  0  0  0  0  0  0  0  0  0  0
   38.0950   31.6850   40.8350 C   0  0  0  0  0  0  0  0  0  0  0  0
   37.4390   32.7670   40.3160 N   0  0  0  0  0  0  0  0  0  0  0  0
   38.0410   33.8880   39.8870 C   0  0  0  0  0  0  0  0  0  0  0  0
   39.4070   33.9640   39.9710 N   0  0  0  0  0  0  0  0  0  0  0  0
   41.1870   32.9010   40.5750 H   0  0  0  0  0  0  0  0  0  0  0  0
   40.0010   30.9250   41.3210 H   0  0  0  0  0  0  0  0  0  0  0  0
   37.4630   34.7100   39.4870 H   0  0  0  0  0  0  0  0  0  0  0  0
   37.0140   27.2460   42.3880 N   0  0  0  0  0  0  0  0  0  0  0  0
   36.0760   27.0470   42.7920 H   0  0  0  0  0  0  0  0  0  0  0  0
   38.0600   26.4030   42.7240 C   0  0  0  0  0  0  0  0  0  0  0  0
   39.1550   26.6180   43.4790 C   0  0  0  0  0  0  0  0  0  0  0  0
   39.3080   27.5900   43.9300 H   0  0  0  0  0  0  0  0  0  0  0  0
   40.0630   25.6140   43.6700 C   0  0  0  0  0  3  0  0  0  0  0  0
   39.7790   24.3740   43.0400 C   0  0  0  0  0  3  0  0  0  0  0  0
   38.1600   24.6950   42.1600 S   0  0  0  0  0  0  0  0  0  0  0  0
  1  2  1  0  0  0  0
  2  6  1  0  0  0  0
  2  7  1  0  0  0  0
  3  8  1  6  0  0  0
  3  2  1  0  0  0  0
  3 22  1  0  0  0  0
  4  3  1  0  0  0  0
  4  9  1  0  0  0  0
  5 11  1  0  0  0  0
  5  4  1  0  0  0  0
  5  1  1  0  0  0  0
 10  4  1  0  0  0  0
 12  5  1  0  0  0  0
 13 19  1  0  0  0  0
 13 14  1  0  0  0  0
 14 20  1  0  0  0  0
 15 14  2  0  0  0  0
 15  1  1  0  0  0  0
 16 15  1  0  0  0  0
 17 18  1  0  0  0  0
 17 16  2  0  0  0  0
 18 13  2  0  0  0  0
 21 17  1  0  0  0  0
 22 24  1  0  0  0  0
 22 23  1  0  0  0  0
 24 25  2  0  0  0  0
 25 27  1  0  0  0  0
 25 26  1  0  0  0  0
 28 27  2  0  0  0  0
 29 24  1  0  0  0  0
 29 28  1  0  0  0  0
M  END
>  <minimizedAffinity>
-4.88676739

$$$$

 OpenBabel03242519043D

 29 31  0  0  1  0  0  0  0  0999 V2000
   37.0560   30.5420   41.1080 N   0  0  0  0  0  0  0  0  0  0  0  0
   37.2940   29.6330   42.2040 C   0  0  0  0  0  0  0  0  0  0  0  0
   37.1270   28.3390   41.4540 C   0  0  2  0  0  0  0  0  0  0  0  0
   35.7970   28.5580   40.7850 C   0  0  0  0  0  0  0  0  0  0  0  0
   35.8910   30.0290   40.3880 C   0  0  0  0  0  0  0  0  0  0  0  0
   38.3190   29.6900   42.6070 H   0  0  0  0  0  0  0  0  0  0  0  0
   36.5060   29.6760   42.9730 H   0  0  0  0  0  0  0  0  0  0  0  0
   37.9290   28.1720   40.7050 H   0  0  0  0  0  0  0  0  0  0  0  0
   34.9760   28.4690   41.5030 H   0  0  0  0  0  0  0  0  0  0  0  0
   35.6620   27.9290   39.8930 H   0  0  0  0  0  0  0  0  0  0  0  0
   34.9700   30.5760   40.5980 H   0  0  0  0  0  0  0  0  0  0  0  0
   36.1640   30.0700   39.3020 H   0  0  0  0  0  0  0  0  0  0  0  0
   37.9500   33.8470   39.6450 C   0  0  0  0  0  0  0  0  0  0  0  0
   37.1650   32.7390   39.9720 C   0  0  0  0  0  0  0  0  0  0  0  0
   37.7290   31.7090   40.7110 C   0  0  0  0  0  0  0  0  0  0  0  0
   39.0390   31.8590   41.0730 N   0  0  0  0  0  0  0  0  0  0  0  0
   39.7980   32.9220   40.7610 C   0  0  0  0  0  0  0  0  0  0  0  0
   39.2300   33.9330   40.0300 N   0  0  0  0  0  0  0  0  0  0  0  0
   37.4130   34.5910   39.0670 H   0  0  0  0  0  0  0  0  0  0  0  0
   36.1330   32.6280   39.6840 H   0  0  0  0  0  0  0  0  0  0  0  0
   40.8300   32.9780   41.0790 H   0  0  0  0  0  0  0  0  0  0  0  0
   36.9790   27.2370   42.3640 N   0  0  0  0  0  0  0  0  0  0  0  0
   36.0550   27.0290   42.7940 H   0  0  0  0  0  0  0  0  0  0  0  0
   38.0490   26.4230   42.6930 C   0  0  0  0  0  0  0  0  0  0  0  0
   39.1100   26.6450   43.4940 C   0  0  0  0  0  0  0  0  0  0  0  0
   39.2060   27.5980   43.9970 H   0  0  0  0  0  0  0  0  0  0  0  0
   40.0540   25.6710   43.6680 C   0  0  0  0  0  3  0  0  0  0  0  0
   39.8420   24.4530   42.9690 C   0  0  0  0  0  3  0  0  0  0  0  0
   38.2400   24.7500   42.0510 S   0  0  0  0  0  0  0  0  0  0  0  0
  1  2  1  0  0  0  0
  2  6  1  0  0  0  0
  2  7  1  0  0  0  0
  3  8  1  6  0  0  0
  3  2  1  0  0  0  0
  3 22  1  0  0  0  0
  4  3  1  0  0  0  0
  4  9  1  0  0  0  0
  5 11  1  0  0  0  0
  5  4  1  0  0  0  0
  5  1  1  0  0  0  0
 10  4  1  0  0  0  0
 12  5  1  0  0  0  0
 13 14  2  0  0  0  0
 13 18  1  0  0  0  0
 14 15  1  0  0  0  0
 15 16  2  0  0  0  0
 15  1  1  0  0  0  0
 17 16  1  0  0  0  0
 17 21  1  0  0  0  0
 18 17  2  0  0  0  0
 19 13  1  0  0  0  0
 20 14  1  0  0  0  0
 22 24  1  0  0  0  0
 22 23  1  0  0  0  0
 24 25  2  0  0  0  0
 25 27  1  0  0  0  0
 25 26  1  0  0  0  0
 28 27  2  0  0  0  0
 29 24  1  0  0  0  0
 29 28  1  0  0  0  0
M  END
>  <minimizedAffinity>
-4.86881685

$$$$

 OpenBabel03242519043D

 29 31  0  0  1  0  0  0  0  0999 V2000
   36.5230   30.0930   38.6460 N   0  0  0  0  0  0  0  0  0  0  0  0
   36.6640   29.3990   39.9050 C   0  0  0  0  0  0  0  0  0  0  0  0
   36.1380   30.4800   40.8100 C   0  0  2  0  0  0  0  0  0  0  0  0
   36.9670   31.6570   40.3740 C   0  0  0  0  0  0  0  0  0  0  0  0
   37.0240   31.4500   38.8620 C   0  0  0  0  0  0  0  0  0  0  0  0
   36.0190   28.5080   39.9890 H   0  0  0  0  0  0  0  0  0  0  0  0
   37.7160   29.2190   40.1770 H   0  0  0  0  0  0  0  0  0  0  0  0
   35.0560   30.6740   40.6600 H   0  0  0  0  0  0  0  0  0  0  0  0
   37.9930   31.5760   40.7490 H   0  0  0  0  0  0  0  0  0  0  0  0
   36.4940   32.6210   40.6110 H   0  0  0  0  0  0  0  0  0  0  0  0
   38.0220   31.6180   38.4560 H   0  0  0  0  0  0  0  0  0  0  0  0
   36.2630   32.1300   38.3990 H   0  0  0  0  0  0  0  0  0  0  0  0
   34.4240   28.6690   35.9220 C   0  0  0  0  0  0  0  0  0  0  0  0
   34.7980   29.0450   37.2130 C   0  0  0  0  0  0  0  0  0  0  0  0
   36.0250   29.6650   37.4060 C   0  0  0  0  0  0  0  0  0  0  0  0
   36.7910   29.8680   36.2920 N   0  0  0  0  0  0  0  0  0  0  0  0
   36.4360   29.5090   35.0470 C   0  0  0  0  0  0  0  0  0  0  0  0
   35.2230   28.8960   34.8700 N   0  0  0  0  0  0  0  0  0  0  0  0
   33.4500   28.1940   35.8850 H   0  0  0  0  0  0  0  0  0  0  0  0
   34.1890   28.8830   38.0870 H   0  0  0  0  0  0  0  0  0  0  0  0
   37.0900   29.6980   34.2080 H   0  0  0  0  0  0  0  0  0  0  0  0
   36.4660   30.2020   42.1810 N   0  0  0  0  0  0  0  0  0  0  0  0
   36.0390   30.7580   42.9490 H   0  0  0  0  0  0  0  0  0  0  0  0
   37.3540   29.1950   42.5220 C   0  0  0  0  0  0  0  0  0  0  0  0
   37.1360   27.9120   42.8720 C   0  0  0  0  0  0  0  0  0  0  0  0
   36.1220   27.5370   42.9160 H   0  0  0  0  0  0  0  0  0  0  0  0
   38.1910   27.0940   43.1690 C   0  0  0  0  0  3  0  0  0  0  0  0
   39.4840   27.6730   43.0840 C   0  0  0  0  0  3  0  0  0  0  0  0
   39.1390   29.4350   42.5620 S   0  0  0  0  0  0  0  0  0  0  0  0
  1  5  1  0  0  0  0
  1  2  1  0  0  0  0
  2  6  1  0  0  0  0
  2  7  1  0  0  0  0
  2  3  1  0  0  0  0
  3  8  1  6  0  0  0
  3 22  1  0  0  0  0
  4 10  1  0  0  0  0
  4  9  1  0  0  0  0
  4  3  1  0  0  0  0
  5  4  1  0  0  0  0
 11  5  1  0  0  0  0
 12  5  1  0  0  0  0
 13 14  1  0  0  0  0
 14 15  2  0  0  0  0
 14 20  1  0  0  0  0
 15  1  1  0  0  0  0
 16 15  1  0  0  0  0
 17 16  2  0  0  0  0
 18 17  1  0  0  0  0
 18 13  2  0  0  0  0
 19 13  1  0  0  0  0
 21 17  1  0  0  0  0
 22 24  1  0  0  0  0
 22 23  1  0  0  0  0
 24 29  1  0  0  0  0
 24 25  2  0  0  0  0
 25 26  1  0  0  0  0
 25 27  1  0  0  0  0
 28 27  2  0  0  0  0
 29 28  1  0  0  0  0
M  END
>  <minimizedAffinity>
-4.64486885

$$$$

 OpenBabel03242519043D

 29 31  0  0  1  0  0  0  0  0999 V2000
   37.9560   31.1220   40.5620 N   0  0  0  0  0  0  0  0  0  0  0  0
   39.1250   31.7840   40.0300 C   0  0  0  0  0  0  0  0  0  0  0  0
   38.6750   33.2070   40.2170 C   0  0  2  0  0  0  0  0  0  0  0  0
   37.3240   33.1740   39.5550 C   0  0  0  0  0  0  0  0  0  0  0  0
   36.7970   31.8110   39.9960 C   0  0  0  0  0  0  0  0  0  0  0  0
   40.0370   31.6100   40.6270 H   0  0  0  0  0  0  0  0  0  0  0  0
   39.2570   31.6150   38.9500 H   0  0  0  0  0  0  0  0  0  0  0  0
   38.5900   33.4930   41.2850 H   0  0  0  0  0  0  0  0  0  0  0  0
   37.4200   33.1460   38.4640 H   0  0  0  0  0  0  0  0  0  0  0  0
   36.6580   33.9750   39.9090 H   0  0  0  0  0  0  0  0  0  0  0  0
   36.3190   31.2660   39.1810 H   0  0  0  0  0  0  0  0  0  0  0  0
   36.0980   31.9800   40.8540 H   0  0  0  0  0  0  0  0  0  0  0  0
   38.4020   28.6880   43.3420 C   0  0  0  0  0  0  0  0  0  0  0  0
   38.6390   29.8100   42.5460 C   0  0  0  0  0  0  0  0  0  0  0  0
   37.8290   30.0370   41.4430 C   0  0  0  0  0  0  0  0  0  0  0  0
   36.8370   29.1250   41.2130 N   0  0  0  0  0  0  0  0  0  0  0  0
   36.6040   28.0440   41.9750 C   0  0  0  0  0  0  0  0  0  0  0  0
   37.4120   27.8310   43.0620 N   0  0  0  0  0  0  0  0  0  0  0  0
   39.0910   28.6070   44.1750 H   0  0  0  0  0  0  0  0  0  0  0  0
   39.4240   30.5250   42.7340 H   0  0  0  0  0  0  0  0  0  0  0  0
   35.8010   27.3610   41.7370 H   0  0  0  0  0  0  0  0  0  0  0  0
   39.5040   34.1080   39.4650 N   0  0  0  0  0  0  0  0  0  0  0  0
   39.0770   34.8310   38.8520 H   0  0  0  0  0  0  0  0  0  0  0  0
   40.8850   34.0440   39.5320 C   0  0  0  0  0  0  0  0  0  0  0  0
   41.7220   34.1600   40.5820 C   0  0  0  0  0  0  0  0  0  0  0  0
   41.3150   34.3340   41.5700 H   0  0  0  0  0  0  0  0  0  0  0  0
   43.0730   34.0590   40.3970 C   0  0  0  0  0  3  0  0  0  0  0  0
   43.5140   33.8300   39.0670 C   0  0  0  0  0  3  0  0  0  0  0  0
   41.9240   33.7640   38.0850 S   0  0  0  0  0  0  0  0  0  0  0  0
  1 15  1  0  0  0  0
  2  3  1  0  0  0  0
  2  1  1  0  0  0  0
  2  6  1  0  0  0  0
  3  8  1  1  0  0  0
  4 10  1  0  0  0  0
  4  5  1  0  0  0  0
  4  3  1  0  0  0  0
  5  1  1  0  0  0  0
  5 12  1  0  0  0  0
  7  2  1  0  0  0  0
  9  4  1  0  0  0  0
 11  5  1  0  0  0  0
 13 19  1  0  0  0  0
 14 20  1  0  0  0  0
 14 13  2  0  0  0  0
 15 14  1  0  0  0  0
 16 15  2  0  0  0  0
 16 17  1  0  0  0  0
 17 18  2  0  0  0  0
 18 13  1  0  0  0  0
 21 17  1  0  0  0  0
 22 24  1  0  0  0  0
 22  3  1  0  0  0  0
 23 22  1  0  0  0  0
 24 25  2  0  0  0  0
 25 26  1  0  0  0  0
 27 25  1  0  0  0  0
 28 27  2  0  0  0  0
 29 28  1  0  0  0  0
 29 24  1  0  0  0  0
M  END
>  <minimizedAffinity>
-4.63831377

$$$$

 OpenBabel03242519043D

 29 31  0  0  1  0  0  0  0  0999 V2000
   38.1410   30.2580   39.2120 N   0  0  0  0  0  0  0  0  0  0  0  0
   39.3710   30.4620   38.4840 C   0  0  0  0  0  0  0  0  0  0  0  0
   39.0990   31.8550   37.9840 C   0  0  2  0  0  0  0  0  0  0  0  0
   37.7420   31.6810   37.3580 C   0  0  0  0  0  0  0  0  0  0  0  0
   37.0630   30.7420   38.3510 C   0  0  0  0  0  0  0  0  0  0  0  0
   40.2660   30.4750   39.1290 H   0  0  0  0  0  0  0  0  0  0  0  0
   39.4610   29.8050   37.6050 H   0  0  0  0  0  0  0  0  0  0  0  0
   39.0700   32.6050   38.8010 H   0  0  0  0  0  0  0  0  0  0  0  0
   37.8130   31.1470   36.4050 H   0  0  0  0  0  0  0  0  0  0  0  0
   37.1850   32.6270   37.2830 H   0  0  0  0  0  0  0  0  0  0  0  0
   36.5060   29.9450   37.8560 H   0  0  0  0  0  0  0  0  0  0  0  0
   36.4060   31.3640   39.0110 H   0  0  0  0  0  0  0  0  0  0  0  0
   36.7690   28.3450   42.0960 C   0  0  0  0  0  0  0  0  0  0  0  0
   36.8990   28.8030   40.7840 C   0  0  0  0  0  0  0  0  0  0  0  0
   37.9000   29.7170   40.4850 C   0  0  0  0  0  0  0  0  0  0  0  0
   38.7020   30.1080   41.5210 N   0  0  0  0  0  0  0  0  0  0  0  0
   38.5820   29.6700   42.7850 C   0  0  0  0  0  0  0  0  0  0  0  0
   37.5890   28.7680   43.0670 N   0  0  0  0  0  0  0  0  0  0  0  0
   35.9570   27.6360   42.2180 H   0  0  0  0  0  0  0  0  0  0  0  0
   36.2630   28.4910   39.9720 H   0  0  0  0  0  0  0  0  0  0  0  0
   39.2510   30.0200   43.5590 H   0  0  0  0  0  0  0  0  0  0  0  0
   40.0170   32.2100   36.9370 N   0  0  0  0  0  0  0  0  0  0  0  0
   39.7050   32.2270   35.9450 H   0  0  0  0  0  0  0  0  0  0  0  0
   41.3340   32.5380   37.2110 C   0  0  0  0  0  0  0  0  0  0  0  0
   41.8740   33.6670   37.7110 C   0  0  0  0  0  0  0  0  0  0  0  0
   41.2290   34.4980   37.9640 H   0  0  0  0  0  0  0  0  0  0  0  0
   43.2260   33.7570   37.8970 C   0  0  0  0  0  3  0  0  0  0  0  0
   43.9910   32.6170   37.5370 C   0  0  0  0  0  3  0  0  0  0  0  0
   42.7060   31.4050   36.9230 S   0  0  0  0  0  0  0  0  0  0  0  0
  1 15  1  0  0  0  0
  2  6  1  0  0  0  0
  2  1  1  0  0  0  0
  3  2  1  0  0  0  0
  3  8  1  1  0  0  0
  4  3  1  0  0  0  0
  4  5  1  0  0  0  0
  5 12  1  0  0  0  0
  5  1  1  0  0  0  0
  7  2  1  0  0  0  0
  9  4  1  0  0  0  0
 10  4  1  0  0  0  0
 11  5  1  0  0  0  0
 13 19  1  0  0  0  0
 13 18  1  0  0  0  0
 14 13  2  0  0  0  0
 15 14  1  0  0  0  0
 15 16  2  0  0  0  0
 16 17  1  0  0  0  0
 17 18  2  0  0  0  0
 17 21  1  0  0  0  0
 20 14  1  0  0  0  0
 22 24  1  0  0  0  0
 22  3  1  0  0  0  0
 23 22  1  0  0  0  0
 24 25  2  0  0  0  0
 25 27  1  0  0  0  0
 25 26  1  0  0  0  0
 28 27  2  0  0  0  0
 29 24  1  0  0  0  0
 29 28  1  0  0  0  0
M  END
>  <minimizedAffinity>
-4.57690048

$$$$

 OpenBabel03242519043D

 29 31  0  0  1  0  0  0  0  0999 V2000
   37.0480   28.1570   40.3360 N   0  0  0  0  0  0  0  0  0  0  0  0
   37.1330   29.3170   41.1910 C   0  0  0  0  0  0  0  0  0  0  0  0
   36.1920   30.2150   40.4340 C   0  0  2  0  0  0  0  0  0  0  0  0
   36.7560   30.1230   39.0430 C   0  0  0  0  0  0  0  0  0  0  0  0
   37.1360   28.6470   38.9610 C   0  0  0  0  0  0  0  0  0  0  0  0
   36.7350   29.1450   42.2050 H   0  0  0  0  0  0  0  0  0  0  0  0
   38.1280   29.7880   41.1740 H   0  0  0  0  0  0  0  0  0  0  0  0
   35.1420   29.8570   40.4650 H   0  0  0  0  0  0  0  0  0  0  0  0
   37.6820   30.7000   38.9540 H   0  0  0  0  0  0  0  0  0  0  0  0
   36.0160   30.3710   38.2680 H   0  0  0  0  0  0  0  0  0  0  0  0
   38.1150   28.4940   38.5030 H   0  0  0  0  0  0  0  0  0  0  0  0
   36.3230   28.1180   38.4000 H   0  0  0  0  0  0  0  0  0  0  0  0
   36.9830   24.8520   42.0480 C   0  0  0  0  0  0  0  0  0  0  0  0
   37.1610   26.2260   41.8820 C   0  0  0  0  0  0  0  0  0  0  0  0
   36.9100   26.7930   40.6400 C   0  0  0  0  0  0  0  0  0  0  0  0
   36.4970   25.9440   39.6510 N   0  0  0  0  0  0  0  0  0  0  0  0
   36.3240   24.6220   39.8050 C   0  0  0  0  0  0  0  0  0  0  0  0
   36.5750   24.0740   41.0360 N   0  0  0  0  0  0  0  0  0  0  0  0
   37.2060   24.5140   43.0540 H   0  0  0  0  0  0  0  0  0  0  0  0
   37.4870   26.8890   42.6660 H   0  0  0  0  0  0  0  0  0  0  0  0
   35.9940   24.0050   38.9800 H   0  0  0  0  0  0  0  0  0  0  0  0
   36.3270   31.5780   40.8680 N   0  0  0  0  0  0  0  0  0  0  0  0
   35.5700   32.0350   41.4150 H   0  0  0  0  0  0  0  0  0  0  0  0
   37.4590   32.3200   40.5760 C   0  0  0  0  0  0  0  0  0  0  0  0
   37.6190   33.4170   39.8110 C   0  0  0  0  0  0  0  0  0  0  0  0
   36.7610   33.8450   39.3080 H   0  0  0  0  0  0  0  0  0  0  0  0
   38.8570   33.9820   39.6720 C   0  0  0  0  0  3  0  0  0  0  0  0
   39.9210   33.3530   40.3680 C   0  0  0  0  0  3  0  0  0  0  0  0
   39.0890   31.9180   41.2320 S   0  0  0  0  0  0  0  0  0  0  0  0
  1 15  1  0  0  0  0
  1  2  1  0  0  0  0
  2  6  1  0  0  0  0
  3  8  1  1  0  0  0
  3 22  1  0  0  0  0
  3  2  1  0  0  0  0
  4  3  1  0  0  0  0
  5  4  1  0  0  0  0
  5  1  1  0  0  0  0
  7  2  1  0  0  0  0
  9  4  1  0  0  0  0
 10  4  1  0  0  0  0
 11  5  1  0  0  0  0
 12  5  1  0  0  0  0
 13 19  1  0  0  0  0
 14 13  1  0  0  0  0
 14 20  1  0  0  0  0
 15 14  2  0  0  0  0
 16 17  2  0  0  0  0
 16 15  1  0  0  0  0
 17 18  1  0  0  0  0
 18 13  2  0  0  0  0
 21 17  1  0  0  0  0
 22 23  1  0  0  0  0
 24 22  1  0  0  0  0
 24 29  1  0  0  0  0
 25 24  2  0  0  0  0
 26 25  1  0  0  0  0
 27 25  1  0  0  0  0
 27 28  2  0  0  0  0
 28 29  1  0  0  0  0
M  END
>  <minimizedAffinity>
-4.52996826

$$$$

 OpenBabel03242519043D

 29 31  0  0  1  0  0  0  0  0999 V2000
   38.9610   30.6710   41.2580 N   0  0  0  0  0  0  0  0  0  0  0  0
   37.9420   29.7460   40.8200 C   0  0  0  0  0  0  0  0  0  0  0  0
   37.1760   29.6390   42.1110 C   0  0  2  0  0  0  0  0  0  0  0  0
   38.2800   29.3140   43.0800 C   0  0  0  0  0  0  0  0  0  0  0  0
   39.4100   30.2030   42.5690 C   0  0  0  0  0  0  0  0  0  0  0  0
   37.2820   30.1580   40.0380 H   0  0  0  0  0  0  0  0  0  0  0  0
   38.3440   28.7470   40.5870 H   0  0  0  0  0  0  0  0  0  0  0  0
   36.6670   30.5860   42.3860 H   0  0  0  0  0  0  0  0  0  0  0  0
   38.6100   28.2760   42.9670 H   0  0  0  0  0  0  0  0  0  0  0  0
   38.0250   29.5760   44.1170 H   0  0  0  0  0  0  0  0  0  0  0  0
   40.3700   29.6840   42.5440 H   0  0  0  0  0  0  0  0  0  0  0  0
   39.4440   31.1150   43.2190 H   0  0  0  0  0  0  0  0  0  0  0  0
   39.6490   34.1580   40.1520 C   0  0  0  0  0  0  0  0  0  0  0  0
   39.0220   33.1070   40.8240 C   0  0  0  0  0  0  0  0  0  0  0  0
   39.4960   31.8150   40.6450 C   0  0  0  0  0  0  0  0  0  0  0  0
   40.5650   31.6650   39.8070 N   0  0  0  0  0  0  0  0  0  0  0  0
   41.1720   32.6720   39.1580 C   0  0  0  0  0  0  0  0  0  0  0  0
   40.6940   33.9430   39.3420 N   0  0  0  0  0  0  0  0  0  0  0  0
   39.2000   35.1220   40.3620 H   0  0  0  0  0  0  0  0  0  0  0  0
   38.1800   33.2330   41.4840 H   0  0  0  0  0  0  0  0  0  0  0  0
   42.0150   32.4840   38.5070 H   0  0  0  0  0  0  0  0  0  0  0  0
   36.2810   28.5150   42.0810 N   0  0  0  0  0  0  0  0  0  0  0  0
   35.2760   28.6350   42.3230 H   0  0  0  0  0  0  0  0  0  0  0  0
   36.7210   27.2500   41.7310 C   0  0  0  0  0  0  0  0  0  0  0  0
   37.1750   26.2350   42.4920 C   0  0  0  0  0  0  0  0  0  0  0  0
   37.2340   26.3600   43.5660 H   0  0  0  0  0  0  0  0  0  0  0  0
   37.5580   25.0590   41.9090 C   0  0  0  0  0  3  0  0  0  0  0  0
   37.4460   24.9870   40.4960 C   0  0  0  0  0  3  0  0  0  0  0  0
   36.7700   26.6670   40.0270 S   0  0  0  0  0  0  0  0  0  0  0  0
  1  5  1  0  0  0  0
  2  1  1  0  0  0  0
  2  3  1  0  0  0  0
  3  8  1  1  0  0  0
  3  4  1  0  0  0  0
  4 10  1  0  0  0  0
  5  4  1  0  0  0  0
  5 12  1  0  0  0  0
  6  2  1  0  0  0  0
  7  2  1  0  0  0  0
  9  4  1  0  0  0  0
 11  5  1  0  0  0  0
 13 19  1  0  0  0  0
 13 14  1  0  0  0  0
 14 20  1  0  0  0  0
 15 14  2  0  0  0  0
 15  1  1  0  0  0  0
 16 15  1  0  0  0  0
 17 18  1  0  0  0  0
 17 16  2  0  0  0  0
 18 13  2  0  0  0  0
 21 17  1  0  0  0  0
 22  3  1  0  0  0  0
 22 23  1  0  0  0  0
 24 22  1  0  0  0  0
 24 25  2  0  0  0  0
 25 26  1  0  0  0  0
 27 25  1  0  0  0  0
 28 27  2  0  0  0  0
 29 28  1  0  0  0  0
 29 24  1  0  0  0  0
M  END
>  <minimizedAffinity>
-4.52290154

$$$$

 OpenBabel03242519043D

 29 31  0  0  1  0  0  0  0  0999 V2000
   37.2340   26.7130   41.9020 N   0  0  0  0  0  0  0  0  0  0  0  0
   36.5960   27.8510   41.2820 C   0  0  0  0  0  0  0  0  0  0  0  0
   37.4110   28.9380   41.9290 C   0  0  2  0  0  0  0  0  0  0  0  0
   37.2930   28.5650   43.3820 C   0  0  0  0  0  0  0  0  0  0  0  0
   37.3840   27.0430   43.3180 C   0  0  0  0  0  0  0  0  0  0  0  0
   36.7380   27.8920   40.1880 H   0  0  0  0  0  0  0  0  0  0  0  0
   35.5510   27.9820   41.6030 H   0  0  0  0  0  0  0  0  0  0  0  0
   38.4700   28.9320   41.5980 H   0  0  0  0  0  0  0  0  0  0  0  0
   36.3010   28.8130   43.7720 H   0  0  0  0  0  0  0  0  0  0  0  0
   38.1130   28.9730   43.9920 H   0  0  0  0  0  0  0  0  0  0  0  0
   36.6510   26.5550   43.9620 H   0  0  0  0  0  0  0  0  0  0  0  0
   38.4340   26.7550   43.5850 H   0  0  0  0  0  0  0  0  0  0  0  0
   37.4860   23.1610   40.8180 C   0  0  0  0  0  0  0  0  0  0  0  0
   36.9370   24.3090   41.3900 C   0  0  0  0  0  0  0  0  0  0  0  0
   37.6660   25.4900   41.3650 C   0  0  0  0  0  0  0  0  0  0  0  0
   38.8940   25.4400   40.7670 N   0  0  0  0  0  0  0  0  0  0  0  0
   39.4270   24.3370   40.2150 C   0  0  0  0  0  0  0  0  0  0  0  0
   38.6980   23.1770   40.2470 N   0  0  0  0  0  0  0  0  0  0  0  0
   36.8350   22.2970   40.8930 H   0  0  0  0  0  0  0  0  0  0  0  0
   35.9670   24.3420   41.8600 H   0  0  0  0  0  0  0  0  0  0  0  0
   40.4070   24.3650   39.7570 H   0  0  0  0  0  0  0  0  0  0  0  0
   36.7830   30.2180   41.7570 N   0  0  0  0  0  0  0  0  0  0  0  0
   35.9470   30.4760   42.3200 H   0  0  0  0  0  0  0  0  0  0  0  0
   37.2650   31.1430   40.8460 C   0  0  0  0  0  0  0  0  0  0  0  0
   36.7290   31.6140   39.7020 C   0  0  0  0  0  0  0  0  0  0  0  0
   35.7610   31.2510   39.3800 H   0  0  0  0  0  0  0  0  0  0  0  0
   37.4050   32.5410   38.9590 C   0  0  0  0  0  3  0  0  0  0  0  0
   38.6660   32.9570   39.4610 C   0  0  0  0  0  3  0  0  0  0  0  0
   38.8530   31.9730   41.0410 S   0  0  0  0  0  0  0  0  0  0  0  0
  1  5  1  0  0  0  0
  2  7  1  0  0  0  0
  2  1  1  0  0  0  0
  2  3  1  0  0  0  0
  3  8  1  6  0  0  0
  3  4  1  0  0  0  0
  4  9  1  0  0  0  0
  4 10  1  0  0  0  0
  5  4  1  0  0  0  0
  5 12  1  0  0  0  0
  5 11  1  0  0  0  0
  6  2  1  0  0  0  0
 13 19  1  0  0  0  0
 13 14  1  0  0  0  0
 14 20  1  0  0  0  0
 15 14  2  0  0  0  0
 15  1  1  0  0  0  0
 16 15  1  0  0  0  0
 17 18  1  0  0  0  0
 17 16  2  0  0  0  0
 18 13  2  0  0  0  0
 21 17  1  0  0  0  0
 22  3  1  0  0  0  0
 22 23  1  0  0  0  0
 24 29  1  0  0  0  0
 24 22  1  0  0  0  0
 25 24  2  0  0  0  0
 26 25  1  0  0  0  0
 27 28  2  0  0  0  0
 27 25  1  0  0  0  0
 28 29  1  0  0  0  0
M  END
>  <minimizedAffinity>
-4.52102137

$$$$

 OpenBabel03242519043D

 29 31  0  0  1  0  0  0  0  0999 V2000
   38.8300   32.3190   39.9870 N   0  0  0  0  0  0  0  0  0  0  0  0
   38.7800   31.6100   41.2440 C   0  0  0  0  0  0  0  0  0  0  0  0
   37.6430   30.6780   40.9240 C   0  0  2  0  0  0  0  0  0  0  0  0
   36.6010   31.6460   40.4340 C   0  0  0  0  0  0  0  0  0  0  0  0
   37.4470   32.6290   39.6300 C   0  0  0  0  0  0  0  0  0  0  0  0
   39.6880   31.0190   41.4510 H   0  0  0  0  0  0  0  0  0  0  0  0
   38.4600   32.2500   42.0820 H   0  0  0  0  0  0  0  0  0  0  0  0
   37.9050   29.9390   40.1380 H   0  0  0  0  0  0  0  0  0  0  0  0
   36.1600   32.2040   41.2660 H   0  0  0  0  0  0  0  0  0  0  0  0
   35.8490   31.1690   39.7870 H   0  0  0  0  0  0  0  0  0  0  0  0
   37.1690   33.6670   39.8160 H   0  0  0  0  0  0  0  0  0  0  0  0
   37.3460   32.3560   38.5480 H   0  0  0  0  0  0  0  0  0  0  0  0
   41.3450   32.5820   37.2550 C   0  0  0  0  0  0  0  0  0  0  0  0
   40.2340   32.1140   37.9580 C   0  0  0  0  0  0  0  0  0  0  0  0
   39.9160   32.6920   39.1790 C   0  0  0  0  0  0  0  0  0  0  0  0
   40.7330   33.6990   39.6110 N   0  0  0  0  0  0  0  0  0  0  0  0
   41.8030   34.1540   38.9380 C   0  0  0  0  0  0  0  0  0  0  0  0
   42.1060   33.5750   37.7340 N   0  0  0  0  0  0  0  0  0  0  0  0
   41.5020   32.0630   36.3160 H   0  0  0  0  0  0  0  0  0  0  0  0
   39.5940   31.3190   37.6110 H   0  0  0  0  0  0  0  0  0  0  0  0
   42.4090   34.9560   39.3380 H   0  0  0  0  0  0  0  0  0  0  0  0
   37.1360   30.0620   42.1190 N   0  0  0  0  0  0  0  0  0  0  0  0
   36.5530   30.6070   42.7860 H   0  0  0  0  0  0  0  0  0  0  0  0
   37.4020   28.7370   42.4180 C   0  0  0  0  0  0  0  0  0  0  0  0
   36.5960   27.6560   42.4210 C   0  0  0  0  0  0  0  0  0  0  0  0
   35.5530   27.7700   42.1560 H   0  0  0  0  0  0  0  0  0  0  0  0
   37.0960   26.4290   42.7570 C   0  0  0  0  0  3  0  0  0  0  0  0
   38.4750   26.3770   43.0890 C   0  0  0  0  0  3  0  0  0  0  0  0
   39.0360   28.1510   42.9040 S   0  0  0  0  0  0  0  0  0  0  0  0
  1  2  1  0  0  0  0
  2  6  1  0  0  0  0
  2  7  1  0  0  0  0
  3  8  1  6  0  0  0
  3  2  1  0  0  0  0
  3 22  1  0  0  0  0
  4  3  1  0  0  0  0
  4  9  1  0  0  0  0
  5 11  1  0  0  0  0
  5  1  1  0  0  0  0
  5  4  1  0  0  0  0
 10  4  1  0  0  0  0
 12  5  1  0  0  0  0
 13 18  2  0  0  0  0
 13 14  1  0  0  0  0
 14 15  2  0  0  0  0
 15 16  1  0  0  0  0
 15  1  1  0  0  0  0
 17 21  1  0  0  0  0
 17 16  2  0  0  0  0
 18 17  1  0  0  0  0
 19 13  1  0  0  0  0
 20 14  1  0  0  0  0
 22 24  1  0  0  0  0
 22 23  1  0  0  0  0
 24 25  2  0  0  0  0
 24 29  1  0  0  0  0
 25 27  1  0  0  0  0
 26 25  1  0  0  0  0
 27 28  2  0  0  0  0
 29 28  1  0  0  0  0
M  END
>  <minimizedAffinity>
-4.50083256

$$$$
