
 OpenBabel03252508543D

 40 43  0  0  1  0  0  0  0  0999 V2000
   43.2980   34.4100   40.7170 C   0  0  0  0  0  0  0  0  0  0  0  0
   43.2440   35.6030   40.2590 O   0  0  0  0  0  0  0  0  0  0  0  0
   41.9350   34.0030   40.4380 N   0  0  0  0  0  0  0  0  0  0  0  0
   41.5510   34.0270   39.0470 C   0  0  0  0  0  0  0  0  0  0  0  0
   40.7480   35.3240   38.8880 C   0  0  0  0  0  0  0  0  0  0  0  0
   39.9570   35.5030   40.1910 C   0  0  0  0  0  0  0  0  0  0  0  0
   39.6260   34.1470   40.8230 C   0  0  0  0  0  0  0  0  0  0  0  0
   40.9050   33.5710   41.3970 C   0  0  1  0  0  0  0  0  0  0  0  0
   40.8820   33.1800   38.7910 H   0  0  0  0  0  0  0  0  0  0  0  0
   42.4030   34.1220   38.3590 H   0  0  0  0  0  0  0  0  0  0  0  0
   41.4890   36.1580   38.7990 H   0  0  0  0  0  0  0  0  0  0  0  0
   40.0670   35.2770   38.0110 H   0  0  0  0  0  0  0  0  0  0  0  0
   39.0720   36.0950   39.9690 H   0  0  0  0  0  0  0  0  0  0  0  0
   40.5730   36.0690   40.9280 H   0  0  0  0  0  0  0  0  0  0  0  0
   39.2630   33.5060   40.0050 H   0  0  0  0  0  0  0  0  0  0  0  0
   38.8500   34.3480   41.5830 H   0  0  0  0  0  0  0  0  0  0  0  0
   41.1240   34.1760   42.3060 H   0  0  0  0  0  0  0  0  0  0  0  0
   40.9210   32.2060   41.6500 C   0  0  0  0  0  0  0  0  0  0  0  0
   41.8390   31.2660   42.0640 C   0  0  0  0  0  0  0  0  0  0  0  0
   42.8220   31.6590   42.2500 H   0  0  0  0  0  0  0  0  0  0  0  0
   41.5400   29.9450   42.2280 C   0  0  0  0  0  3  0  0  0  0  0  0
   40.0980   29.5830   41.9150 C   0  0  0  0  0  3  0  0  0  0  0  0
   39.4200   31.2840   41.4240 S   0  0  0  0  0  0  0  0  0  0  0  0
   44.3610   33.7770   41.2860 O   0  0  0  0  0  0  0  0  0  0  0  0
   45.6930   34.1030   41.1200 C   0  0  0  0  0  0  0  0  0  0  0  0
   46.3460   34.7350   42.1920 C   0  0  0  0  0  0  0  0  0  0  0  0
   47.6970   35.0560   41.9970 C   0  0  0  0  0  0  0  0  0  0  0  0
   48.2880   34.7430   40.8020 N   0  0  0  0  0  0  0  0  0  0  0  0
   47.6160   34.1470   39.8270 C   0  0  0  0  0  0  0  0  0  0  0  0
   46.3150   33.8200   39.9720 N   0  0  0  0  0  0  0  0  0  0  0  0
   48.2150   35.5410   42.8110 H   0  0  0  0  0  0  0  0  0  0  0  0
   48.1050   33.9070   38.8850 H   0  0  0  0  0  0  0  0  0  0  0  0
   45.6270   35.0200   43.4140 C   0  0  0  0  0  0  0  0  0  0  0  0
   44.9920   36.2370   43.6450 C   0  0  0  0  0  0  0  0  0  0  0  0
   44.4430   36.1000   44.8920 C   0  0  0  0  0  0  0  0  0  0  0  0
   44.7240   34.8720   45.3980 N   0  0  0  0  0  0  0  0  0  0  0  0
   45.4380   34.2550   44.4770 N   0  0  0  0  0  0  0  0  0  0  0  0
   44.9250   37.1130   43.0120 H   0  0  0  0  0  0  0  0  0  0  0  0
   43.8590   36.7980   45.4770 H   0  0  0  0  0  0  0  0  0  0  0  0
   44.4880   34.3960   46.3010 H   0  0  0  0  0  0  0  0  0  0  0  0
  1 24  1  0  0  0  0
  2  1  2  0  0  0  0
  3  1  1  0  0  0  0
  3  8  1  0  0  0  0
  4  3  1  0  0  0  0
  5  4  1  0  0  0  0
  5  6  1  0  0  0  0
  6  7  1  0  0  0  0
  6 14  1  0  0  0  0
  7  8  1  0  0  0  0
  7 16  1  0  0  0  0
  8 18  1  0  0  0  0
  8 17  1  1  0  0  0
  9  4  1  0  0  0  0
 10  4  1  0  0  0  0
 11  5  1  0  0  0  0
 12  5  1  0  0  0  0
 13  6  1  0  0  0  0
 15  7  1  0  0  0  0
 18 19  2  0  0  0  0
 19 21  1  0  0  0  0
 19 20  1  0  0  0  0
 22 21  2  0  0  0  0
 23 18  1  0  0  0  0
 23 22  1  0  0  0  0
 25 24  1  0  0  0  0
 25 26  1  0  0  0  0
 26 33  1  0  0  0  0
 27 26  2  0  0  0  0
 27 31  1  0  0  0  0
 28 27  1  0  0  0  0
 29 30  1  0  0  0  0
 29 28  2  0  0  0  0
 30 25  2  0  0  0  0
 32 29  1  0  0  0  0
 33 34  1  0  0  0  0
 33 37  2  0  0  0  0
 34 35  2  0  0  0  0
 35 36  1  0  0  0  0
 35 39  1  0  0  0  0
 36 40  1  0  0  0  0
 37 36  1  0  0  0  0
 38 34  1  0  0  0  0
M  END
>  <minimizedAffinity>
-6.57850695

>  <minimizedRMSD>
0.437179029

$$$$
