
 OpenBabel03242512213D

 38 41  0  0  0  0  0  0  0  0999 V2000
   48.4770   33.1300   41.4670 C   0  0  0  0  0  0  0  0  0  0  0  0
   48.0420   34.3480   41.9060 C   0  0  0  0  0  0  0  0  0  0  0  0
   48.9250   35.1950   42.5160 C   0  0  0  0  0  0  0  0  0  0  0  0
   50.2560   34.8010   42.6770 C   0  0  0  0  0  0  0  0  0  0  0  0
   50.6580   33.5710   42.2230 C   0  0  0  0  0  0  0  0  0  0  0  0
   49.7620   32.7070   41.6040 C   0  0  0  0  0  0  0  0  0  0  0  0
   48.6130   36.1650   42.8750 H   0  0  0  0  0  0  0  0  0  0  0  0
   50.9170   35.5100   43.1670 H   0  0  0  0  0  0  0  0  0  0  0  0
   51.6960   33.2880   42.3610 H   0  0  0  0  0  0  0  0  0  0  0  0
   46.6280   34.6790   41.6960 C   0  0  0  0  0  0  0  0  0  0  0  0
   46.0980   33.9600   41.0870 H   0  0  0  0  0  0  0  0  0  0  0  0
   46.6030   35.6560   41.1410 H   0  0  0  0  0  0  0  0  0  0  0  0
   45.9280   34.9000   43.0220 C   0  0  0  0  0  0  0  0  0  0  0  0
   46.0070   33.8780   43.9660 C   0  0  0  0  0  0  0  0  0  0  0  0
   45.3640   34.0970   45.1710 C   0  0  0  0  0  0  0  0  0  0  0  0
   44.7140   35.2510   45.3640 N   0  0  0  0  0  0  0  0  0  0  0  0
   44.6550   36.2360   44.4150 C   0  0  0  0  0  0  0  0  0  0  0  0
   45.2650   36.0430   43.2570 N   0  0  0  0  0  0  0  0  0  0  0  0
   46.5410   32.9630   43.7690 H   0  0  0  0  0  0  0  0  0  0  0  0
   45.4110   33.3210   45.9180 H   0  0  0  0  0  0  0  0  0  0  0  0
   44.1410   37.1700   44.5430 H   0  0  0  0  0  0  0  0  0  0  0  0
   47.6440   32.1960   40.8310 O   0  0  0  0  0  0  0  0  0  0  0  0
   47.4380   32.2660   39.8260 H   0  0  0  0  0  0  0  0  0  0  0  0
   50.2800   31.4740   41.1780 O   0  0  0  0  0  0  0  0  0  0  0  0
   50.7890   31.4790   39.8830 C   0  0  0  0  0  0  0  0  0  0  0  0
   52.1360   31.2920   39.7040 C   0  0  0  0  0  0  0  0  0  0  0  0
   52.7310   31.2820   38.4510 C   0  0  0  0  0  0  0  0  0  0  0  0
   51.9600   31.4620   37.3690 N   0  0  0  0  0  0  0  0  0  0  0  0
   50.6310   31.6480   37.5320 C   0  0  0  0  0  0  0  0  0  0  0  0
   50.0820   31.6520   38.7620 N   0  0  0  0  0  0  0  0  0  0  0  0
   52.8080   31.1410   40.5510 H   0  0  0  0  0  0  0  0  0  0  0  0
   53.7860   31.1320   38.3580 H   0  0  0  0  0  0  0  0  0  0  0  0
   49.6860   31.8520   36.4710 C   0  0  0  0  0  0  0  0  0  0  0  0
   49.8060   31.1750   35.3220 C   0  0  0  0  0  0  0  0  0  0  0  0
   50.5470   30.4240   34.9950 H   0  0  0  0  0  0  0  0  0  0  0  0
   49.0240   31.2350   34.2290 C   0  0  0  0  0  0  0  0  0  0  0  0
   47.9610   32.1900   34.4590 C   0  0  0  0  0  0  0  0  0  0  0  0
   48.2490   32.8390   36.1840 S   0  0  0  0  0  0  0  0  0  0  0  0
  1  6  2  0  0  0  0
  1  2  1  0  0  0  0
  2  3  2  0  0  0  0
  3  4  1  0  0  0  0
  3  7  1  0  0  0  0
  4  8  1  0  0  0  0
  5  9  1  0  0  0  0
  5  4  2  0  0  0  0
  6  5  1  0  0  0  0
 10  2  1  0  0  0  0
 10 13  1  0  0  0  0
 11 10  1  0  0  0  0
 12 10  1  0  0  0  0
 13 18  2  0  0  0  0
 13 14  1  0  0  0  0
 14 15  2  0  0  0  0
 15 16  1  0  0  0  0
 15 20  1  0  0  0  0
 17 21  1  0  0  0  0
 17 16  2  0  0  0  0
 18 17  1  0  0  0  0
 19 14  1  0  0  0  0
 22  1  1  0  0  0  0
 23 22  1  0  0  0  0
 24  6  1  0  0  0  0
 25 24  1  0  0  0  0
 26 25  1  0  0  0  0
 26 31  1  0  0  0  0
 27 26  2  0  0  0  0
 28 29  2  0  0  0  0
 28 27  1  0  0  0  0
 29 30  1  0  0  0  0
 30 25  2  0  0  0  0
 32 27  1  0  0  0  0
 33 29  1  0  0  0  0
 34 33  2  0  0  0  0
 35 34  1  0  0  0  0
 36 37  2  0  0  0  0
 36 34  1  0  0  0  0
 37 38  1  0  0  0  0
 38 33  1  0  0  0  0
M  END
>  <minimizedAffinity>
-5.88981438

>  <minimizedRMSD>
0.81754452

$$$$
