
 OpenBabel03252508173D

 44 48  0  0  1  0  0  0  0  0999 V2000
   46.4630   31.0750   46.9650 C   0  0  0  0  0  0  0  0  0  0  0  0
   47.3660   30.5590   46.6800 H   0  0  0  0  0  0  0  0  0  0  0  0
   45.5610   30.4060   46.9030 H   0  0  0  0  0  0  0  0  0  0  0  0
   46.4300   31.7480   48.2950 C   0  0  1  0  0  0  0  0  0  0  0  0
   45.7920   30.9520   49.3830 C   0  0  0  0  0  0  0  0  0  0  0  0
   47.2310   31.2150   49.4170 C   0  0  1  0  0  0  0  0  0  0  0  0
   45.9780   32.7840   48.3000 H   0  0  0  0  0  0  0  0  0  0  0  0
   45.1680   31.3850   50.1630 H   0  0  0  0  0  0  0  0  0  0  0  0
   45.5250   29.8840   49.1770 H   0  0  0  0  0  0  0  0  0  0  0  0
   47.5850   31.9890   50.1300 H   0  0  0  0  0  0  0  0  0  0  0  0
   48.2270   30.1410   49.1190 C   0  0  2  0  0  0  0  0  0  0  0  0
   49.4420   30.1190   50.0750 C   0  0  0  0  0  0  0  0  0  0  0  0
   49.6260   30.5700   48.6840 C   0  0  1  0  0  0  0  0  0  0  0  0
   47.8970   29.1140   48.9290 H   0  0  0  0  0  0  0  0  0  0  0  0
   49.4500   30.8470   50.8890 H   0  0  0  0  0  0  0  0  0  0  0  0
   49.9280   29.1740   50.3300 H   0  0  0  0  0  0  0  0  0  0  0  0
   49.8040   31.6620   48.5840 H   0  0  0  0  0  0  0  0  0  0  0  0
   50.1310   29.7660   47.6160 C   0  0  0  0  0  0  0  0  0  0  0  0
   49.5650   29.1590   46.5890 C   0  0  0  0  0  0  0  0  0  0  0  0
   48.5120   29.1950   46.3430 H   0  0  0  0  0  0  0  0  0  0  0  0
   50.2430   28.4050   45.6750 C   0  0  0  0  0  3  0  0  0  0  0  0
   51.6380   28.2990   45.8860 C   0  0  0  0  0  3  0  0  0  0  0  0
   51.9610   29.3340   47.4700 S   0  0  0  0  0  0  0  0  0  0  0  0
   45.8350   33.2220   46.2170 C   0  0  0  0  0  3  0  0  0  0  0  0
   46.2450   32.0790   45.8550 C   0  0  0  0  0  3  0  0  0  0  0  0
   44.4990   36.1240   44.3780 C   0  0  0  0  0  0  0  0  0  0  0  0
   45.1560   36.0500   43.1560 C   0  0  0  0  0  0  0  0  0  0  0  0
   46.0250   35.0170   43.0010 C   0  0  0  0  0  0  0  0  0  0  0  0
   46.2160   34.1220   44.0110 N   0  0  0  0  0  0  0  0  0  0  0  0
   45.5620   34.2240   45.1840 C   0  0  0  0  0  0  0  0  0  0  0  0
   44.7150   35.2290   45.3370 N   0  0  0  0  0  0  0  0  0  0  0  0
   43.7920   36.9100   44.5910 H   0  0  0  0  0  0  0  0  0  0  0  0
   44.9860   36.7720   42.3750 H   0  0  0  0  0  0  0  0  0  0  0  0
   46.7850   34.8100   41.7710 C   0  0  0  0  0  0  0  0  0  0  0  0
   48.0230   35.3650   41.5250 C   0  0  0  0  0  0  0  0  0  0  0  0
   48.7260   35.1540   40.3540 C   0  0  0  0  0  0  0  0  0  0  0  0
   48.2000   34.3620   39.3660 C   0  0  0  0  0  0  0  0  0  0  0  0
   46.9710   33.7890   39.5660 C   0  0  0  0  0  0  0  0  0  0  0  0
   46.2950   34.0220   40.7520 C   0  0  0  0  0  0  0  0  0  0  0  0
   48.4510   35.9970   42.3010 H   0  0  0  0  0  0  0  0  0  0  0  0
   49.6780   35.6300   40.2610 H   0  0  0  0  0  0  0  0  0  0  0  0
   48.7200   34.1760   38.4400 H   0  0  0  0  0  0  0  0  0  0  0  0
   46.5100   33.1560   38.8200 H   0  0  0  0  0  0  0  0  0  0  0  0
   45.3240   33.5520   40.8760 H   0  0  0  0  0  0  0  0  0  0  0  0
  1  4  1  0  0  0  0
  2  1  1  0  0  0  0
  3  1  1  0  0  0  0
  4  7  1  1  0  0  0
  4  5  1  0  0  0  0
  4  6  1  0  0  0  0
  5  6  1  0  0  0  0
  5  8  1  0  0  0  0
  6 10  1  1  0  0  0
  9  5  1  0  0  0  0
 11 14  1  6  0  0  0
 11  6  1  0  0  0  0
 11 12  1  0  0  0  0
 12 16  1  0  0  0  0
 12 15  1  0  0  0  0
 13 17  1  6  0  0  0
 13 11  1  0  0  0  0
 13 12  1  0  0  0  0
 18 13  1  0  0  0  0
 19 18  2  0  0  0  0
 20 19  1  0  0  0  0
 21 22  2  0  0  0  0
 21 19  1  0  0  0  0
 22 23  1  0  0  0  0
 23 18  1  0  0  0  0
 25 24  2  0  0  0  0
 25  1  1  0  0  0  0
 26 32  1  0  0  0  0
 26 31  1  0  0  0  0
 27 26  2  0  0  0  0
 28 27  1  0  0  0  0
 28 29  2  0  0  0  0
 29 30  1  0  0  0  0
 30 31  2  0  0  0  0
 30 24  1  0  0  0  0
 33 27  1  0  0  0  0
 34 28  1  0  0  0  0
 35 34  1  0  0  0  0
 35 40  1  0  0  0  0
 36 35  2  0  0  0  0
 37 38  2  0  0  0  0
 37 36  1  0  0  0  0
 38 39  1  0  0  0  0
 39 44  1  0  0  0  0
 39 34  2  0  0  0  0
 41 36  1  0  0  0  0
 42 37  1  0  0  0  0
 43 38  1  0  0  0  0
M  END
>  <minimizedAffinity>
-6.05615902

>  <minimizedRMSD>
1.22941101

$$$$
