
 OpenBabel03242523533D

 42 45  0  0  1  0  0  0  0  0999 V2000
   42.8150   34.5030   38.7590 C   0  0  1  0  0  0  0  0  0  0  0  0
   42.9620   35.1820   40.1110 C   0  0  1  0  0  0  0  0  0  0  0  0
   41.6770   35.4250   40.6280 O   0  0  0  0  0  0  0  0  0  0  0  0
   40.7530   35.7590   39.6350 C   0  0  0  0  0  0  0  0  0  0  0  0
   40.4340   34.5750   38.7410 C   0  0  2  0  0  0  0  0  0  0  0  0
   41.6440   33.5850   38.8800 C   0  0  1  0  0  0  0  0  0  0  0  0
   43.7570   33.9620   38.4860 H   0  0  0  0  0  0  0  0  0  0  0  0
   43.5640   36.1020   40.0720 H   0  0  0  0  0  0  0  0  0  0  0  0
   39.8300   36.0330   40.1570 H   0  0  0  0  0  0  0  0  0  0  0  0
   41.0700   36.6460   39.0530 H   0  0  0  0  0  0  0  0  0  0  0  0
   39.5010   34.0710   39.0360 H   0  0  0  0  0  0  0  0  0  0  0  0
   41.4300   33.3190   39.9690 H   0  0  0  0  0  0  0  0  0  0  0  0
   42.6040   35.4460   37.7430 O   0  0  0  0  0  0  0  0  0  0  0  0
   43.4180   35.9250   37.5250 H   0  0  0  0  0  0  0  0  0  0  0  0
   40.4500   34.9780   37.4140 O   0  0  0  0  0  0  0  0  0  0  0  0
   39.5300   35.1910   37.0820 H   0  0  0  0  0  0  0  0  0  0  0  0
   43.4930   34.2010   40.9640 O   0  0  0  0  0  0  0  0  0  0  0  0
   44.6020   34.3400   41.7000 C   0  0  0  0  0  0  0  0  0  0  0  0
   45.8630   34.4420   41.0930 C   0  0  0  0  0  0  0  0  0  0  0  0
   46.9780   34.5860   41.9030 C   0  0  0  0  0  0  0  0  0  0  0  0
   46.8160   34.6250   43.2770 N   0  0  0  0  0  0  0  0  0  0  0  0
   45.5830   34.5240   43.8250 C   0  0  0  0  0  0  0  0  0  0  0  0
   44.4830   34.3810   43.0400 N   0  0  0  0  0  0  0  0  0  0  0  0
   45.9970   34.4130   40.0260 H   0  0  0  0  0  0  0  0  0  0  0  0
   45.5330   34.5610   44.9060 H   0  0  0  0  0  0  0  0  0  0  0  0
   48.3550   34.6860   41.3320 C   0  0  0  0  0  0  0  0  0  0  0  0
   49.0750   36.0230   41.5080 C   0  0  0  0  0  0  0  0  0  0  0  0
   49.5070   34.7050   42.1770 C   0  0  0  0  0  0  0  0  0  0  0  0
   48.4200   34.2930   40.2780 H   0  0  0  0  0  0  0  0  0  0  0  0
   48.6270   36.7550   42.1810 H   0  0  0  0  0  0  0  0  0  0  0  0
   49.7580   36.3470   40.7010 H   0  0  0  0  0  0  0  0  0  0  0  0
   50.4630   34.2440   41.8530 H   0  0  0  0  0  0  0  0  0  0  0  0
   49.3610   34.6430   43.2830 H   0  0  0  0  0  0  0  0  0  0  0  0
   41.4980   32.6340   37.9380 O   0  0  0  0  0  0  0  0  0  0  0  0
   40.8480   31.4730   37.9700 C   0  0  0  0  0  0  0  0  0  0  0  0
   39.6500   31.3000   37.4370 O   0  0  0  0  0  0  0  0  0  0  0  0
   41.2020   30.0440   38.5630 C   0  0  0  0  0  0  0  0  0  0  0  0
   40.5770   29.2440   39.3500 C   0  0  0  0  0  0  0  0  0  0  0  0
   39.6060   29.5970   39.6790 H   0  0  0  0  0  0  0  0  0  0  0  0
   41.1420   28.0590   39.7060 C   0  0  0  0  0  3  0  0  0  0  0  0
   42.4060   27.7930   39.1690 C   0  0  0  0  0  3  0  0  0  0  0  0
   42.7120   29.3750   38.1190 S   0  0  0  0  0  0  0  0  0  0  0  0
  1  7  1  6  0  0  0
  1  6  1  0  0  0  0
  1  2  1  0  0  0  0
  2  8  1  6  0  0  0
  2  3  1  0  0  0  0
  2 17  1  0  0  0  0
  4  9  1  0  0  0  0
  4  3  1  0  0  0  0
  5  6  1  0  0  0  0
  5 11  1  1  0  0  0
  5  4  1  0  0  0  0
  6 12  1  1  0  0  0
 10  4  1  0  0  0  0
 13  1  1  0  0  0  0
 14 13  1  0  0  0  0
 15  5  1  0  0  0  0
 16 15  1  0  0  0  0
 17 18  1  0  0  0  0
 18 23  1  0  0  0  0
 19 18  2  0  0  0  0
 19 20  1  0  0  0  0
 20 21  2  0  0  0  0
 21 22  1  0  0  0  0
 22 25  1  0  0  0  0
 23 22  2  0  0  0  0
 24 19  1  0  0  0  0
 26 27  1  0  0  0  0
 26 20  1  0  0  0  0
 26 28  1  0  0  0  0
 27 28  1  0  0  0  0
 27 30  1  0  0  0  0
 28 33  1  0  0  0  0
 29 26  1  0  0  0  0
 31 27  1  0  0  0  0
 32 28  1  0  0  0  0
 34 35  1  0  0  0  0
 34  6  1  0  0  0  0
 35 37  1  0  0  0  0
 36 35  2  0  0  0  0
 37 38  2  0  0  0  0
 38 39  1  0  0  0  0
 38 40  1  0  0  0  0
 41 40  2  0  0  0  0
 42 37  1  0  0  0  0
 42 41  1  0  0  0  0
M  END
>  <minimizedAffinity>
-5.6140132

>  <minimizedRMSD>
0.190655142

$$$$
