
 OpenBabel03252504453D

 18 19  0  0  0  0  0  0  0  0999 V2000
   45.4180   34.5800   45.0040 C   0  0  0  0  0  0  0  0  0  0  0  0
   44.7480   35.4790   44.1760 C   0  0  0  0  0  0  0  0  0  0  0  0
   45.2940   35.7570   42.9190 C   0  0  0  0  0  0  0  0  0  0  0  0
   46.4430   35.1350   42.5810 N   0  0  0  0  0  0  0  0  0  0  0  0
   47.0740   34.2650   43.4050 C   0  0  0  0  0  0  0  0  0  0  0  0
   46.5470   33.9890   44.6330 N   0  0  0  0  0  0  0  0  0  0  0  0
   43.8340   35.9590   44.4730 H   0  0  0  0  0  0  0  0  0  0  0  0
   44.8040   36.4500   42.2450 H   0  0  0  0  0  0  0  0  0  0  0  0
   48.2870   33.6600   42.9510 C   0  0  0  0  0  0  0  0  0  0  0  0
   48.6120   32.3400   42.7550 C   0  0  0  0  0  0  0  0  0  0  0  0
   47.8530   31.5970   42.9680 H   0  0  0  0  0  0  0  0  0  0  0  0
   49.8770   32.0480   42.3020 C   0  0  0  0  0  0  0  0  0  0  0  0
   50.7390   33.0630   42.0700 C   0  0  0  0  0  0  0  0  0  0  0  0
   49.7600   34.5530   42.5010 S   0  0  0  0  0  0  0  0  0  0  0  0
   44.8270   34.2900   46.3430 C   0  0  0  0  0  0  0  0  0  0  0  0
   44.6070   33.1990   46.4030 H   0  0  0  0  0  0  0  0  0  0  0  0
   43.8470   34.7950   46.4620 H   0  0  0  0  0  0  0  0  0  0  0  0
   45.4940   34.6250   47.1660 H   0  0  0  0  0  0  0  0  0  0  0  0
  1 15  1  0  0  0  0
  2  7  1  0  0  0  0
  2  1  2  0  0  0  0
  3  2  1  0  0  0  0
  4  3  2  0  0  0  0
  4  5  1  0  0  0  0
  5  6  2  0  0  0  0
  6  1  1  0  0  0  0
  8  3  1  0  0  0  0
  9  5  1  0  0  0  0
 10  9  2  0  0  0  0
 10 11  1  0  0  0  0
 12 10  1  0  0  0  0
 13 12  2  0  0  0  0
 13 14  1  0  0  0  0
 14  9  1  0  0  0  0
 15 16  1  0  0  0  0
 15 17  1  0  0  0  0
 15 18  1  0  0  0  0
M  END
>  <minimizedAffinity>
-3.6771152

>  <minimizedRMSD>
5.63538265

$$$$
