
 OpenBabel03242519283D

 40 43  0  0  0  0  0  0  0  0999 V2000
   47.9120   33.7030   42.8610 C   0  0  0  0  0  0  0  0  0  0  0  0
   48.6380   34.9050   42.6890 C   0  0  0  0  0  0  0  0  0  0  0  0
   50.0030   34.8450   42.3870 C   0  0  0  0  0  0  0  0  0  0  0  0
   50.5490   33.5870   42.2770 N   0  0  0  0  0  0  0  0  0  0  0  0
   49.7970   32.4420   42.4530 C   0  0  0  0  0  0  0  0  0  0  0  0
   48.5160   32.5270   42.7360 N   0  0  0  0  0  0  0  0  0  0  0  0
   48.3030   35.9170   42.7550 H   0  0  0  0  0  0  0  0  0  0  0  0
   50.6320   35.7020   42.2410 H   0  0  0  0  0  0  0  0  0  0  0  0
   46.4860   33.8910   43.1820 C   0  0  0  0  0  0  0  0  0  0  0  0
   45.8090   34.9180   42.4130 C   0  0  0  0  0  0  0  0  0  0  0  0
   45.3990   36.1070   43.1840 C   0  0  0  0  0  0  0  0  0  0  0  0
   44.5220   35.7050   44.3770 C   0  0  0  0  0  0  0  0  0  0  0  0
   44.9970   34.4970   45.0970 C   0  0  0  0  0  0  0  0  0  0  0  0
   46.4270   34.1480   44.7120 C   0  0  0  0  0  0  0  0  0  0  0  0
   45.9960   32.8770   43.0900 H   0  0  0  0  0  0  0  0  0  0  0  0
   44.8900   34.4930   41.9510 H   0  0  0  0  0  0  0  0  0  0  0  0
   46.4010   35.2840   41.5280 H   0  0  0  0  0  0  0  0  0  0  0  0
   44.7980   36.8040   42.5760 H   0  0  0  0  0  0  0  0  0  0  0  0
   46.2200   36.6910   43.6410 H   0  0  0  0  0  0  0  0  0  0  0  0
   43.5210   35.4820   43.9510 H   0  0  0  0  0  0  0  0  0  0  0  0
   44.3700   36.5880   45.0410 H   0  0  0  0  0  0  0  0  0  0  0  0
   45.0320   34.7240   46.1850 H   0  0  0  0  0  0  0  0  0  0  0  0
   44.3610   33.6080   44.9910 H   0  0  0  0  0  0  0  0  0  0  0  0
   46.6820   33.2260   45.2630 H   0  0  0  0  0  0  0  0  0  0  0  0
   47.1290   34.9460   44.9770 H   0  0  0  0  0  0  0  0  0  0  0  0
   50.5580   31.2160   42.2980 C   0  0  0  0  0  0  0  0  0  0  0  0
   50.5390   30.5880   41.1040 N   0  0  0  0  0  0  0  0  0  0  0  0
   51.3100   29.4790   41.1790 C   0  0  0  0  0  0  0  0  0  0  0  0
   51.8120   29.4310   42.4470 N   0  0  0  0  0  0  0  0  0  0  0  0
   51.3550   30.4890   43.1300 N   0  0  0  0  0  0  0  0  0  0  0  0
   51.5080   28.7490   40.3910 H   0  0  0  0  0  0  0  0  0  0  0  0
   52.7000   28.4120   42.9980 C   0  0  0  0  0  0  0  0  0  0  0  0
   52.2700   27.9650   43.9240 H   0  0  0  0  0  0  0  0  0  0  0  0
   52.8700   27.6140   42.2230 H   0  0  0  0  0  0  0  0  0  0  0  0
   53.9900   29.0100   43.2710 C   0  0  0  0  0  0  0  0  0  0  0  0
   54.6220   29.3730   44.4190 C   0  0  0  0  0  0  0  0  0  0  0  0
   54.0810   29.1930   45.3380 H   0  0  0  0  0  0  0  0  0  0  0  0
   55.8730   29.9320   44.3820 C   0  0  0  0  0  0  0  0  0  0  0  0
   56.4430   30.1000   43.1070 C   0  0  0  0  0  0  0  0  0  0  0  0
   55.0960   29.4160   41.9790 S   0  0  0  0  0  0  0  0  0  0  0  0
  1  9  1  0  0  0  0
  2  7  1  0  0  0  0
  2  1  2  0  0  0  0
  3  2  1  0  0  0  0
  4  3  2  0  0  0  0
  4  5  1  0  0  0  0
  5  6  2  0  0  0  0
  6  1  1  0  0  0  0
  8  3  1  0  0  0  0
  9 14  1  0  0  0  0
 10  9  1  0  0  0  0
 10 11  1  0  0  0  0
 11 19  1  0  0  0  0
 11 12  1  0  0  0  0
 12 21  1  0  0  0  0
 12 13  1  0  0  0  0
 13 22  1  0  0  0  0
 14 25  1  0  0  0  0
 14 13  1  0  0  0  0
 14 24  1  0  0  0  0
 15  9  1  0  0  0  0
 16 10  1  0  0  0  0
 17 10  1  0  0  0  0
 18 11  1  0  0  0  0
 20 12  1  0  0  0  0
 23 13  1  0  0  0  0
 26  5  1  0  0  0  0
 26 30  2  0  0  0  0
 27 28  2  0  0  0  0
 27 26  1  0  0  0  0
 28 29  1  0  0  0  0
 29 32  1  0  0  0  0
 29 30  1  0  0  0  0
 31 28  1  0  0  0  0
 32 35  1  0  0  0  0
 32 33  1  0  0  0  0
 34 32  1  0  0  0  0
 35 36  2  0  0  0  0
 36 37  1  0  0  0  0
 38 36  1  0  0  0  0
 39 38  2  0  0  0  0
 40 39  1  0  0  0  0
 40 35  1  0  0  0  0
M  END
>  <minimizedAffinity>
-4.42386818

>  <minimizedRMSD>
1.54538882

$$$$
