
 OpenBabel03242523423D

 21 22  0  0  1  0  0  0  0  0999 V2000
   45.8280   33.5780   43.3420 C   0  0  1  0  0  0  0  0  0  0  0  0
   45.3500   33.0260   42.5080 H   0  0  0  0  0  0  0  0  0  0  0  0
   48.2540   33.4000   43.1950 C   0  0  0  0  0  0  0  0  0  0  0  0
   47.0930   34.1010   42.8800 C   0  0  0  0  0  0  0  0  0  0  0  0
   47.2430   35.2760   42.1310 C   0  0  0  0  0  0  0  0  0  0  0  0
   48.5070   35.6410   41.7690 N   0  0  0  0  0  0  0  0  0  0  0  0
   49.6040   34.9500   42.0840 C   0  0  0  0  0  0  0  0  0  0  0  0
   49.4800   33.8120   42.8080 N   0  0  0  0  0  0  0  0  0  0  0  0
   48.1800   32.4900   43.7720 H   0  0  0  0  0  0  0  0  0  0  0  0
   46.3770   35.8410   41.8690 H   0  0  0  0  0  0  0  0  0  0  0  0
   50.4890   35.4300   41.6910 H   0  0  0  0  0  0  0  0  0  0  0  0
   45.9260   32.7660   44.5060 C   0  0  0  0  0  0  0  0  0  0  0  0
   45.7940   31.3020   44.4200 C   0  0  0  0  0  0  0  0  0  0  0  0
   45.6340   30.6140   43.6110 H   0  0  0  0  0  0  0  0  0  0  0  0
   45.8810   30.5540   45.5350 C   0  0  0  0  0  0  0  0  0  0  0  0
   46.1190   31.3080   46.8590 C   0  0  0  0  0  0  0  0  0  0  0  0
   46.1810   33.1110   46.2090 S   0  0  0  0  0  0  0  0  0  0  0  0
   44.8880   34.7840   43.5490 C   0  0  0  0  0  0  0  0  0  0  0  0
   45.2720   35.4310   44.3330 H   0  0  0  0  0  0  0  0  0  0  0  0
   44.7670   35.2800   42.5900 H   0  0  0  0  0  0  0  0  0  0  0  0
   43.9100   34.3720   43.8930 H   0  0  0  0  0  0  0  0  0  0  0  0
  1  2  1  6  0  0  0
  1 18  1  0  0  0  0
  1 12  1  0  0  0  0
  3  9  1  0  0  0  0
  4  3  1  0  0  0  0
  4  1  1  0  0  0  0
  5  4  2  0  0  0  0
  6  7  2  0  0  0  0
  6  5  1  0  0  0  0
  7  8  1  0  0  0  0
  8  3  2  0  0  0  0
 10  5  1  0  0  0  0
 11  7  1  0  0  0  0
 12 17  1  0  0  0  0
 13 12  2  0  0  0  0
 13 15  1  0  0  0  0
 14 13  1  0  0  0  0
 15 16  2  0  0  0  0
 17 16  1  0  0  0  0
 18 21  1  0  0  0  0
 18 19  1  0  0  0  0
 20 18  1  0  0  0  0
M  END
>  <minimizedAffinity>
-3.35286999

>  <minimizedRMSD>
5.45275164

$$$$
