
 OpenBabel03252507053D

 44 47  0  0  0  0  0  0  0  0999 V2000
   36.8390   27.3920   42.6400 C   0  0  0  0  0  0  0  0  0  0  0  0
   35.9240   27.0750   43.1850 H   0  0  0  0  0  0  0  0  0  0  0  0
   36.4970   28.3280   42.0780 H   0  0  0  0  0  0  0  0  0  0  0  0
   37.3330   26.4440   41.8340 N   0  0  0  0  0  0  0  0  0  0  0  0
   38.1480   25.3310   42.2140 C   0  0  0  0  0  0  0  0  0  0  0  0
   37.0950   24.2250   42.1090 C   0  0  0  0  0  0  0  0  0  0  0  0
   36.5290   24.0810   40.7790 C   0  0  0  0  0  0  0  0  0  0  0  0
   36.5350   25.2190   39.8860 C   0  0  0  0  0  0  0  0  0  0  0  0
   36.9530   26.5690   40.4120 C   0  0  0  0  0  0  0  0  0  0  0  0
   38.4150   25.4400   43.2910 H   0  0  0  0  0  0  0  0  0  0  0  0
   39.0230   25.1020   41.6320 H   0  0  0  0  0  0  0  0  0  0  0  0
   36.2910   24.5310   42.8260 H   0  0  0  0  0  0  0  0  0  0  0  0
   37.5360   23.2980   42.5240 H   0  0  0  0  0  0  0  0  0  0  0  0
   37.0550   23.2390   40.2460 H   0  0  0  0  0  0  0  0  0  0  0  0
   35.4680   23.7070   40.8610 H   0  0  0  0  0  0  0  0  0  0  0  0
   36.2490   25.2060   38.8790 H   0  0  0  0  0  0  0  0  0  0  0  0
   36.9430   28.0160   39.4780 S   0  0  0  0  0  0  0  0  0  0  0  0
   35.5500   28.4320   38.6550 C   0  0  0  0  0  0  0  0  0  0  0  0
   34.2370   28.8080   38.5270 C   0  0  0  0  0  0  0  0  0  0  0  0
   33.8310   28.9030   39.5030 H   0  0  0  0  0  0  0  0  0  0  0  0
   33.6180   29.0120   37.3410 C   0  0  0  0  0  3  0  0  0  0  0  0
   34.4400   28.8070   36.1320 C   0  0  0  0  0  3  0  0  0  0  0  0
   36.0920   28.3190   36.9230 S   0  0  0  0  0  0  0  0  0  0  0  0
   37.8200   27.9030   43.6310 C   0  0  0  0  0  0  0  0  0  0  0  0
   38.3240   27.1070   44.2150 H   0  0  0  0  0  0  0  0  0  0  0  0
   37.2630   28.5070   44.3770 H   0  0  0  0  0  0  0  0  0  0  0  0
   38.7620   28.7940   42.9310 C   0  0  0  0  0  0  0  0  0  0  0  0
   40.1130   28.5200   42.9290 C   0  0  0  0  0  0  0  0  0  0  0  0
   40.9570   29.3960   42.2650 C   0  0  0  0  0  0  0  0  0  0  0  0
   40.4070   30.4870   41.6440 N   0  0  0  0  0  0  0  0  0  0  0  0
   39.0980   30.7130   41.6690 C   0  0  0  0  0  0  0  0  0  0  0  0
   38.3020   29.8580   42.3150 N   0  0  0  0  0  0  0  0  0  0  0  0
   40.7230   27.7310   43.3300 H   0  0  0  0  0  0  0  0  0  0  0  0
   42.0360   29.3490   42.1570 H   0  0  0  0  0  0  0  0  0  0  0  0
   38.5940   31.8880   40.9570 C   0  0  0  0  0  0  0  0  0  0  0  0
   37.4910   31.7780   40.1220 C   0  0  0  0  0  0  0  0  0  0  0  0
   37.0340   32.8990   39.4440 C   0  0  0  0  0  0  0  0  0  0  0  0
   37.7550   34.0530   39.6820 C   0  0  0  0  0  0  0  0  0  0  0  0
   38.8550   34.1930   40.5060 C   0  0  0  0  0  0  0  0  0  0  0  0
   39.2370   33.0530   41.1300 N   0  0  0  0  0  0  0  0  0  0  0  0
   36.9670   30.8420   39.9790 H   0  0  0  0  0  0  0  0  0  0  0  0
   36.1850   32.9090   38.7760 H   0  0  0  0  0  0  0  0  0  0  0  0
   37.4270   34.9550   39.1670 H   0  0  0  0  0  0  0  0  0  0  0  0
   39.3500   35.1260   40.6290 H   0  0  0  0  0  0  0  0  0  0  0  0
  1  2  1  0  0  0  0
  1 24  1  0  0  0  0
  3  1  1  0  0  0  0
  4  5  1  0  0  0  0
  4  1  1  0  0  0  0
  5 10  1  0  0  0  0
  6  5  1  0  0  0  0
  6 13  1  0  0  0  0
  6 12  1  0  0  0  0
  7 15  1  0  0  0  0
  7  6  1  0  0  0  0
  8  9  2  0  0  0  0
  8  7  1  0  0  0  0
  9  4  1  0  0  0  0
 11  5  1  0  0  0  0
 14  7  1  0  0  0  0
 16  8  1  0  0  0  0
 17  9  1  0  0  0  0
 18 17  1  0  0  0  0
 19 18  2  0  0  0  0
 19 20  1  0  0  0  0
 21 19  1  0  0  0  0
 22 23  1  0  0  0  0
 22 21  2  0  0  0  0
 23 18  1  0  0  0  0
 24 25  1  0  0  0  0
 24 26  1  0  0  0  0
 27 24  1  0  0  0  0
 28 27  1  0  0  0  0
 28 33  1  0  0  0  0
 29 28  2  0  0  0  0
 30 31  2  0  0  0  0
 30 29  1  0  0  0  0
 31 32  1  0  0  0  0
 32 27  2  0  0  0  0
 34 29  1  0  0  0  0
 35 40  1  0  0  0  0
 35 31  1  0  0  0  0
 36 35  2  0  0  0  0
 37 38  2  0  0  0  0
 37 36  1  0  0  0  0
 38 39  1  0  0  0  0
 39 44  1  0  0  0  0
 39 40  2  0  0  0  0
 41 36  1  0  0  0  0
 42 37  1  0  0  0  0
 43 38  1  0  0  0  0
M  END
>  <minimizedAffinity>
-5.94757128

$$$$

 OpenBabel03252507053D

 44 47  0  0  0  0  0  0  0  0999 V2000
   39.3990   29.9310   43.0110 C   0  0  0  0  0  0  0  0  0  0  0  0
   39.3480   30.2090   44.0860 H   0  0  0  0  0  0  0  0  0  0  0  0
   38.3060   29.9670   42.6790 H   0  0  0  0  0  0  0  0  0  0  0  0
   39.9760   28.7410   42.7980 N   0  0  0  0  0  0  0  0  0  0  0  0
   41.3010   28.5010   42.3160 C   0  0  0  0  0  0  0  0  0  0  0  0
   41.9500   28.0640   43.6310 C   0  0  0  0  0  0  0  0  0  0  0  0
   41.3420   26.8830   44.2190 C   0  0  0  0  0  0  0  0  0  0  0  0
   39.9650   26.5730   43.9050 C   0  0  0  0  0  0  0  0  0  0  0  0
   39.1400   27.5700   43.1330 C   0  0  0  0  0  0  0  0  0  0  0  0
   41.7540   29.4780   42.0260 H   0  0  0  0  0  0  0  0  0  0  0  0
   41.4510   27.7730   41.5390 H   0  0  0  0  0  0  0  0  0  0  0  0
   41.8130   28.9370   44.3190 H   0  0  0  0  0  0  0  0  0  0  0  0
   43.0410   27.9820   43.4590 H   0  0  0  0  0  0  0  0  0  0  0  0
   41.9560   25.9790   43.9450 H   0  0  0  0  0  0  0  0  0  0  0  0
   41.4430   26.9290   45.3420 H   0  0  0  0  0  0  0  0  0  0  0  0
   39.4570   25.7010   44.1870 H   0  0  0  0  0  0  0  0  0  0  0  0
   37.4740   27.3570   42.7500 S   0  0  0  0  0  0  0  0  0  0  0  0
   37.0690   26.5170   41.3640 C   0  0  0  0  0  0  0  0  0  0  0  0
   36.7370   26.3710   40.0400 C   0  0  0  0  0  0  0  0  0  0  0  0
   36.7180   27.3370   39.6030 H   0  0  0  0  0  0  0  0  0  0  0  0
   36.4900   25.1790   39.4460 C   0  0  0  0  0  3  0  0  0  0  0  0
   36.5940   23.9860   40.3090 C   0  0  0  0  0  3  0  0  0  0  0  0
   37.0620   24.7980   41.9580 S   0  0  0  0  0  0  0  0  0  0  0  0
   40.0410   31.0460   42.2700 C   0  0  0  0  0  0  0  0  0  0  0  0
   41.0090   30.7760   41.8020 H   0  0  0  0  0  0  0  0  0  0  0  0
   40.2810   31.8440   43.0020 H   0  0  0  0  0  0  0  0  0  0  0  0
   39.0620   31.5850   41.3080 C   0  0  0  0  0  0  0  0  0  0  0  0
   39.0880   32.9180   40.9570 C   0  0  0  0  0  0  0  0  0  0  0  0
   38.1380   33.3750   40.0580 C   0  0  0  0  0  0  0  0  0  0  0  0
   37.2260   32.4810   39.5620 N   0  0  0  0  0  0  0  0  0  0  0  0
   37.2370   31.2030   39.9260 C   0  0  0  0  0  0  0  0  0  0  0  0
   38.1580   30.7830   40.7950 N   0  0  0  0  0  0  0  0  0  0  0  0
   39.7150   33.7530   41.2130 H   0  0  0  0  0  0  0  0  0  0  0  0
   38.0000   34.3790   39.6670 H   0  0  0  0  0  0  0  0  0  0  0  0
   36.2420   30.3130   39.3270 C   0  0  0  0  0  0  0  0  0  0  0  0
   36.3130   29.9930   37.9790 C   0  0  0  0  0  0  0  0  0  0  0  0
   35.3540   29.1580   37.4230 C   0  0  0  0  0  0  0  0  0  0  0  0
   34.3910   28.7150   38.3090 C   0  0  0  0  0  0  0  0  0  0  0  0
   34.2940   29.0160   39.6540 C   0  0  0  0  0  0  0  0  0  0  0  0
   35.2680   29.8370   40.1170 N   0  0  0  0  0  0  0  0  0  0  0  0
   37.0970   30.3730   37.3360 H   0  0  0  0  0  0  0  0  0  0  0  0
   35.3300   28.8540   36.3870 H   0  0  0  0  0  0  0  0  0  0  0  0
   33.6190   28.0570   37.9100 H   0  0  0  0  0  0  0  0  0  0  0  0
   33.5120   28.6270   40.2620 H   0  0  0  0  0  0  0  0  0  0  0  0
  1  2  1  0  0  0  0
  3  1  1  0  0  0  0
  4  1  1  0  0  0  0
  4  9  1  0  0  0  0
  5  4  1  0  0  0  0
  5  6  1  0  0  0  0
  6  7  1  0  0  0  0
  6 12  1  0  0  0  0
  7 15  1  0  0  0  0
  8 16  1  0  0  0  0
  8  7  1  0  0  0  0
  9  8  2  0  0  0  0
 10  5  1  0  0  0  0
 11  5  1  0  0  0  0
 13  6  1  0  0  0  0
 14  7  1  0  0  0  0
 17  9  1  0  0  0  0
 18 23  1  0  0  0  0
 18 17  1  0  0  0  0
 19 18  2  0  0  0  0
 20 19  1  0  0  0  0
 21 19  1  0  0  0  0
 21 22  2  0  0  0  0
 22 23  1  0  0  0  0
 24 26  1  0  0  0  0
 24  1  1  0  0  0  0
 25 24  1  0  0  0  0
 27 24  1  0  0  0  0
 28 33  1  0  0  0  0
 28 27  1  0  0  0  0
 29 28  2  0  0  0  0
 30 31  2  0  0  0  0
 30 29  1  0  0  0  0
 31 32  1  0  0  0  0
 32 27  2  0  0  0  0
 34 29  1  0  0  0  0
 35 31  1  0  0  0  0
 35 40  1  0  0  0  0
 36 35  2  0  0  0  0
 37 36  1  0  0  0  0
 37 38  2  0  0  0  0
 38 39  1  0  0  0  0
 39 40  2  0  0  0  0
 39 44  1  0  0  0  0
 41 36  1  0  0  0  0
 42 37  1  0  0  0  0
 43 38  1  0  0  0  0
M  END
>  <minimizedAffinity>
-5.79262352

$$$$

 OpenBabel03252507053D

 44 47  0  0  0  0  0  0  0  0999 V2000
   39.4600   27.6520   40.8190 C   0  0  0  0  0  0  0  0  0  0  0  0
   40.2020   26.9440   40.3940 H   0  0  0  0  0  0  0  0  0  0  0  0
   40.0250   28.6460   40.8340 H   0  0  0  0  0  0  0  0  0  0  0  0
   39.0070   27.2850   42.0250 N   0  0  0  0  0  0  0  0  0  0  0  0
   39.2470   27.9440   43.2720 C   0  0  0  0  0  0  0  0  0  0  0  0
   37.8730   28.5910   43.4610 C   0  0  0  0  0  0  0  0  0  0  0  0
   36.7820   27.6350   43.5300 C   0  0  0  0  0  0  0  0  0  0  0  0
   36.9380   26.3440   42.9000 C   0  0  0  0  0  0  0  0  0  0  0  0
   38.1440   26.0860   42.0320 C   0  0  0  0  0  0  0  0  0  0  0  0
   39.9840   28.7630   43.1020 H   0  0  0  0  0  0  0  0  0  0  0  0
   39.5300   27.3570   44.1270 H   0  0  0  0  0  0  0  0  0  0  0  0
   37.7420   29.2450   42.5610 H   0  0  0  0  0  0  0  0  0  0  0  0
   37.9400   29.2770   44.3280 H   0  0  0  0  0  0  0  0  0  0  0  0
   36.5270   27.4480   44.6120 H   0  0  0  0  0  0  0  0  0  0  0  0
   35.8420   28.1110   43.1260 H   0  0  0  0  0  0  0  0  0  0  0  0
   36.2640   25.5450   42.9700 H   0  0  0  0  0  0  0  0  0  0  0  0
   38.4210   24.6200   41.1720 S   0  0  0  0  0  0  0  0  0  0  0  0
   37.1620   23.9480   40.3020 C   0  0  0  0  0  0  0  0  0  0  0  0
   35.9340   23.9270   39.6900 C   0  0  0  0  0  0  0  0  0  0  0  0
   35.4910   24.8820   39.8220 H   0  0  0  0  0  0  0  0  0  0  0  0
   35.4260   22.8520   39.0440 C   0  0  0  0  0  3  0  0  0  0  0  0
   36.2760   21.6450   39.0170 C   0  0  0  0  0  3  0  0  0  0  0  0
   37.7810   22.2670   39.9880 S   0  0  0  0  0  0  0  0  0  0  0  0
   38.3840   27.8610   39.8170 C   0  0  0  0  0  0  0  0  0  0  0  0
   37.6360   27.0440   39.7840 H   0  0  0  0  0  0  0  0  0  0  0  0
   38.8560   27.8680   38.8120 H   0  0  0  0  0  0  0  0  0  0  0  0
   37.7860   29.1880   40.0510 C   0  0  0  0  0  0  0  0  0  0  0  0
   36.4270   29.3170   40.2440 C   0  0  0  0  0  0  0  0  0  0  0  0
   35.9150   30.5880   40.4490 C   0  0  0  0  0  0  0  0  0  0  0  0
   36.7820   31.6490   40.4520 N   0  0  0  0  0  0  0  0  0  0  0  0
   38.0860   31.4790   40.2630 C   0  0  0  0  0  0  0  0  0  0  0  0
   38.5600   30.2470   40.0650 N   0  0  0  0  0  0  0  0  0  0  0  0
   35.6030   28.6280   40.2940 H   0  0  0  0  0  0  0  0  0  0  0  0
   34.8840   30.8860   40.6160 H   0  0  0  0  0  0  0  0  0  0  0  0
   38.9430   32.6650   40.3080 C   0  0  0  0  0  0  0  0  0  0  0  0
   38.3850   33.9330   40.2330 C   0  0  0  0  0  0  0  0  0  0  0  0
   39.2120   35.0460   40.2650 C   0  0  0  0  0  0  0  0  0  0  0  0
   40.5600   34.7620   40.3720 C   0  0  0  0  0  0  0  0  0  0  0  0
   41.1450   33.5120   40.4480 C   0  0  0  0  0  0  0  0  0  0  0  0
   40.2680   32.4800   40.4110 N   0  0  0  0  0  0  0  0  0  0  0  0
   37.3170   34.0890   40.1520 H   0  0  0  0  0  0  0  0  0  0  0  0
   38.8690   36.0690   40.2130 H   0  0  0  0  0  0  0  0  0  0  0  0
   41.2430   35.6100   40.3990 H   0  0  0  0  0  0  0  0  0  0  0  0
   42.1980   33.3880   40.5290 H   0  0  0  0  0  0  0  0  0  0  0  0
  1  3  1  0  0  0  0
  1  4  1  0  0  0  0
  2  1  1  0  0  0  0
  4  9  1  0  0  0  0
  4  5  1  0  0  0  0
  5  6  1  0  0  0  0
  5 11  1  0  0  0  0
  6  7  1  0  0  0  0
  6 13  1  0  0  0  0
  7 14  1  0  0  0  0
  8 16  1  0  0  0  0
  8  7  1  0  0  0  0
  9  8  2  0  0  0  0
 10  5  1  0  0  0  0
 12  6  1  0  0  0  0
 15  7  1  0  0  0  0
 17  9  1  0  0  0  0
 18 17  1  0  0  0  0
 19 20  1  0  0  0  0
 19 18  2  0  0  0  0
 21 19  1  0  0  0  0
 22 21  2  0  0  0  0
 22 23  1  0  0  0  0
 23 18  1  0  0  0  0
 24 27  1  0  0  0  0
 24  1  1  0  0  0  0
 25 24  1  0  0  0  0
 26 24  1  0  0  0  0
 27 32  2  0  0  0  0
 27 28  1  0  0  0  0
 28 33  1  0  0  0  0
 28 29  2  0  0  0  0
 29 30  1  0  0  0  0
 29 34  1  0  0  0  0
 31 35  1  0  0  0  0
 31 30  2  0  0  0  0
 32 31  1  0  0  0  0
 35 40  1  0  0  0  0
 36 37  1  0  0  0  0
 36 35  2  0  0  0  0
 37 38  2  0  0  0  0
 38 43  1  0  0  0  0
 38 39  1  0  0  0  0
 39 44  1  0  0  0  0
 40 39  2  0  0  0  0
 41 36  1  0  0  0  0
 42 37  1  0  0  0  0
M  END
>  <minimizedAffinity>
-5.66717529

$$$$

 OpenBabel03252507053D

 44 47  0  0  0  0  0  0  0  0999 V2000
   38.8330   32.2380   40.8570 C   0  0  0  0  0  0  0  0  0  0  0  0
   39.0360   32.5260   41.9100 H   0  0  0  0  0  0  0  0  0  0  0  0
   39.3390   31.2170   40.7620 H   0  0  0  0  0  0  0  0  0  0  0  0
   39.2780   33.1330   39.9660 N   0  0  0  0  0  0  0  0  0  0  0  0
   38.9500   34.5240   39.9060 C   0  0  0  0  0  0  0  0  0  0  0  0
   40.2620   35.0960   40.4480 C   0  0  0  0  0  0  0  0  0  0  0  0
   41.4240   34.7560   39.6450 C   0  0  0  0  0  0  0  0  0  0  0  0
   41.3890   33.5620   38.8300 C   0  0  0  0  0  0  0  0  0  0  0  0
   40.2330   32.6050   38.9710 C   0  0  0  0  0  0  0  0  0  0  0  0
   38.1550   34.7330   40.6590 H   0  0  0  0  0  0  0  0  0  0  0  0
   38.6900   34.9590   38.9570 H   0  0  0  0  0  0  0  0  0  0  0  0
   40.3670   34.6460   41.4680 H   0  0  0  0  0  0  0  0  0  0  0  0
   40.1160   36.1820   40.6090 H   0  0  0  0  0  0  0  0  0  0  0  0
   41.6610   35.6180   38.9600 H   0  0  0  0  0  0  0  0  0  0  0  0
   42.3340   34.6990   40.3090 H   0  0  0  0  0  0  0  0  0  0  0  0
   42.1220   33.2730   38.1390 H   0  0  0  0  0  0  0  0  0  0  0  0
   40.0990   31.1180   38.1120 S   0  0  0  0  0  0  0  0  0  0  0  0
   38.5800   30.5770   37.6710 C   0  0  0  0  0  0  0  0  0  0  0  0
   37.2990   30.6950   37.1940 C   0  0  0  0  0  0  0  0  0  0  0  0
   37.1390   31.7140   36.9450 H   0  0  0  0  0  0  0  0  0  0  0  0
   36.4340   29.6600   37.0800 C   0  0  0  0  0  3  0  0  0  0  0  0
   36.9360   28.3390   37.5050 C   0  0  0  0  0  3  0  0  0  0  0  0
   38.6940   28.8010   38.0440 S   0  0  0  0  0  0  0  0  0  0  0  0
   37.3840   31.9370   40.7270 C   0  0  0  0  0  0  0  0  0  0  0  0
   36.9550   32.2130   39.7420 H   0  0  0  0  0  0  0  0  0  0  0  0
   36.8420   32.5600   41.4680 H   0  0  0  0  0  0  0  0  0  0  0  0
   37.1730   30.5210   41.0750 C   0  0  0  0  0  0  0  0  0  0  0  0
   35.9780   29.9000   40.7830 C   0  0  0  0  0  0  0  0  0  0  0  0
   35.8280   28.5700   41.1420 C   0  0  0  0  0  0  0  0  0  0  0  0
   36.8730   27.9400   41.7640 N   0  0  0  0  0  0  0  0  0  0  0  0
   38.0100   28.5760   42.0250 C   0  0  0  0  0  0  0  0  0  0  0  0
   38.1350   29.8570   41.6740 N   0  0  0  0  0  0  0  0  0  0  0  0
   35.0680   30.2050   40.2990 H   0  0  0  0  0  0  0  0  0  0  0  0
   34.9690   27.9200   40.9990 H   0  0  0  0  0  0  0  0  0  0  0  0
   39.0840   27.8190   42.6690 C   0  0  0  0  0  0  0  0  0  0  0  0
   40.3270   28.4030   42.8700 C   0  0  0  0  0  0  0  0  0  0  0  0
   41.3380   27.6670   43.4700 C   0  0  0  0  0  0  0  0  0  0  0  0
   40.9860   26.3760   43.8180 C   0  0  0  0  0  0  0  0  0  0  0  0
   39.7600   25.7680   43.6310 C   0  0  0  0  0  0  0  0  0  0  0  0
   38.8280   26.5550   43.0390 N   0  0  0  0  0  0  0  0  0  0  0  0
   40.5390   29.4220   42.5750 H   0  0  0  0  0  0  0  0  0  0  0  0
   42.3340   28.0370   43.6680 H   0  0  0  0  0  0  0  0  0  0  0  0
   41.7540   25.7660   44.2920 H   0  0  0  0  0  0  0  0  0  0  0  0
   39.5780   24.7640   43.9320 H   0  0  0  0  0  0  0  0  0  0  0  0
  1  2  1  0  0  0  0
  3  1  1  0  0  0  0
  4  1  1  0  0  0  0
  5  4  1  0  0  0  0
  5  6  1  0  0  0  0
  5 10  1  0  0  0  0
  6 13  1  0  0  0  0
  6 12  1  0  0  0  0
  7 15  1  0  0  0  0
  7  6  1  0  0  0  0
  8  9  2  0  0  0  0
  8  7  1  0  0  0  0
  9  4  1  0  0  0  0
 11  5  1  0  0  0  0
 14  7  1  0  0  0  0
 16  8  1  0  0  0  0
 17  9  1  0  0  0  0
 18 23  1  0  0  0  0
 18 17  1  0  0  0  0
 19 18  2  0  0  0  0
 20 19  1  0  0  0  0
 21 19  1  0  0  0  0
 21 22  2  0  0  0  0
 22 23  1  0  0  0  0
 24  1  1  0  0  0  0
 24 27  1  0  0  0  0
 24 26  1  0  0  0  0
 25 24  1  0  0  0  0
 27 32  1  0  0  0  0
 28 27  2  0  0  0  0
 28 29  1  0  0  0  0
 29 30  2  0  0  0  0
 30 31  1  0  0  0  0
 31 35  1  0  0  0  0
 32 31  2  0  0  0  0
 33 28  1  0  0  0  0
 34 29  1  0  0  0  0
 35 36  2  0  0  0  0
 35 40  1  0  0  0  0
 36 37  1  0  0  0  0
 37 42  1  0  0  0  0
 37 38  2  0  0  0  0
 38 43  1  0  0  0  0
 39 38  1  0  0  0  0
 39 44  1  0  0  0  0
 40 39  2  0  0  0  0
 41 36  1  0  0  0  0
M  END
>  <minimizedAffinity>
-5.61225128

$$$$

 OpenBabel03252507053D

 44 47  0  0  0  0  0  0  0  0999 V2000
   37.7560   27.5520   42.8190 C   0  0  0  0  0  0  0  0  0  0  0  0
   37.1870   27.1300   43.6740 H   0  0  0  0  0  0  0  0  0  0  0  0
   36.9480   27.7270   42.0280 H   0  0  0  0  0  0  0  0  0  0  0  0
   38.7450   26.7550   42.3940 N   0  0  0  0  0  0  0  0  0  0  0  0
   40.0800   26.6950   42.9040 C   0  0  0  0  0  0  0  0  0  0  0  0
   39.9740   25.3790   43.6790 C   0  0  0  0  0  0  0  0  0  0  0  0
   39.6360   24.2370   42.8470 C   0  0  0  0  0  0  0  0  0  0  0  0
   38.9200   24.4570   41.6100 C   0  0  0  0  0  0  0  0  0  0  0  0
   38.3800   25.8300   41.3020 C   0  0  0  0  0  0  0  0  0  0  0  0
   40.2110   27.5140   43.6490 H   0  0  0  0  0  0  0  0  0  0  0  0
   40.9040   26.6820   42.2130 H   0  0  0  0  0  0  0  0  0  0  0  0
   39.1550   25.5550   44.4240 H   0  0  0  0  0  0  0  0  0  0  0  0
   40.9020   25.2590   44.2700 H   0  0  0  0  0  0  0  0  0  0  0  0
   40.5800   23.6790   42.5890 H   0  0  0  0  0  0  0  0  0  0  0  0
   39.0550   23.4870   43.4590 H   0  0  0  0  0  0  0  0  0  0  0  0
   38.7130   23.7270   40.8870 H   0  0  0  0  0  0  0  0  0  0  0  0
   37.4560   26.2140   39.9010 S   0  0  0  0  0  0  0  0  0  0  0  0
   37.8640   27.5700   39.0140 C   0  0  0  0  0  0  0  0  0  0  0  0
   38.6670   28.6070   38.6100 C   0  0  0  0  0  0  0  0  0  0  0  0
   39.5730   28.5470   39.1590 H   0  0  0  0  0  0  0  0  0  0  0  0
   38.3170   29.5160   37.6710 C   0  0  0  0  0  3  0  0  0  0  0  0
   36.9810   29.3500   37.0670 C   0  0  0  0  0  3  0  0  0  0  0  0
   36.3780   27.8100   37.9930 S   0  0  0  0  0  0  0  0  0  0  0  0
   38.2070   28.9190   43.1850 C   0  0  0  0  0  0  0  0  0  0  0  0
   39.2940   28.9930   43.3890 H   0  0  0  0  0  0  0  0  0  0  0  0
   37.7100   29.1940   44.1390 H   0  0  0  0  0  0  0  0  0  0  0  0
   37.7460   29.8530   42.1420 C   0  0  0  0  0  0  0  0  0  0  0  0
   36.4880   29.7240   41.5940 C   0  0  0  0  0  0  0  0  0  0  0  0
   36.1100   30.6210   40.6090 C   0  0  0  0  0  0  0  0  0  0  0  0
   37.0010   31.5910   40.2320 N   0  0  0  0  0  0  0  0  0  0  0  0
   38.2050   31.6810   40.7870 C   0  0  0  0  0  0  0  0  0  0  0  0
   38.5520   30.8050   41.7340 N   0  0  0  0  0  0  0  0  0  0  0  0
   35.6580   29.0610   41.7600 H   0  0  0  0  0  0  0  0  0  0  0  0
   35.1710   30.6770   40.0650 H   0  0  0  0  0  0  0  0  0  0  0  0
   39.0830   32.7630   40.3430 C   0  0  0  0  0  0  0  0  0  0  0  0
   38.7600   34.0830   40.6210 C   0  0  0  0  0  0  0  0  0  0  0  0
   39.5980   35.0990   40.1810 C   0  0  0  0  0  0  0  0  0  0  0  0
   40.7110   34.6690   39.4840 C   0  0  0  0  0  0  0  0  0  0  0  0
   41.0590   33.3640   39.1930 C   0  0  0  0  0  0  0  0  0  0  0  0
   40.1890   32.4340   39.6570 N   0  0  0  0  0  0  0  0  0  0  0  0
   37.8710   34.3550   41.1750 H   0  0  0  0  0  0  0  0  0  0  0  0
   39.4280   36.1520   40.3510 H   0  0  0  0  0  0  0  0  0  0  0  0
   41.3930   35.4370   39.1220 H   0  0  0  0  0  0  0  0  0  0  0  0
   41.9400   33.1250   38.6470 H   0  0  0  0  0  0  0  0  0  0  0  0
  1 24  1  0  0  0  0
  1  2  1  0  0  0  0
  3  1  1  0  0  0  0
  4  1  1  0  0  0  0
  4  5  1  0  0  0  0
  5 10  1  0  0  0  0
  5  6  1  0  0  0  0
  6 13  1  0  0  0  0
  6 12  1  0  0  0  0
  7 15  1  0  0  0  0
  7  6  1  0  0  0  0
  8  7  1  0  0  0  0
  9  8  2  0  0  0  0
  9  4  1  0  0  0  0
 11  5  1  0  0  0  0
 14  7  1  0  0  0  0
 16  8  1  0  0  0  0
 17  9  1  0  0  0  0
 18 17  1  0  0  0  0
 19 18  2  0  0  0  0
 19 20  1  0  0  0  0
 21 19  1  0  0  0  0
 22 21  2  0  0  0  0
 22 23  1  0  0  0  0
 23 18  1  0  0  0  0
 24 25  1  0  0  0  0
 24 26  1  0  0  0  0
 27 24  1  0  0  0  0
 28 33  1  0  0  0  0
 28 27  2  0  0  0  0
 29 28  1  0  0  0  0
 30 29  2  0  0  0  0
 30 31  1  0  0  0  0
 31 32  2  0  0  0  0
 32 27  1  0  0  0  0
 34 29  1  0  0  0  0
 35 36  1  0  0  0  0
 35 31  1  0  0  0  0
 36 41  1  0  0  0  0
 37 42  1  0  0  0  0
 37 36  2  0  0  0  0
 38 37  1  0  0  0  0
 39 38  2  0  0  0  0
 39 40  1  0  0  0  0
 40 35  2  0  0  0  0
 43 38  1  0  0  0  0
 44 39  1  0  0  0  0
M  END
>  <minimizedAffinity>
-5.54861593

$$$$

 OpenBabel03252507053D

 44 47  0  0  0  0  0  0  0  0999 V2000
   38.3740   30.2330   41.7770 C   0  0  0  0  0  0  0  0  0  0  0  0
   37.5010   30.8070   42.1530 H   0  0  0  0  0  0  0  0  0  0  0  0
   38.3600   30.4400   40.6530 H   0  0  0  0  0  0  0  0  0  0  0  0
   38.3200   28.9290   42.0740 N   0  0  0  0  0  0  0  0  0  0  0  0
   38.8080   28.2940   43.2600 C   0  0  0  0  0  0  0  0  0  0  0  0
   37.4690   28.0380   43.9540 C   0  0  0  0  0  0  0  0  0  0  0  0
   36.5690   27.1900   43.1920 C   0  0  0  0  0  0  0  0  0  0  0  0
   36.7080   27.1320   41.7540 C   0  0  0  0  0  0  0  0  0  0  0  0
   37.6520   28.0830   41.0640 C   0  0  0  0  0  0  0  0  0  0  0  0
   39.3610   29.0520   43.8630 H   0  0  0  0  0  0  0  0  0  0  0  0
   39.3880   27.3930   43.1690 H   0  0  0  0  0  0  0  0  0  0  0  0
   37.0140   29.0540   44.0750 H   0  0  0  0  0  0  0  0  0  0  0  0
   37.6840   27.6770   44.9790 H   0  0  0  0  0  0  0  0  0  0  0  0
   36.6470   26.1340   43.5760 H   0  0  0  0  0  0  0  0  0  0  0  0
   35.5010   27.4700   43.4290 H   0  0  0  0  0  0  0  0  0  0  0  0
   36.1860   26.4850   41.1170 H   0  0  0  0  0  0  0  0  0  0  0  0
   37.8650   28.1650   39.3570 S   0  0  0  0  0  0  0  0  0  0  0  0
   37.7780   29.6550   38.6060 C   0  0  0  0  0  0  0  0  0  0  0  0
   37.1560   30.7720   38.1060 C   0  0  0  0  0  0  0  0  0  0  0  0
   36.1150   30.6670   38.2820 H   0  0  0  0  0  0  0  0  0  0  0  0
   37.8030   31.7980   37.5070 C   0  0  0  0  0  3  0  0  0  0  0  0
   39.2700   31.6720   37.4020 C   0  0  0  0  0  3  0  0  0  0  0  0
   39.5280   29.9880   38.2340 S   0  0  0  0  0  0  0  0  0  0  0  0
   39.6120   30.9020   42.2530 C   0  0  0  0  0  0  0  0  0  0  0  0
   40.4850   30.2230   42.3370 H   0  0  0  0  0  0  0  0  0  0  0  0
   39.4240   31.2680   43.2830 H   0  0  0  0  0  0  0  0  0  0  0  0
   39.8670   32.0700   41.3900 C   0  0  0  0  0  0  0  0  0  0  0  0
   38.8330   32.8990   41.0130 C   0  0  0  0  0  0  0  0  0  0  0  0
   39.1260   33.9760   40.1920 C   0  0  0  0  0  0  0  0  0  0  0  0
   40.4260   34.1640   39.8000 N   0  0  0  0  0  0  0  0  0  0  0  0
   41.3930   33.3400   40.1880 C   0  0  0  0  0  0  0  0  0  0  0  0
   41.0910   32.3070   40.9780 N   0  0  0  0  0  0  0  0  0  0  0  0
   37.7790   32.9330   41.2210 H   0  0  0  0  0  0  0  0  0  0  0  0
   38.4530   34.7300   39.7930 H   0  0  0  0  0  0  0  0  0  0  0  0
   42.7570   33.6310   39.7440 C   0  0  0  0  0  0  0  0  0  0  0  0
   43.7340   33.9740   40.6680 C   0  0  0  0  0  0  0  0  0  0  0  0
   45.0190   34.2590   40.2290 C   0  0  0  0  0  0  0  0  0  0  0  0
   45.1960   34.1660   38.8610 C   0  0  0  0  0  0  0  0  0  0  0  0
   44.2450   33.8270   37.9180 C   0  0  0  0  0  0  0  0  0  0  0  0
   43.0180   33.5650   38.4300 N   0  0  0  0  0  0  0  0  0  0  0  0
   43.5310   34.0280   41.7300 H   0  0  0  0  0  0  0  0  0  0  0  0
   45.8420   34.5340   40.8730 H   0  0  0  0  0  0  0  0  0  0  0  0
   46.1930   34.3830   38.4780 H   0  0  0  0  0  0  0  0  0  0  0  0
   44.4730   33.7820   36.8810 H   0  0  0  0  0  0  0  0  0  0  0  0
  1  4  1  0  0  0  0
  1  2  1  0  0  0  0
  1 24  1  0  0  0  0
  3  1  1  0  0  0  0
  4  5  1  0  0  0  0
  5 10  1  0  0  0  0
  5  6  1  0  0  0  0
  6 12  1  0  0  0  0
  6 13  1  0  0  0  0
  7 15  1  0  0  0  0
  7 14  1  0  0  0  0
  7  6  1  0  0  0  0
  8  7  1  0  0  0  0
  9  8  2  0  0  0  0
  9  4  1  0  0  0  0
 11  5  1  0  0  0  0
 16  8  1  0  0  0  0
 17  9  1  0  0  0  0
 18 17  1  0  0  0  0
 19 20  1  0  0  0  0
 19 18  2  0  0  0  0
 21 19  1  0  0  0  0
 22 21  2  0  0  0  0
 22 23  1  0  0  0  0
 23 18  1  0  0  0  0
 24 25  1  0  0  0  0
 24 26  1  0  0  0  0
 27 24  1  0  0  0  0
 28 33  1  0  0  0  0
 28 27  1  0  0  0  0
 29 28  2  0  0  0  0
 30 31  2  0  0  0  0
 30 29  1  0  0  0  0
 31 32  1  0  0  0  0
 32 27  2  0  0  0  0
 34 29  1  0  0  0  0
 35 31  1  0  0  0  0
 35 36  1  0  0  0  0
 36 41  1  0  0  0  0
 37 36  2  0  0  0  0
 37 42  1  0  0  0  0
 38 37  1  0  0  0  0
 39 40  1  0  0  0  0
 39 38  2  0  0  0  0
 40 35  2  0  0  0  0
 43 38  1  0  0  0  0
 44 39  1  0  0  0  0
M  END
>  <minimizedAffinity>
-5.5240798

$$$$

 OpenBabel03252507053D

 44 47  0  0  0  0  0  0  0  0999 V2000
   37.6930   30.9920   40.9120 C   0  0  0  0  0  0  0  0  0  0  0  0
   38.0400   31.6230   41.7580 H   0  0  0  0  0  0  0  0  0  0  0  0
   36.6070   31.3200   40.7690 H   0  0  0  0  0  0  0  0  0  0  0  0
   37.8210   29.6790   41.1420 N   0  0  0  0  0  0  0  0  0  0  0  0
   39.0370   28.9580   41.3650 C   0  0  0  0  0  0  0  0  0  0  0  0
   38.9050   28.7420   42.8740 C   0  0  0  0  0  0  0  0  0  0  0  0
   37.7240   27.9870   43.2550 C   0  0  0  0  0  0  0  0  0  0  0  0
   36.5730   27.9940   42.3800 C   0  0  0  0  0  0  0  0  0  0  0  0
   36.5520   28.9250   41.1950 C   0  0  0  0  0  0  0  0  0  0  0  0
   39.8940   29.6520   41.1980 H   0  0  0  0  0  0  0  0  0  0  0  0
   39.1980   28.0310   40.8440 H   0  0  0  0  0  0  0  0  0  0  0  0
   38.8430   29.7750   43.3040 H   0  0  0  0  0  0  0  0  0  0  0  0
   39.8600   28.3180   43.2400 H   0  0  0  0  0  0  0  0  0  0  0  0
   38.0130   26.9090   43.4130 H   0  0  0  0  0  0  0  0  0  0  0  0
   37.3850   28.3130   44.2810 H   0  0  0  0  0  0  0  0  0  0  0  0
   35.7110   27.4110   42.5010 H   0  0  0  0  0  0  0  0  0  0  0  0
   35.2210   29.0820   40.1120 S   0  0  0  0  0  0  0  0  0  0  0  0
   35.2610   28.2520   38.6630 C   0  0  0  0  0  0  0  0  0  0  0  0
   35.0380   27.1910   37.8220 C   0  0  0  0  0  0  0  0  0  0  0  0
   34.5570   26.4290   38.3820 H   0  0  0  0  0  0  0  0  0  0  0  0
   35.3870   27.1730   36.5140 C   0  0  0  0  0  3  0  0  0  0  0  0
   36.0480   28.3870   35.9980 C   0  0  0  0  0  3  0  0  0  0  0  0
   36.0750   29.4530   37.5660 S   0  0  0  0  0  0  0  0  0  0  0  0
   38.3770   31.4500   39.6760 C   0  0  0  0  0  0  0  0  0  0  0  0
   37.7250   31.4580   38.7790 H   0  0  0  0  0  0  0  0  0  0  0  0
   39.1840   30.7240   39.4470 H   0  0  0  0  0  0  0  0  0  0  0  0
   39.0010   32.7570   39.9510 C   0  0  0  0  0  0  0  0  0  0  0  0
   38.2260   33.8910   40.0700 C   0  0  0  0  0  0  0  0  0  0  0  0
   38.8650   35.0950   40.3170 C   0  0  0  0  0  0  0  0  0  0  0  0
   40.2300   35.0990   40.4330 N   0  0  0  0  0  0  0  0  0  0  0  0
   40.9390   33.9820   40.3120 C   0  0  0  0  0  0  0  0  0  0  0  0
   40.3060   32.8320   40.0720 N   0  0  0  0  0  0  0  0  0  0  0  0
   37.1710   34.0900   40.0320 H   0  0  0  0  0  0  0  0  0  0  0  0
   38.4290   36.0830   40.4400 H   0  0  0  0  0  0  0  0  0  0  0  0
   42.3910   34.0730   40.4760 C   0  0  0  0  0  0  0  0  0  0  0  0
   42.9300   34.7570   41.5560 C   0  0  0  0  0  0  0  0  0  0  0  0
   44.3080   34.8450   41.6890 C   0  0  0  0  0  0  0  0  0  0  0  0
   45.0270   34.2150   40.6910 C   0  0  0  0  0  0  0  0  0  0  0  0
   44.5200   33.5280   39.6060 C   0  0  0  0  0  0  0  0  0  0  0  0
   43.1660   33.4890   39.5490 N   0  0  0  0  0  0  0  0  0  0  0  0
   42.3100   35.2300   42.3070 H   0  0  0  0  0  0  0  0  0  0  0  0
   44.8160   35.3550   42.4950 H   0  0  0  0  0  0  0  0  0  0  0  0
   46.1130   34.2630   40.7610 H   0  0  0  0  0  0  0  0  0  0  0  0
   45.1530   33.0720   38.8830 H   0  0  0  0  0  0  0  0  0  0  0  0
  1  4  1  0  0  0  0
  1  2  1  0  0  0  0
  3  1  1  0  0  0  0
  4  9  1  0  0  0  0
  4  5  1  0  0  0  0
  5  6  1  0  0  0  0
  6 13  1  0  0  0  0
  6  7  1  0  0  0  0
  6 12  1  0  0  0  0
  7 14  1  0  0  0  0
  7 15  1  0  0  0  0
  8 16  1  0  0  0  0
  8  7  1  0  0  0  0
  9  8  2  0  0  0  0
 10  5  1  0  0  0  0
 11  5  1  0  0  0  0
 17  9  1  0  0  0  0
 18 17  1  0  0  0  0
 19 20  1  0  0  0  0
 19 18  2  0  0  0  0
 21 19  1  0  0  0  0
 22 21  2  0  0  0  0
 22 23  1  0  0  0  0
 23 18  1  0  0  0  0
 24 27  1  0  0  0  0
 24  1  1  0  0  0  0
 25 24  1  0  0  0  0
 26 24  1  0  0  0  0
 27 28  2  0  0  0  0
 27 32  1  0  0  0  0
 28 29  1  0  0  0  0
 29 30  2  0  0  0  0
 29 34  1  0  0  0  0
 31 30  1  0  0  0  0
 31 35  1  0  0  0  0
 32 31  2  0  0  0  0
 33 28  1  0  0  0  0
 35 36  1  0  0  0  0
 36 37  2  0  0  0  0
 36 41  1  0  0  0  0
 37 42  1  0  0  0  0
 38 43  1  0  0  0  0
 38 37  1  0  0  0  0
 39 38  2  0  0  0  0
 40 39  1  0  0  0  0
 40 35  2  0  0  0  0
 44 39  1  0  0  0  0
M  END
>  <minimizedAffinity>
-5.50843763

$$$$

 OpenBabel03252507053D

 44 47  0  0  0  0  0  0  0  0999 V2000
   35.6600   29.4730   37.6630 C   0  0  0  0  0  0  0  0  0  0  0  0
   35.0300   30.1920   37.0970 H   0  0  0  0  0  0  0  0  0  0  0  0
   34.9010   28.9110   38.3090 H   0  0  0  0  0  0  0  0  0  0  0  0
   36.6270   30.0620   38.3780 N   0  0  0  0  0  0  0  0  0  0  0  0
   37.8450   30.6220   37.8810 C   0  0  0  0  0  0  0  0  0  0  0  0
   37.4860   32.1040   38.0030 C   0  0  0  0  0  0  0  0  0  0  0  0
   37.1870   32.5230   39.3620 C   0  0  0  0  0  0  0  0  0  0  0  0
   36.7140   31.5400   40.3110 C   0  0  0  0  0  0  0  0  0  0  0  0
   36.3650   30.1550   39.8290 C   0  0  0  0  0  0  0  0  0  0  0  0
   37.9260   30.3840   36.7950 H   0  0  0  0  0  0  0  0  0  0  0  0
   38.7680   30.3950   38.3840 H   0  0  0  0  0  0  0  0  0  0  0  0
   36.5750   32.2290   37.3640 H   0  0  0  0  0  0  0  0  0  0  0  0
   38.2860   32.6880   37.5080 H   0  0  0  0  0  0  0  0  0  0  0  0
   38.1040   33.0010   39.8090 H   0  0  0  0  0  0  0  0  0  0  0  0
   36.4440   33.3720   39.3370 H   0  0  0  0  0  0  0  0  0  0  0  0
   36.5630   31.7050   41.3350 H   0  0  0  0  0  0  0  0  0  0  0  0
   35.7300   28.9120   40.8380 S   0  0  0  0  0  0  0  0  0  0  0  0
   36.6910   28.2980   42.0590 C   0  0  0  0  0  0  0  0  0  0  0  0
   36.9580   27.7710   43.2980 C   0  0  0  0  0  0  0  0  0  0  0  0
   36.0370   27.6870   43.8180 H   0  0  0  0  0  0  0  0  0  0  0  0
   38.1950   27.4340   43.7290 C   0  0  0  0  0  3  0  0  0  0  0  0
   39.3020   27.6620   42.7800 C   0  0  0  0  0  3  0  0  0  0  0  0
   38.3450   28.3740   41.3060 S   0  0  0  0  0  0  0  0  0  0  0  0
   36.1610   28.4440   36.7170 C   0  0  0  0  0  0  0  0  0  0  0  0
   37.2160   28.5920   36.4100 H   0  0  0  0  0  0  0  0  0  0  0  0
   35.5690   28.5280   35.7820 H   0  0  0  0  0  0  0  0  0  0  0  0
   35.9080   27.1150   37.3020 C   0  0  0  0  0  0  0  0  0  0  0  0
   34.8770   26.3290   36.8340 C   0  0  0  0  0  0  0  0  0  0  0  0
   34.6760   25.0930   37.4270 C   0  0  0  0  0  0  0  0  0  0  0  0
   35.5120   24.7140   38.4440 N   0  0  0  0  0  0  0  0  0  0  0  0
   36.4960   25.5020   38.8640 C   0  0  0  0  0  0  0  0  0  0  0  0
   36.6720   26.6900   38.2810 N   0  0  0  0  0  0  0  0  0  0  0  0
   34.1410   26.4350   36.0570 H   0  0  0  0  0  0  0  0  0  0  0  0
   33.9230   24.3440   37.1990 H   0  0  0  0  0  0  0  0  0  0  0  0
   37.3580   25.0060   39.9380 C   0  0  0  0  0  0  0  0  0  0  0  0
   36.8070   24.6080   41.1470 C   0  0  0  0  0  0  0  0  0  0  0  0
   37.6400   24.1520   42.1600 C   0  0  0  0  0  0  0  0  0  0  0  0
   38.9840   24.1420   41.8420 C   0  0  0  0  0  0  0  0  0  0  0  0
   39.5620   24.5310   40.6480 C   0  0  0  0  0  0  0  0  0  0  0  0
   38.6800   24.9630   39.7140 N   0  0  0  0  0  0  0  0  0  0  0  0
   35.7410   24.6390   41.3340 H   0  0  0  0  0  0  0  0  0  0  0  0
   37.3020   23.8220   43.1320 H   0  0  0  0  0  0  0  0  0  0  0  0
   39.6710   23.7910   42.6120 H   0  0  0  0  0  0  0  0  0  0  0  0
   40.6130   24.4890   40.4920 H   0  0  0  0  0  0  0  0  0  0  0  0
  1  3  1  0  0  0  0
  1  4  1  0  0  0  0
  2  1  1  0  0  0  0
  4  9  1  0  0  0  0
  5  6  1  0  0  0  0
  5  4  1  0  0  0  0
  5 11  1  0  0  0  0
  6  7  1  0  0  0  0
  7 14  1  0  0  0  0
  7  8  1  0  0  0  0
  8 16  1  0  0  0  0
  9  8  2  0  0  0  0
  9 17  1  0  0  0  0
 10  5  1  0  0  0  0
 12  6  1  0  0  0  0
 13  6  1  0  0  0  0
 15  7  1  0  0  0  0
 17 18  1  0  0  0  0
 18 19  2  0  0  0  0
 19 21  1  0  0  0  0
 19 20  1  0  0  0  0
 22 21  2  0  0  0  0
 23 18  1  0  0  0  0
 23 22  1  0  0  0  0
 24 27  1  0  0  0  0
 24  1  1  0  0  0  0
 25 24  1  0  0  0  0
 26 24  1  0  0  0  0
 27 32  1  0  0  0  0
 28 27  2  0  0  0  0
 28 29  1  0  0  0  0
 29 30  2  0  0  0  0
 30 31  1  0  0  0  0
 31 35  1  0  0  0  0
 32 31  2  0  0  0  0
 33 28  1  0  0  0  0
 34 29  1  0  0  0  0
 35 36  1  0  0  0  0
 36 41  1  0  0  0  0
 36 37  2  0  0  0  0
 37 42  1  0  0  0  0
 38 37  1  0  0  0  0
 38 43  1  0  0  0  0
 39 38  2  0  0  0  0
 40 35  2  0  0  0  0
 40 39  1  0  0  0  0
 44 39  1  0  0  0  0
M  END
>  <minimizedAffinity>
-5.49839735

$$$$

 OpenBabel03252507053D

 44 47  0  0  0  0  0  0  0  0999 V2000
   35.8560   28.2270   38.8180 C   0  0  0  0  0  0  0  0  0  0  0  0
   35.9370   27.1910   39.2100 H   0  0  0  0  0  0  0  0  0  0  0  0
   35.9730   28.0890   37.6890 H   0  0  0  0  0  0  0  0  0  0  0  0
   36.7580   29.0660   39.3430 N   0  0  0  0  0  0  0  0  0  0  0  0
   37.7170   29.8550   38.6310 C   0  0  0  0  0  0  0  0  0  0  0  0
   37.0430   31.2220   38.7730 C   0  0  0  0  0  0  0  0  0  0  0  0
   36.8730   31.6500   40.1510 C   0  0  0  0  0  0  0  0  0  0  0  0
   36.8000   30.6490   41.1920 C   0  0  0  0  0  0  0  0  0  0  0  0
   36.7150   29.1930   40.8140 C   0  0  0  0  0  0  0  0  0  0  0  0
   37.6780   29.5710   37.5540 H   0  0  0  0  0  0  0  0  0  0  0  0
   38.7350   29.8770   38.9770 H   0  0  0  0  0  0  0  0  0  0  0  0
   36.0390   31.0930   38.2940 H   0  0  0  0  0  0  0  0  0  0  0  0
   37.5950   31.9380   38.1340 H   0  0  0  0  0  0  0  0  0  0  0  0
   37.7110   32.3510   40.4230 H   0  0  0  0  0  0  0  0  0  0  0  0
   35.9570   32.3040   40.2290 H   0  0  0  0  0  0  0  0  0  0  0  0
   36.7790   30.8420   42.2220 H   0  0  0  0  0  0  0  0  0  0  0  0
   36.5580   27.9070   41.9480 S   0  0  0  0  0  0  0  0  0  0  0  0
   37.9240   27.3610   42.7400 C   0  0  0  0  0  0  0  0  0  0  0  0
   39.0150   27.4590   43.5670 C   0  0  0  0  0  0  0  0  0  0  0  0
   39.0410   28.4470   43.9530 H   0  0  0  0  0  0  0  0  0  0  0  0
   39.8730   26.4420   43.8150 C   0  0  0  0  0  3  0  0  0  0  0  0
   39.5860   25.1640   43.1350 C   0  0  0  0  0  3  0  0  0  0  0  0
   38.0210   25.6360   42.1730 S   0  0  0  0  0  0  0  0  0  0  0  0
   34.4520   28.6820   38.9830 C   0  0  0  0  0  0  0  0  0  0  0  0
   34.3580   29.7210   39.3570 H   0  0  0  0  0  0  0  0  0  0  0  0
   33.9810   28.0460   39.7610 H   0  0  0  0  0  0  0  0  0  0  0  0
   33.7400   28.4550   37.7130 C   0  0  0  0  0  0  0  0  0  0  0  0
   33.8620   27.2540   37.0480 C   0  0  0  0  0  0  0  0  0  0  0  0
   33.1800   27.0970   35.8520 C   0  0  0  0  0  0  0  0  0  0  0  0
   32.4190   28.1400   35.3930 N   0  0  0  0  0  0  0  0  0  0  0  0
   32.3270   29.2810   36.0670 C   0  0  0  0  0  0  0  0  0  0  0  0
   32.9930   29.4130   37.2170 N   0  0  0  0  0  0  0  0  0  0  0  0
   34.3810   26.3330   37.2440 H   0  0  0  0  0  0  0  0  0  0  0  0
   33.1560   26.2350   35.1920 H   0  0  0  0  0  0  0  0  0  0  0  0
   31.4700   30.3320   35.5180 C   0  0  0  0  0  0  0  0  0  0  0  0
   30.8400   31.2330   36.3640 C   0  0  0  0  0  0  0  0  0  0  0  0
   30.0210   32.2160   35.8280 C   0  0  0  0  0  0  0  0  0  0  0  0
   29.9150   32.1920   34.4500 C   0  0  0  0  0  0  0  0  0  0  0  0
   30.5280   31.3090   33.5820 C   0  0  0  0  0  0  0  0  0  0  0  0
   31.3100   30.3810   34.1860 N   0  0  0  0  0  0  0  0  0  0  0  0
   30.9660   31.2000   37.4390 H   0  0  0  0  0  0  0  0  0  0  0  0
   29.4920   32.9590   36.4070 H   0  0  0  0  0  0  0  0  0  0  0  0
   29.2790   32.9480   33.9910 H   0  0  0  0  0  0  0  0  0  0  0  0
   30.3870   31.3650   32.5300 H   0  0  0  0  0  0  0  0  0  0  0  0
  1 24  1  0  0  0  0
  1  2  1  0  0  0  0
  1  4  1  0  0  0  0
  3  1  1  0  0  0  0
  4  9  1  0  0  0  0
  5  6  1  0  0  0  0
  5 11  1  0  0  0  0
  5  4  1  0  0  0  0
  6  7  1  0  0  0  0
  7 15  1  0  0  0  0
  7 14  1  0  0  0  0
  7  8  1  0  0  0  0
  8 16  1  0  0  0  0
  9  8  2  0  0  0  0
  9 17  1  0  0  0  0
 10  5  1  0  0  0  0
 12  6  1  0  0  0  0
 13  6  1  0  0  0  0
 17 18  1  0  0  0  0
 18 19  2  0  0  0  0
 19 21  1  0  0  0  0
 19 20  1  0  0  0  0
 22 21  2  0  0  0  0
 23 18  1  0  0  0  0
 23 22  1  0  0  0  0
 24 25  1  0  0  0  0
 24 26  1  0  0  0  0
 27 24  1  0  0  0  0
 28 33  1  0  0  0  0
 28 27  2  0  0  0  0
 29 28  1  0  0  0  0
 30 29  2  0  0  0  0
 30 31  1  0  0  0  0
 31 32  2  0  0  0  0
 32 27  1  0  0  0  0
 34 29  1  0  0  0  0
 35 31  1  0  0  0  0
 35 36  1  0  0  0  0
 36 41  1  0  0  0  0
 37 36  2  0  0  0  0
 37 42  1  0  0  0  0
 38 37  1  0  0  0  0
 39 40  1  0  0  0  0
 39 38  2  0  0  0  0
 40 35  2  0  0  0  0
 43 38  1  0  0  0  0
 44 39  1  0  0  0  0
M  END
>  <minimizedAffinity>
-5.49268341

$$$$
