
 OpenBabel03252507413D

 22 23  0  0  0  0  0  0  0  0999 V2000
   45.3030   34.1410   42.2320 C   0  0  0  0  0  0  0  0  0  0  0  0
   45.1770   35.1500   42.7120 H   0  0  0  0  0  0  0  0  0  0  0  0
   45.8380   33.5170   42.9640 H   0  0  0  0  0  0  0  0  0  0  0  0
   43.9700   33.6230   41.8920 C   0  0  0  0  0  0  0  0  0  0  0  0
   43.7480   32.2890   42.2240 C   0  0  0  0  0  0  0  0  0  0  0  0
   42.5050   31.7300   41.9310 C   0  0  0  0  0  0  0  0  0  0  0  0
   41.5420   32.5080   41.3260 N   0  0  0  0  0  0  0  0  0  0  0  0
   41.8140   33.7940   41.0290 C   0  0  0  0  0  0  0  0  0  0  0  0
   43.0010   34.3410   41.3050 N   0  0  0  0  0  0  0  0  0  0  0  0
   42.2830   30.7040   42.1670 H   0  0  0  0  0  0  0  0  0  0  0  0
   41.1220   34.4780   40.5570 H   0  0  0  0  0  0  0  0  0  0  0  0
   45.0090   31.2960   43.0070 S   0  0  0  0  0  0  0  0  0  0  0  0
   45.0560   29.9970   42.4800 H   0  0  0  0  0  0  0  0  0  0  0  0
   46.1940   34.3600   41.0340 C   0  0  0  0  0  0  0  0  0  0  0  0
   46.1380   33.5150   40.3150 H   0  0  0  0  0  0  0  0  0  0  0  0
   45.9410   35.3260   40.5790 H   0  0  0  0  0  0  0  0  0  0  0  0
   47.5820   34.4060   41.5380 C   0  0  0  0  0  0  0  0  0  0  0  0
   48.3990   35.4900   41.7210 C   0  0  0  0  0  0  0  0  0  0  0  0
   48.0070   36.4650   41.4710 H   0  0  0  0  0  0  0  0  0  0  0  0
   49.6490   35.3520   42.1960 C   0  0  0  0  0  3  0  0  0  0  0  0
   50.0040   33.9210   42.4820 C   0  0  0  0  0  3  0  0  0  0  0  0
   48.4340   32.9820   42.0070 S   0  0  0  0  0  0  0  0  0  0  0  0
  1  2  1  0  0  0  0
  1  3  1  0  0  0  0
  4  5  1  0  0  0  0
  4  1  1  0  0  0  0
  5 12  1  0  0  0  0
  6 10  1  0  0  0  0
  6  5  2  0  0  0  0
  7  6  1  0  0  0  0
  8  9  1  0  0  0  0
  8  7  2  0  0  0  0
  9  4  2  0  0  0  0
 11  8  1  0  0  0  0
 13 12  1  0  0  0  0
 14 17  1  0  0  0  0
 14  1  1  0  0  0  0
 15 14  1  0  0  0  0
 16 14  1  0  0  0  0
 17 18  2  0  0  0  0
 17 22  1  0  0  0  0
 18 20  1  0  0  0  0
 19 18  1  0  0  0  0
 20 21  2  0  0  0  0
 22 21  1  0  0  0  0
M  END
>  <minimizedAffinity>
-3.62819815

>  <minimizedRMSD>
4.6817255

$$$$
