
 OpenBabel03242520533D

 24 25  0  0  0  0  0  0  0  0999 V2000
   34.3540   28.4030   36.0880 C   0  0  0  0  0  0  0  0  0  0  0  0
   34.8290   28.7210   34.8140 C   0  0  0  0  0  0  0  0  0  0  0  0
   35.9700   29.4950   34.6960 C   0  0  0  0  0  0  0  0  0  0  0  0
   36.5580   29.9020   35.8360 N   0  0  0  0  0  0  0  0  0  0  0  0
   36.1000   29.5970   37.0500 C   0  0  0  0  0  0  0  0  0  0  0  0
   35.0000   28.8490   37.1820 N   0  0  0  0  0  0  0  0  0  0  0  0
   33.4510   27.7890   36.1430 H   0  0  0  0  0  0  0  0  0  0  0  0
   34.3800   28.4100   33.8930 H   0  0  0  0  0  0  0  0  0  0  0  0
   36.8030   30.0800   38.2560 C   0  0  0  0  0  3  0  0  0  0  0  0
   36.2000   30.1750   39.4030 C   0  0  0  0  0  3  0  0  0  0  0  0
   36.8680   30.6550   40.6300 C   0  0  0  0  0  0  0  0  0  0  0  0
   37.8700   31.0410   40.3530 H   0  0  0  0  0  0  0  0  0  0  0  0
   36.3000   31.4780   41.1180 H   0  0  0  0  0  0  0  0  0  0  0  0
   37.0160   29.5440   41.5380 C   0  0  0  0  0  0  0  0  0  0  0  0
   36.3170   28.3590   41.7420 C   0  0  0  0  0  0  0  0  0  0  0  0
   35.4720   28.2220   41.0860 H   0  0  0  0  0  0  0  0  0  0  0  0
   36.7290   27.5010   42.7050 C   0  0  0  0  0  3  0  0  0  0  0  0
   37.8480   27.8410   43.4630 C   0  0  0  0  0  3  0  0  0  0  0  0
   38.3760   29.4870   42.7860 S   0  0  0  0  0  0  0  0  0  0  0  0
   36.5660   29.8950   33.5090 O   0  0  0  0  0  0  0  0  0  0  0  0
   36.3100   31.2400   33.0830 C   0  0  0  0  0  0  0  0  0  0  0  0
   37.3030   32.0720   33.5930 F   0  0  0  0  0  0  0  0  0  0  0  0
   36.3740   31.2510   31.6850 F   0  0  0  0  0  0  0  0  0  0  0  0
   35.0420   31.6650   33.4710 F   0  0  0  0  0  0  0  0  0  0  0  0
  1  7  1  0  0  0  0
  1  6  1  0  0  0  0
  2  1  2  0  0  0  0
  3  2  1  0  0  0  0
  3  4  2  0  0  0  0
  4  5  1  0  0  0  0
  5  6  2  0  0  0  0
  5  9  1  0  0  0  0
  8  2  1  0  0  0  0
  9 10  2  0  0  0  0
 10 11  1  0  0  0  0
 11 13  1  0  0  0  0
 11 14  1  0  0  0  0
 12 11  1  0  0  0  0
 14 15  2  0  0  0  0
 14 19  1  0  0  0  0
 15 17  1  0  0  0  0
 16 15  1  0  0  0  0
 17 18  2  0  0  0  0
 19 18  1  0  0  0  0
 20  3  1  0  0  0  0
 21 24  1  0  0  0  0
 21 20  1  0  0  0  0
 21 22  1  0  0  0  0
 23 21  1  0  0  0  0
M  END
>  <minimizedAffinity>
-4.90039587

$$$$

 OpenBabel03242520533D

 24 25  0  0  0  0  0  0  0  0999 V2000
   37.3170   29.6240   38.4020 C   0  0  0  0  0  0  0  0  0  0  0  0
   37.5970   29.5200   39.7660 C   0  0  0  0  0  0  0  0  0  0  0  0
   36.5730   29.1960   40.6390 C   0  0  0  0  0  0  0  0  0  0  0  0
   35.3510   29.0000   40.1100 N   0  0  0  0  0  0  0  0  0  0  0  0
   35.0900   29.1020   38.8070 C   0  0  0  0  0  0  0  0  0  0  0  0
   36.0670   29.4130   37.9490 N   0  0  0  0  0  0  0  0  0  0  0  0
   38.1510   29.8810   37.7430 H   0  0  0  0  0  0  0  0  0  0  0  0
   38.5590   29.6700   40.2120 H   0  0  0  0  0  0  0  0  0  0  0  0
   33.7210   28.8720   38.3000 C   0  0  0  0  0  3  0  0  0  0  0  0
   33.4110   29.0820   37.0570 C   0  0  0  0  0  3  0  0  0  0  0  0
   32.0550   28.8640   36.5130 C   0  0  0  0  0  0  0  0  0  0  0  0
   32.1360   28.7410   35.4130 H   0  0  0  0  0  0  0  0  0  0  0  0
   31.5810   27.9480   36.9310 H   0  0  0  0  0  0  0  0  0  0  0  0
   31.2490   30.0230   36.8080 C   0  0  0  0  0  0  0  0  0  0  0  0
   31.0000   31.2230   36.1500 C   0  0  0  0  0  0  0  0  0  0  0  0
   31.5150   31.3300   35.2080 H   0  0  0  0  0  0  0  0  0  0  0  0
   30.1660   32.1290   36.7130 C   0  0  0  0  0  3  0  0  0  0  0  0
   29.5840   31.8230   37.9420 C   0  0  0  0  0  3  0  0  0  0  0  0
   30.2460   30.1380   38.3530 S   0  0  0  0  0  0  0  0  0  0  0  0
   36.6870   29.0550   42.0140 O   0  0  0  0  0  0  0  0  0  0  0  0
   36.9840   27.7400   42.5030 C   0  0  0  0  0  0  0  0  0  0  0  0
   38.2250   27.7620   43.1330 F   0  0  0  0  0  0  0  0  0  0  0  0
   35.9980   27.4140   43.4420 F   0  0  0  0  0  0  0  0  0  0  0  0
   36.9490   26.7960   41.4800 F   0  0  0  0  0  0  0  0  0  0  0  0
  1  2  1  0  0  0  0
  2  8  1  0  0  0  0
  2  3  2  0  0  0  0
  3 20  1  0  0  0  0
  4  3  1  0  0  0  0
  5  4  2  0  0  0  0
  6  1  2  0  0  0  0
  6  5  1  0  0  0  0
  7  1  1  0  0  0  0
  9  5  1  0  0  0  0
 10  9  2  0  0  0  0
 11 14  1  0  0  0  0
 11 13  1  0  0  0  0
 11 10  1  0  0  0  0
 12 11  1  0  0  0  0
 14 19  1  0  0  0  0
 15 17  1  0  0  0  0
 15 14  2  0  0  0  0
 16 15  1  0  0  0  0
 17 18  2  0  0  0  0
 18 19  1  0  0  0  0
 20 21  1  0  0  0  0
 21 22  1  0  0  0  0
 21 23  1  0  0  0  0
 24 21  1  0  0  0  0
M  END
>  <minimizedAffinity>
-4.77190113

$$$$

 OpenBabel03242520533D

 24 25  0  0  0  0  0  0  0  0999 V2000
   37.1230   32.4980   39.5880 C   0  0  0  0  0  0  0  0  0  0  0  0
   37.3870   31.9600   38.3270 C   0  0  0  0  0  0  0  0  0  0  0  0
   37.6190   30.6000   38.2110 C   0  0  0  0  0  0  0  0  0  0  0  0
   37.5760   29.8700   39.3410 N   0  0  0  0  0  0  0  0  0  0  0  0
   37.3250   30.3890   40.5430 C   0  0  0  0  0  0  0  0  0  0  0  0
   37.0970   31.7000   40.6720 N   0  0  0  0  0  0  0  0  0  0  0  0
   36.9440   33.5750   39.6410 H   0  0  0  0  0  0  0  0  0  0  0  0
   37.4260   32.5180   37.4140 H   0  0  0  0  0  0  0  0  0  0  0  0
   37.2940   29.5220   41.7380 C   0  0  0  0  0  3  0  0  0  0  0  0
   36.6160   28.4140   41.7570 C   0  0  0  0  0  3  0  0  0  0  0  0
   36.5590   27.5210   42.9330 C   0  0  0  0  0  0  0  0  0  0  0  0
   37.0400   28.0390   43.7870 H   0  0  0  0  0  0  0  0  0  0  0  0
   35.5120   27.2760   43.2190 H   0  0  0  0  0  0  0  0  0  0  0  0
   37.2900   26.3150   42.6310 C   0  0  0  0  0  0  0  0  0  0  0  0
   36.9350   25.0670   42.1270 C   0  0  0  0  0  0  0  0  0  0  0  0
   35.8850   24.9580   41.9080 H   0  0  0  0  0  0  0  0  0  0  0  0
   37.8910   24.1240   41.9550 C   0  0  0  0  0  3  0  0  0  0  0  0
   39.2060   24.4410   42.2930 C   0  0  0  0  0  3  0  0  0  0  0  0
   39.1120   26.1930   42.8990 S   0  0  0  0  0  0  0  0  0  0  0  0
   37.8940   29.9160   37.0360 O   0  0  0  0  0  0  0  0  0  0  0  0
   36.7880   29.6830   36.1530 C   0  0  0  0  0  0  0  0  0  0  0  0
   35.6180   29.6150   36.9030 F   0  0  0  0  0  0  0  0  0  0  0  0
   36.7140   30.7780   35.2850 F   0  0  0  0  0  0  0  0  0  0  0  0
   36.9760   28.5300   35.3950 F   0  0  0  0  0  0  0  0  0  0  0  0
  1  7  1  0  0  0  0
  1  6  1  0  0  0  0
  2  1  2  0  0  0  0
  3  2  1  0  0  0  0
  3  4  2  0  0  0  0
  4  5  1  0  0  0  0
  5  6  2  0  0  0  0
  5  9  1  0  0  0  0
  8  2  1  0  0  0  0
  9 10  2  0  0  0  0
 10 11  1  0  0  0  0
 11 13  1  0  0  0  0
 11 12  1  0  0  0  0
 14 19  1  0  0  0  0
 14 11  1  0  0  0  0
 15 14  2  0  0  0  0
 16 15  1  0  0  0  0
 17 15  1  0  0  0  0
 17 18  2  0  0  0  0
 18 19  1  0  0  0  0
 20  3  1  0  0  0  0
 21 22  1  0  0  0  0
 21 20  1  0  0  0  0
 23 21  1  0  0  0  0
 24 21  1  0  0  0  0
M  END
>  <minimizedAffinity>
-4.72157335

$$$$

 OpenBabel03242520533D

 24 25  0  0  0  0  0  0  0  0999 V2000
   37.0630   30.2130   37.6310 C   0  0  0  0  0  0  0  0  0  0  0  0
   37.3100   31.5180   38.0630 C   0  0  0  0  0  0  0  0  0  0  0  0
   37.2530   31.8010   39.4160 C   0  0  0  0  0  0  0  0  0  0  0  0
   36.9560   30.7830   40.2450 N   0  0  0  0  0  0  0  0  0  0  0  0
   36.7200   29.5390   39.8270 C   0  0  0  0  0  0  0  0  0  0  0  0
   36.7730   29.2490   38.5240 N   0  0  0  0  0  0  0  0  0  0  0  0
   37.1180   30.0280   36.5550 H   0  0  0  0  0  0  0  0  0  0  0  0
   37.5480   32.3450   37.4240 H   0  0  0  0  0  0  0  0  0  0  0  0
   36.4020   28.4740   40.8000 C   0  0  0  0  0  3  0  0  0  0  0  0
   36.8880   28.4830   42.0040 C   0  0  0  0  0  3  0  0  0  0  0  0
   36.5950   27.4360   43.0040 C   0  0  0  0  0  0  0  0  0  0  0  0
   37.0000   27.7670   43.9830 H   0  0  0  0  0  0  0  0  0  0  0  0
   35.5010   27.2660   43.1190 H   0  0  0  0  0  0  0  0  0  0  0  0
   37.2510   26.2170   42.6000 C   0  0  0  0  0  0  0  0  0  0  0  0
   36.8040   24.9690   42.1780 C   0  0  0  0  0  0  0  0  0  0  0  0
   35.7300   24.8720   42.1380 H   0  0  0  0  0  0  0  0  0  0  0  0
   37.7060   24.0120   41.8620 C   0  0  0  0  0  3  0  0  0  0  0  0
   39.0630   24.3140   41.9730 C   0  0  0  0  0  3  0  0  0  0  0  0
   39.0910   26.0730   42.5640 S   0  0  0  0  0  0  0  0  0  0  0  0
   37.4710   33.0390   40.0020 O   0  0  0  0  0  0  0  0  0  0  0  0
   38.8210   33.3450   40.3730 C   0  0  0  0  0  0  0  0  0  0  0  0
   39.3900   34.1480   39.3890 F   0  0  0  0  0  0  0  0  0  0  0  0
   38.7690   34.0600   41.5760 F   0  0  0  0  0  0  0  0  0  0  0  0
   39.5680   32.1870   40.5800 F   0  0  0  0  0  0  0  0  0  0  0  0
  1  2  2  0  0  0  0
  1  6  1  0  0  0  0
  2  3  1  0  0  0  0
  3 20  1  0  0  0  0
  3  4  2  0  0  0  0
  5  4  1  0  0  0  0
  5  9  1  0  0  0  0
  6  5  2  0  0  0  0
  7  1  1  0  0  0  0
  8  2  1  0  0  0  0
  9 10  2  0  0  0  0
 10 11  1  0  0  0  0
 11 13  1  0  0  0  0
 11 12  1  0  0  0  0
 14 11  1  0  0  0  0
 15 14  2  0  0  0  0
 16 15  1  0  0  0  0
 17 18  2  0  0  0  0
 17 15  1  0  0  0  0
 18 19  1  0  0  0  0
 19 14  1  0  0  0  0
 20 21  1  0  0  0  0
 21 24  1  0  0  0  0
 21 23  1  0  0  0  0
 22 21  1  0  0  0  0
M  END
>  <minimizedAffinity>
-4.68763494

$$$$

 OpenBabel03242520533D

 24 25  0  0  0  0  0  0  0  0999 V2000
   40.0650   27.4300   43.3380 C   0  0  0  0  0  0  0  0  0  0  0  0
   39.1820   26.3530   43.2390 C   0  0  0  0  0  0  0  0  0  0  0  0
   37.9250   26.5620   42.6970 C   0  0  0  0  0  0  0  0  0  0  0  0
   37.6280   27.8110   42.2950 N   0  0  0  0  0  0  0  0  0  0  0  0
   38.4750   28.8360   42.3930 C   0  0  0  0  0  0  0  0  0  0  0  0
   39.6930   28.6520   42.9120 N   0  0  0  0  0  0  0  0  0  0  0  0
   41.0490   27.2270   43.7700 H   0  0  0  0  0  0  0  0  0  0  0  0
   39.3940   25.3510   43.5510 H   0  0  0  0  0  0  0  0  0  0  0  0
   38.0760   30.1800   41.9270 C   0  0  0  0  0  3  0  0  0  0  0  0
   37.4260   30.3500   40.8160 C   0  0  0  0  0  3  0  0  0  0  0  0
   37.0110   31.6770   40.3160 C   0  0  0  0  0  0  0  0  0  0  0  0
   36.4710   31.5350   39.3580 H   0  0  0  0  0  0  0  0  0  0  0  0
   36.3280   32.1940   41.0270 H   0  0  0  0  0  0  0  0  0  0  0  0
   38.1920   32.4730   40.0880 C   0  0  0  0  0  0  0  0  0  0  0  0
   38.6840   33.6550   40.6330 C   0  0  0  0  0  0  0  0  0  0  0  0
   38.0570   34.0890   41.3960 H   0  0  0  0  0  0  0  0  0  0  0  0
   39.8600   34.1540   40.1860 C   0  0  0  0  0  3  0  0  0  0  0  0
   40.5410   33.4570   39.1880 C   0  0  0  0  0  3  0  0  0  0  0  0
   39.4610   31.9890   38.8390 S   0  0  0  0  0  0  0  0  0  0  0  0
   36.9380   25.6020   42.5300 O   0  0  0  0  0  0  0  0  0  0  0  0
   37.1720   24.6070   41.5250 C   0  0  0  0  0  0  0  0  0  0  0  0
   38.0490   23.6520   42.0290 F   0  0  0  0  0  0  0  0  0  0  0  0
   35.9410   24.0010   41.2480 F   0  0  0  0  0  0  0  0  0  0  0  0
   37.6590   25.1760   40.3500 F   0  0  0  0  0  0  0  0  0  0  0  0
  1  7  1  0  0  0  0
  2  1  1  0  0  0  0
  2  8  1  0  0  0  0
  3  2  2  0  0  0  0
  4  5  2  0  0  0  0
  4  3  1  0  0  0  0
  5  6  1  0  0  0  0
  6  1  2  0  0  0  0
  9  5  1  0  0  0  0
 10  9  2  0  0  0  0
 11 10  1  0  0  0  0
 11 13  1  0  0  0  0
 12 11  1  0  0  0  0
 14 11  1  0  0  0  0
 14 15  2  0  0  0  0
 15 16  1  0  0  0  0
 17 15  1  0  0  0  0
 18 17  2  0  0  0  0
 19 18  1  0  0  0  0
 19 14  1  0  0  0  0
 20  3  1  0  0  0  0
 21 22  1  0  0  0  0
 21 20  1  0  0  0  0
 23 21  1  0  0  0  0
 24 21  1  0  0  0  0
M  END
>  <minimizedAffinity>
-4.58067751

$$$$

 OpenBabel03242520533D

 24 25  0  0  0  0  0  0  0  0999 V2000
   41.0110   30.3350   38.3730 C   0  0  0  0  0  0  0  0  0  0  0  0
   40.3160   31.5450   38.4120 C   0  0  0  0  0  0  0  0  0  0  0  0
   39.4750   31.8040   39.4810 C   0  0  0  0  0  0  0  0  0  0  0  0
   39.3790   30.8550   40.4300 N   0  0  0  0  0  0  0  0  0  0  0  0
   40.0440   29.7010   40.3870 C   0  0  0  0  0  0  0  0  0  0  0  0
   40.8610   29.4360   39.3630 N   0  0  0  0  0  0  0  0  0  0  0  0
   41.6660   30.1660   37.5140 H   0  0  0  0  0  0  0  0  0  0  0  0
   40.3760   32.3150   37.6700 H   0  0  0  0  0  0  0  0  0  0  0  0
   39.8860   28.7080   41.4700 C   0  0  0  0  0  3  0  0  0  0  0  0
   38.9380   28.8090   42.3520 C   0  0  0  0  0  3  0  0  0  0  0  0
   38.7480   27.8380   43.4500 C   0  0  0  0  0  0  0  0  0  0  0  0
   39.7250   27.6870   43.9540 H   0  0  0  0  0  0  0  0  0  0  0  0
   38.0190   28.2040   44.2080 H   0  0  0  0  0  0  0  0  0  0  0  0
   38.3000   26.5880   42.8880 C   0  0  0  0  0  0  0  0  0  0  0  0
   37.0950   26.1420   42.3550 C   0  0  0  0  0  0  0  0  0  0  0  0
   36.3080   26.8800   42.3540 H   0  0  0  0  0  0  0  0  0  0  0  0
   37.0010   24.8720   41.8960 C   0  0  0  0  0  3  0  0  0  0  0  0
   38.1250   24.0520   41.9760 C   0  0  0  0  0  3  0  0  0  0  0  0
   39.4220   25.1290   42.7510 S   0  0  0  0  0  0  0  0  0  0  0  0
   38.7190   32.9510   39.6660 O   0  0  0  0  0  0  0  0  0  0  0  0
   37.3340   32.8740   39.3020 C   0  0  0  0  0  0  0  0  0  0  0  0
   36.8070   34.1610   39.2550 F   0  0  0  0  0  0  0  0  0  0  0  0
   37.2730   32.3050   38.0240 F   0  0  0  0  0  0  0  0  0  0  0  0
   36.6210   32.0630   40.1810 F   0  0  0  0  0  0  0  0  0  0  0  0
  1  2  2  0  0  0  0
  1  6  1  0  0  0  0
  2  3  1  0  0  0  0
  3 20  1  0  0  0  0
  3  4  2  0  0  0  0
  5  4  1  0  0  0  0
  5  9  1  0  0  0  0
  6  5  2  0  0  0  0
  7  1  1  0  0  0  0
  8  2  1  0  0  0  0
  9 10  2  0  0  0  0
 10 11  1  0  0  0  0
 11 12  1  0  0  0  0
 11 13  1  0  0  0  0
 14 11  1  0  0  0  0
 15 14  2  0  0  0  0
 16 15  1  0  0  0  0
 17 18  2  0  0  0  0
 17 15  1  0  0  0  0
 18 19  1  0  0  0  0
 19 14  1  0  0  0  0
 21 20  1  0  0  0  0
 21 24  1  0  0  0  0
 22 21  1  0  0  0  0
 23 21  1  0  0  0  0
M  END
>  <minimizedAffinity>
-4.52399015

$$$$

 OpenBabel03242520533D

 24 25  0  0  0  0  0  0  0  0999 V2000
   36.6080   27.8140   40.4800 C   0  0  0  0  0  0  0  0  0  0  0  0
   36.9570   29.0230   41.0850 C   0  0  0  0  0  0  0  0  0  0  0  0
   36.4770   30.2060   40.5490 C   0  0  0  0  0  0  0  0  0  0  0  0
   35.6930   30.1140   39.4600 N   0  0  0  0  0  0  0  0  0  0  0  0
   35.3640   28.9570   38.8860 C   0  0  0  0  0  0  0  0  0  0  0  0
   35.8170   27.8050   39.3910 N   0  0  0  0  0  0  0  0  0  0  0  0
   37.0040   26.9000   40.9310 H   0  0  0  0  0  0  0  0  0  0  0  0
   37.5790   29.1220   41.9510 H   0  0  0  0  0  0  0  0  0  0  0  0
   34.4950   28.9380   37.6910 C   0  0  0  0  0  3  0  0  0  0  0  0
   33.2000   28.9340   37.7900 C   0  0  0  0  0  3  0  0  0  0  0  0
   32.2990   28.9140   36.6200 C   0  0  0  0  0  0  0  0  0  0  0  0
   32.9140   29.0330   35.7050 H   0  0  0  0  0  0  0  0  0  0  0  0
   31.7410   27.9540   36.5410 H   0  0  0  0  0  0  0  0  0  0  0  0
   31.3790   30.0190   36.7280 C   0  0  0  0  0  0  0  0  0  0  0  0
   31.0460   31.0870   35.9010 C   0  0  0  0  0  0  0  0  0  0  0  0
   31.5860   31.1120   34.9680 H   0  0  0  0  0  0  0  0  0  0  0  0
   30.1120   31.9770   36.3090 C   0  0  0  0  0  3  0  0  0  0  0  0
   29.5120   31.7880   37.5540 C   0  0  0  0  0  3  0  0  0  0  0  0
   30.3100   30.2480   38.2150 S   0  0  0  0  0  0  0  0  0  0  0  0
   36.7310   31.4820   41.0300 O   0  0  0  0  0  0  0  0  0  0  0  0
   37.6160   32.2980   40.2500 C   0  0  0  0  0  0  0  0  0  0  0  0
   36.8590   33.1360   39.4380 F   0  0  0  0  0  0  0  0  0  0  0  0
   38.3600   33.0740   41.1460 F   0  0  0  0  0  0  0  0  0  0  0  0
   38.4970   31.5210   39.5010 F   0  0  0  0  0  0  0  0  0  0  0  0
  1  7  1  0  0  0  0
  1  2  1  0  0  0  0
  2  8  1  0  0  0  0
  3 20  1  0  0  0  0
  3  2  2  0  0  0  0
  4  3  1  0  0  0  0
  5  6  1  0  0  0  0
  5  4  2  0  0  0  0
  6  1  2  0  0  0  0
  9 10  2  0  0  0  0
  9  5  1  0  0  0  0
 11 14  1  0  0  0  0
 11 10  1  0  0  0  0
 12 11  1  0  0  0  0
 13 11  1  0  0  0  0
 14 19  1  0  0  0  0
 15 17  1  0  0  0  0
 15 14  2  0  0  0  0
 16 15  1  0  0  0  0
 17 18  2  0  0  0  0
 18 19  1  0  0  0  0
 21 20  1  0  0  0  0
 21 23  1  0  0  0  0
 22 21  1  0  0  0  0
 24 21  1  0  0  0  0
M  END
>  <minimizedAffinity>
-4.50106335

$$$$

 OpenBabel03242520533D

 24 25  0  0  0  0  0  0  0  0999 V2000
   37.0950   31.4400   39.0460 C   0  0  0  0  0  0  0  0  0  0  0  0
   38.0400   32.4590   39.1800 C   0  0  0  0  0  0  0  0  0  0  0  0
   38.8340   32.4960   40.3120 C   0  0  0  0  0  0  0  0  0  0  0  0
   38.6400   31.5310   41.2300 N   0  0  0  0  0  0  0  0  0  0  0  0
   37.7360   30.5610   41.0980 C   0  0  0  0  0  0  0  0  0  0  0  0
   36.9620   30.5100   40.0100 N   0  0  0  0  0  0  0  0  0  0  0  0
   36.4870   31.4430   38.1370 H   0  0  0  0  0  0  0  0  0  0  0  0
   38.2130   33.2380   38.4640 H   0  0  0  0  0  0  0  0  0  0  0  0
   37.5840   29.5350   42.1500 C   0  0  0  0  0  3  0  0  0  0  0  0
   36.8170   28.5000   41.9860 C   0  0  0  0  0  3  0  0  0  0  0  0
   36.6370   27.4540   43.0140 C   0  0  0  0  0  0  0  0  0  0  0  0
   37.0600   27.8280   43.9690 H   0  0  0  0  0  0  0  0  0  0  0  0
   35.5640   27.2130   43.1790 H   0  0  0  0  0  0  0  0  0  0  0  0
   37.3570   26.2740   42.6010 C   0  0  0  0  0  0  0  0  0  0  0  0
   36.9950   25.0920   41.9630 C   0  0  0  0  0  0  0  0  0  0  0  0
   35.9480   25.0230   41.7140 H   0  0  0  0  0  0  0  0  0  0  0  0
   37.9400   24.1560   41.7110 C   0  0  0  0  0  3  0  0  0  0  0  0
   39.2520   24.4140   42.1050 C   0  0  0  0  0  3  0  0  0  0  0  0
   39.1710   26.0950   42.8890 S   0  0  0  0  0  0  0  0  0  0  0  0
   39.8120   33.4370   40.5940 O   0  0  0  0  0  0  0  0  0  0  0  0
   41.1700   33.0470   40.3480 C   0  0  0  0  0  0  0  0  0  0  0  0
   41.8850   34.1540   39.9010 F   0  0  0  0  0  0  0  0  0  0  0  0
   41.7040   32.6160   41.5680 F   0  0  0  0  0  0  0  0  0  0  0  0
   41.2400   31.9940   39.4380 F   0  0  0  0  0  0  0  0  0  0  0  0
  1  2  2  0  0  0  0
  1  6  1  0  0  0  0
  2  3  1  0  0  0  0
  3 20  1  0  0  0  0
  3  4  2  0  0  0  0
  5  4  1  0  0  0  0
  5  9  1  0  0  0  0
  6  5  2  0  0  0  0
  7  1  1  0  0  0  0
  8  2  1  0  0  0  0
 10  9  2  0  0  0  0
 10 11  1  0  0  0  0
 11 13  1  0  0  0  0
 11 12  1  0  0  0  0
 14 19  1  0  0  0  0
 14 11  1  0  0  0  0
 15 14  2  0  0  0  0
 16 15  1  0  0  0  0
 17 15  1  0  0  0  0
 17 18  2  0  0  0  0
 18 19  1  0  0  0  0
 21 20  1  0  0  0  0
 21 23  1  0  0  0  0
 22 21  1  0  0  0  0
 24 21  1  0  0  0  0
M  END
>  <minimizedAffinity>
-4.48813677

$$$$

 OpenBabel03242520533D

 24 25  0  0  0  0  0  0  0  0999 V2000
   36.0100   29.3740   35.2750 C   0  0  0  0  0  0  0  0  0  0  0  0
   34.6980   28.8960   35.2760 C   0  0  0  0  0  0  0  0  0  0  0  0
   34.0120   28.8180   36.4760 C   0  0  0  0  0  0  0  0  0  0  0  0
   34.6650   29.2120   37.5850 N   0  0  0  0  0  0  0  0  0  0  0  0
   35.9190   29.6660   37.5780 C   0  0  0  0  0  0  0  0  0  0  0  0
   36.5950   29.7490   36.4280 N   0  0  0  0  0  0  0  0  0  0  0  0
   36.5190   29.4220   34.3090 H   0  0  0  0  0  0  0  0  0  0  0  0
   34.1560   28.5770   34.4090 H   0  0  0  0  0  0  0  0  0  0  0  0
   36.5680   30.0810   38.8380 C   0  0  0  0  0  3  0  0  0  0  0  0
   35.9200   30.1020   39.9630 C   0  0  0  0  0  3  0  0  0  0  0  0
   36.5340   30.5120   41.2430 C   0  0  0  0  0  0  0  0  0  0  0  0
   37.4040   31.1630   41.0190 H   0  0  0  0  0  0  0  0  0  0  0  0
   35.8240   31.0870   41.8790 H   0  0  0  0  0  0  0  0  0  0  0  0
   36.9850   29.3310   41.9370 C   0  0  0  0  0  0  0  0  0  0  0  0
   36.4550   28.0600   42.1300 C   0  0  0  0  0  0  0  0  0  0  0  0
   35.4940   27.9020   41.6670 H   0  0  0  0  0  0  0  0  0  0  0  0
   37.1530   27.1520   42.8530 C   0  0  0  0  0  3  0  0  0  0  0  0
   38.3870   27.5300   43.3810 C   0  0  0  0  0  3  0  0  0  0  0  0
   38.5990   29.2900   42.8300 S   0  0  0  0  0  0  0  0  0  0  0  0
   32.7110   28.3680   36.6450 O   0  0  0  0  0  0  0  0  0  0  0  0
   31.7170   29.3640   36.9220 C   0  0  0  0  0  0  0  0  0  0  0  0
   31.9720   30.4870   36.1400 F   0  0  0  0  0  0  0  0  0  0  0  0
   30.4770   28.8240   36.5610 F   0  0  0  0  0  0  0  0  0  0  0  0
   31.6820   29.6850   38.2770 F   0  0  0  0  0  0  0  0  0  0  0  0
  1  2  2  0  0  0  0
  1  6  1  0  0  0  0
  2  3  1  0  0  0  0
  3 20  1  0  0  0  0
  3  4  2  0  0  0  0
  5  4  1  0  0  0  0
  5  9  1  0  0  0  0
  6  5  2  0  0  0  0
  7  1  1  0  0  0  0
  8  2  1  0  0  0  0
  9 10  2  0  0  0  0
 10 11  1  0  0  0  0
 11 13  1  0  0  0  0
 11 14  1  0  0  0  0
 12 11  1  0  0  0  0
 14 15  2  0  0  0  0
 14 19  1  0  0  0  0
 15 17  1  0  0  0  0
 16 15  1  0  0  0  0
 17 18  2  0  0  0  0
 19 18  1  0  0  0  0
 20 21  1  0  0  0  0
 21 24  1  0  0  0  0
 22 21  1  0  0  0  0
 23 21  1  0  0  0  0
M  END
>  <minimizedAffinity>
-4.42947626

$$$$
