
 OpenBabel03252507553D

 41 44  0  0  1  0  0  0  0  0999 V2000
   47.1210   34.8040   42.1210 C   0  0  2  0  0  0  0  0  0  0  0  0
   46.3400   34.3660   40.8810 C   0  0  0  0  0  0  0  0  0  0  0  0
   47.5360   34.1880   39.9240 C   0  0  0  0  0  0  0  0  0  0  0  0
   48.6380   33.6500   40.7830 C   0  0  1  0  0  0  0  0  0  0  0  0
   48.1180   33.6790   42.1900 C   0  0  0  0  0  0  0  0  0  0  0  0
   47.5910   35.7640   41.8920 H   0  0  0  0  0  0  0  0  0  0  0  0
   45.8950   33.3790   41.0420 H   0  0  0  0  0  0  0  0  0  0  0  0
   45.6620   35.1420   40.5170 H   0  0  0  0  0  0  0  0  0  0  0  0
   47.8390   35.2060   39.5820 H   0  0  0  0  0  0  0  0  0  0  0  0
   47.2650   33.5140   39.0940 H   0  0  0  0  0  0  0  0  0  0  0  0
   49.5630   34.2670   40.7400 H   0  0  0  0  0  0  0  0  0  0  0  0
   48.9020   33.9780   42.9190 H   0  0  0  0  0  0  0  0  0  0  0  0
   47.5990   32.7470   42.4790 H   0  0  0  0  0  0  0  0  0  0  0  0
   44.5360   35.7980   44.6730 C   0  0  0  0  0  0  0  0  0  0  0  0
   45.2740   35.8400   43.4800 C   0  0  0  0  0  0  0  0  0  0  0  0
   46.2490   34.8610   43.3240 C   0  0  0  0  0  0  0  0  0  0  0  0
   46.4650   33.8940   44.3190 N   0  0  0  0  0  0  0  0  0  0  0  0
   45.7140   33.9140   45.4490 C   0  0  0  0  0  0  0  0  0  0  0  0
   44.7550   34.8630   45.6200 N   0  0  0  0  0  0  0  0  0  0  0  0
   43.7690   36.5500   44.8230 H   0  0  0  0  0  0  0  0  0  0  0  0
   45.1330   36.5650   42.7040 H   0  0  0  0  0  0  0  0  0  0  0  0
   45.9750   33.1220   46.1350 H   0  0  0  0  0  0  0  0  0  0  0  0
   49.0270   32.2210   40.4800 C   0  0  2  0  0  0  0  0  0  0  0  0
   50.0710   31.6530   41.3260 C   0  0  0  0  0  0  0  0  0  0  0  0
   50.3190   31.8900   39.8750 C   0  0  1  0  0  0  0  0  0  0  0  0
   48.1700   31.5770   40.2180 H   0  0  0  0  0  0  0  0  0  0  0  0
   50.5360   32.2730   42.0950 H   0  0  0  0  0  0  0  0  0  0  0  0
   49.9180   30.5980   41.6930 H   0  0  0  0  0  0  0  0  0  0  0  0
   50.9660   32.7280   39.5750 H   0  0  0  0  0  0  0  0  0  0  0  0
   50.3700   30.7600   39.0250 O   0  0  0  0  0  0  0  0  0  0  0  0
   48.6090   31.1420   37.1450 O   0  0  0  0  0  0  0  0  0  0  0  0
   50.0820   31.2660   37.4520 P   0  0  1  0  0  0  0  0  0  0  0  0
   50.4970   32.9250   37.2900 O   0  0  0  0  0  0  0  0  0  0  0  0
   51.4900   32.9850   37.4430 H   0  0  0  0  0  0  0  0  0  0  0  0
   50.9350   30.4530   36.2830 O   0  0  0  0  0  0  0  0  0  0  0  0
   50.2790   30.0630   35.1180 C   0  0  0  0  0  0  0  0  0  0  0  0
   49.6650   28.9570   34.6530 C   0  0  0  0  0  0  0  0  0  0  0  0
   49.6840   28.1530   35.3780 H   0  0  0  0  0  0  0  0  0  0  0  0
   49.1110   28.9190   33.4210 C   0  0  0  0  0  3  0  0  0  0  0  0
   49.2270   30.1100   32.6750 C   0  0  0  0  0  3  0  0  0  0  0  0
   50.1650   31.2490   33.8530 S   0  0  0  0  0  0  0  0  0  0  0  0
  1  6  1  6  0  0  0
  1  5  1  0  0  0  0
  1 16  1  0  0  0  0
  2  7  1  0  0  0  0
  2  1  1  0  0  0  0
  3  4  1  0  0  0  0
  3  2  1  0  0  0  0
  4 11  1  6  0  0  0
  4  5  1  0  0  0  0
  5 13  1  0  0  0  0
  5 12  1  0  0  0  0
  8  2  1  0  0  0  0
  9  3  1  0  0  0  0
 10  3  1  0  0  0  0
 14 20  1  0  0  0  0
 14 19  1  0  0  0  0
 15 14  2  0  0  0  0
 16 15  1  0  0  0  0
 16 17  2  0  0  0  0
 17 18  1  0  0  0  0
 18 19  2  0  0  0  0
 18 22  1  0  0  0  0
 21 15  1  0  0  0  0
 23 26  1  6  0  0  0
 23  4  1  0  0  0  0
 23 24  1  0  0  0  0
 24 28  1  0  0  0  0
 24 27  1  0  0  0  0
 25 29  1  6  0  0  0
 25 23  1  0  0  0  0
 25 24  1  0  0  0  0
 30 25  1  0  0  0  0
 32 31  2  6  0  0  0
 32 30  1  0  0  0  0
 33 34  1  0  0  0  0
 33 32  1  0  0  0  0
 35 32  1  0  0  0  0
 36 35  1  0  0  0  0
 37 36  2  0  0  0  0
 37 38  1  0  0  0  0
 39 37  1  0  0  0  0
 40 39  2  0  0  0  0
 40 41  1  0  0  0  0
 41 36  1  0  0  0  0
M  END
>  <minimizedAffinity>
-4.90448761

>  <minimizedRMSD>
3.46321845

$$$$
