
 OpenBabel03252506423D

 37 40  0  0  1  0  0  0  0  0999 V2000
   49.3990   33.2990   41.5180 N   0  0  1  0  0  0  0  0  0  0  0  0
   50.7120   33.2000   42.1650 C   0  0  0  0  0  0  0  0  0  0  0  0
   51.3870   31.8960   41.8740 C   0  0  0  0  0  0  0  0  0  0  0  0
   50.6330   30.8210   42.6300 C   0  0  0  0  0  0  0  0  0  0  0  0
   49.1630   31.0740   42.5810 C   0  0  0  0  0  0  0  0  0  0  0  0
   48.8190   31.9850   41.4100 C   0  0  2  0  0  0  0  0  0  0  0  0
   50.5690   33.2470   43.2810 H   0  0  0  0  0  0  0  0  0  0  0  0
   51.3270   34.0880   41.9070 H   0  0  0  0  0  0  0  0  0  0  0  0
   51.5250   31.6970   40.8120 H   0  0  0  0  0  0  0  0  0  0  0  0
   52.4040   31.9670   42.3140 H   0  0  0  0  0  0  0  0  0  0  0  0
   50.9370   30.8860   43.7120 H   0  0  0  0  0  0  0  0  0  0  0  0
   50.9520   29.8340   42.2830 H   0  0  0  0  0  0  0  0  0  0  0  0
   48.8070   31.6160   43.4790 H   0  0  0  0  0  0  0  0  0  0  0  0
   48.5760   30.1400   42.4010 H   0  0  0  0  0  0  0  0  0  0  0  0
   47.7210   32.1390   41.5090 H   0  0  0  0  0  0  0  0  0  0  0  0
   47.2150   34.5690   42.0250 C   0  0  1  0  0  0  0  0  0  0  0  0
   48.3020   35.5100   41.7150 C   0  0  0  0  0  0  0  0  0  0  0  0
   48.6340   34.1970   42.3180 C   0  0  2  0  0  0  0  0  0  0  0  0
   46.7600   34.0570   41.1540 H   0  0  0  0  0  0  0  0  0  0  0  0
   48.3790   36.4290   42.3450 H   0  0  0  0  0  0  0  0  0  0  0  0
   48.5670   35.7250   40.6430 H   0  0  0  0  0  0  0  0  0  0  0  0
   48.9160   34.2470   43.4100 H   0  0  0  0  0  0  0  0  0  0  0  0
   45.5150   36.0250   43.1720 C   0  0  0  0  0  0  0  0  0  0  0  0
   46.2980   34.8540   43.1600 C   0  0  0  0  0  0  0  0  0  0  0  0
   46.1740   33.9670   44.2430 C   0  0  0  0  0  0  0  0  0  0  0  0
   45.3110   34.2870   45.2420 N   0  0  0  0  0  0  0  0  0  0  0  0
   44.5720   35.4270   45.2190 C   0  0  0  0  0  0  0  0  0  0  0  0
   44.6700   36.3080   44.1810 N   0  0  0  0  0  0  0  0  0  0  0  0
   45.6560   36.6640   42.3120 H   0  0  0  0  0  0  0  0  0  0  0  0
   46.7640   33.0550   44.2640 H   0  0  0  0  0  0  0  0  0  0  0  0
   43.8850   35.6830   46.0120 H   0  0  0  0  0  0  0  0  0  0  0  0
   49.0650   31.3230   40.1220 C   0  0  0  0  0  0  0  0  0  0  0  0
   49.5640   31.7530   38.9770 C   0  0  0  0  0  0  0  0  0  0  0  0
   49.8750   32.7840   38.9000 H   0  0  0  0  0  0  0  0  0  0  0  0
   49.6780   30.8930   37.9210 C   0  0  0  0  0  3  0  0  0  0  0  0
   49.2580   29.5890   38.0970 C   0  0  0  0  0  3  0  0  0  0  0  0
   48.6420   29.5160   39.8910 S   0  0  0  0  0  0  0  0  0  0  0  0
  1  2  1  1  0  0  0
  1 18  1  0  0  0  0
  2  7  1  0  0  0  0
  3  2  1  0  0  0  0
  3 10  1  0  0  0  0
  3  4  1  0  0  0  0
  4 11  1  0  0  0  0
  5  4  1  0  0  0  0
  5 13  1  0  0  0  0
  6 15  1  1  0  0  0
  6  1  1  0  0  0  0
  6  5  1  0  0  0  0
  8  2  1  0  0  0  0
  9  3  1  0  0  0  0
 12  4  1  0  0  0  0
 14  5  1  0  0  0  0
 16 19  1  6  0  0  0
 16 18  1  0  0  0  0
 16 24  1  0  0  0  0
 17 16  1  0  0  0  0
 17 18  1  0  0  0  0
 17 20  1  0  0  0  0
 18 22  1  1  0  0  0
 21 17  1  0  0  0  0
 23 28  1  0  0  0  0
 24 23  2  0  0  0  0
 24 25  1  0  0  0  0
 25 30  1  0  0  0  0
 25 26  2  0  0  0  0
 27 26  1  0  0  0  0
 27 31  1  0  0  0  0
 28 27  2  0  0  0  0
 29 23  1  0  0  0  0
 32  6  1  0  0  0  0
 33 32  2  0  0  0  0
 34 33  1  0  0  0  0
 35 36  2  0  0  0  0
 35 33  1  0  0  0  0
 36 37  1  0  0  0  0
 37 32  1  0  0  0  0
M  END
>  <minimizedAffinity>
-4.70766878

>  <minimizedRMSD>
0.181229606

$$$$
