
 OpenBabel03252502373D

 21 22  0  0  1  0  0  0  0  0999 V2000
   36.9410   27.3260   42.5740 C   0  0  1  0  0  0  0  0  0  0  0  0
   36.0270   27.0700   43.1460 H   0  0  0  0  0  0  0  0  0  0  0  0
   37.4710   29.6430   42.0340 C   0  0  0  0  0  0  0  0  0  0  0  0
   36.6800   28.5200   41.8030 C   0  0  0  0  0  0  0  0  0  0  0  0
   35.6790   28.6350   40.8290 C   0  0  0  0  0  0  0  0  0  0  0  0
   35.5560   29.8320   40.1840 N   0  0  0  0  0  0  0  0  0  0  0  0
   36.3270   30.8940   40.4240 C   0  0  0  0  0  0  0  0  0  0  0  0
   37.3000   30.8020   41.3630 N   0  0  0  0  0  0  0  0  0  0  0  0
   38.2520   29.5940   42.7770 H   0  0  0  0  0  0  0  0  0  0  0  0
   35.0540   27.7960   40.6230 H   0  0  0  0  0  0  0  0  0  0  0  0
   36.0450   31.7260   39.7960 H   0  0  0  0  0  0  0  0  0  0  0  0
   37.3870   26.2210   41.7980 C   0  0  0  0  0  0  0  0  0  0  0  0
   36.8630   24.8660   42.0400 C   0  0  0  0  0  0  0  0  0  0  0  0
   36.1420   24.4560   42.7230 H   0  0  0  0  0  0  0  0  0  0  0  0
   37.3050   23.8320   41.3000 C   0  0  0  0  0  3  0  0  0  0  0  0
   38.3590   24.1530   40.2220 C   0  0  0  0  0  3  0  0  0  0  0  0
   38.5420   26.0440   40.4870 S   0  0  0  0  0  0  0  0  0  0  0  0
   37.9510   27.7110   43.6760 C   0  0  0  0  0  0  0  0  0  0  0  0
   38.8940   28.0180   43.2320 H   0  0  0  0  0  0  0  0  0  0  0  0
   37.4900   28.4720   44.2980 H   0  0  0  0  0  0  0  0  0  0  0  0
   38.1380   26.7880   44.2740 H   0  0  0  0  0  0  0  0  0  0  0  0
  1  2  1  1  0  0  0
  1 18  1  0  0  0  0
  3  9  1  0  0  0  0
  4  3  1  0  0  0  0
  4  1  1  0  0  0  0
  5  4  2  0  0  0  0
  6  7  2  0  0  0  0
  6  5  1  0  0  0  0
  7  8  1  0  0  0  0
  8  3  2  0  0  0  0
 10  5  1  0  0  0  0
 11  7  1  0  0  0  0
 12 13  2  0  0  0  0
 12  1  1  0  0  0  0
 13 14  1  0  0  0  0
 15 13  1  0  0  0  0
 16 17  1  0  0  0  0
 16 15  2  0  0  0  0
 17 12  1  0  0  0  0
 18 21  1  0  0  0  0
 18 20  1  0  0  0  0
 19 18  1  0  0  0  0
M  END
>  <minimizedAffinity>
-4.17579794

$$$$

 OpenBabel03252502373D

 21 22  0  0  1  0  0  0  0  0999 V2000
   37.7080   27.8740   43.5800 C   0  0  1  0  0  0  0  0  0  0  0  0
   37.9460   28.1430   44.6280 H   0  0  0  0  0  0  0  0  0  0  0  0
   39.8170   26.6580   43.6800 C   0  0  0  0  0  0  0  0  0  0  0  0
   38.5090   26.7320   43.2060 C   0  0  0  0  0  0  0  0  0  0  0  0
   38.0660   25.6800   42.3930 C   0  0  0  0  0  0  0  0  0  0  0  0
   38.9440   24.6690   42.1290 N   0  0  0  0  0  0  0  0  0  0  0  0
   40.1940   24.6220   42.5950 C   0  0  0  0  0  0  0  0  0  0  0  0
   40.6410   25.6300   43.3820 N   0  0  0  0  0  0  0  0  0  0  0  0
   40.1960   27.4500   44.3090 H   0  0  0  0  0  0  0  0  0  0  0  0
   37.0700   25.7000   42.0120 H   0  0  0  0  0  0  0  0  0  0  0  0
   40.7000   23.7300   42.2540 H   0  0  0  0  0  0  0  0  0  0  0  0
   37.8560   28.9940   42.7160 C   0  0  0  0  0  0  0  0  0  0  0  0
   36.7650   29.4040   41.8160 C   0  0  0  0  0  0  0  0  0  0  0  0
   35.7720   29.0390   41.6320 H   0  0  0  0  0  0  0  0  0  0  0  0
   36.9300   30.4620   41.0000 C   0  0  0  0  0  3  0  0  0  0  0  0
   38.2890   31.1860   41.0690 C   0  0  0  0  0  3  0  0  0  0  0  0
   39.1620   30.1270   42.4100 S   0  0  0  0  0  0  0  0  0  0  0  0
   36.2450   27.3910   43.6650 C   0  0  0  0  0  0  0  0  0  0  0  0
   35.8990   27.0630   42.6880 H   0  0  0  0  0  0  0  0  0  0  0  0
   36.1920   26.6230   44.4310 H   0  0  0  0  0  0  0  0  0  0  0  0
   35.6340   28.2750   43.9660 H   0  0  0  0  0  0  0  0  0  0  0  0
  1 18  1  0  0  0  0
  1  2  1  1  0  0  0
  3  9  1  0  0  0  0
  4  1  1  0  0  0  0
  4  3  2  0  0  0  0
  5  4  1  0  0  0  0
  6  5  2  0  0  0  0
  6  7  1  0  0  0  0
  7  8  2  0  0  0  0
  8  3  1  0  0  0  0
 10  5  1  0  0  0  0
 11  7  1  0  0  0  0
 12  1  1  0  0  0  0
 13 12  2  0  0  0  0
 14 13  1  0  0  0  0
 15 16  2  0  0  0  0
 15 13  1  0  0  0  0
 16 17  1  0  0  0  0
 17 12  1  0  0  0  0
 18 21  1  0  0  0  0
 18 20  1  0  0  0  0
 19 18  1  0  0  0  0
M  END
>  <minimizedAffinity>
-4.03540325

$$$$

 OpenBabel03252502373D

 21 22  0  0  1  0  0  0  0  0999 V2000
   35.8530   30.1400   40.4810 C   0  0  1  0  0  0  0  0  0  0  0  0
   35.3260   30.9550   41.0170 H   0  0  0  0  0  0  0  0  0  0  0  0
   36.3890   28.1520   41.7840 C   0  0  0  0  0  0  0  0  0  0  0  0
   36.7130   29.4560   41.4180 C   0  0  0  0  0  0  0  0  0  0  0  0
   37.8640   30.0120   41.9930 C   0  0  0  0  0  0  0  0  0  0  0  0
   38.5750   29.2380   42.8640 N   0  0  0  0  0  0  0  0  0  0  0  0
   38.2420   27.9890   43.1990 C   0  0  0  0  0  0  0  0  0  0  0  0
   37.1330   27.4350   42.6530 N   0  0  0  0  0  0  0  0  0  0  0  0
   35.5090   27.6900   41.3620 H   0  0  0  0  0  0  0  0  0  0  0  0
   38.1460   31.0070   41.7360 H   0  0  0  0  0  0  0  0  0  0  0  0
   38.9510   27.5770   43.9030 H   0  0  0  0  0  0  0  0  0  0  0  0
   36.5260   30.6340   39.3290 C   0  0  0  0  0  0  0  0  0  0  0  0
   36.6970   29.7930   38.1330 C   0  0  0  0  0  0  0  0  0  0  0  0
   36.4020   28.7920   37.8760 H   0  0  0  0  0  0  0  0  0  0  0  0
   37.3460   30.2780   37.0580 C   0  0  0  0  0  3  0  0  0  0  0  0
   37.8770   31.7210   37.1620 C   0  0  0  0  0  3  0  0  0  0  0  0
   37.3010   32.1610   38.9370 S   0  0  0  0  0  0  0  0  0  0  0  0
   34.7130   29.1650   40.1170 C   0  0  0  0  0  0  0  0  0  0  0  0
   35.1130   28.2920   39.6070 H   0  0  0  0  0  0  0  0  0  0  0  0
   34.1720   28.9310   41.0300 H   0  0  0  0  0  0  0  0  0  0  0  0
   34.0460   29.7040   39.4040 H   0  0  0  0  0  0  0  0  0  0  0  0
  1  2  1  1  0  0  0
  1  4  1  0  0  0  0
  3  8  1  0  0  0  0
  4  3  2  0  0  0  0
  4  5  1  0  0  0  0
  5  6  2  0  0  0  0
  6  7  1  0  0  0  0
  7 11  1  0  0  0  0
  8  7  2  0  0  0  0
  9  3  1  0  0  0  0
 10  5  1  0  0  0  0
 12  1  1  0  0  0  0
 13 12  2  0  0  0  0
 14 13  1  0  0  0  0
 15 16  2  0  0  0  0
 15 13  1  0  0  0  0
 16 17  1  0  0  0  0
 17 12  1  0  0  0  0
 18  1  1  0  0  0  0
 18 20  1  0  0  0  0
 19 18  1  0  0  0  0
 21 18  1  0  0  0  0
M  END
>  <minimizedAffinity>
-3.99220991

$$$$

 OpenBabel03252502373D

 21 22  0  0  1  0  0  0  0  0999 V2000
   37.5860   28.0270   43.2560 C   0  0  1  0  0  0  0  0  0  0  0  0
   37.8570   28.6560   44.1280 H   0  0  0  0  0  0  0  0  0  0  0  0
   38.1620   25.7870   42.4890 C   0  0  0  0  0  0  0  0  0  0  0  0
   38.5430   26.9500   43.1540 C   0  0  0  0  0  0  0  0  0  0  0  0
   39.8420   26.9860   43.6800 C   0  0  0  0  0  0  0  0  0  0  0  0
   40.6300   25.8860   43.5010 N   0  0  0  0  0  0  0  0  0  0  0  0
   40.2400   24.7830   42.8590 C   0  0  0  0  0  0  0  0  0  0  0  0
   38.9890   24.7280   42.3450 N   0  0  0  0  0  0  0  0  0  0  0  0
   37.1690   25.7200   42.0710 H   0  0  0  0  0  0  0  0  0  0  0  0
   40.1710   27.8600   44.1950 H   0  0  0  0  0  0  0  0  0  0  0  0
   41.0300   24.0460   42.8440 H   0  0  0  0  0  0  0  0  0  0  0  0
   37.4670   28.8100   42.0750 C   0  0  0  0  0  0  0  0  0  0  0  0
   36.2100   28.8350   41.3080 C   0  0  0  0  0  0  0  0  0  0  0  0
   35.2510   28.3670   41.4320 H   0  0  0  0  0  0  0  0  0  0  0  0
   36.1220   29.5760   40.1880 C   0  0  0  0  0  3  0  0  0  0  0  0
   37.3800   30.3670   39.7790 C   0  0  0  0  0  3  0  0  0  0  0  0
   38.5670   29.8620   41.1990 S   0  0  0  0  0  0  0  0  0  0  0  0
   36.2420   27.3990   43.6800 C   0  0  0  0  0  0  0  0  0  0  0  0
   35.8820   26.7230   42.9080 H   0  0  0  0  0  0  0  0  0  0  0  0
   36.3860   26.9250   44.6470 H   0  0  0  0  0  0  0  0  0  0  0  0
   35.5120   28.2380   43.7690 H   0  0  0  0  0  0  0  0  0  0  0  0
  1 18  1  0  0  0  0
  1  2  1  1  0  0  0
  3  4  1  0  0  0  0
  4  1  1  0  0  0  0
  4  5  2  0  0  0  0
  5 10  1  0  0  0  0
  6  5  1  0  0  0  0
  7  6  2  0  0  0  0
  8  3  2  0  0  0  0
  8  7  1  0  0  0  0
  9  3  1  0  0  0  0
 11  7  1  0  0  0  0
 12  1  1  0  0  0  0
 13 14  1  0  0  0  0
 13 12  2  0  0  0  0
 15 13  1  0  0  0  0
 16 15  2  0  0  0  0
 16 17  1  0  0  0  0
 17 12  1  0  0  0  0
 18 21  1  0  0  0  0
 18 20  1  0  0  0  0
 19 18  1  0  0  0  0
M  END
>  <minimizedAffinity>
-3.92261457

$$$$

 OpenBabel03252502373D

 21 22  0  0  1  0  0  0  0  0999 V2000
   36.4320   28.9670   40.0460 C   0  0  1  0  0  0  0  0  0  0  0  0
   36.5090   28.3120   39.1550 H   0  0  0  0  0  0  0  0  0  0  0  0
   36.9240   31.2730   40.6610 C   0  0  0  0  0  0  0  0  0  0  0  0
   36.8130   30.3080   39.6640 C   0  0  0  0  0  0  0  0  0  0  0  0
   37.0810   30.7150   38.3500 C   0  0  0  0  0  0  0  0  0  0  0  0
   37.4290   32.0190   38.1490 N   0  0  0  0  0  0  0  0  0  0  0  0
   37.5290   32.9260   39.1230 C   0  0  0  0  0  0  0  0  0  0  0  0
   37.2720   32.5520   40.3990 N   0  0  0  0  0  0  0  0  0  0  0  0
   36.7240   30.9990   41.6860 H   0  0  0  0  0  0  0  0  0  0  0  0
   37.0080   30.0030   37.5590 H   0  0  0  0  0  0  0  0  0  0  0  0
   37.8160   33.8890   38.7260 H   0  0  0  0  0  0  0  0  0  0  0  0
   37.1790   28.4410   41.1360 C   0  0  0  0  0  0  0  0  0  0  0  0
   36.5050   27.9670   42.3560 C   0  0  0  0  0  0  0  0  0  0  0  0
   35.4770   27.9010   42.6640 H   0  0  0  0  0  0  0  0  0  0  0  0
   37.2320   27.4810   43.3800 C   0  0  0  0  0  3  0  0  0  0  0  0
   38.7620   27.4570   43.1930 C   0  0  0  0  0  3  0  0  0  0  0  0
   38.8940   28.2000   41.4300 S   0  0  0  0  0  0  0  0  0  0  0  0
   34.9170   28.9920   40.3340 C   0  0  0  0  0  0  0  0  0  0  0  0
   34.7050   29.6390   41.1820 H   0  0  0  0  0  0  0  0  0  0  0  0
   34.4090   29.2850   39.4200 H   0  0  0  0  0  0  0  0  0  0  0  0
   34.6280   27.9520   40.6160 H   0  0  0  0  0  0  0  0  0  0  0  0
  1  2  1  6  0  0  0
  1 18  1  0  0  0  0
  1 12  1  0  0  0  0
  3  9  1  0  0  0  0
  4  1  1  0  0  0  0
  4  3  2  0  0  0  0
  5  4  1  0  0  0  0
  6  5  2  0  0  0  0
  6  7  1  0  0  0  0
  7  8  2  0  0  0  0
  8  3  1  0  0  0  0
 10  5  1  0  0  0  0
 11  7  1  0  0  0  0
 12 17  1  0  0  0  0
 12 13  2  0  0  0  0
 13 14  1  0  0  0  0
 13 15  1  0  0  0  0
 16 15  2  0  0  0  0
 17 16  1  0  0  0  0
 18 21  1  0  0  0  0
 18 19  1  0  0  0  0
 20 18  1  0  0  0  0
M  END
>  <minimizedAffinity>
-3.91228032

$$$$

 OpenBabel03252502373D

 21 22  0  0  1  0  0  0  0  0999 V2000
   38.7980   26.1580   43.1420 C   0  0  1  0  0  0  0  0  0  0  0  0
   38.1430   26.0320   44.0260 H   0  0  0  0  0  0  0  0  0  0  0  0
   37.9560   28.4230   42.8270 C   0  0  0  0  0  0  0  0  0  0  0  0
   39.0480   27.5690   42.9540 C   0  0  0  0  0  0  0  0  0  0  0  0
   40.3220   28.1500   42.8880 C   0  0  0  0  0  0  0  0  0  0  0  0
   40.3940   29.5000   42.7050 N   0  0  0  0  0  0  0  0  0  0  0  0
   39.3310   30.2980   42.5870 C   0  0  0  0  0  0  0  0  0  0  0  0
   38.0920   29.7550   42.6470 N   0  0  0  0  0  0  0  0  0  0  0  0
   36.9580   28.0130   42.8720 H   0  0  0  0  0  0  0  0  0  0  0  0
   41.1830   27.5280   42.9810 H   0  0  0  0  0  0  0  0  0  0  0  0
   39.6330   31.3260   42.4490 H   0  0  0  0  0  0  0  0  0  0  0  0
   38.2500   25.5100   42.0010 C   0  0  0  0  0  0  0  0  0  0  0  0
   37.0270   24.6970   42.1070 C   0  0  0  0  0  0  0  0  0  0  0  0
   36.3640   24.4490   42.9150 H   0  0  0  0  0  0  0  0  0  0  0  0
   36.5310   24.0840   41.0160 C   0  0  0  0  0  3  0  0  0  0  0  0
   37.3040   24.2840   39.6970 C   0  0  0  0  0  3  0  0  0  0  0  0
   38.7260   25.4130   40.3130 S   0  0  0  0  0  0  0  0  0  0  0  0
   40.1280   25.5200   43.5940 C   0  0  0  0  0  0  0  0  0  0  0  0
   40.8760   25.6110   42.8110 H   0  0  0  0  0  0  0  0  0  0  0  0
   40.4170   25.9830   44.5340 H   0  0  0  0  0  0  0  0  0  0  0  0
   39.9240   24.4340   43.7500 H   0  0  0  0  0  0  0  0  0  0  0  0
  1 18  1  0  0  0  0
  1  2  1  1  0  0  0
  3  9  1  0  0  0  0
  3  4  1  0  0  0  0
  4  1  1  0  0  0  0
  5  4  2  0  0  0  0
  5 10  1  0  0  0  0
  6  5  1  0  0  0  0
  7  8  1  0  0  0  0
  7  6  2  0  0  0  0
  8  3  2  0  0  0  0
 11  7  1  0  0  0  0
 12 13  2  0  0  0  0
 12  1  1  0  0  0  0
 13 14  1  0  0  0  0
 15 13  1  0  0  0  0
 16 17  1  0  0  0  0
 16 15  2  0  0  0  0
 17 12  1  0  0  0  0
 18 21  1  0  0  0  0
 18 20  1  0  0  0  0
 19 18  1  0  0  0  0
M  END
>  <minimizedAffinity>
-3.72208524

$$$$

 OpenBabel03252502373D

 21 22  0  0  1  0  0  0  0  0999 V2000
   37.7160   29.9930   39.8600 C   0  0  1  0  0  0  0  0  0  0  0  0
   38.3060   29.3730   39.1550 H   0  0  0  0  0  0  0  0  0  0  0  0
   37.4420   32.3940   40.1680 C   0  0  0  0  0  0  0  0  0  0  0  0
   38.2840   31.3210   39.8900 C   0  0  0  0  0  0  0  0  0  0  0  0
   39.6340   31.6150   39.6570 C   0  0  0  0  0  0  0  0  0  0  0  0
   40.0190   32.9220   39.7200 N   0  0  0  0  0  0  0  0  0  0  0  0
   39.1910   33.9340   39.9880 C   0  0  0  0  0  0  0  0  0  0  0  0
   37.8820   33.6700   40.2160 N   0  0  0  0  0  0  0  0  0  0  0  0
   36.3940   32.2080   40.3530 H   0  0  0  0  0  0  0  0  0  0  0  0
   40.3110   30.8190   39.4420 H   0  0  0  0  0  0  0  0  0  0  0  0
   39.7190   34.8770   39.9840 H   0  0  0  0  0  0  0  0  0  0  0  0
   37.6270   29.3720   41.1370 C   0  0  0  0  0  0  0  0  0  0  0  0
   36.6340   28.3160   41.3970 C   0  0  0  0  0  0  0  0  0  0  0  0
   35.8830   27.8340   40.7990 H   0  0  0  0  0  0  0  0  0  0  0  0
   36.5610   27.7480   42.6150 C   0  0  0  0  0  3  0  0  0  0  0  0
   37.5510   28.2610   43.6800 C   0  0  0  0  0  3  0  0  0  0  0  0
   38.4900   29.5810   42.6520 S   0  0  0  0  0  0  0  0  0  0  0  0
   36.3420   30.1030   39.1670 C   0  0  0  0  0  0  0  0  0  0  0  0
   35.6720   30.7240   39.7550 H   0  0  0  0  0  0  0  0  0  0  0  0
   36.5070   30.4680   38.1570 H   0  0  0  0  0  0  0  0  0  0  0  0
   35.9160   29.0720   39.1370 H   0  0  0  0  0  0  0  0  0  0  0  0
  1  2  1  6  0  0  0
  1  4  1  0  0  0  0
  1 12  1  0  0  0  0
  3  8  1  0  0  0  0
  3  9  1  0  0  0  0
  4  3  2  0  0  0  0
  5  6  2  0  0  0  0
  5  4  1  0  0  0  0
  6  7  1  0  0  0  0
  7  8  2  0  0  0  0
 10  5  1  0  0  0  0
 11  7  1  0  0  0  0
 12 13  2  0  0  0  0
 12 17  1  0  0  0  0
 13 15  1  0  0  0  0
 14 13  1  0  0  0  0
 15 16  2  0  0  0  0
 17 16  1  0  0  0  0
 18 19  1  0  0  0  0
 18  1  1  0  0  0  0
 20 18  1  0  0  0  0
 21 18  1  0  0  0  0
M  END
>  <minimizedAffinity>
-3.7204833

$$$$

 OpenBabel03252502373D

 21 22  0  0  1  0  0  0  0  0999 V2000
   37.9240   26.9470   43.2490 C   0  0  1  0  0  0  0  0  0  0  0  0
   38.2050   26.3100   44.1110 H   0  0  0  0  0  0  0  0  0  0  0  0
   38.0990   24.7690   42.1700 C   0  0  0  0  0  0  0  0  0  0  0  0
   37.6720   26.0930   42.1110 C   0  0  0  0  0  0  0  0  0  0  0  0
   37.0220   26.5000   40.9380 C   0  0  0  0  0  0  0  0  0  0  0  0
   36.8590   25.5750   39.9490 N   0  0  0  0  0  0  0  0  0  0  0  0
   37.2780   24.3110   40.0300 C   0  0  0  0  0  0  0  0  0  0  0  0
   37.9090   23.8980   41.1560 N   0  0  0  0  0  0  0  0  0  0  0  0
   38.6040   24.4160   43.0570 H   0  0  0  0  0  0  0  0  0  0  0  0
   36.6790   27.5070   40.8560 H   0  0  0  0  0  0  0  0  0  0  0  0
   37.0400   23.7660   39.1280 H   0  0  0  0  0  0  0  0  0  0  0  0
   38.9020   27.9520   43.0130 C   0  0  0  0  0  0  0  0  0  0  0  0
   38.5120   29.3630   42.8530 C   0  0  0  0  0  0  0  0  0  0  0  0
   37.5740   29.8870   42.8820 H   0  0  0  0  0  0  0  0  0  0  0  0
   39.4530   30.2980   42.6220 C   0  0  0  0  0  3  0  0  0  0  0  0
   40.9120   29.8060   42.5380 C   0  0  0  0  0  3  0  0  0  0  0  0
   40.6490   27.9300   42.8320 S   0  0  0  0  0  0  0  0  0  0  0  0
   36.5670   27.5410   43.6790 C   0  0  0  0  0  0  0  0  0  0  0  0
   36.1640   28.1700   42.8890 H   0  0  0  0  0  0  0  0  0  0  0  0
   35.9160   26.7170   43.9580 H   0  0  0  0  0  0  0  0  0  0  0  0
   36.7670   28.1890   44.5640 H   0  0  0  0  0  0  0  0  0  0  0  0
  1 18  1  0  0  0  0
  1  2  1  1  0  0  0
  3  9  1  0  0  0  0
  4  3  1  0  0  0  0
  4  1  1  0  0  0  0
  5  4  2  0  0  0  0
  6  7  2  0  0  0  0
  6  5  1  0  0  0  0
  7  8  1  0  0  0  0
  8  3  2  0  0  0  0
 10  5  1  0  0  0  0
 11  7  1  0  0  0  0
 12  1  1  0  0  0  0
 13 14  1  0  0  0  0
 13 12  2  0  0  0  0
 15 13  1  0  0  0  0
 16 15  2  0  0  0  0
 16 17  1  0  0  0  0
 17 12  1  0  0  0  0
 18 20  1  0  0  0  0
 18 21  1  0  0  0  0
 19 18  1  0  0  0  0
M  END
>  <minimizedAffinity>
-3.71419263

$$$$

 OpenBabel03252502373D

 21 22  0  0  1  0  0  0  0  0999 V2000
   37.4920   25.2820   42.1920 C   0  0  1  0  0  0  0  0  0  0  0  0
   36.8060   24.9530   42.9980 H   0  0  0  0  0  0  0  0  0  0  0  0
   37.0120   27.5090   43.0570 C   0  0  0  0  0  0  0  0  0  0  0  0
   37.9250   26.6300   42.4800 C   0  0  0  0  0  0  0  0  0  0  0  0
   39.2100   27.1260   42.2200 C   0  0  0  0  0  0  0  0  0  0  0  0
   39.4670   28.4250   42.5500 N   0  0  0  0  0  0  0  0  0  0  0  0
   38.5730   29.2480   43.1020 C   0  0  0  0  0  0  0  0  0  0  0  0
   37.3260   28.7870   43.3610 N   0  0  0  0  0  0  0  0  0  0  0  0
   36.0110   27.1640   43.2720 H   0  0  0  0  0  0  0  0  0  0  0  0
   39.9370   26.4820   41.7800 H   0  0  0  0  0  0  0  0  0  0  0  0
   39.0020   30.2250   43.2730 H   0  0  0  0  0  0  0  0  0  0  0  0
   36.8910   25.1280   40.9120 C   0  0  0  0  0  0  0  0  0  0  0  0
   36.2410   23.8630   40.5290 C   0  0  0  0  0  0  0  0  0  0  0  0
   36.0780   22.9260   41.0280 H   0  0  0  0  0  0  0  0  0  0  0  0
   35.6870   23.7360   39.3080 C   0  0  0  0  0  3  0  0  0  0  0  0
   35.7770   24.9590   38.3750 C   0  0  0  0  0  3  0  0  0  0  0  0
   36.7230   26.1780   39.5140 S   0  0  0  0  0  0  0  0  0  0  0  0
   38.7180   24.3640   42.3760 C   0  0  0  0  0  0  0  0  0  0  0  0
   39.4890   24.6140   41.6520 H   0  0  0  0  0  0  0  0  0  0  0  0
   39.0420   24.4460   43.4100 H   0  0  0  0  0  0  0  0  0  0  0  0
   38.3730   23.3240   42.1640 H   0  0  0  0  0  0  0  0  0  0  0  0
  1 18  1  0  0  0  0
  1  4  1  0  0  0  0
  1  2  1  1  0  0  0
  3  9  1  0  0  0  0
  3  8  1  0  0  0  0
  4  3  2  0  0  0  0
  5  4  1  0  0  0  0
  5  6  2  0  0  0  0
  6  7  1  0  0  0  0
  7 11  1  0  0  0  0
  7  8  2  0  0  0  0
 10  5  1  0  0  0  0
 12  1  1  0  0  0  0
 13 12  2  0  0  0  0
 13 14  1  0  0  0  0
 15 13  1  0  0  0  0
 16 15  2  0  0  0  0
 16 17  1  0  0  0  0
 17 12  1  0  0  0  0
 18 20  1  0  0  0  0
 19 18  1  0  0  0  0
 21 18  1  0  0  0  0
M  END
>  <minimizedAffinity>
-3.66866755

$$$$
