
 OpenBabel03252500113D

 28 30  0  0  0  0  0  0  0  0999 V2000
   39.4340   27.3360   40.2660 Cl  0  0  0  0  0  0  0  0  0  0  0  0
   38.3250   27.4100   41.5940 C   0  0  0  0  0  0  0  0  0  0  0  0
   38.2410   28.5390   42.3690 C   0  0  0  0  0  0  0  0  0  0  0  0
   37.3550   28.6120   43.4390 C   0  0  0  0  0  0  0  0  0  0  0  0
   36.5820   27.5130   43.6760 C   0  0  0  0  0  0  0  0  0  0  0  0
   36.6630   26.3930   42.9100 C   0  0  0  0  0  0  0  0  0  0  0  0
   37.5260   26.3280   41.8700 C   0  0  0  0  0  0  0  0  0  0  0  0
   37.3510   29.5230   43.9920 H   0  0  0  0  0  0  0  0  0  0  0  0
   35.9130   27.6240   44.5180 H   0  0  0  0  0  0  0  0  0  0  0  0
   35.9770   25.6180   43.2390 H   0  0  0  0  0  0  0  0  0  0  0  0
   41.1880   30.7280   42.1160 C   0  0  0  0  0  0  0  0  0  0  0  0
   40.6670   31.8620   41.4670 C   0  0  0  0  0  0  0  0  0  0  0  0
   39.3100   31.8590   41.1250 C   0  0  0  0  0  0  0  0  0  0  0  0
   38.5570   30.7720   41.4300 N   0  0  0  0  0  0  0  0  0  0  0  0
   39.0960   29.6800   42.0630 C   0  0  0  0  0  0  0  0  0  0  0  0
   40.3960   29.6850   42.3900 N   0  0  0  0  0  0  0  0  0  0  0  0
   42.2270   30.8150   42.3380 H   0  0  0  0  0  0  0  0  0  0  0  0
   41.1430   32.7700   41.1750 H   0  0  0  0  0  0  0  0  0  0  0  0
   38.6360   33.0120   40.4300 C   0  0  0  0  0  0  0  0  0  0  0  0
   39.1950   33.2210   39.1960 F   0  0  0  0  0  0  0  0  0  0  0  0
   37.2930   32.7210   40.2920 F   0  0  0  0  0  0  0  0  0  0  0  0
   38.7960   34.1090   41.2400 F   0  0  0  0  0  0  0  0  0  0  0  0
   37.5710   25.0880   41.0750 C   0  0  0  0  0  0  0  0  0  0  0  0
   38.1950   23.8430   41.1460 C   0  0  0  0  0  0  0  0  0  0  0  0
   38.8470   23.5990   41.9510 H   0  0  0  0  0  0  0  0  0  0  0  0
   37.9250   22.9760   40.1390 C   0  0  0  0  0  3  0  0  0  0  0  0
   37.1110   23.2910   39.1380 C   0  0  0  0  0  3  0  0  0  0  0  0
   36.5590   25.0070   39.5040 S   0  0  0  0  0  0  0  0  0  0  0  0
  1  2  1  0  0  0  0
  2  7  2  0  0  0  0
  2  3  1  0  0  0  0
  3  4  2  0  0  0  0
  4  5  1  0  0  0  0
  4  8  1  0  0  0  0
  5  9  1  0  0  0  0
  6 10  1  0  0  0  0
  6  5  2  0  0  0  0
  7  6  1  0  0  0  0
 11 17  1  0  0  0  0
 11 16  1  0  0  0  0
 12 11  2  0  0  0  0
 13 14  2  0  0  0  0
 13 12  1  0  0  0  0
 14 15  1  0  0  0  0
 15  3  1  0  0  0  0
 15 16  2  0  0  0  0
 18 12  1  0  0  0  0
 19 13  1  0  0  0  0
 19 22  1  0  0  0  0
 20 19  1  0  0  0  0
 21 19  1  0  0  0  0
 23 24  2  0  0  0  0
 23  7  1  0  0  0  0
 24 25  1  0  0  0  0
 26 24  1  0  0  0  0
 27 28  1  0  0  0  0
 27 26  2  0  0  0  0
 28 23  1  0  0  0  0
M  END
>  <minimizedAffinity>
-5.4638133

$$$$

 OpenBabel03252500113D

 28 30  0  0  0  0  0  0  0  0999 V2000
   40.5480   30.1240   39.9790 Cl  0  0  0  0  0  0  0  0  0  0  0  0
   39.3030   31.3270   39.9200 C   0  0  0  0  0  0  0  0  0  0  0  0
   37.9810   30.9630   39.9550 C   0  0  0  0  0  0  0  0  0  0  0  0
   36.9710   31.9190   39.9090 C   0  0  0  0  0  0  0  0  0  0  0  0
   37.3600   33.2240   39.8270 C   0  0  0  0  0  0  0  0  0  0  0  0
   38.6690   33.5870   39.7920 C   0  0  0  0  0  0  0  0  0  0  0  0
   39.6480   32.6530   39.8380 C   0  0  0  0  0  0  0  0  0  0  0  0
   35.9700   31.5550   39.9400 H   0  0  0  0  0  0  0  0  0  0  0  0
   36.5360   33.9240   39.7940 H   0  0  0  0  0  0  0  0  0  0  0  0
   38.7970   34.6640   39.7270 H   0  0  0  0  0  0  0  0  0  0  0  0
   37.0860   27.5200   39.0130 C   0  0  0  0  0  0  0  0  0  0  0  0
   36.9700   26.8850   40.2620 C   0  0  0  0  0  0  0  0  0  0  0  0
   37.2010   27.6490   41.4120 C   0  0  0  0  0  0  0  0  0  0  0  0
   37.5250   28.9600   41.2780 N   0  0  0  0  0  0  0  0  0  0  0  0
   37.6320   29.5500   40.0420 C   0  0  0  0  0  0  0  0  0  0  0  0
   37.4100   28.8170   38.9420 N   0  0  0  0  0  0  0  0  0  0  0  0
   36.8940   26.8670   38.1930 H   0  0  0  0  0  0  0  0  0  0  0  0
   36.7240   25.8770   40.5040 H   0  0  0  0  0  0  0  0  0  0  0  0
   37.1060   27.0850   42.8050 C   0  0  0  0  0  0  0  0  0  0  0  0
   35.9450   27.4900   43.4090 F   0  0  0  0  0  0  0  0  0  0  0  0
   37.1380   25.7060   42.7260 F   0  0  0  0  0  0  0  0  0  0  0  0
   38.2060   27.5390   43.4900 F   0  0  0  0  0  0  0  0  0  0  0  0
   41.0490   33.1060   39.7970 C   0  0  0  0  0  0  0  0  0  0  0  0
   42.0540   33.4240   40.7090 C   0  0  0  0  0  0  0  0  0  0  0  0
   41.8860   33.3620   41.7580 H   0  0  0  0  0  0  0  0  0  0  0  0
   43.2430   33.8120   40.1840 C   0  0  0  0  0  3  0  0  0  0  0  0
   43.4440   33.8870   38.8730 C   0  0  0  0  0  3  0  0  0  0  0  0
   41.8430   33.3750   38.1240 S   0  0  0  0  0  0  0  0  0  0  0  0
  2  3  1  0  0  0  0
  2  1  1  0  0  0  0
  3 15  1  0  0  0  0
  4  8  1  0  0  0  0
  4  3  2  0  0  0  0
  5  4  1  0  0  0  0
  6  5  2  0  0  0  0
  6  7  1  0  0  0  0
  7  2  2  0  0  0  0
  9  5  1  0  0  0  0
 10  6  1  0  0  0  0
 11 12  1  0  0  0  0
 12 18  1  0  0  0  0
 12 13  2  0  0  0  0
 13 19  1  0  0  0  0
 14 13  1  0  0  0  0
 15 14  2  0  0  0  0
 16 11  2  0  0  0  0
 16 15  1  0  0  0  0
 17 11  1  0  0  0  0
 19 20  1  0  0  0  0
 19 22  1  0  0  0  0
 21 19  1  0  0  0  0
 23  7  1  0  0  0  0
 23 24  2  0  0  0  0
 24 25  1  0  0  0  0
 26 24  1  0  0  0  0
 27 26  2  0  0  0  0
 28 27  1  0  0  0  0
 28 23  1  0  0  0  0
M  END
>  <minimizedAffinity>
-5.4600358

$$$$

 OpenBabel03252500113D

 28 30  0  0  0  0  0  0  0  0999 V2000
   40.4810   29.4630   40.3180 Cl  0  0  0  0  0  0  0  0  0  0  0  0
   39.0970   30.2250   39.6080 C   0  0  0  0  0  0  0  0  0  0  0  0
   37.8390   29.9780   40.0960 C   0  0  0  0  0  0  0  0  0  0  0  0
   36.7180   30.5830   39.5360 C   0  0  0  0  0  0  0  0  0  0  0  0
   36.9330   31.4260   38.4850 C   0  0  0  0  0  0  0  0  0  0  0  0
   38.1790   31.6730   38.0000 C   0  0  0  0  0  0  0  0  0  0  0  0
   39.2650   31.0820   38.5490 C   0  0  0  0  0  0  0  0  0  0  0  0
   35.7780   30.3380   39.9720 H   0  0  0  0  0  0  0  0  0  0  0  0
   36.0300   31.8680   38.0880 H   0  0  0  0  0  0  0  0  0  0  0  0
   38.1660   32.3680   37.1640 H   0  0  0  0  0  0  0  0  0  0  0  0
   37.5460   28.6780   43.5270 C   0  0  0  0  0  0  0  0  0  0  0  0
   37.3710   27.2990   43.3130 C   0  0  0  0  0  0  0  0  0  0  0  0
   37.3560   26.8350   41.9930 C   0  0  0  0  0  0  0  0  0  0  0  0
   37.5090   27.7240   40.9800 N   0  0  0  0  0  0  0  0  0  0  0  0
   37.6770   29.0650   41.2220 C   0  0  0  0  0  0  0  0  0  0  0  0
   37.6910   29.5080   42.4870 N   0  0  0  0  0  0  0  0  0  0  0  0
   37.5450   28.9440   44.5580 H   0  0  0  0  0  0  0  0  0  0  0  0
   37.2430   26.5030   44.0100 H   0  0  0  0  0  0  0  0  0  0  0  0
   37.1770   25.3820   41.6360 C   0  0  0  0  0  0  0  0  0  0  0  0
   38.3940   24.7620   41.5250 F   0  0  0  0  0  0  0  0  0  0  0  0
   36.4290   24.7730   42.6250 F   0  0  0  0  0  0  0  0  0  0  0  0
   36.4920   25.3500   40.4470 F   0  0  0  0  0  0  0  0  0  0  0  0
   40.5900   31.3880   37.9800 C   0  0  0  0  0  0  0  0  0  0  0  0
   41.5620   30.7300   37.2280 C   0  0  0  0  0  0  0  0  0  0  0  0
   41.4270   29.7220   36.9150 H   0  0  0  0  0  0  0  0  0  0  0  0
   42.6740   31.4440   36.9240 C   0  0  0  0  0  3  0  0  0  0  0  0
   42.8330   32.7020   37.3200 C   0  0  0  0  0  3  0  0  0  0  0  0
   41.3010   33.0950   38.2600 S   0  0  0  0  0  0  0  0  0  0  0  0
  2  3  1  0  0  0  0
  2  1  1  0  0  0  0
  3 15  1  0  0  0  0
  4  8  1  0  0  0  0
  4  3  2  0  0  0  0
  5  4  1  0  0  0  0
  6  5  2  0  0  0  0
  6  7  1  0  0  0  0
  7  2  2  0  0  0  0
  9  5  1  0  0  0  0
 10  6  1  0  0  0  0
 11 17  1  0  0  0  0
 12 11  1  0  0  0  0
 12 18  1  0  0  0  0
 13 12  2  0  0  0  0
 14 15  2  0  0  0  0
 14 13  1  0  0  0  0
 15 16  1  0  0  0  0
 16 11  2  0  0  0  0
 19 13  1  0  0  0  0
 19 21  1  0  0  0  0
 20 19  1  0  0  0  0
 22 19  1  0  0  0  0
 23 28  1  0  0  0  0
 23  7  1  0  0  0  0
 24 23  2  0  0  0  0
 25 24  1  0  0  0  0
 26 24  1  0  0  0  0
 26 27  2  0  0  0  0
 27 28  1  0  0  0  0
M  END
>  <minimizedAffinity>
-5.45372152

$$$$

 OpenBabel03252500113D

 28 30  0  0  0  0  0  0  0  0999 V2000
   37.2320   26.9300   38.8550 Cl  0  0  0  0  0  0  0  0  0  0  0  0
   37.0510   27.0170   40.5750 C   0  0  0  0  0  0  0  0  0  0  0  0
   36.9490   28.2310   41.2050 C   0  0  0  0  0  0  0  0  0  0  0  0
   36.8030   28.3160   42.5860 C   0  0  0  0  0  0  0  0  0  0  0  0
   36.7680   27.1390   43.2750 C   0  0  0  0  0  0  0  0  0  0  0  0
   36.8680   25.9330   42.6540 C   0  0  0  0  0  0  0  0  0  0  0  0
   37.0090   25.8580   41.3100 C   0  0  0  0  0  0  0  0  0  0  0  0
   36.7320   29.2950   42.9970 H   0  0  0  0  0  0  0  0  0  0  0  0
   36.6530   27.2620   44.3430 H   0  0  0  0  0  0  0  0  0  0  0  0
   36.8200   25.1030   43.3540 H   0  0  0  0  0  0  0  0  0  0  0  0
   37.0550   31.7880   40.2680 C   0  0  0  0  0  0  0  0  0  0  0  0
   37.0760   31.7300   38.8620 C   0  0  0  0  0  0  0  0  0  0  0  0
   37.0530   30.4690   38.2560 C   0  0  0  0  0  0  0  0  0  0  0  0
   37.0130   29.3620   39.0400 N   0  0  0  0  0  0  0  0  0  0  0  0
   36.9950   29.4530   40.4100 C   0  0  0  0  0  0  0  0  0  0  0  0
   37.0160   30.6610   40.9890 N   0  0  0  0  0  0  0  0  0  0  0  0
   37.0750   32.7850   40.6440 H   0  0  0  0  0  0  0  0  0  0  0  0
   37.1050   32.5120   38.1390 H   0  0  0  0  0  0  0  0  0  0  0  0
   37.0710   30.2760   36.7620 C   0  0  0  0  0  0  0  0  0  0  0  0
   38.0140   29.3470   36.4100 F   0  0  0  0  0  0  0  0  0  0  0  0
   35.8210   29.8520   36.3570 F   0  0  0  0  0  0  0  0  0  0  0  0
   37.3500   31.5010   36.2100 F   0  0  0  0  0  0  0  0  0  0  0  0
   37.1140   24.5240   40.6930 C   0  0  0  0  0  0  0  0  0  0  0  0
   36.2670   23.6140   40.0620 C   0  0  0  0  0  0  0  0  0  0  0  0
   35.2330   23.8250   39.9290 H   0  0  0  0  0  0  0  0  0  0  0  0
   36.8350   22.4580   39.6360 C   0  0  0  0  0  3  0  0  0  0  0  0
   38.1270   22.2040   39.8070 C   0  0  0  0  0  3  0  0  0  0  0  0
   38.7880   23.6880   40.6700 S   0  0  0  0  0  0  0  0  0  0  0  0
  1  2  1  0  0  0  0
  2  3  2  0  0  0  0
  2  7  1  0  0  0  0
  3  4  1  0  0  0  0
  4  8  1  0  0  0  0
  4  5  2  0  0  0  0
  5  9  1  0  0  0  0
  6  5  1  0  0  0  0
  6 10  1  0  0  0  0
  7  6  2  0  0  0  0
 11 17  1  0  0  0  0
 11 16  1  0  0  0  0
 12 11  2  0  0  0  0
 13 12  1  0  0  0  0
 13 14  2  0  0  0  0
 14 15  1  0  0  0  0
 15 16  2  0  0  0  0
 15  3  1  0  0  0  0
 18 12  1  0  0  0  0
 19 13  1  0  0  0  0
 20 19  1  0  0  0  0
 21 19  1  0  0  0  0
 22 19  1  0  0  0  0
 23  7  1  0  0  0  0
 24 23  2  0  0  0  0
 25 24  1  0  0  0  0
 26 27  2  0  0  0  0
 26 24  1  0  0  0  0
 27 28  1  0  0  0  0
 28 23  1  0  0  0  0
M  END
>  <minimizedAffinity>
-5.38435078

$$$$

 OpenBabel03252500113D

 28 30  0  0  0  0  0  0  0  0999 V2000
   40.5150   29.8720   40.7140 Cl  0  0  0  0  0  0  0  0  0  0  0  0
   39.1630   30.8980   40.3680 C   0  0  0  0  0  0  0  0  0  0  0  0
   37.9090   30.5730   40.8190 C   0  0  0  0  0  0  0  0  0  0  0  0
   36.8140   31.3880   40.5480 C   0  0  0  0  0  0  0  0  0  0  0  0
   37.0500   32.5160   39.8180 C   0  0  0  0  0  0  0  0  0  0  0  0
   38.2920   32.8410   39.3700 C   0  0  0  0  0  0  0  0  0  0  0  0
   39.3540   32.0450   39.6370 C   0  0  0  0  0  0  0  0  0  0  0  0
   35.8750   31.0650   40.9330 H   0  0  0  0  0  0  0  0  0  0  0  0
   36.1660   33.1120   39.6360 H   0  0  0  0  0  0  0  0  0  0  0  0
   38.2980   33.7700   38.8070 H   0  0  0  0  0  0  0  0  0  0  0  0
   37.5970   28.2490   43.6550 C   0  0  0  0  0  0  0  0  0  0  0  0
   37.3720   27.0180   43.0130 C   0  0  0  0  0  0  0  0  0  0  0  0
   37.3310   27.0030   41.6150 C   0  0  0  0  0  0  0  0  0  0  0  0
   37.5080   28.1660   40.9380 N   0  0  0  0  0  0  0  0  0  0  0  0
   37.7240   29.3520   41.5940 C   0  0  0  0  0  0  0  0  0  0  0  0
   37.7630   29.3650   42.9340 N   0  0  0  0  0  0  0  0  0  0  0  0
   37.6120   28.1700   44.7170 H   0  0  0  0  0  0  0  0  0  0  0  0
   37.2220   26.0450   43.4200 H   0  0  0  0  0  0  0  0  0  0  0  0
   37.0990   25.7490   40.8130 C   0  0  0  0  0  0  0  0  0  0  0  0
   38.2770   25.2990   40.2750 F   0  0  0  0  0  0  0  0  0  0  0  0
   36.5670   24.7850   41.6470 F   0  0  0  0  0  0  0  0  0  0  0  0
   36.1950   26.0700   39.8320 F   0  0  0  0  0  0  0  0  0  0  0  0
   40.6750   32.4470   39.1250 C   0  0  0  0  0  0  0  0  0  0  0  0
   41.8170   33.0820   39.6120 C   0  0  0  0  0  0  0  0  0  0  0  0
   41.8720   33.4180   40.6210 H   0  0  0  0  0  0  0  0  0  0  0  0
   42.8380   33.2430   38.7340 C   0  0  0  0  0  3  0  0  0  0  0  0
   42.7590   32.8210   37.4770 C   0  0  0  0  0  3  0  0  0  0  0  0
   41.0860   32.0680   37.3390 S   0  0  0  0  0  0  0  0  0  0  0  0
  2  1  1  0  0  0  0
  2  3  1  0  0  0  0
  3 15  1  0  0  0  0
  4  3  2  0  0  0  0
  4  8  1  0  0  0  0
  5  4  1  0  0  0  0
  6  7  1  0  0  0  0
  6  5  2  0  0  0  0
  7  2  2  0  0  0  0
  9  5  1  0  0  0  0
 10  6  1  0  0  0  0
 11 17  1  0  0  0  0
 12 18  1  0  0  0  0
 12 11  1  0  0  0  0
 13 12  2  0  0  0  0
 14 15  2  0  0  0  0
 14 13  1  0  0  0  0
 15 16  1  0  0  0  0
 16 11  2  0  0  0  0
 19 13  1  0  0  0  0
 19 21  1  0  0  0  0
 20 19  1  0  0  0  0
 22 19  1  0  0  0  0
 23 24  2  0  0  0  0
 23  7  1  0  0  0  0
 24 25  1  0  0  0  0
 26 24  1  0  0  0  0
 27 26  2  0  0  0  0
 28 27  1  0  0  0  0
 28 23  1  0  0  0  0
M  END
>  <minimizedAffinity>
-5.34824181

$$$$

 OpenBabel03252500113D

 28 30  0  0  0  0  0  0  0  0999 V2000
   37.9200   27.6710   39.2960 Cl  0  0  0  0  0  0  0  0  0  0  0  0
   37.6890   27.8640   41.0020 C   0  0  0  0  0  0  0  0  0  0  0  0
   37.6640   29.1140   41.5640 C   0  0  0  0  0  0  0  0  0  0  0  0
   37.4790   29.2840   42.9330 C   0  0  0  0  0  0  0  0  0  0  0  0
   37.3260   28.1520   43.6800 C   0  0  0  0  0  0  0  0  0  0  0  0
   37.3500   26.9110   43.1250 C   0  0  0  0  0  0  0  0  0  0  0  0
   37.5300   26.7520   41.7930 C   0  0  0  0  0  0  0  0  0  0  0  0
   37.4730   30.2860   43.2920 H   0  0  0  0  0  0  0  0  0  0  0  0
   37.1860   28.3410   44.7350 H   0  0  0  0  0  0  0  0  0  0  0  0
   37.2120   26.1260   43.8630 H   0  0  0  0  0  0  0  0  0  0  0  0
   36.9480   31.8870   39.2540 C   0  0  0  0  0  0  0  0  0  0  0  0
   38.2100   32.4920   39.1070 C   0  0  0  0  0  0  0  0  0  0  0  0
   39.2890   31.9380   39.8050 C   0  0  0  0  0  0  0  0  0  0  0  0
   39.0790   30.8500   40.5880 N   0  0  0  0  0  0  0  0  0  0  0  0
   37.8340   30.2840   40.7110 C   0  0  0  0  0  0  0  0  0  0  0  0
   36.8010   30.8160   40.0420 N   0  0  0  0  0  0  0  0  0  0  0  0
   36.1850   32.3720   38.6900 H   0  0  0  0  0  0  0  0  0  0  0  0
   38.5080   33.3370   38.5310 H   0  0  0  0  0  0  0  0  0  0  0  0
   40.6870   32.4940   39.7300 C   0  0  0  0  0  0  0  0  0  0  0  0
   41.5580   31.5400   39.2720 F   0  0  0  0  0  0  0  0  0  0  0  0
   40.6860   33.5780   38.8730 F   0  0  0  0  0  0  0  0  0  0  0  0
   41.0190   32.9010   40.9980 F   0  0  0  0  0  0  0  0  0  0  0  0
   37.5480   25.3840   41.2480 C   0  0  0  0  0  0  0  0  0  0  0  0
   36.6220   24.4470   40.7910 C   0  0  0  0  0  0  0  0  0  0  0  0
   35.5790   24.6610   40.7830 H   0  0  0  0  0  0  0  0  0  0  0  0
   37.1250   23.2620   40.3630 C   0  0  0  0  0  3  0  0  0  0  0  0
   38.4280   23.0040   40.3770 C   0  0  0  0  0  3  0  0  0  0  0  0
   39.2010   24.5290   41.0550 S   0  0  0  0  0  0  0  0  0  0  0  0
  1  2  1  0  0  0  0
  2  3  2  0  0  0  0
  2  7  1  0  0  0  0
  3  4  1  0  0  0  0
  4  8  1  0  0  0  0
  4  5  2  0  0  0  0
  5  9  1  0  0  0  0
  6  5  1  0  0  0  0
  6 10  1  0  0  0  0
  7  6  2  0  0  0  0
 11 16  1  0  0  0  0
 12 11  2  0  0  0  0
 12 13  1  0  0  0  0
 13 14  2  0  0  0  0
 14 15  1  0  0  0  0
 15  3  1  0  0  0  0
 16 15  2  0  0  0  0
 17 11  1  0  0  0  0
 18 12  1  0  0  0  0
 19 13  1  0  0  0  0
 19 22  1  0  0  0  0
 20 19  1  0  0  0  0
 21 19  1  0  0  0  0
 23  7  1  0  0  0  0
 24 23  2  0  0  0  0
 25 24  1  0  0  0  0
 26 27  2  0  0  0  0
 26 24  1  0  0  0  0
 27 28  1  0  0  0  0
 28 23  1  0  0  0  0
M  END
>  <minimizedAffinity>
-5.26965427

$$$$

 OpenBabel03252500113D

 28 30  0  0  0  0  0  0  0  0999 V2000
   37.9190   28.2060   39.2500 Cl  0  0  0  0  0  0  0  0  0  0  0  0
   37.7790   28.1050   40.9740 C   0  0  0  0  0  0  0  0  0  0  0  0
   37.7410   26.8860   41.5990 C   0  0  0  0  0  0  0  0  0  0  0  0
   37.6280   26.7900   42.9830 C   0  0  0  0  0  0  0  0  0  0  0  0
   37.5590   27.9610   43.6780 C   0  0  0  0  0  0  0  0  0  0  0  0
   37.5970   29.1720   43.0610 C   0  0  0  0  0  0  0  0  0  0  0  0
   37.7070   29.2590   41.7150 C   0  0  0  0  0  0  0  0  0  0  0  0
   37.6050   25.8060   43.3910 H   0  0  0  0  0  0  0  0  0  0  0  0
   37.4720   27.8300   44.7480 H   0  0  0  0  0  0  0  0  0  0  0  0
   37.5310   29.9970   43.7650 H   0  0  0  0  0  0  0  0  0  0  0  0
   39.0810   23.9990   39.7510 C   0  0  0  0  0  0  0  0  0  0  0  0
   37.9130   23.3750   39.2770 C   0  0  0  0  0  0  0  0  0  0  0  0
   36.6810   23.9550   39.5980 C   0  0  0  0  0  0  0  0  0  0  0  0
   36.6610   25.0860   40.3490 N   0  0  0  0  0  0  0  0  0  0  0  0
   37.8190   25.6700   40.7980 C   0  0  0  0  0  0  0  0  0  0  0  0
   38.9980   25.1130   40.4890 N   0  0  0  0  0  0  0  0  0  0  0  0
   39.9720   23.4920   39.4610 H   0  0  0  0  0  0  0  0  0  0  0  0
   37.7900   22.4980   38.6850 H   0  0  0  0  0  0  0  0  0  0  0  0
   35.3620   23.3830   39.1490 C   0  0  0  0  0  0  0  0  0  0  0  0
   34.5090   23.2510   40.2130 F   0  0  0  0  0  0  0  0  0  0  0  0
   34.8100   24.2310   38.2090 F   0  0  0  0  0  0  0  0  0  0  0  0
   35.6350   22.1650   38.5770 F   0  0  0  0  0  0  0  0  0  0  0  0
   37.7420   30.5980   41.1020 C   0  0  0  0  0  0  0  0  0  0  0  0
   36.8700   31.4330   40.4040 C   0  0  0  0  0  0  0  0  0  0  0  0
   35.8720   31.1320   40.1910 H   0  0  0  0  0  0  0  0  0  0  0  0
   37.3670   32.6340   40.0170 C   0  0  0  0  0  3  0  0  0  0  0  0
   38.6150   33.0000   40.2870 C   0  0  0  0  0  3  0  0  0  0  0  0
   39.3330   31.5780   41.2060 S   0  0  0  0  0  0  0  0  0  0  0  0
  1  2  1  0  0  0  0
  2  3  2  0  0  0  0
  2  7  1  0  0  0  0
  3  4  1  0  0  0  0
  4  8  1  0  0  0  0
  4  5  2  0  0  0  0
  5  9  1  0  0  0  0
  6  5  1  0  0  0  0
  6 10  1  0  0  0  0
  7  6  2  0  0  0  0
 11 16  1  0  0  0  0
 12 13  1  0  0  0  0
 12 11  2  0  0  0  0
 13 14  2  0  0  0  0
 14 15  1  0  0  0  0
 15  3  1  0  0  0  0
 16 15  2  0  0  0  0
 17 11  1  0  0  0  0
 18 12  1  0  0  0  0
 19 13  1  0  0  0  0
 19 20  1  0  0  0  0
 21 19  1  0  0  0  0
 22 19  1  0  0  0  0
 23 28  1  0  0  0  0
 23  7  1  0  0  0  0
 24 23  2  0  0  0  0
 25 24  1  0  0  0  0
 26 27  2  0  0  0  0
 26 24  1  0  0  0  0
 27 28  1  0  0  0  0
M  END
>  <minimizedAffinity>
-5.26046562

$$$$

 OpenBabel03252500113D

 28 30  0  0  0  0  0  0  0  0999 V2000
   40.5550   29.8390   40.9120 Cl  0  0  0  0  0  0  0  0  0  0  0  0
   38.9020   30.3510   40.8380 C   0  0  0  0  0  0  0  0  0  0  0  0
   37.9040   29.5560   41.3410 C   0  0  0  0  0  0  0  0  0  0  0  0
   36.5720   29.9540   41.2890 C   0  0  0  0  0  0  0  0  0  0  0  0
   36.3120   31.1650   40.7170 C   0  0  0  0  0  0  0  0  0  0  0  0
   37.2990   31.9550   40.2170 C   0  0  0  0  0  0  0  0  0  0  0  0
   38.5930   31.5630   40.2710 C   0  0  0  0  0  0  0  0  0  0  0  0
   35.8570   29.2800   41.7010 H   0  0  0  0  0  0  0  0  0  0  0  0
   35.2620   31.4250   40.7020 H   0  0  0  0  0  0  0  0  0  0  0  0
   36.9150   32.8820   39.8000 H   0  0  0  0  0  0  0  0  0  0  0  0
   39.2000   27.0260   43.6780 C   0  0  0  0  0  0  0  0  0  0  0  0
   38.8800   25.8210   43.0270 C   0  0  0  0  0  0  0  0  0  0  0  0
   38.2230   25.8940   41.7940 C   0  0  0  0  0  0  0  0  0  0  0  0
   37.9220   27.1130   41.2790 N   0  0  0  0  0  0  0  0  0  0  0  0
   38.2480   28.2720   41.9410 C   0  0  0  0  0  0  0  0  0  0  0  0
   38.8770   28.1990   43.1220 N   0  0  0  0  0  0  0  0  0  0  0  0
   39.6970   26.8780   44.6090 H   0  0  0  0  0  0  0  0  0  0  0  0
   39.0580   24.8110   43.3170 H   0  0  0  0  0  0  0  0  0  0  0  0
   37.8280   24.6760   41.0010 C   0  0  0  0  0  0  0  0  0  0  0  0
   38.7860   24.3810   40.0670 F   0  0  0  0  0  0  0  0  0  0  0  0
   37.6770   23.6130   41.8690 F   0  0  0  0  0  0  0  0  0  0  0  0
   36.6260   24.9670   40.4040 F   0  0  0  0  0  0  0  0  0  0  0  0
   39.6200   32.4600   39.7140 C   0  0  0  0  0  0  0  0  0  0  0  0
   40.2890   33.6220   40.0980 C   0  0  0  0  0  0  0  0  0  0  0  0
   40.0890   34.0880   41.0340 H   0  0  0  0  0  0  0  0  0  0  0  0
   41.1950   34.1140   39.2170 C   0  0  0  0  0  3  0  0  0  0  0  0
   41.4360   33.5250   38.0510 C   0  0  0  0  0  3  0  0  0  0  0  0
   40.3210   32.0620   38.0250 S   0  0  0  0  0  0  0  0  0  0  0  0
  2  1  1  0  0  0  0
  2  3  1  0  0  0  0
  3 15  1  0  0  0  0
  4  3  2  0  0  0  0
  4  8  1  0  0  0  0
  5  4  1  0  0  0  0
  6  7  1  0  0  0  0
  6  5  2  0  0  0  0
  7  2  2  0  0  0  0
  9  5  1  0  0  0  0
 10  6  1  0  0  0  0
 11 17  1  0  0  0  0
 12 18  1  0  0  0  0
 12 11  2  0  0  0  0
 13 12  1  0  0  0  0
 14 13  2  0  0  0  0
 14 15  1  0  0  0  0
 15 16  2  0  0  0  0
 16 11  1  0  0  0  0
 19 13  1  0  0  0  0
 19 21  1  0  0  0  0
 20 19  1  0  0  0  0
 22 19  1  0  0  0  0
 23 24  2  0  0  0  0
 23  7  1  0  0  0  0
 24 25  1  0  0  0  0
 26 24  1  0  0  0  0
 27 26  2  0  0  0  0
 28 27  1  0  0  0  0
 28 23  1  0  0  0  0
M  END
>  <minimizedAffinity>
-5.24012661

$$$$

 OpenBabel03252500113D

 28 30  0  0  0  0  0  0  0  0999 V2000
   36.1270   26.2290   38.7270 Cl  0  0  0  0  0  0  0  0  0  0  0  0
   36.2090   27.6310   39.7400 C   0  0  0  0  0  0  0  0  0  0  0  0
   35.6610   28.8200   39.3300 C   0  0  0  0  0  0  0  0  0  0  0  0
   35.7200   29.9540   40.1340 C   0  0  0  0  0  0  0  0  0  0  0  0
   36.3450   29.8240   41.3400 C   0  0  0  0  0  0  0  0  0  0  0  0
   36.8890   28.6470   41.7490 C   0  0  0  0  0  0  0  0  0  0  0  0
   36.8280   27.5470   40.9630 C   0  0  0  0  0  0  0  0  0  0  0  0
   35.2710   30.8370   39.7430 H   0  0  0  0  0  0  0  0  0  0  0  0
   36.3620   30.7340   41.9230 H   0  0  0  0  0  0  0  0  0  0  0  0
   37.3450   28.7220   42.7320 H   0  0  0  0  0  0  0  0  0  0  0  0
   33.0620   28.9160   36.7270 C   0  0  0  0  0  0  0  0  0  0  0  0
   33.8200   29.0290   35.5470 C   0  0  0  0  0  0  0  0  0  0  0  0
   35.2140   29.0710   35.6630 C   0  0  0  0  0  0  0  0  0  0  0  0
   35.7750   29.0020   36.8970 N   0  0  0  0  0  0  0  0  0  0  0  0
   35.0070   28.8930   38.0290 C   0  0  0  0  0  0  0  0  0  0  0  0
   33.6720   28.8530   37.9160 N   0  0  0  0  0  0  0  0  0  0  0  0
   32.0120   28.8920   36.5470 H   0  0  0  0  0  0  0  0  0  0  0  0
   33.5100   29.0910   34.5300 H   0  0  0  0  0  0  0  0  0  0  0  0
   36.1330   29.1900   34.4750 C   0  0  0  0  0  0  0  0  0  0  0  0
   37.4080   28.8230   34.8170 F   0  0  0  0  0  0  0  0  0  0  0  0
   35.6630   28.3690   33.4690 F   0  0  0  0  0  0  0  0  0  0  0  0
   36.0860   30.5010   34.0700 F   0  0  0  0  0  0  0  0  0  0  0  0
   37.4350   26.2990   41.4590 C   0  0  0  0  0  0  0  0  0  0  0  0
   37.0050   25.1000   42.0250 C   0  0  0  0  0  0  0  0  0  0  0  0
   35.9720   24.9130   42.1990 H   0  0  0  0  0  0  0  0  0  0  0  0
   37.9710   24.2000   42.3360 C   0  0  0  0  0  3  0  0  0  0  0  0
   39.2580   24.4430   42.1150 C   0  0  0  0  0  3  0  0  0  0  0  0
   39.2960   26.1240   41.3700 S   0  0  0  0  0  0  0  0  0  0  0  0
  1  2  1  0  0  0  0
  2  7  1  0  0  0  0
  3  2  2  0  0  0  0
  3  4  1  0  0  0  0
  4  5  2  0  0  0  0
  5  6  1  0  0  0  0
  5  9  1  0  0  0  0
  6 10  1  0  0  0  0
  7 23  1  0  0  0  0
  7  6  2  0  0  0  0
  8  4  1  0  0  0  0
 11 16  1  0  0  0  0
 12 13  1  0  0  0  0
 12 11  2  0  0  0  0
 13 14  2  0  0  0  0
 14 15  1  0  0  0  0
 15  3  1  0  0  0  0
 16 15  2  0  0  0  0
 17 11  1  0  0  0  0
 18 12  1  0  0  0  0
 19 20  1  0  0  0  0
 19 13  1  0  0  0  0
 21 19  1  0  0  0  0
 22 19  1  0  0  0  0
 23 24  2  0  0  0  0
 24 25  1  0  0  0  0
 24 26  1  0  0  0  0
 27 26  2  0  0  0  0
 28 23  1  0  0  0  0
 28 27  1  0  0  0  0
M  END
>  <minimizedAffinity>
-5.20105791

$$$$
