
 OpenBabel03252509163D

 22 24  0  0  0  0  0  0  0  0999 V2000
   45.9570   33.1500   46.2340 C   0  0  0  0  0  0  0  0  0  0  0  0
   45.4650   32.9700   47.5510 C   0  0  0  0  0  0  0  0  0  0  0  0
   46.1260   32.1510   48.3950 C   0  0  0  0  0  0  0  0  0  0  0  0
   47.2940   31.4970   47.9360 C   0  0  0  0  0  0  0  0  0  0  0  0
   47.4290   32.0950   46.2200 S   0  0  0  0  0  0  0  0  0  0  0  0
   44.5630   33.4940   47.8630 H   0  0  0  0  0  0  0  0  0  0  0  0
   45.8430   31.9470   49.4020 H   0  0  0  0  0  0  0  0  0  0  0  0
   44.2490   35.8790   44.3900 C   0  0  0  0  0  0  0  0  0  0  0  0
   44.2350   35.3160   43.0870 C   0  0  0  0  0  0  0  0  0  0  0  0
   44.8070   34.0410   42.9110 C   0  0  0  0  0  0  0  0  0  0  0  0
   45.3440   33.4210   44.0090 N   0  0  0  0  0  0  0  0  0  0  0  0
   45.3290   34.0080   45.2300 C   0  0  0  0  0  0  0  0  0  0  0  0
   44.7830   35.2360   45.4220 N   0  0  0  0  0  0  0  0  0  0  0  0
   43.8110   36.8560   44.5210 H   0  0  0  0  0  0  0  0  0  0  0  0
   43.8060   35.8200   42.2270 H   0  0  0  0  0  0  0  0  0  0  0  0
   44.8390   33.5390   41.9540 H   0  0  0  0  0  0  0  0  0  0  0  0
   48.1660   30.6320   48.5140 C   0  0  0  0  0  0  0  0  0  0  0  0
   48.9060   30.6870   49.6380 C   0  0  0  0  0  0  0  0  0  0  0  0
   48.8430   31.5730   50.2530 H   0  0  0  0  0  0  0  0  0  0  0  0
   49.7310   29.6760   50.0310 C   0  0  0  0  0  3  0  0  0  0  0  0
   49.7670   28.4810   49.1280 C   0  0  0  0  0  3  0  0  0  0  0  0
   48.5680   28.9710   47.7740 S   0  0  0  0  0  0  0  0  0  0  0  0
  1  2  2  0  0  0  0
  2  6  1  0  0  0  0
  2  3  1  0  0  0  0
  3  7  1  0  0  0  0
  4  3  2  0  0  0  0
  4 17  1  0  0  0  0
  5  1  1  0  0  0  0
  5  4  1  0  0  0  0
  8 14  1  0  0  0  0
  8 13  1  0  0  0  0
  9  8  2  0  0  0  0
 10  9  1  0  0  0  0
 10 11  2  0  0  0  0
 11 12  1  0  0  0  0
 12 13  2  0  0  0  0
 12  1  1  0  0  0  0
 15  9  1  0  0  0  0
 16 10  1  0  0  0  0
 17 18  2  0  0  0  0
 18 20  1  0  0  0  0
 18 19  1  0  0  0  0
 21 20  2  0  0  0  0
 22 17  1  0  0  0  0
 22 21  1  0  0  0  0
M  END
>  <minimizedAffinity>
-4.23509121

>  <minimizedRMSD>
1.16163683

$$$$
