
 OpenBabel03242523533D

 42 45  0  0  1  0  0  0  0  0999 V2000
   42.8100   34.4900   38.7790 C   0  0  1  0  0  0  0  0  0  0  0  0
   42.9530   35.1870   40.1230 C   0  0  1  0  0  0  0  0  0  0  0  0
   41.6650   35.4410   40.6300 O   0  0  0  0  0  0  0  0  0  0  0  0
   40.7470   35.7640   39.6270 C   0  0  0  0  0  0  0  0  0  0  0  0
   40.4290   34.5690   38.7480 C   0  0  2  0  0  0  0  0  0  0  0  0
   41.6350   33.5770   38.9070 C   0  0  1  0  0  0  0  0  0  0  0  0
   43.7520   33.9430   38.5190 H   0  0  0  0  0  0  0  0  0  0  0  0
   43.5570   36.1040   40.0740 H   0  0  0  0  0  0  0  0  0  0  0  0
   39.8230   36.0490   40.1410 H   0  0  0  0  0  0  0  0  0  0  0  0
   41.0710   36.6430   39.0350 H   0  0  0  0  0  0  0  0  0  0  0  0
   39.4940   34.0720   39.0440 H   0  0  0  0  0  0  0  0  0  0  0  0
   41.4150   33.3270   39.9980 H   0  0  0  0  0  0  0  0  0  0  0  0
   42.6070   35.4200   37.7490 O   0  0  0  0  0  0  0  0  0  0  0  0
   43.4250   35.8940   37.5290 H   0  0  0  0  0  0  0  0  0  0  0  0
   40.4530   34.9550   37.4150 O   0  0  0  0  0  0  0  0  0  0  0  0
   39.5360   35.1660   37.0750 H   0  0  0  0  0  0  0  0  0  0  0  0
   43.4750   34.2160   40.9920 O   0  0  0  0  0  0  0  0  0  0  0  0
   44.5900   34.3550   41.7200 C   0  0  0  0  0  0  0  0  0  0  0  0
   45.8470   34.4460   41.1050 C   0  0  0  0  0  0  0  0  0  0  0  0
   46.9680   34.5910   41.9070 C   0  0  0  0  0  0  0  0  0  0  0  0
   46.8130   34.6430   43.2820 N   0  0  0  0  0  0  0  0  0  0  0  0
   45.5840   34.5520   43.8380 C   0  0  0  0  0  0  0  0  0  0  0  0
   44.4780   34.4090   43.0610 N   0  0  0  0  0  0  0  0  0  0  0  0
   45.9750   34.4070   40.0380 H   0  0  0  0  0  0  0  0  0  0  0  0
   45.5390   34.6000   44.9190 H   0  0  0  0  0  0  0  0  0  0  0  0
   48.3420   34.6790   41.3280 C   0  0  0  0  0  0  0  0  0  0  0  0
   49.0720   36.0120   41.4960 C   0  0  0  0  0  0  0  0  0  0  0  0
   49.4990   34.6920   42.1660 C   0  0  0  0  0  0  0  0  0  0  0  0
   48.3980   34.2830   40.2750 H   0  0  0  0  0  0  0  0  0  0  0  0
   48.6340   36.7490   42.1690 H   0  0  0  0  0  0  0  0  0  0  0  0
   49.7530   36.3280   40.6840 H   0  0  0  0  0  0  0  0  0  0  0  0
   50.4500   34.2240   41.8370 H   0  0  0  0  0  0  0  0  0  0  0  0
   49.3590   34.6340   43.2730 H   0  0  0  0  0  0  0  0  0  0  0  0
   41.4910   32.6140   37.9760 O   0  0  0  0  0  0  0  0  0  0  0  0
   40.7990   31.4780   38.0030 C   0  0  0  0  0  0  0  0  0  0  0  0
   39.6050   31.3450   37.4500 O   0  0  0  0  0  0  0  0  0  0  0  0
   41.0900   30.0420   38.6120 C   0  0  0  0  0  0  0  0  0  0  0  0
   40.7290   28.8560   38.2710 C   0  0  0  0  0  0  0  0  0  0  0  0
   40.1030   28.8100   37.3880 H   0  0  0  0  0  0  0  0  0  0  0  0
   41.1330   27.7850   39.0030 C   0  0  0  0  0  3  0  0  0  0  0  0
   41.9390   28.0630   40.1120 C   0  0  0  0  0  3  0  0  0  0  0  0
   42.0670   29.9800   40.0150 S   0  0  0  0  0  0  0  0  0  0  0  0
  1  7  1  6  0  0  0
  1  6  1  0  0  0  0
  1  2  1  0  0  0  0
  2  8  1  6  0  0  0
  2  3  1  0  0  0  0
  2 17  1  0  0  0  0
  4  9  1  0  0  0  0
  4  3  1  0  0  0  0
  5  6  1  0  0  0  0
  5 11  1  1  0  0  0
  5  4  1  0  0  0  0
  6 12  1  1  0  0  0
 10  4  1  0  0  0  0
 13  1  1  0  0  0  0
 14 13  1  0  0  0  0
 15  5  1  0  0  0  0
 16 15  1  0  0  0  0
 17 18  1  0  0  0  0
 18 23  1  0  0  0  0
 19 18  2  0  0  0  0
 19 20  1  0  0  0  0
 20 21  2  0  0  0  0
 21 22  1  0  0  0  0
 22 25  1  0  0  0  0
 23 22  2  0  0  0  0
 24 19  1  0  0  0  0
 26 27  1  0  0  0  0
 26 20  1  0  0  0  0
 26 28  1  0  0  0  0
 27 28  1  0  0  0  0
 27 30  1  0  0  0  0
 28 33  1  0  0  0  0
 29 26  1  0  0  0  0
 31 27  1  0  0  0  0
 32 28  1  0  0  0  0
 34 35  1  0  0  0  0
 34  6  1  0  0  0  0
 35 37  1  0  0  0  0
 36 35  2  0  0  0  0
 37 42  1  0  0  0  0
 38 37  2  0  0  0  0
 38 40  1  0  0  0  0
 39 38  1  0  0  0  0
 40 41  2  0  0  0  0
 42 41  1  0  0  0  0
M  END
>  <minimizedAffinity>
-5.61119938

>  <minimizedRMSD>
0.26639545

$$$$
