
 OpenBabel03242523503D

 40 43  0  0  1  0  0  0  0  0999 V2000
   42.8580   34.3680   38.9070 C   0  0  1  0  0  0  0  0  0  0  0  0
   43.0400   35.1550   40.2090 C   0  0  1  0  0  0  0  0  0  0  0  0
   41.7860   35.5930   40.6650 O   0  0  0  0  0  0  0  0  0  0  0  0
   40.8990   35.8890   39.6330 C   0  0  0  0  0  0  0  0  0  0  0  0
   40.4690   34.6220   38.9070 C   0  0  2  0  0  0  0  0  0  0  0  0
   41.5750   33.5840   39.1100 C   0  0  1  0  0  0  0  0  0  0  0  0
   43.7200   33.6930   38.7330 H   0  0  0  0  0  0  0  0  0  0  0  0
   43.6660   36.0480   40.0890 H   0  0  0  0  0  0  0  0  0  0  0  0
   41.2510   36.6700   38.9450 H   0  0  0  0  0  0  0  0  0  0  0  0
   39.9990   36.2910   40.1290 H   0  0  0  0  0  0  0  0  0  0  0  0
   39.4910   34.2710   39.2310 H   0  0  0  0  0  0  0  0  0  0  0  0
   41.4960   33.2920   40.1980 H   0  0  0  0  0  0  0  0  0  0  0  0
   42.7220   35.2340   37.8250 O   0  0  0  0  0  0  0  0  0  0  0  0
   43.5410   35.8120   37.8320 H   0  0  0  0  0  0  0  0  0  0  0  0
   40.5250   34.9030   37.5220 O   0  0  0  0  0  0  0  0  0  0  0  0
   39.8180   35.5340   37.2550 H   0  0  0  0  0  0  0  0  0  0  0  0
   43.4830   34.2270   41.1550 O   0  0  0  0  0  0  0  0  0  0  0  0
   44.6120   34.3170   41.8620 C   0  0  0  0  0  0  0  0  0  0  0  0
   45.8360   34.4730   41.2160 C   0  0  0  0  0  0  0  0  0  0  0  0
   46.9890   34.5640   41.9860 C   0  0  0  0  0  0  0  0  0  0  0  0
   46.8940   34.4980   43.3690 N   0  0  0  0  0  0  0  0  0  0  0  0
   45.6930   34.3460   43.9500 C   0  0  0  0  0  0  0  0  0  0  0  0
   44.5620   34.2570   43.2130 N   0  0  0  0  0  0  0  0  0  0  0  0
   45.9540   34.5290   40.1490 H   0  0  0  0  0  0  0  0  0  0  0  0
   45.5910   34.2910   45.0250 H   0  0  0  0  0  0  0  0  0  0  0  0
   48.3380   34.7230   41.3280 C   0  0  0  0  0  0  0  0  0  0  0  0
   49.0620   36.0320   41.5350 C   0  0  0  0  0  0  0  0  0  0  0  0
   49.5290   34.6940   42.1370 C   0  0  0  0  0  0  0  0  0  0  0  0
   48.2920   34.4540   40.2530 H   0  0  0  0  0  0  0  0  0  0  0  0
   49.6740   36.4650   40.7330 H   0  0  0  0  0  0  0  0  0  0  0  0
   48.6020   36.7240   42.2650 H   0  0  0  0  0  0  0  0  0  0  0  0
   49.3930   34.5760   43.2350 H   0  0  0  0  0  0  0  0  0  0  0  0
   50.4550   34.2980   41.6720 H   0  0  0  0  0  0  0  0  0  0  0  0
   41.4220   32.5270   38.2480 O   0  0  0  0  0  0  0  0  0  0  0  0
   40.3480   31.5980   38.6120 C   0  0  0  0  0  0  0  0  0  0  0  0
   39.6080   31.1460   37.6240 C   0  0  0  0  0  0  0  0  0  0  0  0
   39.6260   31.3280   36.5310 H   0  0  0  0  0  0  0  0  0  0  0  0
   38.5820   30.2940   37.7510 C   0  0  0  0  0  0  0  0  0  0  0  0
   38.3690   29.9170   39.0850 C   0  0  0  0  0  0  0  0  0  0  0  0
   39.7140   30.8650   40.0410 S   0  0  0  0  0  0  0  0  0  0  0  0
  1  7  1  6  0  0  0
  1  6  1  0  0  0  0
  1  2  1  0  0  0  0
  2  8  1  6  0  0  0
  2  3  1  0  0  0  0
  2 17  1  0  0  0  0
  4 10  1  0  0  0  0
  4  3  1  0  0  0  0
  5  6  1  0  0  0  0
  5 11  1  1  0  0  0
  5  4  1  0  0  0  0
  6 12  1  1  0  0  0
  9  4  1  0  0  0  0
 13 14  1  0  0  0  0
 13  1  1  0  0  0  0
 15  5  1  0  0  0  0
 16 15  1  0  0  0  0
 17 18  1  0  0  0  0
 18 23  1  0  0  0  0
 19 18  2  0  0  0  0
 19 20  1  0  0  0  0
 20 21  2  0  0  0  0
 21 22  1  0  0  0  0
 22 25  1  0  0  0  0
 23 22  2  0  0  0  0
 24 19  1  0  0  0  0
 26 27  1  0  0  0  0
 26 20  1  0  0  0  0
 26 28  1  0  0  0  0
 27 28  1  0  0  0  0
 27 31  1  0  0  0  0
 28 32  1  0  0  0  0
 29 26  1  0  0  0  0
 30 27  1  0  0  0  0
 33 28  1  0  0  0  0
 34 35  1  0  0  0  0
 34  6  1  0  0  0  0
 35 40  1  0  0  0  0
 36 38  1  0  0  0  0
 36 35  2  0  0  0  0
 37 36  1  0  0  0  0
 38 39  2  0  0  0  0
 39 40  1  0  0  0  0
M  END
>  <minimizedAffinity>
-6.08430672

>  <minimizedRMSD>
1.18340385

$$$$
