
 OpenBabel03252506343D

 30 32  0  0  1  0  0  0  0  0999 V2000
   44.4670   35.7450   45.0080 C   0  0  0  0  0  0  0  0  0  0  0  0
   45.1130   35.7020   43.7630 C   0  0  0  0  0  0  0  0  0  0  0  0
   46.0210   34.7130   43.5050 C   0  0  0  0  0  0  0  0  0  0  0  0
   46.2360   33.8210   44.5030 N   0  0  0  0  0  0  0  0  0  0  0  0
   45.6250   33.8610   45.6820 C   0  0  0  0  0  0  0  0  0  0  0  0
   44.7270   34.8230   45.9630 N   0  0  0  0  0  0  0  0  0  0  0  0
   45.9460   32.8610   46.6320 N   0  0  0  0  0  0  0  0  0  0  0  0
   45.1480   32.5830   47.8340 C   0  0  0  0  0  0  0  0  0  0  0  0
   46.2190   32.2600   48.8540 C   0  0  0  0  0  0  0  0  0  0  0  0
   47.5080   32.1060   48.0950 C   0  0  0  0  0  0  0  0  0  0  0  0
   47.0350   31.9290   46.6780 C   0  0  1  0  0  0  0  0  0  0  0  0
   43.7450   36.5150   45.2420 H   0  0  0  0  0  0  0  0  0  0  0  0
   46.5150   34.6830   42.5460 H   0  0  0  0  0  0  0  0  0  0  0  0
   44.5960   33.5260   48.1070 H   0  0  0  0  0  0  0  0  0  0  0  0
   44.4410   31.7490   47.6630 H   0  0  0  0  0  0  0  0  0  0  0  0
   46.2690   33.0170   49.6660 H   0  0  0  0  0  0  0  0  0  0  0  0
   45.9520   31.2740   49.3020 H   0  0  0  0  0  0  0  0  0  0  0  0
   48.0620   33.0660   48.1510 H   0  0  0  0  0  0  0  0  0  0  0  0
   48.1150   31.2440   48.4420 H   0  0  0  0  0  0  0  0  0  0  0  0
   47.8400   32.2030   45.9410 H   0  0  0  0  0  0  0  0  0  0  0  0
   44.7640   36.7300   42.8170 N   0  0  0  0  0  0  0  0  0  0  0  0
   44.5240   37.6810   43.1220 H   0  0  0  0  0  0  0  0  0  0  0  0
   44.7500   36.5100   41.7760 H   0  0  0  0  0  0  0  0  0  0  0  0
   46.4920   30.2140   46.4290 S   0  0  0  0  0  0  0  0  0  0  0  0
   47.0470   29.4680   45.0140 C   0  0  0  0  0  0  0  0  0  0  0  0
   47.7310   28.2900   44.6250 C   0  0  0  0  0  0  0  0  0  0  0  0
   47.9570   27.7110   45.4950 H   0  0  0  0  0  0  0  0  0  0  0  0
   48.0150   28.0160   43.3210 C   0  0  0  0  0  3  0  0  0  0  0  0
   47.5690   29.0250   42.3100 C   0  0  0  0  0  3  0  0  0  0  0  0
   46.7410   30.3390   43.3720 S   0  0  0  0  0  0  0  0  0  0  0  0
  1 12  1  0  0  0  0
  1  6  1  0  0  0  0
  2  1  2  0  0  0  0
  3  2  1  0  0  0  0
  3  4  2  0  0  0  0
  4  5  1  0  0  0  0
  5  6  2  0  0  0  0
  5  7  1  0  0  0  0
  7 11  1  0  0  0  0
  7  8  1  0  0  0  0
  8 14  1  0  0  0  0
  8  9  1  0  0  0  0
  9 17  1  0  0  0  0
  9 16  1  0  0  0  0
 10 18  1  0  0  0  0
 10 19  1  0  0  0  0
 10  9  1  0  0  0  0
 11 20  1  6  0  0  0
 11 10  1  0  0  0  0
 13  3  1  0  0  0  0
 15  8  1  0  0  0  0
 21 22  1  0  0  0  0
 21  2  1  0  0  0  0
 23 21  1  0  0  0  0
 24 11  1  0  0  0  0
 25 24  1  0  0  0  0
 26 25  2  0  0  0  0
 26 27  1  0  0  0  0
 28 26  1  0  0  0  0
 29 28  2  0  0  0  0
 29 30  1  0  0  0  0
 30 25  1  0  0  0  0
M  END
>  <minimizedAffinity>
-4.70215702

>  <minimizedRMSD>
1.29873371

$$$$
