
 OpenBabel03252504453D

 18 19  0  0  0  0  0  0  0  0999 V2000
   37.5350   28.1640   43.0920 C   0  0  0  0  0  0  0  0  0  0  0  0
   38.8280   27.6840   43.2900 C   0  0  0  0  0  0  0  0  0  0  0  0
   39.8940   28.4070   42.7460 C   0  0  0  0  0  0  0  0  0  0  0  0
   39.6050   29.5310   42.0570 N   0  0  0  0  0  0  0  0  0  0  0  0
   38.3380   29.9760   41.8800 C   0  0  0  0  0  0  0  0  0  0  0  0
   37.2930   29.2760   42.4080 N   0  0  0  0  0  0  0  0  0  0  0  0
   39.0270   26.7850   43.8430 H   0  0  0  0  0  0  0  0  0  0  0  0
   40.9150   28.0680   42.8760 H   0  0  0  0  0  0  0  0  0  0  0  0
   38.1400   31.1790   41.1350 C   0  0  0  0  0  0  0  0  0  0  0  0
   37.0760   31.6010   40.3770 C   0  0  0  0  0  0  0  0  0  0  0  0
   36.2180   30.9420   40.3020 H   0  0  0  0  0  0  0  0  0  0  0  0
   37.1660   32.8280   39.7620 C   0  0  0  0  0  3  0  0  0  0  0  0
   38.2890   33.5610   39.9300 C   0  0  0  0  0  3  0  0  0  0  0  0
   39.3230   32.5050   41.0150 S   0  0  0  0  0  0  0  0  0  0  0  0
   36.4040   27.3860   43.6780 C   0  0  0  0  0  0  0  0  0  0  0  0
   35.8560   28.0420   44.3920 H   0  0  0  0  0  0  0  0  0  0  0  0
   36.7790   26.5380   44.2850 H   0  0  0  0  0  0  0  0  0  0  0  0
   35.7340   26.9800   42.8880 H   0  0  0  0  0  0  0  0  0  0  0  0
  1  2  1  0  0  0  0
  1 15  1  0  0  0  0
  2  7  1  0  0  0  0
  3  8  1  0  0  0  0
  3  2  2  0  0  0  0
  4  3  1  0  0  0  0
  5  4  2  0  0  0  0
  5  6  1  0  0  0  0
  6  1  2  0  0  0  0
  9  5  1  0  0  0  0
 10  9  2  0  0  0  0
 11 10  1  0  0  0  0
 12 13  2  0  0  0  0
 12 10  1  0  0  0  0
 13 14  1  0  0  0  0
 14  9  1  0  0  0  0
 15 17  1  0  0  0  0
 15 16  1  0  0  0  0
 18 15  1  0  0  0  0
M  END
>  <minimizedAffinity>
-4.11107826

$$$$

 OpenBabel03252504453D

 18 19  0  0  0  0  0  0  0  0999 V2000
   37.2820   28.6720   42.4780 C   0  0  0  0  0  0  0  0  0  0  0  0
   36.2200   28.0660   41.8120 C   0  0  0  0  0  0  0  0  0  0  0  0
   35.6360   28.7450   40.7380 C   0  0  0  0  0  0  0  0  0  0  0  0
   36.1390   29.9530   40.4100 N   0  0  0  0  0  0  0  0  0  0  0  0
   37.1740   30.5200   41.0750 C   0  0  0  0  0  0  0  0  0  0  0  0
   37.7490   29.8630   42.1230 N   0  0  0  0  0  0  0  0  0  0  0  0
   35.8400   27.1010   42.0960 H   0  0  0  0  0  0  0  0  0  0  0  0
   34.8070   28.3080   40.1930 H   0  0  0  0  0  0  0  0  0  0  0  0
   37.6320   31.8050   40.6470 C   0  0  0  0  0  0  0  0  0  0  0  0
   37.0240   32.7620   39.8730 C   0  0  0  0  0  0  0  0  0  0  0  0
   36.0280   32.5510   39.5010 H   0  0  0  0  0  0  0  0  0  0  0  0
   37.7160   33.9230   39.6190 C   0  0  0  0  0  3  0  0  0  0  0  0
   38.9550   34.0710   40.1390 C   0  0  0  0  0  3  0  0  0  0  0  0
   39.2170   32.5050   41.0550 S   0  0  0  0  0  0  0  0  0  0  0  0
   37.8990   27.9380   43.6220 C   0  0  0  0  0  0  0  0  0  0  0  0
   38.9740   27.7630   43.3910 H   0  0  0  0  0  0  0  0  0  0  0  0
   37.4520   26.9300   43.7330 H   0  0  0  0  0  0  0  0  0  0  0  0
   37.7640   28.4870   44.5800 H   0  0  0  0  0  0  0  0  0  0  0  0
  1 15  1  0  0  0  0
  2  7  1  0  0  0  0
  2  1  2  0  0  0  0
  3  2  1  0  0  0  0
  4  3  2  0  0  0  0
  4  5  1  0  0  0  0
  5  6  2  0  0  0  0
  6  1  1  0  0  0  0
  8  3  1  0  0  0  0
  9 14  1  0  0  0  0
  9  5  1  0  0  0  0
 10  9  2  0  0  0  0
 11 10  1  0  0  0  0
 12 10  1  0  0  0  0
 12 13  2  0  0  0  0
 13 14  1  0  0  0  0
 15 17  1  0  0  0  0
 15 18  1  0  0  0  0
 16 15  1  0  0  0  0
M  END
>  <minimizedAffinity>
-4.05987644

$$$$

 OpenBabel03252504453D

 18 19  0  0  0  0  0  0  0  0999 V2000
   37.3390   32.0560   39.4150 C   0  0  0  0  0  0  0  0  0  0  0  0
   37.3270   31.5200   38.1290 C   0  0  0  0  0  0  0  0  0  0  0  0
   37.3310   30.1290   37.9890 C   0  0  0  0  0  0  0  0  0  0  0  0
   37.3460   29.3840   39.1140 N   0  0  0  0  0  0  0  0  0  0  0  0
   37.3570   29.9310   40.3540 C   0  0  0  0  0  0  0  0  0  0  0  0
   37.3530   31.2870   40.4970 N   0  0  0  0  0  0  0  0  0  0  0  0
   37.3150   32.1390   37.2500 H   0  0  0  0  0  0  0  0  0  0  0  0
   37.3220   29.6730   37.0060 H   0  0  0  0  0  0  0  0  0  0  0  0
   37.3720   29.0520   41.4810 C   0  0  0  0  0  0  0  0  0  0  0  0
   36.4330   28.1590   41.9350 C   0  0  0  0  0  0  0  0  0  0  0  0
   35.5090   28.0710   41.3760 H   0  0  0  0  0  0  0  0  0  0  0  0
   36.7260   27.4340   43.0670 C   0  0  0  0  0  3  0  0  0  0  0  0
   37.9150   27.6310   43.6790 C   0  0  0  0  0  3  0  0  0  0  0  0
   38.7180   28.9080   42.6370 S   0  0  0  0  0  0  0  0  0  0  0  0
   37.3340   33.5420   39.5530 C   0  0  0  0  0  0  0  0  0  0  0  0
   36.4250   33.8400   40.1230 H   0  0  0  0  0  0  0  0  0  0  0  0
   37.2360   34.0320   38.5630 H   0  0  0  0  0  0  0  0  0  0  0  0
   38.2660   33.9110   40.0340 H   0  0  0  0  0  0  0  0  0  0  0  0
  1 15  1  0  0  0  0
  1  6  1  0  0  0  0
  2  1  2  0  0  0  0
  3  2  1  0  0  0  0
  3  4  2  0  0  0  0
  4  5  1  0  0  0  0
  5  6  2  0  0  0  0
  5  9  1  0  0  0  0
  7  2  1  0  0  0  0
  8  3  1  0  0  0  0
  9 10  2  0  0  0  0
  9 14  1  0  0  0  0
 10 12  1  0  0  0  0
 11 10  1  0  0  0  0
 12 13  2  0  0  0  0
 14 13  1  0  0  0  0
 15 18  1  0  0  0  0
 15 16  1  0  0  0  0
 17 15  1  0  0  0  0
M  END
>  <minimizedAffinity>
-3.95050716

$$$$

 OpenBabel03252504453D

 18 19  0  0  0  0  0  0  0  0999 V2000
   37.2180   27.1190   41.5060 C   0  0  0  0  0  0  0  0  0  0  0  0
   37.2820   26.9550   42.8880 C   0  0  0  0  0  0  0  0  0  0  0  0
   37.5190   28.0830   43.6790 C   0  0  0  0  0  0  0  0  0  0  0  0
   37.6720   29.2690   43.0530 N   0  0  0  0  0  0  0  0  0  0  0  0
   37.6050   29.4000   41.7070 C   0  0  0  0  0  0  0  0  0  0  0  0
   37.3740   28.3040   40.9290 N   0  0  0  0  0  0  0  0  0  0  0  0
   37.1550   25.9980   43.3590 H   0  0  0  0  0  0  0  0  0  0  0  0
   37.5760   28.0000   44.7580 H   0  0  0  0  0  0  0  0  0  0  0  0
   37.7810   30.7020   41.1430 C   0  0  0  0  0  0  0  0  0  0  0  0
   36.9320   31.4770   40.3920 C   0  0  0  0  0  0  0  0  0  0  0  0
   35.9530   31.0740   40.1620 H   0  0  0  0  0  0  0  0  0  0  0  0
   37.3790   32.7110   39.9800 C   0  0  0  0  0  3  0  0  0  0  0  0
   38.6240   33.1050   40.3300 C   0  0  0  0  0  3  0  0  0  0  0  0
   39.2560   31.6860   41.3040 S   0  0  0  0  0  0  0  0  0  0  0  0
   36.9630   25.9080   40.6710 C   0  0  0  0  0  0  0  0  0  0  0  0
   36.0240   26.0680   40.0950 H   0  0  0  0  0  0  0  0  0  0  0  0
   36.7730   25.0200   41.3070 H   0  0  0  0  0  0  0  0  0  0  0  0
   37.8260   25.6820   40.0060 H   0  0  0  0  0  0  0  0  0  0  0  0
  1  2  1  0  0  0  0
  2  7  1  0  0  0  0
  2  3  2  0  0  0  0
  3  8  1  0  0  0  0
  4  3  1  0  0  0  0
  5  4  2  0  0  0  0
  6  1  2  0  0  0  0
  6  5  1  0  0  0  0
  9 14  1  0  0  0  0
  9  5  1  0  0  0  0
 10  9  2  0  0  0  0
 11 10  1  0  0  0  0
 12 13  2  0  0  0  0
 12 10  1  0  0  0  0
 13 14  1  0  0  0  0
 15 17  1  0  0  0  0
 15  1  1  0  0  0  0
 16 15  1  0  0  0  0
 18 15  1  0  0  0  0
M  END
>  <minimizedAffinity>
-3.93482065

$$$$

 OpenBabel03252504453D

 18 19  0  0  0  0  0  0  0  0999 V2000
   38.1620   32.6060   40.1360 C   0  0  0  0  0  0  0  0  0  0  0  0
   39.5110   32.9260   40.2810 C   0  0  0  0  0  0  0  0  0  0  0  0
   40.3120   32.0860   41.0610 C   0  0  0  0  0  0  0  0  0  0  0  0
   39.7270   31.0100   41.6290 N   0  0  0  0  0  0  0  0  0  0  0  0
   38.4130   30.7220   41.4710 C   0  0  0  0  0  0  0  0  0  0  0  0
   37.6260   31.5370   40.7110 N   0  0  0  0  0  0  0  0  0  0  0  0
   39.9480   33.7900   39.8160 H   0  0  0  0  0  0  0  0  0  0  0  0
   41.3650   32.2990   41.1990 H   0  0  0  0  0  0  0  0  0  0  0  0
   37.8930   29.5570   42.1150 C   0  0  0  0  0  0  0  0  0  0  0  0
   38.2350   28.9620   43.3040 C   0  0  0  0  0  0  0  0  0  0  0  0
   39.0280   29.4160   43.8860 H   0  0  0  0  0  0  0  0  0  0  0  0
   37.5510   27.8290   43.6800 C   0  0  0  0  0  3  0  0  0  0  0  0
   36.5790   27.3540   42.8690 C   0  0  0  0  0  3  0  0  0  0  0  0
   36.5820   28.5400   41.4700 S   0  0  0  0  0  0  0  0  0  0  0  0
   37.3170   33.5090   39.3010 C   0  0  0  0  0  0  0  0  0  0  0  0
   36.8930   32.9170   38.4580 H   0  0  0  0  0  0  0  0  0  0  0  0
   37.9310   34.3020   38.8270 H   0  0  0  0  0  0  0  0  0  0  0  0
   36.5220   33.9990   39.9050 H   0  0  0  0  0  0  0  0  0  0  0  0
  1  2  2  0  0  0  0
  1  6  1  0  0  0  0
  2  3  1  0  0  0  0
  3  8  1  0  0  0  0
  3  4  2  0  0  0  0
  5  4  1  0  0  0  0
  5  9  1  0  0  0  0
  6  5  2  0  0  0  0
  7  2  1  0  0  0  0
  9 10  2  0  0  0  0
 10 12  1  0  0  0  0
 10 11  1  0  0  0  0
 13 12  2  0  0  0  0
 14  9  1  0  0  0  0
 14 13  1  0  0  0  0
 15 18  1  0  0  0  0
 15  1  1  0  0  0  0
 16 15  1  0  0  0  0
 17 15  1  0  0  0  0
M  END
>  <minimizedAffinity>
-3.91412067

$$$$

 OpenBabel03252504453D

 18 19  0  0  0  0  0  0  0  0999 V2000
   39.2480   25.6440   42.8510 C   0  0  0  0  0  0  0  0  0  0  0  0
   38.6450   24.4480   42.4690 C   0  0  0  0  0  0  0  0  0  0  0  0
   37.4660   24.5080   41.7190 C   0  0  0  0  0  0  0  0  0  0  0  0
   36.9800   25.7290   41.4100 N   0  0  0  0  0  0  0  0  0  0  0  0
   37.5860   26.8770   41.7940 C   0  0  0  0  0  0  0  0  0  0  0  0
   38.7370   26.8250   42.5250 N   0  0  0  0  0  0  0  0  0  0  0  0
   39.0560   23.4900   42.7290 H   0  0  0  0  0  0  0  0  0  0  0  0
   36.9660   23.6010   41.4020 H   0  0  0  0  0  0  0  0  0  0  0  0
   36.9890   28.1190   41.4140 C   0  0  0  0  0  0  0  0  0  0  0  0
   35.9530   28.3900   40.5550 C   0  0  0  0  0  0  0  0  0  0  0  0
   35.4780   27.5520   40.0570 H   0  0  0  0  0  0  0  0  0  0  0  0
   35.5860   29.7040   40.3800 C   0  0  0  0  0  3  0  0  0  0  0  0
   36.2540   30.6640   41.0560 C   0  0  0  0  0  3  0  0  0  0  0  0
   37.4930   29.7150   42.0190 S   0  0  0  0  0  0  0  0  0  0  0  0
   40.5060   25.5680   43.6490 C   0  0  0  0  0  0  0  0  0  0  0  0
   41.3170   26.0790   43.0810 H   0  0  0  0  0  0  0  0  0  0  0  0
   40.8420   24.5170   43.7620 H   0  0  0  0  0  0  0  0  0  0  0  0
   40.3730   26.0020   44.6650 H   0  0  0  0  0  0  0  0  0  0  0  0
  1 15  1  0  0  0  0
  2  7  1  0  0  0  0
  2  1  2  0  0  0  0
  3  2  1  0  0  0  0
  4  3  2  0  0  0  0
  4  5  1  0  0  0  0
  5  6  2  0  0  0  0
  6  1  1  0  0  0  0
  8  3  1  0  0  0  0
  9  5  1  0  0  0  0
  9 14  1  0  0  0  0
 10  9  2  0  0  0  0
 11 10  1  0  0  0  0
 12 10  1  0  0  0  0
 12 13  2  0  0  0  0
 13 14  1  0  0  0  0
 15 17  1  0  0  0  0
 15 18  1  0  0  0  0
 16 15  1  0  0  0  0
M  END
>  <minimizedAffinity>
-3.7539382

$$$$

 OpenBabel03252504453D

 18 19  0  0  0  0  0  0  0  0999 V2000
   38.5810   32.3490   40.6890 C   0  0  0  0  0  0  0  0  0  0  0  0
   37.3270   32.3150   40.0840 C   0  0  0  0  0  0  0  0  0  0  0  0
   36.5420   31.1690   40.2480 C   0  0  0  0  0  0  0  0  0  0  0  0
   37.0500   30.1590   40.9860 N   0  0  0  0  0  0  0  0  0  0  0  0
   38.2740   30.2190   41.5640 C   0  0  0  0  0  0  0  0  0  0  0  0
   39.0440   31.3340   41.4080 N   0  0  0  0  0  0  0  0  0  0  0  0
   36.9480   33.1350   39.5020 H   0  0  0  0  0  0  0  0  0  0  0  0
   35.5610   31.1020   39.7940 H   0  0  0  0  0  0  0  0  0  0  0  0
   38.7190   29.0950   42.3260 C   0  0  0  0  0  0  0  0  0  0  0  0
   38.0110   28.1510   43.0300 C   0  0  0  0  0  0  0  0  0  0  0  0
   36.9300   28.2340   43.0370 H   0  0  0  0  0  0  0  0  0  0  0  0
   38.7170   27.1660   43.6790 C   0  0  0  0  0  3  0  0  0  0  0  0
   40.0660   27.1670   43.5960 C   0  0  0  0  0  3  0  0  0  0  0  0
   40.4220   28.6290   42.5480 S   0  0  0  0  0  0  0  0  0  0  0  0
   39.4100   33.5770   40.5090 C   0  0  0  0  0  0  0  0  0  0  0  0
   39.6170   34.0140   41.5130 H   0  0  0  0  0  0  0  0  0  0  0  0
   38.8470   34.3580   39.9580 H   0  0  0  0  0  0  0  0  0  0  0  0
   40.3450   33.3610   39.9490 H   0  0  0  0  0  0  0  0  0  0  0  0
  1  6  1  0  0  0  0
  2  3  1  0  0  0  0
  2  1  2  0  0  0  0
  3  4  2  0  0  0  0
  4  5  1  0  0  0  0
  5  9  1  0  0  0  0
  6  5  2  0  0  0  0
  7  2  1  0  0  0  0
  8  3  1  0  0  0  0
  9 14  1  0  0  0  0
  9 10  2  0  0  0  0
 10 11  1  0  0  0  0
 10 12  1  0  0  0  0
 13 12  2  0  0  0  0
 14 13  1  0  0  0  0
 15  1  1  0  0  0  0
 15 16  1  0  0  0  0
 17 15  1  0  0  0  0
 18 15  1  0  0  0  0
M  END
>  <minimizedAffinity>
-3.70838833

$$$$

 OpenBabel03252504453D

 18 19  0  0  0  0  0  0  0  0999 V2000
   37.0180   30.2430   38.8570 C   0  0  0  0  0  0  0  0  0  0  0  0
   36.6330   31.2010   39.7930 C   0  0  0  0  0  0  0  0  0  0  0  0
   36.3280   30.7760   41.0900 C   0  0  0  0  0  0  0  0  0  0  0  0
   36.4240   29.4570   41.3580 N   0  0  0  0  0  0  0  0  0  0  0  0
   36.8020   28.5460   40.4290 C   0  0  0  0  0  0  0  0  0  0  0  0
   37.1010   28.9540   39.1620 N   0  0  0  0  0  0  0  0  0  0  0  0
   36.5650   32.2450   39.5500 H   0  0  0  0  0  0  0  0  0  0  0  0
   36.0240   31.4890   41.8480 H   0  0  0  0  0  0  0  0  0  0  0  0
   36.8730   27.1720   40.8170 C   0  0  0  0  0  0  0  0  0  0  0  0
   37.0830   26.5970   42.0460 C   0  0  0  0  0  0  0  0  0  0  0  0
   37.2230   27.2570   42.8940 H   0  0  0  0  0  0  0  0  0  0  0  0
   37.1010   25.2240   42.1220 C   0  0  0  0  0  3  0  0  0  0  0  0
   36.9130   24.5050   40.9920 C   0  0  0  0  0  3  0  0  0  0  0  0
   36.6900   25.7940   39.7060 S   0  0  0  0  0  0  0  0  0  0  0  0
   37.3430   30.7070   37.4760 C   0  0  0  0  0  0  0  0  0  0  0  0
   38.3980   30.4310   37.2500 H   0  0  0  0  0  0  0  0  0  0  0  0
   37.3060   31.8130   37.4110 H   0  0  0  0  0  0  0  0  0  0  0  0
   36.6340   30.2900   36.7280 H   0  0  0  0  0  0  0  0  0  0  0  0
  1  6  2  0  0  0  0
  1  2  1  0  0  0  0
  2  3  2  0  0  0  0
  3  4  1  0  0  0  0
  3  8  1  0  0  0  0
  5  9  1  0  0  0  0
  5  4  2  0  0  0  0
  6  5  1  0  0  0  0
  7  2  1  0  0  0  0
  9 10  2  0  0  0  0
 10 12  1  0  0  0  0
 10 11  1  0  0  0  0
 13 12  2  0  0  0  0
 14  9  1  0  0  0  0
 14 13  1  0  0  0  0
 15  1  1  0  0  0  0
 16 15  1  0  0  0  0
 17 15  1  0  0  0  0
 18 15  1  0  0  0  0
M  END
>  <minimizedAffinity>
-3.64277625

$$$$

 OpenBabel03252504453D

 18 19  0  0  0  0  0  0  0  0999 V2000
   39.0820   27.9640   42.8770 C   0  0  0  0  0  0  0  0  0  0  0  0
   37.9910   27.3080   43.4410 C   0  0  0  0  0  0  0  0  0  0  0  0
   36.7130   27.6070   42.9570 C   0  0  0  0  0  0  0  0  0  0  0  0
   36.6140   28.5190   41.9660 N   0  0  0  0  0  0  0  0  0  0  0  0
   37.6930   29.1430   41.4350 C   0  0  0  0  0  0  0  0  0  0  0  0
   38.9420   28.8550   41.9030 N   0  0  0  0  0  0  0  0  0  0  0  0
   38.1010   26.5850   44.2290 H   0  0  0  0  0  0  0  0  0  0  0  0
   35.8380   27.1180   43.3680 H   0  0  0  0  0  0  0  0  0  0  0  0
   37.4790   30.0930   40.3890 C   0  0  0  0  0  0  0  0  0  0  0  0
   37.0400   29.9230   39.0990 C   0  0  0  0  0  0  0  0  0  0  0  0
   36.8060   28.9160   38.7750 H   0  0  0  0  0  0  0  0  0  0  0  0
   36.9280   31.0390   38.3030 C   0  0  0  0  0  3  0  0  0  0  0  0
   37.2500   32.2450   38.8200 C   0  0  0  0  0  3  0  0  0  0  0  0
   37.7520   31.8450   40.5380 S   0  0  0  0  0  0  0  0  0  0  0  0
   40.4410   27.6370   43.4000 C   0  0  0  0  0  0  0  0  0  0  0  0
   41.0560   27.2380   42.5620 H   0  0  0  0  0  0  0  0  0  0  0  0
   40.3920   26.8180   44.1470 H   0  0  0  0  0  0  0  0  0  0  0  0
   40.9170   28.5190   43.8820 H   0  0  0  0  0  0  0  0  0  0  0  0
  1 15  1  0  0  0  0
  1  2  1  0  0  0  0
  2  7  1  0  0  0  0
  3  8  1  0  0  0  0
  3  2  2  0  0  0  0
  4  3  1  0  0  0  0
  5  6  1  0  0  0  0
  5  4  2  0  0  0  0
  6  1  2  0  0  0  0
  9 14  1  0  0  0  0
  9  5  1  0  0  0  0
 10  9  2  0  0  0  0
 11 10  1  0  0  0  0
 12 13  2  0  0  0  0
 12 10  1  0  0  0  0
 13 14  1  0  0  0  0
 15 18  1  0  0  0  0
 15 17  1  0  0  0  0
 16 15  1  0  0  0  0
M  END
>  <minimizedAffinity>
-3.62927961

$$$$
