
 OpenBabel03252509263D

 27 29  0  0  1  0  0  0  0  0999 V2000
   47.1460   35.2820   41.8000 C   0  0  1  0  0  0  0  0  0  0  0  0
   48.6650   35.5960   41.9360 C   0  0  0  0  0  0  0  0  0  0  0  0
   48.0230   34.4700   41.0620 C   0  0  2  0  0  0  0  0  0  0  0  0
   46.5760   36.1240   41.3570 H   0  0  0  0  0  0  0  0  0  0  0  0
   49.1900   35.3110   42.8400 H   0  0  0  0  0  0  0  0  0  0  0  0
   49.0310   36.4530   41.3480 H   0  0  0  0  0  0  0  0  0  0  0  0
   48.2480   33.4460   41.4960 H   0  0  0  0  0  0  0  0  0  0  0  0
   44.9960   34.7800   44.8350 C   0  0  0  0  0  0  0  0  0  0  0  0
   45.4750   35.3580   43.6180 C   0  0  0  0  0  0  0  0  0  0  0  0
   46.5910   34.7870   43.1060 C   0  0  0  0  0  0  0  0  0  0  0  0
   47.2170   33.7220   43.7270 N   0  0  0  0  0  0  0  0  0  0  0  0
   46.7270   33.2060   44.8810 C   0  0  0  0  0  0  0  0  0  0  0  0
   45.6140   33.7380   45.4350 N   0  0  0  0  0  0  0  0  0  0  0  0
   44.0980   35.2440   45.2400 H   0  0  0  0  0  0  0  0  0  0  0  0
   47.2080   32.3730   45.3760 H   0  0  0  0  0  0  0  0  0  0  0  0
   44.8400   36.4600   43.0010 N   0  0  0  0  0  0  0  0  0  0  0  0
   44.7490   37.4660   43.3040 H   0  0  0  0  0  0  0  0  0  0  0  0
   44.4630   36.0330   42.1320 H   0  0  0  0  0  0  0  0  0  0  0  0
   48.1370   34.5870   39.5590 C   0  0  0  0  0  0  0  0  0  0  0  0
   47.3650   35.3490   39.2600 H   0  0  0  0  0  0  0  0  0  0  0  0
   49.1590   34.8890   39.2510 H   0  0  0  0  0  0  0  0  0  0  0  0
   47.7190   33.3140   38.9430 C   0  0  0  0  0  0  0  0  0  0  0  0
   46.5910   32.5470   38.9520 C   0  0  0  0  0  0  0  0  0  0  0  0
   45.7520   32.8960   39.5360 H   0  0  0  0  0  0  0  0  0  0  0  0
   46.5980   31.3840   38.2220 C   0  0  0  0  0  3  0  0  0  0  0  0
   47.7290   31.0550   37.5240 C   0  0  0  0  0  3  0  0  0  0  0  0
   48.8670   32.4910   37.9290 S   0  0  0  0  0  0  0  0  0  0  0  0
  1  4  1  6  0  0  0
  1  2  1  0  0  0  0
  1 10  1  0  0  0  0
  2  5  1  0  0  0  0
  3  7  1  1  0  0  0
  3  1  1  0  0  0  0
  3  2  1  0  0  0  0
  6  2  1  0  0  0  0
  8 14  1  0  0  0  0
  8 13  1  0  0  0  0
  9  8  2  0  0  0  0
 10  9  1  0  0  0  0
 10 11  2  0  0  0  0
 11 12  1  0  0  0  0
 12 15  1  0  0  0  0
 12 13  2  0  0  0  0
 16 17  1  0  0  0  0
 16  9  1  0  0  0  0
 18 16  1  0  0  0  0
 19  3  1  0  0  0  0
 20 19  1  0  0  0  0
 21 19  1  0  0  0  0
 22 23  2  0  0  0  0
 22 19  1  0  0  0  0
 23 24  1  0  0  0  0
 25 23  1  0  0  0  0
 26 27  1  0  0  0  0
 26 25  2  0  0  0  0
 27 22  1  0  0  0  0
M  END
>  <minimizedAffinity>
-4.3906827

>  <minimizedRMSD>
1.36677635

$$$$
