
 OpenBabel03252504533D

 18 19  0  0  0  0  0  0  0  0999 V2000
   44.3710   35.9010   44.5350 C   0  0  0  0  0  0  0  0  0  0  0  0
   44.4370   35.2880   43.2720 C   0  0  0  0  0  0  0  0  0  0  0  0
   44.9540   34.0000   43.2280 C   0  0  0  0  0  0  0  0  0  0  0  0
   45.3660   33.4040   44.3970 N   0  0  0  0  0  0  0  0  0  0  0  0
   45.2790   34.0450   45.5830 C   0  0  0  0  0  0  0  0  0  0  0  0
   44.7840   35.2870   45.6480 N   0  0  0  0  0  0  0  0  0  0  0  0
   43.9610   36.9110   44.5360 H   0  0  0  0  0  0  0  0  0  0  0  0
   44.1090   35.7750   42.3840 H   0  0  0  0  0  0  0  0  0  0  0  0
   45.6050   33.5720   46.4990 H   0  0  0  0  0  0  0  0  0  0  0  0
   45.0230   33.3580   41.9120 C   0  0  0  0  0  0  0  0  0  0  0  0
   44.7750   32.2750   41.9680 H   0  0  0  0  0  0  0  0  0  0  0  0
   44.3340   33.8590   41.2080 H   0  0  0  0  0  0  0  0  0  0  0  0
   46.4070   33.4490   41.3900 C   0  0  0  0  0  0  0  0  0  0  0  0
   47.0370   34.4580   40.7310 C   0  0  0  0  0  0  0  0  0  0  0  0
   46.4780   35.3620   40.5340 H   0  0  0  0  0  0  0  0  0  0  0  0
   48.3450   34.2630   40.3600 C   0  0  0  0  0  3  0  0  0  0  0  0
   48.9550   33.0870   40.6580 C   0  0  0  0  0  3  0  0  0  0  0  0
   47.6240   32.1490   41.5310 S   0  0  0  0  0  0  0  0  0  0  0  0
  1  7  1  0  0  0  0
  1  6  1  0  0  0  0
  2  1  2  0  0  0  0
  3  2  1  0  0  0  0
  3  4  2  0  0  0  0
  4  5  1  0  0  0  0
  5  6  2  0  0  0  0
  5  9  1  0  0  0  0
  8  2  1  0  0  0  0
 10 11  1  0  0  0  0
 10  3  1  0  0  0  0
 12 10  1  0  0  0  0
 13 18  1  0  0  0  0
 13 10  1  0  0  0  0
 14 13  2  0  0  0  0
 15 14  1  0  0  0  0
 16 17  2  0  0  0  0
 16 14  1  0  0  0  0
 17 18  1  0  0  0  0
M  END
>  <minimizedAffinity>
-3.38394952

>  <minimizedRMSD>
2.46128178

$$$$
