
 OpenBabel03252505003D

 34 36  0  0  1  0  0  0  0  0999 V2000
   39.4190   32.8820   39.7430 N   0  0  0  0  0  0  0  0  0  0  0  0
   38.8730   34.1420   40.0850 C   0  0  0  0  0  0  0  0  0  0  0  0
   37.4580   33.9990   39.6700 C   0  0  0  0  0  0  0  0  0  0  0  0
   37.2510   32.5910   39.1310 C   0  0  0  0  0  0  0  0  0  0  0  0
   38.4620   31.8560   39.7270 C   0  0  2  0  0  0  0  0  0  0  0  0
   39.1460   35.0710   40.5110 H   0  0  0  0  0  0  0  0  0  0  0  0
   36.6370   34.6960   39.7230 H   0  0  0  0  0  0  0  0  0  0  0  0
   36.3190   32.2240   39.5920 H   0  0  0  0  0  0  0  0  0  0  0  0
   37.2650   32.5930   38.0390 H   0  0  0  0  0  0  0  0  0  0  0  0
   38.7820   30.9860   39.1640 H   0  0  0  0  0  0  0  0  0  0  0  0
   40.7560   32.7800   39.4380 C   0  0  0  0  0  0  0  0  0  0  0  0
   40.9960   33.5830   38.6920 H   0  0  0  0  0  0  0  0  0  0  0  0
   41.0440   31.8610   38.8800 H   0  0  0  0  0  0  0  0  0  0  0  0
   42.7680   32.0140   42.5540 C   0  0  0  0  0  0  0  0  0  0  0  0
   41.8220   31.8220   41.4980 C   0  0  0  0  0  0  0  0  0  0  0  0
   41.6580   32.8500   40.5710 C   0  0  0  0  0  0  0  0  0  0  0  0
   42.4060   33.9620   40.7330 N   0  0  0  0  0  0  0  0  0  0  0  0
   43.3130   34.1310   41.7560 C   0  0  0  0  0  0  0  0  0  0  0  0
   43.4900   33.1630   42.6550 N   0  0  0  0  0  0  0  0  0  0  0  0
   42.8210   31.1600   43.2180 H   0  0  0  0  0  0  0  0  0  0  0  0
   41.2520   30.9310   41.4070 H   0  0  0  0  0  0  0  0  0  0  0  0
   43.8820   35.0400   41.8350 H   0  0  0  0  0  0  0  0  0  0  0  0
   38.1330   31.5960   41.0660 O   0  0  0  0  0  0  0  0  0  0  0  0
   37.1770   29.2900   40.1580 O   0  0  0  0  0  0  0  0  0  0  0  0
   37.1360   30.2910   41.2860 P   0  0  2  0  0  0  0  0  0  0  0  0
   35.5380   30.8580   41.3810 O   0  0  0  0  0  0  0  0  0  0  0  0
   35.3690   31.2290   42.2880 H   0  0  0  0  0  0  0  0  0  0  0  0
   37.4450   29.5180   42.7830 O   0  0  0  0  0  0  0  0  0  0  0  0
   38.3010   28.4320   42.8080 C   0  0  0  0  0  0  0  0  0  0  0  0
   38.0070   27.0880   42.9700 C   0  0  0  0  0  0  0  0  0  0  0  0
   36.9740   26.8100   43.0970 H   0  0  0  0  0  0  0  0  0  0  0  0
   38.9960   26.1540   42.9680 C   0  0  0  0  0  3  0  0  0  0  0  0
   40.3710   26.6900   42.7830 C   0  0  0  0  0  3  0  0  0  0  0  0
   40.0910   28.5560   42.6240 S   0  0  0  0  0  0  0  0  0  0  0  0
  1  2  1  0  0  0  0
  2  6  1  0  0  0  0
  3  7  1  0  0  0  0
  3  2  2  0  0  0  0
  4  8  1  0  0  0  0
  4  3  1  0  0  0  0
  4  5  1  0  0  0  0
  5 10  1  6  0  0  0
  5  1  1  0  0  0  0
  5 23  1  0  0  0  0
  9  4  1  0  0  0  0
 11  1  1  0  0  0  0
 11 16  1  0  0  0  0
 12 11  1  0  0  0  0
 13 11  1  0  0  0  0
 14 19  1  0  0  0  0
 14 20  1  0  0  0  0
 15 14  2  0  0  0  0
 16 17  2  0  0  0  0
 16 15  1  0  0  0  0
 17 18  1  0  0  0  0
 18 22  1  0  0  0  0
 18 19  2  0  0  0  0
 21 15  1  0  0  0  0
 23 25  1  0  0  0  0
 25 24  2  6  0  0  0
 25 26  1  0  0  0  0
 25 28  1  0  0  0  0
 26 27  1  0  0  0  0
 28 29  1  0  0  0  0
 29 30  2  0  0  0  0
 30 31  1  0  0  0  0
 32 30  1  0  0  0  0
 33 32  2  0  0  0  0
 34 33  1  0  0  0  0
 34 29  1  0  0  0  0
M  END
>  <minimizedAffinity>
-5.26811647

$$$$

 OpenBabel03252505003D

 34 36  0  0  1  0  0  0  0  0999 V2000
   38.7990   29.4220   42.6670 N   0  0  0  0  0  0  0  0  0  0  0  0
   39.4680   28.1770   42.7430 C   0  0  0  0  0  0  0  0  0  0  0  0
   38.4580   27.3120   43.3970 C   0  0  0  0  0  0  0  0  0  0  0  0
   37.1950   28.1300   43.6280 C   0  0  0  0  0  0  0  0  0  0  0  0
   37.4020   29.2920   42.6430 C   0  0  2  0  0  0  0  0  0  0  0  0
   40.3890   27.7190   42.4950 H   0  0  0  0  0  0  0  0  0  0  0  0
   38.5000   26.2710   43.6750 H   0  0  0  0  0  0  0  0  0  0  0  0
   36.3580   27.4960   43.2970 H   0  0  0  0  0  0  0  0  0  0  0  0
   37.1460   28.4710   44.6650 H   0  0  0  0  0  0  0  0  0  0  0  0
   36.8860   30.2070   42.9130 H   0  0  0  0  0  0  0  0  0  0  0  0
   39.5290   30.5860   42.6580 C   0  0  0  0  0  0  0  0  0  0  0  0
   40.5720   30.3360   42.9840 H   0  0  0  0  0  0  0  0  0  0  0  0
   39.2290   31.3370   43.4230 H   0  0  0  0  0  0  0  0  0  0  0  0
   40.1750   31.6710   39.0870 C   0  0  0  0  0  0  0  0  0  0  0  0
   40.2720   30.8860   40.2800 C   0  0  0  0  0  0  0  0  0  0  0  0
   39.5460   31.2990   41.3960 C   0  0  0  0  0  0  0  0  0  0  0  0
   38.7970   32.4160   41.2750 N   0  0  0  0  0  0  0  0  0  0  0  0
   38.7140   33.1610   40.1200 C   0  0  0  0  0  0  0  0  0  0  0  0
   39.3990   32.7880   39.0380 N   0  0  0  0  0  0  0  0  0  0  0  0
   40.7740   31.2680   38.2800 H   0  0  0  0  0  0  0  0  0  0  0  0
   40.8730   30.0140   40.3330 H   0  0  0  0  0  0  0  0  0  0  0  0
   38.1010   34.0420   40.0820 H   0  0  0  0  0  0  0  0  0  0  0  0
   37.0690   28.7860   41.3770 O   0  0  0  0  0  0  0  0  0  0  0  0
   36.8650   30.3230   39.2210 O   0  0  0  0  0  0  0  0  0  0  0  0
   36.1550   29.8100   40.4490 P   0  0  2  0  0  0  0  0  0  0  0  0
   35.7620   31.1680   41.3900 O   0  0  0  0  0  0  0  0  0  0  0  0
   35.0130   30.9420   42.0050 H   0  0  0  0  0  0  0  0  0  0  0  0
   34.6600   29.0930   40.0200 O   0  0  0  0  0  0  0  0  0  0  0  0
   34.5120   28.5720   38.7470 C   0  0  0  0  0  0  0  0  0  0  0  0
   33.5990   28.9110   37.7620 C   0  0  0  0  0  0  0  0  0  0  0  0
   32.8860   29.6890   37.9820 H   0  0  0  0  0  0  0  0  0  0  0  0
   33.6080   28.2780   36.5580 C   0  0  0  0  0  3  0  0  0  0  0  0
   34.6480   27.2280   36.4030 C   0  0  0  0  0  3  0  0  0  0  0  0
   35.5460   27.2580   38.0700 S   0  0  0  0  0  0  0  0  0  0  0  0
  1  2  1  0  0  0  0
  2  3  2  0  0  0  0
  3  4  1  0  0  0  0
  3  7  1  0  0  0  0
  4  9  1  0  0  0  0
  5  1  1  0  0  0  0
  5 10  1  1  0  0  0
  5  4  1  0  0  0  0
  6  2  1  0  0  0  0
  8  4  1  0  0  0  0
 11  1  1  0  0  0  0
 11 12  1  0  0  0  0
 11 13  1  0  0  0  0
 14 15  1  0  0  0  0
 15 21  1  0  0  0  0
 15 16  2  0  0  0  0
 16 11  1  0  0  0  0
 17 16  1  0  0  0  0
 18 17  2  0  0  0  0
 19 14  2  0  0  0  0
 19 18  1  0  0  0  0
 20 14  1  0  0  0  0
 22 18  1  0  0  0  0
 23  5  1  0  0  0  0
 25 24  2  6  0  0  0
 25 23  1  0  0  0  0
 25 26  1  0  0  0  0
 26 27  1  0  0  0  0
 28 25  1  0  0  0  0
 29 28  1  0  0  0  0
 30 31  1  0  0  0  0
 30 29  2  0  0  0  0
 32 30  1  0  0  0  0
 33 32  2  0  0  0  0
 33 34  1  0  0  0  0
 34 29  1  0  0  0  0
M  END
>  <minimizedAffinity>
-5.20902014

$$$$

 OpenBabel03252505003D

 34 36  0  0  1  0  0  0  0  0999 V2000
   39.1260   32.7880   40.4370 N   0  0  0  0  0  0  0  0  0  0  0  0
   38.4120   34.0080   40.5070 C   0  0  0  0  0  0  0  0  0  0  0  0
   37.3050   33.7850   39.5480 C   0  0  0  0  0  0  0  0  0  0  0  0
   37.4220   32.3730   38.9920 C   0  0  0  0  0  0  0  0  0  0  0  0
   38.3230   31.7060   40.0440 C   0  0  2  0  0  0  0  0  0  0  0  0
   38.4290   34.9480   40.9930 H   0  0  0  0  0  0  0  0  0  0  0  0
   36.4940   34.4300   39.2490 H   0  0  0  0  0  0  0  0  0  0  0  0
   36.4070   31.9440   39.0350 H   0  0  0  0  0  0  0  0  0  0  0  0
   37.8840   32.3890   38.0020 H   0  0  0  0  0  0  0  0  0  0  0  0
   38.8980   30.8630   39.6750 H   0  0  0  0  0  0  0  0  0  0  0  0
   40.4730   32.7720   40.7110 C   0  0  0  0  0  0  0  0  0  0  0  0
   40.6900   31.8360   41.2890 H   0  0  0  0  0  0  0  0  0  0  0  0
   40.8210   33.5590   41.4170 H   0  0  0  0  0  0  0  0  0  0  0  0
   42.3670   33.9790   37.6620 C   0  0  0  0  0  0  0  0  0  0  0  0
   41.4470   34.0100   38.7570 C   0  0  0  0  0  0  0  0  0  0  0  0
   41.3420   32.8710   39.5550 C   0  0  0  0  0  0  0  0  0  0  0  0
   42.1180   31.8130   39.2380 N   0  0  0  0  0  0  0  0  0  0  0  0
   42.9990   31.8000   38.1790 C   0  0  0  0  0  0  0  0  0  0  0  0
   43.1190   32.8760   37.4010 N   0  0  0  0  0  0  0  0  0  0  0  0
   42.3740   34.9090   37.1050 H   0  0  0  0  0  0  0  0  0  0  0  0
   40.8540   34.8630   38.9720 H   0  0  0  0  0  0  0  0  0  0  0  0
   43.5920   30.9280   37.9750 H   0  0  0  0  0  0  0  0  0  0  0  0
   37.4890   31.4110   41.1330 O   0  0  0  0  0  0  0  0  0  0  0  0
   37.4560   28.9860   40.0510 O   0  0  0  0  0  0  0  0  0  0  0  0
   36.9010   29.8620   41.1460 P   0  0  2  0  0  0  0  0  0  0  0  0
   35.2200   29.9330   40.9140 O   0  0  0  0  0  0  0  0  0  0  0  0
   34.7750   30.1840   41.7670 H   0  0  0  0  0  0  0  0  0  0  0  0
   37.1280   29.1240   42.6750 O   0  0  0  0  0  0  0  0  0  0  0  0
   38.3250   28.4820   42.9340 C   0  0  0  0  0  0  0  0  0  0  0  0
   38.5480   27.2380   43.5030 C   0  0  0  0  0  0  0  0  0  0  0  0
   37.6890   26.6580   43.7970 H   0  0  0  0  0  0  0  0  0  0  0  0
   39.8130   26.7710   43.6790 C   0  0  0  0  0  3  0  0  0  0  0  0
   40.8950   27.6850   43.2240 C   0  0  0  0  0  3  0  0  0  0  0  0
   39.9450   29.1830   42.5600 S   0  0  0  0  0  0  0  0  0  0  0  0
  1  2  1  0  0  0  0
  1 11  1  0  0  0  0
  2  6  1  0  0  0  0
  3  2  2  0  0  0  0
  4  8  1  0  0  0  0
  4  3  1  0  0  0  0
  4  5  1  0  0  0  0
  5 10  1  6  0  0  0
  5  1  1  0  0  0  0
  5 23  1  0  0  0  0
  7  3  1  0  0  0  0
  9  4  1  0  0  0  0
 11 12  1  0  0  0  0
 11 13  1  0  0  0  0
 14 15  1  0  0  0  0
 15 21  1  0  0  0  0
 15 16  2  0  0  0  0
 16 11  1  0  0  0  0
 17 16  1  0  0  0  0
 18 17  2  0  0  0  0
 19 14  2  0  0  0  0
 19 18  1  0  0  0  0
 20 14  1  0  0  0  0
 22 18  1  0  0  0  0
 23 25  1  0  0  0  0
 25 24  2  6  0  0  0
 25 28  1  0  0  0  0
 26 25  1  0  0  0  0
 26 27  1  0  0  0  0
 28 29  1  0  0  0  0
 29 30  2  0  0  0  0
 30 32  1  0  0  0  0
 30 31  1  0  0  0  0
 33 32  2  0  0  0  0
 34 29  1  0  0  0  0
 34 33  1  0  0  0  0
M  END
>  <minimizedAffinity>
-5.18446779

$$$$

 OpenBabel03252505003D

 34 36  0  0  1  0  0  0  0  0999 V2000
   36.3950   27.6540   39.3190 N   0  0  0  0  0  0  0  0  0  0  0  0
   36.6780   27.4050   37.9550 C   0  0  0  0  0  0  0  0  0  0  0  0
   35.7130   28.2910   37.2630 C   0  0  0  0  0  0  0  0  0  0  0  0
   34.9280   29.0660   38.3120 C   0  0  0  0  0  0  0  0  0  0  0  0
   35.8400   28.9230   39.5410 C   0  0  2  0  0  0  0  0  0  0  0  0
   37.3140   26.8290   37.3360 H   0  0  0  0  0  0  0  0  0  0  0  0
   35.5380   28.4530   36.2120 H   0  0  0  0  0  0  0  0  0  0  0  0
   34.9140   30.1130   37.9690 H   0  0  0  0  0  0  0  0  0  0  0  0
   33.9470   28.6110   38.4700 H   0  0  0  0  0  0  0  0  0  0  0  0
   35.3270   29.0020   40.4940 H   0  0  0  0  0  0  0  0  0  0  0  0
   36.6410   26.6760   40.2540 C   0  0  0  0  0  0  0  0  0  0  0  0
   37.0720   25.7920   39.7150 H   0  0  0  0  0  0  0  0  0  0  0  0
   35.7340   26.2330   40.7230 H   0  0  0  0  0  0  0  0  0  0  0  0
   38.0000   27.6740   43.6450 C   0  0  0  0  0  0  0  0  0  0  0  0
   37.0380   27.3180   42.6470 C   0  0  0  0  0  0  0  0  0  0  0  0
   37.4980   27.0710   41.3550 C   0  0  0  0  0  0  0  0  0  0  0  0
   38.8240   27.1850   41.1310 N   0  0  0  0  0  0  0  0  0  0  0  0
   39.7380   27.5290   42.1030 C   0  0  0  0  0  0  0  0  0  0  0  0
   39.3250   27.7700   43.3480 N   0  0  0  0  0  0  0  0  0  0  0  0
   37.5440   27.8450   44.6130 H   0  0  0  0  0  0  0  0  0  0  0  0
   36.0030   27.2400   42.8650 H   0  0  0  0  0  0  0  0  0  0  0  0
   40.7830   27.6050   41.8660 H   0  0  0  0  0  0  0  0  0  0  0  0
   36.8780   29.8500   39.3590 O   0  0  0  0  0  0  0  0  0  0  0  0
   38.1100   30.5800   41.5960 O   0  0  0  0  0  0  0  0  0  0  0  0
   37.0440   30.9430   40.5930 P   0  0  2  0  0  0  0  0  0  0  0  0
   35.5740   31.0090   41.4430 O   0  0  0  0  0  0  0  0  0  0  0  0
   34.9230   31.5680   40.9410 H   0  0  0  0  0  0  0  0  0  0  0  0
   37.3030   32.5260   39.9910 O   0  0  0  0  0  0  0  0  0  0  0  0
   38.5890   32.9080   39.6560 C   0  0  0  0  0  0  0  0  0  0  0  0
   39.3690   33.9230   40.1890 C   0  0  0  0  0  0  0  0  0  0  0  0
   38.9470   34.5200   40.9800 H   0  0  0  0  0  0  0  0  0  0  0  0
   40.6270   34.1510   39.7230 C   0  0  0  0  0  3  0  0  0  0  0  0
   41.0700   33.2460   38.6300 C   0  0  0  0  0  3  0  0  0  0  0  0
   39.5750   32.1120   38.3720 S   0  0  0  0  0  0  0  0  0  0  0  0
  1  5  1  0  0  0  0
  1 11  1  0  0  0  0
  2  1  1  0  0  0  0
  3  2  2  0  0  0  0
  3  4  1  0  0  0  0
  4  9  1  0  0  0  0
  4  5  1  0  0  0  0
  5 10  1  1  0  0  0
  6  2  1  0  0  0  0
  7  3  1  0  0  0  0
  8  4  1  0  0  0  0
 11 13  1  0  0  0  0
 11 16  1  0  0  0  0
 12 11  1  0  0  0  0
 14 20  1  0  0  0  0
 15 21  1  0  0  0  0
 15 14  2  0  0  0  0
 16 15  1  0  0  0  0
 17 16  2  0  0  0  0
 17 18  1  0  0  0  0
 18 19  2  0  0  0  0
 19 14  1  0  0  0  0
 22 18  1  0  0  0  0
 23  5  1  0  0  0  0
 23 25  1  0  0  0  0
 25 26  1  0  0  0  0
 25 24  2  1  0  0  0
 27 26  1  0  0  0  0
 28 25  1  0  0  0  0
 29 28  1  0  0  0  0
 29 30  2  0  0  0  0
 30 31  1  0  0  0  0
 32 30  1  0  0  0  0
 33 32  2  0  0  0  0
 34 33  1  0  0  0  0
 34 29  1  0  0  0  0
M  END
>  <minimizedAffinity>
-5.09793663

$$$$

 OpenBabel03252505003D

 34 36  0  0  1  0  0  0  0  0999 V2000
   37.0120   30.1330   39.2390 N   0  0  0  0  0  0  0  0  0  0  0  0
   37.6580   29.0210   38.6470 C   0  0  0  0  0  0  0  0  0  0  0  0
   37.9250   29.5040   37.2720 C   0  0  0  0  0  0  0  0  0  0  0  0
   37.4400   30.9420   37.1590 C   0  0  0  0  0  0  0  0  0  0  0  0
   37.3610   31.3520   38.6380 C   0  0  2  0  0  0  0  0  0  0  0  0
   37.9790   28.0380   38.8710 H   0  0  0  0  0  0  0  0  0  0  0  0
   38.3990   29.0140   36.4360 H   0  0  0  0  0  0  0  0  0  0  0  0
   38.2470   31.4960   36.6540 H   0  0  0  0  0  0  0  0  0  0  0  0
   36.4650   30.9790   36.6670 H   0  0  0  0  0  0  0  0  0  0  0  0
   36.6510   32.1460   38.8470 H   0  0  0  0  0  0  0  0  0  0  0  0
   36.1240   29.9340   40.2700 C   0  0  0  0  0  0  0  0  0  0  0  0
   35.2270   29.4100   39.8480 H   0  0  0  0  0  0  0  0  0  0  0  0
   35.6680   30.8610   40.6850 H   0  0  0  0  0  0  0  0  0  0  0  0
   36.8410   27.3340   42.9280 C   0  0  0  0  0  0  0  0  0  0  0  0
   36.2140   27.9440   41.7950 C   0  0  0  0  0  0  0  0  0  0  0  0
   36.6490   29.2110   41.4110 C   0  0  0  0  0  0  0  0  0  0  0  0
   37.6360   29.7800   42.1370 N   0  0  0  0  0  0  0  0  0  0  0  0
   38.2280   29.1790   43.2250 C   0  0  0  0  0  0  0  0  0  0  0  0
   37.8310   27.9670   43.6140 N   0  0  0  0  0  0  0  0  0  0  0  0
   36.4330   26.3540   43.1450 H   0  0  0  0  0  0  0  0  0  0  0  0
   35.4410   27.4630   41.2520 H   0  0  0  0  0  0  0  0  0  0  0  0
   39.0100   29.6800   43.7660 H   0  0  0  0  0  0  0  0  0  0  0  0
   38.6790   31.6290   39.0310 O   0  0  0  0  0  0  0  0  0  0  0  0
   39.3570   32.3920   41.4840 O   0  0  0  0  0  0  0  0  0  0  0  0
   38.8190   32.8450   40.1490 P   0  0  2  0  0  0  0  0  0  0  0  0
   37.2720   33.4830   40.4340 O   0  0  0  0  0  0  0  0  0  0  0  0
   37.0220   34.0970   39.6930 H   0  0  0  0  0  0  0  0  0  0  0  0
   39.7530   34.1450   39.5390 O   0  0  0  0  0  0  0  0  0  0  0  0
   41.0980   33.9400   39.2900 C   0  0  0  0  0  0  0  0  0  0  0  0
   42.1860   34.1600   40.1190 C   0  0  0  0  0  0  0  0  0  0  0  0
   41.9960   34.5440   41.1080 H   0  0  0  0  0  0  0  0  0  0  0  0
   43.4500   33.8960   39.6930 C   0  0  0  0  0  3  0  0  0  0  0  0
   43.5530   33.3720   38.3050 C   0  0  0  0  0  3  0  0  0  0  0  0
   41.7490   33.3070   37.7320 S   0  0  0  0  0  0  0  0  0  0  0  0
  1 11  1  0  0  0  0
  2  6  1  0  0  0  0
  2  1  1  0  0  0  0
  3  2  2  0  0  0  0
  4  3  1  0  0  0  0
  4  5  1  0  0  0  0
  5 10  1  1  0  0  0
  5 23  1  0  0  0  0
  5  1  1  0  0  0  0
  7  3  1  0  0  0  0
  8  4  1  0  0  0  0
  9  4  1  0  0  0  0
 11 13  1  0  0  0  0
 11 16  1  0  0  0  0
 12 11  1  0  0  0  0
 14 20  1  0  0  0  0
 14 19  1  0  0  0  0
 15 14  2  0  0  0  0
 16 15  1  0  0  0  0
 16 17  2  0  0  0  0
 17 18  1  0  0  0  0
 18 19  2  0  0  0  0
 18 22  1  0  0  0  0
 21 15  1  0  0  0  0
 23 25  1  0  0  0  0
 25 26  1  0  0  0  0
 25 24  2  1  0  0  0
 27 26  1  0  0  0  0
 28 25  1  0  0  0  0
 29 28  1  0  0  0  0
 29 30  2  0  0  0  0
 30 31  1  0  0  0  0
 32 30  1  0  0  0  0
 33 32  2  0  0  0  0
 34 33  1  0  0  0  0
 34 29  1  0  0  0  0
M  END
>  <minimizedAffinity>
-5.09240341

$$$$

 OpenBabel03252505003D

 34 36  0  0  1  0  0  0  0  0999 V2000
   39.0870   32.0290   40.2500 N   0  0  0  0  0  0  0  0  0  0  0  0
   38.4250   33.2750   40.1460 C   0  0  0  0  0  0  0  0  0  0  0  0
   37.2590   32.9460   39.2940 C   0  0  0  0  0  0  0  0  0  0  0  0
   37.2920   31.4570   38.9800 C   0  0  0  0  0  0  0  0  0  0  0  0
   38.2240   30.9350   40.0840 C   0  0  2  0  0  0  0  0  0  0  0  0
   38.5050   34.2800   40.4650 H   0  0  0  0  0  0  0  0  0  0  0  0
   36.4580   33.5690   38.9300 H   0  0  0  0  0  0  0  0  0  0  0  0
   36.2660   31.0890   39.1430 H   0  0  0  0  0  0  0  0  0  0  0  0
   37.6980   31.2860   37.9810 H   0  0  0  0  0  0  0  0  0  0  0  0
   38.7460   30.0160   39.8360 H   0  0  0  0  0  0  0  0  0  0  0  0
   40.4460   31.9950   40.4560 C   0  0  0  0  0  0  0  0  0  0  0  0
   40.7270   30.9370   40.6980 H   0  0  0  0  0  0  0  0  0  0  0  0
   40.7980   32.5340   41.3650 H   0  0  0  0  0  0  0  0  0  0  0  0
   42.0720   32.5810   37.0860 C   0  0  0  0  0  0  0  0  0  0  0  0
   41.2450   31.9630   38.0780 C   0  0  0  0  0  0  0  0  0  0  0  0
   41.2530   32.5010   39.3640 C   0  0  0  0  0  0  0  0  0  0  0  0
   42.0430   33.5730   39.5880 N   0  0  0  0  0  0  0  0  0  0  0  0
   42.8340   34.1560   38.6220 C   0  0  0  0  0  0  0  0  0  0  0  0
   42.8450   33.6610   37.3840 N   0  0  0  0  0  0  0  0  0  0  0  0
   41.9950   32.0900   36.1240 H   0  0  0  0  0  0  0  0  0  0  0  0
   40.6380   31.1210   37.8610 H   0  0  0  0  0  0  0  0  0  0  0  0
   43.4430   35.0080   38.8580 H   0  0  0  0  0  0  0  0  0  0  0  0
   37.4420   30.8650   41.2470 O   0  0  0  0  0  0  0  0  0  0  0  0
   35.4670   29.1000   41.0450 O   0  0  0  0  0  0  0  0  0  0  0  0
   36.8520   29.3540   41.5860 P   0  0  2  0  0  0  0  0  0  0  0  0
   36.7560   29.1910   43.2740 O   0  0  0  0  0  0  0  0  0  0  0  0
   37.6590   28.9980   43.6430 H   0  0  0  0  0  0  0  0  0  0  0  0
   37.9320   28.1320   41.0620 O   0  0  0  0  0  0  0  0  0  0  0  0
   37.5180   26.8130   41.1070 C   0  0  0  0  0  0  0  0  0  0  0  0
   37.4620   25.9480   42.1880 C   0  0  0  0  0  0  0  0  0  0  0  0
   37.7770   26.3220   43.1480 H   0  0  0  0  0  0  0  0  0  0  0  0
   37.0210   24.6710   42.0340 C   0  0  0  0  0  3  0  0  0  0  0  0
   36.6220   24.3010   40.6500 C   0  0  0  0  0  3  0  0  0  0  0  0
   36.9310   25.8920   39.6710 S   0  0  0  0  0  0  0  0  0  0  0  0
  1 11  1  0  0  0  0
  2  1  1  0  0  0  0
  2  6  1  0  0  0  0
  3  2  2  0  0  0  0
  4  8  1  0  0  0  0
  4  3  1  0  0  0  0
  4  5  1  0  0  0  0
  5 10  1  6  0  0  0
  5  1  1  0  0  0  0
  5 23  1  0  0  0  0
  7  3  1  0  0  0  0
  9  4  1  0  0  0  0
 11 12  1  0  0  0  0
 11 13  1  0  0  0  0
 14 19  2  0  0  0  0
 14 15  1  0  0  0  0
 15 16  2  0  0  0  0
 16 17  1  0  0  0  0
 16 11  1  0  0  0  0
 18 22  1  0  0  0  0
 18 17  2  0  0  0  0
 19 18  1  0  0  0  0
 20 14  1  0  0  0  0
 21 15  1  0  0  0  0
 23 25  1  0  0  0  0
 25 24  2  6  0  0  0
 25 26  1  0  0  0  0
 26 27  1  0  0  0  0
 28 29  1  0  0  0  0
 28 25  1  0  0  0  0
 29 30  2  0  0  0  0
 30 31  1  0  0  0  0
 32 30  1  0  0  0  0
 33 32  2  0  0  0  0
 34 33  1  0  0  0  0
 34 29  1  0  0  0  0
M  END
>  <minimizedAffinity>
-5.06051683

$$$$

 OpenBabel03252505003D

 34 36  0  0  1  0  0  0  0  0999 V2000
   37.3720   28.1380   41.3960 N   0  0  0  0  0  0  0  0  0  0  0  0
   36.6130   27.9250   42.5720 C   0  0  0  0  0  0  0  0  0  0  0  0
   37.4740   28.5220   43.6190 C   0  0  0  0  0  0  0  0  0  0  0  0
   38.7100   29.1110   42.9530 C   0  0  0  0  0  0  0  0  0  0  0  0
   38.2400   29.2360   41.4960 C   0  0  2  0  0  0  0  0  0  0  0  0
   35.6990   27.5060   42.8990 H   0  0  0  0  0  0  0  0  0  0  0  0
   37.3300   28.6040   44.6840 H   0  0  0  0  0  0  0  0  0  0  0  0
   38.8470   30.1110   43.3960 H   0  0  0  0  0  0  0  0  0  0  0  0
   39.5600   28.4320   43.0560 H   0  0  0  0  0  0  0  0  0  0  0  0
   39.0380   29.2140   40.7610 H   0  0  0  0  0  0  0  0  0  0  0  0
   37.2300   27.2810   40.3310 C   0  0  0  0  0  0  0  0  0  0  0  0
   37.8320   27.6950   39.4800 H   0  0  0  0  0  0  0  0  0  0  0  0
   36.2090   27.2450   39.8870 H   0  0  0  0  0  0  0  0  0  0  0  0
   39.0530   24.1090   41.3080 C   0  0  0  0  0  0  0  0  0  0  0  0
   38.8400   25.5040   41.0690 C   0  0  0  0  0  0  0  0  0  0  0  0
   37.5930   25.9020   40.5900 C   0  0  0  0  0  0  0  0  0  0  0  0
   36.6680   24.9410   40.3830 N   0  0  0  0  0  0  0  0  0  0  0  0
   36.8890   23.6020   40.6180 C   0  0  0  0  0  0  0  0  0  0  0  0
   38.0730   23.1940   41.0760 N   0  0  0  0  0  0  0  0  0  0  0  0
   40.0510   23.9030   41.6780 H   0  0  0  0  0  0  0  0  0  0  0  0
   39.5950   26.2270   41.2450 H   0  0  0  0  0  0  0  0  0  0  0  0
   36.1140   22.8810   40.4340 H   0  0  0  0  0  0  0  0  0  0  0  0
   37.4350   30.3850   41.4490 O   0  0  0  0  0  0  0  0  0  0  0  0
   39.2610   32.3140   41.4120 O   0  0  0  0  0  0  0  0  0  0  0  0
   38.1220   31.6710   40.6610 P   0  0  2  0  0  0  0  0  0  0  0  0
   36.9310   32.8650   40.4590 O   0  0  0  0  0  0  0  0  0  0  0  0
   36.3410   32.6220   39.6960 H   0  0  0  0  0  0  0  0  0  0  0  0
   38.6180   31.2380   39.0790 O   0  0  0  0  0  0  0  0  0  0  0  0
   37.8220   30.3790   38.3430 C   0  0  0  0  0  0  0  0  0  0  0  0
   36.4410   30.3400   38.2340 C   0  0  0  0  0  0  0  0  0  0  0  0
   35.8720   31.0690   38.7880 H   0  0  0  0  0  0  0  0  0  0  0  0
   35.8310   29.4100   37.4520 C   0  0  0  0  0  3  0  0  0  0  0  0
   36.7480   28.4730   36.7510 C   0  0  0  0  0  3  0  0  0  0  0  0
   38.4640   29.0470   37.3100 S   0  0  0  0  0  0  0  0  0  0  0  0
  1  5  1  0  0  0  0
  1  2  1  0  0  0  0
  2  6  1  0  0  0  0
  2  3  2  0  0  0  0
  3  7  1  0  0  0  0
  4  9  1  0  0  0  0
  4  8  1  0  0  0  0
  4  3  1  0  0  0  0
  5 10  1  6  0  0  0
  5  4  1  0  0  0  0
 11 16  1  0  0  0  0
 11  1  1  0  0  0  0
 12 11  1  0  0  0  0
 13 11  1  0  0  0  0
 14 20  1  0  0  0  0
 15 21  1  0  0  0  0
 15 14  2  0  0  0  0
 16 15  1  0  0  0  0
 17 16  2  0  0  0  0
 17 18  1  0  0  0  0
 18 19  2  0  0  0  0
 19 14  1  0  0  0  0
 22 18  1  0  0  0  0
 23  5  1  0  0  0  0
 25 24  2  1  0  0  0
 25 23  1  0  0  0  0
 26 25  1  0  0  0  0
 27 26  1  0  0  0  0
 28 25  1  0  0  0  0
 29 28  1  0  0  0  0
 30 29  2  0  0  0  0
 30 31  1  0  0  0  0
 32 30  1  0  0  0  0
 33 34  1  0  0  0  0
 33 32  2  0  0  0  0
 34 29  1  0  0  0  0
M  END
>  <minimizedAffinity>
-4.90958977

$$$$

 OpenBabel03252505003D

 34 36  0  0  1  0  0  0  0  0999 V2000
   37.3630   28.0440   41.4310 N   0  0  0  0  0  0  0  0  0  0  0  0
   36.5370   27.7550   42.5430 C   0  0  0  0  0  0  0  0  0  0  0  0
   37.3410   28.2630   43.6790 C   0  0  0  0  0  0  0  0  0  0  0  0
   38.6180   28.8830   43.1300 C   0  0  0  0  0  0  0  0  0  0  0  0
   38.2330   29.1210   41.6610 C   0  0  2  0  0  0  0  0  0  0  0  0
   35.6010   27.3240   42.7860 H   0  0  0  0  0  0  0  0  0  0  0  0
   37.1360   28.2670   44.7370 H   0  0  0  0  0  0  0  0  0  0  0  0
   38.7370   29.8460   43.6520 H   0  0  0  0  0  0  0  0  0  0  0  0
   39.4550   28.1870   43.2300 H   0  0  0  0  0  0  0  0  0  0  0  0
   39.0720   29.1440   40.9740 H   0  0  0  0  0  0  0  0  0  0  0  0
   37.2750   27.2700   40.2990 C   0  0  0  0  0  0  0  0  0  0  0  0
   37.9810   27.6980   39.5390 H   0  0  0  0  0  0  0  0  0  0  0  0
   36.3030   27.3300   39.7600 H   0  0  0  0  0  0  0  0  0  0  0  0
   38.8330   23.9240   41.1500 C   0  0  0  0  0  0  0  0  0  0  0  0
   38.7290   25.3420   40.9820 C   0  0  0  0  0  0  0  0  0  0  0  0
   37.5290   25.8560   40.4920 C   0  0  0  0  0  0  0  0  0  0  0  0
   36.5440   24.9780   40.2070 N   0  0  0  0  0  0  0  0  0  0  0  0
   36.6600   23.6160   40.3740 C   0  0  0  0  0  0  0  0  0  0  0  0
   37.7970   23.0980   40.8410 N   0  0  0  0  0  0  0  0  0  0  0  0
   39.8010   23.6260   41.5340 H   0  0  0  0  0  0  0  0  0  0  0  0
   39.5290   25.9980   41.2180 H   0  0  0  0  0  0  0  0  0  0  0  0
   35.8410   22.9650   40.1300 H   0  0  0  0  0  0  0  0  0  0  0  0
   37.4420   30.2810   41.6540 O   0  0  0  0  0  0  0  0  0  0  0  0
   39.2000   32.1870   41.0760 O   0  0  0  0  0  0  0  0  0  0  0  0
   37.9630   31.4590   40.6110 P   0  0  2  0  0  0  0  0  0  0  0  0
   36.7330   32.6210   40.4710 O   0  0  0  0  0  0  0  0  0  0  0  0
   36.0270   32.2890   39.8550 H   0  0  0  0  0  0  0  0  0  0  0  0
   38.1930   30.8340   39.0330 O   0  0  0  0  0  0  0  0  0  0  0  0
   39.4340   30.9700   38.4380 C   0  0  0  0  0  0  0  0  0  0  0  0
   39.9440   32.0310   37.7070 C   0  0  0  0  0  0  0  0  0  0  0  0
   39.3130   32.8910   37.5610 H   0  0  0  0  0  0  0  0  0  0  0  0
   41.2030   31.9800   37.1930 C   0  0  0  0  0  3  0  0  0  0  0  0
   41.9520   30.7280   37.4780 C   0  0  0  0  0  3  0  0  0  0  0  0
   40.7230   29.7090   38.4960 S   0  0  0  0  0  0  0  0  0  0  0  0
  1  5  1  0  0  0  0
  1  2  1  0  0  0  0
  2  6  1  0  0  0  0
  2  3  2  0  0  0  0
  3  7  1  0  0  0  0
  4  9  1  0  0  0  0
  4  8  1  0  0  0  0
  4  3  1  0  0  0  0
  5 10  1  6  0  0  0
  5  4  1  0  0  0  0
 11 16  1  0  0  0  0
 11  1  1  0  0  0  0
 12 11  1  0  0  0  0
 13 11  1  0  0  0  0
 14 20  1  0  0  0  0
 15 14  1  0  0  0  0
 15 21  1  0  0  0  0
 16 15  2  0  0  0  0
 17 18  2  0  0  0  0
 17 16  1  0  0  0  0
 18 19  1  0  0  0  0
 19 14  2  0  0  0  0
 22 18  1  0  0  0  0
 23  5  1  0  0  0  0
 25 24  2  1  0  0  0
 25 23  1  0  0  0  0
 26 25  1  0  0  0  0
 27 26  1  0  0  0  0
 28 25  1  0  0  0  0
 29 34  1  0  0  0  0
 29 28  1  0  0  0  0
 30 29  2  0  0  0  0
 31 30  1  0  0  0  0
 32 33  2  0  0  0  0
 32 30  1  0  0  0  0
 33 34  1  0  0  0  0
M  END
>  <minimizedAffinity>
-4.84842825

$$$$

 OpenBabel03252505003D

 34 36  0  0  1  0  0  0  0  0999 V2000
   38.0290   27.0070   41.8760 N   0  0  0  0  0  0  0  0  0  0  0  0
   37.0010   26.3770   42.6160 C   0  0  0  0  0  0  0  0  0  0  0  0
   36.6220   27.4260   43.5910 C   0  0  0  0  0  0  0  0  0  0  0  0
   37.4580   28.6690   43.3160 C   0  0  0  0  0  0  0  0  0  0  0  0
   37.9260   28.4060   41.8760 C   0  0  2  0  0  0  0  0  0  0  0  0
   36.4680   25.4650   42.6770 H   0  0  0  0  0  0  0  0  0  0  0  0
   35.8820   27.4220   44.3750 H   0  0  0  0  0  0  0  0  0  0  0  0
   36.7560   29.5180   43.3380 H   0  0  0  0  0  0  0  0  0  0  0  0
   38.2930   28.7310   44.0180 H   0  0  0  0  0  0  0  0  0  0  0  0
   38.8540   28.9000   41.6080 H   0  0  0  0  0  0  0  0  0  0  0  0
   39.0060   26.2420   41.2820 C   0  0  0  0  0  0  0  0  0  0  0  0
   39.0630   26.5430   40.2030 H   0  0  0  0  0  0  0  0  0  0  0  0
   38.7710   25.1570   41.2010 H   0  0  0  0  0  0  0  0  0  0  0  0
   41.9290   25.9820   43.6760 C   0  0  0  0  0  0  0  0  0  0  0  0
   40.5840   25.8770   43.1990 C   0  0  0  0  0  0  0  0  0  0  0  0
   40.3140   26.3140   41.9030 C   0  0  0  0  0  0  0  0  0  0  0  0
   41.3430   26.8110   41.1840 N   0  0  0  0  0  0  0  0  0  0  0  0
   42.6320   26.9060   41.6590 C   0  0  0  0  0  0  0  0  0  0  0  0
   42.9180   26.4940   42.8940 N   0  0  0  0  0  0  0  0  0  0  0  0
   42.0350   25.6170   44.6910 H   0  0  0  0  0  0  0  0  0  0  0  0
   39.8030   25.4810   43.7980 H   0  0  0  0  0  0  0  0  0  0  0  0
   43.4120   27.3100   41.0400 H   0  0  0  0  0  0  0  0  0  0  0  0
   36.8360   28.7260   41.0520 O   0  0  0  0  0  0  0  0  0  0  0  0
   38.0700   31.0660   40.8120 O   0  0  0  0  0  0  0  0  0  0  0  0
   36.7910   30.3070   40.5590 P   0  0  2  0  0  0  0  0  0  0  0  0
   35.5700   31.0990   41.4340 O   0  0  0  0  0  0  0  0  0  0  0  0
   34.6820   30.8780   41.0440 H   0  0  0  0  0  0  0  0  0  0  0  0
   36.3370   30.4320   38.9120 O   0  0  0  0  0  0  0  0  0  0  0  0
   35.7800   29.3300   38.2890 C   0  0  0  0  0  0  0  0  0  0  0  0
   34.4490   28.9600   38.1870 C   0  0  0  0  0  0  0  0  0  0  0  0
   33.7120   29.5990   38.6460 H   0  0  0  0  0  0  0  0  0  0  0  0
   34.0900   27.8260   37.5270 C   0  0  0  0  0  3  0  0  0  0  0  0
   35.2170   27.0480   36.9470 C   0  0  0  0  0  3  0  0  0  0  0  0
   36.7390   28.0680   37.4280 S   0  0  0  0  0  0  0  0  0  0  0  0
  1  5  1  0  0  0  0
  1  2  1  0  0  0  0
  2  6  1  0  0  0  0
  2  3  2  0  0  0  0
  3  7  1  0  0  0  0
  4  8  1  0  0  0  0
  4  3  1  0  0  0  0
  4  9  1  0  0  0  0
  5 10  1  6  0  0  0
  5  4  1  0  0  0  0
 11  1  1  0  0  0  0
 11 16  1  0  0  0  0
 12 11  1  0  0  0  0
 13 11  1  0  0  0  0
 14 20  1  0  0  0  0
 15 14  1  0  0  0  0
 15 21  1  0  0  0  0
 16 15  2  0  0  0  0
 17 18  2  0  0  0  0
 17 16  1  0  0  0  0
 18 19  1  0  0  0  0
 19 14  2  0  0  0  0
 22 18  1  0  0  0  0
 23  5  1  0  0  0  0
 25 24  2  1  0  0  0
 25 23  1  0  0  0  0
 25 26  1  0  0  0  0
 27 26  1  0  0  0  0
 28 25  1  0  0  0  0
 29 28  1  0  0  0  0
 30 29  2  0  0  0  0
 30 31  1  0  0  0  0
 32 30  1  0  0  0  0
 33 34  1  0  0  0  0
 33 32  2  0  0  0  0
 34 29  1  0  0  0  0
M  END
>  <minimizedAffinity>
-4.82315254

$$$$
