
 OpenBabel03252505043D

 31 33  0  0  1  0  0  0  0  0999 V2000
   40.9310   32.0530   39.2540 C   0  0  2  0  0  0  0  0  0  0  0  0
   41.6970   32.7040   40.3580 C   0  0  0  0  0  0  0  0  0  0  0  0
   42.0560   34.1170   40.1460 C   0  0  0  0  0  0  0  0  0  0  0  0
   42.8150   34.1610   38.8270 C   0  0  0  0  0  0  0  0  0  0  0  0
   41.9590   33.8150   37.6920 C   0  0  0  0  0  0  0  0  0  0  0  0
   40.9770   32.7040   37.9540 C   0  0  0  0  0  0  0  0  0  0  0  0
   41.2880   30.9960   39.1290 H   0  0  0  0  0  0  0  0  0  0  0  0
   42.6300   32.1090   40.5270 H   0  0  0  0  0  0  0  0  0  0  0  0
   41.1670   32.6410   41.3400 H   0  0  0  0  0  0  0  0  0  0  0  0
   42.7690   34.4200   40.9420 H   0  0  0  0  0  0  0  0  0  0  0  0
   41.1390   34.7480   40.1110 H   0  0  0  0  0  0  0  0  0  0  0  0
   43.6530   33.4670   38.8980 H   0  0  0  0  0  0  0  0  0  0  0  0
   43.1040   35.2040   38.6900 H   0  0  0  0  0  0  0  0  0  0  0  0
   41.9010   34.2100   36.7120 H   0  0  0  0  0  0  0  0  0  0  0  0
   37.3290   32.6590   39.7930 C   0  0  0  0  0  0  0  0  0  0  0  0
   36.9640   31.6030   40.6460 C   0  0  0  0  0  0  0  0  0  0  0  0
   37.9660   30.7110   41.0170 C   0  0  0  0  0  0  0  0  0  0  0  0
   39.2310   30.8870   40.5540 N   0  0  0  0  0  0  0  0  0  0  0  0
   39.5340   31.9180   39.7340 C   0  0  0  0  0  0  0  0  0  0  0  0
   38.5860   32.8090   39.3500 N   0  0  0  0  0  0  0  0  0  0  0  0
   36.5500   33.3560   39.5020 H   0  0  0  0  0  0  0  0  0  0  0  0
   35.9510   31.5380   40.9630 H   0  0  0  0  0  0  0  0  0  0  0  0
   37.6680   29.6410   41.8620 C   0  0  0  0  0  0  0  0  0  0  0  0
   38.1270   29.2060   43.0900 C   0  0  0  0  0  0  0  0  0  0  0  0
   38.8980   29.8260   43.5140 H   0  0  0  0  0  0  0  0  0  0  0  0
   37.6200   28.0820   43.6790 C   0  0  0  0  0  3  0  0  0  0  0  0
   36.5730   27.4050   42.9060 C   0  0  0  0  0  3  0  0  0  0  0  0
   36.4080   28.4260   41.4160 S   0  0  0  0  0  0  0  0  0  0  0  0
   40.0880   32.2860   36.9260 N   0  0  0  0  0  0  0  0  0  0  0  0
   40.2660   31.3210   36.5190 H   0  0  0  0  0  0  0  0  0  0  0  0
   39.4140   33.0600   36.7840 H   0  0  0  0  0  0  0  0  0  0  0  0
  1  7  1  6  0  0  0
  1 19  1  0  0  0  0
  1  2  1  0  0  0  0
  2  8  1  0  0  0  0
  2  9  1  0  0  0  0
  3  2  1  0  0  0  0
  3 10  1  0  0  0  0
  4 12  1  0  0  0  0
  4  3  1  0  0  0  0
  5  6  2  0  0  0  0
  5  4  1  0  0  0  0
  6  1  1  0  0  0  0
 11  3  1  0  0  0  0
 13  4  1  0  0  0  0
 14  5  1  0  0  0  0
 15 16  1  0  0  0  0
 16 22  1  0  0  0  0
 16 17  2  0  0  0  0
 17 23  1  0  0  0  0
 18 17  1  0  0  0  0
 19 18  2  0  0  0  0
 20 19  1  0  0  0  0
 20 15  2  0  0  0  0
 21 15  1  0  0  0  0
 23 24  2  0  0  0  0
 24 25  1  0  0  0  0
 24 26  1  0  0  0  0
 27 26  2  0  0  0  0
 28 23  1  0  0  0  0
 28 27  1  0  0  0  0
 29  6  1  0  0  0  0
 30 29  1  0  0  0  0
 31 29  1  0  0  0  0
M  END
>  <minimizedAffinity>
-5.63680315

$$$$

 OpenBabel03252505043D

 31 33  0  0  1  0  0  0  0  0999 V2000
   36.4620   30.3430   39.0640 C   0  0  2  0  0  0  0  0  0  0  0  0
   37.4310   30.6570   37.9720 C   0  0  0  0  0  0  0  0  0  0  0  0
   38.6120   31.4440   38.3680 C   0  0  0  0  0  0  0  0  0  0  0  0
   38.0710   32.7050   39.0250 C   0  0  0  0  0  0  0  0  0  0  0  0
   37.3760   32.4130   40.2790 C   0  0  0  0  0  0  0  0  0  0  0  0
   36.5420   31.1600   40.2650 C   0  0  0  0  0  0  0  0  0  0  0  0
   35.4150   30.4130   38.6620 H   0  0  0  0  0  0  0  0  0  0  0  0
   36.8780   31.2040   37.1670 H   0  0  0  0  0  0  0  0  0  0  0  0
   37.8030   29.7390   37.4550 H   0  0  0  0  0  0  0  0  0  0  0  0
   39.1450   31.7610   37.4460 H   0  0  0  0  0  0  0  0  0  0  0  0
   39.2500   30.8590   39.0680 H   0  0  0  0  0  0  0  0  0  0  0  0
   37.3960   33.1900   38.3200 H   0  0  0  0  0  0  0  0  0  0  0  0
   38.9490   33.2980   39.2880 H   0  0  0  0  0  0  0  0  0  0  0  0
   37.3570   32.9250   41.2060 H   0  0  0  0  0  0  0  0  0  0  0  0
   36.1860   26.6620   38.9620 C   0  0  0  0  0  0  0  0  0  0  0  0
   37.0240   26.2630   40.0190 C   0  0  0  0  0  0  0  0  0  0  0  0
   37.6590   27.2680   40.7410 C   0  0  0  0  0  0  0  0  0  0  0  0
   37.4550   28.5690   40.4090 N   0  0  0  0  0  0  0  0  0  0  0  0
   36.6400   28.9060   39.3840 C   0  0  0  0  0  0  0  0  0  0  0  0
   36.0010   27.9560   38.6560 N   0  0  0  0  0  0  0  0  0  0  0  0
   35.6880   25.8810   38.3980 H   0  0  0  0  0  0  0  0  0  0  0  0
   37.1290   25.2220   40.2130 H   0  0  0  0  0  0  0  0  0  0  0  0
   38.5040   26.9360   41.8010 C   0  0  0  0  0  0  0  0  0  0  0  0
   39.2290   27.6490   42.7360 C   0  0  0  0  0  0  0  0  0  0  0  0
   39.1320   28.7180   42.6420 H   0  0  0  0  0  0  0  0  0  0  0  0
   39.9880   27.0160   43.6790 C   0  0  0  0  0  3  0  0  0  0  0  0
   39.9590   25.5510   43.6060 C   0  0  0  0  0  3  0  0  0  0  0  0
   38.8580   25.2110   42.2050 S   0  0  0  0  0  0  0  0  0  0  0  0
   35.8260   30.7710   41.4290 N   0  0  0  0  0  0  0  0  0  0  0  0
   34.7680   30.8460   41.3740 H   0  0  0  0  0  0  0  0  0  0  0  0
   36.5340   30.4790   42.1290 H   0  0  0  0  0  0  0  0  0  0  0  0
  1  7  1  6  0  0  0
  1 19  1  0  0  0  0
  1  6  1  0  0  0  0
  2  3  1  0  0  0  0
  2  1  1  0  0  0  0
  3  4  1  0  0  0  0
  3 11  1  0  0  0  0
  4 13  1  0  0  0  0
  4  5  1  0  0  0  0
  5 14  1  0  0  0  0
  6  5  2  0  0  0  0
  6 29  1  0  0  0  0
  8  2  1  0  0  0  0
  9  2  1  0  0  0  0
 10  3  1  0  0  0  0
 12  4  1  0  0  0  0
 15 16  1  0  0  0  0
 16 22  1  0  0  0  0
 16 17  2  0  0  0  0
 17 23  1  0  0  0  0
 18 17  1  0  0  0  0
 19 18  2  0  0  0  0
 20 15  2  0  0  0  0
 20 19  1  0  0  0  0
 21 15  1  0  0  0  0
 23 28  1  0  0  0  0
 23 24  2  0  0  0  0
 24 26  1  0  0  0  0
 25 24  1  0  0  0  0
 27 26  2  0  0  0  0
 28 27  1  0  0  0  0
 29 31  1  0  0  0  0
 30 29  1  0  0  0  0
M  END
>  <minimizedAffinity>
-5.34809494

$$$$

 OpenBabel03252505043D

 31 33  0  0  1  0  0  0  0  0999 V2000
   37.6590   30.1240   40.0580 C   0  0  2  0  0  0  0  0  0  0  0  0
   39.0510   30.3830   39.5850 C   0  0  0  0  0  0  0  0  0  0  0  0
   39.6600   31.6460   40.0390 C   0  0  0  0  0  0  0  0  0  0  0  0
   38.7010   32.7480   39.6120 C   0  0  0  0  0  0  0  0  0  0  0  0
   37.4250   32.6680   40.3220 C   0  0  0  0  0  0  0  0  0  0  0  0
   36.9080   31.2710   40.5430 C   0  0  0  0  0  0  0  0  0  0  0  0
   37.0700   29.6440   39.2310 H   0  0  0  0  0  0  0  0  0  0  0  0
   39.0450   30.3600   38.4660 H   0  0  0  0  0  0  0  0  0  0  0  0
   39.7560   29.5590   39.8590 H   0  0  0  0  0  0  0  0  0  0  0  0
   40.6050   31.8000   39.4760 H   0  0  0  0  0  0  0  0  0  0  0  0
   39.8010   31.6320   41.1440 H   0  0  0  0  0  0  0  0  0  0  0  0
   38.5450   32.6600   38.5360 H   0  0  0  0  0  0  0  0  0  0  0  0
   39.1710   33.6820   39.9230 H   0  0  0  0  0  0  0  0  0  0  0  0
   36.7940   33.4220   40.7170 H   0  0  0  0  0  0  0  0  0  0  0  0
   38.0040   28.4390   43.3260 C   0  0  0  0  0  0  0  0  0  0  0  0
   37.9180   27.0790   42.9800 C   0  0  0  0  0  0  0  0  0  0  0  0
   37.7470   26.7750   41.6330 C   0  0  0  0  0  0  0  0  0  0  0  0
   37.6700   27.7780   40.7200 N   0  0  0  0  0  0  0  0  0  0  0  0
   37.7580   29.0730   41.0990 C   0  0  0  0  0  0  0  0  0  0  0  0
   37.9250   29.4100   42.4030 N   0  0  0  0  0  0  0  0  0  0  0  0
   38.1380   28.6790   44.3750 H   0  0  0  0  0  0  0  0  0  0  0  0
   37.9880   26.3560   43.7570 H   0  0  0  0  0  0  0  0  0  0  0  0
   37.6550   25.4430   41.2260 C   0  0  0  0  0  0  0  0  0  0  0  0
   36.6730   24.6630   40.6470 C   0  0  0  0  0  0  0  0  0  0  0  0
   35.7530   25.1880   40.4550 H   0  0  0  0  0  0  0  0  0  0  0  0
   36.8920   23.3450   40.3590 C   0  0  0  0  0  3  0  0  0  0  0  0
   38.2290   22.8550   40.7130 C   0  0  0  0  0  3  0  0  0  0  0  0
   39.0480   24.3110   41.4210 S   0  0  0  0  0  0  0  0  0  0  0  0
   35.6790   31.0700   41.2280 N   0  0  0  0  0  0  0  0  0  0  0  0
   34.8710   30.7100   40.6410 H   0  0  0  0  0  0  0  0  0  0  0  0
   35.8440   31.3330   42.2170 H   0  0  0  0  0  0  0  0  0  0  0  0
  1  7  1  6  0  0  0
  1  6  1  0  0  0  0
  1 19  1  0  0  0  0
  2  9  1  0  0  0  0
  2  3  1  0  0  0  0
  2  1  1  0  0  0  0
  3 11  1  0  0  0  0
  4 13  1  0  0  0  0
  4  3  1  0  0  0  0
  4  5  1  0  0  0  0
  5  6  2  0  0  0  0
  5 14  1  0  0  0  0
  6 29  1  0  0  0  0
  8  2  1  0  0  0  0
 10  3  1  0  0  0  0
 12  4  1  0  0  0  0
 15 21  1  0  0  0  0
 16 15  1  0  0  0  0
 16 22  1  0  0  0  0
 17 16  2  0  0  0  0
 18 19  2  0  0  0  0
 18 17  1  0  0  0  0
 19 20  1  0  0  0  0
 20 15  2  0  0  0  0
 23 28  1  0  0  0  0
 23 17  1  0  0  0  0
 24 23  2  0  0  0  0
 25 24  1  0  0  0  0
 26 24  1  0  0  0  0
 26 27  2  0  0  0  0
 27 28  1  0  0  0  0
 29 31  1  0  0  0  0
 30 29  1  0  0  0  0
M  END
>  <minimizedAffinity>
-5.33113718

$$$$

 OpenBabel03252505043D

 31 33  0  0  1  0  0  0  0  0999 V2000
   38.4400   28.5140   41.5970 C   0  0  2  0  0  0  0  0  0  0  0  0
   38.4640   27.4800   40.5200 C   0  0  0  0  0  0  0  0  0  0  0  0
   37.3330   26.5360   40.5100 C   0  0  0  0  0  0  0  0  0  0  0  0
   37.3010   25.9090   41.8970 C   0  0  0  0  0  0  0  0  0  0  0  0
   36.9660   26.8880   42.9320 C   0  0  0  0  0  0  0  0  0  0  0  0
   37.5800   28.2490   42.7390 C   0  0  0  0  0  0  0  0  0  0  0  0
   39.4850   28.6780   41.9760 H   0  0  0  0  0  0  0  0  0  0  0  0
   39.4210   26.9060   40.6140 H   0  0  0  0  0  0  0  0  0  0  0  0
   38.5290   27.9290   39.4980 H   0  0  0  0  0  0  0  0  0  0  0  0
   37.5640   25.7210   39.7910 H   0  0  0  0  0  0  0  0  0  0  0  0
   36.3840   27.0710   40.2810 H   0  0  0  0  0  0  0  0  0  0  0  0
   38.2810   25.4700   42.0910 H   0  0  0  0  0  0  0  0  0  0  0  0
   36.4820   25.1890   41.8740 H   0  0  0  0  0  0  0  0  0  0  0  0
   36.3610   26.8130   43.7970 H   0  0  0  0  0  0  0  0  0  0  0  0
   36.4860   31.3660   40.3000 C   0  0  0  0  0  0  0  0  0  0  0  0
   37.4780   32.1830   39.7290 C   0  0  0  0  0  0  0  0  0  0  0  0
   38.7920   31.7310   39.8000 C   0  0  0  0  0  0  0  0  0  0  0  0
   39.0660   30.5460   40.4050 N   0  0  0  0  0  0  0  0  0  0  0  0
   38.0790   29.7940   40.9420 C   0  0  0  0  0  0  0  0  0  0  0  0
   36.7850   30.2000   40.8920 N   0  0  0  0  0  0  0  0  0  0  0  0
   35.4610   31.7150   40.2450 H   0  0  0  0  0  0  0  0  0  0  0  0
   37.1780   33.0960   39.2730 H   0  0  0  0  0  0  0  0  0  0  0  0
   39.8220   32.4960   39.2510 C   0  0  0  0  0  0  0  0  0  0  0  0
   40.5070   33.6340   39.6320 C   0  0  0  0  0  0  0  0  0  0  0  0
   40.1850   34.0430   40.5750 H   0  0  0  0  0  0  0  0  0  0  0  0
   41.4980   34.1600   38.8530 C   0  0  0  0  0  3  0  0  0  0  0  0
   41.7570   33.4230   37.6110 C   0  0  0  0  0  3  0  0  0  0  0  0
   40.5690   32.0530   37.6670 S   0  0  0  0  0  0  0  0  0  0  0  0
   37.3180   29.2840   43.6780 N   0  0  0  0  0  0  0  0  0  0  0  0
   38.1380   29.5810   44.2850 H   0  0  0  0  0  0  0  0  0  0  0  0
   36.3220   29.5450   43.5630 H   0  0  0  0  0  0  0  0  0  0  0  0
  1  7  1  1  0  0  0
  1  6  1  0  0  0  0
  2  8  1  0  0  0  0
  2  1  1  0  0  0  0
  3  2  1  0  0  0  0
  3  4  1  0  0  0  0
  4 12  1  0  0  0  0
  4  5  1  0  0  0  0
  5 14  1  0  0  0  0
  6  5  2  0  0  0  0
  6 29  1  0  0  0  0
  9  2  1  0  0  0  0
 10  3  1  0  0  0  0
 11  3  1  0  0  0  0
 13  4  1  0  0  0  0
 15 20  1  0  0  0  0
 16 17  1  0  0  0  0
 16 15  2  0  0  0  0
 17 18  2  0  0  0  0
 18 19  1  0  0  0  0
 19  1  1  0  0  0  0
 20 19  2  0  0  0  0
 21 15  1  0  0  0  0
 22 16  1  0  0  0  0
 23 24  2  0  0  0  0
 23 17  1  0  0  0  0
 24 25  1  0  0  0  0
 26 24  1  0  0  0  0
 27 28  1  0  0  0  0
 27 26  2  0  0  0  0
 28 23  1  0  0  0  0
 29 30  1  0  0  0  0
 31 29  1  0  0  0  0
M  END
>  <minimizedAffinity>
-5.26425171

$$$$

 OpenBabel03252505043D

 31 33  0  0  1  0  0  0  0  0999 V2000
   39.2470   29.7600   42.7130 C   0  0  2  0  0  0  0  0  0  0  0  0
   40.5260   29.2270   42.1570 C   0  0  0  0  0  0  0  0  0  0  0  0
   40.5360   27.7900   41.8330 C   0  0  0  0  0  0  0  0  0  0  0  0
   40.1320   27.0710   43.1120 C   0  0  0  0  0  0  0  0  0  0  0  0
   38.7480   27.3630   43.4890 C   0  0  0  0  0  0  0  0  0  0  0  0
   38.3150   28.7870   43.2610 C   0  0  0  0  0  0  0  0  0  0  0  0
   39.4770   30.5140   43.5140 H   0  0  0  0  0  0  0  0  0  0  0  0
   41.3400   29.4430   42.8940 H   0  0  0  0  0  0  0  0  0  0  0  0
   40.8540   29.7750   41.2390 H   0  0  0  0  0  0  0  0  0  0  0  0
   41.5820   27.4900   41.6090 H   0  0  0  0  0  0  0  0  0  0  0  0
   39.8270   27.5750   41.0010 H   0  0  0  0  0  0  0  0  0  0  0  0
   40.8150   27.3820   43.9030 H   0  0  0  0  0  0  0  0  0  0  0  0
   40.1710   26.0070   42.8760 H   0  0  0  0  0  0  0  0  0  0  0  0
   37.9870   26.7470   43.8920 H   0  0  0  0  0  0  0  0  0  0  0  0
   38.3460   32.5530   40.4720 C   0  0  0  0  0  0  0  0  0  0  0  0
   37.4210   31.9580   39.5970 C   0  0  0  0  0  0  0  0  0  0  0  0
   37.1270   30.6130   39.8000 C   0  0  0  0  0  0  0  0  0  0  0  0
   37.7310   29.9370   40.8130 N   0  0  0  0  0  0  0  0  0  0  0  0
   38.6150   30.5520   41.6300 C   0  0  0  0  0  0  0  0  0  0  0  0
   38.9270   31.8620   41.4640 N   0  0  0  0  0  0  0  0  0  0  0  0
   38.5760   33.6020   40.3160 H   0  0  0  0  0  0  0  0  0  0  0  0
   36.9940   32.5580   38.8300 H   0  0  0  0  0  0  0  0  0  0  0  0
   36.2170   29.9650   38.9650 C   0  0  0  0  0  0  0  0  0  0  0  0
   36.1220   29.7440   37.6050 C   0  0  0  0  0  0  0  0  0  0  0  0
   36.9340   30.1630   37.0350 H   0  0  0  0  0  0  0  0  0  0  0  0
   35.0740   29.0490   37.0700 C   0  0  0  0  0  3  0  0  0  0  0  0
   34.0900   28.5750   38.0510 C   0  0  0  0  0  3  0  0  0  0  0  0
   34.7460   29.1610   39.6370 S   0  0  0  0  0  0  0  0  0  0  0  0
   36.9900   29.1850   43.5830 N   0  0  0  0  0  0  0  0  0  0  0  0
   36.8880   29.8420   44.4120 H   0  0  0  0  0  0  0  0  0  0  0  0
   36.3660   28.7210   42.8980 H   0  0  0  0  0  0  0  0  0  0  0  0
  1  6  1  0  0  0  0
  1  7  1  1  0  0  0
  2  1  1  0  0  0  0
  2  8  1  0  0  0  0
  3  2  1  0  0  0  0
  3  4  1  0  0  0  0
  4  5  1  0  0  0  0
  4 12  1  0  0  0  0
  5 14  1  0  0  0  0
  6  5  2  0  0  0  0
  6 29  1  0  0  0  0
  9  2  1  0  0  0  0
 10  3  1  0  0  0  0
 11  3  1  0  0  0  0
 13  4  1  0  0  0  0
 15 20  1  0  0  0  0
 16 17  1  0  0  0  0
 16 15  2  0  0  0  0
 17 18  2  0  0  0  0
 18 19  1  0  0  0  0
 19  1  1  0  0  0  0
 20 19  2  0  0  0  0
 21 15  1  0  0  0  0
 22 16  1  0  0  0  0
 23 28  1  0  0  0  0
 23 17  1  0  0  0  0
 24 23  2  0  0  0  0
 25 24  1  0  0  0  0
 26 24  1  0  0  0  0
 26 27  2  0  0  0  0
 27 28  1  0  0  0  0
 29 30  1  0  0  0  0
 31 29  1  0  0  0  0
M  END
>  <minimizedAffinity>
-5.24539185

$$$$

 OpenBabel03252505043D

 31 33  0  0  1  0  0  0  0  0999 V2000
   37.0210   27.1640   41.7210 C   0  0  2  0  0  0  0  0  0  0  0  0
   37.1260   27.9460   42.9890 C   0  0  0  0  0  0  0  0  0  0  0  0
   38.4880   28.1340   43.5170 C   0  0  0  0  0  0  0  0  0  0  0  0
   39.0760   26.7380   43.6610 C   0  0  0  0  0  0  0  0  0  0  0  0
   39.2610   26.0850   42.3650 C   0  0  0  0  0  0  0  0  0  0  0  0
   38.1620   26.3350   41.3670 C   0  0  0  0  0  0  0  0  0  0  0  0
   36.1110   26.5070   41.7650 H   0  0  0  0  0  0  0  0  0  0  0  0
   36.5000   27.4330   43.7630 H   0  0  0  0  0  0  0  0  0  0  0  0
   36.6600   28.9590   42.9060 H   0  0  0  0  0  0  0  0  0  0  0  0
   38.4110   28.5610   44.5390 H   0  0  0  0  0  0  0  0  0  0  0  0
   39.0900   28.7610   42.8200 H   0  0  0  0  0  0  0  0  0  0  0  0
   38.4040   26.1530   44.2900 H   0  0  0  0  0  0  0  0  0  0  0  0
   40.0730   26.8810   44.0810 H   0  0  0  0  0  0  0  0  0  0  0  0
   40.0380   25.4680   41.9960 H   0  0  0  0  0  0  0  0  0  0  0  0
   35.7050   28.6850   38.6240 C   0  0  0  0  0  0  0  0  0  0  0  0
   36.1820   30.0050   38.7040 C   0  0  0  0  0  0  0  0  0  0  0  0
   36.9470   30.3380   39.8170 C   0  0  0  0  0  0  0  0  0  0  0  0
   37.2000   29.4000   40.7670 N   0  0  0  0  0  0  0  0  0  0  0  0
   36.7180   28.1420   40.6480 C   0  0  0  0  0  0  0  0  0  0  0  0
   35.9700   27.7780   39.5770 N   0  0  0  0  0  0  0  0  0  0  0  0
   35.1090   28.4220   37.7570 H   0  0  0  0  0  0  0  0  0  0  0  0
   35.9390   30.6770   37.9160 H   0  0  0  0  0  0  0  0  0  0  0  0
   37.4510   31.6320   39.9540 C   0  0  0  0  0  0  0  0  0  0  0  0
   37.1140   32.8720   39.4480 C   0  0  0  0  0  0  0  0  0  0  0  0
   36.2620   32.8600   38.7900 H   0  0  0  0  0  0  0  0  0  0  0  0
   37.8240   33.9910   39.7800 C   0  0  0  0  0  3  0  0  0  0  0  0
   38.9450   33.7550   40.6970 C   0  0  0  0  0  3  0  0  0  0  0  0
   38.8840   31.9680   41.0010 S   0  0  0  0  0  0  0  0  0  0  0  0
   38.2370   25.7580   40.0700 N   0  0  0  0  0  0  0  0  0  0  0  0
   37.5350   24.9900   39.8600 H   0  0  0  0  0  0  0  0  0  0  0  0
   39.0100   26.2410   39.5750 H   0  0  0  0  0  0  0  0  0  0  0  0
  1  7  1  1  0  0  0
  1  2  1  0  0  0  0
  2  3  1  0  0  0  0
  2  8  1  0  0  0  0
  3  4  1  0  0  0  0
  3 10  1  0  0  0  0
  4 13  1  0  0  0  0
  4 12  1  0  0  0  0
  5  4  1  0  0  0  0
  6  1  1  0  0  0  0
  6  5  2  0  0  0  0
  9  2  1  0  0  0  0
 11  3  1  0  0  0  0
 14  5  1  0  0  0  0
 15 16  2  0  0  0  0
 15 20  1  0  0  0  0
 16 17  1  0  0  0  0
 17 23  1  0  0  0  0
 17 18  2  0  0  0  0
 19 18  1  0  0  0  0
 19  1  1  0  0  0  0
 20 19  2  0  0  0  0
 21 15  1  0  0  0  0
 22 16  1  0  0  0  0
 23 28  1  0  0  0  0
 24 26  1  0  0  0  0
 24 23  2  0  0  0  0
 25 24  1  0  0  0  0
 26 27  2  0  0  0  0
 27 28  1  0  0  0  0
 29  6  1  0  0  0  0
 30 29  1  0  0  0  0
 31 29  1  0  0  0  0
M  END
>  <minimizedAffinity>
-5.09345245

$$$$

 OpenBabel03252505043D

 31 33  0  0  1  0  0  0  0  0999 V2000
   38.2290   32.1910   38.3520 C   0  0  2  0  0  0  0  0  0  0  0  0
   39.5880   31.8870   37.8160 C   0  0  0  0  0  0  0  0  0  0  0  0
   40.6990   32.0010   38.7790 C   0  0  0  0  0  0  0  0  0  0  0  0
   40.6160   33.4100   39.3460 C   0  0  0  0  0  0  0  0  0  0  0  0
   39.4050   33.6090   40.1430 C   0  0  0  0  0  0  0  0  0  0  0  0
   38.1680   32.9500   39.5920 C   0  0  0  0  0  0  0  0  0  0  0  0
   37.6400   32.7470   37.5740 H   0  0  0  0  0  0  0  0  0  0  0  0
   39.7800   32.5720   36.9520 H   0  0  0  0  0  0  0  0  0  0  0  0
   39.6500   30.8680   37.3600 H   0  0  0  0  0  0  0  0  0  0  0  0
   41.6560   31.9320   38.2180 H   0  0  0  0  0  0  0  0  0  0  0  0
   40.5990   31.2310   39.5770 H   0  0  0  0  0  0  0  0  0  0  0  0
   40.6420   34.1120   38.5120 H   0  0  0  0  0  0  0  0  0  0  0  0
   41.4580   33.4990   40.0340 H   0  0  0  0  0  0  0  0  0  0  0  0
   39.2400   34.1320   41.0480 H   0  0  0  0  0  0  0  0  0  0  0  0
   36.2150   29.1910   37.5920 C   0  0  0  0  0  0  0  0  0  0  0  0
   36.2690   28.4720   38.7990 C   0  0  0  0  0  0  0  0  0  0  0  0
   36.9920   29.0370   39.8440 C   0  0  0  0  0  0  0  0  0  0  0  0
   37.6080   30.2350   39.6680 N   0  0  0  0  0  0  0  0  0  0  0  0
   37.5290   30.8910   38.4880 C   0  0  0  0  0  0  0  0  0  0  0  0
   36.8330   30.3730   37.4450 N   0  0  0  0  0  0  0  0  0  0  0  0
   35.6510   28.7530   36.7760 H   0  0  0  0  0  0  0  0  0  0  0  0
   35.7580   27.5410   38.8540 H   0  0  0  0  0  0  0  0  0  0  0  0
   37.0840   28.3730   41.0680 C   0  0  0  0  0  0  0  0  0  0  0  0
   36.8530   27.0810   41.5000 C   0  0  0  0  0  0  0  0  0  0  0  0
   36.5250   26.4110   40.7230 H   0  0  0  0  0  0  0  0  0  0  0  0
   37.0380   26.7260   42.8060 C   0  0  0  0  0  3  0  0  0  0  0  0
   37.4910   27.8160   43.6780 C   0  0  0  0  0  3  0  0  0  0  0  0
   37.6110   29.2400   42.5620 S   0  0  0  0  0  0  0  0  0  0  0  0
   36.9330   33.0670   40.2850 N   0  0  0  0  0  0  0  0  0  0  0  0
   36.1880   33.6600   39.8140 H   0  0  0  0  0  0  0  0  0  0  0  0
   37.0280   32.5150   41.1580 H   0  0  0  0  0  0  0  0  0  0  0  0
  1  7  1  6  0  0  0
  1 19  1  0  0  0  0
  1  6  1  0  0  0  0
  2  1  1  0  0  0  0
  2  3  1  0  0  0  0
  3  4  1  0  0  0  0
  3 11  1  0  0  0  0
  4 13  1  0  0  0  0
  4  5  1  0  0  0  0
  5 14  1  0  0  0  0
  6  5  2  0  0  0  0
  6 29  1  0  0  0  0
  8  2  1  0  0  0  0
  9  2  1  0  0  0  0
 10  3  1  0  0  0  0
 12  4  1  0  0  0  0
 15 16  1  0  0  0  0
 16 22  1  0  0  0  0
 16 17  2  0  0  0  0
 17 23  1  0  0  0  0
 18 17  1  0  0  0  0
 19 18  2  0  0  0  0
 20 15  2  0  0  0  0
 20 19  1  0  0  0  0
 21 15  1  0  0  0  0
 23 24  2  0  0  0  0
 23 28  1  0  0  0  0
 24 26  1  0  0  0  0
 25 24  1  0  0  0  0
 26 27  2  0  0  0  0
 28 27  1  0  0  0  0
 29 31  1  0  0  0  0
 30 29  1  0  0  0  0
M  END
>  <minimizedAffinity>
-5.07892036

$$$$

 OpenBabel03252505043D

 31 33  0  0  1  0  0  0  0  0999 V2000
   37.0070   30.6630   41.1100 C   0  0  2  0  0  0  0  0  0  0  0  0
   36.0080   30.4380   40.0240 C   0  0  0  0  0  0  0  0  0  0  0  0
   36.5420   30.4300   38.6500 C   0  0  0  0  0  0  0  0  0  0  0  0
   37.2750   31.7530   38.4810 C   0  0  0  0  0  0  0  0  0  0  0  0
   38.4540   31.8390   39.3430 C   0  0  0  0  0  0  0  0  0  0  0  0
   38.2780   31.2520   40.7180 C   0  0  0  0  0  0  0  0  0  0  0  0
   36.5500   31.3130   41.9040 H   0  0  0  0  0  0  0  0  0  0  0  0
   35.2220   31.2320   40.1070 H   0  0  0  0  0  0  0  0  0  0  0  0
   35.4340   29.4890   40.1610 H   0  0  0  0  0  0  0  0  0  0  0  0
   35.6860   30.4400   37.9420 H   0  0  0  0  0  0  0  0  0  0  0  0
   37.2240   29.5620   38.5060 H   0  0  0  0  0  0  0  0  0  0  0  0
   36.5760   32.5580   38.7100 H   0  0  0  0  0  0  0  0  0  0  0  0
   37.6420   31.7550   37.4530 H   0  0  0  0  0  0  0  0  0  0  0  0
   39.4200   32.2390   39.1720 H   0  0  0  0  0  0  0  0  0  0  0  0
   37.7740   28.0940   43.6490 C   0  0  0  0  0  0  0  0  0  0  0  0
   37.5480   26.8960   42.9500 C   0  0  0  0  0  0  0  0  0  0  0  0
   37.1410   27.0000   41.6230 C   0  0  0  0  0  0  0  0  0  0  0  0
   36.9790   28.2270   41.0620 N   0  0  0  0  0  0  0  0  0  0  0  0
   37.2080   29.3530   41.7740 C   0  0  0  0  0  0  0  0  0  0  0  0
   37.6060   29.2930   43.0700 N   0  0  0  0  0  0  0  0  0  0  0  0
   38.0920   28.0160   44.6830 H   0  0  0  0  0  0  0  0  0  0  0  0
   37.6980   25.9760   43.4630 H   0  0  0  0  0  0  0  0  0  0  0  0
   36.9000   25.8470   40.8760 C   0  0  0  0  0  0  0  0  0  0  0  0
   36.8470   24.4940   41.1510 C   0  0  0  0  0  0  0  0  0  0  0  0
   37.0310   24.2500   42.1840 H   0  0  0  0  0  0  0  0  0  0  0  0
   36.5800   23.5800   40.1720 C   0  0  0  0  0  3  0  0  0  0  0  0
   36.3630   24.1560   38.8400 C   0  0  0  0  0  3  0  0  0  0  0  0
   36.5580   25.9400   39.1040 S   0  0  0  0  0  0  0  0  0  0  0  0
   39.3580   31.2720   41.6420 N   0  0  0  0  0  0  0  0  0  0  0  0
   39.2460   31.9180   42.4780 H   0  0  0  0  0  0  0  0  0  0  0  0
   40.0700   30.6110   41.2800 H   0  0  0  0  0  0  0  0  0  0  0  0
  1 19  1  0  0  0  0
  1  7  1  1  0  0  0
  2  8  1  0  0  0  0
  2  9  1  0  0  0  0
  2  1  1  0  0  0  0
  3  2  1  0  0  0  0
  4  3  1  0  0  0  0
  4 12  1  0  0  0  0
  4  5  1  0  0  0  0
  5  6  2  0  0  0  0
  6  1  1  0  0  0  0
  6 29  1  0  0  0  0
 10  3  1  0  0  0  0
 11  3  1  0  0  0  0
 13  4  1  0  0  0  0
 14  5  1  0  0  0  0
 15 21  1  0  0  0  0
 16 22  1  0  0  0  0
 16 15  2  0  0  0  0
 17 16  1  0  0  0  0
 18 17  2  0  0  0  0
 18 19  1  0  0  0  0
 19 20  2  0  0  0  0
 20 15  1  0  0  0  0
 23 24  2  0  0  0  0
 23 17  1  0  0  0  0
 24 25  1  0  0  0  0
 26 24  1  0  0  0  0
 27 28  1  0  0  0  0
 27 26  2  0  0  0  0
 28 23  1  0  0  0  0
 29 30  1  0  0  0  0
 31 29  1  0  0  0  0
M  END
>  <minimizedAffinity>
-5.0440383

$$$$

 OpenBabel03252505043D

 31 33  0  0  1  0  0  0  0  0999 V2000
   36.4190   28.3350   41.7110 C   0  0  2  0  0  0  0  0  0  0  0  0
   37.0090   27.9550   43.0290 C   0  0  0  0  0  0  0  0  0  0  0  0
   38.0180   26.8810   42.9960 C   0  0  0  0  0  0  0  0  0  0  0  0
   37.3470   25.6990   42.3130 C   0  0  0  0  0  0  0  0  0  0  0  0
   37.0460   25.9770   40.9080 C   0  0  0  0  0  0  0  0  0  0  0  0
   36.5640   27.3760   40.6280 C   0  0  0  0  0  0  0  0  0  0  0  0
   35.3250   28.5500   41.8440 H   0  0  0  0  0  0  0  0  0  0  0  0
   36.1710   27.6500   43.7070 H   0  0  0  0  0  0  0  0  0  0  0  0
   37.4690   28.8250   43.5590 H   0  0  0  0  0  0  0  0  0  0  0  0
   38.2350   26.5730   44.0410 H   0  0  0  0  0  0  0  0  0  0  0  0
   38.9210   27.2170   42.4380 H   0  0  0  0  0  0  0  0  0  0  0  0
   36.4320   25.4690   42.8590 H   0  0  0  0  0  0  0  0  0  0  0  0
   38.0870   24.8980   42.3180 H   0  0  0  0  0  0  0  0  0  0  0  0
   37.1110   25.3690   40.0440 H   0  0  0  0  0  0  0  0  0  0  0  0
   36.8480   31.7370   40.3420 C   0  0  0  0  0  0  0  0  0  0  0  0
   38.1650   32.0560   40.7190 C   0  0  0  0  0  0  0  0  0  0  0  0
   38.8730   31.0920   41.4300 C   0  0  0  0  0  0  0  0  0  0  0  0
   38.2830   29.9060   41.7310 N   0  0  0  0  0  0  0  0  0  0  0  0
   37.0120   29.6450   41.3480 C   0  0  0  0  0  0  0  0  0  0  0  0
   36.2890   30.5570   40.6520 N   0  0  0  0  0  0  0  0  0  0  0  0
   36.2940   32.4860   39.7860 H   0  0  0  0  0  0  0  0  0  0  0  0
   38.5520   33.0070   40.4430 H   0  0  0  0  0  0  0  0  0  0  0  0
   40.1840   31.3480   41.8330 C   0  0  0  0  0  0  0  0  0  0  0  0
   40.9930   30.9150   42.8650 C   0  0  0  0  0  0  0  0  0  0  0  0
   40.5190   30.2120   43.5280 H   0  0  0  0  0  0  0  0  0  0  0  0
   42.2770   31.3640   42.9970 C   0  0  0  0  0  3  0  0  0  0  0  0
   42.7000   32.3210   41.9680 C   0  0  0  0  0  3  0  0  0  0  0  0
   41.2350   32.4920   40.9110 S   0  0  0  0  0  0  0  0  0  0  0  0
   36.2480   27.7640   39.2970 N   0  0  0  0  0  0  0  0  0  0  0  0
   35.2200   27.9340   39.0920 H   0  0  0  0  0  0  0  0  0  0  0  0
   37.1450   27.8010   38.7780 H   0  0  0  0  0  0  0  0  0  0  0  0
  1  7  1  1  0  0  0
  1  2  1  0  0  0  0
  2  9  1  0  0  0  0
  2  8  1  0  0  0  0
  3  2  1  0  0  0  0
  3 10  1  0  0  0  0
  4 13  1  0  0  0  0
  4 12  1  0  0  0  0
  4  3  1  0  0  0  0
  5  4  1  0  0  0  0
  6  5  2  0  0  0  0
  6  1  1  0  0  0  0
 11  3  1  0  0  0  0
 14  5  1  0  0  0  0
 15 20  2  0  0  0  0
 15 16  1  0  0  0  0
 16 17  2  0  0  0  0
 17 18  1  0  0  0  0
 17 23  1  0  0  0  0
 19  1  1  0  0  0  0
 19 18  2  0  0  0  0
 20 19  1  0  0  0  0
 21 15  1  0  0  0  0
 22 16  1  0  0  0  0
 23 24  2  0  0  0  0
 24 26  1  0  0  0  0
 24 25  1  0  0  0  0
 27 26  2  0  0  0  0
 28 23  1  0  0  0  0
 28 27  1  0  0  0  0
 29  6  1  0  0  0  0
 30 29  1  0  0  0  0
 31 29  1  0  0  0  0
M  END
>  <minimizedAffinity>
-5.04242992

$$$$
