
 OpenBabel03242519533D

 37 39  0  0  1  0  0  0  0  0999 V2000
   47.2970   34.0630   42.5070 C   0  0  2  0  0  0  0  0  0  0  0  0
   48.6500   34.6440   42.6490 C   0  0  0  0  0  0  0  0  0  0  0  0
   48.9270   35.7030   41.6340 C   0  0  0  0  0  0  0  0  0  0  0  0
   48.7240   35.2440   40.2200 C   0  0  0  0  0  0  0  0  0  0  0  0
   47.5590   34.3150   40.0340 C   0  0  2  0  0  0  0  0  0  0  0  0
   46.6160   34.3650   41.2180 C   0  0  0  0  0  0  0  0  0  0  0  0
   47.4380   32.9370   42.5700 H   0  0  0  0  0  0  0  0  0  0  0  0
   49.4590   33.8870   42.6020 H   0  0  0  0  0  0  0  0  0  0  0  0
   48.7490   35.1290   43.6430 H   0  0  0  0  0  0  0  0  0  0  0  0
   50.0160   35.9810   41.7450 H   0  0  0  0  0  0  0  0  0  0  0  0
   48.3600   36.6490   41.8420 H   0  0  0  0  0  0  0  0  0  0  0  0
   48.5780   36.1600   39.6120 H   0  0  0  0  0  0  0  0  0  0  0  0
   49.6630   34.7850   39.8040 H   0  0  0  0  0  0  0  0  0  0  0  0
   46.9460   34.6710   39.1700 H   0  0  0  0  0  0  0  0  0  0  0  0
   46.0650   35.2820   41.1140 H   0  0  0  0  0  0  0  0  0  0  0  0
   45.8700   33.5350   41.0660 H   0  0  0  0  0  0  0  0  0  0  0  0
   46.3950   34.3880   43.6230 C   0  0  0  0  0  0  0  0  0  0  0  0
   45.5690   35.4830   43.3840 C   0  0  0  0  0  0  0  0  0  0  0  0
   44.6500   35.8830   44.3570 C   0  0  0  0  0  0  0  0  0  0  0  0
   44.6300   35.1390   45.5240 N   0  0  0  0  0  0  0  0  0  0  0  0
   45.4470   34.0850   45.7190 C   0  0  0  0  0  0  0  0  0  0  0  0
   46.3100   33.7310   44.7700 N   0  0  0  0  0  0  0  0  0  0  0  0
   45.4160   36.1980   42.5900 H   0  0  0  0  0  0  0  0  0  0  0  0
   43.9320   36.6770   44.3820 H   0  0  0  0  0  0  0  0  0  0  0  0
   45.3900   33.5370   46.6530 H   0  0  0  0  0  0  0  0  0  0  0  0
   48.0590   32.9540   39.7480 C   0  0  0  0  0  0  0  0  0  0  0  0
   49.0640   33.0860   39.2500 H   0  0  0  0  0  0  0  0  0  0  0  0
   48.2820   32.4670   40.7190 H   0  0  0  0  0  0  0  0  0  0  0  0
   47.2570   32.0560   38.9120 C   0  0  0  0  0  0  0  0  0  0  0  0
   47.4660   31.0050   39.2810 H   0  0  0  0  0  0  0  0  0  0  0  0
   46.1780   32.1940   39.2330 H   0  0  0  0  0  0  0  0  0  0  0  0
   47.3330   32.1190   37.4920 C   0  0  0  0  0  0  0  0  0  0  0  0
   46.6670   31.9350   36.3360 C   0  0  0  0  0  0  0  0  0  0  0  0
   45.6450   31.5990   36.4610 H   0  0  0  0  0  0  0  0  0  0  0  0
   47.1960   32.1500   35.1100 C   0  0  0  0  0  0  0  0  0  0  0  0
   48.5530   32.6010   35.1270 C   0  0  0  0  0  0  0  0  0  0  0  0
   48.9810   32.6850   36.9080 S   0  0  0  0  0  0  0  0  0  0  0  0
  1  7  1  1  0  0  0
  1  2  1  0  0  0  0
  1 17  1  0  0  0  0
  2  9  1  0  0  0  0
  3 10  1  0  0  0  0
  3 11  1  0  0  0  0
  3  2  1  0  0  0  0
  4  3  1  0  0  0  0
  5 14  1  6  0  0  0
  5  4  1  0  0  0  0
  5  6  1  0  0  0  0
  6  1  1  0  0  0  0
  8  2  1  0  0  0  0
 12  4  1  0  0  0  0
 13  4  1  0  0  0  0
 15  6  1  0  0  0  0
 16  6  1  0  0  0  0
 17 22  1  0  0  0  0
 18 17  2  0  0  0  0
 18 19  1  0  0  0  0
 19 24  1  0  0  0  0
 19 20  2  0  0  0  0
 20 21  1  0  0  0  0
 21 25  1  0  0  0  0
 22 21  2  0  0  0  0
 23 18  1  0  0  0  0
 26  5  1  0  0  0  0
 26 28  1  0  0  0  0
 27 26  1  0  0  0  0
 29 31  1  0  0  0  0
 29 30  1  0  0  0  0
 29 26  1  0  0  0  0
 32 29  1  0  0  0  0
 33 34  1  0  0  0  0
 33 32  2  0  0  0  0
 35 36  2  0  0  0  0
 35 33  1  0  0  0  0
 36 37  1  0  0  0  0
 37 32  1  0  0  0  0
M  END
>  <minimizedAffinity>
-5.36906195

>  <minimizedRMSD>
1.33631945

$$$$
