
 OpenBabel03252508463D

 42 44  0  0  0  0  0  0  0  0999 V2000
   43.0500   32.5400   41.6400 C   0  0  0  0  0  0  0  0  0  0  0  0
   42.1410   32.9730   41.1830 H   0  0  0  0  0  0  0  0  0  0  0  0
   43.6470   32.1020   40.7870 H   0  0  0  0  0  0  0  0  0  0  0  0
   43.6580   34.9580   41.8800 C   0  0  0  0  0  0  0  0  0  0  0  0
   43.9070   33.6330   42.1850 C   0  0  0  0  0  0  0  0  0  0  0  0
   44.9740   33.3350   43.0090 C   0  0  0  0  0  0  0  0  0  0  0  0
   45.7560   34.3450   43.5050 C   0  0  0  0  0  0  0  0  0  0  0  0
   45.5260   35.6710   43.2160 C   0  0  0  0  0  0  0  0  0  0  0  0
   44.4460   35.9200   42.3860 C   0  0  0  0  0  0  0  0  0  0  0  0
   45.2180   32.3180   43.2810 H   0  0  0  0  0  0  0  0  0  0  0  0
   46.5950   34.1170   44.1530 H   0  0  0  0  0  0  0  0  0  0  0  0
   46.0880   36.5060   43.5640 H   0  0  0  0  0  0  0  0  0  0  0  0
   44.1890   36.9320   42.1040 H   0  0  0  0  0  0  0  0  0  0  0  0
   40.2250   35.8050   40.5240 C   0  0  0  0  0  0  0  0  0  0  0  0
   41.2570   35.5920   41.4540 C   0  0  0  0  0  0  0  0  0  0  0  0
   42.5130   35.2070   41.0030 C   0  0  0  0  0  0  0  0  0  0  0  0
   42.6770   35.0550   39.6600 N   0  0  0  0  0  0  0  0  0  0  0  0
   41.6740   35.2640   38.7780 C   0  0  0  0  0  0  0  0  0  0  0  0
   40.4500   35.6400   39.2200 N   0  0  0  0  0  0  0  0  0  0  0  0
   39.2670   36.1010   40.8900 H   0  0  0  0  0  0  0  0  0  0  0  0
   41.1250   35.7130   42.5190 H   0  0  0  0  0  0  0  0  0  0  0  0
   41.9430   35.1070   37.7470 H   0  0  0  0  0  0  0  0  0  0  0  0
   42.7020   31.5200   42.5720 N   0  0  0  0  0  0  0  0  0  0  0  0
   43.0220   31.6740   43.5460 H   0  0  0  0  0  0  0  0  0  0  0  0
   41.0370   31.1590   42.5570 S   0  0  0  0  0  0  0  0  0  0  0  0
   40.2020   32.4140   42.4530 O   0  0  0  0  0  0  0  0  0  0  0  0
   39.8920   32.8460   43.3060 H   0  0  0  0  0  0  0  0  0  0  0  0
   40.6350   30.3940   43.7730 O   0  0  0  0  0  0  0  0  0  0  0  0
   39.7960   30.4880   44.2870 H   0  0  0  0  0  0  0  0  0  0  0  0
   40.7230   30.2200   41.1980 O   0  0  0  0  0  0  0  0  0  0  0  0
   39.9020   29.1720   41.5740 C   0  0  0  0  0  0  0  0  0  0  0  0
   39.0220   29.1950   40.9290 H   0  0  0  0  0  0  0  0  0  0  0  0
   39.5810   29.1790   42.6240 H   0  0  0  0  0  0  0  0  0  0  0  0
   40.6280   27.8490   41.3830 C   0  0  0  0  0  0  0  0  0  0  0  0
   41.4900   27.7590   42.0780 H   0  0  0  0  0  0  0  0  0  0  0  0
   40.9450   27.7670   40.3190 H   0  0  0  0  0  0  0  0  0  0  0  0
   39.6790   26.7050   41.5770 C   0  0  0  0  0  0  0  0  0  0  0  0
   38.3580   26.5810   41.0570 C   0  0  0  0  0  0  0  0  0  0  0  0
   37.9780   27.3870   40.4580 H   0  0  0  0  0  0  0  0  0  0  0  0
   37.6950   25.4400   41.3710 C   0  0  0  0  0  3  0  0  0  0  0  0
   38.2920   24.4310   42.1730 C   0  0  0  0  0  3  0  0  0  0  0  0
   39.9690   25.1590   42.5290 S   0  0  0  0  0  0  0  0  0  0  0  0
  1  5  1  0  0  0  0
  1 23  1  0  0  0  0
  2  1  1  0  0  0  0
  3  1  1  0  0  0  0
  4  5  2  0  0  0  0
  4  9  1  0  0  0  0
  5  6  1  0  0  0  0
  6 10  1  0  0  0  0
  6  7  2  0  0  0  0
  7 11  1  0  0  0  0
  8  7  1  0  0  0  0
  8 12  1  0  0  0  0
  9  8  2  0  0  0  0
 13  9  1  0  0  0  0
 14 20  1  0  0  0  0
 14 15  1  0  0  0  0
 15 21  1  0  0  0  0
 16 15  2  0  0  0  0
 16  4  1  0  0  0  0
 17 16  1  0  0  0  0
 18 19  1  0  0  0  0
 18 17  2  0  0  0  0
 19 14  2  0  0  0  0
 22 18  1  0  0  0  0
 23 24  1  0  0  0  0
 25 23  1  0  0  0  0
 25 28  1  0  0  0  0
 26 25  1  0  0  0  0
 26 27  1  0  0  0  0
 28 29  1  0  0  0  0
 30 31  1  0  0  0  0
 30 25  1  0  0  0  0
 31 33  1  0  0  0  0
 32 31  1  0  0  0  0
 34 31  1  0  0  0  0
 34 37  1  0  0  0  0
 34 35  1  0  0  0  0
 36 34  1  0  0  0  0
 37 42  1  0  0  0  0
 38 40  1  0  0  0  0
 38 37  2  0  0  0  0
 39 38  1  0  0  0  0
 40 41  2  0  0  0  0
 41 42  1  0  0  0  0
M  END
>  <minimizedAffinity>
-4.97751856

>  <minimizedRMSD>
0.432590902

$$$$
