
 OpenBabel03242511423D

 31 33  0  0  0  0  0  0  0  0999 V2000
   46.3020   31.9930   47.2650 C   0  0  0  0  0  0  0  0  0  0  0  0
   45.2790   32.2750   48.1710 C   0  0  0  0  0  0  0  0  0  0  0  0
   44.7030   31.3440   49.0110 C   0  0  0  0  0  0  0  0  0  0  0  0
   45.1710   30.0690   48.9370 C   0  0  0  0  0  0  0  0  0  0  0  0
   46.1730   29.8030   48.0500 C   0  0  0  0  0  0  0  0  0  0  0  0
   46.7870   30.7420   47.1810 C   0  0  0  0  0  0  0  0  0  0  0  0
   45.0240   33.3320   48.0980 H   0  0  0  0  0  0  0  0  0  0  0  0
   43.9480   31.8070   49.6080 H   0  0  0  0  0  0  0  0  0  0  0  0
   44.6850   29.3880   49.6100 H   0  0  0  0  0  0  0  0  0  0  0  0
   46.4200   28.7330   48.1270 H   0  0  0  0  0  0  0  0  0  0  0  0
   47.9970   30.0420   46.6110 C   0  0  0  0  0  0  0  0  0  0  0  0
   48.9930   29.6040   47.3810 C   0  0  0  0  0  0  0  0  0  0  0  0
   49.0740   29.7520   48.4740 H   0  0  0  0  0  0  0  0  0  0  0  0
   50.0440   28.9270   47.0030 C   0  0  0  0  0  0  0  0  0  0  0  0
   50.0540   28.6730   45.6270 C   0  0  0  0  0  0  0  0  0  0  0  0
   48.4650   29.4890   45.0360 S   0  0  0  0  0  0  0  0  0  0  0  0
   46.9080   32.9170   46.3020 C   0  0  0  0  0  0  0  0  0  0  0  0
   46.8140   33.9230   46.6950 H   0  0  0  0  0  0  0  0  0  0  0  0
   48.0120   32.6900   46.2760 H   0  0  0  0  0  0  0  0  0  0  0  0
   46.4060   32.7220   44.9140 C   0  0  0  0  0  0  0  0  0  0  0  0
   45.5220   32.0810   44.9150 H   0  0  0  0  0  0  0  0  0  0  0  0
   47.2080   32.4870   44.1870 H   0  0  0  0  0  0  0  0  0  0  0  0
   44.5210   35.9170   44.7340 C   0  0  0  0  0  0  0  0  0  0  0  0
   44.8890   36.4160   43.4740 C   0  0  0  0  0  0  0  0  0  0  0  0
   45.7690   35.6390   42.7490 C   0  0  0  0  0  0  0  0  0  0  0  0
   46.2170   34.4890   43.2520 N   0  0  0  0  0  0  0  0  0  0  0  0
   45.8270   34.0520   44.4820 C   0  0  0  0  0  0  0  0  0  0  0  0
   44.9940   34.7540   45.2100 N   0  0  0  0  0  0  0  0  0  0  0  0
   43.8240   36.5170   45.3280 H   0  0  0  0  0  0  0  0  0  0  0  0
   44.4670   37.3700   43.1480 H   0  0  0  0  0  0  0  0  0  0  0  0
   46.0610   36.0130   41.7730 H   0  0  0  0  0  0  0  0  0  0  0  0
  1  2  1  0  0  0  0
  2  3  2  0  0  0  0
  3  8  1  0  0  0  0
  4  3  1  0  0  0  0
  4  9  1  0  0  0  0
  5 10  1  0  0  0  0
  5  4  2  0  0  0  0
  6  1  2  0  0  0  0
  6  5  1  0  0  0  0
  7  2  1  0  0  0  0
 11  6  1  0  0  0  0
 11 12  2  0  0  0  0
 12 13  1  0  0  0  0
 14 12  1  0  0  0  0
 15 14  2  0  0  0  0
 16 15  1  0  0  0  0
 16 11  1  0  0  0  0
 17 18  1  0  0  0  0
 17  1  1  0  0  0  0
 19 17  1  0  0  0  0
 20 21  1  0  0  0  0
 20 17  1  0  0  0  0
 22 20  1  0  0  0  0
 23 28  1  0  0  0  0
 23 29  1  0  0  0  0
 24 23  2  0  0  0  0
 25 26  2  0  0  0  0
 25 24  1  0  0  0  0
 26 27  1  0  0  0  0
 27 20  1  0  0  0  0
 27 28  2  0  0  0  0
 30 24  1  0  0  0  0
 31 25  1  0  0  0  0
M  END
>  <minimizedAffinity>
-4.85300255

>  <minimizedRMSD>
1.64446568

$$$$
