
 OpenBabel03252505593D

 33 35  0  0  0  0  0  0  0  0999 V2000
   39.2660   31.8120   41.4160 C   0  0  0  0  0  0  0  0  0  0  0  0
   38.3400   31.6950   40.3870 C   0  0  0  0  0  0  0  0  0  0  0  0
   37.4640   30.6010   40.4370 C   0  0  0  0  0  0  0  0  0  0  0  0
   37.5850   29.7450   41.4870 N   0  0  0  0  0  0  0  0  0  0  0  0
   38.4890   29.9000   42.4500 C   0  0  0  0  0  0  0  0  0  0  0  0
   39.3270   30.9230   42.4210 N   0  0  0  0  0  0  0  0  0  0  0  0
   39.9270   32.6610   41.3490 H   0  0  0  0  0  0  0  0  0  0  0  0
   36.5010   30.0620   39.4760 C   0  0  0  0  0  0  0  0  0  0  0  0
   36.4720   29.9360   38.1260 C   0  0  0  0  0  0  0  0  0  0  0  0
   37.1290   30.2140   37.3220 H   0  0  0  0  0  0  0  0  0  0  0  0
   35.5080   29.3020   37.4520 C   0  0  0  0  0  3  0  0  0  0  0  0
   34.4730   28.7430   38.2330 C   0  0  0  0  0  3  0  0  0  0  0  0
   35.0620   29.2340   39.9580 S   0  0  0  0  0  0  0  0  0  0  0  0
   38.2700   32.7360   39.3270 C   0  0  0  0  0  0  0  0  0  0  0  0
   39.0310   33.7750   39.8440 F   0  0  0  0  0  0  0  0  0  0  0  0
   36.9350   33.1630   39.2510 F   0  0  0  0  0  0  0  0  0  0  0  0
   38.7180   32.2600   38.1760 F   0  0  0  0  0  0  0  0  0  0  0  0
   38.6020   29.0160   43.5130 O   0  0  0  0  0  0  0  0  0  0  0  0
   37.7230   27.9490   43.6790 C   0  0  0  0  0  0  0  0  0  0  0  0
   37.3230   27.9230   44.7070 H   0  0  0  0  0  0  0  0  0  0  0  0
   36.8730   28.0640   42.9730 H   0  0  0  0  0  0  0  0  0  0  0  0
   38.4280   26.7140   43.2870 C   0  0  0  0  0  0  0  0  0  0  0  0
   39.6650   26.2490   43.6760 C   0  0  0  0  0  0  0  0  0  0  0  0
   40.0870   25.0730   43.1650 C   0  0  0  0  0  0  0  0  0  0  0  0
   39.3630   24.3570   42.3130 N   0  0  0  0  0  0  0  0  0  0  0  0
   38.1560   24.8130   41.9360 C   0  0  0  0  0  0  0  0  0  0  0  0
   37.6790   25.9920   42.4180 N   0  0  0  0  0  0  0  0  0  0  0  0
   40.1650   26.8970   44.3620 H   0  0  0  0  0  0  0  0  0  0  0  0
   41.0780   24.7200   43.4890 H   0  0  0  0  0  0  0  0  0  0  0  0
   37.4220   23.9480   40.9850 C   0  0  0  0  0  0  0  0  0  0  0  0
   37.8510   22.6460   41.0650 F   0  0  0  0  0  0  0  0  0  0  0  0
   37.5900   24.4090   39.6770 F   0  0  0  0  0  0  0  0  0  0  0  0
   36.0660   23.9520   41.2360 F   0  0  0  0  0  0  0  0  0  0  0  0
  1  6  1  0  0  0  0
  2  3  1  0  0  0  0
  2  1  2  0  0  0  0
  3  4  2  0  0  0  0
  4  5  1  0  0  0  0
  5 18  1  0  0  0  0
  6  5  2  0  0  0  0
  7  1  1  0  0  0  0
  8 13  1  0  0  0  0
  8  3  1  0  0  0  0
  9  8  2  0  0  0  0
 10  9  1  0  0  0  0
 11  9  1  0  0  0  0
 11 12  2  0  0  0  0
 12 13  1  0  0  0  0
 14 15  1  0  0  0  0
 14  2  1  0  0  0  0
 16 14  1  0  0  0  0
 17 14  1  0  0  0  0
 18 19  1  0  0  0  0
 19 20  1  0  0  0  0
 21 19  1  0  0  0  0
 22 23  1  0  0  0  0
 22 19  1  0  0  0  0
 23 28  1  0  0  0  0
 24 29  1  0  0  0  0
 24 23  2  0  0  0  0
 25 24  1  0  0  0  0
 26 25  2  0  0  0  0
 26 27  1  0  0  0  0
 27 22  2  0  0  0  0
 30 31  1  0  0  0  0
 30 33  1  0  0  0  0
 30 26  1  0  0  0  0
 32 30  1  0  0  0  0
M  END
>  <minimizedAffinity>
-5.98968792

$$$$

 OpenBabel03252505593D

 33 35  0  0  0  0  0  0  0  0999 V2000
   39.4030   26.4170   42.9650 C   0  0  0  0  0  0  0  0  0  0  0  0
   38.2580   26.3940   42.1790 C   0  0  0  0  0  0  0  0  0  0  0  0
   37.9510   27.5600   41.4610 C   0  0  0  0  0  0  0  0  0  0  0  0
   38.7980   28.6170   41.5880 N   0  0  0  0  0  0  0  0  0  0  0  0
   39.8850   28.5900   42.3550 C   0  0  0  0  0  0  0  0  0  0  0  0
   40.1900   27.5020   43.0410 N   0  0  0  0  0  0  0  0  0  0  0  0
   39.6110   25.5070   43.5050 H   0  0  0  0  0  0  0  0  0  0  0  0
   36.7760   27.9640   40.6900 C   0  0  0  0  0  0  0  0  0  0  0  0
   35.6930   28.7400   40.9410 C   0  0  0  0  0  0  0  0  0  0  0  0
   35.3290   29.2850   41.7930 H   0  0  0  0  0  0  0  0  0  0  0  0
   34.7710   29.0600   40.0280 C   0  0  0  0  0  3  0  0  0  0  0  0
   34.9770   28.5380   38.7320 C   0  0  0  0  0  3  0  0  0  0  0  0
   36.5830   27.5870   39.0130 S   0  0  0  0  0  0  0  0  0  0  0  0
   37.4490   25.1500   42.0780 C   0  0  0  0  0  0  0  0  0  0  0  0
   36.3110   25.4430   42.8150 F   0  0  0  0  0  0  0  0  0  0  0  0
   38.1580   24.1380   42.7460 F   0  0  0  0  0  0  0  0  0  0  0  0
   37.2100   24.8500   40.8110 F   0  0  0  0  0  0  0  0  0  0  0  0
   40.7360   29.6790   42.4750 O   0  0  0  0  0  0  0  0  0  0  0  0
   40.2630   30.9540   42.7730 C   0  0  0  0  0  0  0  0  0  0  0  0
   39.2840   30.9020   43.2800 H   0  0  0  0  0  0  0  0  0  0  0  0
   40.9840   31.4610   43.4480 H   0  0  0  0  0  0  0  0  0  0  0  0
   40.2400   31.7330   41.5210 C   0  0  0  0  0  0  0  0  0  0  0  0
   41.2840   32.2840   40.8110 C   0  0  0  0  0  0  0  0  0  0  0  0
   40.9900   32.9600   39.6800 C   0  0  0  0  0  0  0  0  0  0  0  0
   39.7500   33.1110   39.2320 N   0  0  0  0  0  0  0  0  0  0  0  0
   38.7340   32.5710   39.9270 C   0  0  0  0  0  0  0  0  0  0  0  0
   38.9680   31.8800   41.0750 N   0  0  0  0  0  0  0  0  0  0  0  0
   42.2390   32.1070   41.2550 H   0  0  0  0  0  0  0  0  0  0  0  0
   41.8380   33.3930   39.1280 H   0  0  0  0  0  0  0  0  0  0  0  0
   37.3870   32.7900   39.3510 C   0  0  0  0  0  0  0  0  0  0  0  0
   37.0070   34.1040   39.4640 F   0  0  0  0  0  0  0  0  0  0  0  0
   36.4460   31.9800   39.9920 F   0  0  0  0  0  0  0  0  0  0  0  0
   37.3460   32.4610   38.0130 F   0  0  0  0  0  0  0  0  0  0  0  0
  1  6  1  0  0  0  0
  1  7  1  0  0  0  0
  2  1  2  0  0  0  0
  3  4  2  0  0  0  0
  3  2  1  0  0  0  0
  4  5  1  0  0  0  0
  5 18  1  0  0  0  0
  5  6  2  0  0  0  0
  8  9  2  0  0  0  0
  8  3  1  0  0  0  0
  9 10  1  0  0  0  0
 11  9  1  0  0  0  0
 12 13  1  0  0  0  0
 12 11  2  0  0  0  0
 13  8  1  0  0  0  0
 14  2  1  0  0  0  0
 14 16  1  0  0  0  0
 14 15  1  0  0  0  0
 17 14  1  0  0  0  0
 18 19  1  0  0  0  0
 19 20  1  0  0  0  0
 19 21  1  0  0  0  0
 22 19  1  0  0  0  0
 23 28  1  0  0  0  0
 23 22  2  0  0  0  0
 24 23  1  0  0  0  0
 25 24  2  0  0  0  0
 25 26  1  0  0  0  0
 26 27  2  0  0  0  0
 27 22  1  0  0  0  0
 29 24  1  0  0  0  0
 30 31  1  0  0  0  0
 30 26  1  0  0  0  0
 30 32  1  0  0  0  0
 33 30  1  0  0  0  0
M  END
>  <minimizedAffinity>
-5.90895271

$$$$

 OpenBabel03252505593D

 33 35  0  0  0  0  0  0  0  0999 V2000
   36.5980   31.5120   40.6830 C   0  0  0  0  0  0  0  0  0  0  0  0
   37.9160   31.9500   40.6800 C   0  0  0  0  0  0  0  0  0  0  0  0
   38.8710   31.1100   41.2710 C   0  0  0  0  0  0  0  0  0  0  0  0
   38.4340   29.9340   41.7960 N   0  0  0  0  0  0  0  0  0  0  0  0
   37.1590   29.5570   41.7750 C   0  0  0  0  0  0  0  0  0  0  0  0
   36.2420   30.3360   41.2250 N   0  0  0  0  0  0  0  0  0  0  0  0
   35.8870   32.1800   40.2230 H   0  0  0  0  0  0  0  0  0  0  0  0
   40.2830   31.3000   41.6040 C   0  0  0  0  0  0  0  0  0  0  0  0
   40.9890   31.3580   42.7610 C   0  0  0  0  0  0  0  0  0  0  0  0
   40.7420   31.3110   43.8060 H   0  0  0  0  0  0  0  0  0  0  0  0
   42.3210   31.4390   42.8230 C   0  0  0  0  0  3  0  0  0  0  0  0
   42.9970   31.4650   41.5830 C   0  0  0  0  0  3  0  0  0  0  0  0
   41.5270   31.3590   40.4050 S   0  0  0  0  0  0  0  0  0  0  0  0
   38.2720   33.2320   40.0150 C   0  0  0  0  0  0  0  0  0  0  0  0
   37.0530   33.7080   39.5550 F   0  0  0  0  0  0  0  0  0  0  0  0
   39.0700   32.9170   38.9040 F   0  0  0  0  0  0  0  0  0  0  0  0
   38.8820   34.0440   40.8640 F   0  0  0  0  0  0  0  0  0  0  0  0
   36.7290   28.3550   42.3190 O   0  0  0  0  0  0  0  0  0  0  0  0
   37.2900   27.8310   43.4810 C   0  0  0  0  0  0  0  0  0  0  0  0
   37.8790   28.5970   44.0140 H   0  0  0  0  0  0  0  0  0  0  0  0
   36.4780   27.4800   44.1510 H   0  0  0  0  0  0  0  0  0  0  0  0
   38.0720   26.6370   43.1090 C   0  0  0  0  0  0  0  0  0  0  0  0
   39.3310   26.2500   43.5150 C   0  0  0  0  0  0  0  0  0  0  0  0
   39.8270   25.0960   43.0200 C   0  0  0  0  0  0  0  0  0  0  0  0
   39.1560   24.3310   42.1680 N   0  0  0  0  0  0  0  0  0  0  0  0
   37.9280   24.7110   41.7740 C   0  0  0  0  0  0  0  0  0  0  0  0
   37.3760   25.8640   42.2390 N   0  0  0  0  0  0  0  0  0  0  0  0
   39.7840   26.9330   44.1990 H   0  0  0  0  0  0  0  0  0  0  0  0
   40.8330   24.8060   43.3570 H   0  0  0  0  0  0  0  0  0  0  0  0
   37.2570   23.7940   40.8240 C   0  0  0  0  0  0  0  0  0  0  0  0
   37.7200   22.5090   40.9630 F   0  0  0  0  0  0  0  0  0  0  0  0
   37.4630   24.2190   39.5090 F   0  0  0  0  0  0  0  0  0  0  0  0
   35.8920   23.7660   41.0220 F   0  0  0  0  0  0  0  0  0  0  0  0
  1  6  1  0  0  0  0
  2  1  2  0  0  0  0
  2  3  1  0  0  0  0
  3  8  1  0  0  0  0
  3  4  2  0  0  0  0
  5  4  1  0  0  0  0
  5 18  1  0  0  0  0
  6  5  2  0  0  0  0
  7  1  1  0  0  0  0
  8  9  2  0  0  0  0
  9 11  1  0  0  0  0
  9 10  1  0  0  0  0
 12 11  2  0  0  0  0
 13 12  1  0  0  0  0
 13  8  1  0  0  0  0
 14  2  1  0  0  0  0
 14 17  1  0  0  0  0
 15 14  1  0  0  0  0
 16 14  1  0  0  0  0
 18 19  1  0  0  0  0
 19 20  1  0  0  0  0
 19 21  1  0  0  0  0
 22 19  1  0  0  0  0
 22 23  1  0  0  0  0
 23 28  1  0  0  0  0
 24 29  1  0  0  0  0
 24 23  2  0  0  0  0
 25 24  1  0  0  0  0
 26 25  2  0  0  0  0
 26 27  1  0  0  0  0
 27 22  2  0  0  0  0
 30 31  1  0  0  0  0
 30 33  1  0  0  0  0
 30 26  1  0  0  0  0
 32 30  1  0  0  0  0
M  END
>  <minimizedAffinity>
-5.86452579

$$$$

 OpenBabel03252505593D

 33 35  0  0  0  0  0  0  0  0999 V2000
   36.5320   29.7480   39.9980 C   0  0  0  0  0  0  0  0  0  0  0  0
   37.4440   30.6320   39.4340 C   0  0  0  0  0  0  0  0  0  0  0  0
   38.5040   31.0600   40.2460 C   0  0  0  0  0  0  0  0  0  0  0  0
   38.5610   30.5760   41.5150 N   0  0  0  0  0  0  0  0  0  0  0  0
   37.6620   29.7300   42.0110 C   0  0  0  0  0  0  0  0  0  0  0  0
   36.6530   29.3150   41.2640 N   0  0  0  0  0  0  0  0  0  0  0  0
   35.7270   29.4380   39.3510 H   0  0  0  0  0  0  0  0  0  0  0  0
   39.5300   32.0890   40.0680 C   0  0  0  0  0  0  0  0  0  0  0  0
   39.5950   33.4210   40.3130 C   0  0  0  0  0  0  0  0  0  0  0  0
   38.9100   34.1600   40.6880 H   0  0  0  0  0  0  0  0  0  0  0  0
   40.6990   34.1580   40.1630 C   0  0  0  0  0  3  0  0  0  0  0  0
   41.8490   33.4670   39.7200 C   0  0  0  0  0  3  0  0  0  0  0  0
   41.1440   31.7230   39.5670 S   0  0  0  0  0  0  0  0  0  0  0  0
   37.3030   31.0370   38.0100 C   0  0  0  0  0  0  0  0  0  0  0  0
   36.1670   30.3590   37.5910 F   0  0  0  0  0  0  0  0  0  0  0  0
   38.4080   30.5150   37.3180 F   0  0  0  0  0  0  0  0  0  0  0  0
   37.2150   32.3540   37.9070 F   0  0  0  0  0  0  0  0  0  0  0  0
   37.7320   29.2480   43.3100 O   0  0  0  0  0  0  0  0  0  0  0  0
   37.1440   28.0410   43.6800 C   0  0  0  0  0  0  0  0  0  0  0  0
   36.8930   28.0380   44.7540 H   0  0  0  0  0  0  0  0  0  0  0  0
   36.2090   27.8990   43.0980 H   0  0  0  0  0  0  0  0  0  0  0  0
   38.0560   26.9520   43.2820 C   0  0  0  0  0  0  0  0  0  0  0  0
   39.3510   26.7030   43.6790 C   0  0  0  0  0  0  0  0  0  0  0  0
   39.9740   25.6230   43.1590 C   0  0  0  0  0  0  0  0  0  0  0  0
   39.3910   24.8040   42.2920 N   0  0  0  0  0  0  0  0  0  0  0  0
   38.1270   25.0490   41.9080 C   0  0  0  0  0  0  0  0  0  0  0  0
   37.4490   26.1230   42.3970 N   0  0  0  0  0  0  0  0  0  0  0  0
   39.7260   27.4190   44.3760 H   0  0  0  0  0  0  0  0  0  0  0  0
   41.0080   25.4420   43.4890 H   0  0  0  0  0  0  0  0  0  0  0  0
   37.5610   24.0820   40.9400 C   0  0  0  0  0  0  0  0  0  0  0  0
   38.1180   22.8370   41.1000 F   0  0  0  0  0  0  0  0  0  0  0  0
   37.7770   24.5200   39.6310 F   0  0  0  0  0  0  0  0  0  0  0  0
   36.1970   23.9480   41.0930 F   0  0  0  0  0  0  0  0  0  0  0  0
  1  6  1  0  0  0  0
  2  1  2  0  0  0  0
  2  3  1  0  0  0  0
  3  4  2  0  0  0  0
  4  5  1  0  0  0  0
  5 18  1  0  0  0  0
  6  5  2  0  0  0  0
  7  1  1  0  0  0  0
  8  3  1  0  0  0  0
  8  9  2  0  0  0  0
  9 10  1  0  0  0  0
 11  9  1  0  0  0  0
 12 11  2  0  0  0  0
 13 12  1  0  0  0  0
 13  8  1  0  0  0  0
 14  2  1  0  0  0  0
 15 14  1  0  0  0  0
 16 14  1  0  0  0  0
 17 14  1  0  0  0  0
 18 19  1  0  0  0  0
 19 20  1  0  0  0  0
 21 19  1  0  0  0  0
 22 23  1  0  0  0  0
 22 19  1  0  0  0  0
 23 28  1  0  0  0  0
 24 29  1  0  0  0  0
 24 23  2  0  0  0  0
 25 24  1  0  0  0  0
 26 25  2  0  0  0  0
 26 27  1  0  0  0  0
 27 22  2  0  0  0  0
 30 33  1  0  0  0  0
 30 31  1  0  0  0  0
 30 26  1  0  0  0  0
 32 30  1  0  0  0  0
M  END
>  <minimizedAffinity>
-5.75197077

$$$$

 OpenBabel03252505593D

 33 35  0  0  0  0  0  0  0  0999 V2000
   36.4090   31.4210   40.5610 C   0  0  0  0  0  0  0  0  0  0  0  0
   37.7400   31.8080   40.6650 C   0  0  0  0  0  0  0  0  0  0  0  0
   38.6360   30.8740   41.2080 C   0  0  0  0  0  0  0  0  0  0  0  0
   38.1350   29.6660   41.5830 N   0  0  0  0  0  0  0  0  0  0  0  0
   36.8500   29.3420   41.4620 C   0  0  0  0  0  0  0  0  0  0  0  0
   35.9890   30.2090   40.9560 N   0  0  0  0  0  0  0  0  0  0  0  0
   35.7450   32.1600   40.1420 H   0  0  0  0  0  0  0  0  0  0  0  0
   40.0340   30.9750   41.6250 C   0  0  0  0  0  0  0  0  0  0  0  0
   40.6680   31.0440   42.8210 C   0  0  0  0  0  0  0  0  0  0  0  0
   40.3530   31.0760   43.8480 H   0  0  0  0  0  0  0  0  0  0  0  0
   41.9970   31.0280   42.9690 C   0  0  0  0  0  3  0  0  0  0  0  0
   42.7490   30.9310   41.7780 C   0  0  0  0  0  3  0  0  0  0  0  0
   41.3520   30.8710   40.5100 S   0  0  0  0  0  0  0  0  0  0  0  0
   38.1700   33.1380   40.1590 C   0  0  0  0  0  0  0  0  0  0  0  0
   37.0060   33.6730   39.6260 F   0  0  0  0  0  0  0  0  0  0  0  0
   39.0730   32.9110   39.1080 F   0  0  0  0  0  0  0  0  0  0  0  0
   38.6980   33.8590   41.1350 F   0  0  0  0  0  0  0  0  0  0  0  0
   36.3560   28.1070   41.8530 O   0  0  0  0  0  0  0  0  0  0  0  0
   36.8510   27.4350   42.9680 C   0  0  0  0  0  0  0  0  0  0  0  0
   37.5080   28.0920   43.5640 H   0  0  0  0  0  0  0  0  0  0  0  0
   36.0010   27.1140   43.6070 H   0  0  0  0  0  0  0  0  0  0  0  0
   37.5120   26.2040   42.5000 C   0  0  0  0  0  0  0  0  0  0  0  0
   36.9600   25.0010   42.1170 C   0  0  0  0  0  0  0  0  0  0  0  0
   37.7970   24.0180   41.7230 C   0  0  0  0  0  0  0  0  0  0  0  0
   39.1160   24.1660   41.6910 N   0  0  0  0  0  0  0  0  0  0  0  0
   39.6520   25.3410   42.0640 C   0  0  0  0  0  0  0  0  0  0  0  0
   38.8580   26.3670   42.4710 N   0  0  0  0  0  0  0  0  0  0  0  0
   35.8940   24.9860   42.1790 H   0  0  0  0  0  0  0  0  0  0  0  0
   37.3360   23.0660   41.4220 H   0  0  0  0  0  0  0  0  0  0  0  0
   41.1300   25.4120   41.9940 C   0  0  0  0  0  0  0  0  0  0  0  0
   41.5940   24.9260   40.7970 F   0  0  0  0  0  0  0  0  0  0  0  0
   41.7030   24.6850   43.0410 F   0  0  0  0  0  0  0  0  0  0  0  0
   41.5830   26.7080   42.1170 F   0  0  0  0  0  0  0  0  0  0  0  0
  1  2  2  0  0  0  0
  1  6  1  0  0  0  0
  2  3  1  0  0  0  0
  3  4  2  0  0  0  0
  3  8  1  0  0  0  0
  5  4  1  0  0  0  0
  5 18  1  0  0  0  0
  6  5  2  0  0  0  0
  7  1  1  0  0  0  0
  8  9  2  0  0  0  0
  9 11  1  0  0  0  0
  9 10  1  0  0  0  0
 12 11  2  0  0  0  0
 13  8  1  0  0  0  0
 13 12  1  0  0  0  0
 14  2  1  0  0  0  0
 14 17  1  0  0  0  0
 15 14  1  0  0  0  0
 16 14  1  0  0  0  0
 18 19  1  0  0  0  0
 19 20  1  0  0  0  0
 19 21  1  0  0  0  0
 22 19  1  0  0  0  0
 23 28  1  0  0  0  0
 23 22  2  0  0  0  0
 24 23  1  0  0  0  0
 25 24  2  0  0  0  0
 25 26  1  0  0  0  0
 26 27  2  0  0  0  0
 27 22  1  0  0  0  0
 29 24  1  0  0  0  0
 30 26  1  0  0  0  0
 30 33  1  0  0  0  0
 30 32  1  0  0  0  0
 31 30  1  0  0  0  0
M  END
>  <minimizedAffinity>
-5.7354598

$$$$

 OpenBabel03252505593D

 33 35  0  0  0  0  0  0  0  0999 V2000
   36.9530   27.2080   42.6990 C   0  0  0  0  0  0  0  0  0  0  0  0
   37.8570   26.2680   42.2180 C   0  0  0  0  0  0  0  0  0  0  0  0
   39.1590   26.7140   41.9470 C   0  0  0  0  0  0  0  0  0  0  0  0
   39.4370   28.0240   42.1800 N   0  0  0  0  0  0  0  0  0  0  0  0
   38.5360   28.8880   42.6420 C   0  0  0  0  0  0  0  0  0  0  0  0
   37.3020   28.4890   42.9020 N   0  0  0  0  0  0  0  0  0  0  0  0
   35.9610   26.8370   42.8960 H   0  0  0  0  0  0  0  0  0  0  0  0
   40.3010   26.0810   41.2870 C   0  0  0  0  0  0  0  0  0  0  0  0
   40.4830   25.4390   40.1070 C   0  0  0  0  0  0  0  0  0  0  0  0
   39.8470   25.1600   39.2860 H   0  0  0  0  0  0  0  0  0  0  0  0
   41.6700   25.0220   39.6540 C   0  0  0  0  0  3  0  0  0  0  0  0
   42.7770   25.2870   40.4890 C   0  0  0  0  0  3  0  0  0  0  0  0
   41.9090   26.1650   41.9170 S   0  0  0  0  0  0  0  0  0  0  0  0
   37.4420   24.8480   42.0660 C   0  0  0  0  0  0  0  0  0  0  0  0
   36.2430   24.7840   42.7620 F   0  0  0  0  0  0  0  0  0  0  0  0
   38.3880   24.0640   42.7450 F   0  0  0  0  0  0  0  0  0  0  0  0
   37.3410   24.5270   40.7860 F   0  0  0  0  0  0  0  0  0  0  0  0
   38.8350   30.2230   42.8710 O   0  0  0  0  0  0  0  0  0  0  0  0
   40.1240   30.7260   42.7100 C   0  0  0  0  0  0  0  0  0  0  0  0
   40.4800   31.2010   43.6410 H   0  0  0  0  0  0  0  0  0  0  0  0
   40.8110   29.8920   42.4560 H   0  0  0  0  0  0  0  0  0  0  0  0
   40.1150   31.6330   41.5480 C   0  0  0  0  0  0  0  0  0  0  0  0
   41.1500   32.3460   40.9830 C   0  0  0  0  0  0  0  0  0  0  0  0
   40.8750   33.1140   39.9080 C   0  0  0  0  0  0  0  0  0  0  0  0
   39.6590   33.2060   39.3810 N   0  0  0  0  0  0  0  0  0  0  0  0
   38.6520   32.5090   39.9340 C   0  0  0  0  0  0  0  0  0  0  0  0
   38.8700   31.7180   41.0190 N   0  0  0  0  0  0  0  0  0  0  0  0
   42.0840   32.2030   41.4800 H   0  0  0  0  0  0  0  0  0  0  0  0
   41.7150   33.6750   39.4720 H   0  0  0  0  0  0  0  0  0  0  0  0
   37.3340   32.6730   39.2790 C   0  0  0  0  0  0  0  0  0  0  0  0
   36.8730   33.9600   39.4090 F   0  0  0  0  0  0  0  0  0  0  0  0
   36.4020   31.7910   39.8310 F   0  0  0  0  0  0  0  0  0  0  0  0
   37.3970   32.3910   37.9310 F   0  0  0  0  0  0  0  0  0  0  0  0
  1  7  1  0  0  0  0
  1  6  1  0  0  0  0
  2  1  2  0  0  0  0
  3  4  2  0  0  0  0
  3  2  1  0  0  0  0
  4  5  1  0  0  0  0
  5 18  1  0  0  0  0
  5  6  2  0  0  0  0
  8 13  1  0  0  0  0
  8  3  1  0  0  0  0
  9  8  2  0  0  0  0
 10  9  1  0  0  0  0
 11  9  1  0  0  0  0
 11 12  2  0  0  0  0
 12 13  1  0  0  0  0
 14  2  1  0  0  0  0
 14 16  1  0  0  0  0
 14 15  1  0  0  0  0
 17 14  1  0  0  0  0
 19 18  1  0  0  0  0
 19 20  1  0  0  0  0
 21 19  1  0  0  0  0
 22 19  1  0  0  0  0
 23 28  1  0  0  0  0
 23 22  2  0  0  0  0
 24 23  1  0  0  0  0
 25 24  2  0  0  0  0
 25 26  1  0  0  0  0
 26 27  2  0  0  0  0
 27 22  1  0  0  0  0
 29 24  1  0  0  0  0
 30 31  1  0  0  0  0
 30 32  1  0  0  0  0
 30 26  1  0  0  0  0
 33 30  1  0  0  0  0
M  END
>  <minimizedAffinity>
-5.72330761

$$$$

 OpenBabel03252505593D

 33 35  0  0  0  0  0  0  0  0999 V2000
   37.9750   27.4680   42.8240 C   0  0  0  0  0  0  0  0  0  0  0  0
   38.0320   26.2770   42.1110 C   0  0  0  0  0  0  0  0  0  0  0  0
   37.2640   26.1960   40.9400 C   0  0  0  0  0  0  0  0  0  0  0  0
   36.5300   27.2870   40.5920 N   0  0  0  0  0  0  0  0  0  0  0  0
   36.5090   28.4080   41.3080 C   0  0  0  0  0  0  0  0  0  0  0  0
   37.2240   28.5040   42.4170 N   0  0  0  0  0  0  0  0  0  0  0  0
   38.5740   27.5000   43.7190 H   0  0  0  0  0  0  0  0  0  0  0  0
   36.9390   25.0840   40.0470 C   0  0  0  0  0  0  0  0  0  0  0  0
   36.0730   24.0410   40.1010 C   0  0  0  0  0  0  0  0  0  0  0  0
   35.3670   23.6760   40.8230 H   0  0  0  0  0  0  0  0  0  0  0  0
   35.8690   23.1830   39.0970 C   0  0  0  0  0  3  0  0  0  0  0  0
   36.6230   23.4120   37.9250 C   0  0  0  0  0  3  0  0  0  0  0  0
   37.5950   24.9400   38.4540 S   0  0  0  0  0  0  0  0  0  0  0  0
   38.9240   25.1790   42.5670 C   0  0  0  0  0  0  0  0  0  0  0  0
   39.5560   25.7160   43.6800 F   0  0  0  0  0  0  0  0  0  0  0  0
   39.8880   24.9830   41.5650 F   0  0  0  0  0  0  0  0  0  0  0  0
   38.2240   24.0840   42.8190 F   0  0  0  0  0  0  0  0  0  0  0  0
   35.7530   29.5110   40.9410 O   0  0  0  0  0  0  0  0  0  0  0  0
   36.2300   30.8120   41.0860 C   0  0  0  0  0  0  0  0  0  0  0  0
   35.4000   31.5190   41.2550 H   0  0  0  0  0  0  0  0  0  0  0  0
   36.9130   30.8540   41.9600 H   0  0  0  0  0  0  0  0  0  0  0  0
   37.0460   31.1300   39.9000 C   0  0  0  0  0  0  0  0  0  0  0  0
   36.8050   30.8620   38.5700 C   0  0  0  0  0  0  0  0  0  0  0  0
   37.7240   31.2660   37.6680 C   0  0  0  0  0  0  0  0  0  0  0  0
   38.8370   31.9030   38.0100 N   0  0  0  0  0  0  0  0  0  0  0  0
   39.0700   32.1630   39.3070 C   0  0  0  0  0  0  0  0  0  0  0  0
   38.1790   31.7800   40.2620 N   0  0  0  0  0  0  0  0  0  0  0  0
   35.8840   30.3480   38.4010 H   0  0  0  0  0  0  0  0  0  0  0  0
   37.5120   31.0420   36.6110 H   0  0  0  0  0  0  0  0  0  0  0  0
   40.3350   32.8780   39.5930 C   0  0  0  0  0  0  0  0  0  0  0  0
   40.1990   33.7160   40.6710 F   0  0  0  0  0  0  0  0  0  0  0  0
   40.7370   33.6200   38.4790 F   0  0  0  0  0  0  0  0  0  0  0  0
   41.3620   32.0030   39.8770 F   0  0  0  0  0  0  0  0  0  0  0  0
  1  7  1  0  0  0  0
  2 14  1  0  0  0  0
  2  1  2  0  0  0  0
  3  2  1  0  0  0  0
  4  3  2  0  0  0  0
  4  5  1  0  0  0  0
  5  6  2  0  0  0  0
  6  1  1  0  0  0  0
  8  9  2  0  0  0  0
  8  3  1  0  0  0  0
  9 10  1  0  0  0  0
 11  9  1  0  0  0  0
 12 13  1  0  0  0  0
 12 11  2  0  0  0  0
 13  8  1  0  0  0  0
 14 17  1  0  0  0  0
 14 15  1  0  0  0  0
 16 14  1  0  0  0  0
 18 19  1  0  0  0  0
 18  5  1  0  0  0  0
 19 20  1  0  0  0  0
 19 21  1  0  0  0  0
 22 27  1  0  0  0  0
 22 19  1  0  0  0  0
 23 22  2  0  0  0  0
 24 25  2  0  0  0  0
 24 23  1  0  0  0  0
 25 26  1  0  0  0  0
 26 30  1  0  0  0  0
 26 27  2  0  0  0  0
 28 23  1  0  0  0  0
 29 24  1  0  0  0  0
 30 33  1  0  0  0  0
 30 31  1  0  0  0  0
 32 30  1  0  0  0  0
M  END
>  <minimizedAffinity>
-5.4824481

$$$$

 OpenBabel03252505593D

 33 35  0  0  0  0  0  0  0  0999 V2000
   39.5240   27.6570   43.3180 C   0  0  0  0  0  0  0  0  0  0  0  0
   39.1860   26.4960   42.6330 C   0  0  0  0  0  0  0  0  0  0  0  0
   38.1430   26.5860   41.6990 C   0  0  0  0  0  0  0  0  0  0  0  0
   37.5490   27.7980   41.5330 N   0  0  0  0  0  0  0  0  0  0  0  0
   37.9090   28.8840   42.2130 C   0  0  0  0  0  0  0  0  0  0  0  0
   38.8880   28.8200   43.1000 N   0  0  0  0  0  0  0  0  0  0  0  0
   40.3270   27.5570   44.0290 H   0  0  0  0  0  0  0  0  0  0  0  0
   37.4110   25.5750   40.9370 C   0  0  0  0  0  0  0  0  0  0  0  0
   36.7570   24.4300   41.2560 C   0  0  0  0  0  0  0  0  0  0  0  0
   36.5870   23.8790   42.1630 H   0  0  0  0  0  0  0  0  0  0  0  0
   36.0540   23.6990   40.3850 C   0  0  0  0  0  3  0  0  0  0  0  0
   36.0170   24.1850   39.0590 C   0  0  0  0  0  3  0  0  0  0  0  0
   37.0690   25.7400   39.2500 S   0  0  0  0  0  0  0  0  0  0  0  0
   39.9570   25.2460   42.8620 C   0  0  0  0  0  0  0  0  0  0  0  0
   41.0170   25.6610   43.6560 F   0  0  0  0  0  0  0  0  0  0  0  0
   40.4700   24.8390   41.6200 F   0  0  0  0  0  0  0  0  0  0  0  0
   39.1920   24.3230   43.4220 F   0  0  0  0  0  0  0  0  0  0  0  0
   37.2910   30.1120   42.0350 O   0  0  0  0  0  0  0  0  0  0  0  0
   36.1910   30.2670   41.1950 C   0  0  0  0  0  0  0  0  0  0  0  0
   35.6240   29.3240   41.1110 H   0  0  0  0  0  0  0  0  0  0  0  0
   35.5190   31.0450   41.6150 H   0  0  0  0  0  0  0  0  0  0  0  0
   36.6760   30.7840   39.9020 C   0  0  0  0  0  0  0  0  0  0  0  0
   37.3840   31.9330   39.6260 C   0  0  0  0  0  0  0  0  0  0  0  0
   37.7110   32.1790   38.3400 C   0  0  0  0  0  0  0  0  0  0  0  0
   37.3810   31.3640   37.3440 N   0  0  0  0  0  0  0  0  0  0  0  0
   36.6910   30.2440   37.6170 C   0  0  0  0  0  0  0  0  0  0  0  0
   36.3330   29.9440   38.8940 N   0  0  0  0  0  0  0  0  0  0  0  0
   37.5990   32.5170   40.4930 H   0  0  0  0  0  0  0  0  0  0  0  0
   38.2760   33.1020   38.1400 H   0  0  0  0  0  0  0  0  0  0  0  0
   36.3690   29.3980   36.4450 C   0  0  0  0  0  0  0  0  0  0  0  0
   36.9680   28.1660   36.5430 F   0  0  0  0  0  0  0  0  0  0  0  0
   36.7860   30.0210   35.2650 F   0  0  0  0  0  0  0  0  0  0  0  0
   35.0120   29.1900   36.3240 F   0  0  0  0  0  0  0  0  0  0  0  0
  1  7  1  0  0  0  0
  2 14  1  0  0  0  0
  2  1  2  0  0  0  0
  3  2  1  0  0  0  0
  4  3  2  0  0  0  0
  4  5  1  0  0  0  0
  5  6  2  0  0  0  0
  6  1  1  0  0  0  0
  8  9  2  0  0  0  0
  8  3  1  0  0  0  0
  9 10  1  0  0  0  0
 11  9  1  0  0  0  0
 12 13  1  0  0  0  0
 12 11  2  0  0  0  0
 13  8  1  0  0  0  0
 14 17  1  0  0  0  0
 14 15  1  0  0  0  0
 16 14  1  0  0  0  0
 18  5  1  0  0  0  0
 19 21  1  0  0  0  0
 19 18  1  0  0  0  0
 20 19  1  0  0  0  0
 22 19  1  0  0  0  0
 23 22  1  0  0  0  0
 23 28  1  0  0  0  0
 24 23  2  0  0  0  0
 25 26  2  0  0  0  0
 25 24  1  0  0  0  0
 26 27  1  0  0  0  0
 27 22  2  0  0  0  0
 29 24  1  0  0  0  0
 30 31  1  0  0  0  0
 30 26  1  0  0  0  0
 32 30  1  0  0  0  0
 33 30  1  0  0  0  0
M  END
>  <minimizedAffinity>
-5.45662117

$$$$

 OpenBabel03252505593D

 33 35  0  0  0  0  0  0  0  0999 V2000
   36.1160   28.6270   41.4860 C   0  0  0  0  0  0  0  0  0  0  0  0
   36.9560   27.5220   41.5540 C   0  0  0  0  0  0  0  0  0  0  0  0
   37.7630   27.2630   40.4360 C   0  0  0  0  0  0  0  0  0  0  0  0
   37.6640   28.1120   39.3790 N   0  0  0  0  0  0  0  0  0  0  0  0
   36.8440   29.1590   39.3610 C   0  0  0  0  0  0  0  0  0  0  0  0
   36.0730   29.4200   40.4040 N   0  0  0  0  0  0  0  0  0  0  0  0
   35.5070   28.7990   42.3590 H   0  0  0  0  0  0  0  0  0  0  0  0
   38.6170   26.1310   40.0770 C   0  0  0  0  0  0  0  0  0  0  0  0
   38.4150   24.8010   39.9090 C   0  0  0  0  0  0  0  0  0  0  0  0
   37.5730   24.1400   40.0110 H   0  0  0  0  0  0  0  0  0  0  0  0
   39.3460   23.9500   39.4670 C   0  0  0  0  0  3  0  0  0  0  0  0
   40.6060   24.5140   39.1680 C   0  0  0  0  0  3  0  0  0  0  0  0
   40.2650   26.3210   39.5890 S   0  0  0  0  0  0  0  0  0  0  0  0
   37.0140   26.7070   42.7970 C   0  0  0  0  0  0  0  0  0  0  0  0
   36.1950   27.4000   43.6770 F   0  0  0  0  0  0  0  0  0  0  0  0
   38.3320   26.7730   43.2760 F   0  0  0  0  0  0  0  0  0  0  0  0
   36.6220   25.4650   42.5590 F   0  0  0  0  0  0  0  0  0  0  0  0
   36.7530   30.0150   38.2730 O   0  0  0  0  0  0  0  0  0  0  0  0
   37.8700   30.6620   37.7510 C   0  0  0  0  0  0  0  0  0  0  0  0
   38.7250   29.9690   37.6720 H   0  0  0  0  0  0  0  0  0  0  0  0
   37.6290   31.0420   36.7350 H   0  0  0  0  0  0  0  0  0  0  0  0
   38.1420   31.8450   38.5880 C   0  0  0  0  0  0  0  0  0  0  0  0
   37.2670   32.7780   39.0990 C   0  0  0  0  0  0  0  0  0  0  0  0
   37.7770   33.7790   39.8470 C   0  0  0  0  0  0  0  0  0  0  0  0
   39.0750   33.8960   40.1050 N   0  0  0  0  0  0  0  0  0  0  0  0
   39.9250   32.9830   39.6060 C   0  0  0  0  0  0  0  0  0  0  0  0
   39.4690   31.9520   38.8440 N   0  0  0  0  0  0  0  0  0  0  0  0
   36.2490   32.5950   38.8340 H   0  0  0  0  0  0  0  0  0  0  0  0
   37.0620   34.5140   40.2450 H   0  0  0  0  0  0  0  0  0  0  0  0
   41.3510   33.1940   39.9460 C   0  0  0  0  0  0  0  0  0  0  0  0
   41.4920   34.1600   40.9120 F   0  0  0  0  0  0  0  0  0  0  0  0
   42.0730   33.5680   38.8100 F   0  0  0  0  0  0  0  0  0  0  0  0
   41.9360   32.0420   40.4260 F   0  0  0  0  0  0  0  0  0  0  0  0
  1  2  1  0  0  0  0
  1  7  1  0  0  0  0
  2 14  1  0  0  0  0
  3  2  2  0  0  0  0
  4  3  1  0  0  0  0
  5  4  2  0  0  0  0
  5  6  1  0  0  0  0
  6  1  2  0  0  0  0
  8  3  1  0  0  0  0
  9 10  1  0  0  0  0
  9  8  2  0  0  0  0
 11  9  1  0  0  0  0
 12 11  2  0  0  0  0
 12 13  1  0  0  0  0
 13  8  1  0  0  0  0
 14 16  1  0  0  0  0
 14 15  1  0  0  0  0
 17 14  1  0  0  0  0
 18  5  1  0  0  0  0
 19 18  1  0  0  0  0
 19 22  1  0  0  0  0
 20 19  1  0  0  0  0
 21 19  1  0  0  0  0
 22 27  2  0  0  0  0
 22 23  1  0  0  0  0
 23 24  2  0  0  0  0
 24 25  1  0  0  0  0
 24 29  1  0  0  0  0
 26 30  1  0  0  0  0
 26 25  2  0  0  0  0
 27 26  1  0  0  0  0
 28 23  1  0  0  0  0
 30 33  1  0  0  0  0
 30 31  1  0  0  0  0
 32 30  1  0  0  0  0
M  END
>  <minimizedAffinity>
-5.39428711

$$$$
