
 OpenBabel03242513273D

 27 29  0  0  0  0  0  0  0  0999 V2000
   46.4880   33.5720   41.3460 C   0  0  0  0  0  0  0  0  0  0  0  0
   46.8310   34.6130   42.1890 C   0  0  0  0  0  0  0  0  0  0  0  0
   47.8610   35.4110   41.8030 C   0  0  0  0  0  0  0  0  0  0  0  0
   48.5450   35.2050   40.6210 C   0  0  0  0  0  0  0  0  0  0  0  0
   48.1970   34.1710   39.7930 C   0  0  0  0  0  0  0  0  0  0  0  0
   47.1440   33.3210   40.1470 C   0  0  0  0  0  0  0  0  0  0  0  0
   48.1630   36.2390   42.4340 H   0  0  0  0  0  0  0  0  0  0  0  0
   49.3610   35.8870   40.3780 H   0  0  0  0  0  0  0  0  0  0  0  0
   48.7290   33.9990   38.8610 H   0  0  0  0  0  0  0  0  0  0  0  0
   44.4770   35.9410   44.8140 C   0  0  0  0  0  0  0  0  0  0  0  0
   45.1920   35.8130   43.6180 C   0  0  0  0  0  0  0  0  0  0  0  0
   46.0780   34.7770   43.4090 C   0  0  0  0  0  0  0  0  0  0  0  0
   46.1920   33.9100   44.4530 N   0  0  0  0  0  0  0  0  0  0  0  0
   45.5130   34.0200   45.6080 C   0  0  0  0  0  0  0  0  0  0  0  0
   44.6540   35.0400   45.7860 N   0  0  0  0  0  0  0  0  0  0  0  0
   43.7780   36.7640   44.9720 H   0  0  0  0  0  0  0  0  0  0  0  0
   45.0350   36.5560   42.8380 H   0  0  0  0  0  0  0  0  0  0  0  0
   45.7340   33.2300   46.3300 H   0  0  0  0  0  0  0  0  0  0  0  0
   45.4420   32.7250   41.6920 O   0  0  0  0  0  0  0  0  0  0  0  0
   44.5450   33.0350   42.0060 H   0  0  0  0  0  0  0  0  0  0  0  0
   46.7410   32.2630   39.3610 O   0  0  0  0  0  0  0  0  0  0  0  0
   46.5800   32.2960   38.0220 C   0  0  0  0  0  0  0  0  0  0  0  0
   45.5030   32.7720   37.2800 C   0  0  0  0  0  0  0  0  0  0  0  0
   44.6500   33.1830   37.7930 H   0  0  0  0  0  0  0  0  0  0  0  0
   45.5940   32.6850   35.9180 C   0  0  0  0  0  0  0  0  0  0  0  0
   46.7900   32.1120   35.3500 C   0  0  0  0  0  0  0  0  0  0  0  0
   47.7890   31.6970   36.8250 S   0  0  0  0  0  0  0  0  0  0  0  0
  1 19  1  0  0  0  0
  1  2  1  0  0  0  0
  2 12  1  0  0  0  0
  3  2  2  0  0  0  0
  3  7  1  0  0  0  0
  4  3  1  0  0  0  0
  5  6  1  0  0  0  0
  5  4  2  0  0  0  0
  6  1  2  0  0  0  0
  8  4  1  0  0  0  0
  9  5  1  0  0  0  0
 10 16  1  0  0  0  0
 10 15  1  0  0  0  0
 11 10  2  0  0  0  0
 12 11  1  0  0  0  0
 12 13  2  0  0  0  0
 13 14  1  0  0  0  0
 14 15  2  0  0  0  0
 14 18  1  0  0  0  0
 17 11  1  0  0  0  0
 19 20  1  0  0  0  0
 21  6  1  0  0  0  0
 22 21  1  0  0  0  0
 23 24  1  0  0  0  0
 23 22  2  0  0  0  0
 25 23  1  0  0  0  0
 26 25  2  0  0  0  0
 26 27  1  0  0  0  0
 27 22  1  0  0  0  0
M  END
>  <minimizedAffinity>
-5.12458277

>  <minimizedRMSD>
1.91307819

$$$$
