
 OpenBabel03252508563D

 21 22  0  0  0  0  0  0  0  0999 V2000
   42.3610   34.9500   41.2330 C   0  0  0  0  0  0  0  0  0  0  0  0
   41.6900   34.1040   41.3910 H   0  0  0  0  0  0  0  0  0  0  0  0
   41.8620   35.8440   41.6370 H   0  0  0  0  0  0  0  0  0  0  0  0
   45.6130   35.6160   43.0280 C   0  0  0  0  0  0  0  0  0  0  0  0
   44.3970   35.8220   42.3230 C   0  0  0  0  0  0  0  0  0  0  0  0
   43.6270   34.7240   41.9680 C   0  0  0  0  0  0  0  0  0  0  0  0
   44.0890   33.5000   42.3220 N   0  0  0  0  0  0  0  0  0  0  0  0
   45.2380   33.3200   42.9880 C   0  0  0  0  0  0  0  0  0  0  0  0
   45.9900   34.3690   43.3360 N   0  0  0  0  0  0  0  0  0  0  0  0
   46.1820   36.5010   43.2850 H   0  0  0  0  0  0  0  0  0  0  0  0
   44.0330   36.8110   42.0420 H   0  0  0  0  0  0  0  0  0  0  0  0
   45.5490   32.3120   43.2400 H   0  0  0  0  0  0  0  0  0  0  0  0
   42.6750   35.1560   39.7700 C   0  0  0  0  0  0  0  0  0  0  0  0
   43.7720   35.4170   39.7060 H   0  0  0  0  0  0  0  0  0  0  0  0
   42.1320   35.9850   39.3230 H   0  0  0  0  0  0  0  0  0  0  0  0
   42.5220   33.9040   39.0170 C   0  0  0  0  0  0  0  0  0  0  0  0
   41.3890   33.2330   38.6190 C   0  0  0  0  0  0  0  0  0  0  0  0
   40.4370   33.6670   38.8850 H   0  0  0  0  0  0  0  0  0  0  0  0
   41.4990   32.0750   37.9220 C   0  0  0  0  0  3  0  0  0  0  0  0
   42.8670   31.6410   37.6540 C   0  0  0  0  0  3  0  0  0  0  0  0
   43.8840   32.9810   38.4530 S   0  0  0  0  0  0  0  0  0  0  0  0
  1  2  1  0  0  0  0
  1  3  1  0  0  0  0
  1  6  1  0  0  0  0
  4 10  1  0  0  0  0
  4  9  1  0  0  0  0
  5  4  2  0  0  0  0
  6  7  2  0  0  0  0
  6  5  1  0  0  0  0
  7  8  1  0  0  0  0
  8 12  1  0  0  0  0
  8  9  2  0  0  0  0
 11  5  1  0  0  0  0
 13  1  1  0  0  0  0
 14 13  1  0  0  0  0
 15 13  1  0  0  0  0
 16 13  1  0  0  0  0
 17 18  1  0  0  0  0
 17 16  2  0  0  0  0
 19 17  1  0  0  0  0
 20 19  2  0  0  0  0
 20 21  1  0  0  0  0
 21 16  1  0  0  0  0
M  END
>  <minimizedAffinity>
-3.09716201

>  <minimizedRMSD>
5.49393082

$$$$
