
 OpenBabel03252502223D

 30 32  0  0  1  0  0  0  0  0999 V2000
   36.7350   28.4140   40.9870 N   0  0  0  0  0  0  0  0  0  0  0  0
   37.0430   27.0900   41.5210 C   0  0  0  0  0  0  0  0  0  0  0  0
   36.7470   27.2290   43.0230 C   0  0  0  0  0  0  0  0  0  0  0  0
   37.6670   28.2060   43.6770 C   0  0  0  0  0  0  0  0  0  0  0  0
   38.0110   29.3840   42.8350 C   0  0  0  0  0  0  0  0  0  0  0  0
   37.0700   29.6180   41.6880 C   0  0  1  0  0  0  0  0  0  0  0  0
   38.0930   26.8000   41.3730 H   0  0  0  0  0  0  0  0  0  0  0  0
   36.4020   26.3030   41.1160 H   0  0  0  0  0  0  0  0  0  0  0  0
   35.7010   27.6250   43.1100 H   0  0  0  0  0  0  0  0  0  0  0  0
   36.8770   26.2380   43.5090 H   0  0  0  0  0  0  0  0  0  0  0  0
   37.2040   28.4830   44.6590 H   0  0  0  0  0  0  0  0  0  0  0  0
   38.6020   27.6560   43.9350 H   0  0  0  0  0  0  0  0  0  0  0  0
   39.0350   29.2850   42.4050 H   0  0  0  0  0  0  0  0  0  0  0  0
   38.0190   30.2720   43.4860 H   0  0  0  0  0  0  0  0  0  0  0  0
   36.1030   29.9430   42.1760 H   0  0  0  0  0  0  0  0  0  0  0  0
   34.1710   29.0250   38.3410 C   0  0  0  0  0  0  0  0  0  0  0  0
   34.7290   28.9180   39.6170 C   0  0  0  0  0  0  0  0  0  0  0  0
   36.0790   28.5480   39.7250 C   0  0  0  0  0  0  0  0  0  0  0  0
   36.7510   28.3180   38.5660 N   0  0  0  0  0  0  0  0  0  0  0  0
   36.2020   28.4240   37.3420 C   0  0  0  0  0  0  0  0  0  0  0  0
   34.9020   28.7800   37.2370 N   0  0  0  0  0  0  0  0  0  0  0  0
   33.1330   29.3080   38.2220 H   0  0  0  0  0  0  0  0  0  0  0  0
   34.1620   29.1080   40.5090 H   0  0  0  0  0  0  0  0  0  0  0  0
   36.8870   28.2030   36.5320 H   0  0  0  0  0  0  0  0  0  0  0  0
   37.4980   30.6950   40.8320 C   0  0  0  0  0  0  0  0  0  0  0  0
   36.8740   31.8570   40.3990 C   0  0  0  0  0  0  0  0  0  0  0  0
   35.8690   32.0130   40.7560 H   0  0  0  0  0  0  0  0  0  0  0  0
   37.5380   32.7210   39.5690 C   0  0  0  0  0  3  0  0  0  0  0  0
   38.8330   32.4400   39.1570 C   0  0  0  0  0  3  0  0  0  0  0  0
   39.1780   30.7860   40.0180 S   0  0  0  0  0  0  0  0  0  0  0  0
  1  2  1  0  0  0  0
  1  6  1  0  0  0  0
  2  3  1  0  0  0  0
  3  9  1  0  0  0  0
  3 10  1  0  0  0  0
  3  4  1  0  0  0  0
  4 12  1  0  0  0  0
  4 11  1  0  0  0  0
  5 14  1  0  0  0  0
  5  4  1  0  0  0  0
  6 15  1  1  0  0  0
  6  5  1  0  0  0  0
  7  2  1  0  0  0  0
  8  2  1  0  0  0  0
 13  5  1  0  0  0  0
 16 17  1  0  0  0  0
 17 18  2  0  0  0  0
 17 23  1  0  0  0  0
 18  1  1  0  0  0  0
 19 18  1  0  0  0  0
 20 19  2  0  0  0  0
 21 20  1  0  0  0  0
 21 16  2  0  0  0  0
 22 16  1  0  0  0  0
 24 20  1  0  0  0  0
 25  6  1  0  0  0  0
 26 27  1  0  0  0  0
 26 25  2  0  0  0  0
 28 26  1  0  0  0  0
 29 28  2  0  0  0  0
 29 30  1  0  0  0  0
 30 25  1  0  0  0  0
M  END
>  <minimizedAffinity>
-4.77154541

$$$$

 OpenBabel03252502223D

 30 32  0  0  1  0  0  0  0  0999 V2000
   38.3780   31.2910   40.6260 N   0  0  0  0  0  0  0  0  0  0  0  0
   39.5060   32.2170   40.6420 C   0  0  0  0  0  0  0  0  0  0  0  0
   38.8550   33.5750   40.9500 C   0  0  0  0  0  0  0  0  0  0  0  0
   37.9320   34.0040   39.8570 C   0  0  0  0  0  0  0  0  0  0  0  0
   37.1670   32.8930   39.2300 C   0  0  0  0  0  0  0  0  0  0  0  0
   37.1110   31.6390   40.0540 C   0  0  1  0  0  0  0  0  0  0  0  0
   40.0350   32.2670   39.6790 H   0  0  0  0  0  0  0  0  0  0  0  0
   40.2320   31.9990   41.4290 H   0  0  0  0  0  0  0  0  0  0  0  0
   38.2470   33.4370   41.8830 H   0  0  0  0  0  0  0  0  0  0  0  0
   39.6530   34.3410   41.0620 H   0  0  0  0  0  0  0  0  0  0  0  0
   37.2780   34.8100   40.2800 H   0  0  0  0  0  0  0  0  0  0  0  0
   38.5540   34.5050   39.0790 H   0  0  0  0  0  0  0  0  0  0  0  0
   37.5990   32.6170   38.2400 H   0  0  0  0  0  0  0  0  0  0  0  0
   36.1420   33.2530   39.0450 H   0  0  0  0  0  0  0  0  0  0  0  0
   36.4620   31.9110   40.9400 H   0  0  0  0  0  0  0  0  0  0  0  0
   39.1980   27.6830   41.1350 C   0  0  0  0  0  0  0  0  0  0  0  0
   39.1150   28.9260   40.5020 C   0  0  0  0  0  0  0  0  0  0  0  0
   38.5080   29.9860   41.1920 C   0  0  0  0  0  0  0  0  0  0  0  0
   38.0400   29.7220   42.4410 N   0  0  0  0  0  0  0  0  0  0  0  0
   38.1250   28.5200   43.0400 C   0  0  0  0  0  0  0  0  0  0  0  0
   38.7100   27.4980   42.3760 N   0  0  0  0  0  0  0  0  0  0  0  0
   39.6600   26.8440   40.6300 H   0  0  0  0  0  0  0  0  0  0  0  0
   39.4980   29.0920   39.5130 H   0  0  0  0  0  0  0  0  0  0  0  0
   37.6980   28.4940   44.0360 H   0  0  0  0  0  0  0  0  0  0  0  0
   36.4600   30.5530   39.3670 C   0  0  0  0  0  0  0  0  0  0  0  0
   36.5440   30.0790   38.0650 C   0  0  0  0  0  0  0  0  0  0  0  0
   37.2230   30.6070   37.4140 H   0  0  0  0  0  0  0  0  0  0  0  0
   35.7910   29.0020   37.6790 C   0  0  0  0  0  3  0  0  0  0  0  0
   34.9420   28.3820   38.5840 C   0  0  0  0  0  3  0  0  0  0  0  0
   35.2140   29.4060   40.1570 S   0  0  0  0  0  0  0  0  0  0  0  0
  1  2  1  0  0  0  0
  1 18  1  0  0  0  0
  2  3  1  0  0  0  0
  2  8  1  0  0  0  0
  3 10  1  0  0  0  0
  3  9  1  0  0  0  0
  4 11  1  0  0  0  0
  4  3  1  0  0  0  0
  5  4  1  0  0  0  0
  5  6  1  0  0  0  0
  6  1  1  0  0  0  0
  6 15  1  1  0  0  0
  7  2  1  0  0  0  0
 12  4  1  0  0  0  0
 13  5  1  0  0  0  0
 14  5  1  0  0  0  0
 16 21  1  0  0  0  0
 17 16  2  0  0  0  0
 17 18  1  0  0  0  0
 18 19  2  0  0  0  0
 19 20  1  0  0  0  0
 20 24  1  0  0  0  0
 21 20  2  0  0  0  0
 22 16  1  0  0  0  0
 23 17  1  0  0  0  0
 25  6  1  0  0  0  0
 25 30  1  0  0  0  0
 26 25  2  0  0  0  0
 27 26  1  0  0  0  0
 28 26  1  0  0  0  0
 28 29  2  0  0  0  0
 29 30  1  0  0  0  0
M  END
>  <minimizedAffinity>
-4.59064245

$$$$

 OpenBabel03252502223D

 30 32  0  0  1  0  0  0  0  0999 V2000
   38.0090   29.3920   41.5310 N   0  0  0  0  0  0  0  0  0  0  0  0
   38.5240   29.5570   42.8870 C   0  0  0  0  0  0  0  0  0  0  0  0
   39.0760   28.1660   43.2360 C   0  0  0  0  0  0  0  0  0  0  0  0
   37.9920   27.1400   43.2860 C   0  0  0  0  0  0  0  0  0  0  0  0
   36.9250   27.3260   42.2650 C   0  0  0  0  0  0  0  0  0  0  0  0
   37.3170   28.2080   41.1150 C   0  0  1  0  0  0  0  0  0  0  0  0
   37.7470   29.8420   43.6110 H   0  0  0  0  0  0  0  0  0  0  0  0
   39.3440   30.2770   42.9520 H   0  0  0  0  0  0  0  0  0  0  0  0
   39.7830   27.8840   42.4120 H   0  0  0  0  0  0  0  0  0  0  0  0
   39.5670   28.2120   44.2320 H   0  0  0  0  0  0  0  0  0  0  0  0
   38.4890   26.1370   43.2300 H   0  0  0  0  0  0  0  0  0  0  0  0
   37.5380   27.1890   44.3020 H   0  0  0  0  0  0  0  0  0  0  0  0
   36.0080   27.7670   42.7200 H   0  0  0  0  0  0  0  0  0  0  0  0
   36.6490   26.3300   41.8830 H   0  0  0  0  0  0  0  0  0  0  0  0
   38.0930   27.6080   40.5500 H   0  0  0  0  0  0  0  0  0  0  0  0
   37.7120   32.5930   39.6310 C   0  0  0  0  0  0  0  0  0  0  0  0
   37.4770   31.6380   40.6230 C   0  0  0  0  0  0  0  0  0  0  0  0
   38.1830   30.4270   40.5620 C   0  0  0  0  0  0  0  0  0  0  0  0
   39.0530   30.2710   39.5300 N   0  0  0  0  0  0  0  0  0  0  0  0
   39.2710   31.1990   38.5790 C   0  0  0  0  0  0  0  0  0  0  0  0
   38.5910   32.3660   38.6380 N   0  0  0  0  0  0  0  0  0  0  0  0
   37.1840   33.5380   39.6480 H   0  0  0  0  0  0  0  0  0  0  0  0
   36.7790   31.8010   41.4220 H   0  0  0  0  0  0  0  0  0  0  0  0
   40.0000   30.9020   37.8340 H   0  0  0  0  0  0  0  0  0  0  0  0
   36.2250   28.4540   40.2080 C   0  0  0  0  0  0  0  0  0  0  0  0
   34.9720   29.0260   40.3800 C   0  0  0  0  0  0  0  0  0  0  0  0
   34.7390   29.3620   41.3780 H   0  0  0  0  0  0  0  0  0  0  0  0
   34.1180   29.1340   39.3130 C   0  0  0  0  0  3  0  0  0  0  0  0
   34.5010   28.6730   38.0620 C   0  0  0  0  0  3  0  0  0  0  0  0
   36.2460   28.0120   38.3930 S   0  0  0  0  0  0  0  0  0  0  0  0
  1  2  1  0  0  0  0
  2  8  1  0  0  0  0
  2  3  1  0  0  0  0
  2  7  1  0  0  0  0
  3  4  1  0  0  0  0
  3 10  1  0  0  0  0
  4 12  1  0  0  0  0
  5 13  1  0  0  0  0
  5  4  1  0  0  0  0
  6 15  1  6  0  0  0
  6  1  1  0  0  0  0
  6  5  1  0  0  0  0
  9  3  1  0  0  0  0
 11  4  1  0  0  0  0
 14  5  1  0  0  0  0
 16 22  1  0  0  0  0
 16 17  1  0  0  0  0
 17 23  1  0  0  0  0
 18 17  2  0  0  0  0
 18  1  1  0  0  0  0
 19 18  1  0  0  0  0
 20 21  1  0  0  0  0
 20 19  2  0  0  0  0
 21 16  2  0  0  0  0
 24 20  1  0  0  0  0
 25 26  2  0  0  0  0
 25  6  1  0  0  0  0
 26 27  1  0  0  0  0
 28 26  1  0  0  0  0
 29 30  1  0  0  0  0
 29 28  2  0  0  0  0
 30 25  1  0  0  0  0
M  END
>  <minimizedAffinity>
-4.57934046

$$$$

 OpenBabel03252502223D

 30 32  0  0  1  0  0  0  0  0999 V2000
   37.5040   30.6830   40.4190 N   0  0  0  0  0  0  0  0  0  0  0  0
   37.5310   32.1410   40.4800 C   0  0  0  0  0  0  0  0  0  0  0  0
   39.0270   32.4790   40.3830 C   0  0  0  0  0  0  0  0  0  0  0  0
   39.7850   31.9630   41.5620 C   0  0  0  0  0  0  0  0  0  0  0  0
   39.3100   30.6460   42.0670 C   0  0  0  0  0  0  0  0  0  0  0  0
   38.4780   29.8710   41.0850 C   0  0  1  0  0  0  0  0  0  0  0  0
   37.1180   32.5410   41.4170 H   0  0  0  0  0  0  0  0  0  0  0  0
   37.0170   32.6180   39.6400 H   0  0  0  0  0  0  0  0  0  0  0  0
   39.4160   31.9620   39.4670 H   0  0  0  0  0  0  0  0  0  0  0  0
   39.1460   33.5840   40.3420 H   0  0  0  0  0  0  0  0  0  0  0  0
   40.8690   31.9650   41.2790 H   0  0  0  0  0  0  0  0  0  0  0  0
   39.6890   32.7210   42.3730 H   0  0  0  0  0  0  0  0  0  0  0  0
   38.7000   30.7670   42.9910 H   0  0  0  0  0  0  0  0  0  0  0  0
   40.1970   30.0520   42.3410 H   0  0  0  0  0  0  0  0  0  0  0  0
   39.2050   29.5720   40.2710 H   0  0  0  0  0  0  0  0  0  0  0  0
   35.6160   28.9450   37.7050 C   0  0  0  0  0  0  0  0  0  0  0  0
   36.6700   29.5940   38.3510 C   0  0  0  0  0  0  0  0  0  0  0  0
   36.4830   30.0110   39.6780 C   0  0  0  0  0  0  0  0  0  0  0  0
   35.2760   29.7470   40.2430 N   0  0  0  0  0  0  0  0  0  0  0  0
   34.2670   29.1200   39.6100 C   0  0  0  0  0  0  0  0  0  0  0  0
   34.4470   28.7190   38.3320 N   0  0  0  0  0  0  0  0  0  0  0  0
   35.7270   28.6110   36.6810 H   0  0  0  0  0  0  0  0  0  0  0  0
   37.6100   29.7840   37.8670 H   0  0  0  0  0  0  0  0  0  0  0  0
   33.3780   28.9960   40.2170 H   0  0  0  0  0  0  0  0  0  0  0  0
   37.9450   28.6570   41.6480 C   0  0  0  0  0  0  0  0  0  0  0  0
   37.2360   28.3920   42.8110 C   0  0  0  0  0  0  0  0  0  0  0  0
   37.0270   29.2430   43.4400 H   0  0  0  0  0  0  0  0  0  0  0  0
   36.8470   27.1100   43.0980 C   0  0  0  0  0  3  0  0  0  0  0  0
   37.1600   26.0740   42.2300 C   0  0  0  0  0  3  0  0  0  0  0  0
   38.1030   26.9730   40.8530 S   0  0  0  0  0  0  0  0  0  0  0  0
  1  2  1  0  0  0  0
  1  6  1  0  0  0  0
  2  7  1  0  0  0  0
  3  2  1  0  0  0  0
  3  4  1  0  0  0  0
  4  5  1  0  0  0  0
  4 12  1  0  0  0  0
  5 14  1  0  0  0  0
  5 13  1  0  0  0  0
  6 15  1  6  0  0  0
  6 25  1  0  0  0  0
  6  5  1  0  0  0  0
  8  2  1  0  0  0  0
  9  3  1  0  0  0  0
 10  3  1  0  0  0  0
 11  4  1  0  0  0  0
 16 21  2  0  0  0  0
 16 17  1  0  0  0  0
 17 18  2  0  0  0  0
 18 19  1  0  0  0  0
 18  1  1  0  0  0  0
 20 24  1  0  0  0  0
 20 19  2  0  0  0  0
 21 20  1  0  0  0  0
 22 16  1  0  0  0  0
 23 17  1  0  0  0  0
 25 26  2  0  0  0  0
 26 28  1  0  0  0  0
 26 27  1  0  0  0  0
 29 28  2  0  0  0  0
 30 25  1  0  0  0  0
 30 29  1  0  0  0  0
M  END
>  <minimizedAffinity>
-4.33112144

$$$$

 OpenBabel03252502223D

 30 32  0  0  1  0  0  0  0  0999 V2000
   36.9410   30.0670   38.7570 N   0  0  0  0  0  0  0  0  0  0  0  0
   36.6570   29.7510   37.3610 C   0  0  0  0  0  0  0  0  0  0  0  0
   35.2100   29.2340   37.3960 C   0  0  0  0  0  0  0  0  0  0  0  0
   35.0960   27.9680   38.1790 C   0  0  0  0  0  0  0  0  0  0  0  0
   35.9780   27.9060   39.3750 C   0  0  0  0  0  0  0  0  0  0  0  0
   36.4880   29.2410   39.8370 C   0  0  1  0  0  0  0  0  0  0  0  0
   37.3200   28.9760   36.9520 H   0  0  0  0  0  0  0  0  0  0  0  0
   36.6930   30.6250   36.7050 H   0  0  0  0  0  0  0  0  0  0  0  0
   34.5990   30.0190   37.9140 H   0  0  0  0  0  0  0  0  0  0  0  0
   34.8710   29.0400   36.3540 H   0  0  0  0  0  0  0  0  0  0  0  0
   34.0110   27.8300   38.4200 H   0  0  0  0  0  0  0  0  0  0  0  0
   35.3550   27.1310   37.4900 H   0  0  0  0  0  0  0  0  0  0  0  0
   36.8680   27.2630   39.1850 H   0  0  0  0  0  0  0  0  0  0  0  0
   35.4070   27.4330   40.1900 H   0  0  0  0  0  0  0  0  0  0  0  0
   35.5720   29.7710   40.2370 H   0  0  0  0  0  0  0  0  0  0  0  0
   37.9190   33.4690   39.9520 C   0  0  0  0  0  0  0  0  0  0  0  0
   37.1030   32.3750   39.6560 C   0  0  0  0  0  0  0  0  0  0  0  0
   37.6960   31.2340   39.0940 C   0  0  0  0  0  0  0  0  0  0  0  0
   39.0360   31.2780   38.8770 N   0  0  0  0  0  0  0  0  0  0  0  0
   39.8130   32.3390   39.1660 C   0  0  0  0  0  0  0  0  0  0  0  0
   39.2420   33.4390   39.7080 N   0  0  0  0  0  0  0  0  0  0  0  0
   37.4930   34.3640   40.3860 H   0  0  0  0  0  0  0  0  0  0  0  0
   36.0450   32.3800   39.8430 H   0  0  0  0  0  0  0  0  0  0  0  0
   40.8600   32.1960   38.9260 H   0  0  0  0  0  0  0  0  0  0  0  0
   37.4260   29.1300   40.9250 C   0  0  0  0  0  0  0  0  0  0  0  0
   37.4410   29.6520   42.2110 C   0  0  0  0  0  0  0  0  0  0  0  0
   36.5970   30.2670   42.4790 H   0  0  0  0  0  0  0  0  0  0  0  0
   38.4870   29.3720   43.0500 C   0  0  0  0  0  3  0  0  0  0  0  0
   39.5340   28.5700   42.6190 C   0  0  0  0  0  3  0  0  0  0  0  0
   39.0150   28.1490   40.8450 S   0  0  0  0  0  0  0  0  0  0  0  0
  1 18  1  0  0  0  0
  1  6  1  0  0  0  0
  2  3  1  0  0  0  0
  2  1  1  0  0  0  0
  3  9  1  0  0  0  0
  3  4  1  0  0  0  0
  4 11  1  0  0  0  0
  4  5  1  0  0  0  0
  5  6  1  0  0  0  0
  5 14  1  0  0  0  0
  6 15  1  1  0  0  0
  6 25  1  0  0  0  0
  7  2  1  0  0  0  0
  8  2  1  0  0  0  0
 10  3  1  0  0  0  0
 12  4  1  0  0  0  0
 13  5  1  0  0  0  0
 16 22  1  0  0  0  0
 17 23  1  0  0  0  0
 17 16  2  0  0  0  0
 18 17  1  0  0  0  0
 19 18  2  0  0  0  0
 19 20  1  0  0  0  0
 20 21  2  0  0  0  0
 21 16  1  0  0  0  0
 24 20  1  0  0  0  0
 25 26  2  0  0  0  0
 26 27  1  0  0  0  0
 26 28  1  0  0  0  0
 29 28  2  0  0  0  0
 30 25  1  0  0  0  0
 30 29  1  0  0  0  0
M  END
>  <minimizedAffinity>
-4.32728481

$$$$

 OpenBabel03252502223D

 30 32  0  0  1  0  0  0  0  0999 V2000
   37.8600   29.3430   41.5090 N   0  0  0  0  0  0  0  0  0  0  0  0
   37.8740   29.3100   42.9690 C   0  0  0  0  0  0  0  0  0  0  0  0
   38.4660   27.9290   43.2930 C   0  0  0  0  0  0  0  0  0  0  0  0
   37.5760   26.8250   42.8230 C   0  0  0  0  0  0  0  0  0  0  0  0
   36.8880   27.0990   41.5320 C   0  0  0  0  0  0  0  0  0  0  0  0
   37.5120   28.1990   40.7210 C   0  0  1  0  0  0  0  0  0  0  0  0
   36.8720   29.4000   43.4110 H   0  0  0  0  0  0  0  0  0  0  0  0
   38.5210   30.0720   43.4110 H   0  0  0  0  0  0  0  0  0  0  0  0
   39.4350   27.8540   42.7340 H   0  0  0  0  0  0  0  0  0  0  0  0
   38.5910   27.8390   44.3940 H   0  0  0  0  0  0  0  0  0  0  0  0
   38.1950   25.8910   42.8060 H   0  0  0  0  0  0  0  0  0  0  0  0
   36.8110   26.6590   43.6160 H   0  0  0  0  0  0  0  0  0  0  0  0
   35.8220   27.3780   41.6970 H   0  0  0  0  0  0  0  0  0  0  0  0
   36.8910   26.1670   40.9450 H   0  0  0  0  0  0  0  0  0  0  0  0
   38.5040   27.7720   40.3830 H   0  0  0  0  0  0  0  0  0  0  0  0
   39.6840   31.9240   39.5180 C   0  0  0  0  0  0  0  0  0  0  0  0
   39.4390   30.7170   40.1760 C   0  0  0  0  0  0  0  0  0  0  0  0
   38.2000   30.5430   40.8120 C   0  0  0  0  0  0  0  0  0  0  0  0
   37.3190   31.5760   40.7390 N   0  0  0  0  0  0  0  0  0  0  0  0
   37.5670   32.7350   40.1020 C   0  0  0  0  0  0  0  0  0  0  0  0
   38.7610   32.9030   39.4900 N   0  0  0  0  0  0  0  0  0  0  0  0
   40.6300   32.0900   39.0180 H   0  0  0  0  0  0  0  0  0  0  0  0
   40.1640   29.9250   40.2110 H   0  0  0  0  0  0  0  0  0  0  0  0
   36.7490   33.4450   40.1470 H   0  0  0  0  0  0  0  0  0  0  0  0
   36.7550   28.5100   39.5360 C   0  0  0  0  0  0  0  0  0  0  0  0
   37.0830   28.5260   38.1870 C   0  0  0  0  0  0  0  0  0  0  0  0
   38.0990   28.2560   37.9460 H   0  0  0  0  0  0  0  0  0  0  0  0
   36.1380   28.8700   37.2580 C   0  0  0  0  0  3  0  0  0  0  0  0
   34.8530   29.2050   37.6580 C   0  0  0  0  0  3  0  0  0  0  0  0
   34.9580   29.0230   39.5420 S   0  0  0  0  0  0  0  0  0  0  0  0
  1  2  1  0  0  0  0
  2  3  1  0  0  0  0
  2  8  1  0  0  0  0
  2  7  1  0  0  0  0
  3 10  1  0  0  0  0
  4  3  1  0  0  0  0
  4 12  1  0  0  0  0
  5 13  1  0  0  0  0
  5  4  1  0  0  0  0
  6 15  1  6  0  0  0
  6  1  1  0  0  0  0
  6  5  1  0  0  0  0
  9  3  1  0  0  0  0
 11  4  1  0  0  0  0
 14  5  1  0  0  0  0
 16 17  1  0  0  0  0
 17 23  1  0  0  0  0
 17 18  2  0  0  0  0
 18  1  1  0  0  0  0
 19 18  1  0  0  0  0
 20 24  1  0  0  0  0
 20 19  2  0  0  0  0
 21 16  2  0  0  0  0
 21 20  1  0  0  0  0
 22 16  1  0  0  0  0
 25 30  1  0  0  0  0
 25  6  1  0  0  0  0
 26 25  2  0  0  0  0
 27 26  1  0  0  0  0
 28 29  2  0  0  0  0
 28 26  1  0  0  0  0
 29 30  1  0  0  0  0
M  END
>  <minimizedAffinity>
-4.30291176

$$$$

 OpenBabel03252502223D

 30 32  0  0  1  0  0  0  0  0999 V2000
   38.0460   30.4310   40.6720 N   0  0  0  0  0  0  0  0  0  0  0  0
   38.7950   31.6840   40.6720 C   0  0  0  0  0  0  0  0  0  0  0  0
   37.7380   32.7360   40.3020 C   0  0  0  0  0  0  0  0  0  0  0  0
   37.2100   32.5250   38.9220 C   0  0  0  0  0  0  0  0  0  0  0  0
   37.0600   31.0950   38.5350 C   0  0  0  0  0  0  0  0  0  0  0  0
   37.0400   30.1410   39.6940 C   0  0  1  0  0  0  0  0  0  0  0  0
   39.6100   31.6980   39.9340 H   0  0  0  0  0  0  0  0  0  0  0  0
   39.2060   31.9400   41.6520 H   0  0  0  0  0  0  0  0  0  0  0  0
   36.8880   32.6070   41.0220 H   0  0  0  0  0  0  0  0  0  0  0  0
   38.2000   33.7460   40.3540 H   0  0  0  0  0  0  0  0  0  0  0  0
   36.2550   33.1070   38.8440 H   0  0  0  0  0  0  0  0  0  0  0  0
   37.9170   33.0210   38.2190 H   0  0  0  0  0  0  0  0  0  0  0  0
   37.8870   30.7740   37.8590 H   0  0  0  0  0  0  0  0  0  0  0  0
   36.1220   30.9970   37.9660 H   0  0  0  0  0  0  0  0  0  0  0  0
   36.0610   30.3540   40.2190 H   0  0  0  0  0  0  0  0  0  0  0  0
   37.7290   28.1770   43.6330 C   0  0  0  0  0  0  0  0  0  0  0  0
   37.3950   29.1650   42.7040 C   0  0  0  0  0  0  0  0  0  0  0  0
   38.3010   29.4380   41.6680 C   0  0  0  0  0  0  0  0  0  0  0  0
   39.4490   28.7120   41.6440 N   0  0  0  0  0  0  0  0  0  0  0  0
   39.7600   27.7610   42.5460 C   0  0  0  0  0  0  0  0  0  0  0  0
   38.8880   27.4980   43.5450 N   0  0  0  0  0  0  0  0  0  0  0  0
   37.0520   27.9420   44.4450 H   0  0  0  0  0  0  0  0  0  0  0  0
   36.4760   29.7170   42.7590 H   0  0  0  0  0  0  0  0  0  0  0  0
   40.7180   27.2850   42.3700 H   0  0  0  0  0  0  0  0  0  0  0  0
   37.0080   28.7620   39.2760 C   0  0  0  0  0  0  0  0  0  0  0  0
   36.1220   27.7240   39.5250 C   0  0  0  0  0  0  0  0  0  0  0  0
   35.2790   27.9650   40.1530 H   0  0  0  0  0  0  0  0  0  0  0  0
   36.3480   26.4870   38.9820 C   0  0  0  0  0  3  0  0  0  0  0  0
   37.4600   26.2660   38.1840 C   0  0  0  0  0  3  0  0  0  0  0  0
   38.2970   27.9680   38.1800 S   0  0  0  0  0  0  0  0  0  0  0  0
  1 18  1  0  0  0  0
  2  1  1  0  0  0  0
  2  8  1  0  0  0  0
  3 10  1  0  0  0  0
  3  2  1  0  0  0  0
  3  9  1  0  0  0  0
  4  3  1  0  0  0  0
  5  4  1  0  0  0  0
  5  6  1  0  0  0  0
  6 15  1  1  0  0  0
  6  1  1  0  0  0  0
  7  2  1  0  0  0  0
 11  4  1  0  0  0  0
 12  4  1  0  0  0  0
 13  5  1  0  0  0  0
 14  5  1  0  0  0  0
 16 22  1  0  0  0  0
 17 23  1  0  0  0  0
 17 16  2  0  0  0  0
 18 17  1  0  0  0  0
 19 18  2  0  0  0  0
 19 20  1  0  0  0  0
 20 21  2  0  0  0  0
 21 16  1  0  0  0  0
 24 20  1  0  0  0  0
 25 26  2  0  0  0  0
 25  6  1  0  0  0  0
 26 27  1  0  0  0  0
 28 26  1  0  0  0  0
 29 28  2  0  0  0  0
 30 29  1  0  0  0  0
 30 25  1  0  0  0  0
M  END
>  <minimizedAffinity>
-4.29260015

$$$$

 OpenBabel03252502223D

 30 32  0  0  1  0  0  0  0  0999 V2000
   37.1160   28.3380   39.1080 N   0  0  0  0  0  0  0  0  0  0  0  0
   37.3340   28.0410   37.6950 C   0  0  0  0  0  0  0  0  0  0  0  0
   36.0860   27.2350   37.2990 C   0  0  0  0  0  0  0  0  0  0  0  0
   36.0160   25.9340   38.0300 C   0  0  0  0  0  0  0  0  0  0  0  0
   36.4950   25.9950   39.4380 C   0  0  0  0  0  0  0  0  0  0  0  0
   36.5490   27.3820   40.0120 C   0  0  1  0  0  0  0  0  0  0  0  0
   38.2370   27.4410   37.5160 H   0  0  0  0  0  0  0  0  0  0  0  0
   37.3770   28.9350   37.0680 H   0  0  0  0  0  0  0  0  0  0  0  0
   35.1970   27.8490   37.5990 H   0  0  0  0  0  0  0  0  0  0  0  0
   36.1220   27.0270   36.2080 H   0  0  0  0  0  0  0  0  0  0  0  0
   34.9630   25.5630   37.9350 H   0  0  0  0  0  0  0  0  0  0  0  0
   36.6400   25.2050   37.4630 H   0  0  0  0  0  0  0  0  0  0  0  0
   37.5170   25.5600   39.5330 H   0  0  0  0  0  0  0  0  0  0  0  0
   35.8210   25.3740   40.0490 H   0  0  0  0  0  0  0  0  0  0  0  0
   35.4640   27.6900   40.1100 H   0  0  0  0  0  0  0  0  0  0  0  0
   36.9470   31.8010   40.4960 C   0  0  0  0  0  0  0  0  0  0  0  0
   36.5080   30.5780   39.9840 C   0  0  0  0  0  0  0  0  0  0  0  0
   37.4700   29.6160   39.6390 C   0  0  0  0  0  0  0  0  0  0  0  0
   38.7730   29.9490   39.8320 N   0  0  0  0  0  0  0  0  0  0  0  0
   39.1840   31.1320   40.3270 C   0  0  0  0  0  0  0  0  0  0  0  0
   38.2580   32.0590   40.6590 N   0  0  0  0  0  0  0  0  0  0  0  0
   36.2310   32.5650   40.7720 H   0  0  0  0  0  0  0  0  0  0  0  0
   35.4670   30.3550   39.8460 H   0  0  0  0  0  0  0  0  0  0  0  0
   40.2610   31.2220   40.4120 H   0  0  0  0  0  0  0  0  0  0  0  0
   37.1220   27.4120   41.3330 C   0  0  0  0  0  0  0  0  0  0  0  0
   36.6370   27.8470   42.5590 C   0  0  0  0  0  0  0  0  0  0  0  0
   35.6360   28.2480   42.5550 H   0  0  0  0  0  0  0  0  0  0  0  0
   37.4230   27.7510   43.6780 C   0  0  0  0  0  3  0  0  0  0  0  0
   38.7020   27.2220   43.5910 C   0  0  0  0  0  3  0  0  0  0  0  0
   38.8410   26.8050   41.7460 S   0  0  0  0  0  0  0  0  0  0  0  0
  1 18  1  0  0  0  0
  1  6  1  0  0  0  0
  2  1  1  0  0  0  0
  3  9  1  0  0  0  0
  3  2  1  0  0  0  0
  3  4  1  0  0  0  0
  4  5  1  0  0  0  0
  5 13  1  0  0  0  0
  5  6  1  0  0  0  0
  5 14  1  0  0  0  0
  6 15  1  1  0  0  0
  6 25  1  0  0  0  0
  7  2  1  0  0  0  0
  8  2  1  0  0  0  0
 10  3  1  0  0  0  0
 11  4  1  0  0  0  0
 12  4  1  0  0  0  0
 16 21  1  0  0  0  0
 16 22  1  0  0  0  0
 17 16  2  0  0  0  0
 18 19  2  0  0  0  0
 18 17  1  0  0  0  0
 19 20  1  0  0  0  0
 20 24  1  0  0  0  0
 20 21  2  0  0  0  0
 23 17  1  0  0  0  0
 25 30  1  0  0  0  0
 25 26  2  0  0  0  0
 26 28  1  0  0  0  0
 27 26  1  0  0  0  0
 29 28  2  0  0  0  0
 30 29  1  0  0  0  0
M  END
>  <minimizedAffinity>
-4.25844622

$$$$

 OpenBabel03252502223D

 30 32  0  0  1  0  0  0  0  0999 V2000
   37.7510   29.1210   41.4200 N   0  0  0  0  0  0  0  0  0  0  0  0
   36.9090   27.9290   41.3770 C   0  0  0  0  0  0  0  0  0  0  0  0
   36.5350   27.6990   42.8500 C   0  0  0  0  0  0  0  0  0  0  0  0
   37.7340   27.3770   43.6800 C   0  0  0  0  0  0  0  0  0  0  0  0
   38.9650   28.1180   43.2910 C   0  0  0  0  0  0  0  0  0  0  0  0
   38.7120   29.3430   42.4590 C   0  0  1  0  0  0  0  0  0  0  0  0
   37.4330   27.0470   40.9830 H   0  0  0  0  0  0  0  0  0  0  0  0
   35.9880   28.0730   40.8080 H   0  0  0  0  0  0  0  0  0  0  0  0
   36.1010   28.6620   43.2270 H   0  0  0  0  0  0  0  0  0  0  0  0
   35.8220   26.8490   42.9120 H   0  0  0  0  0  0  0  0  0  0  0  0
   37.4420   27.5330   44.7500 H   0  0  0  0  0  0  0  0  0  0  0  0
   37.9200   26.2830   43.5790 H   0  0  0  0  0  0  0  0  0  0  0  0
   39.6600   27.4660   42.7130 H   0  0  0  0  0  0  0  0  0  0  0  0
   39.4890   28.4080   44.2160 H   0  0  0  0  0  0  0  0  0  0  0  0
   38.2060   30.0660   43.1670 H   0  0  0  0  0  0  0  0  0  0  0  0
   37.0380   32.3090   39.6090 C   0  0  0  0  0  0  0  0  0  0  0  0
   37.1110   31.3960   40.6630 C   0  0  0  0  0  0  0  0  0  0  0  0
   37.6380   30.1210   40.4050 C   0  0  0  0  0  0  0  0  0  0  0  0
   38.0450   29.8660   39.1340 N   0  0  0  0  0  0  0  0  0  0  0  0
   37.9700   30.7550   38.1250 C   0  0  0  0  0  0  0  0  0  0  0  0
   37.4610   31.9830   38.3730 N   0  0  0  0  0  0  0  0  0  0  0  0
   36.6370   33.3000   39.7730 H   0  0  0  0  0  0  0  0  0  0  0  0
   36.7770   31.6370   41.6550 H   0  0  0  0  0  0  0  0  0  0  0  0
   38.3400   30.3790   37.1790 H   0  0  0  0  0  0  0  0  0  0  0  0
   39.9300   29.9680   42.0100 C   0  0  0  0  0  0  0  0  0  0  0  0
   40.4830   31.2200   42.2370 C   0  0  0  0  0  0  0  0  0  0  0  0
   39.9130   31.8790   42.8720 H   0  0  0  0  0  0  0  0  0  0  0  0
   41.6850   31.5500   41.6660 C   0  0  0  0  0  3  0  0  0  0  0  0
   42.3500   30.6380   40.8610 C   0  0  0  0  0  3  0  0  0  0  0  0
   41.1820   29.1450   40.8920 S   0  0  0  0  0  0  0  0  0  0  0  0
  1  6  1  0  0  0  0
  2  1  1  0  0  0  0
  2  3  1  0  0  0  0
  3 10  1  0  0  0  0
  3  9  1  0  0  0  0
  3  4  1  0  0  0  0
  4 11  1  0  0  0  0
  5  4  1  0  0  0  0
  5 14  1  0  0  0  0
  6 15  1  1  0  0  0
  6  5  1  0  0  0  0
  7  2  1  0  0  0  0
  8  2  1  0  0  0  0
 12  4  1  0  0  0  0
 13  5  1  0  0  0  0
 16 22  1  0  0  0  0
 16 17  1  0  0  0  0
 17 23  1  0  0  0  0
 18 17  2  0  0  0  0
 18  1  1  0  0  0  0
 19 18  1  0  0  0  0
 20 21  1  0  0  0  0
 20 19  2  0  0  0  0
 21 16  2  0  0  0  0
 24 20  1  0  0  0  0
 25 26  2  0  0  0  0
 25  6  1  0  0  0  0
 26 27  1  0  0  0  0
 28 26  1  0  0  0  0
 29 30  1  0  0  0  0
 29 28  2  0  0  0  0
 30 25  1  0  0  0  0
M  END
>  <minimizedAffinity>
-4.25479794

$$$$
