
 OpenBabel03252505113D

 41 44  0  0  1  0  0  0  0  0999 V2000
   44.5580   35.5330   44.5980 C   0  0  0  0  0  0  0  0  0  0  0  0
   45.2490   35.6030   43.3790 C   0  0  0  0  0  0  0  0  0  0  0  0
   46.3780   34.7360   43.2160 C   0  0  0  0  0  0  0  0  0  0  0  0
   46.7140   33.9040   44.2370 N   0  0  0  0  0  0  0  0  0  0  0  0
   46.0200   33.8720   45.3900 C   0  0  0  0  0  0  0  0  0  0  0  0
   44.9300   34.6960   45.5730 N   0  0  0  0  0  0  0  0  0  0  0  0
   43.7190   36.2140   44.6430 H   0  0  0  0  0  0  0  0  0  0  0  0
   44.9880   36.2510   42.5810 H   0  0  0  0  0  0  0  0  0  0  0  0
   46.4250   32.9490   46.4720 C   0  0  2  0  0  0  0  0  0  0  0  0
   46.9530   31.7190   45.7610 C   0  0  0  0  0  0  0  0  0  0  0  0
   46.0690   30.5420   45.7880 C   0  0  0  0  0  0  0  0  0  0  0  0
   45.7870   30.2730   47.2660 C   0  0  0  0  0  0  0  0  0  0  0  0
   44.9980   31.3520   47.8790 C   0  0  0  0  0  0  0  0  0  0  0  0
   45.3780   32.7120   47.4260 C   0  0  0  0  0  0  0  0  0  0  0  0
   47.2830   33.4590   46.9870 H   0  0  0  0  0  0  0  0  0  0  0  0
   47.9080   31.4340   46.2580 H   0  0  0  0  0  0  0  0  0  0  0  0
   47.2370   31.9130   44.7060 H   0  0  0  0  0  0  0  0  0  0  0  0
   46.6370   29.6790   45.4030 H   0  0  0  0  0  0  0  0  0  0  0  0
   45.1140   30.7090   45.2880 H   0  0  0  0  0  0  0  0  0  0  0  0
   45.1390   29.3860   47.2790 H   0  0  0  0  0  0  0  0  0  0  0  0
   46.7460   30.0700   47.7630 H   0  0  0  0  0  0  0  0  0  0  0  0
   44.2070   31.4030   48.5820 H   0  0  0  0  0  0  0  0  0  0  0  0
   44.6920   33.8650   47.9390 N   0  0  0  0  0  0  0  0  0  0  0  0
   43.6910   33.8170   47.6060 H   0  0  0  0  0  0  0  0  0  0  0  0
   45.1240   34.6020   48.5320 H   0  0  0  0  0  0  0  0  0  0  0  0
   47.1140   34.7720   41.9650 C   0  0  0  0  0  0  0  0  0  0  0  0
   48.2480   35.5250   41.9090 C   0  0  0  0  0  0  0  0  0  0  0  0
   48.9250   35.5270   40.6750 C   0  0  0  0  0  0  0  0  0  0  0  0
   48.3660   34.7640   39.6590 C   0  0  0  0  0  0  0  0  0  0  0  0
   47.2370   34.0150   39.7180 C   0  0  0  0  0  0  0  0  0  0  0  0
   46.6100   34.0420   40.9320 N   0  0  0  0  0  0  0  0  0  0  0  0
   48.6160   36.0890   42.7510 H   0  0  0  0  0  0  0  0  0  0  0  0
   49.8170   36.1110   40.6130 H   0  0  0  0  0  0  0  0  0  0  0  0
   48.9740   34.8470   38.7750 H   0  0  0  0  0  0  0  0  0  0  0  0
   46.7400   33.2830   38.6710 O   0  0  0  0  0  0  0  0  0  0  0  0
   47.4250   33.2030   37.4890 C   0  0  0  0  0  0  0  0  0  0  0  0
   48.0760   33.1840   36.3540 C   0  0  0  0  0  0  0  0  0  0  0  0
   48.0730   34.2540   36.1570 H   0  0  0  0  0  0  0  0  0  0  0  0
   48.5460   32.1060   35.7350 C   0  0  0  0  0  3  0  0  0  0  0  0
   48.3250   30.8960   36.3530 C   0  0  0  0  0  3  0  0  0  0  0  0
   47.3670   31.4590   37.9210 S   0  0  0  0  0  0  0  0  0  0  0  0
  1  7  1  0  0  0  0
  1  6  1  0  0  0  0
  2  1  2  0  0  0  0
  3  2  1  0  0  0  0
  3  4  2  0  0  0  0
  4  5  1  0  0  0  0
  5  6  2  0  0  0  0
  5  9  1  0  0  0  0
  8  2  1  0  0  0  0
  9 15  1  1  0  0  0
  9 14  1  0  0  0  0
 10 11  1  0  0  0  0
 10 16  1  0  0  0  0
 10  9  1  0  0  0  0
 11 12  1  0  0  0  0
 12 20  1  0  0  0  0
 12 21  1  0  0  0  0
 12 13  1  0  0  0  0
 13 22  1  0  0  0  0
 14 13  2  0  0  0  0
 14 23  1  0  0  0  0
 17 10  1  0  0  0  0
 18 11  1  0  0  0  0
 19 11  1  0  0  0  0
 23 25  1  0  0  0  0
 24 23  1  0  0  0  0
 26  3  1  0  0  0  0
 27 26  1  0  0  0  0
 27 32  1  0  0  0  0
 28 27  2  0  0  0  0
 29 30  2  0  0  0  0
 29 28  1  0  0  0  0
 30 31  1  0  0  0  0
 31 26  2  0  0  0  0
 33 28  1  0  0  0  0
 34 29  1  0  0  0  0
 35 30  1  0  0  0  0
 36 41  1  0  0  0  0
 36 35  1  0  0  0  0
 37 36  2  0  0  0  0
 38 37  1  0  0  0  0
 39 40  2  0  0  0  0
 39 37  1  0  0  0  0
 40 41  1  0  0  0  0
M  END
>  <minimizedAffinity>
-7.01654243

>  <minimizedRMSD>
0.209286422

$$$$
