
 OpenBabel03252504533D

 18 19  0  0  0  0  0  0  0  0999 V2000
   44.0520   33.3160   41.2390 C   0  0  0  0  0  0  0  0  0  0  0  0
   45.1720   33.9310   40.6510 C   0  0  0  0  0  0  0  0  0  0  0  0
   46.2770   34.1290   41.4690 C   0  0  0  0  0  0  0  0  0  0  0  0
   46.2200   33.7240   42.7810 N   0  0  0  0  0  0  0  0  0  0  0  0
   45.1140   33.1390   43.2900 C   0  0  0  0  0  0  0  0  0  0  0  0
   44.0380   32.9380   42.5210 N   0  0  0  0  0  0  0  0  0  0  0  0
   43.2020   33.1740   40.5720 H   0  0  0  0  0  0  0  0  0  0  0  0
   45.1860   34.2330   39.6300 H   0  0  0  0  0  0  0  0  0  0  0  0
   45.0730   32.8220   44.3230 H   0  0  0  0  0  0  0  0  0  0  0  0
   47.4460   34.7690   40.8590 C   0  0  0  0  0  0  0  0  0  0  0  0
   47.4110   34.7180   39.7480 H   0  0  0  0  0  0  0  0  0  0  0  0
   47.5120   35.8250   41.1790 H   0  0  0  0  0  0  0  0  0  0  0  0
   48.6760   34.0530   41.2770 C   0  0  0  0  0  0  0  0  0  0  0  0
   49.1690   32.8480   40.8880 C   0  0  0  0  0  0  0  0  0  0  0  0
   48.6110   32.2810   40.1570 H   0  0  0  0  0  0  0  0  0  0  0  0
   50.3500   32.4280   41.4510 C   0  0  0  0  0  3  0  0  0  0  0  0
   50.9740   33.2190   42.3620 C   0  0  0  0  0  3  0  0  0  0  0  0
   49.8490   34.6800   42.4690 S   0  0  0  0  0  0  0  0  0  0  0  0
  1  6  1  0  0  0  0
  2  1  2  0  0  0  0
  2  3  1  0  0  0  0
  3  4  2  0  0  0  0
  4  5  1  0  0  0  0
  5  9  1  0  0  0  0
  6  5  2  0  0  0  0
  7  1  1  0  0  0  0
  8  2  1  0  0  0  0
 10 12  1  0  0  0  0
 10 13  1  0  0  0  0
 10  3  1  0  0  0  0
 11 10  1  0  0  0  0
 13 18  1  0  0  0  0
 14 13  2  0  0  0  0
 14 16  1  0  0  0  0
 15 14  1  0  0  0  0
 16 17  2  0  0  0  0
 17 18  1  0  0  0  0
M  END
>  <minimizedAffinity>
-3.10116601

>  <minimizedRMSD>
2.98556232

$$$$
