
 OpenBabel03252506423D

 37 40  0  0  1  0  0  0  0  0999 V2000
   49.2900   33.2090   41.4620 N   0  0  1  0  0  0  0  0  0  0  0  0
   50.6430   33.1440   42.0230 C   0  0  0  0  0  0  0  0  0  0  0  0
   51.3160   31.8410   41.7220 C   0  0  0  0  0  0  0  0  0  0  0  0
   50.6280   30.7770   42.5550 C   0  0  0  0  0  0  0  0  0  0  0  0
   49.1550   31.0110   42.5960 C   0  0  0  0  0  0  0  0  0  0  0  0
   48.7220   31.8850   41.4260 C   0  0  2  0  0  0  0  0  0  0  0  0
   50.5740   33.2190   43.1440 H   0  0  0  0  0  0  0  0  0  0  0  0
   51.2280   34.0320   41.7020 H   0  0  0  0  0  0  0  0  0  0  0  0
   51.3870   31.6140   40.6590 H   0  0  0  0  0  0  0  0  0  0  0  0
   52.3590   31.9350   42.0920 H   0  0  0  0  0  0  0  0  0  0  0  0
   51.0010   30.8750   43.6120 H   0  0  0  0  0  0  0  0  0  0  0  0
   50.9370   29.7850   42.2130 H   0  0  0  0  0  0  0  0  0  0  0  0
   48.8510   31.5730   43.5010 H   0  0  0  0  0  0  0  0  0  0  0  0
   48.5700   30.0660   42.4800 H   0  0  0  0  0  0  0  0  0  0  0  0
   47.6310   32.0290   41.5930 H   0  0  0  0  0  0  0  0  0  0  0  0
   47.1620   34.5550   42.0110 C   0  0  1  0  0  0  0  0  0  0  0  0
   48.2850   35.4580   41.7150 C   0  0  0  0  0  0  0  0  0  0  0  0
   48.5660   34.1190   42.2860 C   0  0  2  0  0  0  0  0  0  0  0  0
   46.6810   34.0810   41.1330 H   0  0  0  0  0  0  0  0  0  0  0  0
   48.4030   36.3590   42.3650 H   0  0  0  0  0  0  0  0  0  0  0  0
   48.5520   35.6860   40.6460 H   0  0  0  0  0  0  0  0  0  0  0  0
   48.8560   34.1330   43.3770 H   0  0  0  0  0  0  0  0  0  0  0  0
   45.4930   36.0300   43.1790 C   0  0  0  0  0  0  0  0  0  0  0  0
   46.2640   34.8510   43.1590 C   0  0  0  0  0  0  0  0  0  0  0  0
   46.1470   33.9680   44.2450 C   0  0  0  0  0  0  0  0  0  0  0  0
   45.3010   34.2980   45.2560 N   0  0  0  0  0  0  0  0  0  0  0  0
   44.5730   35.4450   45.2410 C   0  0  0  0  0  0  0  0  0  0  0  0
   44.6640   36.3230   44.1990 N   0  0  0  0  0  0  0  0  0  0  0  0
   45.6270   36.6650   42.3150 H   0  0  0  0  0  0  0  0  0  0  0  0
   46.7280   33.0500   44.2600 H   0  0  0  0  0  0  0  0  0  0  0  0
   43.9000   35.7090   46.0430 H   0  0  0  0  0  0  0  0  0  0  0  0
   48.8920   31.1930   40.1430 C   0  0  0  0  0  0  0  0  0  0  0  0
   48.8410   29.9180   39.8020 C   0  0  0  0  0  0  0  0  0  0  0  0
   48.6400   29.1820   40.5670 H   0  0  0  0  0  0  0  0  0  0  0  0
   49.0430   29.5550   38.4990 C   0  0  0  0  0  3  0  0  0  0  0  0
   49.2950   30.5520   37.5790 C   0  0  0  0  0  3  0  0  0  0  0  0
   49.2560   32.1620   38.5860 S   0  0  0  0  0  0  0  0  0  0  0  0
  1  2  1  1  0  0  0
  1 18  1  0  0  0  0
  2  7  1  0  0  0  0
  3  2  1  0  0  0  0
  3 10  1  0  0  0  0
  3  4  1  0  0  0  0
  4  5  1  0  0  0  0
  4 11  1  0  0  0  0
  5 13  1  0  0  0  0
  6  1  1  0  0  0  0
  6 15  1  1  0  0  0
  6  5  1  0  0  0  0
  8  2  1  0  0  0  0
  9  3  1  0  0  0  0
 12  4  1  0  0  0  0
 14  5  1  0  0  0  0
 16 19  1  6  0  0  0
 16 18  1  0  0  0  0
 16 24  1  0  0  0  0
 17 16  1  0  0  0  0
 17 18  1  0  0  0  0
 17 20  1  0  0  0  0
 18 22  1  1  0  0  0
 21 17  1  0  0  0  0
 23 28  1  0  0  0  0
 24 23  2  0  0  0  0
 24 25  1  0  0  0  0
 25 30  1  0  0  0  0
 25 26  2  0  0  0  0
 27 26  1  0  0  0  0
 27 31  1  0  0  0  0
 28 27  2  0  0  0  0
 29 23  1  0  0  0  0
 32  6  1  0  0  0  0
 33 32  2  0  0  0  0
 33 34  1  0  0  0  0
 35 33  1  0  0  0  0
 36 35  2  0  0  0  0
 36 37  1  0  0  0  0
 37 32  1  0  0  0  0
M  END
>  <minimizedAffinity>
-4.68903971

>  <minimizedRMSD>
0.200423747

$$$$
