
 OpenBabel03252508563D

 21 22  0  0  0  0  0  0  0  0999 V2000
   45.7930   35.0740   42.1600 C   0  0  0  0  0  0  0  0  0  0  0  0
   45.2480   34.8830   43.0850 H   0  0  0  0  0  0  0  0  0  0  0  0
   45.7640   36.1600   41.9810 H   0  0  0  0  0  0  0  0  0  0  0  0
   49.5650   35.1170   42.1030 C   0  0  0  0  0  0  0  0  0  0  0  0
   48.2120   35.5230   41.9590 C   0  0  0  0  0  0  0  0  0  0  0  0
   47.2010   34.6420   42.3120 C   0  0  0  0  0  0  0  0  0  0  0  0
   47.5720   33.4260   42.7820 N   0  0  0  0  0  0  0  0  0  0  0  0
   48.8540   33.0560   42.9120 C   0  0  0  0  0  0  0  0  0  0  0  0
   49.8380   33.8960   42.5750 N   0  0  0  0  0  0  0  0  0  0  0  0
   50.3220   35.8380   41.8140 H   0  0  0  0  0  0  0  0  0  0  0  0
   47.9210   36.5040   41.5800 H   0  0  0  0  0  0  0  0  0  0  0  0
   49.0810   32.0670   43.2940 H   0  0  0  0  0  0  0  0  0  0  0  0
   45.1830   34.3460   40.9850 C   0  0  0  0  0  0  0  0  0  0  0  0
   45.2120   33.2450   41.2330 H   0  0  0  0  0  0  0  0  0  0  0  0
   45.7410   34.4710   40.0600 H   0  0  0  0  0  0  0  0  0  0  0  0
   43.7600   34.6800   40.8390 C   0  0  0  0  0  0  0  0  0  0  0  0
   42.8950   35.3020   41.7080 C   0  0  0  0  0  0  0  0  0  0  0  0
   43.2880   35.6110   42.6630 H   0  0  0  0  0  0  0  0  0  0  0  0
   41.6020   35.5030   41.3470 C   0  0  0  0  0  3  0  0  0  0  0  0
   41.2490   35.0200   40.0160 C   0  0  0  0  0  3  0  0  0  0  0  0
   42.8550   34.3040   39.4020 S   0  0  0  0  0  0  0  0  0  0  0  0
  1  6  1  0  0  0  0
  1  2  1  0  0  0  0
  3  1  1  0  0  0  0
  4  9  1  0  0  0  0
  5  4  2  0  0  0  0
  5  6  1  0  0  0  0
  6  7  2  0  0  0  0
  7  8  1  0  0  0  0
  8 12  1  0  0  0  0
  9  8  2  0  0  0  0
 10  4  1  0  0  0  0
 11  5  1  0  0  0  0
 13 14  1  0  0  0  0
 13  1  1  0  0  0  0
 15 13  1  0  0  0  0
 16 13  1  0  0  0  0
 16 17  2  0  0  0  0
 17 18  1  0  0  0  0
 19 17  1  0  0  0  0
 20 19  2  0  0  0  0
 21 20  1  0  0  0  0
 21 16  1  0  0  0  0
M  END
>  <minimizedAffinity>
-3.64903951

>  <minimizedRMSD>
5.52183771

$$$$
