
 OpenBabel03252501473D

 30 32  0  0  0  0  0  0  0  0999 V2000
   44.1230   33.5150   40.6410 C   0  0  0  0  0  0  0  0  0  0  0  0
   44.4430   34.6660   41.3790 C   0  0  0  0  0  0  0  0  0  0  0  0
   43.4680   35.6780   41.5250 C   0  0  0  0  0  0  0  0  0  0  0  0
   42.2550   35.4750   40.9320 N   0  0  0  0  0  0  0  0  0  0  0  0
   41.9920   34.3540   40.2330 C   0  0  0  0  0  0  0  0  0  0  0  0
   42.9170   33.4100   40.1020 N   0  0  0  0  0  0  0  0  0  0  0  0
   44.8930   32.7720   40.5550 H   0  0  0  0  0  0  0  0  0  0  0  0
   43.6850   36.5660   42.0830 H   0  0  0  0  0  0  0  0  0  0  0  0
   39.7880   33.5980   41.7270 F   0  0  0  0  0  0  0  0  0  0  0  0
   39.5880   33.8180   40.3980 C   0  0  0  0  0  0  0  0  0  0  0  0
   40.6720   34.1990   39.6210 C   0  0  0  0  0  0  0  0  0  0  0  0
   40.5390   34.4370   38.2790 C   0  0  0  0  0  0  0  0  0  0  0  0
   39.2800   34.2880   37.7060 C   0  0  0  0  0  0  0  0  0  0  0  0
   38.1730   33.9050   38.4690 C   0  0  0  0  0  0  0  0  0  0  0  0
   38.3440   33.6690   39.8400 C   0  0  0  0  0  0  0  0  0  0  0  0
   41.3720   34.7390   37.6340 H   0  0  0  0  0  0  0  0  0  0  0  0
   39.1070   34.4600   36.6490 H   0  0  0  0  0  0  0  0  0  0  0  0
   37.1870   33.7820   38.0470 H   0  0  0  0  0  0  0  0  0  0  0  0
   37.5080   33.3690   40.4780 H   0  0  0  0  0  0  0  0  0  0  0  0
   45.7530   34.8570   42.0040 C   0  0  0  0  0  0  0  0  0  0  0  0
   46.9020   34.8190   41.3200 C   0  0  0  0  0  0  0  0  0  0  0  0
   48.1960   35.0300   42.0730 C   0  0  0  0  0  0  0  0  0  0  0  0
   48.5980   36.0180   41.7160 H   0  0  0  0  0  0  0  0  0  0  0  0
   48.0020   35.1460   43.1380 H   0  0  0  0  0  0  0  0  0  0  0  0
   49.1840   34.0120   41.8470 C   0  0  0  0  0  0  0  0  0  0  0  0
   50.3970   33.8140   42.4260 C   0  0  0  0  0  0  0  0  0  0  0  0
   50.7480   34.4890   43.1910 H   0  0  0  0  0  0  0  0  0  0  0  0
   51.1850   32.7580   42.0470 C   0  0  0  0  0  0  0  0  0  0  0  0
   50.6600   31.9010   41.0280 C   0  0  0  0  0  0  0  0  0  0  0  0
   48.9820   32.6520   40.6160 S   0  0  0  0  0  0  0  0  0  0  0  0
  1  2  1  0  0  0  0
  2  3  2  0  0  0  0
  2 20  1  0  0  0  0
  3  8  1  0  0  0  0
  4  3  1  0  0  0  0
  5  4  2  0  0  0  0
  6  5  1  0  0  0  0
  6  1  2  0  0  0  0
  7  1  1  0  0  0  0
 10  9  1  0  0  0  0
 11  5  1  0  0  0  0
 11 10  2  0  0  0  0
 12 11  1  0  0  0  0
 13 12  2  0  0  0  0
 13 14  1  0  0  0  0
 14 15  2  0  0  0  0
 15 10  1  0  0  0  0
 15 19  1  0  0  0  0
 16 12  1  0  0  0  0
 17 13  1  0  0  0  0
 18 14  1  0  0  0  0
 21 20  2  0  0  0  0
 21 22  1  0  0  0  0
 22 24  1  0  0  0  0
 23 22  1  0  0  0  0
 25 22  1  0  0  0  0
 25 26  2  0  0  0  0
 26 27  1  0  0  0  0
 28 26  1  0  0  0  0
 29 28  2  0  0  0  0
 30 29  1  0  0  0  0
 30 25  1  0  0  0  0
M  END
>  <minimizedAffinity>
-6.09572601

>  <minimizedRMSD>
0.809273005

$$$$
