
 OpenBabel03252509233D

 24 26  0  0  1  0  0  0  0  0999 V2000
   46.5670   35.0600   41.9220 C   0  0  1  0  0  0  0  0  0  0  0  0
   48.0990   35.3060   41.9110 C   0  0  0  0  0  0  0  0  0  0  0  0
   47.3740   34.0620   41.3150 C   0  0  2  0  0  0  0  0  0  0  0  0
   45.9970   35.8400   41.3870 H   0  0  0  0  0  0  0  0  0  0  0  0
   48.4170   36.0590   41.1710 H   0  0  0  0  0  0  0  0  0  0  0  0
   48.6690   35.1950   42.8280 H   0  0  0  0  0  0  0  0  0  0  0  0
   47.6130   33.1470   41.9060 H   0  0  0  0  0  0  0  0  0  0  0  0
   44.6850   35.3460   45.1520 C   0  0  0  0  0  0  0  0  0  0  0  0
   45.1310   35.6820   43.8310 C   0  0  0  0  0  0  0  0  0  0  0  0
   46.0840   34.8280   43.3410 C   0  0  0  0  0  0  0  0  0  0  0  0
   46.5560   33.7520   44.0740 N   0  0  0  0  0  0  0  0  0  0  0  0
   46.0980   33.4930   45.3040 C   0  0  0  0  0  0  0  0  0  0  0  0
   45.1500   34.3000   45.8490 N   0  0  0  0  0  0  0  0  0  0  0  0
   43.9410   35.9740   45.5890 H   0  0  0  0  0  0  0  0  0  0  0  0
   46.5970   32.6150   45.6890 H   0  0  0  0  0  0  0  0  0  0  0  0
   44.6440   36.8000   43.1110 N   0  0  0  0  0  0  0  0  0  0  0  0
   45.1140   37.6470   43.5280 H   0  0  0  0  0  0  0  0  0  0  0  0
   43.9570   36.8200   42.3210 H   0  0  0  0  0  0  0  0  0  0  0  0
   47.3680   33.9190   39.8640 C   0  0  0  0  0  0  0  0  0  0  0  0
   48.1950   34.3080   38.8680 C   0  0  0  0  0  0  0  0  0  0  0  0
   49.0740   34.8520   39.1740 H   0  0  0  0  0  0  0  0  0  0  0  0
   47.8840   34.0000   37.5650 C   0  0  0  0  0  3  0  0  0  0  0  0
   46.6890   33.2810   37.3560 C   0  0  0  0  0  3  0  0  0  0  0  0
   46.0200   33.0510   39.0430 S   0  0  0  0  0  0  0  0  0  0  0  0
  1  4  1  6  0  0  0
  1 10  1  0  0  0  0
  2  1  1  0  0  0  0
  2  6  1  0  0  0  0
  3  7  1  1  0  0  0
  3  2  1  0  0  0  0
  3  1  1  0  0  0  0
  5  2  1  0  0  0  0
  8 14  1  0  0  0  0
  8 13  1  0  0  0  0
  9  8  2  0  0  0  0
 10  9  1  0  0  0  0
 10 11  2  0  0  0  0
 11 12  1  0  0  0  0
 12 15  1  0  0  0  0
 12 13  2  0  0  0  0
 16 17  1  0  0  0  0
 16  9  1  0  0  0  0
 18 16  1  0  0  0  0
 19  3  1  0  0  0  0
 20 21  1  0  0  0  0
 20 19  2  0  0  0  0
 22 20  1  0  0  0  0
 23 22  2  0  0  0  0
 23 24  1  0  0  0  0
 24 19  1  0  0  0  0
M  END
>  <minimizedAffinity>
-5.10163975

>  <minimizedRMSD>
0.220732957

$$$$
