
 OpenBabel03252504583D

 34 36  0  0  1  0  0  0  0  0999 V2000
   47.8760   33.9700   42.0030 N   0  0  0  0  0  0  0  0  0  0  0  0
   47.8590   34.8960   40.9330 C   0  0  0  0  0  0  0  0  0  0  0  0
   49.0220   35.7600   41.2410 C   0  0  0  0  0  0  0  0  0  0  0  0
   49.6980   35.2340   42.5000 C   0  0  0  0  0  0  0  0  0  0  0  0
   49.1530   33.7980   42.5590 C   0  0  2  0  0  0  0  0  0  0  0  0
   47.3160   35.1350   40.0570 H   0  0  0  0  0  0  0  0  0  0  0  0
   49.4200   36.6150   40.7180 H   0  0  0  0  0  0  0  0  0  0  0  0
   50.7780   35.2220   42.2820 H   0  0  0  0  0  0  0  0  0  0  0  0
   49.4000   35.8250   43.3690 H   0  0  0  0  0  0  0  0  0  0  0  0
   49.1280   33.3670   43.5540 H   0  0  0  0  0  0  0  0  0  0  0  0
   46.7030   33.3790   42.4090 C   0  0  0  0  0  0  0  0  0  0  0  0
   46.9410   32.3240   42.7080 H   0  0  0  0  0  0  0  0  0  0  0  0
   45.9520   33.2190   41.6030 H   0  0  0  0  0  0  0  0  0  0  0  0
   44.5930   35.7930   44.4230 C   0  0  0  0  0  0  0  0  0  0  0  0
   45.2640   35.2360   43.2890 C   0  0  0  0  0  0  0  0  0  0  0  0
   45.9970   34.0650   43.4720 C   0  0  0  0  0  0  0  0  0  0  0  0
   46.0240   33.5330   44.7130 N   0  0  0  0  0  0  0  0  0  0  0  0
   45.3720   34.0820   45.7950 C   0  0  0  0  0  0  0  0  0  0  0  0
   44.6630   35.2010   45.6470 N   0  0  0  0  0  0  0  0  0  0  0  0
   44.0530   36.7000   44.1770 H   0  0  0  0  0  0  0  0  0  0  0  0
   45.2180   35.6870   42.3300 H   0  0  0  0  0  0  0  0  0  0  0  0
   45.4280   33.6130   46.7600 H   0  0  0  0  0  0  0  0  0  0  0  0
   49.8990   33.0650   41.6230 O   0  0  0  0  0  0  0  0  0  0  0  0
   49.2770   30.9160   43.0550 O   0  0  0  0  0  0  0  0  0  0  0  0
   50.2770   31.5250   42.1040 P   0  0  2  0  0  0  0  0  0  0  0  0
   51.7640   31.5760   42.9230 O   0  0  0  0  0  0  0  0  0  0  0  0
   52.5060   31.6280   42.2640 H   0  0  0  0  0  0  0  0  0  0  0  0
   50.5240   30.4960   40.7570 O   0  0  0  0  0  0  0  0  0  0  0  0
   51.7710   30.4680   40.1600 C   0  0  0  0  0  0  0  0  0  0  0  0
   52.3540   31.3890   39.3050 C   0  0  0  0  0  0  0  0  0  0  0  0
   51.7850   32.2670   39.0460 H   0  0  0  0  0  0  0  0  0  0  0  0
   53.6060   31.1860   38.8130 C   0  0  0  0  0  0  0  0  0  0  0  0
   54.2660   29.9310   39.2600 C   0  0  0  0  0  0  0  0  0  0  0  0
   52.9680   29.1380   40.3880 S   0  0  0  0  0  0  0  0  0  0  0  0
  1 11  1  0  0  0  0
  1  5  1  0  0  0  0
  2  3  2  0  0  0  0
  2  1  1  0  0  0  0
  3  4  1  0  0  0  0
  4  5  1  0  0  0  0
  4  9  1  0  0  0  0
  5 10  1  1  0  0  0
  6  2  1  0  0  0  0
  7  3  1  0  0  0  0
  8  4  1  0  0  0  0
 11 12  1  0  0  0  0
 11 16  1  0  0  0  0
 13 11  1  0  0  0  0
 14 19  1  0  0  0  0
 15 16  1  0  0  0  0
 15 14  2  0  0  0  0
 16 17  2  0  0  0  0
 17 18  1  0  0  0  0
 18 22  1  0  0  0  0
 19 18  2  0  0  0  0
 20 14  1  0  0  0  0
 21 15  1  0  0  0  0
 23 25  1  0  0  0  0
 23  5  1  0  0  0  0
 25 26  1  0  0  0  0
 25 24  2  1  0  0  0
 27 26  1  0  0  0  0
 28 25  1  0  0  0  0
 29 34  1  0  0  0  0
 29 28  1  0  0  0  0
 30 29  2  0  0  0  0
 31 30  1  0  0  0  0
 32 33  2  0  0  0  0
 32 30  1  0  0  0  0
 33 34  1  0  0  0  0
M  END
>  <minimizedAffinity>
-4.96631432

>  <minimizedRMSD>
2.16645932

$$$$
