
 OpenBabel03252508463D

 42 44  0  0  0  0  0  0  0  0999 V2000
   43.0400   32.5250   41.6390 C   0  0  0  0  0  0  0  0  0  0  0  0
   42.1290   32.9630   41.1880 H   0  0  0  0  0  0  0  0  0  0  0  0
   43.6310   32.0890   40.7820 H   0  0  0  0  0  0  0  0  0  0  0  0
   43.6590   34.9400   41.8820 C   0  0  0  0  0  0  0  0  0  0  0  0
   43.9020   33.6140   42.1850 C   0  0  0  0  0  0  0  0  0  0  0  0
   44.9670   33.3090   43.0090 C   0  0  0  0  0  0  0  0  0  0  0  0
   45.7540   34.3150   43.5060 C   0  0  0  0  0  0  0  0  0  0  0  0
   45.5310   35.6420   43.2170 C   0  0  0  0  0  0  0  0  0  0  0  0
   44.4520   35.8970   42.3880 C   0  0  0  0  0  0  0  0  0  0  0  0
   45.2060   32.2900   43.2810 H   0  0  0  0  0  0  0  0  0  0  0  0
   46.5920   34.0820   44.1540 H   0  0  0  0  0  0  0  0  0  0  0  0
   46.0980   36.4740   43.5670 H   0  0  0  0  0  0  0  0  0  0  0  0
   44.2010   36.9110   42.1070 H   0  0  0  0  0  0  0  0  0  0  0  0
   40.2300   35.8010   40.5260 C   0  0  0  0  0  0  0  0  0  0  0  0
   41.2600   35.5800   41.4560 C   0  0  0  0  0  0  0  0  0  0  0  0
   42.5160   35.1950   41.0040 C   0  0  0  0  0  0  0  0  0  0  0  0
   42.6800   35.0500   39.6600 N   0  0  0  0  0  0  0  0  0  0  0  0
   41.6790   35.2660   38.7790 C   0  0  0  0  0  0  0  0  0  0  0  0
   40.4560   35.6410   39.2220 N   0  0  0  0  0  0  0  0  0  0  0  0
   39.2720   36.0970   40.8930 H   0  0  0  0  0  0  0  0  0  0  0  0
   41.1280   35.6970   42.5220 H   0  0  0  0  0  0  0  0  0  0  0  0
   41.9490   35.1130   37.7480 H   0  0  0  0  0  0  0  0  0  0  0  0
   42.6920   31.5030   42.5690 N   0  0  0  0  0  0  0  0  0  0  0  0
   43.0170   31.6520   43.5420 H   0  0  0  0  0  0  0  0  0  0  0  0
   41.0250   31.1470   42.5600 S   0  0  0  0  0  0  0  0  0  0  0  0
   40.1950   32.4060   42.4650 O   0  0  0  0  0  0  0  0  0  0  0  0
   39.8900   32.8350   43.3220 H   0  0  0  0  0  0  0  0  0  0  0  0
   40.6270   30.3780   43.7740 O   0  0  0  0  0  0  0  0  0  0  0  0
   39.7900   30.4730   44.2920 H   0  0  0  0  0  0  0  0  0  0  0  0
   40.7020   30.2160   41.1980 O   0  0  0  0  0  0  0  0  0  0  0  0
   39.9290   29.1360   41.5840 C   0  0  0  0  0  0  0  0  0  0  0  0
   39.0100   29.1600   40.9940 H   0  0  0  0  0  0  0  0  0  0  0  0
   39.6710   29.0990   42.6510 H   0  0  0  0  0  0  0  0  0  0  0  0
   40.6700   27.8380   41.3010 C   0  0  0  0  0  0  0  0  0  0  0  0
   41.6110   27.7770   41.8890 H   0  0  0  0  0  0  0  0  0  0  0  0
   40.8610   27.7680   40.2070 H   0  0  0  0  0  0  0  0  0  0  0  0
   39.7900   26.6630   41.6010 C   0  0  0  0  0  0  0  0  0  0  0  0
   38.4710   26.4260   41.1170 C   0  0  0  0  0  0  0  0  0  0  0  0
   38.0380   27.1600   40.4650 H   0  0  0  0  0  0  0  0  0  0  0  0
   37.8770   25.2780   41.5300 C   0  0  0  0  0  3  0  0  0  0  0  0
   38.5410   24.3710   42.3980 C   0  0  0  0  0  3  0  0  0  0  0  0
   40.1800   25.2160   42.6660 S   0  0  0  0  0  0  0  0  0  0  0  0
  1  5  1  0  0  0  0
  1 23  1  0  0  0  0
  2  1  1  0  0  0  0
  3  1  1  0  0  0  0
  4  5  2  0  0  0  0
  4  9  1  0  0  0  0
  5  6  1  0  0  0  0
  6 10  1  0  0  0  0
  6  7  2  0  0  0  0
  7 11  1  0  0  0  0
  8  7  1  0  0  0  0
  8 12  1  0  0  0  0
  9  8  2  0  0  0  0
 13  9  1  0  0  0  0
 14 20  1  0  0  0  0
 14 15  1  0  0  0  0
 15 21  1  0  0  0  0
 16 15  2  0  0  0  0
 16  4  1  0  0  0  0
 17 16  1  0  0  0  0
 18 19  1  0  0  0  0
 18 17  2  0  0  0  0
 19 14  2  0  0  0  0
 22 18  1  0  0  0  0
 23 24  1  0  0  0  0
 25 23  1  0  0  0  0
 25 28  1  0  0  0  0
 26 25  1  0  0  0  0
 26 27  1  0  0  0  0
 28 29  1  0  0  0  0
 30 31  1  0  0  0  0
 30 25  1  0  0  0  0
 31 33  1  0  0  0  0
 32 31  1  0  0  0  0
 34 31  1  0  0  0  0
 34 37  1  0  0  0  0
 34 35  1  0  0  0  0
 36 34  1  0  0  0  0
 37 42  1  0  0  0  0
 38 40  1  0  0  0  0
 38 37  2  0  0  0  0
 39 38  1  0  0  0  0
 40 41  2  0  0  0  0
 41 42  1  0  0  0  0
M  END
>  <minimizedAffinity>
-4.96774292

>  <minimizedRMSD>
0.320379615

$$$$
