
 OpenBabel03252509163D

 22 24  0  0  0  0  0  0  0  0999 V2000
   46.0650   32.9060   45.9510 C   0  0  0  0  0  0  0  0  0  0  0  0
   45.7190   32.6600   47.3030 C   0  0  0  0  0  0  0  0  0  0  0  0
   46.1840   31.5490   47.9100 C   0  0  0  0  0  0  0  0  0  0  0  0
   47.0060   30.6630   47.1750 C   0  0  0  0  0  0  0  0  0  0  0  0
   47.1010   31.4770   45.5470 S   0  0  0  0  0  0  0  0  0  0  0  0
   45.0840   33.3690   47.8310 H   0  0  0  0  0  0  0  0  0  0  0  0
   45.9840   31.2700   48.9200 H   0  0  0  0  0  0  0  0  0  0  0  0
   44.4620   36.0320   44.7550 C   0  0  0  0  0  0  0  0  0  0  0  0
   45.0300   36.1110   43.4560 C   0  0  0  0  0  0  0  0  0  0  0  0
   45.9260   35.0970   43.0630 C   0  0  0  0  0  0  0  0  0  0  0  0
   46.1950   34.0950   43.9580 N   0  0  0  0  0  0  0  0  0  0  0  0
   45.6230   34.0720   45.1850 C   0  0  0  0  0  0  0  0  0  0  0  0
   44.7570   35.0380   45.5850 N   0  0  0  0  0  0  0  0  0  0  0  0
   43.7770   36.8100   45.0520 H   0  0  0  0  0  0  0  0  0  0  0  0
   44.8070   36.9110   42.7580 H   0  0  0  0  0  0  0  0  0  0  0  0
   46.4030   35.0800   42.0920 H   0  0  0  0  0  0  0  0  0  0  0  0
   47.6200   29.4900   47.4790 C   0  0  0  0  0  0  0  0  0  0  0  0
   48.8180   29.1930   48.0170 C   0  0  0  0  0  0  0  0  0  0  0  0
   49.4770   30.0060   48.2850 H   0  0  0  0  0  0  0  0  0  0  0  0
   49.2320   27.9140   48.2380 C   0  0  0  0  0  3  0  0  0  0  0  0
   48.2640   26.8410   47.8420 C   0  0  0  0  0  3  0  0  0  0  0  0
   46.8220   27.8350   47.1760 S   0  0  0  0  0  0  0  0  0  0  0  0
  1  2  2  0  0  0  0
  2  6  1  0  0  0  0
  2  3  1  0  0  0  0
  3  7  1  0  0  0  0
  4 17  1  0  0  0  0
  4  3  2  0  0  0  0
  5  1  1  0  0  0  0
  5  4  1  0  0  0  0
  8 14  1  0  0  0  0
  8 13  1  0  0  0  0
  9  8  2  0  0  0  0
 10  9  1  0  0  0  0
 10 11  2  0  0  0  0
 11 12  1  0  0  0  0
 12 13  2  0  0  0  0
 12  1  1  0  0  0  0
 15  9  1  0  0  0  0
 16 10  1  0  0  0  0
 17 18  2  0  0  0  0
 18 20  1  0  0  0  0
 18 19  1  0  0  0  0
 21 20  2  0  0  0  0
 22 17  1  0  0  0  0
 22 21  1  0  0  0  0
M  END
>  <minimizedAffinity>
-4.41373825

>  <minimizedRMSD>
1.40680158

$$$$
