
 OpenBabel03242511223D

 36 39  0  0  1  0  0  0  0  0999 V2000
   36.6480   28.3580   39.2100 C   0  0  0  0  0  0  0  0  0  0  0  0
   36.6710   28.5400   40.4880 C   0  0  0  0  0  0  0  0  0  0  0  0
   37.1250   27.5430   41.3740 N   0  0  0  0  0  0  0  0  0  0  0  0
   36.8810   26.8040   42.5870 C   0  0  0  0  0  0  0  0  0  0  0  0
   36.2670   27.0300   43.6800 O   0  0  0  0  0  0  0  0  0  0  0  0
   37.6770   25.7030   41.9240 C   0  0  0  0  0  0  0  0  0  0  0  0
   38.3780   26.8050   41.1520 C   0  0  1  0  0  0  0  0  0  0  0  0
   38.6050   26.5400   39.3970 S   0  0  0  0  0  0  0  0  0  0  0  0
   37.0910   27.0950   38.5540 C   0  0  0  0  0  0  0  0  0  0  0  0
   38.3030   25.1270   42.6040 H   0  0  0  0  0  0  0  0  0  0  0  0
   36.9920   25.1390   41.2690 H   0  0  0  0  0  0  0  0  0  0  0  0
   39.2210   27.2620   41.6950 H   0  0  0  0  0  0  0  0  0  0  0  0
   36.2920   26.3070   38.6610 H   0  0  0  0  0  0  0  0  0  0  0  0
   37.3630   27.2190   37.5020 H   0  0  0  0  0  0  0  0  0  0  0  0
   36.1770   29.3970   38.3130 C   0  0  0  0  0  0  0  0  0  0  0  0
   35.4360   30.0960   38.6870 H   0  0  0  0  0  0  0  0  0  0  0  0
   35.7120   28.8800   37.4280 H   0  0  0  0  0  0  0  0  0  0  0  0
   37.6070   30.3000   37.5770 S   0  0  0  0  0  0  0  0  0  0  0  0
   37.7670   33.6610   39.8410 C   0  0  0  0  0  0  0  0  0  0  0  0
   37.3440   32.7050   38.8810 C   0  0  0  0  0  0  0  0  0  0  0  0
   38.1090   31.5140   38.7670 C   0  0  0  0  0  0  0  0  0  0  0  0
   39.1890   31.3650   39.5760 N   0  0  0  0  0  0  0  0  0  0  0  0
   39.5400   32.2960   40.4590 C   0  0  0  0  0  0  0  0  0  0  0  0
   38.8560   33.4370   40.6100 N   0  0  0  0  0  0  0  0  0  0  0  0
   37.1880   34.5700   39.9330 H   0  0  0  0  0  0  0  0  0  0  0  0
   36.4890   32.8780   38.2770 H   0  0  0  0  0  0  0  0  0  0  0  0
   40.7200   32.0460   41.2870 C   0  0  0  0  0  0  0  0  0  0  0  0
   40.8340   31.1830   42.3460 C   0  0  0  0  0  0  0  0  0  0  0  0
   39.9830   30.5920   42.6500 H   0  0  0  0  0  0  0  0  0  0  0  0
   42.0270   31.0840   43.0060 C   0  0  0  0  0  3  0  0  0  0  0  0
   43.1030   31.8680   42.5790 C   0  0  0  0  0  3  0  0  0  0  0  0
   42.3750   32.8190   41.1380 S   0  0  0  0  0  0  0  0  0  0  0  0
   36.2120   29.8220   41.0310 C   0  0  0  0  0  0  0  0  0  0  0  0
   36.8290   30.5000   41.9240 O   0  0  0  0  0  0  0  0  0  0  0  0
   35.5370   30.9740   41.3350 O   0  0  0  0  0  0  0  0  0  0  0  0
   34.8150   31.4220   40.8250 H   0  0  0  0  0  0  0  0  0  0  0  0
  1  2  2  0  0  0  0
  2 33  1  0  0  0  0
  2  3  1  0  0  0  0
  3  4  1  0  0  0  0
  4  5  2  0  0  0  0
  6  4  1  0  0  0  0
  6 10  1  0  0  0  0
  7  3  1  0  0  0  0
  7 12  1  1  0  0  0
  7  6  1  0  0  0  0
  8  7  1  0  0  0  0
  9 13  1  0  0  0  0
  9  1  1  0  0  0  0
  9  8  1  0  0  0  0
 11  6  1  0  0  0  0
 14  9  1  0  0  0  0
 15 16  1  0  0  0  0
 15  1  1  0  0  0  0
 17 15  1  0  0  0  0
 18 15  1  0  0  0  0
 18 21  1  0  0  0  0
 19 25  1  0  0  0  0
 19 24  1  0  0  0  0
 20 19  2  0  0  0  0
 21 20  1  0  0  0  0
 21 22  2  0  0  0  0
 22 23  1  0  0  0  0
 23 24  2  0  0  0  0
 23 27  1  0  0  0  0
 26 20  1  0  0  0  0
 27 28  2  0  0  0  0
 28 29  1  0  0  0  0
 28 30  1  0  0  0  0
 31 30  2  0  0  0  0
 32 27  1  0  0  0  0
 32 31  1  0  0  0  0
 33 35  1  0  0  0  0
 33 34  2  0  0  0  0
 36 35  1  0  0  0  0
M  END
>  <minimizedAffinity>
-5.78673792

$$$$

 OpenBabel03242511223D

 36 39  0  0  1  0  0  0  0  0999 V2000
   38.8030   29.9420   42.2900 C   0  0  0  0  0  0  0  0  0  0  0  0
   38.3600   30.7830   41.4170 C   0  0  0  0  0  0  0  0  0  0  0  0
   39.2260   31.5910   40.6550 N   0  0  0  0  0  0  0  0  0  0  0  0
   39.5230   32.9130   40.1630 C   0  0  0  0  0  0  0  0  0  0  0  0
   38.8400   33.9500   39.8780 O   0  0  0  0  0  0  0  0  0  0  0  0
   40.9630   32.4510   40.1650 C   0  0  0  0  0  0  0  0  0  0  0  0
   40.4130   31.0490   39.9750 C   0  0  1  0  0  0  0  0  0  0  0  0
   41.1330   29.7580   40.9830 S   0  0  0  0  0  0  0  0  0  0  0  0
   40.2530   29.7450   42.5760 C   0  0  0  0  0  0  0  0  0  0  0  0
   41.5630   32.8410   39.3440 H   0  0  0  0  0  0  0  0  0  0  0  0
   41.3570   32.5830   41.1860 H   0  0  0  0  0  0  0  0  0  0  0  0
   40.1990   30.7940   38.9240 H   0  0  0  0  0  0  0  0  0  0  0  0
   40.6340   30.5860   43.2220 H   0  0  0  0  0  0  0  0  0  0  0  0
   40.4830   28.7800   43.0350 H   0  0  0  0  0  0  0  0  0  0  0  0
   37.8950   29.1170   43.0650 C   0  0  0  0  0  0  0  0  0  0  0  0
   36.8320   29.2040   42.8680 H   0  0  0  0  0  0  0  0  0  0  0  0
   38.0440   29.3940   44.1460 H   0  0  0  0  0  0  0  0  0  0  0  0
   38.4250   27.3510   43.0010 S   0  0  0  0  0  0  0  0  0  0  0  0
   36.7400   24.6510   40.4870 C   0  0  0  0  0  0  0  0  0  0  0  0
   37.4120   25.2120   41.6050 C   0  0  0  0  0  0  0  0  0  0  0  0
   37.5900   26.6200   41.6190 C   0  0  0  0  0  0  0  0  0  0  0  0
   37.1120   27.3380   40.5700 N   0  0  0  0  0  0  0  0  0  0  0  0
   36.4900   26.7590   39.5470 C   0  0  0  0  0  0  0  0  0  0  0  0
   36.2930   25.4360   39.4810 N   0  0  0  0  0  0  0  0  0  0  0  0
   36.6010   23.5790   40.4720 H   0  0  0  0  0  0  0  0  0  0  0  0
   37.7630   24.5980   42.3960 H   0  0  0  0  0  0  0  0  0  0  0  0
   36.0080   27.6150   38.4630 C   0  0  0  0  0  0  0  0  0  0  0  0
   34.8290   28.3090   38.4020 C   0  0  0  0  0  0  0  0  0  0  0  0
   34.1310   28.2540   39.2250 H   0  0  0  0  0  0  0  0  0  0  0  0
   34.5480   29.0640   37.2970 C   0  0  0  0  0  3  0  0  0  0  0  0
   35.4790   29.1060   36.2540 C   0  0  0  0  0  3  0  0  0  0  0  0
   36.8530   27.9970   36.8820 S   0  0  0  0  0  0  0  0  0  0  0  0
   36.9120   30.8980   41.2140 C   0  0  0  0  0  0  0  0  0  0  0  0
   36.3420   31.0100   40.0740 O   0  0  0  0  0  0  0  0  0  0  0  0
   35.5530   30.9870   41.3460 O   0  0  0  0  0  0  0  0  0  0  0  0
   34.9890   30.7590   42.1290 H   0  0  0  0  0  0  0  0  0  0  0  0
  1  9  1  0  0  0  0
  1 15  1  0  0  0  0
  2  1  2  0  0  0  0
  3  2  1  0  0  0  0
  4  6  1  0  0  0  0
  4  3  1  0  0  0  0
  5  4  2  0  0  0  0
  6 11  1  0  0  0  0
  7 12  1  6  0  0  0
  7  6  1  0  0  0  0
  7  3  1  0  0  0  0
  7  8  1  0  0  0  0
  8  9  1  0  0  0  0
  9 14  1  0  0  0  0
  9 13  1  0  0  0  0
 10  6  1  0  0  0  0
 15 17  1  0  0  0  0
 16 15  1  0  0  0  0
 18 15  1  0  0  0  0
 19 20  1  0  0  0  0
 20 21  2  0  0  0  0
 20 26  1  0  0  0  0
 21 18  1  0  0  0  0
 22 21  1  0  0  0  0
 23 22  2  0  0  0  0
 24 23  1  0  0  0  0
 24 19  2  0  0  0  0
 25 19  1  0  0  0  0
 27 23  1  0  0  0  0
 28 27  2  0  0  0  0
 28 29  1  0  0  0  0
 30 28  1  0  0  0  0
 31 32  1  0  0  0  0
 31 30  2  0  0  0  0
 32 27  1  0  0  0  0
 33 35  1  0  0  0  0
 33  2  1  0  0  0  0
 34 33  2  0  0  0  0
 35 36  1  0  0  0  0
M  END
>  <minimizedAffinity>
-5.56572008

$$$$

 OpenBabel03242511223D

 36 39  0  0  1  0  0  0  0  0999 V2000
   37.6700   31.8730   38.8330 C   0  0  0  0  0  0  0  0  0  0  0  0
   37.1790   30.7180   39.1360 C   0  0  0  0  0  0  0  0  0  0  0  0
   37.4930   29.5590   38.3990 N   0  0  0  0  0  0  0  0  0  0  0  0
   36.9990   28.3750   37.7410 C   0  0  0  0  0  0  0  0  0  0  0  0
   35.9920   27.6090   37.8880 O   0  0  0  0  0  0  0  0  0  0  0  0
   38.2150   28.5170   36.8540 C   0  0  0  0  0  0  0  0  0  0  0  0
   38.8740   29.2110   38.0310 C   0  0  1  0  0  0  0  0  0  0  0  0
   39.7850   30.7100   37.6740 S   0  0  0  0  0  0  0  0  0  0  0  0
   38.6020   32.0930   37.6910 C   0  0  0  0  0  0  0  0  0  0  0  0
   38.6620   27.5720   36.5480 H   0  0  0  0  0  0  0  0  0  0  0  0
   37.9680   29.2400   36.0590 H   0  0  0  0  0  0  0  0  0  0  0  0
   39.3290   28.5190   38.7580 H   0  0  0  0  0  0  0  0  0  0  0  0
   38.0260   32.1060   36.7230 H   0  0  0  0  0  0  0  0  0  0  0  0
   39.2060   33.0000   37.7860 H   0  0  0  0  0  0  0  0  0  0  0  0
   37.3350   33.0550   39.6040 C   0  0  0  0  0  0  0  0  0  0  0  0
   36.6410   32.9460   40.4320 H   0  0  0  0  0  0  0  0  0  0  0  0
   36.8680   33.7900   38.8910 H   0  0  0  0  0  0  0  0  0  0  0  0
   38.8710   33.9130   40.1560 S   0  0  0  0  0  0  0  0  0  0  0  0
   42.1280   31.8670   41.4430 C   0  0  0  0  0  0  0  0  0  0  0  0
   41.3170   32.8730   40.8530 C   0  0  0  0  0  0  0  0  0  0  0  0
   39.9110   32.6770   40.8830 C   0  0  0  0  0  0  0  0  0  0  0  0
   39.4330   31.5480   41.4670 N   0  0  0  0  0  0  0  0  0  0  0  0
   40.2410   30.6380   42.0040 C   0  0  0  0  0  0  0  0  0  0  0  0
   41.5730   30.7710   42.0050 N   0  0  0  0  0  0  0  0  0  0  0  0
   43.2000   32.0120   41.4230 H   0  0  0  0  0  0  0  0  0  0  0  0
   41.7500   33.7350   40.4110 H   0  0  0  0  0  0  0  0  0  0  0  0
   39.6330   29.4540   42.6120 C   0  0  0  0  0  0  0  0  0  0  0  0
   38.3610   29.3230   43.1050 C   0  0  0  0  0  0  0  0  0  0  0  0
   37.6820   30.1620   43.0660 H   0  0  0  0  0  0  0  0  0  0  0  0
   37.9680   28.1290   43.6420 C   0  0  0  0  0  3  0  0  0  0  0  0
   38.8790   27.0690   43.6730 C   0  0  0  0  0  3  0  0  0  0  0  0
   40.4070   27.8150   42.8850 S   0  0  0  0  0  0  0  0  0  0  0  0
   36.2690   30.6110   40.2810 C   0  0  0  0  0  0  0  0  0  0  0  0
   35.6340   29.5510   40.6120 O   0  0  0  0  0  0  0  0  0  0  0  0
   35.4970   30.8210   41.3920 O   0  0  0  0  0  0  0  0  0  0  0  0
   35.5480   31.5600   42.0510 H   0  0  0  0  0  0  0  0  0  0  0  0
  1  2  2  0  0  0  0
  1 15  1  0  0  0  0
  2 33  1  0  0  0  0
  3  2  1  0  0  0  0
  4  5  2  0  0  0  0
  4  3  1  0  0  0  0
  6  4  1  0  0  0  0
  6  7  1  0  0  0  0
  7  3  1  0  0  0  0
  7 12  1  1  0  0  0
  8  9  1  0  0  0  0
  8  7  1  0  0  0  0
  9 14  1  0  0  0  0
  9  1  1  0  0  0  0
 10  6  1  0  0  0  0
 11  6  1  0  0  0  0
 13  9  1  0  0  0  0
 15 18  1  0  0  0  0
 15 16  1  0  0  0  0
 17 15  1  0  0  0  0
 18 21  1  0  0  0  0
 19 24  1  0  0  0  0
 20 21  1  0  0  0  0
 20 19  2  0  0  0  0
 21 22  2  0  0  0  0
 22 23  1  0  0  0  0
 23 24  2  0  0  0  0
 23 27  1  0  0  0  0
 25 19  1  0  0  0  0
 26 20  1  0  0  0  0
 27 32  1  0  0  0  0
 27 28  2  0  0  0  0
 28 30  1  0  0  0  0
 29 28  1  0  0  0  0
 30 31  2  0  0  0  0
 32 31  1  0  0  0  0
 33 34  2  0  0  0  0
 33 35  1  0  0  0  0
 35 36  1  0  0  0  0
M  END
>  <minimizedAffinity>
-5.48097134

$$$$

 OpenBabel03242511223D

 36 39  0  0  1  0  0  0  0  0999 V2000
   38.4180   30.6800   39.3570 C   0  0  0  0  0  0  0  0  0  0  0  0
   37.2240   30.1960   39.2690 C   0  0  0  0  0  0  0  0  0  0  0  0
   36.7960   29.4700   38.1400 N   0  0  0  0  0  0  0  0  0  0  0  0
   35.7670   29.2740   37.1500 C   0  0  0  0  0  0  0  0  0  0  0  0
   34.5060   29.4490   37.1060 O   0  0  0  0  0  0  0  0  0  0  0  0
   36.8920   28.7890   36.2640 C   0  0  0  0  0  0  0  0  0  0  0  0
   37.6030   28.3940   37.5450 C   0  0  1  0  0  0  0  0  0  0  0  0
   39.3370   28.8190   37.6660 S   0  0  0  0  0  0  0  0  0  0  0  0
   39.4460   30.5250   38.2880 C   0  0  0  0  0  0  0  0  0  0  0  0
   36.6200   27.9700   35.5990 H   0  0  0  0  0  0  0  0  0  0  0  0
   37.3650   29.6730   35.8080 H   0  0  0  0  0  0  0  0  0  0  0  0
   37.3090   27.4040   37.9300 H   0  0  0  0  0  0  0  0  0  0  0  0
   39.2350   31.2450   37.4470 H   0  0  0  0  0  0  0  0  0  0  0  0
   40.4720   30.6470   38.6450 H   0  0  0  0  0  0  0  0  0  0  0  0
   38.8410   31.4250   40.5280 C   0  0  0  0  0  0  0  0  0  0  0  0
   38.0770   31.9060   41.1310 H   0  0  0  0  0  0  0  0  0  0  0  0
   39.5260   32.2420   40.1670 H   0  0  0  0  0  0  0  0  0  0  0  0
   39.9380   30.3840   41.5830 S   0  0  0  0  0  0  0  0  0  0  0  0
   37.3430   28.0410   43.6380 C   0  0  0  0  0  0  0  0  0  0  0  0
   38.1090   29.1660   43.2320 C   0  0  0  0  0  0  0  0  0  0  0  0
   38.9690   28.9990   42.1150 C   0  0  0  0  0  0  0  0  0  0  0  0
   39.0060   27.7840   41.5090 N   0  0  0  0  0  0  0  0  0  0  0  0
   38.2650   26.7640   41.9340 C   0  0  0  0  0  0  0  0  0  0  0  0
   37.4370   26.8640   42.9810 N   0  0  0  0  0  0  0  0  0  0  0  0
   36.6860   28.1630   44.4890 H   0  0  0  0  0  0  0  0  0  0  0  0
   38.0360   30.0910   43.7460 H   0  0  0  0  0  0  0  0  0  0  0  0
   38.3730   25.4940   41.2170 C   0  0  0  0  0  0  0  0  0  0  0  0
   38.0590   24.2420   41.6760 C   0  0  0  0  0  0  0  0  0  0  0  0
   37.6820   24.1170   42.6800 H   0  0  0  0  0  0  0  0  0  0  0  0
   38.2280   23.1620   40.8530 C   0  0  0  0  0  3  0  0  0  0  0  0
   38.7190   23.3680   39.5600 C   0  0  0  0  0  3  0  0  0  0  0  0
   38.9610   25.2250   39.5020 S   0  0  0  0  0  0  0  0  0  0  0  0
   36.2900   30.4070   40.3790 C   0  0  0  0  0  0  0  0  0  0  0  0
   35.5220   29.5070   40.8680 O   0  0  0  0  0  0  0  0  0  0  0  0
   35.5320   30.9040   41.4050 O   0  0  0  0  0  0  0  0  0  0  0  0
   35.6630   31.7390   41.9240 H   0  0  0  0  0  0  0  0  0  0  0  0
  1 15  1  0  0  0  0
  2  1  2  0  0  0  0
  2 33  1  0  0  0  0
  3  2  1  0  0  0  0
  4  3  1  0  0  0  0
  5  4  2  0  0  0  0
  6  4  1  0  0  0  0
  6  7  1  0  0  0  0
  7  8  1  0  0  0  0
  7 12  1  1  0  0  0
  7  3  1  0  0  0  0
  8  9  1  0  0  0  0
  9 14  1  0  0  0  0
  9  1  1  0  0  0  0
 10  6  1  0  0  0  0
 11  6  1  0  0  0  0
 13  9  1  0  0  0  0
 15 16  1  0  0  0  0
 15 18  1  0  0  0  0
 17 15  1  0  0  0  0
 18 21  1  0  0  0  0
 19 25  1  0  0  0  0
 20 19  1  0  0  0  0
 20 26  1  0  0  0  0
 21 20  2  0  0  0  0
 22 23  2  0  0  0  0
 22 21  1  0  0  0  0
 23 24  1  0  0  0  0
 24 19  2  0  0  0  0
 27 28  2  0  0  0  0
 27 23  1  0  0  0  0
 28 29  1  0  0  0  0
 30 28  1  0  0  0  0
 31 30  2  0  0  0  0
 32 31  1  0  0  0  0
 32 27  1  0  0  0  0
 33 34  2  0  0  0  0
 33 35  1  0  0  0  0
 35 36  1  0  0  0  0
M  END
>  <minimizedAffinity>
-5.41646051

$$$$

 OpenBabel03242511223D

 36 39  0  0  1  0  0  0  0  0999 V2000
   38.3560   30.7170   39.1950 C   0  0  0  0  0  0  0  0  0  0  0  0
   38.8480   31.9030   39.3290 C   0  0  0  0  0  0  0  0  0  0  0  0
   40.2380   32.1340   39.3480 N   0  0  0  0  0  0  0  0  0  0  0  0
   41.3440   32.7910   39.9990 C   0  0  0  0  0  0  0  0  0  0  0  0
   41.4910   33.8520   40.6860 O   0  0  0  0  0  0  0  0  0  0  0  0
   42.1700   31.6390   39.4720 C   0  0  0  0  0  0  0  0  0  0  0  0
   41.1470   31.5410   38.3550 C   0  0  1  0  0  0  0  0  0  0  0  0
   40.5720   29.9000   37.9330 S   0  0  0  0  0  0  0  0  0  0  0  0
   39.1950   29.4930   39.0510 C   0  0  0  0  0  0  0  0  0  0  0  0
   43.1800   31.9110   39.1680 H   0  0  0  0  0  0  0  0  0  0  0  0
   42.0640   30.7990   40.1770 H   0  0  0  0  0  0  0  0  0  0  0  0
   41.3380   32.2280   37.5150 H   0  0  0  0  0  0  0  0  0  0  0  0
   39.6040   29.1890   40.0550 H   0  0  0  0  0  0  0  0  0  0  0  0
   38.6700   28.6540   38.5850 H   0  0  0  0  0  0  0  0  0  0  0  0
   36.9220   30.4980   39.1780 C   0  0  0  0  0  0  0  0  0  0  0  0
   36.5400   29.6600   38.6040 H   0  0  0  0  0  0  0  0  0  0  0  0
   36.4540   31.4250   38.7430 H   0  0  0  0  0  0  0  0  0  0  0  0
   36.2630   30.4570   40.9010 S   0  0  0  0  0  0  0  0  0  0  0  0
   38.2970   28.1580   43.5510 C   0  0  0  0  0  0  0  0  0  0  0  0
   37.6990   29.2860   42.9290 C   0  0  0  0  0  0  0  0  0  0  0  0
   37.0200   29.0690   41.7020 C   0  0  0  0  0  0  0  0  0  0  0  0
   36.9850   27.8080   41.2010 N   0  0  0  0  0  0  0  0  0  0  0  0
   37.5650   26.7870   41.8270 C   0  0  0  0  0  0  0  0  0  0  0  0
   38.2180   26.9320   42.9870 N   0  0  0  0  0  0  0  0  0  0  0  0
   38.8160   28.3170   44.4860 H   0  0  0  0  0  0  0  0  0  0  0  0
   37.7600   30.2490   43.3700 H   0  0  0  0  0  0  0  0  0  0  0  0
   37.4730   25.4630   41.2110 C   0  0  0  0  0  0  0  0  0  0  0  0
   36.5740   25.0370   40.2690 C   0  0  0  0  0  0  0  0  0  0  0  0
   35.8200   25.7160   39.9010 H   0  0  0  0  0  0  0  0  0  0  0  0
   36.6440   23.7510   39.8070 C   0  0  0  0  0  3  0  0  0  0  0  0
   37.6360   22.9050   40.3120 C   0  0  0  0  0  3  0  0  0  0  0  0
   38.5380   24.0060   41.5300 S   0  0  0  0  0  0  0  0  0  0  0  0
   37.9330   33.0400   39.4650 C   0  0  0  0  0  0  0  0  0  0  0  0
   38.0750   33.9950   40.3050 O   0  0  0  0  0  0  0  0  0  0  0  0
   36.9200   33.9540   39.3540 O   0  0  0  0  0  0  0  0  0  0  0  0
   36.2760   34.0780   38.6100 H   0  0  0  0  0  0  0  0  0  0  0  0
  1  2  2  0  0  0  0
  2  3  1  0  0  0  0
  2 33  1  0  0  0  0
  3  4  1  0  0  0  0
  4  5  2  0  0  0  0
  6  4  1  0  0  0  0
  6 11  1  0  0  0  0
  7 12  1  6  0  0  0
  7  3  1  0  0  0  0
  7  6  1  0  0  0  0
  8  7  1  0  0  0  0
  8  9  1  0  0  0  0
  9  1  1  0  0  0  0
  9 13  1  0  0  0  0
 10  6  1  0  0  0  0
 14  9  1  0  0  0  0
 15  1  1  0  0  0  0
 15 18  1  0  0  0  0
 16 15  1  0  0  0  0
 17 15  1  0  0  0  0
 18 21  1  0  0  0  0
 19 25  1  0  0  0  0
 20 26  1  0  0  0  0
 20 19  2  0  0  0  0
 21 20  1  0  0  0  0
 22 21  2  0  0  0  0
 22 23  1  0  0  0  0
 23 24  2  0  0  0  0
 24 19  1  0  0  0  0
 27 32  1  0  0  0  0
 27 23  1  0  0  0  0
 28 27  2  0  0  0  0
 29 28  1  0  0  0  0
 30 28  1  0  0  0  0
 30 31  2  0  0  0  0
 31 32  1  0  0  0  0
 33 34  2  0  0  0  0
 35 33  1  0  0  0  0
 36 35  1  0  0  0  0
M  END
>  <minimizedAffinity>
-5.40233803

$$$$

 OpenBabel03242511223D

 36 39  0  0  1  0  0  0  0  0999 V2000
   37.7300   30.3340   38.7120 C   0  0  0  0  0  0  0  0  0  0  0  0
   37.8740   30.7670   39.9210 C   0  0  0  0  0  0  0  0  0  0  0  0
   39.1080   31.2550   40.3940 N   0  0  0  0  0  0  0  0  0  0  0  0
   40.0880   31.2370   41.4510 C   0  0  0  0  0  0  0  0  0  0  0  0
   40.0640   31.0280   42.7070 O   0  0  0  0  0  0  0  0  0  0  0  0
   41.0810   31.5700   40.3610 C   0  0  0  0  0  0  0  0  0  0  0  0
   39.9180   32.2170   39.6310 C   0  0  1  0  0  0  0  0  0  0  0  0
   39.7670   31.8620   37.8840 S   0  0  0  0  0  0  0  0  0  0  0  0
   38.8370   30.3070   37.7140 C   0  0  0  0  0  0  0  0  0  0  0  0
   41.8810   32.2420   40.6700 H   0  0  0  0  0  0  0  0  0  0  0  0
   41.3750   30.6260   39.8730 H   0  0  0  0  0  0  0  0  0  0  0  0
   39.7200   33.2550   39.9430 H   0  0  0  0  0  0  0  0  0  0  0  0
   39.5200   29.4360   37.9240 H   0  0  0  0  0  0  0  0  0  0  0  0
   38.4920   30.2780   36.6770 H   0  0  0  0  0  0  0  0  0  0  0  0
   36.4510   29.8350   38.2430 C   0  0  0  0  0  0  0  0  0  0  0  0
   35.8130   30.5130   37.6840 H   0  0  0  0  0  0  0  0  0  0  0  0
   35.8680   29.5220   39.1530 H   0  0  0  0  0  0  0  0  0  0  0  0
   36.6840   28.2550   37.3200 S   0  0  0  0  0  0  0  0  0  0  0  0
   36.0420   24.8020   39.3470 C   0  0  0  0  0  0  0  0  0  0  0  0
   35.9520   25.8200   38.3620 C   0  0  0  0  0  0  0  0  0  0  0  0
   36.7720   26.9660   38.5330 C   0  0  0  0  0  0  0  0  0  0  0  0
   37.5840   27.0180   39.6200 N   0  0  0  0  0  0  0  0  0  0  0  0
   37.6260   26.0330   40.5130 C   0  0  0  0  0  0  0  0  0  0  0  0
   36.8770   24.9300   40.4020 N   0  0  0  0  0  0  0  0  0  0  0  0
   35.4200   23.9260   39.2210 H   0  0  0  0  0  0  0  0  0  0  0  0
   35.2980   25.7220   37.5320 H   0  0  0  0  0  0  0  0  0  0  0  0
   38.5330   26.1790   41.6520 C   0  0  0  0  0  0  0  0  0  0  0  0
   38.6430   27.2440   42.5060 C   0  0  0  0  0  0  0  0  0  0  0  0
   38.0090   28.1080   42.3710 H   0  0  0  0  0  0  0  0  0  0  0  0
   39.5580   27.2000   43.5220 C   0  0  0  0  0  3  0  0  0  0  0  0
   40.3590   26.0630   43.6610 C   0  0  0  0  0  3  0  0  0  0  0  0
   39.7780   24.9750   42.2500 S   0  0  0  0  0  0  0  0  0  0  0  0
   36.7190   30.7490   40.8230 C   0  0  0  0  0  0  0  0  0  0  0  0
   36.5990   29.9820   41.8400 O   0  0  0  0  0  0  0  0  0  0  0  0
   35.5320   30.9630   41.4700 O   0  0  0  0  0  0  0  0  0  0  0  0
   34.9140   31.7350   41.3920 H   0  0  0  0  0  0  0  0  0  0  0  0
  1  2  2  0  0  0  0
  2  3  1  0  0  0  0
  2 33  1  0  0  0  0
  3  4  1  0  0  0  0
  4  5  2  0  0  0  0
  6 10  1  0  0  0  0
  6  4  1  0  0  0  0
  7 12  1  1  0  0  0
  7  6  1  0  0  0  0
  7  3  1  0  0  0  0
  8  7  1  0  0  0  0
  9  8  1  0  0  0  0
  9 13  1  0  0  0  0
  9  1  1  0  0  0  0
 11  6  1  0  0  0  0
 14  9  1  0  0  0  0
 15  1  1  0  0  0  0
 15 17  1  0  0  0  0
 16 15  1  0  0  0  0
 18 15  1  0  0  0  0
 18 21  1  0  0  0  0
 19 24  1  0  0  0  0
 20 21  1  0  0  0  0
 20 19  2  0  0  0  0
 21 22  2  0  0  0  0
 22 23  1  0  0  0  0
 23 27  1  0  0  0  0
 24 23  2  0  0  0  0
 25 19  1  0  0  0  0
 26 20  1  0  0  0  0
 27 32  1  0  0  0  0
 27 28  2  0  0  0  0
 28 30  1  0  0  0  0
 29 28  1  0  0  0  0
 30 31  2  0  0  0  0
 32 31  1  0  0  0  0
 33 35  1  0  0  0  0
 33 34  2  0  0  0  0
 36 35  1  0  0  0  0
M  END
>  <minimizedAffinity>
-5.35881948

$$$$

 OpenBabel03242511223D

 36 39  0  0  1  0  0  0  0  0999 V2000
   38.8140   29.8010   40.4330 C   0  0  0  0  0  0  0  0  0  0  0  0
   37.9110   29.5040   41.3070 C   0  0  0  0  0  0  0  0  0  0  0  0
   38.1240   28.5230   42.2950 N   0  0  0  0  0  0  0  0  0  0  0  0
   37.6050   27.3650   42.9790 C   0  0  0  0  0  0  0  0  0  0  0  0
   36.4450   26.9210   43.2580 O   0  0  0  0  0  0  0  0  0  0  0  0
   39.0570   26.9890   43.1740 C   0  0  0  0  0  0  0  0  0  0  0  0
   39.3520   28.4760   43.1040 C   0  0  1  0  0  0  0  0  0  0  0  0
   40.7440   28.9730   42.0950 S   0  0  0  0  0  0  0  0  0  0  0  0
   40.1520   29.1450   40.3830 C   0  0  0  0  0  0  0  0  0  0  0  0
   39.2730   26.5060   44.1260 H   0  0  0  0  0  0  0  0  0  0  0  0
   39.3970   26.4770   42.2590 H   0  0  0  0  0  0  0  0  0  0  0  0
   39.2270   29.0000   44.0650 H   0  0  0  0  0  0  0  0  0  0  0  0
   40.0610   28.1250   39.9140 H   0  0  0  0  0  0  0  0  0  0  0  0
   40.9110   29.7360   39.8630 H   0  0  0  0  0  0  0  0  0  0  0  0
   38.5760   30.8140   39.4230 C   0  0  0  0  0  0  0  0  0  0  0  0
   39.2320   31.6780   39.4020 H   0  0  0  0  0  0  0  0  0  0  0  0
   37.5350   31.2070   39.5930 H   0  0  0  0  0  0  0  0  0  0  0  0
   38.4710   30.0380   37.7530 S   0  0  0  0  0  0  0  0  0  0  0  0
   34.7090   28.5850   37.3240 C   0  0  0  0  0  0  0  0  0  0  0  0
   35.8240   29.4640   37.2930 C   0  0  0  0  0  0  0  0  0  0  0  0
   37.0610   28.9650   37.7780 C   0  0  0  0  0  0  0  0  0  0  0  0
   37.1020   27.6890   38.2390 N   0  0  0  0  0  0  0  0  0  0  0  0
   36.0240   26.9080   38.2450 C   0  0  0  0  0  0  0  0  0  0  0  0
   34.8330   27.3260   37.8000 N   0  0  0  0  0  0  0  0  0  0  0  0
   33.7640   28.9600   36.9560 H   0  0  0  0  0  0  0  0  0  0  0  0
   35.7300   30.4530   36.9200 H   0  0  0  0  0  0  0  0  0  0  0  0
   36.1670   25.5470   38.7610 C   0  0  0  0  0  0  0  0  0  0  0  0
   35.4400   24.4380   38.4140 C   0  0  0  0  0  0  0  0  0  0  0  0
   34.6550   24.5200   37.6770 H   0  0  0  0  0  0  0  0  0  0  0  0
   35.7190   23.2380   39.0090 C   0  0  0  0  0  3  0  0  0  0  0  0
   36.7430   23.1770   39.9590 C   0  0  0  0  0  3  0  0  0  0  0  0
   37.3580   24.9460   40.0170 S   0  0  0  0  0  0  0  0  0  0  0  0
   36.6260   30.2100   41.2670 C   0  0  0  0  0  0  0  0  0  0  0  0
   35.5280   29.7040   40.8490 O   0  0  0  0  0  0  0  0  0  0  0  0
   35.6000   31.1120   41.3520 O   0  0  0  0  0  0  0  0  0  0  0  0
   35.5570   31.9560   41.8710 H   0  0  0  0  0  0  0  0  0  0  0  0
  1  2  2  0  0  0  0
  2  3  1  0  0  0  0
  3  4  1  0  0  0  0
  3  7  1  0  0  0  0
  4  6  1  0  0  0  0
  4  5  2  0  0  0  0
  6 10  1  0  0  0  0
  7  6  1  0  0  0  0
  7 12  1  1  0  0  0
  8  7  1  0  0  0  0
  9  1  1  0  0  0  0
  9  8  1  0  0  0  0
 11  6  1  0  0  0  0
 13  9  1  0  0  0  0
 14  9  1  0  0  0  0
 15 17  1  0  0  0  0
 15  1  1  0  0  0  0
 16 15  1  0  0  0  0
 18 21  1  0  0  0  0
 18 15  1  0  0  0  0
 19 24  1  0  0  0  0
 20 19  2  0  0  0  0
 20 21  1  0  0  0  0
 21 22  2  0  0  0  0
 22 23  1  0  0  0  0
 23 27  1  0  0  0  0
 24 23  2  0  0  0  0
 25 19  1  0  0  0  0
 26 20  1  0  0  0  0
 27 32  1  0  0  0  0
 28 27  2  0  0  0  0
 28 30  1  0  0  0  0
 29 28  1  0  0  0  0
 30 31  2  0  0  0  0
 31 32  1  0  0  0  0
 33  2  1  0  0  0  0
 33 35  1  0  0  0  0
 34 33  2  0  0  0  0
 35 36  1  0  0  0  0
M  END
>  <minimizedAffinity>
-5.28030348

$$$$

 OpenBabel03242511223D

 36 39  0  0  1  0  0  0  0  0999 V2000
   36.9220   29.9550   40.2660 C   0  0  0  0  0  0  0  0  0  0  0  0
   37.6600   30.2600   41.2810 C   0  0  0  0  0  0  0  0  0  0  0  0
   38.6550   31.2540   41.2050 N   0  0  0  0  0  0  0  0  0  0  0  0
   40.0200   31.6210   41.4920 C   0  0  0  0  0  0  0  0  0  0  0  0
   40.8840   31.2880   42.3660 O   0  0  0  0  0  0  0  0  0  0  0  0
   39.8880   32.5380   40.2970 C   0  0  0  0  0  0  0  0  0  0  0  0
   38.4040   32.5750   40.6090 C   0  0  1  0  0  0  0  0  0  0  0  0
   37.2860   32.3940   39.2230 S   0  0  0  0  0  0  0  0  0  0  0  0
   37.0470   30.6130   38.9340 C   0  0  0  0  0  0  0  0  0  0  0  0
   40.4180   33.4850   40.3950 H   0  0  0  0  0  0  0  0  0  0  0  0
   40.0850   31.9410   39.3920 H   0  0  0  0  0  0  0  0  0  0  0  0
   38.1270   33.3210   41.3710 H   0  0  0  0  0  0  0  0  0  0  0  0
   37.9390   30.1990   38.3850 H   0  0  0  0  0  0  0  0  0  0  0  0
   36.1480   30.5300   38.3170 H   0  0  0  0  0  0  0  0  0  0  0  0
   35.9010   28.9280   40.3630 C   0  0  0  0  0  0  0  0  0  0  0  0
   34.8670   29.2190   40.2090 H   0  0  0  0  0  0  0  0  0  0  0  0
   35.9630   28.5030   41.4040 H   0  0  0  0  0  0  0  0  0  0  0  0
   36.3380   27.4930   39.2900 S   0  0  0  0  0  0  0  0  0  0  0  0
   37.3840   24.1550   41.3430 C   0  0  0  0  0  0  0  0  0  0  0  0
   36.6580   25.0570   40.5210 C   0  0  0  0  0  0  0  0  0  0  0  0
   37.2200   26.3440   40.3110 C   0  0  0  0  0  0  0  0  0  0  0  0
   38.4060   26.6310   40.9060 N   0  0  0  0  0  0  0  0  0  0  0  0
   39.0430   25.7460   41.6680 C   0  0  0  0  0  0  0  0  0  0  0  0
   38.5610   24.5190   41.9000 N   0  0  0  0  0  0  0  0  0  0  0  0
   36.9610   23.1730   41.5060 H   0  0  0  0  0  0  0  0  0  0  0  0
   35.7340   24.7740   40.0830 H   0  0  0  0  0  0  0  0  0  0  0  0
   40.3160   26.1470   42.2660 C   0  0  0  0  0  0  0  0  0  0  0  0
   41.0270   25.4980   43.2410 C   0  0  0  0  0  0  0  0  0  0  0  0
   40.6500   24.5750   43.6560 H   0  0  0  0  0  0  0  0  0  0  0  0
   42.2080   26.0300   43.6800 C   0  0  0  0  0  3  0  0  0  0  0  0
   42.6600   27.2270   43.1170 C   0  0  0  0  0  3  0  0  0  0  0  0
   41.3150   27.6330   41.8760 S   0  0  0  0  0  0  0  0  0  0  0  0
   37.4550   29.5490   42.5470 C   0  0  0  0  0  0  0  0  0  0  0  0
   38.3890   29.2060   43.3510 O   0  0  0  0  0  0  0  0  0  0  0  0
   36.9540   28.9010   43.6430 O   0  0  0  0  0  0  0  0  0  0  0  0
   36.0190   28.8750   43.9740 H   0  0  0  0  0  0  0  0  0  0  0  0
  1 15  1  0  0  0  0
  1  2  2  0  0  0  0
  2 33  1  0  0  0  0
  3  2  1  0  0  0  0
  3  4  1  0  0  0  0
  4  5  2  0  0  0  0
  6 10  1  0  0  0  0
  6  7  1  0  0  0  0
  6  4  1  0  0  0  0
  7  3  1  0  0  0  0
  7 12  1  1  0  0  0
  8  7  1  0  0  0  0
  9  8  1  0  0  0  0
  9  1  1  0  0  0  0
 11  6  1  0  0  0  0
 13  9  1  0  0  0  0
 14  9  1  0  0  0  0
 15 17  1  0  0  0  0
 16 15  1  0  0  0  0
 18 21  1  0  0  0  0
 18 15  1  0  0  0  0
 19 25  1  0  0  0  0
 19 24  1  0  0  0  0
 20 19  2  0  0  0  0
 21 20  1  0  0  0  0
 21 22  2  0  0  0  0
 22 23  1  0  0  0  0
 23 24  2  0  0  0  0
 23 27  1  0  0  0  0
 26 20  1  0  0  0  0
 27 28  2  0  0  0  0
 28 29  1  0  0  0  0
 28 30  1  0  0  0  0
 31 30  2  0  0  0  0
 32 27  1  0  0  0  0
 32 31  1  0  0  0  0
 33 34  2  0  0  0  0
 33 35  1  0  0  0  0
 35 36  1  0  0  0  0
M  END
>  <minimizedAffinity>
-5.27146101

$$$$

 OpenBabel03242511223D

 36 39  0  0  1  0  0  0  0  0999 V2000
   38.5760   30.0310   41.7700 C   0  0  0  0  0  0  0  0  0  0  0  0
   39.1860   31.0060   41.1820 C   0  0  0  0  0  0  0  0  0  0  0  0
   38.6770   31.6070   40.0150 N   0  0  0  0  0  0  0  0  0  0  0  0
   38.9530   32.0780   38.6800 C   0  0  0  0  0  0  0  0  0  0  0  0
   39.9750   32.5320   38.0720 O   0  0  0  0  0  0  0  0  0  0  0  0
   37.4980   31.7690   38.4090 C   0  0  0  0  0  0  0  0  0  0  0  0
   37.2690   32.0140   39.8890 C   0  0  1  0  0  0  0  0  0  0  0  0
   36.2340   30.8350   40.7500 S   0  0  0  0  0  0  0  0  0  0  0  0
   37.2930   29.4520   41.2780 C   0  0  0  0  0  0  0  0  0  0  0  0
   37.0080   32.4660   37.7310 H   0  0  0  0  0  0  0  0  0  0  0  0
   37.4200   30.6950   38.1720 H   0  0  0  0  0  0  0  0  0  0  0  0
   37.1270   33.0760   40.1480 H   0  0  0  0  0  0  0  0  0  0  0  0
   37.4910   28.7750   40.4000 H   0  0  0  0  0  0  0  0  0  0  0  0
   36.7280   28.9210   42.0480 H   0  0  0  0  0  0  0  0  0  0  0  0
   39.1160   29.4240   42.9720 C   0  0  0  0  0  0  0  0  0  0  0  0
   38.4220   28.9610   43.6660 H   0  0  0  0  0  0  0  0  0  0  0  0
   39.6420   30.2400   43.5420 H   0  0  0  0  0  0  0  0  0  0  0  0
   40.4780   28.2580   42.5410 S   0  0  0  0  0  0  0  0  0  0  0  0
   39.5800   24.3630   43.2250 C   0  0  0  0  0  0  0  0  0  0  0  0
   40.1780   25.6460   43.3380 C   0  0  0  0  0  0  0  0  0  0  0  0
   39.7510   26.6460   42.4260 C   0  0  0  0  0  0  0  0  0  0  0  0
   38.8050   26.3180   41.5090 N   0  0  0  0  0  0  0  0  0  0  0  0
   38.2790   25.0970   41.4490 C   0  0  0  0  0  0  0  0  0  0  0  0
   38.6430   24.1150   42.2830 N   0  0  0  0  0  0  0  0  0  0  0  0
   39.9020   23.5970   43.9170 H   0  0  0  0  0  0  0  0  0  0  0  0
   40.9140   25.8430   44.0770 H   0  0  0  0  0  0  0  0  0  0  0  0
   37.2650   24.8380   40.4270 C   0  0  0  0  0  0  0  0  0  0  0  0
   36.4080   23.7720   40.3460 C   0  0  0  0  0  0  0  0  0  0  0  0
   36.4400   23.0000   41.1000 H   0  0  0  0  0  0  0  0  0  0  0  0
   35.5210   23.6990   39.3080 C   0  0  0  0  0  3  0  0  0  0  0  0
   35.5130   24.7200   38.3530 C   0  0  0  0  0  3  0  0  0  0  0  0
   36.8610   25.8690   38.9670 S   0  0  0  0  0  0  0  0  0  0  0  0
   40.4450   31.5000   41.7500 C   0  0  0  0  0  0  0  0  0  0  0  0
   41.5430   31.6100   41.1030 O   0  0  0  0  0  0  0  0  0  0  0  0
   41.4440   31.9900   42.5470 O   0  0  0  0  0  0  0  0  0  0  0  0
   41.3690   32.4500   43.4220 H   0  0  0  0  0  0  0  0  0  0  0  0
  1 15  1  0  0  0  0
  2 33  1  0  0  0  0
  2  1  2  0  0  0  0
  3  2  1  0  0  0  0
  4  3  1  0  0  0  0
  5  4  2  0  0  0  0
  6  4  1  0  0  0  0
  6  7  1  0  0  0  0
  7  3  1  0  0  0  0
  7 12  1  1  0  0  0
  7  8  1  0  0  0  0
  8  9  1  0  0  0  0
  9  1  1  0  0  0  0
  9 14  1  0  0  0  0
 10  6  1  0  0  0  0
 11  6  1  0  0  0  0
 13  9  1  0  0  0  0
 15 17  1  0  0  0  0
 15 16  1  0  0  0  0
 18 15  1  0  0  0  0
 19 20  1  0  0  0  0
 19 25  1  0  0  0  0
 20 26  1  0  0  0  0
 21 18  1  0  0  0  0
 21 20  2  0  0  0  0
 22 21  1  0  0  0  0
 23 22  2  0  0  0  0
 23 24  1  0  0  0  0
 24 19  2  0  0  0  0
 27 23  1  0  0  0  0
 28 27  2  0  0  0  0
 28 29  1  0  0  0  0
 30 28  1  0  0  0  0
 31 32  1  0  0  0  0
 31 30  2  0  0  0  0
 32 27  1  0  0  0  0
 33 35  1  0  0  0  0
 34 33  2  0  0  0  0
 35 36  1  0  0  0  0
M  END
>  <minimizedAffinity>
-5.23204517

$$$$
