
 OpenBabel03252506073D

 40 44  0  0  0  0  0  0  0  0999 V2000
   36.6720   26.1890   38.5700 Cl  0  0  0  0  0  0  0  0  0  0  0  0
   35.3390   27.1720   38.0760 C   0  0  0  0  0  0  0  0  0  0  0  0
   35.0550   28.3550   38.7290 C   0  0  0  0  0  0  0  0  0  0  0  0
   33.9750   29.0610   38.2590 C   0  0  0  0  0  0  0  0  0  0  0  0
   33.1750   28.6770   37.2030 C   0  0  0  0  0  0  0  0  0  0  0  0
   33.4880   27.4910   36.5740 C   0  0  0  0  0  0  0  0  0  0  0  0
   32.4500   27.0330   35.2360 Cl  0  0  0  0  0  0  0  0  0  0  0  0
   34.5530   26.7480   37.0020 C   0  0  0  0  0  0  0  0  0  0  0  0
   33.7640   29.9930   38.7860 H   0  0  0  0  0  0  0  0  0  0  0  0
   34.7570   25.8220   36.4720 H   0  0  0  0  0  0  0  0  0  0  0  0
   32.0670   29.5670   36.8510 C   0  0  0  0  0  0  0  0  0  0  0  0
   31.0160   29.8200   37.6980 C   0  0  0  0  0  0  0  0  0  0  0  0
   29.9600   30.6540   37.3890 C   0  0  0  0  0  0  0  0  0  0  0  0
   29.9380   31.2800   36.1670 C   0  0  0  0  0  0  0  0  0  0  0  0
   28.9120   32.0840   35.8780 N   0  0  0  0  0  0  0  0  0  0  0  0
   28.8120   32.7380   34.7020 C   0  0  0  0  0  0  0  0  0  0  0  0
   29.8470   32.5320   33.7830 C   0  0  0  0  0  0  0  0  0  0  0  0
   30.8980   31.7120   34.0700 C   0  0  0  0  0  0  0  0  0  0  0  0
   30.9710   31.0560   35.2850 C   0  0  0  0  0  0  0  0  0  0  0  0
   32.0260   30.2120   35.6150 C   0  0  0  0  0  0  0  0  0  0  0  0
   31.0160   29.3340   38.6670 H   0  0  0  0  0  0  0  0  0  0  0  0
   29.1660   30.8040   38.1090 H   0  0  0  0  0  0  0  0  0  0  0  0
   27.9410   33.3550   34.5860 H   0  0  0  0  0  0  0  0  0  0  0  0
   29.7230   33.0780   32.8510 H   0  0  0  0  0  0  0  0  0  0  0  0
   31.6790   31.5780   33.3340 H   0  0  0  0  0  0  0  0  0  0  0  0
   32.8130   30.0670   34.8940 H   0  0  0  0  0  0  0  0  0  0  0  0
   36.5040   30.5880   41.2060 C   0  0  0  0  0  0  0  0  0  0  0  0
   37.3470   29.7630   41.9660 C   0  0  0  0  0  0  0  0  0  0  0  0
   37.4000   28.4070   41.5980 C   0  0  0  0  0  0  0  0  0  0  0  0
   36.6550   27.9890   40.5590 N   0  0  0  0  0  0  0  0  0  0  0  0
   35.8510   28.8230   39.8480 C   0  0  0  0  0  0  0  0  0  0  0  0
   35.7880   30.1140   40.1830 N   0  0  0  0  0  0  0  0  0  0  0  0
   36.4430   31.6300   41.4650 H   0  0  0  0  0  0  0  0  0  0  0  0
   37.8930   30.1920   42.7680 H   0  0  0  0  0  0  0  0  0  0  0  0
   38.2510   27.5140   42.3480 C   0  0  0  0  0  0  0  0  0  0  0  0
   39.0900   27.7000   43.3600 C   0  0  0  0  0  0  0  0  0  0  0  0
   39.1880   28.7110   43.7330 H   0  0  0  0  0  0  0  0  0  0  0  0
   39.8000   26.6740   43.9160 C   0  0  0  0  0  3  0  0  0  0  0  0
   39.5480   25.3730   43.2930 C   0  0  0  0  0  3  0  0  0  0  0  0
   38.3040   25.8020   41.9710 S   0  0  0  0  0  0  0  0  0  0  0  0
  2  1  1  0  0  0  0
  2  3  1  0  0  0  0
  3 31  1  0  0  0  0
  4  3  2  0  0  0  0
  4  9  1  0  0  0  0
  5  4  1  0  0  0  0
  6  8  1  0  0  0  0
  6  5  2  0  0  0  0
  7  6  1  0  0  0  0
  8  2  2  0  0  0  0
 10  8  1  0  0  0  0
 11  5  1  0  0  0  0
 11 12  1  0  0  0  0
 12 21  1  0  0  0  0
 13 12  2  0  0  0  0
 13 22  1  0  0  0  0
 14 13  1  0  0  0  0
 15 14  1  0  0  0  0
 16 15  2  0  0  0  0
 17 18  2  0  0  0  0
 17 16  1  0  0  0  0
 18 19  1  0  0  0  0
 19 20  1  0  0  0  0
 19 14  2  0  0  0  0
 20 11  2  0  0  0  0
 23 16  1  0  0  0  0
 24 17  1  0  0  0  0
 25 18  1  0  0  0  0
 26 20  1  0  0  0  0
 27 33  1  0  0  0  0
 27 28  1  0  0  0  0
 28 34  1  0  0  0  0
 29 28  2  0  0  0  0
 29 35  1  0  0  0  0
 30 29  1  0  0  0  0
 31 32  1  0  0  0  0
 31 30  2  0  0  0  0
 32 27  2  0  0  0  0
 35 36  2  0  0  0  0
 36 37  1  0  0  0  0
 36 38  1  0  0  0  0
 39 38  2  0  0  0  0
 40 35  1  0  0  0  0
 40 39  1  0  0  0  0
M  END
>  <minimizedAffinity>
-7.23778343

$$$$

 OpenBabel03252506073D

 40 44  0  0  0  0  0  0  0  0999 V2000
   36.6390   26.2670   38.6400 Cl  0  0  0  0  0  0  0  0  0  0  0  0
   35.3050   27.2240   38.1000 C   0  0  0  0  0  0  0  0  0  0  0  0
   35.0450   28.4560   38.6680 C   0  0  0  0  0  0  0  0  0  0  0  0
   33.9630   29.1370   38.1680 C   0  0  0  0  0  0  0  0  0  0  0  0
   33.1370   28.6830   37.1600 C   0  0  0  0  0  0  0  0  0  0  0  0
   33.4260   27.4500   36.6150 C   0  0  0  0  0  0  0  0  0  0  0  0
   32.3570   26.9040   35.3370 Cl  0  0  0  0  0  0  0  0  0  0  0  0
   34.4920   26.7300   37.0770 C   0  0  0  0  0  0  0  0  0  0  0  0
   33.7700   30.1080   38.6280 H   0  0  0  0  0  0  0  0  0  0  0  0
   34.6770   25.7640   36.6150 H   0  0  0  0  0  0  0  0  0  0  0  0
   32.0300   29.5560   36.7640 C   0  0  0  0  0  0  0  0  0  0  0  0
   30.9350   29.7810   37.5630 C   0  0  0  0  0  0  0  0  0  0  0  0
   29.8800   30.5980   37.2120 C   0  0  0  0  0  0  0  0  0  0  0  0
   29.9040   31.2360   35.9960 C   0  0  0  0  0  0  0  0  0  0  0  0
   28.8780   32.0230   35.6660 N   0  0  0  0  0  0  0  0  0  0  0  0
   28.8210   32.6870   34.4930 C   0  0  0  0  0  0  0  0  0  0  0  0
   29.9010   32.5100   33.6220 C   0  0  0  0  0  0  0  0  0  0  0  0
   30.9530   31.7060   33.9510 C   0  0  0  0  0  0  0  0  0  0  0  0
   30.9810   31.0400   35.1620 C   0  0  0  0  0  0  0  0  0  0  0  0
   32.0350   30.2120   35.5340 C   0  0  0  0  0  0  0  0  0  0  0  0
   30.9000   29.2850   38.5260 H   0  0  0  0  0  0  0  0  0  0  0  0
   29.0500   30.7260   37.8950 H   0  0  0  0  0  0  0  0  0  0  0  0
   27.9450   33.2900   34.3420 H   0  0  0  0  0  0  0  0  0  0  0  0
   29.8110   33.0630   32.6900 H   0  0  0  0  0  0  0  0  0  0  0  0
   31.7700   31.5950   33.2520 H   0  0  0  0  0  0  0  0  0  0  0  0
   32.8580   30.0890   34.8490 H   0  0  0  0  0  0  0  0  0  0  0  0
   36.7560   28.7540   41.8620 C   0  0  0  0  0  0  0  0  0  0  0  0
   37.4230   29.9870   41.7860 C   0  0  0  0  0  0  0  0  0  0  0  0
   37.2640   30.7150   40.5930 C   0  0  0  0  0  0  0  0  0  0  0  0
   36.4980   30.1980   39.6160 N   0  0  0  0  0  0  0  0  0  0  0  0
   35.8680   28.9980   39.7320 C   0  0  0  0  0  0  0  0  0  0  0  0
   36.0080   28.2930   40.8580 N   0  0  0  0  0  0  0  0  0  0  0  0
   36.8600   28.1760   42.7630 H   0  0  0  0  0  0  0  0  0  0  0  0
   38.0040   30.3050   42.6140 H   0  0  0  0  0  0  0  0  0  0  0  0
   37.9290   31.9900   40.4610 C   0  0  0  0  0  0  0  0  0  0  0  0
   37.5350   33.1730   40.0050 C   0  0  0  0  0  0  0  0  0  0  0  0
   36.5170   33.2440   39.6490 H   0  0  0  0  0  0  0  0  0  0  0  0
   38.3660   34.2580   39.9830 C   0  0  0  0  0  3  0  0  0  0  0  0
   39.7090   33.9870   40.5000 C   0  0  0  0  0  3  0  0  0  0  0  0
   39.6000   32.1830   40.9600 S   0  0  0  0  0  0  0  0  0  0  0  0
  2  1  1  0  0  0  0
  2  3  1  0  0  0  0
  3 31  1  0  0  0  0
  4  9  1  0  0  0  0
  4  3  2  0  0  0  0
  5  4  1  0  0  0  0
  6  8  1  0  0  0  0
  6  5  2  0  0  0  0
  7  6  1  0  0  0  0
  8  2  2  0  0  0  0
 10  8  1  0  0  0  0
 11  5  1  0  0  0  0
 11 12  1  0  0  0  0
 12 21  1  0  0  0  0
 13 12  2  0  0  0  0
 13 22  1  0  0  0  0
 14 13  1  0  0  0  0
 15 14  1  0  0  0  0
 16 15  2  0  0  0  0
 17 18  2  0  0  0  0
 17 16  1  0  0  0  0
 18 19  1  0  0  0  0
 19 20  1  0  0  0  0
 19 14  2  0  0  0  0
 20 11  2  0  0  0  0
 23 16  1  0  0  0  0
 24 17  1  0  0  0  0
 25 18  1  0  0  0  0
 26 20  1  0  0  0  0
 27 33  1  0  0  0  0
 28 27  1  0  0  0  0
 28 34  1  0  0  0  0
 29 28  2  0  0  0  0
 30 31  2  0  0  0  0
 30 29  1  0  0  0  0
 31 32  1  0  0  0  0
 32 27  2  0  0  0  0
 35 29  1  0  0  0  0
 35 40  1  0  0  0  0
 36 35  2  0  0  0  0
 37 36  1  0  0  0  0
 38 36  1  0  0  0  0
 38 39  2  0  0  0  0
 39 40  1  0  0  0  0
M  END
>  <minimizedAffinity>
-7.04945278

$$$$

 OpenBabel03252506073D

 40 44  0  0  0  0  0  0  0  0999 V2000
   38.5630   34.8690   39.9420 Cl  0  0  0  0  0  0  0  0  0  0  0  0
   38.5590   33.1600   40.1960 C   0  0  0  0  0  0  0  0  0  0  0  0
   39.7410   32.4480   40.2250 C   0  0  0  0  0  0  0  0  0  0  0  0
   39.6290   31.0950   40.4340 C   0  0  0  0  0  0  0  0  0  0  0  0
   38.4410   30.4160   40.6110 C   0  0  0  0  0  0  0  0  0  0  0  0
   37.2790   31.1590   40.5770 C   0  0  0  0  0  0  0  0  0  0  0  0
   35.7880   30.2650   40.8060 Cl  0  0  0  0  0  0  0  0  0  0  0  0
   37.3350   32.5100   40.3720 C   0  0  0  0  0  0  0  0  0  0  0  0
   40.5720   30.5470   40.4530 H   0  0  0  0  0  0  0  0  0  0  0  0
   36.3920   33.0480   40.3540 H   0  0  0  0  0  0  0  0  0  0  0  0
   38.5260   28.9700   40.8190 C   0  0  0  0  0  0  0  0  0  0  0  0
   38.1490   28.0560   39.8660 C   0  0  0  0  0  0  0  0  0  0  0  0
   38.2190   26.6890   40.0390 C   0  0  0  0  0  0  0  0  0  0  0  0
   38.6920   26.1880   41.2260 C   0  0  0  0  0  0  0  0  0  0  0  0
   38.7560   24.8640   41.3830 N   0  0  0  0  0  0  0  0  0  0  0  0
   39.2080   24.2880   42.5170 C   0  0  0  0  0  0  0  0  0  0  0  0
   39.6130   25.1540   43.5380 C   0  0  0  0  0  0  0  0  0  0  0  0
   39.5500   26.5080   43.3870 C   0  0  0  0  0  0  0  0  0  0  0  0
   39.0820   27.0670   42.2110 C   0  0  0  0  0  0  0  0  0  0  0  0
   39.0030   28.4420   42.0180 C   0  0  0  0  0  0  0  0  0  0  0  0
   37.7730   28.4330   38.9220 H   0  0  0  0  0  0  0  0  0  0  0  0
   37.9030   26.0300   39.2400 H   0  0  0  0  0  0  0  0  0  0  0  0
   39.2120   23.2140   42.5230 H   0  0  0  0  0  0  0  0  0  0  0  0
   39.9690   24.6460   44.4310 H   0  0  0  0  0  0  0  0  0  0  0  0
   39.8730   27.1450   44.1990 H   0  0  0  0  0  0  0  0  0  0  0  0
   39.3200   29.0920   42.8170 H   0  0  0  0  0  0  0  0  0  0  0  0
   42.6560   33.8830   38.5930 C   0  0  0  0  0  0  0  0  0  0  0  0
   43.4710   34.3120   39.6510 C   0  0  0  0  0  0  0  0  0  0  0  0
   42.9820   34.0920   40.9510 C   0  0  0  0  0  0  0  0  0  0  0  0
   41.7870   33.4930   41.1000 N   0  0  0  0  0  0  0  0  0  0  0  0
   41.0280   33.0920   40.0460 C   0  0  0  0  0  0  0  0  0  0  0  0
   41.4770   33.2930   38.8030 N   0  0  0  0  0  0  0  0  0  0  0  0
   43.0050   34.0390   37.5870 H   0  0  0  0  0  0  0  0  0  0  0  0
   44.3990   34.7750   39.4260 H   0  0  0  0  0  0  0  0  0  0  0  0
   43.7800   34.5150   42.0770 C   0  0  0  0  0  0  0  0  0  0  0  0
   43.9820   35.6960   42.6510 C   0  0  0  0  0  0  0  0  0  0  0  0
   43.4630   36.5420   42.2210 H   0  0  0  0  0  0  0  0  0  0  0  0
   44.8020   35.8480   43.7340 C   0  0  0  0  0  3  0  0  0  0  0  0
   45.4240   34.6020   44.1860 C   0  0  0  0  0  3  0  0  0  0  0  0
   44.7380   33.3560   42.9800 S   0  0  0  0  0  0  0  0  0  0  0  0
  1  2  1  0  0  0  0
  2  3  2  0  0  0  0
  2  8  1  0  0  0  0
  3  4  1  0  0  0  0
  4  9  1  0  0  0  0
  4  5  2  0  0  0  0
  5 11  1  0  0  0  0
  6  5  1  0  0  0  0
  6  7  1  0  0  0  0
  8  6  2  0  0  0  0
 10  8  1  0  0  0  0
 11 20  1  0  0  0  0
 12 13  1  0  0  0  0
 12 11  2  0  0  0  0
 13 14  2  0  0  0  0
 14 15  1  0  0  0  0
 14 19  1  0  0  0  0
 15 16  2  0  0  0  0
 16 23  1  0  0  0  0
 16 17  1  0  0  0  0
 17 24  1  0  0  0  0
 18 17  2  0  0  0  0
 18 25  1  0  0  0  0
 19 18  1  0  0  0  0
 20 19  2  0  0  0  0
 20 26  1  0  0  0  0
 21 12  1  0  0  0  0
 22 13  1  0  0  0  0
 27 32  2  0  0  0  0
 27 28  1  0  0  0  0
 28 29  2  0  0  0  0
 29 30  1  0  0  0  0
 29 35  1  0  0  0  0
 31  3  1  0  0  0  0
 31 30  2  0  0  0  0
 32 31  1  0  0  0  0
 33 27  1  0  0  0  0
 34 28  1  0  0  0  0
 35 36  2  0  0  0  0
 35 40  1  0  0  0  0
 36 38  1  0  0  0  0
 37 36  1  0  0  0  0
 38 39  2  0  0  0  0
 40 39  1  0  0  0  0
M  END
>  <minimizedAffinity>
-6.71954632

$$$$

 OpenBabel03252506073D

 40 44  0  0  0  0  0  0  0  0999 V2000
   38.3150   30.7840   37.0940 Cl  0  0  0  0  0  0  0  0  0  0  0  0
   39.3670   31.6600   38.1500 C   0  0  0  0  0  0  0  0  0  0  0  0
   39.2220   31.5730   39.5200 C   0  0  0  0  0  0  0  0  0  0  0  0
   40.1080   32.3080   40.2700 C   0  0  0  0  0  0  0  0  0  0  0  0
   41.1080   33.1080   39.7570 C   0  0  0  0  0  0  0  0  0  0  0  0
   41.2240   33.1700   38.3840 C   0  0  0  0  0  0  0  0  0  0  0  0
   42.5050   34.1960   37.7660 Cl  0  0  0  0  0  0  0  0  0  0  0  0
   40.3670   32.4590   37.5910 C   0  0  0  0  0  0  0  0  0  0  0  0
   39.9800   32.2290   41.3510 H   0  0  0  0  0  0  0  0  0  0  0  0
   40.5000   32.5430   36.5160 H   0  0  0  0  0  0  0  0  0  0  0  0
   41.9530   33.8150   40.7200 C   0  0  0  0  0  0  0  0  0  0  0  0
   41.8200   35.1570   40.9840 C   0  0  0  0  0  0  0  0  0  0  0  0
   42.6040   35.8460   41.8870 C   0  0  0  0  0  0  0  0  0  0  0  0
   43.5830   35.1720   42.5750 C   0  0  0  0  0  0  0  0  0  0  0  0
   44.3360   35.8480   43.4450 N   0  0  0  0  0  0  0  0  0  0  0  0
   45.3180   35.2630   44.1620 C   0  0  0  0  0  0  0  0  0  0  0  0
   45.5170   33.8950   43.9500 C   0  0  0  0  0  0  0  0  0  0  0  0
   44.7520   33.1970   43.0620 C   0  0  0  0  0  0  0  0  0  0  0  0
   43.7530   33.8260   42.3420 C   0  0  0  0  0  0  0  0  0  0  0  0
   42.9520   33.1490   41.4280 C   0  0  0  0  0  0  0  0  0  0  0  0
   41.0530   35.7060   40.4500 H   0  0  0  0  0  0  0  0  0  0  0  0
   42.4400   36.9050   42.0420 H   0  0  0  0  0  0  0  0  0  0  0  0
   45.8540   35.9120   44.8300 H   0  0  0  0  0  0  0  0  0  0  0  0
   46.3180   33.4690   44.5490 H   0  0  0  0  0  0  0  0  0  0  0  0
   44.9350   32.1400   42.9250 H   0  0  0  0  0  0  0  0  0  0  0  0
   43.1210   32.0950   41.2790 H   0  0  0  0  0  0  0  0  0  0  0  0
   36.0630   30.6080   41.0390 C   0  0  0  0  0  0  0  0  0  0  0  0
   36.2070   29.2370   41.3010 C   0  0  0  0  0  0  0  0  0  0  0  0
   37.4330   28.6530   40.9350 C   0  0  0  0  0  0  0  0  0  0  0  0
   38.3760   29.4270   40.3680 N   0  0  0  0  0  0  0  0  0  0  0  0
   38.1940   30.7530   40.1320 C   0  0  0  0  0  0  0  0  0  0  0  0
   37.0360   31.3260   40.4730 N   0  0  0  0  0  0  0  0  0  0  0  0
   35.1350   31.0820   41.3080 H   0  0  0  0  0  0  0  0  0  0  0  0
   35.4010   28.7160   41.7520 H   0  0  0  0  0  0  0  0  0  0  0  0
   37.6340   27.2440   41.1810 C   0  0  0  0  0  0  0  0  0  0  0  0
   37.1170   26.3970   42.0620 C   0  0  0  0  0  0  0  0  0  0  0  0
   36.3920   26.7980   42.7570 H   0  0  0  0  0  0  0  0  0  0  0  0
   37.4720   25.0780   42.0990 C   0  0  0  0  0  3  0  0  0  0  0  0
   38.4630   24.7020   41.0890 C   0  0  0  0  0  3  0  0  0  0  0  0
   38.7580   26.3170   40.2040 S   0  0  0  0  0  0  0  0  0  0  0  0
  1  2  1  0  0  0  0
  2  3  1  0  0  0  0
  3 31  1  0  0  0  0
  3  4  2  0  0  0  0
  4  9  1  0  0  0  0
  5  4  1  0  0  0  0
  5 11  1  0  0  0  0
  6  5  2  0  0  0  0
  7  6  1  0  0  0  0
  8  2  2  0  0  0  0
  8  6  1  0  0  0  0
 10  8  1  0  0  0  0
 11 12  2  0  0  0  0
 11 20  1  0  0  0  0
 12 13  1  0  0  0  0
 13 22  1  0  0  0  0
 13 14  2  0  0  0  0
 14 15  1  0  0  0  0
 15 16  2  0  0  0  0
 16 23  1  0  0  0  0
 17 16  1  0  0  0  0
 17 24  1  0  0  0  0
 18 17  2  0  0  0  0
 19 14  1  0  0  0  0
 19 18  1  0  0  0  0
 20 19  2  0  0  0  0
 21 12  1  0  0  0  0
 25 18  1  0  0  0  0
 26 20  1  0  0  0  0
 27 28  1  0  0  0  0
 27 33  1  0  0  0  0
 28 34  1  0  0  0  0
 29 35  1  0  0  0  0
 29 28  2  0  0  0  0
 30 29  1  0  0  0  0
 31 30  2  0  0  0  0
 31 32  1  0  0  0  0
 32 27  2  0  0  0  0
 35 36  2  0  0  0  0
 36 38  1  0  0  0  0
 36 37  1  0  0  0  0
 39 38  2  0  0  0  0
 40 39  1  0  0  0  0
 40 35  1  0  0  0  0
M  END
>  <minimizedAffinity>
-6.71867561

$$$$

 OpenBabel03252506073D

 40 44  0  0  0  0  0  0  0  0999 V2000
   38.6450   34.3970   39.8780 Cl  0  0  0  0  0  0  0  0  0  0  0  0
   38.5410   32.7150   40.2620 C   0  0  0  0  0  0  0  0  0  0  0  0
   39.6820   31.9470   40.3790 C   0  0  0  0  0  0  0  0  0  0  0  0
   39.4910   30.6220   40.6870 C   0  0  0  0  0  0  0  0  0  0  0  0
   38.2640   30.0220   40.8820 C   0  0  0  0  0  0  0  0  0  0  0  0
   37.1460   30.8190   40.7590 C   0  0  0  0  0  0  0  0  0  0  0  0
   35.6030   30.0250   41.0130 Cl  0  0  0  0  0  0  0  0  0  0  0  0
   37.2800   32.1450   40.4530 C   0  0  0  0  0  0  0  0  0  0  0  0
   40.4030   30.0280   40.7750 H   0  0  0  0  0  0  0  0  0  0  0  0
   36.3680   32.7300   40.3670 H   0  0  0  0  0  0  0  0  0  0  0  0
   38.2660   28.5940   41.2030 C   0  0  0  0  0  0  0  0  0  0  0  0
   38.4240   28.1170   42.4820 C   0  0  0  0  0  0  0  0  0  0  0  0
   38.4300   26.7770   42.8090 C   0  0  0  0  0  0  0  0  0  0  0  0
   38.2700   25.8440   41.8140 C   0  0  0  0  0  0  0  0  0  0  0  0
   38.2780   24.5500   42.1420 N   0  0  0  0  0  0  0  0  0  0  0  0
   38.1280   23.5700   41.2270 C   0  0  0  0  0  0  0  0  0  0  0  0
   37.9610   23.9750   39.8990 C   0  0  0  0  0  0  0  0  0  0  0  0
   37.9530   25.2950   39.5550 C   0  0  0  0  0  0  0  0  0  0  0  0
   38.1090   26.2760   40.5170 C   0  0  0  0  0  0  0  0  0  0  0  0
   38.1060   27.6320   40.2070 C   0  0  0  0  0  0  0  0  0  0  0  0
   38.5510   28.8390   43.2800 H   0  0  0  0  0  0  0  0  0  0  0  0
   38.5590   26.4770   43.8410 H   0  0  0  0  0  0  0  0  0  0  0  0
   38.1510   22.5680   41.6120 H   0  0  0  0  0  0  0  0  0  0  0  0
   37.8450   23.1510   39.1980 H   0  0  0  0  0  0  0  0  0  0  0  0
   37.8220   25.5690   38.5180 H   0  0  0  0  0  0  0  0  0  0  0  0
   37.9770   27.9230   39.1770 H   0  0  0  0  0  0  0  0  0  0  0  0
   42.7610   32.9790   38.7430 C   0  0  0  0  0  0  0  0  0  0  0  0
   43.5230   33.5580   39.7690 C   0  0  0  0  0  0  0  0  0  0  0  0
   42.9390   33.5820   41.0490 C   0  0  0  0  0  0  0  0  0  0  0  0
   41.7110   33.0590   41.2100 N   0  0  0  0  0  0  0  0  0  0  0  0
   41.0060   32.5070   40.1870 C   0  0  0  0  0  0  0  0  0  0  0  0
   41.5450   32.4750   38.9640 N   0  0  0  0  0  0  0  0  0  0  0  0
   43.1820   32.9470   37.7530 H   0  0  0  0  0  0  0  0  0  0  0  0
   44.4830   33.9430   39.5370 H   0  0  0  0  0  0  0  0  0  0  0  0
   43.6800   34.1670   42.1410 C   0  0  0  0  0  0  0  0  0  0  0  0
   44.5920   33.6850   42.9770 C   0  0  0  0  0  0  0  0  0  0  0  0
   44.8680   32.6470   42.8520 H   0  0  0  0  0  0  0  0  0  0  0  0
   45.1640   34.4530   43.9520 C   0  0  0  0  0  3  0  0  0  0  0  0
   44.6780   35.8330   43.9810 C   0  0  0  0  0  3  0  0  0  0  0  0
   43.4440   35.8490   42.5830 S   0  0  0  0  0  0  0  0  0  0  0  0
  1  2  1  0  0  0  0
  2  3  2  0  0  0  0
  2  8  1  0  0  0  0
  3  4  1  0  0  0  0
  4  9  1  0  0  0  0
  4  5  2  0  0  0  0
  5 11  1  0  0  0  0
  6  5  1  0  0  0  0
  6  7  1  0  0  0  0
  8  6  2  0  0  0  0
 10  8  1  0  0  0  0
 11 12  1  0  0  0  0
 12 13  2  0  0  0  0
 12 21  1  0  0  0  0
 13 22  1  0  0  0  0
 14 15  1  0  0  0  0
 14 13  1  0  0  0  0
 16 23  1  0  0  0  0
 16 15  2  0  0  0  0
 17 16  1  0  0  0  0
 18 17  2  0  0  0  0
 18 19  1  0  0  0  0
 19 14  2  0  0  0  0
 20 19  1  0  0  0  0
 20 11  2  0  0  0  0
 24 17  1  0  0  0  0
 25 18  1  0  0  0  0
 26 20  1  0  0  0  0
 27 32  2  0  0  0  0
 27 28  1  0  0  0  0
 28 29  2  0  0  0  0
 29 30  1  0  0  0  0
 29 35  1  0  0  0  0
 31  3  1  0  0  0  0
 31 30  2  0  0  0  0
 32 31  1  0  0  0  0
 33 27  1  0  0  0  0
 34 28  1  0  0  0  0
 35 40  1  0  0  0  0
 35 36  2  0  0  0  0
 36 38  1  0  0  0  0
 37 36  1  0  0  0  0
 38 39  2  0  0  0  0
 40 39  1  0  0  0  0
M  END
>  <minimizedAffinity>
-6.43255091

$$$$

 OpenBabel03252506073D

 40 44  0  0  0  0  0  0  0  0999 V2000
   36.5920   25.6540   40.9830 Cl  0  0  0  0  0  0  0  0  0  0  0  0
   37.0630   27.3110   40.8410 C   0  0  0  0  0  0  0  0  0  0  0  0
   36.7070   28.0530   39.7320 C   0  0  0  0  0  0  0  0  0  0  0  0
   37.1310   29.3590   39.7170 C   0  0  0  0  0  0  0  0  0  0  0  0
   37.8710   29.9650   40.7110 C   0  0  0  0  0  0  0  0  0  0  0  0
   38.2080   29.1940   41.8040 C   0  0  0  0  0  0  0  0  0  0  0  0
   39.1490   29.9950   43.0490 Cl  0  0  0  0  0  0  0  0  0  0  0  0
   37.8120   27.8870   41.8700 C   0  0  0  0  0  0  0  0  0  0  0  0
   36.8420   29.9320   38.8340 H   0  0  0  0  0  0  0  0  0  0  0  0
   38.1040   27.3240   42.7520 H   0  0  0  0  0  0  0  0  0  0  0  0
   38.2290   31.3700   40.5120 C   0  0  0  0  0  0  0  0  0  0  0  0
   37.3080   32.3330   40.1760 C   0  0  0  0  0  0  0  0  0  0  0  0
   37.6200   33.6630   39.9820 C   0  0  0  0  0  0  0  0  0  0  0  0
   38.9230   34.0730   40.1270 C   0  0  0  0  0  0  0  0  0  0  0  0
   39.2140   35.3610   39.9370 N   0  0  0  0  0  0  0  0  0  0  0  0
   40.4670   35.8480   40.0600 C   0  0  0  0  0  0  0  0  0  0  0  0
   41.4630   34.9280   40.4010 C   0  0  0  0  0  0  0  0  0  0  0  0
   41.1750   33.6090   40.5970 C   0  0  0  0  0  0  0  0  0  0  0  0
   39.8800   33.1420   40.4630 C   0  0  0  0  0  0  0  0  0  0  0  0
   39.5450   31.8060   40.6550 C   0  0  0  0  0  0  0  0  0  0  0  0
   36.2750   32.0280   40.0570 H   0  0  0  0  0  0  0  0  0  0  0  0
   36.8400   34.3650   39.7180 H   0  0  0  0  0  0  0  0  0  0  0  0
   40.5750   36.9020   39.8830 H   0  0  0  0  0  0  0  0  0  0  0  0
   42.4550   35.3650   40.4890 H   0  0  0  0  0  0  0  0  0  0  0  0
   41.9720   32.9280   40.8600 H   0  0  0  0  0  0  0  0  0  0  0  0
   40.3280   31.1130   40.9170 H   0  0  0  0  0  0  0  0  0  0  0  0
   35.6340   25.7600   37.1220 C   0  0  0  0  0  0  0  0  0  0  0  0
   34.4890   26.3630   36.5800 C   0  0  0  0  0  0  0  0  0  0  0  0
   34.0960   27.5900   37.1450 C   0  0  0  0  0  0  0  0  0  0  0  0
   34.8270   28.1030   38.1500 N   0  0  0  0  0  0  0  0  0  0  0  0
   35.9310   27.4850   38.6470 C   0  0  0  0  0  0  0  0  0  0  0  0
   36.3190   26.3190   38.1230 N   0  0  0  0  0  0  0  0  0  0  0  0
   35.9570   24.8210   36.7100 H   0  0  0  0  0  0  0  0  0  0  0  0
   33.9820   25.8750   35.7850 H   0  0  0  0  0  0  0  0  0  0  0  0
   32.9240   28.2530   36.6240 C   0  0  0  0  0  0  0  0  0  0  0  0
   32.3090   29.3870   36.9410 C   0  0  0  0  0  0  0  0  0  0  0  0
   32.7380   29.9650   37.7480 H   0  0  0  0  0  0  0  0  0  0  0  0
   31.1890   29.8160   36.2860 C   0  0  0  0  0  3  0  0  0  0  0  0
   30.7440   28.9140   35.2210 C   0  0  0  0  0  3  0  0  0  0  0  0
   32.0120   27.5500   35.3010 S   0  0  0  0  0  0  0  0  0  0  0  0
  2  1  1  0  0  0  0
  2  8  1  0  0  0  0
  3  2  2  0  0  0  0
  4  3  1  0  0  0  0
  4  5  2  0  0  0  0
  5  6  1  0  0  0  0
  6  8  2  0  0  0  0
  6  7  1  0  0  0  0
  8 10  1  0  0  0  0
  9  4  1  0  0  0  0
 11 20  1  0  0  0  0
 11  5  1  0  0  0  0
 12 11  2  0  0  0  0
 13 14  2  0  0  0  0
 13 12  1  0  0  0  0
 14 19  1  0  0  0  0
 15 16  2  0  0  0  0
 15 14  1  0  0  0  0
 16 17  1  0  0  0  0
 17 24  1  0  0  0  0
 17 18  2  0  0  0  0
 18 25  1  0  0  0  0
 19 18  1  0  0  0  0
 19 20  2  0  0  0  0
 20 26  1  0  0  0  0
 21 12  1  0  0  0  0
 22 13  1  0  0  0  0
 23 16  1  0  0  0  0
 27 32  1  0  0  0  0
 28 27  2  0  0  0  0
 28 29  1  0  0  0  0
 29 30  2  0  0  0  0
 30 31  1  0  0  0  0
 31  3  1  0  0  0  0
 32 31  2  0  0  0  0
 33 27  1  0  0  0  0
 34 28  1  0  0  0  0
 35 36  2  0  0  0  0
 35 29  1  0  0  0  0
 36 37  1  0  0  0  0
 38 36  1  0  0  0  0
 39 40  1  0  0  0  0
 39 38  2  0  0  0  0
 40 35  1  0  0  0  0
M  END
>  <minimizedAffinity>
-6.37805891

$$$$

 OpenBabel03252506073D

 40 44  0  0  0  0  0  0  0  0999 V2000
   38.1840   26.4340   39.6020 Cl  0  0  0  0  0  0  0  0  0  0  0  0
   36.7650   27.1820   38.9590 C   0  0  0  0  0  0  0  0  0  0  0  0
   36.4150   28.4660   39.3280 C   0  0  0  0  0  0  0  0  0  0  0  0
   35.2700   28.9680   38.7600 C   0  0  0  0  0  0  0  0  0  0  0  0
   34.4650   28.2920   37.8670 C   0  0  0  0  0  0  0  0  0  0  0  0
   34.8440   27.0130   37.5200 C   0  0  0  0  0  0  0  0  0  0  0  0
   33.7990   26.1820   36.3830 Cl  0  0  0  0  0  0  0  0  0  0  0  0
   35.9760   26.4640   38.0570 C   0  0  0  0  0  0  0  0  0  0  0  0
   35.0070   29.9830   39.0630 H   0  0  0  0  0  0  0  0  0  0  0  0
   36.2310   25.4530   37.7510 H   0  0  0  0  0  0  0  0  0  0  0  0
   33.2820   28.9980   37.3720 C   0  0  0  0  0  0  0  0  0  0  0  0
   33.1300   29.3660   36.0570 C   0  0  0  0  0  0  0  0  0  0  0  0
   32.0260   30.0320   35.5660 C   0  0  0  0  0  0  0  0  0  0  0  0
   31.0040   30.3580   36.4250 C   0  0  0  0  0  0  0  0  0  0  0  0
   29.9410   31.0020   35.9390 N   0  0  0  0  0  0  0  0  0  0  0  0
   28.8940   31.3590   36.7130 C   0  0  0  0  0  0  0  0  0  0  0  0
   28.9740   31.0190   38.0670 C   0  0  0  0  0  0  0  0  0  0  0  0
   30.0570   30.3610   38.5710 C   0  0  0  0  0  0  0  0  0  0  0  0
   31.1130   30.0090   37.7520 C   0  0  0  0  0  0  0  0  0  0  0  0
   32.2350   29.3380   38.2270 C   0  0  0  0  0  0  0  0  0  0  0  0
   33.9260   29.1170   35.3650 H   0  0  0  0  0  0  0  0  0  0  0  0
   31.9770   30.2900   34.5160 H   0  0  0  0  0  0  0  0  0  0  0  0
   28.0980   31.8730   36.2080 H   0  0  0  0  0  0  0  0  0  0  0  0
   28.1080   31.3270   38.6500 H   0  0  0  0  0  0  0  0  0  0  0  0
   30.0820   30.1150   39.6240 H   0  0  0  0  0  0  0  0  0  0  0  0
   32.2770   29.0850   39.2740 H   0  0  0  0  0  0  0  0  0  0  0  0
   38.1410   29.4280   42.3800 C   0  0  0  0  0  0  0  0  0  0  0  0
   38.7180   30.6700   42.0760 C   0  0  0  0  0  0  0  0  0  0  0  0
   38.4940   31.1680   40.7800 C   0  0  0  0  0  0  0  0  0  0  0  0
   37.7530   30.4390   39.9260 N   0  0  0  0  0  0  0  0  0  0  0  0
   37.2110   29.2380   40.2620 C   0  0  0  0  0  0  0  0  0  0  0  0
   37.4140   28.7500   41.4890 N   0  0  0  0  0  0  0  0  0  0  0  0
   38.2970   29.0220   43.3640 H   0  0  0  0  0  0  0  0  0  0  0  0
   39.2860   31.1660   42.8230 H   0  0  0  0  0  0  0  0  0  0  0  0
   39.0650   32.4430   40.4140 C   0  0  0  0  0  0  0  0  0  0  0  0
   38.6830   33.6980   40.6190 C   0  0  0  0  0  0  0  0  0  0  0  0
   37.7620   33.8440   41.1660 H   0  0  0  0  0  0  0  0  0  0  0  0
   39.4110   34.7630   40.1660 C   0  0  0  0  0  3  0  0  0  0  0  0
   40.6280   34.3860   39.4470 C   0  0  0  0  0  3  0  0  0  0  0  0
   40.5700   32.5230   39.5160 S   0  0  0  0  0  0  0  0  0  0  0  0
  2  3  1  0  0  0  0
  2  1  1  0  0  0  0
  3 31  1  0  0  0  0
  4  9  1  0  0  0  0
  4  3  2  0  0  0  0
  5  4  1  0  0  0  0
  6  5  2  0  0  0  0
  6  8  1  0  0  0  0
  7  6  1  0  0  0  0
  8  2  2  0  0  0  0
 10  8  1  0  0  0  0
 11  5  1  0  0  0  0
 11 20  1  0  0  0  0
 12 11  2  0  0  0  0
 13 12  1  0  0  0  0
 13 14  2  0  0  0  0
 14 19  1  0  0  0  0
 15 14  1  0  0  0  0
 15 16  2  0  0  0  0
 16 17  1  0  0  0  0
 17 18  2  0  0  0  0
 17 24  1  0  0  0  0
 18 25  1  0  0  0  0
 19 20  2  0  0  0  0
 19 18  1  0  0  0  0
 20 26  1  0  0  0  0
 21 12  1  0  0  0  0
 22 13  1  0  0  0  0
 23 16  1  0  0  0  0
 27 33  1  0  0  0  0
 28 27  1  0  0  0  0
 28 34  1  0  0  0  0
 29 28  2  0  0  0  0
 30 31  2  0  0  0  0
 30 29  1  0  0  0  0
 31 32  1  0  0  0  0
 32 27  2  0  0  0  0
 35 36  2  0  0  0  0
 35 29  1  0  0  0  0
 36 37  1  0  0  0  0
 38 36  1  0  0  0  0
 39 40  1  0  0  0  0
 39 38  2  0  0  0  0
 40 35  1  0  0  0  0
M  END
>  <minimizedAffinity>
-6.32725668

$$$$

 OpenBabel03252506073D

 40 44  0  0  0  0  0  0  0  0999 V2000
   40.0380   24.9360   42.3310 Cl  0  0  0  0  0  0  0  0  0  0  0  0
   38.6370   24.5020   41.4160 C   0  0  0  0  0  0  0  0  0  0  0  0
   37.6050   25.4010   41.2370 C   0  0  0  0  0  0  0  0  0  0  0  0
   36.5380   24.9590   40.4950 C   0  0  0  0  0  0  0  0  0  0  0  0
   36.4310   23.7040   39.9300 C   0  0  0  0  0  0  0  0  0  0  0  0
   37.4800   22.8320   40.1280 C   0  0  0  0  0  0  0  0  0  0  0  0
   37.3120   21.2470   39.3970 Cl  0  0  0  0  0  0  0  0  0  0  0  0
   38.5670   23.2220   40.8600 C   0  0  0  0  0  0  0  0  0  0  0  0
   35.7310   25.6810   40.3630 H   0  0  0  0  0  0  0  0  0  0  0  0
   39.3670   22.4980   40.9870 H   0  0  0  0  0  0  0  0  0  0  0  0
   35.2120   23.4190   39.1720 C   0  0  0  0  0  0  0  0  0  0  0  0
   35.1230   23.5870   37.8120 C   0  0  0  0  0  0  0  0  0  0  0  0
   33.9860   23.3250   37.0750 C   0  0  0  0  0  0  0  0  0  0  0  0
   32.8620   22.8680   37.7190 C   0  0  0  0  0  0  0  0  0  0  0  0
   31.7680   22.6180   36.9980 N   0  0  0  0  0  0  0  0  0  0  0  0
   30.6220   22.1660   37.5500 C   0  0  0  0  0  0  0  0  0  0  0  0
   30.6320   21.9690   38.9350 C   0  0  0  0  0  0  0  0  0  0  0  0
   31.7460   22.2220   39.6800 C   0  0  0  0  0  0  0  0  0  0  0  0
   32.9050   22.6840   39.0830 C   0  0  0  0  0  0  0  0  0  0  0  0
   34.0610   22.9540   39.8080 C   0  0  0  0  0  0  0  0  0  0  0  0
   36.0000   23.9480   37.2860 H   0  0  0  0  0  0  0  0  0  0  0  0
   33.9910   23.4830   36.0050 H   0  0  0  0  0  0  0  0  0  0  0  0
   29.8100   22.0030   36.8670 H   0  0  0  0  0  0  0  0  0  0  0  0
   29.6880   21.6050   39.3350 H   0  0  0  0  0  0  0  0  0  0  0  0
   31.7160   22.0570   40.7480 H   0  0  0  0  0  0  0  0  0  0  0  0
   34.0490   22.7950   40.8730 H   0  0  0  0  0  0  0  0  0  0  0  0
   37.6780   28.0830   43.6920 C   0  0  0  0  0  0  0  0  0  0  0  0
   37.7210   29.2560   42.9240 C   0  0  0  0  0  0  0  0  0  0  0  0
   37.7260   29.0940   41.5260 C   0  0  0  0  0  0  0  0  0  0  0  0
   37.6880   27.8490   41.0200 N   0  0  0  0  0  0  0  0  0  0  0  0
   37.6460   26.7370   41.8010 C   0  0  0  0  0  0  0  0  0  0  0  0
   37.6410   26.8720   43.1300 N   0  0  0  0  0  0  0  0  0  0  0  0
   37.6740   28.1770   44.7630 H   0  0  0  0  0  0  0  0  0  0  0  0
   37.7490   30.1920   43.4220 H   0  0  0  0  0  0  0  0  0  0  0  0
   37.7710   30.2690   40.6880 C   0  0  0  0  0  0  0  0  0  0  0  0
   36.9800   31.3300   40.5740 C   0  0  0  0  0  0  0  0  0  0  0  0
   36.1140   31.3640   41.2200 H   0  0  0  0  0  0  0  0  0  0  0  0
   37.2380   32.3380   39.6880 C   0  0  0  0  0  3  0  0  0  0  0  0
   38.4500   32.1320   38.8930 C   0  0  0  0  0  3  0  0  0  0  0  0
   39.0710   30.4940   39.5320 S   0  0  0  0  0  0  0  0  0  0  0  0
  2  1  1  0  0  0  0
  3  2  1  0  0  0  0
  3 31  1  0  0  0  0
  4  3  2  0  0  0  0
  5  6  2  0  0  0  0
  5  4  1  0  0  0  0
  6  8  1  0  0  0  0
  7  6  1  0  0  0  0
  8 10  1  0  0  0  0
  8  2  2  0  0  0  0
  9  4  1  0  0  0  0
 11 20  1  0  0  0  0
 11  5  1  0  0  0  0
 12 11  2  0  0  0  0
 13 14  2  0  0  0  0
 13 12  1  0  0  0  0
 14 19  1  0  0  0  0
 15 16  2  0  0  0  0
 15 14  1  0  0  0  0
 16 17  1  0  0  0  0
 17 24  1  0  0  0  0
 17 18  2  0  0  0  0
 18 25  1  0  0  0  0
 19 18  1  0  0  0  0
 19 20  2  0  0  0  0
 20 26  1  0  0  0  0
 21 12  1  0  0  0  0
 22 13  1  0  0  0  0
 23 16  1  0  0  0  0
 27 33  1  0  0  0  0
 28 34  1  0  0  0  0
 28 27  2  0  0  0  0
 29 28  1  0  0  0  0
 30 29  2  0  0  0  0
 30 31  1  0  0  0  0
 31 32  2  0  0  0  0
 32 27  1  0  0  0  0
 35 29  1  0  0  0  0
 36 35  2  0  0  0  0
 36 37  1  0  0  0  0
 38 36  1  0  0  0  0
 39 40  1  0  0  0  0
 39 38  2  0  0  0  0
 40 35  1  0  0  0  0
M  END
>  <minimizedAffinity>
-6.27099943

$$$$

 OpenBabel03252506073D

 40 44  0  0  0  0  0  0  0  0999 V2000
   37.6890   33.5760   39.5670 Cl  0  0  0  0  0  0  0  0  0  0  0  0
   37.6230   31.8770   39.8800 C   0  0  0  0  0  0  0  0  0  0  0  0
   38.7830   31.1430   40.0320 C   0  0  0  0  0  0  0  0  0  0  0  0
   38.6220   29.8010   40.2780 C   0  0  0  0  0  0  0  0  0  0  0  0
   37.4080   29.1540   40.3810 C   0  0  0  0  0  0  0  0  0  0  0  0
   36.2710   29.9180   40.2240 C   0  0  0  0  0  0  0  0  0  0  0  0
   34.7450   29.0640   40.3600 Cl  0  0  0  0  0  0  0  0  0  0  0  0
   36.3750   31.2590   39.9770 C   0  0  0  0  0  0  0  0  0  0  0  0
   39.5470   29.2350   40.3960 H   0  0  0  0  0  0  0  0  0  0  0  0
   35.4490   31.8160   39.8610 H   0  0  0  0  0  0  0  0  0  0  0  0
   37.4420   27.7150   40.6460 C   0  0  0  0  0  0  0  0  0  0  0  0
   37.3150   27.1870   41.9080 C   0  0  0  0  0  0  0  0  0  0  0  0
   37.3450   25.8350   42.1840 C   0  0  0  0  0  0  0  0  0  0  0  0
   37.5100   24.9450   41.1520 C   0  0  0  0  0  0  0  0  0  0  0  0
   37.5370   23.6400   41.4300 N   0  0  0  0  0  0  0  0  0  0  0  0
   37.6950   22.6980   40.4760 C   0  0  0  0  0  0  0  0  0  0  0  0
   37.8310   23.1570   39.1620 C   0  0  0  0  0  0  0  0  0  0  0  0
   37.8050   24.4880   38.8690 C   0  0  0  0  0  0  0  0  0  0  0  0
   37.6410   25.4290   39.8700 C   0  0  0  0  0  0  0  0  0  0  0  0
   37.6090   26.7950   39.6120 C   0  0  0  0  0  0  0  0  0  0  0  0
   37.1840   27.8750   42.7350 H   0  0  0  0  0  0  0  0  0  0  0  0
   37.2380   25.4930   43.2060 H   0  0  0  0  0  0  0  0  0  0  0  0
   37.7010   21.6820   40.8240 H   0  0  0  0  0  0  0  0  0  0  0  0
   37.9560   22.3630   38.4290 H   0  0  0  0  0  0  0  0  0  0  0  0
   37.9130   24.8050   37.8410 H   0  0  0  0  0  0  0  0  0  0  0  0
   37.7160   27.1280   38.5930 H   0  0  0  0  0  0  0  0  0  0  0  0
   41.6420   33.2540   40.7980 C   0  0  0  0  0  0  0  0  0  0  0  0
   42.5790   32.9460   39.8000 C   0  0  0  0  0  0  0  0  0  0  0  0
   42.1940   31.9810   38.8520 C   0  0  0  0  0  0  0  0  0  0  0  0
   40.9740   31.4250   38.9540 N   0  0  0  0  0  0  0  0  0  0  0  0
   40.0950   31.7530   39.9370 C   0  0  0  0  0  0  0  0  0  0  0  0
   40.4440   32.6670   40.8470 N   0  0  0  0  0  0  0  0  0  0  0  0
   41.9100   33.9880   41.5370 H   0  0  0  0  0  0  0  0  0  0  0  0
   43.5160   33.4420   39.8090 H   0  0  0  0  0  0  0  0  0  0  0  0
   43.1210   31.6250   37.8030 C   0  0  0  0  0  0  0  0  0  0  0  0
   44.3580   32.0150   37.5190 C   0  0  0  0  0  0  0  0  0  0  0  0
   44.8030   32.7460   38.1790 H   0  0  0  0  0  0  0  0  0  0  0  0
   45.0480   31.5210   36.4470 C   0  0  0  0  0  3  0  0  0  0  0  0
   44.2980   30.5410   35.6600 C   0  0  0  0  0  3  0  0  0  0  0  0
   42.6770   30.4530   36.5760 S   0  0  0  0  0  0  0  0  0  0  0  0
  1  2  1  0  0  0  0
  2  8  2  0  0  0  0
  2  3  1  0  0  0  0
  3  4  2  0  0  0  0
  4  5  1  0  0  0  0
  4  9  1  0  0  0  0
  5 11  1  0  0  0  0
  6  7  1  0  0  0  0
  6  5  2  0  0  0  0
  8  6  1  0  0  0  0
 10  8  1  0  0  0  0
 11 12  1  0  0  0  0
 12 13  2  0  0  0  0
 12 21  1  0  0  0  0
 13 22  1  0  0  0  0
 14 15  1  0  0  0  0
 14 13  1  0  0  0  0
 16 23  1  0  0  0  0
 16 15  2  0  0  0  0
 17 16  1  0  0  0  0
 18 17  2  0  0  0  0
 18 19  1  0  0  0  0
 19 14  2  0  0  0  0
 20 19  1  0  0  0  0
 20 11  2  0  0  0  0
 24 17  1  0  0  0  0
 25 18  1  0  0  0  0
 26 20  1  0  0  0  0
 27 32  1  0  0  0  0
 27 33  1  0  0  0  0
 28 34  1  0  0  0  0
 28 27  2  0  0  0  0
 29 30  2  0  0  0  0
 29 28  1  0  0  0  0
 30 31  1  0  0  0  0
 31  3  1  0  0  0  0
 31 32  2  0  0  0  0
 35 29  1  0  0  0  0
 36 35  2  0  0  0  0
 36 37  1  0  0  0  0
 38 36  1  0  0  0  0
 39 38  2  0  0  0  0
 39 40  1  0  0  0  0
 40 35  1  0  0  0  0
M  END
>  <minimizedAffinity>
-6.20998335

$$$$
