
 OpenBabel03252506343D

 30 32  0  0  1  0  0  0  0  0999 V2000
   44.4670   35.7250   45.0100 C   0  0  0  0  0  0  0  0  0  0  0  0
   45.1170   35.6920   43.7670 C   0  0  0  0  0  0  0  0  0  0  0  0
   46.0350   34.7110   43.5100 C   0  0  0  0  0  0  0  0  0  0  0  0
   46.2550   33.8180   44.5050 N   0  0  0  0  0  0  0  0  0  0  0  0
   45.6390   33.8500   45.6820 C   0  0  0  0  0  0  0  0  0  0  0  0
   44.7320   34.8030   45.9630 N   0  0  0  0  0  0  0  0  0  0  0  0
   45.9660   32.8490   46.6310 N   0  0  0  0  0  0  0  0  0  0  0  0
   45.1660   32.5600   47.8280 C   0  0  0  0  0  0  0  0  0  0  0  0
   46.2360   32.2430   48.8510 C   0  0  0  0  0  0  0  0  0  0  0  0
   47.5300   32.1030   48.0970 C   0  0  0  0  0  0  0  0  0  0  0  0
   47.0630   31.9270   46.6770 C   0  0  1  0  0  0  0  0  0  0  0  0
   43.7370   36.4880   45.2430 H   0  0  0  0  0  0  0  0  0  0  0  0
   46.5330   34.6890   42.5520 H   0  0  0  0  0  0  0  0  0  0  0  0
   44.6050   33.4980   48.1030 H   0  0  0  0  0  0  0  0  0  0  0  0
   44.4670   31.7210   47.6520 H   0  0  0  0  0  0  0  0  0  0  0  0
   46.2770   32.9990   49.6660 H   0  0  0  0  0  0  0  0  0  0  0  0
   45.9770   31.2540   49.2960 H   0  0  0  0  0  0  0  0  0  0  0  0
   48.0750   33.0690   48.1580 H   0  0  0  0  0  0  0  0  0  0  0  0
   48.1430   31.2460   48.4430 H   0  0  0  0  0  0  0  0  0  0  0  0
   47.8680   32.2100   45.9430 H   0  0  0  0  0  0  0  0  0  0  0  0
   44.7630   36.7190   42.8230 N   0  0  0  0  0  0  0  0  0  0  0  0
   44.5140   37.6670   43.1300 H   0  0  0  0  0  0  0  0  0  0  0  0
   44.7550   36.5030   41.7810 H   0  0  0  0  0  0  0  0  0  0  0  0
   46.5360   30.2080   46.4210 S   0  0  0  0  0  0  0  0  0  0  0  0
   45.7740   29.8880   44.9430 C   0  0  0  0  0  0  0  0  0  0  0  0
   44.5600   29.3350   44.4640 C   0  0  0  0  0  0  0  0  0  0  0  0
   43.9580   29.0370   45.2970 H   0  0  0  0  0  0  0  0  0  0  0  0
   44.2840   29.2390   43.1330 C   0  0  0  0  0  3  0  0  0  0  0  0
   45.3310   29.7480   42.1920 C   0  0  0  0  0  3  0  0  0  0  0  0
   46.6810   30.3470   43.3590 S   0  0  0  0  0  0  0  0  0  0  0  0
  1 12  1  0  0  0  0
  1  6  1  0  0  0  0
  2  1  2  0  0  0  0
  3  2  1  0  0  0  0
  3  4  2  0  0  0  0
  4  5  1  0  0  0  0
  5  6  2  0  0  0  0
  5  7  1  0  0  0  0
  7 11  1  0  0  0  0
  7  8  1  0  0  0  0
  8 14  1  0  0  0  0
  8  9  1  0  0  0  0
  9 17  1  0  0  0  0
  9 16  1  0  0  0  0
 10 18  1  0  0  0  0
 10 19  1  0  0  0  0
 10  9  1  0  0  0  0
 11 20  1  6  0  0  0
 11 10  1  0  0  0  0
 13  3  1  0  0  0  0
 15  8  1  0  0  0  0
 21 22  1  0  0  0  0
 21  2  1  0  0  0  0
 23 21  1  0  0  0  0
 24 11  1  0  0  0  0
 25 24  1  0  0  0  0
 26 25  2  0  0  0  0
 26 27  1  0  0  0  0
 28 26  1  0  0  0  0
 29 28  2  0  0  0  0
 29 30  1  0  0  0  0
 30 25  1  0  0  0  0
M  END
>  <minimizedAffinity>
-4.84158754

>  <minimizedRMSD>
0.141200855

$$$$
