
 OpenBabel03252508093D

 41 44  0  0  0  0  0  0  0  0999 V2000
   37.8530   30.1460   37.6780 C   0  0  0  0  0  0  0  0  0  0  0  0
   38.0580   29.6280   38.9470 C   0  0  0  0  0  0  0  0  0  0  0  0
   37.0160   29.0540   39.6340 C   0  0  0  0  0  0  0  0  0  0  0  0
   35.7900   29.0230   39.0020 N   0  0  0  0  0  0  0  0  0  0  0  0
   35.5940   29.5210   37.7820 C   0  0  0  0  0  0  0  0  0  0  0  0
   36.6330   30.0810   37.1290 N   0  0  0  0  0  0  0  0  0  0  0  0
   38.6840   30.6060   37.1290 H   0  0  0  0  0  0  0  0  0  0  0  0
   34.6140   29.4720   37.3350 H   0  0  0  0  0  0  0  0  0  0  0  0
   37.0670   28.4850   40.9260 C   0  0  0  0  0  0  0  0  0  0  0  0
   37.2630   29.2170   42.0990 C   0  0  0  0  0  0  0  0  0  0  0  0
   37.3780   28.6590   43.3450 C   0  0  0  0  0  0  0  0  0  0  0  0
   37.3000   27.2970   43.4920 C   0  0  0  0  0  0  0  0  0  0  0  0
   37.0970   26.5260   42.3050 C   0  0  0  0  0  0  0  0  0  0  0  0
   37.0210   25.1650   42.4480 C   0  0  0  0  0  0  0  0  0  0  0  0
   36.8240   24.3650   41.3420 C   0  0  0  0  0  0  0  0  0  0  0  0
   36.7020   24.9550   40.0760 C   0  0  0  0  0  0  0  0  0  0  0  0
   36.7890   26.3550   39.9850 C   0  0  0  0  0  0  0  0  0  0  0  0
   36.9890   27.1290   41.0940 C   0  0  0  0  0  0  0  0  0  0  0  0
   37.3310   30.2930   42.0350 H   0  0  0  0  0  0  0  0  0  0  0  0
   37.5300   29.3010   44.2150 H   0  0  0  0  0  0  0  0  0  0  0  0
   37.3880   26.8470   44.4530 H   0  0  0  0  0  0  0  0  0  0  0  0
   37.1160   24.7290   43.4360 H   0  0  0  0  0  0  0  0  0  0  0  0
   36.7730   23.2940   41.5200 H   0  0  0  0  0  0  0  0  0  0  0  0
   36.5500   24.2500   39.2850 H   0  0  0  0  0  0  0  0  0  0  0  0
   36.6510   26.6110   38.9560 H   0  0  0  0  0  0  0  0  0  0  0  0
   39.3250   29.7170   39.4570 O   0  0  0  0  0  0  0  0  0  0  0  0
   41.3840   30.8960   40.5650 O   0  0  0  0  0  0  0  0  0  0  0  0
   40.0740   31.1670   39.9100 P   0  0  1  0  0  0  0  0  0  0  0  0
   40.3910   32.1270   38.5530 O   0  0  0  0  0  0  0  0  0  0  0  0
   41.7250   32.4430   38.1660 C   0  0  0  0  0  0  0  0  0  0  0  0
   42.8950   32.0160   37.4600 C   0  0  0  0  0  0  0  0  0  0  0  0
   42.6420   31.0540   37.0630 H   0  0  0  0  0  0  0  0  0  0  0  0
   43.9160   32.9210   37.5090 C   0  0  0  0  0  3  0  0  0  0  0  0
   43.8450   34.1040   38.1550 C   0  0  0  0  0  3  0  0  0  0  0  0
   42.1990   34.1430   38.8550 S   0  0  0  0  0  0  0  0  0  0  0  0
   39.0430   31.9990   40.9350 O   0  0  0  0  0  0  0  0  0  0  0  0
   38.2700   33.1050   40.6160 C   0  0  0  0  0  0  0  0  0  0  0  0
   39.0390   34.0760   40.7510 O   0  0  0  0  0  0  0  0  0  0  0  0
   36.9300   32.7100   40.2660 N   0  0  0  0  0  0  0  0  0  0  0  0
   36.0240   32.8550   40.7700 H   0  0  0  0  0  0  0  0  0  0  0  0
   36.8190   32.1910   39.3670 H   0  0  0  0  0  0  0  0  0  0  0  0
  1  2  1  0  0  0  0
  2 26  1  0  0  0  0
  2  3  2  0  0  0  0
  3  9  1  0  0  0  0
  4  3  1  0  0  0  0
  5  4  2  0  0  0  0
  6  1  2  0  0  0  0
  6  5  1  0  0  0  0
  7  1  1  0  0  0  0
  8  5  1  0  0  0  0
  9 18  2  0  0  0  0
  9 10  1  0  0  0  0
 10 11  2  0  0  0  0
 11 12  1  0  0  0  0
 11 20  1  0  0  0  0
 12 21  1  0  0  0  0
 13 14  1  0  0  0  0
 13 12  2  0  0  0  0
 14 22  1  0  0  0  0
 15 23  1  0  0  0  0
 15 14  2  0  0  0  0
 16 15  1  0  0  0  0
 17 16  2  0  0  0  0
 17 18  1  0  0  0  0
 18 13  1  0  0  0  0
 19 10  1  0  0  0  0
 24 16  1  0  0  0  0
 25 17  1  0  0  0  0
 26 28  1  0  0  0  0
 28 27  2  1  0  0  0
 28 36  1  0  0  0  0
 29 28  1  0  0  0  0
 30 29  1  0  0  0  0
 30 35  1  0  0  0  0
 31 33  1  0  0  0  0
 31 30  2  0  0  0  0
 32 31  1  0  0  0  0
 33 34  2  0  0  0  0
 34 35  1  0  0  0  0
 37 38  2  0  0  0  0
 37 36  1  0  0  0  0
 39 37  1  0  0  0  0
 39 40  1  0  0  0  0
 41 39  1  0  0  0  0
M  END
>  <minimizedAffinity>
-6.26533413

$$$$

 OpenBabel03252508093D

 41 44  0  0  0  0  0  0  0  0999 V2000
   38.0250   29.9300   37.5730 C   0  0  0  0  0  0  0  0  0  0  0  0
   38.2050   29.4100   38.8450 C   0  0  0  0  0  0  0  0  0  0  0  0
   37.1200   29.0110   39.5860 C   0  0  0  0  0  0  0  0  0  0  0  0
   35.8770   29.1530   39.0040 N   0  0  0  0  0  0  0  0  0  0  0  0
   35.7050   29.6530   37.7820 C   0  0  0  0  0  0  0  0  0  0  0  0
   36.7870   30.0390   37.0750 N   0  0  0  0  0  0  0  0  0  0  0  0
   38.8910   30.2510   36.9810 H   0  0  0  0  0  0  0  0  0  0  0  0
   34.7100   29.7430   37.3750 H   0  0  0  0  0  0  0  0  0  0  0  0
   37.1400   28.4640   40.8890 C   0  0  0  0  0  0  0  0  0  0  0  0
   37.3480   29.2110   42.0510 C   0  0  0  0  0  0  0  0  0  0  0  0
   37.4340   28.6730   43.3080 C   0  0  0  0  0  0  0  0  0  0  0  0
   37.3120   27.3170   43.4780 C   0  0  0  0  0  0  0  0  0  0  0  0
   37.0960   26.5310   42.3040 C   0  0  0  0  0  0  0  0  0  0  0  0
   36.9750   25.1760   42.4700 C   0  0  0  0  0  0  0  0  0  0  0  0
   36.7630   24.3620   41.3760 C   0  0  0  0  0  0  0  0  0  0  0  0
   36.6720   24.9330   40.0990 C   0  0  0  0  0  0  0  0  0  0  0  0
   36.8040   26.3270   39.9840 C   0  0  0  0  0  0  0  0  0  0  0  0
   37.0180   27.1150   41.0810 C   0  0  0  0  0  0  0  0  0  0  0  0
   37.4510   30.2840   41.9680 H   0  0  0  0  0  0  0  0  0  0  0  0
   37.5980   29.3260   44.1670 H   0  0  0  0  0  0  0  0  0  0  0  0
   37.3760   26.8820   44.4470 H   0  0  0  0  0  0  0  0  0  0  0  0
   37.0480   24.7550   43.4670 H   0  0  0  0  0  0  0  0  0  0  0  0
   36.6770   23.2970   41.5730 H   0  0  0  0  0  0  0  0  0  0  0  0
   36.5060   24.2190   39.3190 H   0  0  0  0  0  0  0  0  0  0  0  0
   36.6840   26.5690   38.9490 H   0  0  0  0  0  0  0  0  0  0  0  0
   39.4920   29.3180   39.3020 O   0  0  0  0  0  0  0  0  0  0  0  0
   41.6130   30.2040   40.5570 O   0  0  0  0  0  0  0  0  0  0  0  0
   40.4500   30.6450   39.7360 P   0  0  1  0  0  0  0  0  0  0  0  0
   41.0790   31.4050   38.3600 O   0  0  0  0  0  0  0  0  0  0  0  0
   41.8080   30.6740   37.3790 C   0  0  0  0  0  0  0  0  0  0  0  0
   41.8700   29.4890   36.5780 C   0  0  0  0  0  0  0  0  0  0  0  0
   40.9940   28.9330   36.8390 H   0  0  0  0  0  0  0  0  0  0  0  0
   42.9710   29.4400   35.7720 C   0  0  0  0  0  3  0  0  0  0  0  0
   43.9150   30.4040   35.7250 C   0  0  0  0  0  3  0  0  0  0  0  0
   43.3660   31.6370   36.8990 S   0  0  0  0  0  0  0  0  0  0  0  0
   39.4960   31.7380   40.5730 O   0  0  0  0  0  0  0  0  0  0  0  0
   38.7240   32.7530   40.0270 C   0  0  0  0  0  0  0  0  0  0  0  0
   37.5620   32.4990   40.3970 O   0  0  0  0  0  0  0  0  0  0  0  0
   39.5420   33.6690   39.2740 N   0  0  0  0  0  0  0  0  0  0  0  0
   39.5950   33.8460   38.2430 H   0  0  0  0  0  0  0  0  0  0  0  0
   40.1980   34.2650   39.8250 H   0  0  0  0  0  0  0  0  0  0  0  0
  1  2  1  0  0  0  0
  2 26  1  0  0  0  0
  2  3  2  0  0  0  0
  3  9  1  0  0  0  0
  4  3  1  0  0  0  0
  5  4  2  0  0  0  0
  6  1  2  0  0  0  0
  6  5  1  0  0  0  0
  7  1  1  0  0  0  0
  8  5  1  0  0  0  0
  9 18  2  0  0  0  0
  9 10  1  0  0  0  0
 10 11  2  0  0  0  0
 11 12  1  0  0  0  0
 11 20  1  0  0  0  0
 12 21  1  0  0  0  0
 13 14  1  0  0  0  0
 13 12  2  0  0  0  0
 14 22  1  0  0  0  0
 15 23  1  0  0  0  0
 15 14  2  0  0  0  0
 16 15  1  0  0  0  0
 17 16  2  0  0  0  0
 17 18  1  0  0  0  0
 18 13  1  0  0  0  0
 19 10  1  0  0  0  0
 24 16  1  0  0  0  0
 25 17  1  0  0  0  0
 26 28  1  0  0  0  0
 28 27  2  1  0  0  0
 28 36  1  0  0  0  0
 29 28  1  0  0  0  0
 30 29  1  0  0  0  0
 31 32  1  0  0  0  0
 31 30  2  0  0  0  0
 33 31  1  0  0  0  0
 34 33  2  0  0  0  0
 34 35  1  0  0  0  0
 35 30  1  0  0  0  0
 37 38  2  0  0  0  0
 37 36  1  0  0  0  0
 39 41  1  0  0  0  0
 39 37  1  0  0  0  0
 40 39  1  0  0  0  0
M  END
>  <minimizedAffinity>
-5.97557211

$$$$

 OpenBabel03252508093D

 41 44  0  0  0  0  0  0  0  0999 V2000
   37.0890   30.0660   37.5020 C   0  0  0  0  0  0  0  0  0  0  0  0
   37.4790   29.6400   38.7610 C   0  0  0  0  0  0  0  0  0  0  0  0
   36.5860   28.9890   39.5760 C   0  0  0  0  0  0  0  0  0  0  0  0
   35.3140   28.7880   39.0790 N   0  0  0  0  0  0  0  0  0  0  0  0
   34.9400   29.1980   37.8690 C   0  0  0  0  0  0  0  0  0  0  0  0
   35.8360   29.8370   37.0880 N   0  0  0  0  0  0  0  0  0  0  0  0
   37.8010   30.5870   36.8500 H   0  0  0  0  0  0  0  0  0  0  0  0
   33.9320   29.0170   37.5300 H   0  0  0  0  0  0  0  0  0  0  0  0
   36.8320   28.4960   40.8780 C   0  0  0  0  0  0  0  0  0  0  0  0
   37.0870   29.3040   41.9880 C   0  0  0  0  0  0  0  0  0  0  0  0
   37.3910   28.8260   43.2350 C   0  0  0  0  0  0  0  0  0  0  0  0
   37.4580   27.4710   43.4480 C   0  0  0  0  0  0  0  0  0  0  0  0
   37.1980   26.6240   42.3270 C   0  0  0  0  0  0  0  0  0  0  0  0
   37.2650   25.2710   42.5360 C   0  0  0  0  0  0  0  0  0  0  0  0
   37.0230   24.3980   41.4950 C   0  0  0  0  0  0  0  0  0  0  0  0
   36.7070   24.9080   40.2280 C   0  0  0  0  0  0  0  0  0  0  0  0
   36.6520   26.3020   40.0670 C   0  0  0  0  0  0  0  0  0  0  0  0
   36.9000   27.1500   41.1120 C   0  0  0  0  0  0  0  0  0  0  0  0
   37.0470   30.3770   41.8700 H   0  0  0  0  0  0  0  0  0  0  0  0
   37.5770   29.5240   44.0540 H   0  0  0  0  0  0  0  0  0  0  0  0
   37.6930   27.0830   44.4110 H   0  0  0  0  0  0  0  0  0  0  0  0
   37.5100   24.8980   43.5250 H   0  0  0  0  0  0  0  0  0  0  0  0
   37.0920   23.3390   41.7240 H   0  0  0  0  0  0  0  0  0  0  0  0
   36.5360   24.1510   39.4900 H   0  0  0  0  0  0  0  0  0  0  0  0
   36.3780   26.4910   39.0510 H   0  0  0  0  0  0  0  0  0  0  0  0
   38.7720   29.8970   39.1310 O   0  0  0  0  0  0  0  0  0  0  0  0
   38.2720   32.1930   40.2850 O   0  0  0  0  0  0  0  0  0  0  0  0
   39.3470   31.4170   39.6070 P   0  0  1  0  0  0  0  0  0  0  0  0
   40.6150   31.2560   40.7180 O   0  0  0  0  0  0  0  0  0  0  0  0
   41.4840   32.3460   41.0100 C   0  0  0  0  0  0  0  0  0  0  0  0
   41.8290   33.7060   40.7260 C   0  0  0  0  0  0  0  0  0  0  0  0
   41.1280   34.0180   39.9790 H   0  0  0  0  0  0  0  0  0  0  0  0
   42.8880   34.1590   41.4580 C   0  0  0  0  0  3  0  0  0  0  0  0
   43.5550   33.4110   42.3620 C   0  0  0  0  0  3  0  0  0  0  0  0
   42.7360   31.8210   42.3310 S   0  0  0  0  0  0  0  0  0  0  0  0
   39.9130   32.2190   38.2490 O   0  0  0  0  0  0  0  0  0  0  0  0
   40.9400   31.8110   37.4120 C   0  0  0  0  0  0  0  0  0  0  0  0
   41.6670   32.8140   37.2930 O   0  0  0  0  0  0  0  0  0  0  0  0
   40.7670   30.4340   37.0240 N   0  0  0  0  0  0  0  0  0  0  0  0
   40.5250   30.0130   36.0970 H   0  0  0  0  0  0  0  0  0  0  0  0
   40.8980   29.7210   37.7750 H   0  0  0  0  0  0  0  0  0  0  0  0
  1  2  1  0  0  0  0
  2 26  1  0  0  0  0
  2  3  2  0  0  0  0
  3  9  1  0  0  0  0
  4  3  1  0  0  0  0
  5  4  2  0  0  0  0
  6  1  2  0  0  0  0
  6  5  1  0  0  0  0
  7  1  1  0  0  0  0
  8  5  1  0  0  0  0
  9 18  2  0  0  0  0
  9 10  1  0  0  0  0
 10 11  2  0  0  0  0
 11 12  1  0  0  0  0
 11 20  1  0  0  0  0
 12 21  1  0  0  0  0
 13 14  1  0  0  0  0
 13 12  2  0  0  0  0
 14 22  1  0  0  0  0
 15 23  1  0  0  0  0
 15 14  2  0  0  0  0
 16 15  1  0  0  0  0
 17 16  2  0  0  0  0
 17 18  1  0  0  0  0
 18 13  1  0  0  0  0
 19 10  1  0  0  0  0
 24 16  1  0  0  0  0
 25 17  1  0  0  0  0
 26 28  1  0  0  0  0
 28 27  2  1  0  0  0
 28 29  1  0  0  0  0
 29 30  1  0  0  0  0
 30 35  1  0  0  0  0
 31 30  2  0  0  0  0
 31 33  1  0  0  0  0
 32 31  1  0  0  0  0
 33 34  2  0  0  0  0
 35 34  1  0  0  0  0
 36 28  1  0  0  0  0
 37 36  1  0  0  0  0
 38 37  2  0  0  0  0
 39 37  1  0  0  0  0
 39 41  1  0  0  0  0
 40 39  1  0  0  0  0
M  END
>  <minimizedAffinity>
-5.87041235

$$$$

 OpenBabel03252508093D

 41 44  0  0  0  0  0  0  0  0999 V2000
   37.2160   29.9080   37.5990 C   0  0  0  0  0  0  0  0  0  0  0  0
   37.4300   29.3980   38.8690 C   0  0  0  0  0  0  0  0  0  0  0  0
   36.6170   28.4050   39.3590 C   0  0  0  0  0  0  0  0  0  0  0  0
   35.6070   27.9570   38.5330 N   0  0  0  0  0  0  0  0  0  0  0  0
   35.4030   28.4470   37.3110 C   0  0  0  0  0  0  0  0  0  0  0  0
   36.2140   29.4240   36.8540 N   0  0  0  0  0  0  0  0  0  0  0  0
   37.8640   30.7030   37.2070 H   0  0  0  0  0  0  0  0  0  0  0  0
   34.5970   28.0610   36.7070 H   0  0  0  0  0  0  0  0  0  0  0  0
   36.7070   27.7860   40.6270 C   0  0  0  0  0  0  0  0  0  0  0  0
   36.2350   28.3530   41.8120 C   0  0  0  0  0  0  0  0  0  0  0  0
   36.3810   27.7840   43.0500 C   0  0  0  0  0  0  0  0  0  0  0  0
   37.0270   26.5790   43.1740 C   0  0  0  0  0  0  0  0  0  0  0  0
   37.5170   25.9780   41.9730 C   0  0  0  0  0  0  0  0  0  0  0  0
   38.1640   24.7760   42.0940 C   0  0  0  0  0  0  0  0  0  0  0  0
   38.6590   24.1420   40.9730 C   0  0  0  0  0  0  0  0  0  0  0  0
   38.4940   24.7380   39.7150 C   0  0  0  0  0  0  0  0  0  0  0  0
   37.8240   25.9710   39.6470 C   0  0  0  0  0  0  0  0  0  0  0  0
   37.3450   26.5840   40.7720 C   0  0  0  0  0  0  0  0  0  0  0  0
   35.7200   29.3020   41.7660 H   0  0  0  0  0  0  0  0  0  0  0  0
   35.9820   28.2910   43.9300 H   0  0  0  0  0  0  0  0  0  0  0  0
   37.1490   26.1240   44.1280 H   0  0  0  0  0  0  0  0  0  0  0  0
   38.2790   24.3320   43.0770 H   0  0  0  0  0  0  0  0  0  0  0  0
   39.1620   23.1930   41.1340 H   0  0  0  0  0  0  0  0  0  0  0  0
   38.9110   24.1680   38.9100 H   0  0  0  0  0  0  0  0  0  0  0  0
   37.7790   26.2470   38.6150 H   0  0  0  0  0  0  0  0  0  0  0  0
   38.4710   29.9270   39.5840 O   0  0  0  0  0  0  0  0  0  0  0  0
   36.9700   31.8220   40.5910 O   0  0  0  0  0  0  0  0  0  0  0  0
   38.3810   31.3540   40.4920 P   0  0  1  0  0  0  0  0  0  0  0  0
   38.9250   31.0930   42.0730 O   0  0  0  0  0  0  0  0  0  0  0  0
   39.8230   30.0310   42.3810 C   0  0  0  0  0  0  0  0  0  0  0  0
   39.9710   28.6310   42.6380 C   0  0  0  0  0  0  0  0  0  0  0  0
   38.9800   28.2310   42.5650 H   0  0  0  0  0  0  0  0  0  0  0  0
   41.2610   28.2600   42.8850 C   0  0  0  0  0  3  0  0  0  0  0  0
   42.3040   29.1150   42.8880 C   0  0  0  0  0  3  0  0  0  0  0  0
   41.5860   30.7110   42.5150 S   0  0  0  0  0  0  0  0  0  0  0  0
   39.3550   32.5070   39.7650 O   0  0  0  0  0  0  0  0  0  0  0  0
   39.6810   33.7560   40.2710 C   0  0  0  0  0  0  0  0  0  0  0  0
   40.6040   34.1610   39.5400 O   0  0  0  0  0  0  0  0  0  0  0  0
   38.8510   34.0820   41.4030 N   0  0  0  0  0  0  0  0  0  0  0  0
   39.0890   34.1690   42.4190 H   0  0  0  0  0  0  0  0  0  0  0  0
   37.8440   34.2650   41.2020 H   0  0  0  0  0  0  0  0  0  0  0  0
  1  2  1  0  0  0  0
  2  3  2  0  0  0  0
  2 26  1  0  0  0  0
  3  9  1  0  0  0  0
  4  3  1  0  0  0  0
  5  4  2  0  0  0  0
  6  5  1  0  0  0  0
  6  1  2  0  0  0  0
  7  1  1  0  0  0  0
  8  5  1  0  0  0  0
  9 18  2  0  0  0  0
  9 10  1  0  0  0  0
 10 11  2  0  0  0  0
 11 12  1  0  0  0  0
 11 20  1  0  0  0  0
 12 21  1  0  0  0  0
 13 14  1  0  0  0  0
 13 12  2  0  0  0  0
 14 22  1  0  0  0  0
 15 23  1  0  0  0  0
 15 14  2  0  0  0  0
 16 15  1  0  0  0  0
 17 16  2  0  0  0  0
 17 18  1  0  0  0  0
 18 13  1  0  0  0  0
 19 10  1  0  0  0  0
 24 16  1  0  0  0  0
 25 17  1  0  0  0  0
 26 28  1  0  0  0  0
 28 27  2  1  0  0  0
 28 29  1  0  0  0  0
 29 30  1  0  0  0  0
 30 35  1  0  0  0  0
 30 31  2  0  0  0  0
 31 33  1  0  0  0  0
 32 31  1  0  0  0  0
 33 34  2  0  0  0  0
 35 34  1  0  0  0  0
 36 37  1  0  0  0  0
 36 28  1  0  0  0  0
 37 39  1  0  0  0  0
 38 37  2  0  0  0  0
 39 40  1  0  0  0  0
 41 39  1  0  0  0  0
M  END
>  <minimizedAffinity>
-5.78805923

$$$$

 OpenBabel03252508093D

 41 44  0  0  0  0  0  0  0  0999 V2000
   36.8480   29.3630   37.0070 C   0  0  0  0  0  0  0  0  0  0  0  0
   37.2460   28.9060   38.2530 C   0  0  0  0  0  0  0  0  0  0  0  0
   36.3100   28.4720   39.1590 C   0  0  0  0  0  0  0  0  0  0  0  0
   34.9880   28.5150   38.7640 N   0  0  0  0  0  0  0  0  0  0  0  0
   34.6070   28.9540   37.5660 C   0  0  0  0  0  0  0  0  0  0  0  0
   35.5450   29.3770   36.6950 N   0  0  0  0  0  0  0  0  0  0  0  0
   37.5950   29.7110   36.2820 H   0  0  0  0  0  0  0  0  0  0  0  0
   33.5590   28.9680   37.3090 H   0  0  0  0  0  0  0  0  0  0  0  0
   36.5570   27.9810   40.4610 C   0  0  0  0  0  0  0  0  0  0  0  0
   36.6890   28.7880   41.5930 C   0  0  0  0  0  0  0  0  0  0  0  0
   36.9940   28.3180   42.8430 C   0  0  0  0  0  0  0  0  0  0  0  0
   37.1890   26.9730   43.0360 C   0  0  0  0  0  0  0  0  0  0  0  0
   37.0560   26.1260   41.8920 C   0  0  0  0  0  0  0  0  0  0  0  0
   37.2520   24.7830   42.0820 C   0  0  0  0  0  0  0  0  0  0  0  0
   37.1360   23.9110   41.0180 C   0  0  0  0  0  0  0  0  0  0  0  0
   36.8180   24.4120   39.7480 C   0  0  0  0  0  0  0  0  0  0  0  0
   36.6280   25.7970   39.6080 C   0  0  0  0  0  0  0  0  0  0  0  0
   36.7520   26.6440   40.6750 C   0  0  0  0  0  0  0  0  0  0  0  0
   36.5460   29.8540   41.4910 H   0  0  0  0  0  0  0  0  0  0  0  0
   37.0790   29.0140   43.6790 H   0  0  0  0  0  0  0  0  0  0  0  0
   37.4270   26.5910   44.0010 H   0  0  0  0  0  0  0  0  0  0  0  0
   37.4970   24.4160   43.0730 H   0  0  0  0  0  0  0  0  0  0  0  0
   37.3040   22.8590   41.2320 H   0  0  0  0  0  0  0  0  0  0  0  0
   36.7500   23.6570   38.9920 H   0  0  0  0  0  0  0  0  0  0  0  0
   36.3730   25.9770   38.5860 H   0  0  0  0  0  0  0  0  0  0  0  0
   38.5890   28.9100   38.5160 O   0  0  0  0  0  0  0  0  0  0  0  0
   38.4930   31.3360   39.4980 O   0  0  0  0  0  0  0  0  0  0  0  0
   39.4280   30.2170   39.1920 P   0  0  1  0  0  0  0  0  0  0  0  0
   40.1560   29.7700   40.6530 O   0  0  0  0  0  0  0  0  0  0  0  0
   40.3670   28.4010   40.9860 C   0  0  0  0  0  0  0  0  0  0  0  0
   40.3840   27.0490   40.5170 C   0  0  0  0  0  0  0  0  0  0  0  0
   40.1270   27.1140   39.4790 H   0  0  0  0  0  0  0  0  0  0  0  0
   40.7030   26.1440   41.4870 C   0  0  0  0  0  3  0  0  0  0  0  0
   40.9800   26.4760   42.7660 C   0  0  0  0  0  3  0  0  0  0  0  0
   40.8230   28.2580   42.8190 S   0  0  0  0  0  0  0  0  0  0  0  0
   40.6190   30.6970   38.1160 O   0  0  0  0  0  0  0  0  0  0  0  0
   40.7160   31.9260   37.4810 C   0  0  0  0  0  0  0  0  0  0  0  0
   41.8530   32.3420   37.7720 O   0  0  0  0  0  0  0  0  0  0  0  0
   39.5070   32.2260   36.7590 N   0  0  0  0  0  0  0  0  0  0  0  0
   38.7680   32.9470   36.9360 H   0  0  0  0  0  0  0  0  0  0  0  0
   39.3120   31.6410   35.9160 H   0  0  0  0  0  0  0  0  0  0  0  0
  1  2  1  0  0  0  0
  2 26  1  0  0  0  0
  2  3  2  0  0  0  0
  3  9  1  0  0  0  0
  4  3  1  0  0  0  0
  5  4  2  0  0  0  0
  6  1  2  0  0  0  0
  6  5  1  0  0  0  0
  7  1  1  0  0  0  0
  8  5  1  0  0  0  0
  9 18  2  0  0  0  0
  9 10  1  0  0  0  0
 10 11  2  0  0  0  0
 11 12  1  0  0  0  0
 11 20  1  0  0  0  0
 12 21  1  0  0  0  0
 13 14  1  0  0  0  0
 13 12  2  0  0  0  0
 14 22  1  0  0  0  0
 15 23  1  0  0  0  0
 15 14  2  0  0  0  0
 16 15  1  0  0  0  0
 17 16  2  0  0  0  0
 17 18  1  0  0  0  0
 18 13  1  0  0  0  0
 19 10  1  0  0  0  0
 24 16  1  0  0  0  0
 25 17  1  0  0  0  0
 26 28  1  0  0  0  0
 28 27  2  1  0  0  0
 28 29  1  0  0  0  0
 29 30  1  0  0  0  0
 30 35  1  0  0  0  0
 31 30  2  0  0  0  0
 31 33  1  0  0  0  0
 32 31  1  0  0  0  0
 33 34  2  0  0  0  0
 34 35  1  0  0  0  0
 36 28  1  0  0  0  0
 37 38  2  0  0  0  0
 37 36  1  0  0  0  0
 39 40  1  0  0  0  0
 39 37  1  0  0  0  0
 41 39  1  0  0  0  0
M  END
>  <minimizedAffinity>
-5.72924376

$$$$

 OpenBabel03252508093D

 41 44  0  0  0  0  0  0  0  0999 V2000
   41.5960   31.7160   40.3120 C   0  0  0  0  0  0  0  0  0  0  0  0
   40.6870   30.7360   40.6770 C   0  0  0  0  0  0  0  0  0  0  0  0
   40.6020   30.3260   41.9850 C   0  0  0  0  0  0  0  0  0  0  0  0
   41.4510   30.9320   42.8880 N   0  0  0  0  0  0  0  0  0  0  0  0
   42.3240   31.8750   42.5370 C   0  0  0  0  0  0  0  0  0  0  0  0
   42.3890   32.2590   41.2460 N   0  0  0  0  0  0  0  0  0  0  0  0
   41.6660   32.0430   39.2680 H   0  0  0  0  0  0  0  0  0  0  0  0
   42.9660   32.3160   43.2840 H   0  0  0  0  0  0  0  0  0  0  0  0
   39.7320   29.3440   42.5090 C   0  0  0  0  0  0  0  0  0  0  0  0
   38.4810   29.6200   43.0660 C   0  0  0  0  0  0  0  0  0  0  0  0
   37.6660   28.6770   43.6340 C   0  0  0  0  0  0  0  0  0  0  0  0
   38.0680   27.3650   43.6780 C   0  0  0  0  0  0  0  0  0  0  0  0
   39.3440   27.0580   43.1130 C   0  0  0  0  0  0  0  0  0  0  0  0
   39.7500   25.7490   43.1570 C   0  0  0  0  0  0  0  0  0  0  0  0
   40.9700   25.3860   42.6260 C   0  0  0  0  0  0  0  0  0  0  0  0
   41.7870   26.3650   42.0430 C   0  0  0  0  0  0  0  0  0  0  0  0
   41.3250   27.6920   42.0240 C   0  0  0  0  0  0  0  0  0  0  0  0
   40.1130   28.0300   42.5610 C   0  0  0  0  0  0  0  0  0  0  0  0
   38.1210   30.6390   43.0550 H   0  0  0  0  0  0  0  0  0  0  0  0
   36.7000   28.9730   44.0480 H   0  0  0  0  0  0  0  0  0  0  0  0
   37.4470   26.6210   44.1170 H   0  0  0  0  0  0  0  0  0  0  0  0
   39.1020   25.0080   43.6110 H   0  0  0  0  0  0  0  0  0  0  0  0
   41.2350   24.3350   42.6920 H   0  0  0  0  0  0  0  0  0  0  0  0
   42.7110   25.9830   41.6590 H   0  0  0  0  0  0  0  0  0  0  0  0
   42.0670   28.2760   41.5250 H   0  0  0  0  0  0  0  0  0  0  0  0
   39.8990   30.2190   39.6830 O   0  0  0  0  0  0  0  0  0  0  0  0
   39.0060   31.7940   37.7920 O   0  0  0  0  0  0  0  0  0  0  0  0
   38.5790   31.0230   38.9930 P   0  0  1  0  0  0  0  0  0  0  0  0
   37.4060   29.9160   38.4770 O   0  0  0  0  0  0  0  0  0  0  0  0
   37.1770   28.7000   39.1800 C   0  0  0  0  0  0  0  0  0  0  0  0
   36.5100   28.0630   40.2750 C   0  0  0  0  0  0  0  0  0  0  0  0
   35.9560   28.8450   40.7530 H   0  0  0  0  0  0  0  0  0  0  0  0
   36.7740   26.7270   40.3650 C   0  0  0  0  0  3  0  0  0  0  0  0
   37.5810   26.0580   39.5140 C   0  0  0  0  0  3  0  0  0  0  0  0
   38.1470   27.2970   38.3550 S   0  0  0  0  0  0  0  0  0  0  0  0
   37.9040   32.0280   40.1510 O   0  0  0  0  0  0  0  0  0  0  0  0
   37.9240   33.4140   40.1600 C   0  0  0  0  0  0  0  0  0  0  0  0
   38.7840   33.7120   41.0100 O   0  0  0  0  0  0  0  0  0  0  0  0
   36.9750   33.9450   39.2150 N   0  0  0  0  0  0  0  0  0  0  0  0
   36.0770   34.4620   39.3690 H   0  0  0  0  0  0  0  0  0  0  0  0
   37.1970   33.8030   38.2050 H   0  0  0  0  0  0  0  0  0  0  0  0
  1  2  2  0  0  0  0
  1  6  1  0  0  0  0
  2  3  1  0  0  0  0
  3  9  1  0  0  0  0
  3  4  2  0  0  0  0
  5  4  1  0  0  0  0
  5  8  1  0  0  0  0
  6  5  2  0  0  0  0
  7  1  1  0  0  0  0
  9 18  2  0  0  0  0
  9 10  1  0  0  0  0
 10 11  2  0  0  0  0
 11 12  1  0  0  0  0
 11 20  1  0  0  0  0
 12 21  1  0  0  0  0
 13 14  1  0  0  0  0
 13 12  2  0  0  0  0
 14 22  1  0  0  0  0
 15 23  1  0  0  0  0
 15 14  2  0  0  0  0
 16 15  1  0  0  0  0
 17 16  2  0  0  0  0
 17 18  1  0  0  0  0
 18 13  1  0  0  0  0
 19 10  1  0  0  0  0
 24 16  1  0  0  0  0
 25 17  1  0  0  0  0
 26  2  1  0  0  0  0
 28 27  2  6  0  0  0
 28 26  1  0  0  0  0
 28 36  1  0  0  0  0
 29 28  1  0  0  0  0
 29 30  1  0  0  0  0
 30 31  2  0  0  0  0
 31 33  1  0  0  0  0
 31 32  1  0  0  0  0
 34 33  2  0  0  0  0
 35 30  1  0  0  0  0
 35 34  1  0  0  0  0
 36 37  1  0  0  0  0
 37 38  2  0  0  0  0
 39 40  1  0  0  0  0
 39 37  1  0  0  0  0
 41 39  1  0  0  0  0
M  END
>  <minimizedAffinity>
-5.6850419

$$$$

 OpenBabel03252508093D

 41 44  0  0  0  0  0  0  0  0999 V2000
   42.8050   28.2580   41.3050 C   0  0  0  0  0  0  0  0  0  0  0  0
   41.4240   28.1620   41.3510 C   0  0  0  0  0  0  0  0  0  0  0  0
   40.7990   27.7570   42.5050 C   0  0  0  0  0  0  0  0  0  0  0  0
   41.6060   27.4620   43.5850 N   0  0  0  0  0  0  0  0  0  0  0  0
   42.9340   27.5550   43.5400 C   0  0  0  0  0  0  0  0  0  0  0  0
   43.5240   27.9540   42.3940 N   0  0  0  0  0  0  0  0  0  0  0  0
   43.3060   28.5800   40.3840 H   0  0  0  0  0  0  0  0  0  0  0  0
   43.5180   27.3110   44.4130 H   0  0  0  0  0  0  0  0  0  0  0  0
   39.4080   27.6110   42.7080 C   0  0  0  0  0  0  0  0  0  0  0  0
   38.6010   28.5640   43.3320 C   0  0  0  0  0  0  0  0  0  0  0  0
   37.2660   28.3950   43.5880 C   0  0  0  0  0  0  0  0  0  0  0  0
   36.6450   27.2260   43.2230 C   0  0  0  0  0  0  0  0  0  0  0  0
   37.4500   26.2360   42.5800 C   0  0  0  0  0  0  0  0  0  0  0  0
   36.8340   25.0670   42.2160 C   0  0  0  0  0  0  0  0  0  0  0  0
   37.5550   24.0720   41.5900 C   0  0  0  0  0  0  0  0  0  0  0  0
   38.9190   24.2670   41.3310 C   0  0  0  0  0  0  0  0  0  0  0  0
   39.5020   25.4830   41.7260 C   0  0  0  0  0  0  0  0  0  0  0  0
   38.7700   26.4550   42.3490 C   0  0  0  0  0  0  0  0  0  0  0  0
   39.0450   29.5000   43.6390 H   0  0  0  0  0  0  0  0  0  0  0  0
   36.7030   29.1900   44.0800 H   0  0  0  0  0  0  0  0  0  0  0  0
   35.6090   27.0790   43.4150 H   0  0  0  0  0  0  0  0  0  0  0  0
   35.7770   24.9370   42.4240 H   0  0  0  0  0  0  0  0  0  0  0  0
   37.0100   23.1700   41.3270 H   0  0  0  0  0  0  0  0  0  0  0  0
   39.3870   23.4390   40.8410 H   0  0  0  0  0  0  0  0  0  0  0  0
   40.5280   25.4510   41.4250 H   0  0  0  0  0  0  0  0  0  0  0  0
   40.7400   28.4890   40.2110 O   0  0  0  0  0  0  0  0  0  0  0  0
   40.4000   30.1890   38.2480 O   0  0  0  0  0  0  0  0  0  0  0  0
   40.3780   30.0730   39.7330 P   0  0  1  0  0  0  0  0  0  0  0  0
   38.8230   30.5100   40.2380 O   0  0  0  0  0  0  0  0  0  0  0  0
   37.7100   29.6440   40.0390 C   0  0  0  0  0  0  0  0  0  0  0  0
   37.2590   28.3710   39.5620 C   0  0  0  0  0  0  0  0  0  0  0  0
   38.1440   27.8790   39.2130 H   0  0  0  0  0  0  0  0  0  0  0  0
   35.9130   28.1910   39.6930 C   0  0  0  0  0  3  0  0  0  0  0  0
   35.0760   29.1110   40.2180 C   0  0  0  0  0  3  0  0  0  0  0  0
   36.1290   30.4920   40.6480 S   0  0  0  0  0  0  0  0  0  0  0  0
   41.4900   31.1080   40.4400 O   0  0  0  0  0  0  0  0  0  0  0  0
   41.2680   31.9540   41.5160 C   0  0  0  0  0  0  0  0  0  0  0  0
   41.9700   31.4890   42.4330 O   0  0  0  0  0  0  0  0  0  0  0  0
   40.3460   33.0020   41.1610 N   0  0  0  0  0  0  0  0  0  0  0  0
   39.3610   33.1770   41.4710 H   0  0  0  0  0  0  0  0  0  0  0  0
   40.6930   33.7160   40.4830 H   0  0  0  0  0  0  0  0  0  0  0  0
  1  2  2  0  0  0  0
  1  6  1  0  0  0  0
  2  3  1  0  0  0  0
  3  9  1  0  0  0  0
  3  4  2  0  0  0  0
  5  4  1  0  0  0  0
  5  8  1  0  0  0  0
  6  5  2  0  0  0  0
  7  1  1  0  0  0  0
  9 10  1  0  0  0  0
 10 11  2  0  0  0  0
 10 19  1  0  0  0  0
 11 20  1  0  0  0  0
 12 21  1  0  0  0  0
 12 11  1  0  0  0  0
 13 12  2  0  0  0  0
 14 22  1  0  0  0  0
 14 13  1  0  0  0  0
 15 14  2  0  0  0  0
 16 15  1  0  0  0  0
 16 17  2  0  0  0  0
 17 18  1  0  0  0  0
 18 13  1  0  0  0  0
 18  9  2  0  0  0  0
 23 15  1  0  0  0  0
 24 16  1  0  0  0  0
 25 17  1  0  0  0  0
 26  2  1  0  0  0  0
 28 27  2  6  0  0  0
 28 26  1  0  0  0  0
 28 29  1  0  0  0  0
 28 36  1  0  0  0  0
 30 29  1  0  0  0  0
 30 35  1  0  0  0  0
 31 33  1  0  0  0  0
 31 30  2  0  0  0  0
 32 31  1  0  0  0  0
 33 34  2  0  0  0  0
 34 35  1  0  0  0  0
 36 37  1  0  0  0  0
 37 38  2  0  0  0  0
 39 40  1  0  0  0  0
 39 37  1  0  0  0  0
 41 39  1  0  0  0  0
M  END
>  <minimizedAffinity>
-5.68171167

$$$$

 OpenBabel03252508093D

 41 44  0  0  0  0  0  0  0  0999 V2000
   39.0990   30.4390   38.5720 C   0  0  0  0  0  0  0  0  0  0  0  0
   38.9280   29.6800   39.7180 C   0  0  0  0  0  0  0  0  0  0  0  0
   37.6680   29.3100   40.1190 C   0  0  0  0  0  0  0  0  0  0  0  0
   36.6130   29.7250   39.3320 N   0  0  0  0  0  0  0  0  0  0  0  0
   36.7780   30.4540   38.2300 C   0  0  0  0  0  0  0  0  0  0  0  0
   38.0260   30.8060   37.8590 N   0  0  0  0  0  0  0  0  0  0  0  0
   40.1050   30.7360   38.2510 H   0  0  0  0  0  0  0  0  0  0  0  0
   35.9180   30.7530   37.6520 H   0  0  0  0  0  0  0  0  0  0  0  0
   37.3330   28.5410   41.2570 C   0  0  0  0  0  0  0  0  0  0  0  0
   37.1400   29.0730   42.5330 C   0  0  0  0  0  0  0  0  0  0  0  0
   36.8810   28.3220   43.6490 C   0  0  0  0  0  0  0  0  0  0  0  0
   36.7980   26.9560   43.5470 C   0  0  0  0  0  0  0  0  0  0  0  0
   36.9900   26.3880   42.2500 C   0  0  0  0  0  0  0  0  0  0  0  0
   36.9090   25.0240   42.1440 C   0  0  0  0  0  0  0  0  0  0  0  0
   37.0830   24.4140   40.9190 C   0  0  0  0  0  0  0  0  0  0  0  0
   37.3410   25.2010   39.7880 C   0  0  0  0  0  0  0  0  0  0  0  0
   37.4150   26.5950   39.9510 C   0  0  0  0  0  0  0  0  0  0  0  0
   37.2440   27.1780   41.1760 C   0  0  0  0  0  0  0  0  0  0  0  0
   37.1970   30.1440   42.6650 H   0  0  0  0  0  0  0  0  0  0  0  0
   36.7410   28.8140   44.6140 H   0  0  0  0  0  0  0  0  0  0  0  0
   36.5980   26.3570   44.4040 H   0  0  0  0  0  0  0  0  0  0  0  0
   36.7080   24.4340   43.0320 H   0  0  0  0  0  0  0  0  0  0  0  0
   37.0080   23.3310   40.9010 H   0  0  0  0  0  0  0  0  0  0  0  0
   37.4590   24.6350   38.8870 H   0  0  0  0  0  0  0  0  0  0  0  0
   37.5930   27.0150   38.9840 H   0  0  0  0  0  0  0  0  0  0  0  0
   40.0600   29.3290   40.4050 O   0  0  0  0  0  0  0  0  0  0  0  0
   39.8250   31.1640   42.2580 O   0  0  0  0  0  0  0  0  0  0  0  0
   40.8230   30.3100   41.5560 P   0  0  1  0  0  0  0  0  0  0  0  0
   41.5820   29.3650   42.7380 O   0  0  0  0  0  0  0  0  0  0  0  0
   41.2030   28.0100   42.9580 C   0  0  0  0  0  0  0  0  0  0  0  0
   40.3540   27.1110   43.6790 C   0  0  0  0  0  0  0  0  0  0  0  0
   39.7650   27.7390   44.3150 H   0  0  0  0  0  0  0  0  0  0  0  0
   40.5510   25.8010   43.3500 C   0  0  0  0  0  3  0  0  0  0  0  0
   41.4510   25.3800   42.4370 C   0  0  0  0  0  3  0  0  0  0  0  0
   42.2320   26.8760   41.8430 S   0  0  0  0  0  0  0  0  0  0  0  0
   41.9790   31.2390   40.7780 O   0  0  0  0  0  0  0  0  0  0  0  0
   42.5990   32.3770   41.2710 C   0  0  0  0  0  0  0  0  0  0  0  0
   43.0010   32.9810   40.2600 O   0  0  0  0  0  0  0  0  0  0  0  0
   42.5350   32.4100   42.7100 N   0  0  0  0  0  0  0  0  0  0  0  0
   43.2900   32.3030   43.4280 H   0  0  0  0  0  0  0  0  0  0  0  0
   41.5920   32.5650   43.1290 H   0  0  0  0  0  0  0  0  0  0  0  0
  1  2  1  0  0  0  0
  2  3  2  0  0  0  0
  2 26  1  0  0  0  0
  3  9  1  0  0  0  0
  4  3  1  0  0  0  0
  5  4  2  0  0  0  0
  6  5  1  0  0  0  0
  6  1  2  0  0  0  0
  7  1  1  0  0  0  0
  8  5  1  0  0  0  0
  9 10  1  0  0  0  0
 10 19  1  0  0  0  0
 10 11  2  0  0  0  0
 11 20  1  0  0  0  0
 12 11  1  0  0  0  0
 12 21  1  0  0  0  0
 13 12  2  0  0  0  0
 14 13  1  0  0  0  0
 14 22  1  0  0  0  0
 15 14  2  0  0  0  0
 16 17  2  0  0  0  0
 16 15  1  0  0  0  0
 17 18  1  0  0  0  0
 18  9  2  0  0  0  0
 18 13  1  0  0  0  0
 23 15  1  0  0  0  0
 24 16  1  0  0  0  0
 25 17  1  0  0  0  0
 26 28  1  0  0  0  0
 28 27  2  1  0  0  0
 28 29  1  0  0  0  0
 29 30  1  0  0  0  0
 30 31  2  0  0  0  0
 31 32  1  0  0  0  0
 33 31  1  0  0  0  0
 34 33  2  0  0  0  0
 35 34  1  0  0  0  0
 35 30  1  0  0  0  0
 36 37  1  0  0  0  0
 36 28  1  0  0  0  0
 37 39  1  0  0  0  0
 38 37  2  0  0  0  0
 39 41  1  0  0  0  0
 39 40  1  0  0  0  0
M  END
>  <minimizedAffinity>
-5.57011652

$$$$

 OpenBabel03252508093D

 41 44  0  0  0  0  0  0  0  0999 V2000
   37.4120   30.9340   38.2160 C   0  0  0  0  0  0  0  0  0  0  0  0
   37.5010   29.8610   39.0870 C   0  0  0  0  0  0  0  0  0  0  0  0
   37.5350   30.0740   40.4440 C   0  0  0  0  0  0  0  0  0  0  0  0
   37.4750   31.3840   40.8740 N   0  0  0  0  0  0  0  0  0  0  0  0
   37.3890   32.4160   40.0360 C   0  0  0  0  0  0  0  0  0  0  0  0
   37.3580   32.1790   38.7080 N   0  0  0  0  0  0  0  0  0  0  0  0
   37.3850   30.7650   37.1320 H   0  0  0  0  0  0  0  0  0  0  0  0
   37.3460   33.4210   40.4250 H   0  0  0  0  0  0  0  0  0  0  0  0
   37.6240   29.0900   41.4540 C   0  0  0  0  0  0  0  0  0  0  0  0
   36.5220   28.4520   42.0270 C   0  0  0  0  0  0  0  0  0  0  0  0
   36.6040   27.5460   43.0520 C   0  0  0  0  0  0  0  0  0  0  0  0
   37.8300   27.2180   43.5750 C   0  0  0  0  0  0  0  0  0  0  0  0
   38.9730   27.8570   43.0030 C   0  0  0  0  0  0  0  0  0  0  0  0
   40.1980   27.5330   43.5250 C   0  0  0  0  0  0  0  0  0  0  0  0
   41.3410   28.1130   43.0150 C   0  0  0  0  0  0  0  0  0  0  0  0
   41.2370   29.0320   41.9620 C   0  0  0  0  0  0  0  0  0  0  0  0
   39.9570   29.3300   41.4640 C   0  0  0  0  0  0  0  0  0  0  0  0
   38.8360   28.7470   41.9880 C   0  0  0  0  0  0  0  0  0  0  0  0
   35.5360   28.6780   41.6490 H   0  0  0  0  0  0  0  0  0  0  0  0
   35.6940   27.0890   43.4460 H   0  0  0  0  0  0  0  0  0  0  0  0
   37.9100   26.5170   44.3720 H   0  0  0  0  0  0  0  0  0  0  0  0
   40.2560   26.8180   44.3380 H   0  0  0  0  0  0  0  0  0  0  0  0
   42.2810   27.8150   43.4710 H   0  0  0  0  0  0  0  0  0  0  0  0
   42.1790   29.4240   41.6370 H   0  0  0  0  0  0  0  0  0  0  0  0
   40.0870   30.0240   40.6610 H   0  0  0  0  0  0  0  0  0  0  0  0
   37.5480   28.6110   38.5300 O   0  0  0  0  0  0  0  0  0  0  0  0
   40.0980   28.7970   37.9680 O   0  0  0  0  0  0  0  0  0  0  0  0
   38.9730   27.8260   38.0610 P   0  0  1  0  0  0  0  0  0  0  0  0
   39.4210   26.6620   39.2060 O   0  0  0  0  0  0  0  0  0  0  0  0
   38.4490   25.8320   39.8360 C   0  0  0  0  0  0  0  0  0  0  0  0
   37.0640   25.4830   39.9370 C   0  0  0  0  0  0  0  0  0  0  0  0
   36.5660   26.1260   39.2400 H   0  0  0  0  0  0  0  0  0  0  0  0
   36.8220   24.4920   40.8430 C   0  0  0  0  0  3  0  0  0  0  0  0
   37.7810   23.8910   41.5790 C   0  0  0  0  0  3  0  0  0  0  0  0
   39.3040   24.6840   41.0750 S   0  0  0  0  0  0  0  0  0  0  0  0
   38.7020   27.0670   36.5920 O   0  0  0  0  0  0  0  0  0  0  0  0
   37.5980   27.2240   35.7690 C   0  0  0  0  0  0  0  0  0  0  0  0
   36.9970   26.1350   35.8340 O   0  0  0  0  0  0  0  0  0  0  0  0
   37.5800   28.5400   35.1830 N   0  0  0  0  0  0  0  0  0  0  0  0
   37.7280   28.8470   34.1920 H   0  0  0  0  0  0  0  0  0  0  0  0
   37.3920   29.3350   35.8320 H   0  0  0  0  0  0  0  0  0  0  0  0
  1  6  2  0  0  0  0
  1  2  1  0  0  0  0
  2  3  2  0  0  0  0
  3  4  1  0  0  0  0
  3  9  1  0  0  0  0
  5  8  1  0  0  0  0
  5  4  2  0  0  0  0
  6  5  1  0  0  0  0
  7  1  1  0  0  0  0
  9 18  2  0  0  0  0
  9 10  1  0  0  0  0
 10 11  2  0  0  0  0
 11 20  1  0  0  0  0
 11 12  1  0  0  0  0
 12 21  1  0  0  0  0
 13 14  1  0  0  0  0
 13 12  2  0  0  0  0
 14 22  1  0  0  0  0
 15 23  1  0  0  0  0
 15 14  2  0  0  0  0
 16 15  1  0  0  0  0
 17 16  2  0  0  0  0
 17 18  1  0  0  0  0
 18 13  1  0  0  0  0
 19 10  1  0  0  0  0
 24 16  1  0  0  0  0
 25 17  1  0  0  0  0
 26  2  1  0  0  0  0
 28 27  2  6  0  0  0
 28 26  1  0  0  0  0
 28 29  1  0  0  0  0
 29 30  1  0  0  0  0
 30 31  2  0  0  0  0
 30 35  1  0  0  0  0
 31 33  1  0  0  0  0
 32 31  1  0  0  0  0
 33 34  2  0  0  0  0
 35 34  1  0  0  0  0
 36 28  1  0  0  0  0
 37 38  2  0  0  0  0
 37 36  1  0  0  0  0
 39 37  1  0  0  0  0
 39 41  1  0  0  0  0
 40 39  1  0  0  0  0
M  END
>  <minimizedAffinity>
-5.56091738

$$$$
