
 OpenBabel03252504193D

 35 37  0  0  0  0  0  0  0  0999 V2000
   33.9330   28.9730   38.8900 F   0  0  0  0  0  0  0  0  0  0  0  0
   34.5620   29.1370   37.6850 C   0  0  0  0  0  0  0  0  0  0  0  0
   35.9030   29.4680   37.6510 C   0  0  0  0  0  0  0  0  0  0  0  0
   36.4650   29.6150   36.3880 C   0  0  0  0  0  0  0  0  0  0  0  0
   35.7170   29.4400   35.2560 C   0  0  0  0  0  0  0  0  0  0  0  0
   34.3710   29.1080   35.3500 C   0  0  0  0  0  0  0  0  0  0  0  0
   33.7630   28.9490   36.5890 C   0  0  0  0  0  0  0  0  0  0  0  0
   37.5190   29.8750   36.2890 H   0  0  0  0  0  0  0  0  0  0  0  0
   36.1050   29.5430   34.2380 H   0  0  0  0  0  0  0  0  0  0  0  0
   33.7490   28.9610   34.4700 H   0  0  0  0  0  0  0  0  0  0  0  0
   37.7030   28.6420   40.7150 C   0  0  0  0  0  0  0  0  0  0  0  0
   38.1330   29.8840   41.1870 C   0  0  0  0  0  0  0  0  0  0  0  0
   37.7920   31.0250   40.4290 C   0  0  0  0  0  0  0  0  0  0  0  0
   37.0730   30.8750   39.2930 N   0  0  0  0  0  0  0  0  0  0  0  0
   36.6770   29.6480   38.8720 C   0  0  0  0  0  0  0  0  0  0  0  0
   36.9920   28.5580   39.5790 N   0  0  0  0  0  0  0  0  0  0  0  0
   38.1190   31.9750   40.7890 H   0  0  0  0  0  0  0  0  0  0  0  0
   38.9110   29.9670   42.4330 C   0  0  0  0  0  0  0  0  0  0  0  0
   40.0120   29.1260   42.3570 F   0  0  0  0  0  0  0  0  0  0  0  0
   39.4030   31.2630   42.5440 F   0  0  0  0  0  0  0  0  0  0  0  0
   38.2280   29.6620   43.5610 F   0  0  0  0  0  0  0  0  0  0  0  0
   38.0310   27.5630   41.4410 O   0  0  0  0  0  0  0  0  0  0  0  0
   37.1870   26.8660   42.3500 C   0  0  0  0  0  0  0  0  0  0  0  0
   36.1120   27.6930   42.6210 F   0  0  0  0  0  0  0  0  0  0  0  0
   36.8200   25.6650   41.8210 F   0  0  0  0  0  0  0  0  0  0  0  0
   37.8430   26.7460   43.5590 F   0  0  0  0  0  0  0  0  0  0  0  0
   32.3180   28.5940   36.7030 C   0  0  0  0  0  0  0  0  0  0  0  0
   32.2450   28.0190   37.6740 H   0  0  0  0  0  0  0  0  0  0  0  0
   31.9810   27.8710   35.9370 H   0  0  0  0  0  0  0  0  0  0  0  0
   31.5220   29.8060   36.7810 C   0  0  0  0  0  0  0  0  0  0  0  0
   31.2550   30.8960   35.9230 C   0  0  0  0  0  0  0  0  0  0  0  0
   31.7630   30.8240   34.9800 H   0  0  0  0  0  0  0  0  0  0  0  0
   30.4140   31.8690   36.3900 C   0  0  0  0  0  3  0  0  0  0  0  0
   29.8680   31.7420   37.6670 C   0  0  0  0  0  3  0  0  0  0  0  0
   30.5210   30.1910   38.3290 S   0  0  0  0  0  0  0  0  0  0  0  0
  2  1  1  0  0  0  0
  3  2  1  0  0  0  0
  3 15  1  0  0  0  0
  4  3  2  0  0  0  0
  5  6  2  0  0  0  0
  5  4  1  0  0  0  0
  6  7  1  0  0  0  0
  7 27  1  0  0  0  0
  7  2  2  0  0  0  0
  8  4  1  0  0  0  0
  9  5  1  0  0  0  0
 10  6  1  0  0  0  0
 11 12  1  0  0  0  0
 11 22  1  0  0  0  0
 12 18  1  0  0  0  0
 13 17  1  0  0  0  0
 13 12  2  0  0  0  0
 14 13  1  0  0  0  0
 15 14  2  0  0  0  0
 15 16  1  0  0  0  0
 16 11  2  0  0  0  0
 18 20  1  0  0  0  0
 18 21  1  0  0  0  0
 19 18  1  0  0  0  0
 22 23  1  0  0  0  0
 23 24  1  0  0  0  0
 23 26  1  0  0  0  0
 25 23  1  0  0  0  0
 27 30  1  0  0  0  0
 27 28  1  0  0  0  0
 29 27  1  0  0  0  0
 30 35  1  0  0  0  0
 31 33  1  0  0  0  0
 31 30  2  0  0  0  0
 32 31  1  0  0  0  0
 33 34  2  0  0  0  0
 34 35  1  0  0  0  0
M  END
>  <minimizedAffinity>
-6.22241211

$$$$

 OpenBabel03252504193D

 35 37  0  0  0  0  0  0  0  0999 V2000
   33.3670   28.2860   38.0660 F   0  0  0  0  0  0  0  0  0  0  0  0
   34.3230   28.6880   37.1720 C   0  0  0  0  0  0  0  0  0  0  0  0
   35.6270   28.8650   37.5950 C   0  0  0  0  0  0  0  0  0  0  0  0
   36.5340   29.2740   36.6250 C   0  0  0  0  0  0  0  0  0  0  0  0
   36.1410   29.4850   35.3310 C   0  0  0  0  0  0  0  0  0  0  0  0
   34.8160   29.2910   34.9620 C   0  0  0  0  0  0  0  0  0  0  0  0
   33.8710   28.8830   35.8940 C   0  0  0  0  0  0  0  0  0  0  0  0
   37.5790   29.4320   36.8910 H   0  0  0  0  0  0  0  0  0  0  0  0
   36.8100   29.8070   34.5270 H   0  0  0  0  0  0  0  0  0  0  0  0
   34.4710   29.4490   33.9430 H   0  0  0  0  0  0  0  0  0  0  0  0
   36.9600   27.1650   40.5340 C   0  0  0  0  0  0  0  0  0  0  0  0
   36.7920   28.1010   41.5590 C   0  0  0  0  0  0  0  0  0  0  0  0
   36.2070   29.3410   41.2210 C   0  0  0  0  0  0  0  0  0  0  0  0
   35.8360   29.5720   39.9410 N   0  0  0  0  0  0  0  0  0  0  0  0
   36.0190   28.6330   38.9780 C   0  0  0  0  0  0  0  0  0  0  0  0
   36.5720   27.4550   39.2830 N   0  0  0  0  0  0  0  0  0  0  0  0
   36.0770   30.0560   42.0020 H   0  0  0  0  0  0  0  0  0  0  0  0
   37.2200   27.7760   42.9280 C   0  0  0  0  0  0  0  0  0  0  0  0
   37.3200   28.9380   43.6790 F   0  0  0  0  0  0  0  0  0  0  0  0
   36.2230   27.0030   43.5140 F   0  0  0  0  0  0  0  0  0  0  0  0
   38.3970   27.1140   43.0220 F   0  0  0  0  0  0  0  0  0  0  0  0
   37.5170   25.9900   40.8630 O   0  0  0  0  0  0  0  0  0  0  0  0
   36.8730   24.7210   40.8690 C   0  0  0  0  0  0  0  0  0  0  0  0
   37.7820   23.8030   40.3720 F   0  0  0  0  0  0  0  0  0  0  0  0
   36.4410   24.4210   42.1250 F   0  0  0  0  0  0  0  0  0  0  0  0
   35.8550   24.7380   39.9360 F   0  0  0  0  0  0  0  0  0  0  0  0
   32.4430   28.6730   35.5100 C   0  0  0  0  0  0  0  0  0  0  0  0
   32.0770   27.8690   36.2160 H   0  0  0  0  0  0  0  0  0  0  0  0
   32.3200   28.2260   34.5070 H   0  0  0  0  0  0  0  0  0  0  0  0
   31.6950   29.8990   35.7210 C   0  0  0  0  0  0  0  0  0  0  0  0
   31.0310   30.5020   36.8120 C   0  0  0  0  0  0  0  0  0  0  0  0
   31.0820   29.9180   37.7110 H   0  0  0  0  0  0  0  0  0  0  0  0
   30.4290   31.7100   36.5880 C   0  0  0  0  0  3  0  0  0  0  0  0
   30.4980   32.2820   35.3190 C   0  0  0  0  0  3  0  0  0  0  0  0
   31.4480   31.1200   34.3080 S   0  0  0  0  0  0  0  0  0  0  0  0
  2  3  1  0  0  0  0
  2  1  1  0  0  0  0
  3 15  1  0  0  0  0
  4  8  1  0  0  0  0
  4  3  2  0  0  0  0
  5  4  1  0  0  0  0
  6  5  2  0  0  0  0
  6  7  1  0  0  0  0
  7  2  2  0  0  0  0
  9  5  1  0  0  0  0
 10  6  1  0  0  0  0
 11 22  1  0  0  0  0
 11 12  1  0  0  0  0
 12 18  1  0  0  0  0
 13 12  2  0  0  0  0
 13 17  1  0  0  0  0
 14 13  1  0  0  0  0
 15 16  1  0  0  0  0
 15 14  2  0  0  0  0
 16 11  2  0  0  0  0
 18 21  1  0  0  0  0
 18 20  1  0  0  0  0
 18 19  1  0  0  0  0
 22 23  1  0  0  0  0
 23 25  1  0  0  0  0
 24 23  1  0  0  0  0
 26 23  1  0  0  0  0
 27 30  1  0  0  0  0
 27  7  1  0  0  0  0
 27 28  1  0  0  0  0
 29 27  1  0  0  0  0
 30 31  2  0  0  0  0
 31 32  1  0  0  0  0
 33 31  1  0  0  0  0
 34 33  2  0  0  0  0
 35 34  1  0  0  0  0
 35 30  1  0  0  0  0
M  END
>  <minimizedAffinity>
-6.16585922

$$$$

 OpenBabel03252504193D

 35 37  0  0  0  0  0  0  0  0999 V2000
   33.3180   28.9410   38.7770 F   0  0  0  0  0  0  0  0  0  0  0  0
   34.0600   29.0230   37.6300 C   0  0  0  0  0  0  0  0  0  0  0  0
   35.4370   29.1110   37.7090 C   0  0  0  0  0  0  0  0  0  0  0  0
   36.1150   29.1910   36.4990 C   0  0  0  0  0  0  0  0  0  0  0  0
   35.4420   29.1830   35.3070 C   0  0  0  0  0  0  0  0  0  0  0  0
   34.0550   29.0930   35.2880 C   0  0  0  0  0  0  0  0  0  0  0  0
   33.3320   29.0110   36.4710 C   0  0  0  0  0  0  0  0  0  0  0  0
   37.2030   29.2610   36.4890 H   0  0  0  0  0  0  0  0  0  0  0  0
   35.9220   29.2440   34.3260 H   0  0  0  0  0  0  0  0  0  0  0  0
   33.4900   29.0840   34.3590 H   0  0  0  0  0  0  0  0  0  0  0  0
   36.6960   27.9310   40.9230 C   0  0  0  0  0  0  0  0  0  0  0  0
   37.4050   29.0280   41.4200 C   0  0  0  0  0  0  0  0  0  0  0  0
   37.4460   30.1940   40.6260 C   0  0  0  0  0  0  0  0  0  0  0  0
   36.8070   30.2050   39.4330 N   0  0  0  0  0  0  0  0  0  0  0  0
   36.1300   29.1160   38.9900 C   0  0  0  0  0  0  0  0  0  0  0  0
   36.0820   28.0050   39.7320 N   0  0  0  0  0  0  0  0  0  0  0  0
   37.9860   31.0320   41.0040 H   0  0  0  0  0  0  0  0  0  0  0  0
   38.0740   28.9390   42.7270 C   0  0  0  0  0  0  0  0  0  0  0  0
   37.1860   28.4590   43.6800 F   0  0  0  0  0  0  0  0  0  0  0  0
   39.0950   28.0000   42.6210 F   0  0  0  0  0  0  0  0  0  0  0  0
   38.5960   30.1000   43.1880 F   0  0  0  0  0  0  0  0  0  0  0  0
   36.6620   26.8270   41.6850 O   0  0  0  0  0  0  0  0  0  0  0  0
   37.1600   25.5410   41.3320 C   0  0  0  0  0  0  0  0  0  0  0  0
   37.2470   24.8050   42.5010 F   0  0  0  0  0  0  0  0  0  0  0  0
   36.3520   24.9670   40.3960 F   0  0  0  0  0  0  0  0  0  0  0  0
   38.4680   25.6730   40.9100 F   0  0  0  0  0  0  0  0  0  0  0  0
   31.8420   28.9160   36.4630 C   0  0  0  0  0  0  0  0  0  0  0  0
   31.5740   28.6110   37.5180 H   0  0  0  0  0  0  0  0  0  0  0  0
   31.4570   28.0890   35.8380 H   0  0  0  0  0  0  0  0  0  0  0  0
   31.2710   30.2170   36.1600 C   0  0  0  0  0  0  0  0  0  0  0  0
   31.2980   31.1000   35.0580 C   0  0  0  0  0  0  0  0  0  0  0  0
   31.8840   30.7320   34.2380 H   0  0  0  0  0  0  0  0  0  0  0  0
   30.5990   32.2700   35.1770 C   0  0  0  0  0  3  0  0  0  0  0  0
   29.9030   32.5320   36.3560 C   0  0  0  0  0  3  0  0  0  0  0  0
   30.1920   31.1020   37.4250 S   0  0  0  0  0  0  0  0  0  0  0  0
  2  3  1  0  0  0  0
  2  1  1  0  0  0  0
  3 15  1  0  0  0  0
  4  3  2  0  0  0  0
  5  4  1  0  0  0  0
  6  5  2  0  0  0  0
  6  7  1  0  0  0  0
  7  2  2  0  0  0  0
  8  4  1  0  0  0  0
  9  5  1  0  0  0  0
 10  6  1  0  0  0  0
 11 12  1  0  0  0  0
 11 22  1  0  0  0  0
 12 18  1  0  0  0  0
 13 17  1  0  0  0  0
 13 12  2  0  0  0  0
 14 13  1  0  0  0  0
 15 14  2  0  0  0  0
 15 16  1  0  0  0  0
 16 11  2  0  0  0  0
 18 21  1  0  0  0  0
 18 19  1  0  0  0  0
 20 18  1  0  0  0  0
 23 22  1  0  0  0  0
 23 24  1  0  0  0  0
 25 23  1  0  0  0  0
 26 23  1  0  0  0  0
 27  7  1  0  0  0  0
 27 28  1  0  0  0  0
 29 27  1  0  0  0  0
 30 27  1  0  0  0  0
 30 35  1  0  0  0  0
 31 33  1  0  0  0  0
 31 30  2  0  0  0  0
 32 31  1  0  0  0  0
 33 34  2  0  0  0  0
 34 35  1  0  0  0  0
M  END
>  <minimizedAffinity>
-6.04136038

$$$$

 OpenBabel03252504193D

 35 37  0  0  0  0  0  0  0  0999 V2000
   33.5980   28.7760   38.5860 F   0  0  0  0  0  0  0  0  0  0  0  0
   34.1670   28.9930   37.3600 C   0  0  0  0  0  0  0  0  0  0  0  0
   35.5250   29.2300   37.2660 C   0  0  0  0  0  0  0  0  0  0  0  0
   36.0230   29.4400   35.9850 C   0  0  0  0  0  0  0  0  0  0  0  0
   35.2000   29.4110   34.8920 C   0  0  0  0  0  0  0  0  0  0  0  0
   33.8400   29.1680   35.0460 C   0  0  0  0  0  0  0  0  0  0  0  0
   33.2950   28.9520   36.3050 C   0  0  0  0  0  0  0  0  0  0  0  0
   37.0860   29.6330   35.8400 H   0  0  0  0  0  0  0  0  0  0  0  0
   35.5350   29.5700   33.8630 H   0  0  0  0  0  0  0  0  0  0  0  0
   33.1590   29.1380   34.1990 H   0  0  0  0  0  0  0  0  0  0  0  0
   37.3230   30.5290   40.1620 C   0  0  0  0  0  0  0  0  0  0  0  0
   37.9700   29.4020   40.6790 C   0  0  0  0  0  0  0  0  0  0  0  0
   37.7770   28.1750   40.0090 C   0  0  0  0  0  0  0  0  0  0  0  0
   36.9870   28.1350   38.9110 N   0  0  0  0  0  0  0  0  0  0  0  0
   36.3790   29.2550   38.4460 C   0  0  0  0  0  0  0  0  0  0  0  0
   36.5520   30.4250   39.0690 N   0  0  0  0  0  0  0  0  0  0  0  0
   38.2710   27.3140   40.4020 H   0  0  0  0  0  0  0  0  0  0  0  0
   38.8140   29.5250   41.8770 C   0  0  0  0  0  0  0  0  0  0  0  0
   39.3570   28.2900   42.2000 F   0  0  0  0  0  0  0  0  0  0  0  0
   39.8790   30.3640   41.5660 F   0  0  0  0  0  0  0  0  0  0  0  0
   38.1870   30.0070   42.9770 F   0  0  0  0  0  0  0  0  0  0  0  0
   37.5110   31.6910   40.8040 O   0  0  0  0  0  0  0  0  0  0  0  0
   38.1270   32.8600   40.2750 C   0  0  0  0  0  0  0  0  0  0  0  0
   38.7470   33.5060   41.3290 F   0  0  0  0  0  0  0  0  0  0  0  0
   38.9850   32.5240   39.2720 F   0  0  0  0  0  0  0  0  0  0  0  0
   37.1380   33.7350   39.8690 F   0  0  0  0  0  0  0  0  0  0  0  0
   31.8350   28.6920   36.4830 C   0  0  0  0  0  0  0  0  0  0  0  0
   31.7780   28.0200   37.3910 H   0  0  0  0  0  0  0  0  0  0  0  0
   31.3950   28.0840   35.6710 H   0  0  0  0  0  0  0  0  0  0  0  0
   31.1440   29.9410   36.7440 C   0  0  0  0  0  0  0  0  0  0  0  0
   30.9420   31.1500   36.0410 C   0  0  0  0  0  0  0  0  0  0  0  0
   31.4130   31.1600   35.0770 H   0  0  0  0  0  0  0  0  0  0  0  0
   30.1990   32.1170   36.6600 C   0  0  0  0  0  3  0  0  0  0  0  0
   29.6830   31.8710   37.9320 C   0  0  0  0  0  3  0  0  0  0  0  0
   30.2250   30.2010   38.3680 S   0  0  0  0  0  0  0  0  0  0  0  0
  2  1  1  0  0  0  0
  3  2  1  0  0  0  0
  3 15  1  0  0  0  0
  4  3  2  0  0  0  0
  5  6  2  0  0  0  0
  5  4  1  0  0  0  0
  6  7  1  0  0  0  0
  7 27  1  0  0  0  0
  7  2  2  0  0  0  0
  8  4  1  0  0  0  0
  9  5  1  0  0  0  0
 10  6  1  0  0  0  0
 11 12  1  0  0  0  0
 11 22  1  0  0  0  0
 12 18  1  0  0  0  0
 13 17  1  0  0  0  0
 13 12  2  0  0  0  0
 14 13  1  0  0  0  0
 15 14  2  0  0  0  0
 15 16  1  0  0  0  0
 16 11  2  0  0  0  0
 18 19  1  0  0  0  0
 18 21  1  0  0  0  0
 20 18  1  0  0  0  0
 23 22  1  0  0  0  0
 23 24  1  0  0  0  0
 25 23  1  0  0  0  0
 26 23  1  0  0  0  0
 27 30  1  0  0  0  0
 27 28  1  0  0  0  0
 29 27  1  0  0  0  0
 30 35  1  0  0  0  0
 31 33  1  0  0  0  0
 31 30  2  0  0  0  0
 32 31  1  0  0  0  0
 33 34  2  0  0  0  0
 34 35  1  0  0  0  0
M  END
>  <minimizedAffinity>
-5.95133543

$$$$

 OpenBabel03252504193D

 35 37  0  0  0  0  0  0  0  0999 V2000
   37.7250   27.3780   40.4770 F   0  0  0  0  0  0  0  0  0  0  0  0
   38.5940   27.3080   41.5320 C   0  0  0  0  0  0  0  0  0  0  0  0
   39.6770   28.1650   41.5860 C   0  0  0  0  0  0  0  0  0  0  0  0
   40.5100   28.0290   42.6900 C   0  0  0  0  0  0  0  0  0  0  0  0
   40.2570   27.0940   43.6570 C   0  0  0  0  0  0  0  0  0  0  0  0
   39.1530   26.2580   43.5510 C   0  0  0  0  0  0  0  0  0  0  0  0
   38.2900   26.3540   42.4670 C   0  0  0  0  0  0  0  0  0  0  0  0
   41.3820   28.6740   42.7960 H   0  0  0  0  0  0  0  0  0  0  0  0
   40.8770   26.9410   44.5460 H   0  0  0  0  0  0  0  0  0  0  0  0
   38.9230   25.5050   44.3010 H   0  0  0  0  0  0  0  0  0  0  0  0
   39.3800   31.2410   39.6490 C   0  0  0  0  0  0  0  0  0  0  0  0
   40.3140   31.0740   38.6230 C   0  0  0  0  0  0  0  0  0  0  0  0
   41.0570   29.8740   38.6050 C   0  0  0  0  0  0  0  0  0  0  0  0
   40.8410   28.9460   39.5660 N   0  0  0  0  0  0  0  0  0  0  0  0
   39.9220   29.1520   40.5440 C   0  0  0  0  0  0  0  0  0  0  0  0
   39.2110   30.2830   40.5730 N   0  0  0  0  0  0  0  0  0  0  0  0
   41.7700   29.7440   37.8220 H   0  0  0  0  0  0  0  0  0  0  0  0
   40.4930   32.1290   37.6130 C   0  0  0  0  0  0  0  0  0  0  0  0
   41.4940   31.7650   36.7230 F   0  0  0  0  0  0  0  0  0  0  0  0
   39.3160   32.2200   36.8780 F   0  0  0  0  0  0  0  0  0  0  0  0
   40.7950   33.3530   38.1060 F   0  0  0  0  0  0  0  0  0  0  0  0
   38.6780   32.3850   39.6580 O   0  0  0  0  0  0  0  0  0  0  0  0
   37.2640   32.5100   39.5580 C   0  0  0  0  0  0  0  0  0  0  0  0
   36.8650   31.7480   38.4740 F   0  0  0  0  0  0  0  0  0  0  0  0
   36.6770   32.1290   40.7270 F   0  0  0  0  0  0  0  0  0  0  0  0
   36.9600   33.8080   39.1980 F   0  0  0  0  0  0  0  0  0  0  0  0
   37.1010   25.4610   42.3400 C   0  0  0  0  0  0  0  0  0  0  0  0
   36.2930   26.1260   41.9100 H   0  0  0  0  0  0  0  0  0  0  0  0
   36.6900   25.1350   43.3130 H   0  0  0  0  0  0  0  0  0  0  0  0
   37.3980   24.3790   41.4180 C   0  0  0  0  0  0  0  0  0  0  0  0
   38.5020   23.5310   41.1790 C   0  0  0  0  0  0  0  0  0  0  0  0
   39.3330   23.7260   41.8310 H   0  0  0  0  0  0  0  0  0  0  0  0
   38.3740   22.6030   40.1820 C   0  0  0  0  0  3  0  0  0  0  0  0
   37.1820   22.5370   39.4620 C   0  0  0  0  0  3  0  0  0  0  0  0
   36.1150   23.8220   40.1570 S   0  0  0  0  0  0  0  0  0  0  0  0
  1  2  1  0  0  0  0
  2  3  2  0  0  0  0
  2  7  1  0  0  0  0
  3  4  1  0  0  0  0
  4  8  1  0  0  0  0
  4  5  2  0  0  0  0
  5  9  1  0  0  0  0
  6  5  1  0  0  0  0
  6 10  1  0  0  0  0
  7  6  2  0  0  0  0
 11 22  1  0  0  0  0
 11 16  1  0  0  0  0
 12 11  2  0  0  0  0
 13 12  1  0  0  0  0
 13 14  2  0  0  0  0
 14 15  1  0  0  0  0
 15 16  2  0  0  0  0
 15  3  1  0  0  0  0
 17 13  1  0  0  0  0
 18 21  1  0  0  0  0
 18 12  1  0  0  0  0
 19 18  1  0  0  0  0
 20 18  1  0  0  0  0
 23 22  1  0  0  0  0
 23 25  1  0  0  0  0
 24 23  1  0  0  0  0
 26 23  1  0  0  0  0
 27  7  1  0  0  0  0
 27 29  1  0  0  0  0
 28 27  1  0  0  0  0
 30 27  1  0  0  0  0
 31 30  2  0  0  0  0
 31 32  1  0  0  0  0
 33 31  1  0  0  0  0
 34 35  1  0  0  0  0
 34 33  2  0  0  0  0
 35 30  1  0  0  0  0
M  END
>  <minimizedAffinity>
-5.71595287

$$$$

 OpenBabel03252504193D

 35 37  0  0  0  0  0  0  0  0999 V2000
   33.6410   28.1780   37.9610 F   0  0  0  0  0  0  0  0  0  0  0  0
   34.5480   28.7050   37.0810 C   0  0  0  0  0  0  0  0  0  0  0  0
   35.8460   28.9400   37.4940 C   0  0  0  0  0  0  0  0  0  0  0  0
   36.7030   29.4760   36.5390 C   0  0  0  0  0  0  0  0  0  0  0  0
   36.2680   29.7500   35.2710 C   0  0  0  0  0  0  0  0  0  0  0  0
   34.9510   29.4940   34.9120 C   0  0  0  0  0  0  0  0  0  0  0  0
   34.0550   28.9580   35.8290 C   0  0  0  0  0  0  0  0  0  0  0  0
   37.7410   29.6850   36.7970 H   0  0  0  0  0  0  0  0  0  0  0  0
   36.8960   30.1720   34.4800 H   0  0  0  0  0  0  0  0  0  0  0  0
   34.5730   29.6990   33.9130 H   0  0  0  0  0  0  0  0  0  0  0  0
   37.1620   29.4490   40.8570 C   0  0  0  0  0  0  0  0  0  0  0  0
   37.1300   28.1700   41.4190 C   0  0  0  0  0  0  0  0  0  0  0  0
   36.6440   27.1160   40.6160 C   0  0  0  0  0  0  0  0  0  0  0  0
   36.2340   27.3790   39.3530 N   0  0  0  0  0  0  0  0  0  0  0  0
   36.2830   28.6390   38.8490 C   0  0  0  0  0  0  0  0  0  0  0  0
   36.7410   29.6460   39.5980 N   0  0  0  0  0  0  0  0  0  0  0  0
   36.6200   26.1380   41.0420 H   0  0  0  0  0  0  0  0  0  0  0  0
   37.5930   27.9620   42.8000 C   0  0  0  0  0  0  0  0  0  0  0  0
   37.1220   26.7480   43.2770 F   0  0  0  0  0  0  0  0  0  0  0  0
   38.9810   27.8730   42.7750 F   0  0  0  0  0  0  0  0  0  0  0  0
   37.2340   28.9260   43.6790 F   0  0  0  0  0  0  0  0  0  0  0  0
   37.6250   30.4450   41.6270 O   0  0  0  0  0  0  0  0  0  0  0  0
   38.8980   31.0740   41.5230 C   0  0  0  0  0  0  0  0  0  0  0  0
   39.7010   30.2400   40.7640 F   0  0  0  0  0  0  0  0  0  0  0  0
   38.7620   32.3190   40.9880 F   0  0  0  0  0  0  0  0  0  0  0  0
   39.4910   31.0820   42.7700 F   0  0  0  0  0  0  0  0  0  0  0  0
   32.6370   28.6800   35.4560 C   0  0  0  0  0  0  0  0  0  0  0  0
   32.3280   27.8320   36.1380 H   0  0  0  0  0  0  0  0  0  0  0  0
   32.5240   28.2620   34.4390 H   0  0  0  0  0  0  0  0  0  0  0  0
   31.8230   29.8530   35.7200 C   0  0  0  0  0  0  0  0  0  0  0  0
   31.1740   30.3990   36.8500 C   0  0  0  0  0  0  0  0  0  0  0  0
   31.3050   29.8080   37.7370 H   0  0  0  0  0  0  0  0  0  0  0  0
   30.4870   31.5690   36.6720 C   0  0  0  0  0  3  0  0  0  0  0  0
   30.4600   32.1590   35.4100 C   0  0  0  0  0  3  0  0  0  0  0  0
   31.4330   31.0730   34.3390 S   0  0  0  0  0  0  0  0  0  0  0  0
  2  3  1  0  0  0  0
  2  1  1  0  0  0  0
  3 15  1  0  0  0  0
  4  8  1  0  0  0  0
  4  3  2  0  0  0  0
  5  4  1  0  0  0  0
  6  5  2  0  0  0  0
  6  7  1  0  0  0  0
  7  2  2  0  0  0  0
  9  5  1  0  0  0  0
 10  6  1  0  0  0  0
 11 12  1  0  0  0  0
 11 22  1  0  0  0  0
 12 18  1  0  0  0  0
 13 17  1  0  0  0  0
 13 12  2  0  0  0  0
 14 13  1  0  0  0  0
 15 14  2  0  0  0  0
 15 16  1  0  0  0  0
 16 11  2  0  0  0  0
 18 19  1  0  0  0  0
 18 21  1  0  0  0  0
 20 18  1  0  0  0  0
 23 22  1  0  0  0  0
 23 26  1  0  0  0  0
 24 23  1  0  0  0  0
 25 23  1  0  0  0  0
 27 30  1  0  0  0  0
 27  7  1  0  0  0  0
 27 28  1  0  0  0  0
 29 27  1  0  0  0  0
 30 31  2  0  0  0  0
 31 32  1  0  0  0  0
 33 31  1  0  0  0  0
 34 33  2  0  0  0  0
 35 34  1  0  0  0  0
 35 30  1  0  0  0  0
M  END
>  <minimizedAffinity>
-5.7140727

$$$$

 OpenBabel03252504193D

 35 37  0  0  0  0  0  0  0  0999 V2000
   39.4780   27.0880   40.7020 F   0  0  0  0  0  0  0  0  0  0  0  0
   38.4840   27.2110   41.6350 C   0  0  0  0  0  0  0  0  0  0  0  0
   38.1070   28.4670   42.0740 C   0  0  0  0  0  0  0  0  0  0  0  0
   37.0910   28.5030   43.0220 C   0  0  0  0  0  0  0  0  0  0  0  0
   36.5090   27.3530   43.4820 C   0  0  0  0  0  0  0  0  0  0  0  0
   36.9280   26.1170   43.0050 C   0  0  0  0  0  0  0  0  0  0  0  0
   37.9400   26.0270   42.0580 C   0  0  0  0  0  0  0  0  0  0  0  0
   36.7450   29.4610   43.4110 H   0  0  0  0  0  0  0  0  0  0  0  0
   35.7080   27.3210   44.2260 H   0  0  0  0  0  0  0  0  0  0  0  0
   36.4870   25.1850   43.3490 H   0  0  0  0  0  0  0  0  0  0  0  0
   39.0090   31.1520   39.7760 C   0  0  0  0  0  0  0  0  0  0  0  0
   39.8890   31.9400   40.5220 C   0  0  0  0  0  0  0  0  0  0  0  0
   40.1720   31.5320   41.8430 C   0  0  0  0  0  0  0  0  0  0  0  0
   39.5910   30.4100   42.3290 N   0  0  0  0  0  0  0  0  0  0  0  0
   38.7420   29.6750   41.5670 C   0  0  0  0  0  0  0  0  0  0  0  0
   38.4640   30.0500   40.3150 N   0  0  0  0  0  0  0  0  0  0  0  0
   40.8440   32.1320   42.4140 H   0  0  0  0  0  0  0  0  0  0  0  0
   40.4820   33.1460   39.9240 C   0  0  0  0  0  0  0  0  0  0  0  0
   41.3740   33.7250   40.8150 F   0  0  0  0  0  0  0  0  0  0  0  0
   41.2210   32.7520   38.8130 F   0  0  0  0  0  0  0  0  0  0  0  0
   39.5950   34.0960   39.5430 F   0  0  0  0  0  0  0  0  0  0  0  0
   38.7450   31.5470   38.5210 O   0  0  0  0  0  0  0  0  0  0  0  0
   37.4750   31.9280   38.0040 C   0  0  0  0  0  0  0  0  0  0  0  0
   36.6610   30.8110   38.0640 F   0  0  0  0  0  0  0  0  0  0  0  0
   36.9840   32.9890   38.7040 F   0  0  0  0  0  0  0  0  0  0  0  0
   37.6080   32.1860   36.6540 F   0  0  0  0  0  0  0  0  0  0  0  0
   38.4010   24.7060   41.5380 C   0  0  0  0  0  0  0  0  0  0  0  0
   38.3850   24.0270   42.4430 H   0  0  0  0  0  0  0  0  0  0  0  0
   39.4590   24.7030   41.2200 H   0  0  0  0  0  0  0  0  0  0  0  0
   37.4670   24.2230   40.5370 C   0  0  0  0  0  0  0  0  0  0  0  0
   36.4170   24.7870   39.7790 C   0  0  0  0  0  0  0  0  0  0  0  0
   36.2580   25.8280   39.9890 H   0  0  0  0  0  0  0  0  0  0  0  0
   35.7610   23.9620   38.9070 C   0  0  0  0  0  3  0  0  0  0  0  0
   36.1520   22.6280   38.8050 C   0  0  0  0  0  3  0  0  0  0  0  0
   37.5200   22.4260   39.9720 S   0  0  0  0  0  0  0  0  0  0  0  0
  1  2  1  0  0  0  0
  2  7  2  0  0  0  0
  2  3  1  0  0  0  0
  3  4  2  0  0  0  0
  4  8  1  0  0  0  0
  4  5  1  0  0  0  0
  5  9  1  0  0  0  0
  6 10  1  0  0  0  0
  6  5  2  0  0  0  0
  7  6  1  0  0  0  0
 11 16  2  0  0  0  0
 11 12  1  0  0  0  0
 12 13  2  0  0  0  0
 13 14  1  0  0  0  0
 13 17  1  0  0  0  0
 15  3  1  0  0  0  0
 15 14  2  0  0  0  0
 16 15  1  0  0  0  0
 18 12  1  0  0  0  0
 18 19  1  0  0  0  0
 20 18  1  0  0  0  0
 21 18  1  0  0  0  0
 22 11  1  0  0  0  0
 23 24  1  0  0  0  0
 23 22  1  0  0  0  0
 23 25  1  0  0  0  0
 26 23  1  0  0  0  0
 27  7  1  0  0  0  0
 27 28  1  0  0  0  0
 29 27  1  0  0  0  0
 30 27  1  0  0  0  0
 31 32  1  0  0  0  0
 31 30  2  0  0  0  0
 33 31  1  0  0  0  0
 34 33  2  0  0  0  0
 34 35  1  0  0  0  0
 35 30  1  0  0  0  0
M  END
>  <minimizedAffinity>
-5.67835569

$$$$

 OpenBabel03252504193D

 35 37  0  0  0  0  0  0  0  0999 V2000
   37.0000   28.2410   40.7560 F   0  0  0  0  0  0  0  0  0  0  0  0
   36.9190   26.8790   40.8680 C   0  0  0  0  0  0  0  0  0  0  0  0
   36.5730   26.1200   39.7660 C   0  0  0  0  0  0  0  0  0  0  0  0
   36.5130   24.7460   39.9640 C   0  0  0  0  0  0  0  0  0  0  0  0
   36.7830   24.1950   41.1880 C   0  0  0  0  0  0  0  0  0  0  0  0
   37.1260   25.0070   42.2610 C   0  0  0  0  0  0  0  0  0  0  0  0
   37.1990   26.3860   42.1140 C   0  0  0  0  0  0  0  0  0  0  0  0
   36.2470   24.0880   39.1370 H   0  0  0  0  0  0  0  0  0  0  0  0
   36.7510   23.1220   41.4020 H   0  0  0  0  0  0  0  0  0  0  0  0
   37.3470   24.6010   43.2460 H   0  0  0  0  0  0  0  0  0  0  0  0
   36.8160   28.4160   36.9410 C   0  0  0  0  0  0  0  0  0  0  0  0
   35.8350   27.9550   36.0590 C   0  0  0  0  0  0  0  0  0  0  0  0
   35.0790   26.8300   36.4520 C   0  0  0  0  0  0  0  0  0  0  0  0
   35.3280   26.2500   37.6490 N   0  0  0  0  0  0  0  0  0  0  0  0
   36.2910   26.7320   38.4750 C   0  0  0  0  0  0  0  0  0  0  0  0
   37.0150   27.7970   38.1150 N   0  0  0  0  0  0  0  0  0  0  0  0
   34.3300   26.4770   35.7800 H   0  0  0  0  0  0  0  0  0  0  0  0
   35.6230   28.6390   34.7740 C   0  0  0  0  0  0  0  0  0  0  0  0
   35.0800   29.8970   34.9940 F   0  0  0  0  0  0  0  0  0  0  0  0
   36.8680   28.8370   34.1850 F   0  0  0  0  0  0  0  0  0  0  0  0
   34.8250   27.9850   33.8970 F   0  0  0  0  0  0  0  0  0  0  0  0
   37.5300   29.4860   36.5600 O   0  0  0  0  0  0  0  0  0  0  0  0
   37.6030   30.7380   37.2330 C   0  0  0  0  0  0  0  0  0  0  0  0
   36.4560   30.8560   37.9970 F   0  0  0  0  0  0  0  0  0  0  0  0
   38.7470   30.8070   37.9690 F   0  0  0  0  0  0  0  0  0  0  0  0
   37.4990   31.7490   36.2970 F   0  0  0  0  0  0  0  0  0  0  0  0
   37.5650   27.2700   43.2600 C   0  0  0  0  0  0  0  0  0  0  0  0
   37.2790   26.6730   44.1780 H   0  0  0  0  0  0  0  0  0  0  0  0
   36.9430   28.1810   43.3290 H   0  0  0  0  0  0  0  0  0  0  0  0
   38.9960   27.5150   43.2510 C   0  0  0  0  0  0  0  0  0  0  0  0
   40.1450   26.8060   43.6670 C   0  0  0  0  0  0  0  0  0  0  0  0
   39.9160   25.8520   44.1010 H   0  0  0  0  0  0  0  0  0  0  0  0
   41.3570   27.4090   43.4690 C   0  0  0  0  0  3  0  0  0  0  0  0
   41.4030   28.6700   42.8770 C   0  0  0  0  0  3  0  0  0  0  0  0
   39.6830   29.1190   42.5420 S   0  0  0  0  0  0  0  0  0  0  0  0
  1  2  1  0  0  0  0
  2  7  1  0  0  0  0
  3  4  1  0  0  0  0
  3  2  2  0  0  0  0
  4  5  2  0  0  0  0
  5  9  1  0  0  0  0
  5  6  1  0  0  0  0
  6 10  1  0  0  0  0
  7  6  2  0  0  0  0
  7 27  1  0  0  0  0
  8  4  1  0  0  0  0
 11 16  1  0  0  0  0
 12 13  1  0  0  0  0
 12 11  2  0  0  0  0
 13 14  2  0  0  0  0
 14 15  1  0  0  0  0
 15  3  1  0  0  0  0
 16 15  2  0  0  0  0
 17 13  1  0  0  0  0
 18 19  1  0  0  0  0
 18 12  1  0  0  0  0
 20 18  1  0  0  0  0
 21 18  1  0  0  0  0
 22 11  1  0  0  0  0
 22 23  1  0  0  0  0
 23 25  1  0  0  0  0
 23 24  1  0  0  0  0
 26 23  1  0  0  0  0
 27 29  1  0  0  0  0
 27 28  1  0  0  0  0
 30 27  1  0  0  0  0
 30 31  2  0  0  0  0
 31 32  1  0  0  0  0
 33 31  1  0  0  0  0
 34 33  2  0  0  0  0
 35 34  1  0  0  0  0
 35 30  1  0  0  0  0
M  END
>  <minimizedAffinity>
-5.58967543

$$$$

 OpenBabel03252504193D

 35 37  0  0  0  0  0  0  0  0999 V2000
   40.3610   30.8210   40.3380 F   0  0  0  0  0  0  0  0  0  0  0  0
   39.3060   31.6510   40.0680 C   0  0  0  0  0  0  0  0  0  0  0  0
   38.0970   31.1130   39.6660 C   0  0  0  0  0  0  0  0  0  0  0  0
   37.0780   32.0240   39.4120 C   0  0  0  0  0  0  0  0  0  0  0  0
   37.2790   33.3700   39.5550 C   0  0  0  0  0  0  0  0  0  0  0  0
   38.5160   33.8540   39.9610 C   0  0  0  0  0  0  0  0  0  0  0  0
   39.5660   32.9850   40.2270 C   0  0  0  0  0  0  0  0  0  0  0  0
   36.0990   31.6680   39.0920 H   0  0  0  0  0  0  0  0  0  0  0  0
   36.5150   34.1310   39.3680 H   0  0  0  0  0  0  0  0  0  0  0  0
   38.7090   34.9170   40.0840 H   0  0  0  0  0  0  0  0  0  0  0  0
   37.3120   27.6610   40.5440 C   0  0  0  0  0  0  0  0  0  0  0  0
   37.5280   26.9630   39.3530 C   0  0  0  0  0  0  0  0  0  0  0  0
   37.9530   27.7040   38.2300 C   0  0  0  0  0  0  0  0  0  0  0  0
   38.1320   29.0400   38.3460 N   0  0  0  0  0  0  0  0  0  0  0  0
   37.9100   29.6760   39.5240 C   0  0  0  0  0  0  0  0  0  0  0  0
   37.5070   28.9880   40.5960 N   0  0  0  0  0  0  0  0  0  0  0  0
   38.1190   27.1720   37.3200 H   0  0  0  0  0  0  0  0  0  0  0  0
   37.3110   25.5080   39.3050 C   0  0  0  0  0  0  0  0  0  0  0  0
   35.9730   25.2230   39.5330 F   0  0  0  0  0  0  0  0  0  0  0  0
   37.6000   25.0770   38.0150 F   0  0  0  0  0  0  0  0  0  0  0  0
   38.0490   24.7860   40.1810 F   0  0  0  0  0  0  0  0  0  0  0  0
   36.9080   26.9490   41.6070 O   0  0  0  0  0  0  0  0  0  0  0  0
   37.1010   27.2900   42.9760 C   0  0  0  0  0  0  0  0  0  0  0  0
   36.0140   26.7950   43.6740 F   0  0  0  0  0  0  0  0  0  0  0  0
   38.2910   26.7960   43.4180 F   0  0  0  0  0  0  0  0  0  0  0  0
   37.0000   28.6610   43.1090 F   0  0  0  0  0  0  0  0  0  0  0  0
   40.9010   33.4930   40.6630 C   0  0  0  0  0  0  0  0  0  0  0  0
   41.2800   32.7080   41.3830 H   0  0  0  0  0  0  0  0  0  0  0  0
   40.8430   34.4120   41.2740 H   0  0  0  0  0  0  0  0  0  0  0  0
   41.7860   33.5860   39.5160 C   0  0  0  0  0  0  0  0  0  0  0  0
   41.7130   34.1590   38.2270 C   0  0  0  0  0  0  0  0  0  0  0  0
   40.7760   34.6470   38.0360 H   0  0  0  0  0  0  0  0  0  0  0  0
   42.8080   34.0230   37.4180 C   0  0  0  0  0  3  0  0  0  0  0  0
   43.9260   33.3390   37.8940 C   0  0  0  0  0  3  0  0  0  0  0  0
   43.5050   32.8160   39.5740 S   0  0  0  0  0  0  0  0  0  0  0  0
  2  7  1  0  0  0  0
  2  1  1  0  0  0  0
  3  2  2  0  0  0  0
  4  5  2  0  0  0  0
  4  3  1  0  0  0  0
  5  6  1  0  0  0  0
  6 10  1  0  0  0  0
  6  7  2  0  0  0  0
  7 27  1  0  0  0  0
  8  4  1  0  0  0  0
  9  5  1  0  0  0  0
 11 16  1  0  0  0  0
 11 22  1  0  0  0  0
 12 11  2  0  0  0  0
 13 14  2  0  0  0  0
 13 12  1  0  0  0  0
 14 15  1  0  0  0  0
 15  3  1  0  0  0  0
 15 16  2  0  0  0  0
 17 13  1  0  0  0  0
 18 12  1  0  0  0  0
 18 19  1  0  0  0  0
 18 21  1  0  0  0  0
 20 18  1  0  0  0  0
 22 23  1  0  0  0  0
 23 26  1  0  0  0  0
 23 25  1  0  0  0  0
 23 24  1  0  0  0  0
 27 29  1  0  0  0  0
 27 28  1  0  0  0  0
 30 35  1  0  0  0  0
 30 27  1  0  0  0  0
 31 30  2  0  0  0  0
 32 31  1  0  0  0  0
 33 34  2  0  0  0  0
 33 31  1  0  0  0  0
 34 35  1  0  0  0  0
M  END
>  <minimizedAffinity>
-5.58127737

$$$$
