
 OpenBabel03252509233D

 24 26  0  0  1  0  0  0  0  0999 V2000
   46.5680   35.0600   41.9220 C   0  0  1  0  0  0  0  0  0  0  0  0
   48.1000   35.3070   41.9110 C   0  0  0  0  0  0  0  0  0  0  0  0
   47.3750   34.0630   41.3150 C   0  0  2  0  0  0  0  0  0  0  0  0
   45.9970   35.8410   41.3870 H   0  0  0  0  0  0  0  0  0  0  0  0
   48.4170   36.0600   41.1720 H   0  0  0  0  0  0  0  0  0  0  0  0
   48.6700   35.1950   42.8280 H   0  0  0  0  0  0  0  0  0  0  0  0
   47.6140   33.1470   41.9060 H   0  0  0  0  0  0  0  0  0  0  0  0
   44.6850   35.3450   45.1520 C   0  0  0  0  0  0  0  0  0  0  0  0
   45.1310   35.6820   43.8320 C   0  0  0  0  0  0  0  0  0  0  0  0
   46.0840   34.8280   43.3410 C   0  0  0  0  0  0  0  0  0  0  0  0
   46.5570   33.7520   44.0740 N   0  0  0  0  0  0  0  0  0  0  0  0
   46.0990   33.4920   45.3040 C   0  0  0  0  0  0  0  0  0  0  0  0
   45.1510   34.2990   45.8490 N   0  0  0  0  0  0  0  0  0  0  0  0
   43.9420   35.9730   45.5900 H   0  0  0  0  0  0  0  0  0  0  0  0
   46.5980   32.6150   45.6890 H   0  0  0  0  0  0  0  0  0  0  0  0
   44.6430   36.8000   43.1110 N   0  0  0  0  0  0  0  0  0  0  0  0
   45.1140   37.6460   43.5280 H   0  0  0  0  0  0  0  0  0  0  0  0
   43.9570   36.8190   42.3220 H   0  0  0  0  0  0  0  0  0  0  0  0
   47.3690   33.9200   39.8630 C   0  0  0  0  0  0  0  0  0  0  0  0
   48.1950   34.3080   38.8680 C   0  0  0  0  0  0  0  0  0  0  0  0
   49.0750   34.8530   39.1740 H   0  0  0  0  0  0  0  0  0  0  0  0
   47.8840   34.0020   37.5650 C   0  0  0  0  0  3  0  0  0  0  0  0
   46.6890   33.2820   37.3550 C   0  0  0  0  0  3  0  0  0  0  0  0
   46.0200   33.0530   39.0420 S   0  0  0  0  0  0  0  0  0  0  0  0
  1  4  1  6  0  0  0
  1 10  1  0  0  0  0
  2  1  1  0  0  0  0
  2  6  1  0  0  0  0
  3  7  1  1  0  0  0
  3  2  1  0  0  0  0
  3  1  1  0  0  0  0
  5  2  1  0  0  0  0
  8 14  1  0  0  0  0
  8 13  1  0  0  0  0
  9  8  2  0  0  0  0
 10  9  1  0  0  0  0
 10 11  2  0  0  0  0
 11 12  1  0  0  0  0
 12 15  1  0  0  0  0
 12 13  2  0  0  0  0
 16 17  1  0  0  0  0
 16  9  1  0  0  0  0
 18 16  1  0  0  0  0
 19  3  1  0  0  0  0
 20 21  1  0  0  0  0
 20 19  2  0  0  0  0
 22 20  1  0  0  0  0
 23 22  2  0  0  0  0
 23 24  1  0  0  0  0
 24 19  1  0  0  0  0
M  END
>  <minimizedAffinity>
-5.10125017

>  <minimizedRMSD>
0.190639198

$$$$
