
 OpenBabel03252504533D

 18 19  0  0  0  0  0  0  0  0999 V2000
   44.6280   35.9760   44.4200 C   0  0  0  0  0  0  0  0  0  0  0  0
   45.2870   35.9240   43.1790 C   0  0  0  0  0  0  0  0  0  0  0  0
   46.1550   34.8590   42.9750 C   0  0  0  0  0  0  0  0  0  0  0  0
   46.3220   33.9320   43.9770 N   0  0  0  0  0  0  0  0  0  0  0  0
   45.6610   34.0350   45.1500 C   0  0  0  0  0  0  0  0  0  0  0  0
   44.8190   35.0530   45.3670 N   0  0  0  0  0  0  0  0  0  0  0  0
   43.9540   36.8230   44.5480 H   0  0  0  0  0  0  0  0  0  0  0  0
   45.1360   36.6580   42.4220 H   0  0  0  0  0  0  0  0  0  0  0  0
   45.7950   33.3030   45.9350 H   0  0  0  0  0  0  0  0  0  0  0  0
   46.8420   34.8020   41.6830 C   0  0  0  0  0  0  0  0  0  0  0  0
   46.2850   34.1810   40.9460 H   0  0  0  0  0  0  0  0  0  0  0  0
   46.9780   35.8220   41.2790 H   0  0  0  0  0  0  0  0  0  0  0  0
   48.1690   34.1640   41.8560 C   0  0  0  0  0  0  0  0  0  0  0  0
   48.5780   32.8940   41.5940 C   0  0  0  0  0  0  0  0  0  0  0  0
   47.8530   32.1990   41.1940 H   0  0  0  0  0  0  0  0  0  0  0  0
   49.8890   32.5760   41.8560 C   0  0  0  0  0  3  0  0  0  0  0  0
   50.7170   33.5250   42.3600 C   0  0  0  0  0  3  0  0  0  0  0  0
   49.6130   35.0000   42.4940 S   0  0  0  0  0  0  0  0  0  0  0  0
  1  7  1  0  0  0  0
  1  6  1  0  0  0  0
  2  1  2  0  0  0  0
  3  2  1  0  0  0  0
  3  4  2  0  0  0  0
  4  5  1  0  0  0  0
  5  6  2  0  0  0  0
  5  9  1  0  0  0  0
  8  2  1  0  0  0  0
 10 13  1  0  0  0  0
 10  3  1  0  0  0  0
 11 10  1  0  0  0  0
 12 10  1  0  0  0  0
 13 18  1  0  0  0  0
 14 16  1  0  0  0  0
 14 13  2  0  0  0  0
 15 14  1  0  0  0  0
 16 17  2  0  0  0  0
 17 18  1  0  0  0  0
M  END
>  <minimizedAffinity>
-4.14093828

>  <minimizedRMSD>
1.88622463

$$$$
