
 OpenBabel03252507033D

 44 47  0  0  0  0  0  0  0  0999 V2000
   42.1670   31.7560   41.9390 C   0  0  0  0  0  0  0  0  0  0  0  0
   41.7100   32.2870   42.8000 H   0  0  0  0  0  0  0  0  0  0  0  0
   42.2290   32.5660   41.1340 H   0  0  0  0  0  0  0  0  0  0  0  0
   41.4740   30.6780   41.5500 N   0  0  0  0  0  0  0  0  0  0  0  0
   41.2230   29.4940   42.3140 C   0  0  0  0  0  0  0  0  0  0  0  0
   39.7540   29.7470   42.6590 C   0  0  0  0  0  0  0  0  0  0  0  0
   38.8910   29.8600   41.4950 C   0  0  0  0  0  0  0  0  0  0  0  0
   39.4640   30.2770   40.2350 C   0  0  0  0  0  0  0  0  0  0  0  0
   40.8910   30.7630   40.1960 C   0  0  0  0  0  0  0  0  0  0  0  0
   41.8070   29.5560   43.2620 H   0  0  0  0  0  0  0  0  0  0  0  0
   41.3620   28.5340   41.8500 H   0  0  0  0  0  0  0  0  0  0  0  0
   39.7570   30.7170   43.2180 H   0  0  0  0  0  0  0  0  0  0  0  0
   39.4410   28.9760   43.3900 H   0  0  0  0  0  0  0  0  0  0  0  0
   38.3850   28.8690   41.3170 H   0  0  0  0  0  0  0  0  0  0  0  0
   38.0300   30.5480   41.7330 H   0  0  0  0  0  0  0  0  0  0  0  0
   38.9640   30.2970   39.3140 H   0  0  0  0  0  0  0  0  0  0  0  0
   41.6740   31.3490   38.7780 S   0  0  0  0  0  0  0  0  0  0  0  0
   41.8650   32.9980   38.5890 C   0  0  0  0  0  0  0  0  0  0  0  0
   42.5540   34.1850   38.5760 C   0  0  0  0  0  0  0  0  0  0  0  0
   43.5640   33.9760   38.8250 H   0  0  0  0  0  0  0  0  0  0  0  0
   41.9950   35.3840   38.2860 C   0  0  0  0  0  3  0  0  0  0  0  0
   40.5530   35.3720   37.9700 C   0  0  0  0  0  3  0  0  0  0  0  0
   40.1810   33.5210   38.1450 S   0  0  0  0  0  0  0  0  0  0  0  0
   43.5860   31.4640   42.2690 C   0  0  0  0  0  0  0  0  0  0  0  0
   44.0210   30.6290   41.6840 H   0  0  0  0  0  0  0  0  0  0  0  0
   43.6250   31.1330   43.3270 H   0  0  0  0  0  0  0  0  0  0  0  0
   44.3540   32.7170   42.1520 C   0  0  0  0  0  0  0  0  0  0  0  0
   43.7070   33.9200   41.9700 C   0  0  0  0  0  0  0  0  0  0  0  0
   44.4770   35.0650   41.8550 C   0  0  0  0  0  0  0  0  0  0  0  0
   45.8400   34.9460   41.9310 N   0  0  0  0  0  0  0  0  0  0  0  0
   46.4240   33.7660   42.1090 C   0  0  0  0  0  0  0  0  0  0  0  0
   45.6650   32.6730   42.2160 N   0  0  0  0  0  0  0  0  0  0  0  0
   42.6760   34.2190   41.9030 H   0  0  0  0  0  0  0  0  0  0  0  0
   44.1520   36.0910   41.7070 H   0  0  0  0  0  0  0  0  0  0  0  0
   47.8840   33.7330   42.2050 C   0  0  0  0  0  0  0  0  0  0  0  0
   48.5590   32.5220   42.1690 C   0  0  0  0  0  0  0  0  0  0  0  0
   49.9430   32.5080   42.2740 C   0  0  0  0  0  0  0  0  0  0  0  0
   50.5250   33.7540   42.4100 C   0  0  0  0  0  0  0  0  0  0  0  0
   49.8800   34.9750   42.4490 C   0  0  0  0  0  0  0  0  0  0  0  0
   48.5310   34.9010   42.3400 N   0  0  0  0  0  0  0  0  0  0  0  0
   48.0430   31.5770   42.0590 H   0  0  0  0  0  0  0  0  0  0  0  0
   50.5520   31.6160   42.2550 H   0  0  0  0  0  0  0  0  0  0  0  0
   51.6110   33.7840   42.4960 H   0  0  0  0  0  0  0  0  0  0  0  0
   50.4130   35.8890   42.5570 H   0  0  0  0  0  0  0  0  0  0  0  0
  1 24  1  0  0  0  0
  1  2  1  0  0  0  0
  3  1  1  0  0  0  0
  4  1  1  0  0  0  0
  4  5  1  0  0  0  0
  5  6  1  0  0  0  0
  5 10  1  0  0  0  0
  6 12  1  0  0  0  0
  6 13  1  0  0  0  0
  7 15  1  0  0  0  0
  7  6  1  0  0  0  0
  8  7  1  0  0  0  0
  9  8  2  0  0  0  0
  9  4  1  0  0  0  0
 11  5  1  0  0  0  0
 14  7  1  0  0  0  0
 16  8  1  0  0  0  0
 17  9  1  0  0  0  0
 18 17  1  0  0  0  0
 19 18  2  0  0  0  0
 19 20  1  0  0  0  0
 21 19  1  0  0  0  0
 22 23  1  0  0  0  0
 22 21  2  0  0  0  0
 23 18  1  0  0  0  0
 24 26  1  0  0  0  0
 25 24  1  0  0  0  0
 27 32  1  0  0  0  0
 27 24  1  0  0  0  0
 28 27  2  0  0  0  0
 29 30  2  0  0  0  0
 29 28  1  0  0  0  0
 30 31  1  0  0  0  0
 31 35  1  0  0  0  0
 31 32  2  0  0  0  0
 33 28  1  0  0  0  0
 34 29  1  0  0  0  0
 35 40  1  0  0  0  0
 36 35  2  0  0  0  0
 36 37  1  0  0  0  0
 37 38  2  0  0  0  0
 38 39  1  0  0  0  0
 38 43  1  0  0  0  0
 39 44  1  0  0  0  0
 40 39  2  0  0  0  0
 41 36  1  0  0  0  0
 42 37  1  0  0  0  0
M  END
>  <minimizedAffinity>
-4.77499437

>  <minimizedRMSD>
2.71908855

$$$$
