
 OpenBabel03252504413D

 42 45  0  0  0  0  0  0  0  0999 V2000
   46.3960   32.1660   47.8030 C   0  0  0  0  0  0  0  0  0  0  0  0
   45.9330   31.8350   49.0410 C   0  0  0  0  0  0  0  0  0  0  0  0
   46.9000   31.1340   49.6320 N   0  0  0  0  0  0  0  0  0  0  0  0
   47.9530   31.0060   48.8310 C   0  0  0  0  0  0  0  0  0  0  0  0
   47.6370   31.6580   47.6710 N   0  0  0  0  0  0  0  0  0  0  0  0
   49.2160   30.3570   49.0080 N   0  0  0  0  0  0  0  0  0  0  0  0
   50.3060   31.1620   49.6060 C   0  0  0  0  0  0  0  0  0  0  0  0
   50.4140   30.6680   51.0430 C   0  0  0  0  0  0  0  0  0  0  0  0
   50.4350   29.1560   51.0670 C   0  0  0  0  0  0  0  0  0  0  0  0
   50.7690   28.6320   49.6790 C   0  0  0  0  0  0  0  0  0  0  0  0
   49.6690   29.0370   48.7160 C   0  0  0  0  0  0  0  0  0  0  0  0
   44.9580   32.1020   49.4470 H   0  0  0  0  0  0  0  0  0  0  0  0
   46.8560   30.7310   50.6000 H   0  0  0  0  0  0  0  0  0  0  0  0
   51.2640   30.9940   49.0890 H   0  0  0  0  0  0  0  0  0  0  0  0
   50.0170   32.2260   49.6540 H   0  0  0  0  0  0  0  0  0  0  0  0
   51.3360   31.0320   51.5490 H   0  0  0  0  0  0  0  0  0  0  0  0
   49.5370   31.0410   51.6340 H   0  0  0  0  0  0  0  0  0  0  0  0
   49.4260   28.7800   51.3160 H   0  0  0  0  0  0  0  0  0  0  0  0
   51.1270   28.7720   51.8190 H   0  0  0  0  0  0  0  0  0  0  0  0
   50.7330   27.5110   49.7670 H   0  0  0  0  0  0  0  0  0  0  0  0
   51.7700   28.9740   49.3360 H   0  0  0  0  0  0  0  0  0  0  0  0
   50.1110   29.0410   47.6990 H   0  0  0  0  0  0  0  0  0  0  0  0
   48.8580   28.2790   48.7110 H   0  0  0  0  0  0  0  0  0  0  0  0
   45.6730   32.9560   46.7730 C   0  0  0  0  0  0  0  0  0  0  0  0
   45.5430   33.9840   47.2060 H   0  0  0  0  0  0  0  0  0  0  0  0
   44.6690   32.5350   46.5970 H   0  0  0  0  0  0  0  0  0  0  0  0
   46.1790   33.9270   44.5560 C   0  0  0  0  0  3  0  0  0  0  0  0
   46.4860   33.1190   45.5470 C   0  0  0  0  0  3  0  0  0  0  0  0
   47.0740   33.9880   43.4050 C   0  0  0  0  0  0  0  0  0  0  0  0
   46.9500   34.9940   42.4230 C   0  0  0  0  0  0  0  0  0  0  0  0
   47.8520   34.9630   41.3660 C   0  0  0  0  0  0  0  0  0  0  0  0
   48.8000   33.9930   41.3120 N   0  0  0  0  0  0  0  0  0  0  0  0
   48.8950   33.0450   42.2650 C   0  0  0  0  0  0  0  0  0  0  0  0
   48.0510   33.0410   43.2880 N   0  0  0  0  0  0  0  0  0  0  0  0
   46.1770   35.7120   42.5500 H   0  0  0  0  0  0  0  0  0  0  0  0
   47.7270   35.7490   40.6330 H   0  0  0  0  0  0  0  0  0  0  0  0
   49.9650   32.1120   42.0180 C   0  0  0  0  0  0  0  0  0  0  0  0
   51.0290   32.1950   41.1930 C   0  0  0  0  0  0  0  0  0  0  0  0
   51.1540   33.0840   40.5900 H   0  0  0  0  0  0  0  0  0  0  0  0
   51.9270   31.1560   41.1350 C   0  0  0  0  0  3  0  0  0  0  0  0
   51.6590   30.0570   41.9630 C   0  0  0  0  0  3  0  0  0  0  0  0
   50.1150   30.5200   42.8250 S   0  0  0  0  0  0  0  0  0  0  0  0
  1  2  2  0  0  0  0
  2 12  1  0  0  0  0
  2  3  1  0  0  0  0
  3 13  1  0  0  0  0
  4  6  1  0  0  0  0
  4  3  1  0  0  0  0
  5  1  1  0  0  0  0
  5  4  2  0  0  0  0
  6  7  1  0  0  0  0
  7 15  1  0  0  0  0
  7  8  1  0  0  0  0
  8  9  1  0  0  0  0
  8 16  1  0  0  0  0
  8 17  1  0  0  0  0
  9 18  1  0  0  0  0
  9 19  1  0  0  0  0
 10 20  1  0  0  0  0
 10  9  1  0  0  0  0
 11  6  1  0  0  0  0
 11 10  1  0  0  0  0
 14  7  1  0  0  0  0
 21 10  1  0  0  0  0
 22 11  1  0  0  0  0
 23 11  1  0  0  0  0
 24 25  1  0  0  0  0
 24  1  1  0  0  0  0
 26 24  1  0  0  0  0
 27 28  2  0  0  0  0
 28 24  1  0  0  0  0
 29 27  1  0  0  0  0
 30 35  1  0  0  0  0
 30 29  2  0  0  0  0
 31 30  1  0  0  0  0
 32 31  2  0  0  0  0
 32 33  1  0  0  0  0
 33 34  2  0  0  0  0
 34 29  1  0  0  0  0
 36 31  1  0  0  0  0
 37 33  1  0  0  0  0
 37 42  1  0  0  0  0
 38 37  2  0  0  0  0
 39 38  1  0  0  0  0
 40 38  1  0  0  0  0
 40 41  2  0  0  0  0
 41 42  1  0  0  0  0
M  END
>  <minimizedAffinity>
-5.91278028

>  <minimizedRMSD>
0.407252312

$$$$
