
 OpenBabel03242513323D

 34 37  0  0  0  0  0  0  0  0999 V2000
   37.6570   26.7320   41.5790 C   0  0  0  0  0  0  0  0  0  0  0  0
   38.4870   25.6480   41.7640 C   0  0  0  0  0  0  0  0  0  0  0  0
   39.3150   25.6830   42.8440 C   0  0  0  0  0  0  0  0  0  0  0  0
   39.3340   26.7500   43.7290 C   0  0  0  0  0  0  0  0  0  0  0  0
   38.5000   27.8210   43.5290 C   0  0  0  0  0  0  0  0  0  0  0  0
   37.6350   27.8300   42.4330 C   0  0  0  0  0  0  0  0  0  0  0  0
   39.9730   24.8340   42.9990 H   0  0  0  0  0  0  0  0  0  0  0  0
   40.0000   26.7610   44.5830 H   0  0  0  0  0  0  0  0  0  0  0  0
   38.4480   28.6950   44.1650 H   0  0  0  0  0  0  0  0  0  0  0  0
   37.8630   22.2890   40.1700 C   0  0  0  0  0  0  0  0  0  0  0  0
   37.9120   23.3200   41.1140 C   0  0  0  0  0  0  0  0  0  0  0  0
   38.4240   24.5650   40.8120 C   0  0  0  0  0  0  0  0  0  0  0  0
   38.8730   24.7040   39.5300 N   0  0  0  0  0  0  0  0  0  0  0  0
   38.8270   23.7170   38.6220 C   0  0  0  0  0  0  0  0  0  0  0  0
   38.3200   22.5040   38.9440 N   0  0  0  0  0  0  0  0  0  0  0  0
   37.4630   21.3140   40.4010 H   0  0  0  0  0  0  0  0  0  0  0  0
   37.5370   23.1480   42.1250 H   0  0  0  0  0  0  0  0  0  0  0  0
   39.1960   23.8780   37.6210 H   0  0  0  0  0  0  0  0  0  0  0  0
   36.7880   26.7500   40.4870 O   0  0  0  0  0  0  0  0  0  0  0  0
   36.9800   27.2660   39.6410 H   0  0  0  0  0  0  0  0  0  0  0  0
   36.7740   28.8660   42.1730 O   0  0  0  0  0  0  0  0  0  0  0  0
   37.0930   30.0240   41.5620 C   0  0  0  0  0  0  0  0  0  0  0  0
   36.3080   30.8270   40.7610 C   0  0  0  0  0  0  0  0  0  0  0  0
   36.8310   31.9570   40.2440 C   0  0  0  0  0  0  0  0  0  0  0  0
   38.1810   32.2550   40.5610 C   0  0  0  0  0  0  0  0  0  0  0  0
   38.6720   30.8680   41.6210 S   0  0  0  0  0  0  0  0  0  0  0  0
   35.2830   30.5580   40.5470 H   0  0  0  0  0  0  0  0  0  0  0  0
   36.3810   32.6940   39.6110 H   0  0  0  0  0  0  0  0  0  0  0  0
   39.1090   33.3320   40.2280 C   0  0  0  0  0  0  0  0  0  0  0  0
   38.9360   34.6270   40.4660 C   0  0  0  0  0  0  0  0  0  0  0  0
   38.0330   35.0270   40.9590 H   0  0  0  0  0  0  0  0  0  0  0  0
   39.9130   35.5000   40.0860 C   0  0  0  0  0  3  0  0  0  0  0  0
   41.0410   34.9660   39.4650 C   0  0  0  0  0  3  0  0  0  0  0  0
   40.6230   33.1420   39.4570 S   0  0  0  0  0  0  0  0  0  0  0  0
  1  2  2  0  0  0  0
  1  6  1  0  0  0  0
  2  3  1  0  0  0  0
  3  7  1  0  0  0  0
  3  4  2  0  0  0  0
  4  8  1  0  0  0  0
  5  4  1  0  0  0  0
  5  9  1  0  0  0  0
  6  5  2  0  0  0  0
 10 16  1  0  0  0  0
 10 11  1  0  0  0  0
 11 17  1  0  0  0  0
 12 11  2  0  0  0  0
 12  2  1  0  0  0  0
 13 12  1  0  0  0  0
 14 15  1  0  0  0  0
 14 13  2  0  0  0  0
 15 10  2  0  0  0  0
 18 14  1  0  0  0  0
 19  1  1  0  0  0  0
 20 19  1  0  0  0  0
 21  6  1  0  0  0  0
 22 26  1  0  0  0  0
 22 21  1  0  0  0  0
 23 22  2  0  0  0  0
 24 25  2  0  0  0  0
 24 23  1  0  0  0  0
 25 26  1  0  0  0  0
 27 23  1  0  0  0  0
 28 24  1  0  0  0  0
 29 30  2  0  0  0  0
 29 25  1  0  0  0  0
 30 31  1  0  0  0  0
 32 30  1  0  0  0  0
 33 32  2  0  0  0  0
 34 33  1  0  0  0  0
 34 29  1  0  0  0  0
M  END
>  <minimizedAffinity>
-6.08600044

$$$$

 OpenBabel03242513323D

 34 37  0  0  0  0  0  0  0  0999 V2000
   37.0730   27.8000   41.2440 C   0  0  0  0  0  0  0  0  0  0  0  0
   37.5350   26.5490   41.5860 C   0  0  0  0  0  0  0  0  0  0  0  0
   38.1670   26.4330   42.7860 C   0  0  0  0  0  0  0  0  0  0  0  0
   38.3450   27.5120   43.6380 C   0  0  0  0  0  0  0  0  0  0  0  0
   37.8780   28.7520   43.2790 C   0  0  0  0  0  0  0  0  0  0  0  0
   37.2240   28.9190   42.0570 C   0  0  0  0  0  0  0  0  0  0  0  0
   38.5360   25.4510   43.0650 H   0  0  0  0  0  0  0  0  0  0  0  0
   38.8510   27.4020   44.5890 H   0  0  0  0  0  0  0  0  0  0  0  0
   37.9720   29.6480   43.8790 H   0  0  0  0  0  0  0  0  0  0  0  0
   36.4190   23.2860   40.0640 C   0  0  0  0  0  0  0  0  0  0  0  0
   36.6100   24.3240   40.9820 C   0  0  0  0  0  0  0  0  0  0  0  0
   37.3210   25.4620   40.6610 C   0  0  0  0  0  0  0  0  0  0  0  0
   37.8170   25.4880   39.3900 N   0  0  0  0  0  0  0  0  0  0  0  0
   37.6350   24.4940   38.5070 C   0  0  0  0  0  0  0  0  0  0  0  0
   36.9320   23.3880   38.8450 N   0  0  0  0  0  0  0  0  0  0  0  0
   35.8630   22.3940   40.3080 H   0  0  0  0  0  0  0  0  0  0  0  0
   36.1890   24.2440   41.9850 H   0  0  0  0  0  0  0  0  0  0  0  0
   38.0480   24.5650   37.5120 H   0  0  0  0  0  0  0  0  0  0  0  0
   36.4170   27.9780   40.0240 O   0  0  0  0  0  0  0  0  0  0  0  0
   36.8700   28.3660   39.2090 H   0  0  0  0  0  0  0  0  0  0  0  0
   36.7300   30.1280   41.6360 O   0  0  0  0  0  0  0  0  0  0  0  0
   37.3850   31.0280   40.8770 C   0  0  0  0  0  0  0  0  0  0  0  0
   36.8940   32.1480   40.2410 C   0  0  0  0  0  0  0  0  0  0  0  0
   37.7320   32.9230   39.5230 C   0  0  0  0  0  0  0  0  0  0  0  0
   39.0930   32.5290   39.4650 C   0  0  0  0  0  0  0  0  0  0  0  0
   39.1300   31.0200   40.4700 S   0  0  0  0  0  0  0  0  0  0  0  0
   35.8470   32.4080   40.3140 H   0  0  0  0  0  0  0  0  0  0  0  0
   37.5350   33.8170   38.9700 H   0  0  0  0  0  0  0  0  0  0  0  0
   40.2970   33.0550   38.8270 C   0  0  0  0  0  0  0  0  0  0  0  0
   40.9590   34.1530   39.1710 C   0  0  0  0  0  0  0  0  0  0  0  0
   40.6450   34.8000   40.0090 H   0  0  0  0  0  0  0  0  0  0  0  0
   42.0720   34.4980   38.4600 C   0  0  0  0  0  3  0  0  0  0  0  0
   42.4420   33.6630   37.4080 C   0  0  0  0  0  3  0  0  0  0  0  0
   41.1060   32.3540   37.4940 S   0  0  0  0  0  0  0  0  0  0  0  0
  1  2  2  0  0  0  0
  1  6  1  0  0  0  0
  2  3  1  0  0  0  0
  3  7  1  0  0  0  0
  3  4  2  0  0  0  0
  4  8  1  0  0  0  0
  5  4  1  0  0  0  0
  5  9  1  0  0  0  0
  6  5  2  0  0  0  0
 10 16  1  0  0  0  0
 10 11  1  0  0  0  0
 11 17  1  0  0  0  0
 12 11  2  0  0  0  0
 12  2  1  0  0  0  0
 13 12  1  0  0  0  0
 14 15  1  0  0  0  0
 14 13  2  0  0  0  0
 15 10  2  0  0  0  0
 18 14  1  0  0  0  0
 19  1  1  0  0  0  0
 20 19  1  0  0  0  0
 21  6  1  0  0  0  0
 22 21  1  0  0  0  0
 23 27  1  0  0  0  0
 23 22  2  0  0  0  0
 24 23  1  0  0  0  0
 25 24  2  0  0  0  0
 25 26  1  0  0  0  0
 26 22  1  0  0  0  0
 28 24  1  0  0  0  0
 29 30  2  0  0  0  0
 29 25  1  0  0  0  0
 30 31  1  0  0  0  0
 32 30  1  0  0  0  0
 33 34  1  0  0  0  0
 33 32  2  0  0  0  0
 34 29  1  0  0  0  0
M  END
>  <minimizedAffinity>
-5.88950586

$$$$

 OpenBabel03242513323D

 34 37  0  0  0  0  0  0  0  0999 V2000
   36.9340   26.2040   40.0120 C   0  0  0  0  0  0  0  0  0  0  0  0
   36.9500   25.1420   40.8880 C   0  0  0  0  0  0  0  0  0  0  0  0
   36.9710   25.4380   42.2170 C   0  0  0  0  0  0  0  0  0  0  0  0
   36.9740   26.7430   42.6850 C   0  0  0  0  0  0  0  0  0  0  0  0
   36.9580   27.7890   41.7970 C   0  0  0  0  0  0  0  0  0  0  0  0
   36.9380   27.5330   40.4240 C   0  0  0  0  0  0  0  0  0  0  0  0
   36.9840   24.6080   42.9150 H   0  0  0  0  0  0  0  0  0  0  0  0
   36.9920   26.9620   43.7450 H   0  0  0  0  0  0  0  0  0  0  0  0
   36.9600   28.8370   42.0700 H   0  0  0  0  0  0  0  0  0  0  0  0
   37.9260   21.6050   40.0190 C   0  0  0  0  0  0  0  0  0  0  0  0
   37.9600   22.8960   40.5590 C   0  0  0  0  0  0  0  0  0  0  0  0
   36.9440   23.8040   40.3450 C   0  0  0  0  0  0  0  0  0  0  0  0
   35.9170   23.3440   39.5730 N   0  0  0  0  0  0  0  0  0  0  0  0
   35.8810   22.1070   39.0550 C   0  0  0  0  0  0  0  0  0  0  0  0
   36.8910   21.2330   39.2790 N   0  0  0  0  0  0  0  0  0  0  0  0
   38.7170   20.8900   40.1820 H   0  0  0  0  0  0  0  0  0  0  0  0
   38.8100   23.2060   41.1680 H   0  0  0  0  0  0  0  0  0  0  0  0
   35.0440   21.7910   38.4510 H   0  0  0  0  0  0  0  0  0  0  0  0
   36.9120   25.9580   38.6380 O   0  0  0  0  0  0  0  0  0  0  0  0
   37.7370   26.0150   38.0570 H   0  0  0  0  0  0  0  0  0  0  0  0
   36.9190   28.5290   39.4810 O   0  0  0  0  0  0  0  0  0  0  0  0
   37.2030   29.8290   39.6990 C   0  0  0  0  0  0  0  0  0  0  0  0
   36.4080   30.8090   40.2540 C   0  0  0  0  0  0  0  0  0  0  0  0
   36.8930   32.0610   40.3820 C   0  0  0  0  0  0  0  0  0  0  0  0
   38.2150   32.2960   39.9260 C   0  0  0  0  0  0  0  0  0  0  0  0
   38.7370   30.6700   39.3140 S   0  0  0  0  0  0  0  0  0  0  0  0
   35.4050   30.5820   40.5870 H   0  0  0  0  0  0  0  0  0  0  0  0
   36.4300   32.9380   40.7830 H   0  0  0  0  0  0  0  0  0  0  0  0
   39.1010   33.4560   39.8730 C   0  0  0  0  0  0  0  0  0  0  0  0
   38.8070   34.6930   40.2540 C   0  0  0  0  0  0  0  0  0  0  0  0
   37.8210   34.9720   40.6640 H   0  0  0  0  0  0  0  0  0  0  0  0
   39.7620   35.6610   40.1350 C   0  0  0  0  0  3  0  0  0  0  0  0
   40.9970   35.2780   39.6140 C   0  0  0  0  0  3  0  0  0  0  0  0
   40.7140   33.4540   39.3050 S   0  0  0  0  0  0  0  0  0  0  0  0
  1  6  2  0  0  0  0
  1  2  1  0  0  0  0
  2  3  2  0  0  0  0
  3  4  1  0  0  0  0
  3  7  1  0  0  0  0
  4  8  1  0  0  0  0
  5  9  1  0  0  0  0
  5  4  2  0  0  0  0
  6  5  1  0  0  0  0
 10 16  1  0  0  0  0
 10 11  1  0  0  0  0
 11 17  1  0  0  0  0
 12 11  2  0  0  0  0
 12  2  1  0  0  0  0
 13 12  1  0  0  0  0
 14 15  1  0  0  0  0
 14 13  2  0  0  0  0
 15 10  2  0  0  0  0
 18 14  1  0  0  0  0
 19  1  1  0  0  0  0
 20 19  1  0  0  0  0
 21 22  1  0  0  0  0
 21  6  1  0  0  0  0
 22 23  2  0  0  0  0
 23 24  1  0  0  0  0
 23 27  1  0  0  0  0
 24 28  1  0  0  0  0
 25 24  2  0  0  0  0
 26 22  1  0  0  0  0
 26 25  1  0  0  0  0
 29 25  1  0  0  0  0
 29 30  2  0  0  0  0
 30 31  1  0  0  0  0
 32 30  1  0  0  0  0
 33 32  2  0  0  0  0
 34 33  1  0  0  0  0
 34 29  1  0  0  0  0
M  END
>  <minimizedAffinity>
-5.88464689

$$$$

 OpenBabel03242513323D

 34 37  0  0  0  0  0  0  0  0999 V2000
   38.3410   31.5850   40.8290 C   0  0  0  0  0  0  0  0  0  0  0  0
   38.4940   32.2580   39.6370 C   0  0  0  0  0  0  0  0  0  0  0  0
   37.7860   31.7920   38.5720 C   0  0  0  0  0  0  0  0  0  0  0  0
   36.9450   30.6940   38.6630 C   0  0  0  0  0  0  0  0  0  0  0  0
   36.8050   30.0370   39.8600 C   0  0  0  0  0  0  0  0  0  0  0  0
   37.5120   30.4780   40.9800 C   0  0  0  0  0  0  0  0  0  0  0  0
   37.9000   32.3150   37.6270 H   0  0  0  0  0  0  0  0  0  0  0  0
   36.3890   30.3370   37.8050 H   0  0  0  0  0  0  0  0  0  0  0  0
   36.1730   29.1730   40.0240 H   0  0  0  0  0  0  0  0  0  0  0  0
   41.4560   34.4910   38.9610 C   0  0  0  0  0  0  0  0  0  0  0  0
   40.6160   33.3730   38.9810 C   0  0  0  0  0  0  0  0  0  0  0  0
   39.3830   33.3950   39.6000 C   0  0  0  0  0  0  0  0  0  0  0  0
   39.0560   34.5850   40.1830 N   0  0  0  0  0  0  0  0  0  0  0  0
   39.8590   35.6600   40.1650 C   0  0  0  0  0  0  0  0  0  0  0  0
   41.0650   35.6130   39.5510 N   0  0  0  0  0  0  0  0  0  0  0  0
   42.4200   34.4800   38.4790 H   0  0  0  0  0  0  0  0  0  0  0  0
   40.9340   32.4480   38.4970 H   0  0  0  0  0  0  0  0  0  0  0  0
   39.5530   36.5790   40.6410 H   0  0  0  0  0  0  0  0  0  0  0  0
   39.0440   32.0200   41.9550 O   0  0  0  0  0  0  0  0  0  0  0  0
   39.8900   31.5740   42.2790 H   0  0  0  0  0  0  0  0  0  0  0  0
   37.4190   29.8700   42.2060 O   0  0  0  0  0  0  0  0  0  0  0  0
   38.2660   28.9420   42.6940 C   0  0  0  0  0  0  0  0  0  0  0  0
   37.9920   27.8540   43.4950 C   0  0  0  0  0  0  0  0  0  0  0  0
   39.0000   27.0410   43.8740 C   0  0  0  0  0  0  0  0  0  0  0  0
   40.3030   27.3630   43.4170 C   0  0  0  0  0  0  0  0  0  0  0  0
   40.0360   28.8610   42.4300 S   0  0  0  0  0  0  0  0  0  0  0  0
   36.9810   27.6490   43.8190 H   0  0  0  0  0  0  0  0  0  0  0  0
   38.9790   26.1620   44.4840 H   0  0  0  0  0  0  0  0  0  0  0  0
   41.6310   26.7800   43.5820 C   0  0  0  0  0  0  0  0  0  0  0  0
   42.4460   26.9480   44.6170 C   0  0  0  0  0  0  0  0  0  0  0  0
   42.1830   27.5740   45.4870 H   0  0  0  0  0  0  0  0  0  0  0  0
   43.6590   26.3230   44.6050 C   0  0  0  0  0  3  0  0  0  0  0  0
   43.9640   25.5400   43.4920 C   0  0  0  0  0  3  0  0  0  0  0  0
   42.4140   25.7500   42.4640 S   0  0  0  0  0  0  0  0  0  0  0  0
  1  6  1  0  0  0  0
  1 19  1  0  0  0  0
  2  1  2  0  0  0  0
  3  4  2  0  0  0  0
  3  2  1  0  0  0  0
  4  5  1  0  0  0  0
  5  9  1  0  0  0  0
  5  6  2  0  0  0  0
  6 21  1  0  0  0  0
  7  3  1  0  0  0  0
  8  4  1  0  0  0  0
 10 11  2  0  0  0  0
 10 15  1  0  0  0  0
 11 12  1  0  0  0  0
 12  2  1  0  0  0  0
 12 13  2  0  0  0  0
 14 13  1  0  0  0  0
 14 18  1  0  0  0  0
 15 14  2  0  0  0  0
 16 10  1  0  0  0  0
 17 11  1  0  0  0  0
 19 20  1  0  0  0  0
 21 22  1  0  0  0  0
 22 23  2  0  0  0  0
 23 27  1  0  0  0  0
 23 24  1  0  0  0  0
 24 28  1  0  0  0  0
 25 29  1  0  0  0  0
 25 24  2  0  0  0  0
 26 22  1  0  0  0  0
 26 25  1  0  0  0  0
 29 30  2  0  0  0  0
 30 31  1  0  0  0  0
 32 30  1  0  0  0  0
 33 32  2  0  0  0  0
 34 33  1  0  0  0  0
 34 29  1  0  0  0  0
M  END
>  <minimizedAffinity>
-5.8633256

$$$$

 OpenBabel03242513323D

 34 37  0  0  0  0  0  0  0  0999 V2000
   38.3500   31.2150   41.3010 C   0  0  0  0  0  0  0  0  0  0  0  0
   38.1960   32.2490   40.4050 C   0  0  0  0  0  0  0  0  0  0  0  0
   37.1220   32.1860   39.5700 C   0  0  0  0  0  0  0  0  0  0  0  0
   36.2150   31.1390   39.6070 C   0  0  0  0  0  0  0  0  0  0  0  0
   36.3860   30.1170   40.5070 C   0  0  0  0  0  0  0  0  0  0  0  0
   37.4730   30.1380   41.3820 C   0  0  0  0  0  0  0  0  0  0  0  0
   36.9920   32.9970   38.8600 H   0  0  0  0  0  0  0  0  0  0  0  0
   35.3670   31.1040   38.9350 H   0  0  0  0  0  0  0  0  0  0  0  0
   35.7300   29.2610   40.6060 H   0  0  0  0  0  0  0  0  0  0  0  0
   39.7980   35.6610   40.4830 C   0  0  0  0  0  0  0  0  0  0  0  0
   38.8310   34.6500   40.4780 C   0  0  0  0  0  0  0  0  0  0  0  0
   39.1700   33.3150   40.4120 C   0  0  0  0  0  0  0  0  0  0  0  0
   40.5110   33.0660   40.3520 N   0  0  0  0  0  0  0  0  0  0  0  0
   41.4410   34.0330   40.3580 C   0  0  0  0  0  0  0  0  0  0  0  0
   41.0830   35.3370   40.4230 N   0  0  0  0  0  0  0  0  0  0  0  0
   39.5390   36.7070   40.5350 H   0  0  0  0  0  0  0  0  0  0  0  0
   37.7730   34.9130   40.5270 H   0  0  0  0  0  0  0  0  0  0  0  0
   42.4900   33.7830   40.3090 H   0  0  0  0  0  0  0  0  0  0  0  0
   39.4340   31.2280   42.1810 O   0  0  0  0  0  0  0  0  0  0  0  0
   40.2710   30.6830   42.0290 H   0  0  0  0  0  0  0  0  0  0  0  0
   37.7040   29.1520   42.3070 O   0  0  0  0  0  0  0  0  0  0  0  0
   37.6640   27.8250   42.0740 C   0  0  0  0  0  0  0  0  0  0  0  0
   36.9840   26.8430   42.7640 C   0  0  0  0  0  0  0  0  0  0  0  0
   37.0820   25.5610   42.3570 C   0  0  0  0  0  0  0  0  0  0  0  0
   37.8940   25.2970   41.2250 C   0  0  0  0  0  0  0  0  0  0  0  0
   38.5080   26.9400   40.7650 S   0  0  0  0  0  0  0  0  0  0  0  0
   36.3760   27.0930   43.6220 H   0  0  0  0  0  0  0  0  0  0  0  0
   36.6330   24.6770   42.7610 H   0  0  0  0  0  0  0  0  0  0  0  0
   38.2670   24.1010   40.4750 C   0  0  0  0  0  0  0  0  0  0  0  0
   37.7320   22.8920   40.5980 C   0  0  0  0  0  0  0  0  0  0  0  0
   36.9200   22.6690   41.3120 H   0  0  0  0  0  0  0  0  0  0  0  0
   38.2050   21.8820   39.8110 C   0  0  0  0  0  3  0  0  0  0  0  0
   39.2310   22.1940   38.9200 C   0  0  0  0  0  3  0  0  0  0  0  0
   39.4800   24.0150   39.2730 S   0  0  0  0  0  0  0  0  0  0  0  0
  1  6  1  0  0  0  0
  1 19  1  0  0  0  0
  2 12  1  0  0  0  0
  2  1  2  0  0  0  0
  3  4  2  0  0  0  0
  3  2  1  0  0  0  0
  4  5  1  0  0  0  0
  5  9  1  0  0  0  0
  5  6  2  0  0  0  0
  6 21  1  0  0  0  0
  7  3  1  0  0  0  0
  8  4  1  0  0  0  0
 10 16  1  0  0  0  0
 11 10  1  0  0  0  0
 11 17  1  0  0  0  0
 12 11  2  0  0  0  0
 13 14  2  0  0  0  0
 13 12  1  0  0  0  0
 14 15  1  0  0  0  0
 15 10  2  0  0  0  0
 18 14  1  0  0  0  0
 20 19  1  0  0  0  0
 22 21  1  0  0  0  0
 22 23  2  0  0  0  0
 23 27  1  0  0  0  0
 24 28  1  0  0  0  0
 24 23  1  0  0  0  0
 25 24  2  0  0  0  0
 26 25  1  0  0  0  0
 26 22  1  0  0  0  0
 29 30  2  0  0  0  0
 29 25  1  0  0  0  0
 30 31  1  0  0  0  0
 32 30  1  0  0  0  0
 33 34  1  0  0  0  0
 33 32  2  0  0  0  0
 34 29  1  0  0  0  0
M  END
>  <minimizedAffinity>
-5.81434727

$$$$

 OpenBabel03242513323D

 34 37  0  0  0  0  0  0  0  0999 V2000
   36.5330   29.9320   39.5840 C   0  0  0  0  0  0  0  0  0  0  0  0
   36.6670   30.4330   38.3080 C   0  0  0  0  0  0  0  0  0  0  0  0
   37.1660   31.6940   38.1910 C   0  0  0  0  0  0  0  0  0  0  0  0
   37.5290   32.4540   39.2920 C   0  0  0  0  0  0  0  0  0  0  0  0
   37.3880   31.9370   40.5560 C   0  0  0  0  0  0  0  0  0  0  0  0
   36.8800   30.6480   40.7250 C   0  0  0  0  0  0  0  0  0  0  0  0
   37.2740   32.0990   37.1890 H   0  0  0  0  0  0  0  0  0  0  0  0
   37.9230   33.4560   39.1810 H   0  0  0  0  0  0  0  0  0  0  0  0
   37.6440   32.4560   41.4710 H   0  0  0  0  0  0  0  0  0  0  0  0
   36.7420   28.3610   35.1590 C   0  0  0  0  0  0  0  0  0  0  0  0
   37.1530   29.1700   36.2250 C   0  0  0  0  0  0  0  0  0  0  0  0
   36.2740   29.5990   37.1980 C   0  0  0  0  0  0  0  0  0  0  0  0
   34.9880   29.1720   37.0360 N   0  0  0  0  0  0  0  0  0  0  0  0
   34.5910   28.3950   36.0160 C   0  0  0  0  0  0  0  0  0  0  0  0
   35.4730   27.9870   35.0730 N   0  0  0  0  0  0  0  0  0  0  0  0
   37.4250   28.0220   34.3960 H   0  0  0  0  0  0  0  0  0  0  0  0
   38.1970   29.4790   36.2990 H   0  0  0  0  0  0  0  0  0  0  0  0
   33.5600   28.0850   35.9340 H   0  0  0  0  0  0  0  0  0  0  0  0
   36.0270   28.6430   39.7630 O   0  0  0  0  0  0  0  0  0  0  0  0
   35.0690   28.4620   40.0280 H   0  0  0  0  0  0  0  0  0  0  0  0
   36.7150   30.0690   41.9580 O   0  0  0  0  0  0  0  0  0  0  0  0
   37.5250   29.1450   42.5120 C   0  0  0  0  0  0  0  0  0  0  0  0
   37.2310   28.1930   43.4650 C   0  0  0  0  0  0  0  0  0  0  0  0
   38.2020   27.3570   43.8870 C   0  0  0  0  0  0  0  0  0  0  0  0
   39.4900   27.5140   43.3140 C   0  0  0  0  0  0  0  0  0  0  0  0
   39.2630   28.8910   42.1560 S   0  0  0  0  0  0  0  0  0  0  0  0
   36.2340   28.1120   43.8730 H   0  0  0  0  0  0  0  0  0  0  0  0
   38.1620   26.5680   44.6070 H   0  0  0  0  0  0  0  0  0  0  0  0
   40.7820   26.8520   43.4740 C   0  0  0  0  0  0  0  0  0  0  0  0
   41.7260   27.1630   44.3550 C   0  0  0  0  0  0  0  0  0  0  0  0
   41.6160   27.9890   45.0790 H   0  0  0  0  0  0  0  0  0  0  0  0
   42.8790   26.4340   44.3650 C   0  0  0  0  0  3  0  0  0  0  0  0
   42.9890   25.3980   43.4380 C   0  0  0  0  0  3  0  0  0  0  0  0
   41.3460   25.5290   42.5500 S   0  0  0  0  0  0  0  0  0  0  0  0
  1 19  1  0  0  0  0
  1  6  1  0  0  0  0
  2  1  2  0  0  0  0
  3  2  1  0  0  0  0
  3  4  2  0  0  0  0
  4  5  1  0  0  0  0
  5  6  2  0  0  0  0
  5  9  1  0  0  0  0
  6 21  1  0  0  0  0
  7  3  1  0  0  0  0
  8  4  1  0  0  0  0
 10 11  1  0  0  0  0
 11 17  1  0  0  0  0
 11 12  2  0  0  0  0
 12  2  1  0  0  0  0
 13 12  1  0  0  0  0
 14 13  2  0  0  0  0
 15 10  2  0  0  0  0
 15 14  1  0  0  0  0
 16 10  1  0  0  0  0
 18 14  1  0  0  0  0
 19 20  1  0  0  0  0
 21 22  1  0  0  0  0
 22 23  2  0  0  0  0
 23 27  1  0  0  0  0
 23 24  1  0  0  0  0
 24 28  1  0  0  0  0
 25 29  1  0  0  0  0
 25 24  2  0  0  0  0
 26 22  1  0  0  0  0
 26 25  1  0  0  0  0
 29 30  2  0  0  0  0
 30 32  1  0  0  0  0
 30 31  1  0  0  0  0
 33 32  2  0  0  0  0
 34 33  1  0  0  0  0
 34 29  1  0  0  0  0
M  END
>  <minimizedAffinity>
-5.71557283

$$$$

 OpenBabel03242513323D

 34 37  0  0  0  0  0  0  0  0999 V2000
   37.4990   30.3130   40.5560 C   0  0  0  0  0  0  0  0  0  0  0  0
   37.2270   29.1060   39.9530 C   0  0  0  0  0  0  0  0  0  0  0  0
   36.8620   29.1400   38.6410 C   0  0  0  0  0  0  0  0  0  0  0  0
   36.7650   30.3260   37.9300 C   0  0  0  0  0  0  0  0  0  0  0  0
   37.0400   31.5200   38.5480 C   0  0  0  0  0  0  0  0  0  0  0  0
   37.4170   31.5340   39.8920 C   0  0  0  0  0  0  0  0  0  0  0  0
   36.6450   28.1940   38.1570 H   0  0  0  0  0  0  0  0  0  0  0  0
   36.4730   30.3350   36.8870 H   0  0  0  0  0  0  0  0  0  0  0  0
   36.9900   32.4910   38.0730 H   0  0  0  0  0  0  0  0  0  0  0  0
   38.1730   25.6500   41.1270 C   0  0  0  0  0  0  0  0  0  0  0  0
   38.0770   26.8040   40.3410 C   0  0  0  0  0  0  0  0  0  0  0  0
   37.3450   27.9020   40.7410 C   0  0  0  0  0  0  0  0  0  0  0  0
   36.7310   27.7710   41.9530 N   0  0  0  0  0  0  0  0  0  0  0  0
   36.8220   26.6670   42.7100 C   0  0  0  0  0  0  0  0  0  0  0  0
   37.5470   25.6010   42.2950 N   0  0  0  0  0  0  0  0  0  0  0  0
   38.7440   24.7880   40.8200 H   0  0  0  0  0  0  0  0  0  0  0  0
   38.5910   26.8480   39.3790 H   0  0  0  0  0  0  0  0  0  0  0  0
   36.3170   26.6140   43.6620 H   0  0  0  0  0  0  0  0  0  0  0  0
   37.8780   30.3370   41.9000 O   0  0  0  0  0  0  0  0  0  0  0  0
   37.2380   30.5690   42.6460 H   0  0  0  0  0  0  0  0  0  0  0  0
   37.7080   32.6890   40.5720 O   0  0  0  0  0  0  0  0  0  0  0  0
   38.8710   33.3680   40.5160 C   0  0  0  0  0  0  0  0  0  0  0  0
   39.0840   34.7040   40.2500 C   0  0  0  0  0  0  0  0  0  0  0  0
   40.3440   35.1840   40.2430 C   0  0  0  0  0  0  0  0  0  0  0  0
   41.3920   34.2680   40.5130 C   0  0  0  0  0  0  0  0  0  0  0  0
   40.5140   32.7030   40.7770 S   0  0  0  0  0  0  0  0  0  0  0  0
   38.2520   35.3650   40.0500 H   0  0  0  0  0  0  0  0  0  0  0  0
   40.6980   36.1780   40.0610 H   0  0  0  0  0  0  0  0  0  0  0  0
   42.8470   34.3550   40.6010 C   0  0  0  0  0  0  0  0  0  0  0  0
   43.5490   34.8360   41.6210 C   0  0  0  0  0  0  0  0  0  0  0  0
   43.0770   35.2320   42.5360 H   0  0  0  0  0  0  0  0  0  0  0  0
   44.9120   34.8410   41.5340 C   0  0  0  0  0  3  0  0  0  0  0  0
   45.4790   34.3350   40.3650 C   0  0  0  0  0  3  0  0  0  0  0  0
   43.9520   33.8510   39.3980 S   0  0  0  0  0  0  0  0  0  0  0  0
  1 19  1  0  0  0  0
  2  1  1  0  0  0  0
  2 12  1  0  0  0  0
  3  2  2  0  0  0  0
  4  5  2  0  0  0  0
  4  3  1  0  0  0  0
  5  6  1  0  0  0  0
  6  1  2  0  0  0  0
  6 21  1  0  0  0  0
  7  3  1  0  0  0  0
  8  4  1  0  0  0  0
  9  5  1  0  0  0  0
 10 15  1  0  0  0  0
 11 12  1  0  0  0  0
 11 10  2  0  0  0  0
 12 13  2  0  0  0  0
 13 14  1  0  0  0  0
 14 18  1  0  0  0  0
 15 14  2  0  0  0  0
 16 10  1  0  0  0  0
 17 11  1  0  0  0  0
 19 20  1  0  0  0  0
 22 21  1  0  0  0  0
 22 26  1  0  0  0  0
 23 22  2  0  0  0  0
 24 23  1  0  0  0  0
 24 25  2  0  0  0  0
 25 29  1  0  0  0  0
 25 26  1  0  0  0  0
 27 23  1  0  0  0  0
 28 24  1  0  0  0  0
 29 30  2  0  0  0  0
 30 31  1  0  0  0  0
 32 30  1  0  0  0  0
 33 32  2  0  0  0  0
 34 33  1  0  0  0  0
 34 29  1  0  0  0  0
M  END
>  <minimizedAffinity>
-5.62686491

$$$$

 OpenBabel03242513323D

 34 37  0  0  0  0  0  0  0  0999 V2000
   40.6470   33.1010   40.8620 C   0  0  0  0  0  0  0  0  0  0  0  0
   41.2220   34.3240   40.5950 C   0  0  0  0  0  0  0  0  0  0  0  0
   40.3800   35.3440   40.2750 C   0  0  0  0  0  0  0  0  0  0  0  0
   39.0040   35.1800   40.2160 C   0  0  0  0  0  0  0  0  0  0  0  0
   38.4500   33.9540   40.4850 C   0  0  0  0  0  0  0  0  0  0  0  0
   39.2750   32.8770   40.8170 C   0  0  0  0  0  0  0  0  0  0  0  0
   40.8230   36.3120   40.0620 H   0  0  0  0  0  0  0  0  0  0  0  0
   38.3490   36.0020   39.9580 H   0  0  0  0  0  0  0  0  0  0  0  0
   37.3900   33.7330   40.4620 H   0  0  0  0  0  0  0  0  0  0  0  0
   44.7100   35.1400   41.7720 C   0  0  0  0  0  0  0  0  0  0  0  0
   43.3150   35.0440   41.7240 C   0  0  0  0  0  0  0  0  0  0  0  0
   42.6590   34.4390   40.6730 C   0  0  0  0  0  0  0  0  0  0  0  0
   43.4750   33.9480   39.6950 N   0  0  0  0  0  0  0  0  0  0  0  0
   44.8130   34.0370   39.7380 C   0  0  0  0  0  0  0  0  0  0  0  0
   45.4340   34.6360   40.7810 N   0  0  0  0  0  0  0  0  0  0  0  0
   45.2280   35.6120   42.5920 H   0  0  0  0  0  0  0  0  0  0  0  0
   42.7160   35.4570   42.5380 H   0  0  0  0  0  0  0  0  0  0  0  0
   45.4140   33.6320   38.9380 H   0  0  0  0  0  0  0  0  0  0  0  0
   41.4640   32.0190   41.1960 O   0  0  0  0  0  0  0  0  0  0  0  0
   41.7190   31.3000   40.5350 H   0  0  0  0  0  0  0  0  0  0  0  0
   38.7880   31.6260   41.0990 O   0  0  0  0  0  0  0  0  0  0  0  0
   37.7430   31.0290   40.4930 C   0  0  0  0  0  0  0  0  0  0  0  0
   36.5410   30.6250   41.0350 C   0  0  0  0  0  0  0  0  0  0  0  0
   35.6210   30.0410   40.2410 C   0  0  0  0  0  0  0  0  0  0  0  0
   35.9540   29.8740   38.8720 C   0  0  0  0  0  0  0  0  0  0  0  0
   37.6200   30.5800   38.7630 S   0  0  0  0  0  0  0  0  0  0  0  0
   36.3330   30.7740   42.0850 H   0  0  0  0  0  0  0  0  0  0  0  0
   34.6470   29.6680   40.4790 H   0  0  0  0  0  0  0  0  0  0  0  0
   35.2810   29.3120   37.7040 C   0  0  0  0  0  0  0  0  0  0  0  0
   34.0500   28.8150   37.6640 C   0  0  0  0  0  0  0  0  0  0  0  0
   33.3920   28.7800   38.5500 H   0  0  0  0  0  0  0  0  0  0  0  0
   33.5770   28.3280   36.4800 C   0  0  0  0  0  3  0  0  0  0  0  0
   34.4310   28.3860   35.3790 C   0  0  0  0  0  3  0  0  0  0  0  0
   35.9490   29.1770   36.1360 S   0  0  0  0  0  0  0  0  0  0  0  0
  1 19  1  0  0  0  0
  2 12  1  0  0  0  0
  2  1  2  0  0  0  0
  3  2  1  0  0  0  0
  4  3  2  0  0  0  0
  4  5  1  0  0  0  0
  5  6  2  0  0  0  0
  6  1  1  0  0  0  0
  6 21  1  0  0  0  0
  7  3  1  0  0  0  0
  8  4  1  0  0  0  0
  9  5  1  0  0  0  0
 10 16  1  0  0  0  0
 11 10  1  0  0  0  0
 11 17  1  0  0  0  0
 12 11  2  0  0  0  0
 13 14  2  0  0  0  0
 13 12  1  0  0  0  0
 14 15  1  0  0  0  0
 15 10  2  0  0  0  0
 18 14  1  0  0  0  0
 20 19  1  0  0  0  0
 22 23  2  0  0  0  0
 22 21  1  0  0  0  0
 23 27  1  0  0  0  0
 24 28  1  0  0  0  0
 24 23  1  0  0  0  0
 25 24  2  0  0  0  0
 26 25  1  0  0  0  0
 26 22  1  0  0  0  0
 29 25  1  0  0  0  0
 30 29  2  0  0  0  0
 30 31  1  0  0  0  0
 32 30  1  0  0  0  0
 33 34  1  0  0  0  0
 33 32  2  0  0  0  0
 34 29  1  0  0  0  0
M  END
>  <minimizedAffinity>
-5.55486155

$$$$

 OpenBabel03242513323D

 34 37  0  0  0  0  0  0  0  0999 V2000
   37.6320   31.5850   40.8620 C   0  0  0  0  0  0  0  0  0  0  0  0
   38.8950   32.0020   41.2210 C   0  0  0  0  0  0  0  0  0  0  0  0
   39.5890   31.2000   42.0750 C   0  0  0  0  0  0  0  0  0  0  0  0
   39.0660   30.0150   42.5690 C   0  0  0  0  0  0  0  0  0  0  0  0
   37.8060   29.6160   42.2010 C   0  0  0  0  0  0  0  0  0  0  0  0
   37.0560   30.4070   41.3280 C   0  0  0  0  0  0  0  0  0  0  0  0
   40.5850   31.5190   42.3640 H   0  0  0  0  0  0  0  0  0  0  0  0
   39.6320   29.3890   43.2490 H   0  0  0  0  0  0  0  0  0  0  0  0
   37.3170   28.7100   42.5360 H   0  0  0  0  0  0  0  0  0  0  0  0
   41.0390   34.5650   39.4760 C   0  0  0  0  0  0  0  0  0  0  0  0
   40.5850   33.3480   39.9940 C   0  0  0  0  0  0  0  0  0  0  0  0
   39.3900   33.2430   40.6750 C   0  0  0  0  0  0  0  0  0  0  0  0
   38.6960   34.4120   40.7970 N   0  0  0  0  0  0  0  0  0  0  0  0
   39.1270   35.5810   40.3000 C   0  0  0  0  0  0  0  0  0  0  0  0
   40.3050   35.6580   39.6360 N   0  0  0  0  0  0  0  0  0  0  0  0
   41.9720   34.6540   38.9420 H   0  0  0  0  0  0  0  0  0  0  0  0
   41.1860   32.4460   39.8640 H   0  0  0  0  0  0  0  0  0  0  0  0
   38.5400   36.4780   40.4250 H   0  0  0  0  0  0  0  0  0  0  0  0
   36.8760   32.3690   39.9890 O   0  0  0  0  0  0  0  0  0  0  0  0
   36.1420   32.9880   40.3030 H   0  0  0  0  0  0  0  0  0  0  0  0
   35.7920   30.0690   40.9160 O   0  0  0  0  0  0  0  0  0  0  0  0
   35.4870   29.2320   39.9050 C   0  0  0  0  0  0  0  0  0  0  0  0
   34.4090   29.2650   39.0460 C   0  0  0  0  0  0  0  0  0  0  0  0
   34.2940   28.3190   38.0920 C   0  0  0  0  0  0  0  0  0  0  0  0
   35.3080   27.3290   38.0310 C   0  0  0  0  0  0  0  0  0  0  0  0
   36.4260   27.7990   39.3800 S   0  0  0  0  0  0  0  0  0  0  0  0
   33.6610   30.0400   39.1310 H   0  0  0  0  0  0  0  0  0  0  0  0
   33.5390   28.1850   37.3460 H   0  0  0  0  0  0  0  0  0  0  0  0
   35.5690   26.1640   37.1900 C   0  0  0  0  0  0  0  0  0  0  0  0
   35.0720   24.9430   37.3550 C   0  0  0  0  0  0  0  0  0  0  0  0
   34.3850   24.6850   38.1800 H   0  0  0  0  0  0  0  0  0  0  0  0
   35.4230   23.9670   36.4680 C   0  0  0  0  0  3  0  0  0  0  0  0
   36.2920   24.3230   35.4370 C   0  0  0  0  0  3  0  0  0  0  0  0
   36.5760   26.1350   35.8090 S   0  0  0  0  0  0  0  0  0  0  0  0
  1  2  2  0  0  0  0
  1  6  1  0  0  0  0
  2  3  1  0  0  0  0
  3  7  1  0  0  0  0
  3  4  2  0  0  0  0
  4  8  1  0  0  0  0
  5  9  1  0  0  0  0
  5  4  1  0  0  0  0
  6  5  2  0  0  0  0
 10 15  2  0  0  0  0
 10 11  1  0  0  0  0
 11 12  2  0  0  0  0
 12 13  1  0  0  0  0
 12  2  1  0  0  0  0
 14 18  1  0  0  0  0
 14 13  2  0  0  0  0
 15 14  1  0  0  0  0
 16 10  1  0  0  0  0
 17 11  1  0  0  0  0
 19 20  1  0  0  0  0
 19  1  1  0  0  0  0
 21  6  1  0  0  0  0
 22 21  1  0  0  0  0
 23 27  1  0  0  0  0
 23 22  2  0  0  0  0
 24 23  1  0  0  0  0
 25 24  2  0  0  0  0
 25 26  1  0  0  0  0
 26 22  1  0  0  0  0
 28 24  1  0  0  0  0
 29 30  2  0  0  0  0
 29 25  1  0  0  0  0
 30 31  1  0  0  0  0
 32 30  1  0  0  0  0
 33 34  1  0  0  0  0
 33 32  2  0  0  0  0
 34 29  1  0  0  0  0
M  END
>  <minimizedAffinity>
-5.51208878

$$$$
