
 OpenBabel03252507013D

 34 36  0  0  0  0  0  0  0  0999 V2000
   47.1050   34.2750   41.5520 N   0  0  0  0  0  0  0  0  0  0  0  0
   47.9590   34.4770   40.4350 C   0  0  0  0  0  0  0  0  0  0  0  0
   48.8020   35.6720   40.9110 C   0  0  0  0  0  0  0  0  0  0  0  0
   49.5410   35.4050   42.1720 C   0  0  0  0  0  0  0  0  0  0  0  0
   49.0720   34.2710   43.0300 C   0  0  0  0  0  0  0  0  0  0  0  0
   47.7470   33.6850   42.6990 C   0  0  0  0  0  0  0  0  0  0  0  0
   48.6640   33.6630   40.2970 H   0  0  0  0  0  0  0  0  0  0  0  0
   47.5330   34.6870   39.4700 H   0  0  0  0  0  0  0  0  0  0  0  0
   49.5230   35.8810   40.1000 H   0  0  0  0  0  0  0  0  0  0  0  0
   48.1280   36.5530   40.9510 H   0  0  0  0  0  0  0  0  0  0  0  0
   50.6050   35.1970   41.9740 H   0  0  0  0  0  0  0  0  0  0  0  0
   49.4760   36.3170   42.8050 H   0  0  0  0  0  0  0  0  0  0  0  0
   49.5910   33.8780   43.8560 H   0  0  0  0  0  0  0  0  0  0  0  0
   47.3120   32.7090   43.5820 C   0  0  0  0  0  0  0  0  0  0  0  0
   47.3290   31.3540   43.6600 C   0  0  0  0  0  0  0  0  0  0  0  0
   47.8120   30.8750   42.8250 H   0  0  0  0  0  0  0  0  0  0  0  0
   46.7600   30.7350   44.7370 C   0  0  0  0  0  3  0  0  0  0  0  0
   46.1570   31.4330   45.7720 C   0  0  0  0  0  3  0  0  0  0  0  0
   46.4180   33.2120   45.1590 S   0  0  0  0  0  0  0  0  0  0  0  0
   45.8630   34.7660   41.7420 C   0  0  0  0  0  0  0  0  0  0  0  0
   45.4340   34.5080   42.7410 H   0  0  0  0  0  0  0  0  0  0  0  0
   45.7050   35.8760   41.6720 H   0  0  0  0  0  0  0  0  0  0  0  0
   44.8960   34.1800   40.7390 C   0  0  0  0  0  0  0  0  0  0  0  0
   43.9190   34.7010   40.9240 H   0  0  0  0  0  0  0  0  0  0  0  0
   45.0990   34.3490   39.6980 H   0  0  0  0  0  0  0  0  0  0  0  0
   44.6190   32.7880   41.1510 C   0  0  0  0  0  0  0  0  0  0  0  0
   43.8670   32.5060   42.2640 C   0  0  0  0  0  0  0  0  0  0  0  0
   43.6230   31.1780   42.6310 C   0  0  0  0  0  0  0  0  0  0  0  0
   44.1700   30.2180   41.8300 N   0  0  0  0  0  0  0  0  0  0  0  0
   44.8930   30.5250   40.7600 C   0  0  0  0  0  0  0  0  0  0  0  0
   45.1060   31.7960   40.4380 N   0  0  0  0  0  0  0  0  0  0  0  0
   43.4470   33.2660   42.8790 H   0  0  0  0  0  0  0  0  0  0  0  0
   43.0370   30.9000   43.4970 H   0  0  0  0  0  0  0  0  0  0  0  0
   45.3380   29.7630   40.1080 H   0  0  0  0  0  0  0  0  0  0  0  0
  1 20  1  0  0  0  0
  1  6  1  0  0  0  0
  2  3  1  0  0  0  0
  2  1  1  0  0  0  0
  3 10  1  0  0  0  0
  3  4  1  0  0  0  0
  4 12  1  0  0  0  0
  4  5  1  0  0  0  0
  5 13  1  0  0  0  0
  6  5  2  0  0  0  0
  6 14  1  0  0  0  0
  7  2  1  0  0  0  0
  8  2  1  0  0  0  0
  9  3  1  0  0  0  0
 11  4  1  0  0  0  0
 14 15  2  0  0  0  0
 14 19  1  0  0  0  0
 15 17  1  0  0  0  0
 16 15  1  0  0  0  0
 17 18  2  0  0  0  0
 19 18  1  0  0  0  0
 20 21  1  0  0  0  0
 22 20  1  0  0  0  0
 23 24  1  0  0  0  0
 23 26  1  0  0  0  0
 23 20  1  0  0  0  0
 25 23  1  0  0  0  0
 26 27  1  0  0  0  0
 27 28  2  0  0  0  0
 27 32  1  0  0  0  0
 28 33  1  0  0  0  0
 29 28  1  0  0  0  0
 30 29  2  0  0  0  0
 31 30  1  0  0  0  0
 31 26  2  0  0  0  0
 34 30  1  0  0  0  0
M  END
>  <minimizedAffinity>
-3.92357755

>  <minimizedRMSD>
4.66413164

$$$$
