
 OpenBabel03252500533D

 21 22  0  0  0  0  0  0  0  0999 V2000
   46.0590   30.9960   45.4470 C   0  0  0  0  0  0  0  0  0  0  0  0
   46.5170   32.2910   45.5570 C   0  0  0  0  0  0  0  0  0  0  0  0
   46.7810   32.7760   46.8710 C   0  0  0  0  0  0  0  0  0  0  0  0
   46.5660   31.9490   47.9220 N   0  0  0  0  0  0  0  0  0  0  0  0
   46.1180   30.6980   47.7560 C   0  0  0  0  0  0  0  0  0  0  0  0
   45.8680   30.2260   46.5470 N   0  0  0  0  0  0  0  0  0  0  0  0
   47.1390   33.7400   47.1670 H   0  0  0  0  0  0  0  0  0  0  0  0
   45.9460   30.0400   48.5950 H   0  0  0  0  0  0  0  0  0  0  0  0
   46.6740   33.2480   44.5220 C   0  0  0  0  0  0  0  0  0  0  0  0
   47.6360   33.5870   43.5330 C   0  0  0  0  0  0  0  0  0  0  0  0
   48.5650   33.0830   43.4220 H   0  0  0  0  0  0  0  0  0  0  0  0
   47.3460   34.5780   42.6760 C   0  0  0  0  0  0  0  0  0  0  0  0
   46.1610   35.2900   42.6990 C   0  0  0  0  0  0  0  0  0  0  0  0
   45.3160   34.4380   44.1520 S   0  0  0  0  0  0  0  0  0  0  0  0
   45.8130   30.3990   44.1350 C   0  0  0  0  0  0  0  0  0  0  0  0
   44.9470   29.6950   44.2050 H   0  0  0  0  0  0  0  0  0  0  0  0
   45.5490   31.1830   43.4130 H   0  0  0  0  0  0  0  0  0  0  0  0
   47.0290   29.6390   43.6800 C   0  0  0  0  0  0  0  0  0  0  0  0
   46.7590   28.5410   43.7210 H   0  0  0  0  0  0  0  0  0  0  0  0
   47.9210   29.7820   44.3410 H   0  0  0  0  0  0  0  0  0  0  0  0
   47.2780   29.7910   42.6020 H   0  0  0  0  0  0  0  0  0  0  0  0
  1  2  2  0  0  0  0
  1  6  1  0  0  0  0
  2  3  1  0  0  0  0
  3  7  1  0  0  0  0
  3  4  2  0  0  0  0
  5  4  1  0  0  0  0
  5  8  1  0  0  0  0
  6  5  2  0  0  0  0
  9  2  1  0  0  0  0
 10  9  2  0  0  0  0
 11 10  1  0  0  0  0
 12 13  2  0  0  0  0
 12 10  1  0  0  0  0
 13 14  1  0  0  0  0
 14  9  1  0  0  0  0
 15 16  1  0  0  0  0
 15  1  1  0  0  0  0
 17 15  1  0  0  0  0
 18 19  1  0  0  0  0
 18 15  1  0  0  0  0
 18 20  1  0  0  0  0
 21 18  1  0  0  0  0
M  END
>  <minimizedAffinity>
-3.22658896

>  <minimizedRMSD>
4.55280447

$$$$
