
 OpenBabel03252507013D

 34 36  0  0  0  0  0  0  0  0999 V2000
   48.4820   34.0510   41.7380 N   0  0  0  0  0  0  0  0  0  0  0  0
   49.6740   34.7260   42.1160 C   0  0  0  0  0  0  0  0  0  0  0  0
   50.5180   33.5640   42.6650 C   0  0  0  0  0  0  0  0  0  0  0  0
   50.7470   32.4830   41.6720 C   0  0  0  0  0  0  0  0  0  0  0  0
   49.8280   32.4120   40.4920 C   0  0  0  0  0  0  0  0  0  0  0  0
   48.5990   33.2460   40.5500 C   0  0  0  0  0  0  0  0  0  0  0  0
   50.2260   35.1060   41.2610 H   0  0  0  0  0  0  0  0  0  0  0  0
   49.6290   35.5230   42.8370 H   0  0  0  0  0  0  0  0  0  0  0  0
   51.4890   34.0030   42.9600 H   0  0  0  0  0  0  0  0  0  0  0  0
   50.0390   33.2280   43.6080 H   0  0  0  0  0  0  0  0  0  0  0  0
   51.7610   32.5420   41.2460 H   0  0  0  0  0  0  0  0  0  0  0  0
   50.6460   31.5090   42.1990 H   0  0  0  0  0  0  0  0  0  0  0  0
   49.9710   31.8050   39.6450 H   0  0  0  0  0  0  0  0  0  0  0  0
   47.7320   33.0690   39.4820 C   0  0  0  0  0  0  0  0  0  0  0  0
   46.6160   32.3440   39.2130 C   0  0  0  0  0  0  0  0  0  0  0  0
   46.2810   31.7370   40.0360 H   0  0  0  0  0  0  0  0  0  0  0  0
   46.0330   32.4400   37.9810 C   0  0  0  0  0  3  0  0  0  0  0  0
   46.5350   33.2530   36.9740 C   0  0  0  0  0  3  0  0  0  0  0  0
   48.0360   33.9920   37.8730 S   0  0  0  0  0  0  0  0  0  0  0  0
   47.3550   33.8940   42.4650 C   0  0  0  0  0  0  0  0  0  0  0  0
   46.6760   33.1040   42.0620 H   0  0  0  0  0  0  0  0  0  0  0  0
   47.4480   33.6260   43.5520 H   0  0  0  0  0  0  0  0  0  0  0  0
   46.5310   35.1610   42.4550 C   0  0  0  0  0  0  0  0  0  0  0  0
   46.4260   35.4600   43.5310 H   0  0  0  0  0  0  0  0  0  0  0  0
   46.9540   36.0230   41.9750 H   0  0  0  0  0  0  0  0  0  0  0  0
   45.1530   34.7900   42.0730 C   0  0  0  0  0  0  0  0  0  0  0  0
   44.7510   33.4780   42.0250 C   0  0  0  0  0  0  0  0  0  0  0  0
   43.4390   33.1560   41.6570 C   0  0  0  0  0  0  0  0  0  0  0  0
   42.6190   34.2050   41.3590 N   0  0  0  0  0  0  0  0  0  0  0  0
   43.0400   35.4630   41.4150 C   0  0  0  0  0  0  0  0  0  0  0  0
   44.2910   35.7360   41.7670 N   0  0  0  0  0  0  0  0  0  0  0  0
   45.4030   32.6710   42.2610 H   0  0  0  0  0  0  0  0  0  0  0  0
   43.0710   32.1410   41.6050 H   0  0  0  0  0  0  0  0  0  0  0  0
   42.3900   36.3150   41.1780 H   0  0  0  0  0  0  0  0  0  0  0  0
  1  2  1  0  0  0  0
  1 20  1  0  0  0  0
  2  3  1  0  0  0  0
  2  8  1  0  0  0  0
  3  9  1  0  0  0  0
  3 10  1  0  0  0  0
  4 12  1  0  0  0  0
  4  3  1  0  0  0  0
  5  6  2  0  0  0  0
  5  4  1  0  0  0  0
  6  1  1  0  0  0  0
  7  2  1  0  0  0  0
 11  4  1  0  0  0  0
 13  5  1  0  0  0  0
 14  6  1  0  0  0  0
 15 14  2  0  0  0  0
 15 16  1  0  0  0  0
 17 15  1  0  0  0  0
 18 19  1  0  0  0  0
 18 17  2  0  0  0  0
 19 14  1  0  0  0  0
 20 22  1  0  0  0  0
 21 20  1  0  0  0  0
 23 20  1  0  0  0  0
 23 24  1  0  0  0  0
 25 23  1  0  0  0  0
 26 23  1  0  0  0  0
 27 26  1  0  0  0  0
 27 32  1  0  0  0  0
 28 27  2  0  0  0  0
 29 30  2  0  0  0  0
 29 28  1  0  0  0  0
 30 31  1  0  0  0  0
 31 26  2  0  0  0  0
 33 28  1  0  0  0  0
 34 30  1  0  0  0  0
M  END
>  <minimizedAffinity>
-4.06423712

>  <minimizedRMSD>
4.70972824

$$$$
