
 OpenBabel03252507013D

 34 36  0  0  0  0  0  0  0  0999 V2000
   47.8880   34.2790   41.4570 N   0  0  0  0  0  0  0  0  0  0  0  0
   48.7640   35.3530   41.7700 C   0  0  0  0  0  0  0  0  0  0  0  0
   49.7260   34.6780   42.7620 C   0  0  0  0  0  0  0  0  0  0  0  0
   50.4270   33.4980   42.1920 C   0  0  0  0  0  0  0  0  0  0  0  0
   49.8360   32.8560   40.9760 C   0  0  0  0  0  0  0  0  0  0  0  0
   48.4590   33.2690   40.6020 C   0  0  0  0  0  0  0  0  0  0  0  0
   49.3800   35.6480   40.9260 H   0  0  0  0  0  0  0  0  0  0  0  0
   48.3670   36.2560   42.1980 H   0  0  0  0  0  0  0  0  0  0  0  0
   50.4700   35.4470   43.0410 H   0  0  0  0  0  0  0  0  0  0  0  0
   49.1500   34.4670   43.6870 H   0  0  0  0  0  0  0  0  0  0  0  0
   51.4640   33.7470   41.9140 H   0  0  0  0  0  0  0  0  0  0  0  0
   50.4560   32.7080   42.9740 H   0  0  0  0  0  0  0  0  0  0  0  0
   50.3070   32.1240   40.3850 H   0  0  0  0  0  0  0  0  0  0  0  0
   47.9180   32.5730   39.5310 C   0  0  0  0  0  0  0  0  0  0  0  0
   47.2690   32.8670   38.3760 C   0  0  0  0  0  0  0  0  0  0  0  0
   47.1240   33.9210   38.2120 H   0  0  0  0  0  0  0  0  0  0  0  0
   46.8710   31.8530   37.5520 C   0  0  0  0  0  3  0  0  0  0  0  0
   47.0990   30.5150   37.8430 C   0  0  0  0  0  3  0  0  0  0  0  0
   48.0030   30.6960   39.5050 S   0  0  0  0  0  0  0  0  0  0  0  0
   46.7040   33.9830   42.0320 C   0  0  0  0  0  0  0  0  0  0  0  0
   46.0900   33.2650   41.4360 H   0  0  0  0  0  0  0  0  0  0  0  0
   46.7020   33.5330   43.0620 H   0  0  0  0  0  0  0  0  0  0  0  0
   45.8450   35.2210   42.1570 C   0  0  0  0  0  0  0  0  0  0  0  0
   45.5890   35.3010   43.2470 H   0  0  0  0  0  0  0  0  0  0  0  0
   46.2990   36.1640   41.9170 H   0  0  0  0  0  0  0  0  0  0  0  0
   44.5430   34.9230   41.5260 C   0  0  0  0  0  0  0  0  0  0  0  0
   44.4350   34.0200   40.4970 C   0  0  0  0  0  0  0  0  0  0  0  0
   43.1890   33.7600   39.9170 C   0  0  0  0  0  0  0  0  0  0  0  0
   42.1260   34.4450   40.4300 N   0  0  0  0  0  0  0  0  0  0  0  0
   42.2650   35.3120   41.4270 C   0  0  0  0  0  0  0  0  0  0  0  0
   43.4620   35.5370   41.9560 N   0  0  0  0  0  0  0  0  0  0  0  0
   45.2740   33.4930   40.1080 H   0  0  0  0  0  0  0  0  0  0  0  0
   43.0480   33.0580   39.1060 H   0  0  0  0  0  0  0  0  0  0  0  0
   41.4190   35.8690   41.8480 H   0  0  0  0  0  0  0  0  0  0  0  0
  1  2  1  0  0  0  0
  1 20  1  0  0  0  0
  2  8  1  0  0  0  0
  2  3  1  0  0  0  0
  3  9  1  0  0  0  0
  3 10  1  0  0  0  0
  4  3  1  0  0  0  0
  4 12  1  0  0  0  0
  5  4  1  0  0  0  0
  6  5  2  0  0  0  0
  6  1  1  0  0  0  0
  7  2  1  0  0  0  0
 11  4  1  0  0  0  0
 13  5  1  0  0  0  0
 14  6  1  0  0  0  0
 15 14  2  0  0  0  0
 16 15  1  0  0  0  0
 17 18  2  0  0  0  0
 17 15  1  0  0  0  0
 18 19  1  0  0  0  0
 19 14  1  0  0  0  0
 20 23  1  0  0  0  0
 20 22  1  0  0  0  0
 21 20  1  0  0  0  0
 23 24  1  0  0  0  0
 25 23  1  0  0  0  0
 26 31  1  0  0  0  0
 26 23  1  0  0  0  0
 27 26  2  0  0  0  0
 28 29  2  0  0  0  0
 28 27  1  0  0  0  0
 29 30  1  0  0  0  0
 30 34  1  0  0  0  0
 30 31  2  0  0  0  0
 32 27  1  0  0  0  0
 33 28  1  0  0  0  0
M  END
>  <minimizedAffinity>
-3.99551201

>  <minimizedRMSD>
5.05645084

$$$$
