
 OpenBabel03252504413D

 42 45  0  0  0  0  0  0  0  0999 V2000
   46.4220   32.1910   47.7690 C   0  0  0  0  0  0  0  0  0  0  0  0
   45.9550   31.8370   48.9990 C   0  0  0  0  0  0  0  0  0  0  0  0
   46.9310   31.1520   49.5930 N   0  0  0  0  0  0  0  0  0  0  0  0
   47.9950   31.0550   48.8020 C   0  0  0  0  0  0  0  0  0  0  0  0
   47.6760   31.7120   47.6440 N   0  0  0  0  0  0  0  0  0  0  0  0
   49.2710   30.4340   48.9850 N   0  0  0  0  0  0  0  0  0  0  0  0
   50.3360   31.2570   49.6020 C   0  0  0  0  0  0  0  0  0  0  0  0
   50.4410   30.7520   51.0360 C   0  0  0  0  0  0  0  0  0  0  0  0
   50.4960   29.2400   51.0450 C   0  0  0  0  0  0  0  0  0  0  0  0
   50.8560   28.7380   49.6550 C   0  0  0  0  0  0  0  0  0  0  0  0
   49.7560   29.1270   48.6850 C   0  0  0  0  0  0  0  0  0  0  0  0
   44.9700   32.0780   49.3970 H   0  0  0  0  0  0  0  0  0  0  0  0
   46.8870   30.7390   50.5560 H   0  0  0  0  0  0  0  0  0  0  0  0
   51.3020   31.1160   49.0940 H   0  0  0  0  0  0  0  0  0  0  0  0
   50.0230   32.3140   49.6570 H   0  0  0  0  0  0  0  0  0  0  0  0
   51.3490   31.1310   51.5550 H   0  0  0  0  0  0  0  0  0  0  0  0
   49.5500   31.0990   51.6210 H   0  0  0  0  0  0  0  0  0  0  0  0
   49.4930   28.8390   51.2800 H   0  0  0  0  0  0  0  0  0  0  0  0
   51.1890   28.8650   51.8010 H   0  0  0  0  0  0  0  0  0  0  0  0
   50.8440   27.6150   49.7320 H   0  0  0  0  0  0  0  0  0  0  0  0
   51.8510   29.1050   49.3260 H   0  0  0  0  0  0  0  0  0  0  0  0
   50.2080   29.1510   47.6730 H   0  0  0  0  0  0  0  0  0  0  0  0
   48.9630   28.3510   48.6650 H   0  0  0  0  0  0  0  0  0  0  0  0
   45.6920   32.9740   46.7390 C   0  0  0  0  0  0  0  0  0  0  0  0
   45.5430   33.9970   47.1770 H   0  0  0  0  0  0  0  0  0  0  0  0
   44.6970   32.5370   46.5540 H   0  0  0  0  0  0  0  0  0  0  0  0
   46.1480   33.8880   44.4870 C   0  0  0  0  0  3  0  0  0  0  0  0
   46.5100   33.1580   45.5190 C   0  0  0  0  0  3  0  0  0  0  0  0
   47.0550   33.9810   43.3470 C   0  0  0  0  0  0  0  0  0  0  0  0
   46.9780   35.0470   42.4250 C   0  0  0  0  0  0  0  0  0  0  0  0
   47.8880   35.0430   41.3750 C   0  0  0  0  0  0  0  0  0  0  0  0
   48.7980   34.0420   41.2700 N   0  0  0  0  0  0  0  0  0  0  0  0
   48.8470   33.0360   42.1660 C   0  0  0  0  0  0  0  0  0  0  0  0
   47.9960   33.0050   43.1820 N   0  0  0  0  0  0  0  0  0  0  0  0
   46.2320   35.7860   42.5890 H   0  0  0  0  0  0  0  0  0  0  0  0
   47.8000   35.8750   40.6880 H   0  0  0  0  0  0  0  0  0  0  0  0
   49.8840   32.0780   41.8720 C   0  0  0  0  0  0  0  0  0  0  0  0
   50.6810   31.3680   42.6950 C   0  0  0  0  0  0  0  0  0  0  0  0
   50.5730   31.4950   43.7640 H   0  0  0  0  0  0  0  0  0  0  0  0
   51.6090   30.5040   42.1650 C   0  0  0  0  0  3  0  0  0  0  0  0
   51.6550   30.4260   40.7660 C   0  0  0  0  0  3  0  0  0  0  0  0
   50.3640   31.5960   40.2150 S   0  0  0  0  0  0  0  0  0  0  0  0
  1  2  2  0  0  0  0
  2 12  1  0  0  0  0
  2  3  1  0  0  0  0
  3 13  1  0  0  0  0
  4  6  1  0  0  0  0
  4  3  1  0  0  0  0
  5  1  1  0  0  0  0
  5  4  2  0  0  0  0
  6  7  1  0  0  0  0
  7 15  1  0  0  0  0
  7  8  1  0  0  0  0
  8  9  1  0  0  0  0
  8 16  1  0  0  0  0
  8 17  1  0  0  0  0
  9 18  1  0  0  0  0
  9 19  1  0  0  0  0
 10 20  1  0  0  0  0
 10  9  1  0  0  0  0
 11  6  1  0  0  0  0
 11 10  1  0  0  0  0
 14  7  1  0  0  0  0
 21 10  1  0  0  0  0
 22 11  1  0  0  0  0
 23 11  1  0  0  0  0
 24 25  1  0  0  0  0
 24  1  1  0  0  0  0
 26 24  1  0  0  0  0
 27 28  2  0  0  0  0
 28 24  1  0  0  0  0
 29 27  1  0  0  0  0
 30 35  1  0  0  0  0
 30 29  2  0  0  0  0
 31 30  1  0  0  0  0
 32 31  2  0  0  0  0
 32 33  1  0  0  0  0
 33 34  2  0  0  0  0
 34 29  1  0  0  0  0
 36 31  1  0  0  0  0
 37 33  1  0  0  0  0
 37 38  2  0  0  0  0
 38 39  1  0  0  0  0
 40 38  1  0  0  0  0
 41 40  2  0  0  0  0
 42 41  1  0  0  0  0
 42 37  1  0  0  0  0
M  END
>  <minimizedAffinity>
-5.82567215

>  <minimizedRMSD>
0.47257784

$$$$
