
 OpenBabel03242516203D

 25 27  0  0  0  0  0  0  0  0999 V2000
   45.9500   32.8140   47.0440 C   0  0  0  0  0  0  0  0  0  0  0  0
   47.1990   32.3780   47.3900 C   0  0  0  0  0  0  0  0  0  0  0  0
   47.4170   31.5500   48.4760 C   0  0  0  0  0  0  0  0  0  0  0  0
   46.3820   31.1230   49.2650 C   0  0  0  0  0  0  0  0  0  0  0  0
   45.1120   31.5520   48.9330 C   0  0  0  0  0  0  0  0  0  0  0  0
   44.9080   32.3780   47.8480 C   0  0  0  0  0  0  0  0  0  0  0  0
   48.0240   32.7200   46.7590 H   0  0  0  0  0  0  0  0  0  0  0  0
   46.5670   30.4740   50.1120 H   0  0  0  0  0  0  0  0  0  0  0  0
   44.2630   31.2360   49.5350 H   0  0  0  0  0  0  0  0  0  0  0  0
   43.9070   32.7100   47.5960 H   0  0  0  0  0  0  0  0  0  0  0  0
   44.5650   35.5130   45.0040 C   0  0  0  0  0  0  0  0  0  0  0  0
   45.2500   35.3870   43.7820 C   0  0  0  0  0  0  0  0  0  0  0  0
   46.1950   34.3620   43.6670 C   0  0  0  0  0  0  0  0  0  0  0  0
   46.4080   33.5400   44.7320 N   0  0  0  0  0  0  0  0  0  0  0  0
   45.7310   33.6900   45.8960 C   0  0  0  0  0  0  0  0  0  0  0  0
   44.8160   34.6740   46.0200 N   0  0  0  0  0  0  0  0  0  0  0  0
   43.8320   36.3090   45.0910 H   0  0  0  0  0  0  0  0  0  0  0  0
   45.0300   36.0770   42.9750 H   0  0  0  0  0  0  0  0  0  0  0  0
   46.7350   34.2470   42.7340 H   0  0  0  0  0  0  0  0  0  0  0  0
   48.7480   31.1370   48.7740 C   0  0  0  0  0  0  0  0  0  0  0  0
   49.7350   31.7780   49.5210 C   0  0  0  0  0  0  0  0  0  0  0  0
   49.4980   32.7360   49.9600 H   0  0  0  0  0  0  0  0  0  0  0  0
   50.9460   31.1430   49.6490 C   0  0  0  0  0  0  0  0  0  0  0  0
   51.1050   29.9070   49.0250 C   0  0  0  0  0  0  0  0  0  0  0  0
   49.5140   29.6440   48.2500 S   0  0  0  0  0  0  0  0  0  0  0  0
  1  2  2  0  0  0  0
  1  6  1  0  0  0  0
  2  3  1  0  0  0  0
  3 20  1  0  0  0  0
  3  4  2  0  0  0  0
  4  8  1  0  0  0  0
  5  4  1  0  0  0  0
  5  9  1  0  0  0  0
  6  5  2  0  0  0  0
  7  2  1  0  0  0  0
 10  6  1  0  0  0  0
 11 17  1  0  0  0  0
 11 16  1  0  0  0  0
 12 11  2  0  0  0  0
 13 12  1  0  0  0  0
 13 14  2  0  0  0  0
 14 15  1  0  0  0  0
 15 16  2  0  0  0  0
 15  1  1  0  0  0  0
 18 12  1  0  0  0  0
 19 13  1  0  0  0  0
 20 21  2  0  0  0  0
 21 23  1  0  0  0  0
 21 22  1  0  0  0  0
 24 23  2  0  0  0  0
 25 20  1  0  0  0  0
 25 24  1  0  0  0  0
M  END
>  <minimizedAffinity>
-5.59497595

>  <minimizedRMSD>
0.922025979

$$$$
