
 OpenBabel03252503483D

 41 44  0  0  1  0  0  0  0  0999 V2000
   37.2630   30.7510   40.4580 C   0  0  0  0  0  0  0  0  0  0  0  0
   36.8660   29.9240   39.4150 C   0  0  0  0  0  0  0  0  0  0  0  0
   37.6610   29.8960   38.2700 C   0  0  0  0  0  0  0  0  0  0  0  0
   38.7720   30.6470   38.1880 N   0  0  0  0  0  0  0  0  0  0  0  0
   39.1360   31.4470   39.2220 C   0  0  0  0  0  0  0  0  0  0  0  0
   38.3980   31.5070   40.3480 N   0  0  0  0  0  0  0  0  0  0  0  0
   36.7360   30.8620   41.3950 H   0  0  0  0  0  0  0  0  0  0  0  0
   37.4760   29.3250   37.4050 H   0  0  0  0  0  0  0  0  0  0  0  0
   40.8880   32.1750   37.6070 C   0  0  2  0  0  0  0  0  0  0  0  0
   40.3590   32.2310   39.0720 C   0  0  1  0  0  0  0  0  0  0  0  0
   40.2270   33.5720   39.2010 O   0  0  0  0  0  0  0  0  0  0  0  0
   41.3540   34.1580   38.7090 C   0  0  0  0  0  0  0  0  0  0  0  0
   42.0510   33.1680   37.7890 C   0  0  2  0  0  0  0  0  0  0  0  0
   41.2540   31.1670   37.3870 H   0  0  0  0  0  0  0  0  0  0  0  0
   41.1950   31.8510   39.7110 H   0  0  0  0  0  0  0  0  0  0  0  0
   42.0640   34.3750   39.5340 H   0  0  0  0  0  0  0  0  0  0  0  0
   41.1800   35.0960   38.1530 H   0  0  0  0  0  0  0  0  0  0  0  0
   42.9080   32.6700   38.2810 H   0  0  0  0  0  0  0  0  0  0  0  0
   39.9980   32.7360   36.7710 O   0  0  0  0  0  0  0  0  0  0  0  0
   39.9540   32.3680   35.8660 H   0  0  0  0  0  0  0  0  0  0  0  0
   42.4760   33.7120   36.6070 O   0  0  0  0  0  0  0  0  0  0  0  0
   43.4470   33.7980   36.5140 H   0  0  0  0  0  0  0  0  0  0  0  0
   35.6460   29.1320   39.5720 C   0  0  0  0  0  0  0  0  0  0  0  0
   35.2660   29.2190   40.6300 H   0  0  0  0  0  0  0  0  0  0  0  0
   34.8590   29.5760   38.9680 H   0  0  0  0  0  0  0  0  0  0  0  0
   35.8800   27.7360   39.2130 C   0  0  0  0  0  0  0  0  0  0  0  0
   35.4290   27.1750   38.0230 C   0  0  0  0  0  0  0  0  0  0  0  0
   35.6040   25.8440   37.6850 C   0  0  0  0  0  0  0  0  0  0  0  0
   36.2560   25.0490   38.5820 C   0  0  0  0  0  0  0  0  0  0  0  0
   36.7060   25.5980   39.7600 C   0  0  0  0  0  0  0  0  0  0  0  0
   36.5440   26.9660   40.1330 C   0  0  0  0  0  0  0  0  0  0  0  0
   34.9180   27.8990   37.3750 H   0  0  0  0  0  0  0  0  0  0  0  0
   35.1840   25.6070   36.7190 H   0  0  0  0  0  0  0  0  0  0  0  0
   36.3590   24.0360   38.2720 H   0  0  0  0  0  0  0  0  0  0  0  0
   37.2030   24.8190   40.3560 H   0  0  0  0  0  0  0  0  0  0  0  0
   37.2890   27.1910   41.3420 C   0  0  0  0  0  0  0  0  0  0  0  0
   36.7980   27.3950   42.6460 C   0  0  0  0  0  0  0  0  0  0  0  0
   35.8450   27.4040   43.1310 H   0  0  0  0  0  0  0  0  0  0  0  0
   37.6170   27.6930   43.6740 C   0  0  0  0  0  3  0  0  0  0  0  0
   39.0020   27.7930   43.3800 C   0  0  0  0  0  3  0  0  0  0  0  0
   38.9800   27.4230   41.5310 S   0  0  0  0  0  0  0  0  0  0  0  0
  1  7  1  0  0  0  0
  2 23  1  0  0  0  0
  2  1  2  0  0  0  0
  3  2  1  0  0  0  0
  4  3  2  0  0  0  0
  4  5  1  0  0  0  0
  5  6  2  0  0  0  0
  6  1  1  0  0  0  0
  8  3  1  0  0  0  0
  9 14  1  6  0  0  0
  9 13  1  0  0  0  0
  9 10  1  0  0  0  0
 10 11  1  0  0  0  0
 10  5  1  0  0  0  0
 10 15  1  1  0  0  0
 12 11  1  0  0  0  0
 12 16  1  0  0  0  0
 13 18  1  1  0  0  0
 13 12  1  0  0  0  0
 17 12  1  0  0  0  0
 19  9  1  0  0  0  0
 20 19  1  0  0  0  0
 21 13  1  0  0  0  0
 22 21  1  0  0  0  0
 23 24  1  0  0  0  0
 25 23  1  0  0  0  0
 26 23  1  0  0  0  0
 26 31  1  0  0  0  0
 27 26  2  0  0  0  0
 28 27  1  0  0  0  0
 28 29  2  0  0  0  0
 29 30  1  0  0  0  0
 30 31  2  0  0  0  0
 30 35  1  0  0  0  0
 31 36  1  0  0  0  0
 32 27  1  0  0  0  0
 33 28  1  0  0  0  0
 34 29  1  0  0  0  0
 36 41  1  0  0  0  0
 36 37  2  0  0  0  0
 37 38  1  0  0  0  0
 37 39  1  0  0  0  0
 40 39  2  0  0  0  0
 41 40  1  0  0  0  0
M  END
>  <minimizedAffinity>
-6.51880836

$$$$

 OpenBabel03252503483D

 41 44  0  0  1  0  0  0  0  0999 V2000
   38.2280   27.9040   42.5380 C   0  0  0  0  0  0  0  0  0  0  0  0
   37.3100   27.1100   41.8630 C   0  0  0  0  0  0  0  0  0  0  0  0
   36.7560   27.6150   40.6870 C   0  0  0  0  0  0  0  0  0  0  0  0
   37.1050   28.8290   40.2310 N   0  0  0  0  0  0  0  0  0  0  0  0
   38.0050   29.5840   40.9110 C   0  0  0  0  0  0  0  0  0  0  0  0
   38.5660   29.1370   42.0520 N   0  0  0  0  0  0  0  0  0  0  0  0
   38.7270   27.6280   43.4560 H   0  0  0  0  0  0  0  0  0  0  0  0
   36.0440   27.1290   40.0820 H   0  0  0  0  0  0  0  0  0  0  0  0
   37.0820   31.6230   39.8170 C   0  0  2  0  0  0  0  0  0  0  0  0
   38.3480   30.8900   40.3570 C   0  0  1  0  0  0  0  0  0  0  0  0
   38.7740   31.8210   41.2420 O   0  0  0  0  0  0  0  0  0  0  0  0
   38.7230   33.0390   40.6340 C   0  0  0  0  0  0  0  0  0  0  0  0
   37.7740   32.9480   39.4490 C   0  0  2  0  0  0  0  0  0  0  0  0
   36.7090   31.1060   38.9270 H   0  0  0  0  0  0  0  0  0  0  0  0
   39.0490   30.8190   39.4870 H   0  0  0  0  0  0  0  0  0  0  0  0
   39.7190   33.3030   40.2220 H   0  0  0  0  0  0  0  0  0  0  0  0
   38.3940   33.8660   41.2880 H   0  0  0  0  0  0  0  0  0  0  0  0
   38.3130   32.8460   38.4880 H   0  0  0  0  0  0  0  0  0  0  0  0
   36.2280   31.8740   40.8240 O   0  0  0  0  0  0  0  0  0  0  0  0
   35.2760   31.8720   40.6020 H   0  0  0  0  0  0  0  0  0  0  0  0
   36.9010   33.9970   39.3550 O   0  0  0  0  0  0  0  0  0  0  0  0
   37.0620   34.6090   38.6070 H   0  0  0  0  0  0  0  0  0  0  0  0
   36.9750   25.7980   42.4150 C   0  0  0  0  0  0  0  0  0  0  0  0
   37.5770   25.6100   43.3510 H   0  0  0  0  0  0  0  0  0  0  0  0
   35.9450   25.8130   42.7600 H   0  0  0  0  0  0  0  0  0  0  0  0
   37.1990   24.7430   41.4290 C   0  0  0  0  0  0  0  0  0  0  0  0
   36.1670   24.1460   40.7140 C   0  0  0  0  0  0  0  0  0  0  0  0
   36.3560   23.1160   39.8070 C   0  0  0  0  0  0  0  0  0  0  0  0
   37.6320   22.6720   39.6180 C   0  0  0  0  0  0  0  0  0  0  0  0
   38.6570   23.2610   40.3220 C   0  0  0  0  0  0  0  0  0  0  0  0
   38.4940   24.3250   41.2580 C   0  0  0  0  0  0  0  0  0  0  0  0
   35.1830   24.5750   40.9410 H   0  0  0  0  0  0  0  0  0  0  0  0
   35.4300   22.7920   39.3560 H   0  0  0  0  0  0  0  0  0  0  0  0
   37.7170   21.8790   38.9130 H   0  0  0  0  0  0  0  0  0  0  0  0
   39.6070   22.7810   40.0460 H   0  0  0  0  0  0  0  0  0  0  0  0
   39.8000   24.7780   41.6530 C   0  0  0  0  0  0  0  0  0  0  0  0
   40.3890   24.7390   42.9310 C   0  0  0  0  0  0  0  0  0  0  0  0
   40.1310   24.3700   43.9010 H   0  0  0  0  0  0  0  0  0  0  0  0
   41.5930   25.2930   43.1740 C   0  0  0  0  0  3  0  0  0  0  0  0
   42.2420   25.9200   42.0800 C   0  0  0  0  0  3  0  0  0  0  0  0
   40.9660   25.6280   40.7220 S   0  0  0  0  0  0  0  0  0  0  0  0
  1  7  1  0  0  0  0
  2 23  1  0  0  0  0
  2  1  2  0  0  0  0
  3  2  1  0  0  0  0
  4  3  2  0  0  0  0
  4  5  1  0  0  0  0
  5  6  2  0  0  0  0
  6  1  1  0  0  0  0
  8  3  1  0  0  0  0
  9 14  1  6  0  0  0
  9 10  1  0  0  0  0
  9 19  1  0  0  0  0
 10 15  1  6  0  0  0
 10  5  1  0  0  0  0
 10 11  1  0  0  0  0
 12 11  1  0  0  0  0
 12 17  1  0  0  0  0
 13 18  1  6  0  0  0
 13  9  1  0  0  0  0
 13 12  1  0  0  0  0
 16 12  1  0  0  0  0
 20 19  1  0  0  0  0
 21 13  1  0  0  0  0
 22 21  1  0  0  0  0
 23 25  1  0  0  0  0
 23 24  1  0  0  0  0
 26 23  1  0  0  0  0
 27 32  1  0  0  0  0
 27 26  2  0  0  0  0
 28 27  1  0  0  0  0
 29 28  2  0  0  0  0
 29 30  1  0  0  0  0
 30 31  2  0  0  0  0
 31 26  1  0  0  0  0
 31 36  1  0  0  0  0
 33 28  1  0  0  0  0
 34 29  1  0  0  0  0
 35 30  1  0  0  0  0
 36 37  2  0  0  0  0
 37 39  1  0  0  0  0
 37 38  1  0  0  0  0
 40 39  2  0  0  0  0
 41 36  1  0  0  0  0
 41 40  1  0  0  0  0
M  END
>  <minimizedAffinity>
-6.43381786

$$$$

 OpenBabel03252503483D

 41 44  0  0  1  0  0  0  0  0999 V2000
   36.8960   27.5720   41.2050 C   0  0  0  0  0  0  0  0  0  0  0  0
   36.6140   28.9220   41.3740 C   0  0  0  0  0  0  0  0  0  0  0  0
   37.4390   29.6560   42.2240 C   0  0  0  0  0  0  0  0  0  0  0  0
   38.4700   29.0700   42.8540 N   0  0  0  0  0  0  0  0  0  0  0  0
   38.7240   27.7500   42.6720 C   0  0  0  0  0  0  0  0  0  0  0  0
   37.9520   27.0000   41.8590 N   0  0  0  0  0  0  0  0  0  0  0  0
   36.3350   26.8960   40.5760 H   0  0  0  0  0  0  0  0  0  0  0  0
   37.3360   30.6790   42.4500 H   0  0  0  0  0  0  0  0  0  0  0  0
   40.2920   25.8160   42.7480 C   0  0  2  0  0  0  0  0  0  0  0  0
   39.8650   27.1760   43.3790 C   0  0  1  0  0  0  0  0  0  0  0  0
   41.0360   27.8440   43.2620 O   0  0  0  0  0  0  0  0  0  0  0  0
   42.0380   27.0200   43.6790 C   0  0  0  0  0  0  0  0  0  0  0  0
   41.5370   25.5850   43.6240 C   0  0  2  0  0  0  0  0  0  0  0  0
   39.5210   25.0630   42.9420 H   0  0  0  0  0  0  0  0  0  0  0  0
   39.6400   26.9540   44.4520 H   0  0  0  0  0  0  0  0  0  0  0  0
   42.2860   27.2270   44.7410 H   0  0  0  0  0  0  0  0  0  0  0  0
   42.9690   27.0930   43.0910 H   0  0  0  0  0  0  0  0  0  0  0  0
   41.2410   25.2060   44.6200 H   0  0  0  0  0  0  0  0  0  0  0  0
   40.7100   26.0020   41.4840 O   0  0  0  0  0  0  0  0  0  0  0  0
   40.5490   25.2690   40.8570 H   0  0  0  0  0  0  0  0  0  0  0  0
   42.4260   24.7080   43.0650 O   0  0  0  0  0  0  0  0  0  0  0  0
   42.8310   24.0700   43.6880 H   0  0  0  0  0  0  0  0  0  0  0  0
   35.4750   29.4950   40.6570 C   0  0  0  0  0  0  0  0  0  0  0  0
   34.5230   28.9790   40.9720 H   0  0  0  0  0  0  0  0  0  0  0  0
   35.3390   30.5250   40.9770 H   0  0  0  0  0  0  0  0  0  0  0  0
   35.6670   29.4000   39.2110 C   0  0  0  0  0  0  0  0  0  0  0  0
   34.9430   28.5250   38.4090 C   0  0  0  0  0  0  0  0  0  0  0  0
   35.1400   28.3900   37.0450 C   0  0  0  0  0  0  0  0  0  0  0  0
   36.1050   29.1650   36.4710 C   0  0  0  0  0  0  0  0  0  0  0  0
   36.8230   30.0330   37.2590 C   0  0  0  0  0  0  0  0  0  0  0  0
   36.6390   30.1970   38.6650 C   0  0  0  0  0  0  0  0  0  0  0  0
   34.1940   27.9490   38.9690 H   0  0  0  0  0  0  0  0  0  0  0  0
   34.4770   27.6610   36.6050 H   0  0  0  0  0  0  0  0  0  0  0  0
   36.2160   29.0180   35.4220 H   0  0  0  0  0  0  0  0  0  0  0  0
   37.5510   30.5710   36.6350 H   0  0  0  0  0  0  0  0  0  0  0  0
   37.4470   31.3050   39.0960 C   0  0  0  0  0  0  0  0  0  0  0  0
   37.0260   32.5700   39.5470 C   0  0  0  0  0  0  0  0  0  0  0  0
   36.0970   33.0620   39.7450 H   0  0  0  0  0  0  0  0  0  0  0  0
   37.9060   33.5520   39.8280 C   0  0  0  0  0  3  0  0  0  0  0  0
   39.2800   33.2510   39.6470 C   0  0  0  0  0  3  0  0  0  0  0  0
   39.1570   31.4660   39.0510 S   0  0  0  0  0  0  0  0  0  0  0  0
  1  2  2  0  0  0  0
  1  6  1  0  0  0  0
  2  3  1  0  0  0  0
  3  8  1  0  0  0  0
  3  4  2  0  0  0  0
  5  4  1  0  0  0  0
  5 10  1  0  0  0  0
  6  5  2  0  0  0  0
  7  1  1  0  0  0  0
  9 14  1  1  0  0  0
  9 10  1  0  0  0  0
  9 13  1  0  0  0  0
 10 15  1  1  0  0  0
 11 10  1  0  0  0  0
 11 12  1  0  0  0  0
 12 16  1  0  0  0  0
 13 12  1  0  0  0  0
 13 18  1  1  0  0  0
 17 12  1  0  0  0  0
 19  9  1  0  0  0  0
 20 19  1  0  0  0  0
 21 13  1  0  0  0  0
 21 22  1  0  0  0  0
 23 24  1  0  0  0  0
 23 25  1  0  0  0  0
 23  2  1  0  0  0  0
 26 23  1  0  0  0  0
 27 32  1  0  0  0  0
 27 26  2  0  0  0  0
 28 27  1  0  0  0  0
 29 28  2  0  0  0  0
 29 30  1  0  0  0  0
 30 31  2  0  0  0  0
 31 36  1  0  0  0  0
 31 26  1  0  0  0  0
 33 28  1  0  0  0  0
 34 29  1  0  0  0  0
 35 30  1  0  0  0  0
 36 37  2  0  0  0  0
 37 38  1  0  0  0  0
 37 39  1  0  0  0  0
 40 39  2  0  0  0  0
 41 36  1  0  0  0  0
 41 40  1  0  0  0  0
M  END
>  <minimizedAffinity>
-6.30531025

$$$$

 OpenBabel03252503483D

 41 44  0  0  1  0  0  0  0  0999 V2000
   39.2820   30.9620   38.6260 C   0  0  0  0  0  0  0  0  0  0  0  0
   38.4580   31.9480   39.1530 C   0  0  0  0  0  0  0  0  0  0  0  0
   39.0500   33.1490   39.5430 C   0  0  0  0  0  0  0  0  0  0  0  0
   40.3740   33.3360   39.4090 N   0  0  0  0  0  0  0  0  0  0  0  0
   41.1560   32.3560   38.8910 C   0  0  0  0  0  0  0  0  0  0  0  0
   40.6270   31.1780   38.5010 N   0  0  0  0  0  0  0  0  0  0  0  0
   38.9480   29.9920   38.2880 H   0  0  0  0  0  0  0  0  0  0  0  0
   38.5510   33.9740   39.9650 H   0  0  0  0  0  0  0  0  0  0  0  0
   42.9810   32.8720   37.2750 C   0  0  2  0  0  0  0  0  0  0  0  0
   42.5850   32.6260   38.7630 C   0  0  1  0  0  0  0  0  0  0  0  0
   43.0210   33.7910   39.2960 O   0  0  0  0  0  0  0  0  0  0  0  0
   44.2670   34.0410   38.8060 C   0  0  0  0  0  0  0  0  0  0  0  0
   44.4550   33.2340   37.5300 C   0  0  2  0  0  0  0  0  0  0  0  0
   42.8900   31.9380   36.7110 H   0  0  0  0  0  0  0  0  0  0  0  0
   43.2180   31.7700   39.1060 H   0  0  0  0  0  0  0  0  0  0  0  0
   45.0390   33.6860   39.5200 H   0  0  0  0  0  0  0  0  0  0  0  0
   44.4700   35.1040   38.5850 H   0  0  0  0  0  0  0  0  0  0  0  0
   45.0530   32.3180   37.6980 H   0  0  0  0  0  0  0  0  0  0  0  0
   42.3640   33.9720   36.8080 O   0  0  0  0  0  0  0  0  0  0  0  0
   42.1350   33.9740   35.8570 H   0  0  0  0  0  0  0  0  0  0  0  0
   45.0150   33.9430   36.5020 O   0  0  0  0  0  0  0  0  0  0  0  0
   45.9310   33.6860   36.2680 H   0  0  0  0  0  0  0  0  0  0  0  0
   37.0260   31.6770   39.2710 C   0  0  0  0  0  0  0  0  0  0  0  0
   36.4940   32.5900   39.6680 H   0  0  0  0  0  0  0  0  0  0  0  0
   36.6110   31.5390   38.2770 H   0  0  0  0  0  0  0  0  0  0  0  0
   36.7830   30.5170   40.1250 C   0  0  0  0  0  0  0  0  0  0  0  0
   37.2510   30.4290   41.4320 C   0  0  0  0  0  0  0  0  0  0  0  0
   37.0670   29.3210   42.2420 C   0  0  0  0  0  0  0  0  0  0  0  0
   36.3890   28.2630   41.7120 C   0  0  0  0  0  0  0  0  0  0  0  0
   35.9220   28.3450   40.4210 C   0  0  0  0  0  0  0  0  0  0  0  0
   36.0920   29.4740   39.5650 C   0  0  0  0  0  0  0  0  0  0  0  0
   37.7830   31.3320   41.7590 H   0  0  0  0  0  0  0  0  0  0  0  0
   37.5040   29.4510   43.2200 H   0  0  0  0  0  0  0  0  0  0  0  0
   36.2800   27.4380   42.3770 H   0  0  0  0  0  0  0  0  0  0  0  0
   35.4050   27.4090   40.1640 H   0  0  0  0  0  0  0  0  0  0  0  0
   35.3260   29.2490   38.3700 C   0  0  0  0  0  0  0  0  0  0  0  0
   33.9640   28.9110   38.2550 C   0  0  0  0  0  0  0  0  0  0  0  0
   33.1340   28.7720   38.9150 H   0  0  0  0  0  0  0  0  0  0  0  0
   33.4000   28.6330   37.0640 C   0  0  0  0  0  3  0  0  0  0  0  0
   34.2440   28.6960   35.9250 C   0  0  0  0  0  3  0  0  0  0  0  0
   35.8730   29.1820   36.7430 S   0  0  0  0  0  0  0  0  0  0  0  0
  1  2  1  0  0  0  0
  2 23  1  0  0  0  0
  2  3  2  0  0  0  0
  3  8  1  0  0  0  0
  4  3  1  0  0  0  0
  5  4  2  0  0  0  0
  6  1  2  0  0  0  0
  6  5  1  0  0  0  0
  7  1  1  0  0  0  0
  9 14  1  6  0  0  0
  9 13  1  0  0  0  0
  9 10  1  0  0  0  0
 10  5  1  0  0  0  0
 10 15  1  1  0  0  0
 10 11  1  0  0  0  0
 12 11  1  0  0  0  0
 12 16  1  0  0  0  0
 13 18  1  1  0  0  0
 13 12  1  0  0  0  0
 17 12  1  0  0  0  0
 19  9  1  0  0  0  0
 20 19  1  0  0  0  0
 21 13  1  0  0  0  0
 22 21  1  0  0  0  0
 23 24  1  0  0  0  0
 23 26  1  0  0  0  0
 25 23  1  0  0  0  0
 26 27  1  0  0  0  0
 27 32  1  0  0  0  0
 27 28  2  0  0  0  0
 28 33  1  0  0  0  0
 29 28  1  0  0  0  0
 29 34  1  0  0  0  0
 30 29  2  0  0  0  0
 31 26  2  0  0  0  0
 31 30  1  0  0  0  0
 35 30  1  0  0  0  0
 36 31  1  0  0  0  0
 37 36  2  0  0  0  0
 37 38  1  0  0  0  0
 39 37  1  0  0  0  0
 40 41  1  0  0  0  0
 40 39  2  0  0  0  0
 41 36  1  0  0  0  0
M  END
>  <minimizedAffinity>
-6.27956104

$$$$

 OpenBabel03252503483D

 41 44  0  0  1  0  0  0  0  0999 V2000
   38.3040   29.3200   38.5630 C   0  0  0  0  0  0  0  0  0  0  0  0
   37.3620   29.5900   39.5480 C   0  0  0  0  0  0  0  0  0  0  0  0
   37.5600   30.7180   40.3430 C   0  0  0  0  0  0  0  0  0  0  0  0
   38.6270   31.5120   40.1540 N   0  0  0  0  0  0  0  0  0  0  0  0
   39.5320   31.2250   39.1850 C   0  0  0  0  0  0  0  0  0  0  0  0
   39.3820   30.1440   38.3920 N   0  0  0  0  0  0  0  0  0  0  0  0
   38.2660   28.4810   37.8840 H   0  0  0  0  0  0  0  0  0  0  0  0
   36.9350   31.0350   41.1290 H   0  0  0  0  0  0  0  0  0  0  0  0
   41.1540   32.1680   37.5460 C   0  0  2  0  0  0  0  0  0  0  0  0
   40.6640   32.1330   39.0260 C   0  0  1  0  0  0  0  0  0  0  0  0
   40.4020   33.4490   39.1960 O   0  0  0  0  0  0  0  0  0  0  0  0
   41.4490   34.1590   38.6920 C   0  0  0  0  0  0  0  0  0  0  0  0
   42.2150   33.2680   37.7260 C   0  0  2  0  0  0  0  0  0  0  0  0
   41.6140   31.2080   37.2880 H   0  0  0  0  0  0  0  0  0  0  0  0
   41.5530   31.8240   39.6310 H   0  0  0  0  0  0  0  0  0  0  0  0
   42.1570   34.4270   39.5030 H   0  0  0  0  0  0  0  0  0  0  0  0
   41.1650   35.0890   38.1670 H   0  0  0  0  0  0  0  0  0  0  0  0
   43.1320   32.8480   38.1810 H   0  0  0  0  0  0  0  0  0  0  0  0
   40.1880   32.6570   36.7500 O   0  0  0  0  0  0  0  0  0  0  0  0
   40.1560   32.3100   35.8360 H   0  0  0  0  0  0  0  0  0  0  0  0
   42.5490   33.8830   36.5500 O   0  0  0  0  0  0  0  0  0  0  0  0
   43.5040   34.0700   36.4330 H   0  0  0  0  0  0  0  0  0  0  0  0
   36.2240   28.6840   39.6980 C   0  0  0  0  0  0  0  0  0  0  0  0
   35.3020   29.2690   39.9810 H   0  0  0  0  0  0  0  0  0  0  0  0
   35.9830   28.2580   38.7280 H   0  0  0  0  0  0  0  0  0  0  0  0
   36.5100   27.6470   40.6880 C   0  0  0  0  0  0  0  0  0  0  0  0
   36.5220   27.8920   42.0570 C   0  0  0  0  0  0  0  0  0  0  0  0
   36.8320   26.9330   43.0070 C   0  0  0  0  0  0  0  0  0  0  0  0
   37.1430   25.6830   42.5580 C   0  0  0  0  0  0  0  0  0  0  0  0
   37.1310   25.4350   41.2050 C   0  0  0  0  0  0  0  0  0  0  0  0
   36.8120   26.4010   40.2040 C   0  0  0  0  0  0  0  0  0  0  0  0
   36.2590   28.9270   42.3100 H   0  0  0  0  0  0  0  0  0  0  0  0
   36.7830   27.3210   44.0120 H   0  0  0  0  0  0  0  0  0  0  0  0
   37.3760   24.9880   43.3300 H   0  0  0  0  0  0  0  0  0  0  0  0
   37.4050   24.3850   41.0280 H   0  0  0  0  0  0  0  0  0  0  0  0
   36.7420   25.7260   38.9370 C   0  0  0  0  0  0  0  0  0  0  0  0
   35.6860   24.9550   38.4140 C   0  0  0  0  0  0  0  0  0  0  0  0
   34.6940   24.6820   38.7100 H   0  0  0  0  0  0  0  0  0  0  0  0
   35.8000   24.2950   37.2450 C   0  0  0  0  0  3  0  0  0  0  0  0
   37.0370   24.4130   36.5610 C   0  0  0  0  0  3  0  0  0  0  0  0
   37.9720   25.5370   37.7540 S   0  0  0  0  0  0  0  0  0  0  0  0
  1  2  1  0  0  0  0
  2 23  1  0  0  0  0
  2  3  2  0  0  0  0
  3  8  1  0  0  0  0
  4  3  1  0  0  0  0
  5  4  2  0  0  0  0
  6  1  2  0  0  0  0
  6  5  1  0  0  0  0
  7  1  1  0  0  0  0
  9 14  1  6  0  0  0
  9 13  1  0  0  0  0
  9 10  1  0  0  0  0
 10  5  1  0  0  0  0
 10 11  1  0  0  0  0
 10 15  1  1  0  0  0
 12 11  1  0  0  0  0
 12 16  1  0  0  0  0
 13 18  1  1  0  0  0
 13 12  1  0  0  0  0
 17 12  1  0  0  0  0
 19  9  1  0  0  0  0
 20 19  1  0  0  0  0
 21 13  1  0  0  0  0
 22 21  1  0  0  0  0
 23 24  1  0  0  0  0
 23 26  1  0  0  0  0
 25 23  1  0  0  0  0
 26 27  1  0  0  0  0
 27 32  1  0  0  0  0
 27 28  2  0  0  0  0
 28 33  1  0  0  0  0
 29 28  1  0  0  0  0
 29 34  1  0  0  0  0
 30 29  2  0  0  0  0
 31 26  2  0  0  0  0
 31 30  1  0  0  0  0
 35 30  1  0  0  0  0
 36 31  1  0  0  0  0
 37 38  1  0  0  0  0
 37 36  2  0  0  0  0
 39 37  1  0  0  0  0
 40 39  2  0  0  0  0
 40 41  1  0  0  0  0
 41 36  1  0  0  0  0
M  END
>  <minimizedAffinity>
-6.24533606

$$$$

 OpenBabel03252503483D

 41 44  0  0  1  0  0  0  0  0999 V2000
   37.4270   31.0820   40.1650 C   0  0  0  0  0  0  0  0  0  0  0  0
   37.6570   29.9950   40.9990 C   0  0  0  0  0  0  0  0  0  0  0  0
   38.9800   29.6880   41.3140 C   0  0  0  0  0  0  0  0  0  0  0  0
   39.9900   30.4240   40.8220 N   0  0  0  0  0  0  0  0  0  0  0  0
   39.7370   31.4800   40.0100 C   0  0  0  0  0  0  0  0  0  0  0  0
   38.4740   31.8150   39.6780 N   0  0  0  0  0  0  0  0  0  0  0  0
   36.4510   31.4230   39.8480 H   0  0  0  0  0  0  0  0  0  0  0  0
   39.2990   28.8910   41.9230 H   0  0  0  0  0  0  0  0  0  0  0  0
   40.9630   32.1920   37.9610 C   0  0  2  0  0  0  0  0  0  0  0  0
   40.8790   32.2440   39.5170 C   0  0  1  0  0  0  0  0  0  0  0  0
   40.8170   33.5860   39.6830 O   0  0  0  0  0  0  0  0  0  0  0  0
   41.7650   34.1570   38.8890 C   0  0  0  0  0  0  0  0  0  0  0  0
   42.1470   33.1630   37.8040 C   0  0  2  0  0  0  0  0  0  0  0  0
   41.2300   31.1800   37.6410 H   0  0  0  0  0  0  0  0  0  0  0  0
   41.8570   31.8440   39.8850 H   0  0  0  0  0  0  0  0  0  0  0  0
   42.6870   34.3540   39.4750 H   0  0  0  0  0  0  0  0  0  0  0  0
   41.4560   35.1030   38.4110 H   0  0  0  0  0  0  0  0  0  0  0  0
   43.1000   32.6460   38.0250 H   0  0  0  0  0  0  0  0  0  0  0  0
   39.8800   32.7770   37.4200 O   0  0  0  0  0  0  0  0  0  0  0  0
   39.5710   32.4180   36.5640 H   0  0  0  0  0  0  0  0  0  0  0  0
   42.2240   33.7110   36.5520 O   0  0  0  0  0  0  0  0  0  0  0  0
   43.1280   33.7810   36.1820 H   0  0  0  0  0  0  0  0  0  0  0  0
   36.5100   29.2380   41.4990 C   0  0  0  0  0  0  0  0  0  0  0  0
   36.4070   29.3860   42.6130 H   0  0  0  0  0  0  0  0  0  0  0  0
   35.6000   29.6650   41.0880 H   0  0  0  0  0  0  0  0  0  0  0  0
   36.6380   27.8200   41.1700 C   0  0  0  0  0  0  0  0  0  0  0  0
   37.0030   26.8570   42.1050 C   0  0  0  0  0  0  0  0  0  0  0  0
   37.1710   25.5160   41.8030 C   0  0  0  0  0  0  0  0  0  0  0  0
   36.9650   25.1340   40.5100 C   0  0  0  0  0  0  0  0  0  0  0  0
   36.6030   26.0820   39.5810 C   0  0  0  0  0  0  0  0  0  0  0  0
   36.4180   27.4680   39.8640 C   0  0  0  0  0  0  0  0  0  0  0  0
   37.1440   27.2700   43.1120 H   0  0  0  0  0  0  0  0  0  0  0  0
   37.4530   24.9340   42.6670 H   0  0  0  0  0  0  0  0  0  0  0  0
   37.1110   24.0940   40.3340 H   0  0  0  0  0  0  0  0  0  0  0  0
   36.4820   25.5990   38.6010 H   0  0  0  0  0  0  0  0  0  0  0  0
   35.8820   28.0970   38.6880 C   0  0  0  0  0  0  0  0  0  0  0  0
   34.5530   28.4880   38.4340 C   0  0  0  0  0  0  0  0  0  0  0  0
   33.6250   28.4980   38.9660 H   0  0  0  0  0  0  0  0  0  0  0  0
   34.1740   28.9810   37.2390 C   0  0  0  0  0  3  0  0  0  0  0  0
   35.1780   29.0890   36.2430 C   0  0  0  0  0  3  0  0  0  0  0  0
   36.6650   28.4240   37.1950 S   0  0  0  0  0  0  0  0  0  0  0  0
  1  2  1  0  0  0  0
  2  3  2  0  0  0  0
  2 23  1  0  0  0  0
  3  8  1  0  0  0  0
  4  3  1  0  0  0  0
  5  4  2  0  0  0  0
  6  5  1  0  0  0  0
  6  1  2  0  0  0  0
  7  1  1  0  0  0  0
  9 14  1  6  0  0  0
  9 10  1  0  0  0  0
 10 11  1  0  0  0  0
 10 15  1  1  0  0  0
 10  5  1  0  0  0  0
 12 16  1  0  0  0  0
 12 11  1  0  0  0  0
 13  9  1  0  0  0  0
 13 18  1  1  0  0  0
 13 12  1  0  0  0  0
 17 12  1  0  0  0  0
 19  9  1  0  0  0  0
 20 19  1  0  0  0  0
 21 13  1  0  0  0  0
 22 21  1  0  0  0  0
 23 24  1  0  0  0  0
 25 23  1  0  0  0  0
 26 23  1  0  0  0  0
 26 27  1  0  0  0  0
 27 32  1  0  0  0  0
 28 27  2  0  0  0  0
 28 33  1  0  0  0  0
 29 28  1  0  0  0  0
 30 31  1  0  0  0  0
 30 29  2  0  0  0  0
 31 26  2  0  0  0  0
 34 29  1  0  0  0  0
 35 30  1  0  0  0  0
 36 31  1  0  0  0  0
 37 36  2  0  0  0  0
 37 38  1  0  0  0  0
 39 37  1  0  0  0  0
 40 41  1  0  0  0  0
 40 39  2  0  0  0  0
 41 36  1  0  0  0  0
M  END
>  <minimizedAffinity>
-6.08889866

$$$$

 OpenBabel03252503483D

 41 44  0  0  1  0  0  0  0  0999 V2000
   38.0680   31.3500   39.3250 C   0  0  0  0  0  0  0  0  0  0  0  0
   37.9950   31.2540   40.7090 C   0  0  0  0  0  0  0  0  0  0  0  0
   39.1170   31.6270   41.4460 C   0  0  0  0  0  0  0  0  0  0  0  0
   40.2280   32.0640   40.8300 N   0  0  0  0  0  0  0  0  0  0  0  0
   40.2730   32.1480   39.4770 C   0  0  0  0  0  0  0  0  0  0  0  0
   39.2110   31.7980   38.7230 N   0  0  0  0  0  0  0  0  0  0  0  0
   37.2700   31.0930   38.6440 H   0  0  0  0  0  0  0  0  0  0  0  0
   39.2050   31.5950   42.4950 H   0  0  0  0  0  0  0  0  0  0  0  0
   42.1760   31.5420   37.9870 C   0  0  2  0  0  0  0  0  0  0  0  0
   41.5070   32.6400   38.8700 C   0  0  1  0  0  0  0  0  0  0  0  0
   41.3670   33.6100   37.9370 O   0  0  0  0  0  0  0  0  0  0  0  0
   42.5390   33.7070   37.2480 C   0  0  0  0  0  0  0  0  0  0  0  0
   43.3180   32.4150   37.4360 C   0  0  2  0  0  0  0  0  0  0  0  0
   42.5580   30.7390   38.6260 H   0  0  0  0  0  0  0  0  0  0  0  0
   42.2760   32.9270   39.6290 H   0  0  0  0  0  0  0  0  0  0  0  0
   43.1660   34.5190   37.6720 H   0  0  0  0  0  0  0  0  0  0  0  0
   42.4220   33.8960   36.1660 H   0  0  0  0  0  0  0  0  0  0  0  0
   44.1220   32.5170   38.1890 H   0  0  0  0  0  0  0  0  0  0  0  0
   41.3730   31.2230   36.9580 O   0  0  0  0  0  0  0  0  0  0  0  0
   41.4160   30.2990   36.6390 H   0  0  0  0  0  0  0  0  0  0  0  0
   43.8580   31.9190   36.2810 O   0  0  0  0  0  0  0  0  0  0  0  0
   44.8340   31.9740   36.2180 H   0  0  0  0  0  0  0  0  0  0  0  0
   36.7540   30.7700   41.3150 C   0  0  0  0  0  0  0  0  0  0  0  0
   36.4660   31.4320   42.1810 H   0  0  0  0  0  0  0  0  0  0  0  0
   35.9430   30.8950   40.6030 H   0  0  0  0  0  0  0  0  0  0  0  0
   36.8900   29.3790   41.7420 C   0  0  0  0  0  0  0  0  0  0  0  0
   37.4260   29.0160   42.9730 C   0  0  0  0  0  0  0  0  0  0  0  0
   37.6010   27.7030   43.3770 C   0  0  0  0  0  0  0  0  0  0  0  0
   37.2240   26.7220   42.5060 C   0  0  0  0  0  0  0  0  0  0  0  0
   36.6920   27.0760   41.2880 C   0  0  0  0  0  0  0  0  0  0  0  0
   36.4960   28.4190   40.8470 C   0  0  0  0  0  0  0  0  0  0  0  0
   37.6960   29.8780   43.5940 H   0  0  0  0  0  0  0  0  0  0  0  0
   38.0300   27.6320   44.3650 H   0  0  0  0  0  0  0  0  0  0  0  0
   37.3850   25.7340   42.8680 H   0  0  0  0  0  0  0  0  0  0  0  0
   36.4490   26.1660   40.7220 H   0  0  0  0  0  0  0  0  0  0  0  0
   35.7680   28.3800   39.6080 C   0  0  0  0  0  0  0  0  0  0  0  0
   34.5170   28.9540   39.3100 C   0  0  0  0  0  0  0  0  0  0  0  0
   33.8000   29.5700   39.8100 H   0  0  0  0  0  0  0  0  0  0  0  0
   33.9070   28.7520   38.1250 C   0  0  0  0  0  3  0  0  0  0  0  0
   34.5850   27.9300   37.1890 C   0  0  0  0  0  3  0  0  0  0  0  0
   36.1350   27.5050   38.1760 S   0  0  0  0  0  0  0  0  0  0  0  0
  1  2  1  0  0  0  0
  2 23  1  0  0  0  0
  2  3  2  0  0  0  0
  3  8  1  0  0  0  0
  4  3  1  0  0  0  0
  5  4  2  0  0  0  0
  6  1  2  0  0  0  0
  6  5  1  0  0  0  0
  7  1  1  0  0  0  0
  9 14  1  1  0  0  0
  9 10  1  0  0  0  0
 10  5  1  0  0  0  0
 10 15  1  1  0  0  0
 11 10  1  0  0  0  0
 12 13  1  0  0  0  0
 12 16  1  0  0  0  0
 12 11  1  0  0  0  0
 13  9  1  0  0  0  0
 13 18  1  1  0  0  0
 17 12  1  0  0  0  0
 19  9  1  0  0  0  0
 20 19  1  0  0  0  0
 21 13  1  0  0  0  0
 22 21  1  0  0  0  0
 23 26  1  0  0  0  0
 23 24  1  0  0  0  0
 25 23  1  0  0  0  0
 26 27  1  0  0  0  0
 27 28  2  0  0  0  0
 27 32  1  0  0  0  0
 28 33  1  0  0  0  0
 29 34  1  0  0  0  0
 29 28  1  0  0  0  0
 30 29  2  0  0  0  0
 31 30  1  0  0  0  0
 31 26  2  0  0  0  0
 35 30  1  0  0  0  0
 36 31  1  0  0  0  0
 37 36  2  0  0  0  0
 37 38  1  0  0  0  0
 39 37  1  0  0  0  0
 40 39  2  0  0  0  0
 40 41  1  0  0  0  0
 41 36  1  0  0  0  0
M  END
>  <minimizedAffinity>
-6.08443165

$$$$

 OpenBabel03252503483D

 41 44  0  0  1  0  0  0  0  0999 V2000
   38.9180   29.0230   40.0710 C   0  0  0  0  0  0  0  0  0  0  0  0
   37.6310   29.5210   40.2280 C   0  0  0  0  0  0  0  0  0  0  0  0
   37.4440   30.8950   40.0800 C   0  0  0  0  0  0  0  0  0  0  0  0
   38.4800   31.7010   39.7940 N   0  0  0  0  0  0  0  0  0  0  0  0
   39.7270   31.1880   39.6450 C   0  0  0  0  0  0  0  0  0  0  0  0
   39.9560   29.8660   39.7800 N   0  0  0  0  0  0  0  0  0  0  0  0
   39.1940   27.9820   40.1590 H   0  0  0  0  0  0  0  0  0  0  0  0
   36.5300   31.4070   40.1810 H   0  0  0  0  0  0  0  0  0  0  0  0
   41.0550   32.1850   37.7880 C   0  0  2  0  0  0  0  0  0  0  0  0
   40.8080   32.1160   39.3260 C   0  0  1  0  0  0  0  0  0  0  0  0
   40.5590   33.4250   39.5620 O   0  0  0  0  0  0  0  0  0  0  0  0
   41.5020   34.1610   38.9110 C   0  0  0  0  0  0  0  0  0  0  0  0
   42.1160   33.3000   37.8180 C   0  0  2  0  0  0  0  0  0  0  0  0
   41.4800   31.2380   37.4410 H   0  0  0  0  0  0  0  0  0  0  0  0
   41.7860   31.8110   39.7760 H   0  0  0  0  0  0  0  0  0  0  0  0
   42.3270   34.4260   39.6050 H   0  0  0  0  0  0  0  0  0  0  0  0
   41.1260   35.0950   38.4570 H   0  0  0  0  0  0  0  0  0  0  0  0
   43.1000   32.8870   38.1130 H   0  0  0  0  0  0  0  0  0  0  0  0
   39.9680   32.6720   37.1660 O   0  0  0  0  0  0  0  0  0  0  0  0
   39.7950   32.3410   36.2620 H   0  0  0  0  0  0  0  0  0  0  0  0
   42.2500   33.9400   36.6160 O   0  0  0  0  0  0  0  0  0  0  0  0
   43.1710   34.1450   36.3520 H   0  0  0  0  0  0  0  0  0  0  0  0
   36.5500   28.5870   40.5390 C   0  0  0  0  0  0  0  0  0  0  0  0
   36.9040   27.8260   41.2930 H   0  0  0  0  0  0  0  0  0  0  0  0
   35.7570   29.1240   41.0530 H   0  0  0  0  0  0  0  0  0  0  0  0
   36.0610   27.9330   39.3270 C   0  0  0  0  0  0  0  0  0  0  0  0
   35.3790   28.6120   38.3230 C   0  0  0  0  0  0  0  0  0  0  0  0
   34.8720   28.0020   37.1890 C   0  0  0  0  0  0  0  0  0  0  0  0
   35.0580   26.6550   37.0650 C   0  0  0  0  0  0  0  0  0  0  0  0
   35.7330   25.9780   38.0530 C   0  0  0  0  0  0  0  0  0  0  0  0
   36.2700   26.5810   39.2300 C   0  0  0  0  0  0  0  0  0  0  0  0
   35.2840   29.6870   38.5220 H   0  0  0  0  0  0  0  0  0  0  0  0
   34.3790   28.7020   36.5320 H   0  0  0  0  0  0  0  0  0  0  0  0
   34.6450   26.2390   36.1760 H   0  0  0  0  0  0  0  0  0  0  0  0
   35.7870   24.9130   37.7890 H   0  0  0  0  0  0  0  0  0  0  0  0
   37.0420   25.5900   39.9280 C   0  0  0  0  0  0  0  0  0  0  0  0
   36.5810   24.4840   40.6670 C   0  0  0  0  0  0  0  0  0  0  0  0
   35.6390   24.0320   40.8940 H   0  0  0  0  0  0  0  0  0  0  0  0
   37.4240   23.6880   41.3540 C   0  0  0  0  0  3  0  0  0  0  0  0
   38.8030   24.0170   41.2980 C   0  0  0  0  0  3  0  0  0  0  0  0
   38.7390   25.5410   40.1880 S   0  0  0  0  0  0  0  0  0  0  0  0
  1  7  1  0  0  0  0
  1  2  1  0  0  0  0
  2 23  1  0  0  0  0
  3  8  1  0  0  0  0
  3  2  2  0  0  0  0
  4  3  1  0  0  0  0
  5  6  1  0  0  0  0
  5  4  2  0  0  0  0
  6  1  2  0  0  0  0
  9 14  1  6  0  0  0
  9 13  1  0  0  0  0
  9 10  1  0  0  0  0
 10 11  1  0  0  0  0
 10  5  1  0  0  0  0
 10 15  1  1  0  0  0
 12 11  1  0  0  0  0
 12 16  1  0  0  0  0
 13 18  1  1  0  0  0
 13 12  1  0  0  0  0
 17 12  1  0  0  0  0
 19  9  1  0  0  0  0
 20 19  1  0  0  0  0
 21 13  1  0  0  0  0
 22 21  1  0  0  0  0
 23 25  1  0  0  0  0
 23 24  1  0  0  0  0
 26 23  1  0  0  0  0
 27 32  1  0  0  0  0
 27 26  2  0  0  0  0
 28 27  1  0  0  0  0
 29 28  2  0  0  0  0
 29 30  1  0  0  0  0
 30 31  2  0  0  0  0
 31 26  1  0  0  0  0
 31 36  1  0  0  0  0
 33 28  1  0  0  0  0
 34 29  1  0  0  0  0
 35 30  1  0  0  0  0
 36 41  1  0  0  0  0
 36 37  2  0  0  0  0
 37 38  1  0  0  0  0
 37 39  1  0  0  0  0
 40 39  2  0  0  0  0
 41 40  1  0  0  0  0
M  END
>  <minimizedAffinity>
-5.90902042

$$$$

 OpenBabel03252503483D

 41 44  0  0  1  0  0  0  0  0999 V2000
   37.2800   30.2110   39.5500 C   0  0  0  0  0  0  0  0  0  0  0  0
   36.4860   29.5800   40.5000 C   0  0  0  0  0  0  0  0  0  0  0  0
   35.3740   28.8700   40.0470 C   0  0  0  0  0  0  0  0  0  0  0  0
   35.0900   28.8050   38.7360 N   0  0  0  0  0  0  0  0  0  0  0  0
   35.8820   29.4310   37.8300 C   0  0  0  0  0  0  0  0  0  0  0  0
   36.9670   30.1290   38.2220 N   0  0  0  0  0  0  0  0  0  0  0  0
   38.1650   30.7900   39.7710 H   0  0  0  0  0  0  0  0  0  0  0  0
   34.6840   28.3550   40.6520 H   0  0  0  0  0  0  0  0  0  0  0  0
   36.6750   29.8210   35.5010 C   0  0  2  0  0  0  0  0  0  0  0  0
   35.5230   29.3120   36.4200 C   0  0  1  0  0  0  0  0  0  0  0  0
   35.4040   28.0540   35.9380 O   0  0  0  0  0  0  0  0  0  0  0  0
   35.4050   28.1180   34.5780 C   0  0  0  0  0  0  0  0  0  0  0  0
   36.0240   29.4420   34.1580 C   0  0  2  0  0  0  0  0  0  0  0  0
   36.7750   30.9060   35.6040 H   0  0  0  0  0  0  0  0  0  0  0  0
   34.6270   29.9270   36.1500 H   0  0  0  0  0  0  0  0  0  0  0  0
   34.3640   28.1210   34.1940 H   0  0  0  0  0  0  0  0  0  0  0  0
   35.9500   27.2980   34.0780 H   0  0  0  0  0  0  0  0  0  0  0  0
   35.2610   30.1910   33.8750 H   0  0  0  0  0  0  0  0  0  0  0  0
   37.7660   29.0530   35.6580 O   0  0  0  0  0  0  0  0  0  0  0  0
   38.6320   29.4940   35.5470 H   0  0  0  0  0  0  0  0  0  0  0  0
   36.9320   29.3320   33.1390 O   0  0  0  0  0  0  0  0  0  0  0  0
   36.6430   29.7070   32.2820 H   0  0  0  0  0  0  0  0  0  0  0  0
   36.8540   29.6930   41.9100 C   0  0  0  0  0  0  0  0  0  0  0  0
   36.6280   30.7330   42.2850 H   0  0  0  0  0  0  0  0  0  0  0  0
   36.2020   29.0510   42.4970 H   0  0  0  0  0  0  0  0  0  0  0  0
   38.2630   29.3600   42.1100 C   0  0  0  0  0  0  0  0  0  0  0  0
   39.2110   30.2970   42.5080 C   0  0  0  0  0  0  0  0  0  0  0  0
   40.5570   30.0110   42.6600 C   0  0  0  0  0  0  0  0  0  0  0  0
   40.9610   28.7330   42.4000 C   0  0  0  0  0  0  0  0  0  0  0  0
   40.0270   27.8030   42.0090 C   0  0  0  0  0  0  0  0  0  0  0  0
   38.6340   28.0670   41.8470 C   0  0  0  0  0  0  0  0  0  0  0  0
   38.7830   31.2910   42.6890 H   0  0  0  0  0  0  0  0  0  0  0  0
   41.1260   30.8710   42.9770 H   0  0  0  0  0  0  0  0  0  0  0  0
   42.0050   28.5710   42.5310 H   0  0  0  0  0  0  0  0  0  0  0  0
   40.5260   26.8370   41.8440 H   0  0  0  0  0  0  0  0  0  0  0  0
   37.9670   26.8180   41.5980 C   0  0  0  0  0  0  0  0  0  0  0  0
   37.3530   25.9550   42.5250 C   0  0  0  0  0  0  0  0  0  0  0  0
   37.1530   25.9490   43.5760 H   0  0  0  0  0  0  0  0  0  0  0  0
   36.8490   24.7610   42.1570 C   0  0  0  0  0  3  0  0  0  0  0  0
   36.9660   24.4120   40.7870 C   0  0  0  0  0  3  0  0  0  0  0  0
   37.8500   25.9420   40.1260 S   0  0  0  0  0  0  0  0  0  0  0  0
  1  7  1  0  0  0  0
  1  2  1  0  0  0  0
  2 23  1  0  0  0  0
  3  2  2  0  0  0  0
  3  8  1  0  0  0  0
  4  3  1  0  0  0  0
  5  6  1  0  0  0  0
  5  4  2  0  0  0  0
  6  1  2  0  0  0  0
  9 14  1  1  0  0  0
  9 19  1  0  0  0  0
  9 10  1  0  0  0  0
 10 15  1  6  0  0  0
 10  5  1  0  0  0  0
 11 10  1  0  0  0  0
 12 11  1  0  0  0  0
 13 18  1  6  0  0  0
 13 12  1  0  0  0  0
 13  9  1  0  0  0  0
 16 12  1  0  0  0  0
 17 12  1  0  0  0  0
 20 19  1  0  0  0  0
 21 13  1  0  0  0  0
 22 21  1  0  0  0  0
 23 26  1  0  0  0  0
 23 24  1  0  0  0  0
 23 25  1  0  0  0  0
 26 27  1  0  0  0  0
 27 28  2  0  0  0  0
 27 32  1  0  0  0  0
 28 33  1  0  0  0  0
 29 34  1  0  0  0  0
 29 28  1  0  0  0  0
 30 29  2  0  0  0  0
 31 30  1  0  0  0  0
 31 26  2  0  0  0  0
 35 30  1  0  0  0  0
 36 31  1  0  0  0  0
 36 37  2  0  0  0  0
 37 38  1  0  0  0  0
 39 37  1  0  0  0  0
 40 39  2  0  0  0  0
 41 40  1  0  0  0  0
 41 36  1  0  0  0  0
M  END
>  <minimizedAffinity>
-5.66400433

$$$$
