
 OpenBabel03252506263D

 42 46  0  0  0  0  0  0  0  0999 V2000
   46.2250   30.2560   48.4410 C   0  0  0  0  0  0  0  0  0  0  0  0
   46.4600   29.8700   49.4780 H   0  0  0  0  0  0  0  0  0  0  0  0
   45.5660   31.1300   48.6160 H   0  0  0  0  0  0  0  0  0  0  0  0
   45.7300   27.8170   47.7720 C   0  0  0  0  0  0  0  0  0  0  0  0
   45.5220   29.1890   47.7450 C   0  0  0  0  0  0  0  0  0  0  0  0
   44.4980   29.6210   46.9330 C   0  0  0  0  0  0  0  0  0  0  0  0
   43.7180   28.7640   46.1870 C   0  0  0  0  0  0  0  0  0  0  0  0
   42.6850   28.8950   45.3400 N   0  0  0  0  0  0  0  0  0  0  0  0
   42.2780   27.7140   44.8760 C   0  0  0  0  0  0  0  0  0  0  0  0
   43.0650   26.7330   45.4270 C   0  0  0  0  0  0  0  0  0  0  0  0
   43.9430   27.3990   46.2290 C   0  0  0  0  0  0  0  0  0  0  0  0
   44.9560   26.9510   47.0300 C   0  0  0  0  0  0  0  0  0  0  0  0
   46.5490   27.6100   48.4370 H   0  0  0  0  0  0  0  0  0  0  0  0
   44.2120   30.6540   46.8040 H   0  0  0  0  0  0  0  0  0  0  0  0
   42.2520   29.8300   45.0790 H   0  0  0  0  0  0  0  0  0  0  0  0
   41.4590   27.5990   44.1820 H   0  0  0  0  0  0  0  0  0  0  0  0
   42.9010   25.7150   45.1870 H   0  0  0  0  0  0  0  0  0  0  0  0
   45.3520   25.5730   47.2090 C   0  0  0  0  0  0  0  0  0  0  0  0
   45.1640   24.6990   48.1760 C   0  0  0  0  0  0  0  0  0  0  0  0
   44.6600   24.7830   49.1050 H   0  0  0  0  0  0  0  0  0  0  0  0
   45.6190   23.4300   48.1350 C   0  0  0  0  0  3  0  0  0  0  0  0
   46.3340   23.0480   46.9830 C   0  0  0  0  0  3  0  0  0  0  0  0
   46.2650   24.6570   46.0260 S   0  0  0  0  0  0  0  0  0  0  0  0
   47.5120   30.7060   47.8590 C   0  0  0  0  0  0  0  0  0  0  0  0
   47.9460   31.4660   48.5570 H   0  0  0  0  0  0  0  0  0  0  0  0
   48.2060   29.8790   47.7380 H   0  0  0  0  0  0  0  0  0  0  0  0
   46.6120   32.8720   45.1570 C   0  0  0  0  0  0  0  0  0  0  0  0
   47.2520   31.8220   44.4810 C   0  0  0  0  0  0  0  0  0  0  0  0
   47.6600   30.9010   45.3890 C   0  0  0  0  0  0  0  0  0  0  0  0
   47.2840   31.3660   46.5830 N   0  0  0  0  0  0  0  0  0  0  0  0
   46.6530   32.5500   46.4590 N   0  0  0  0  0  0  0  0  0  0  0  0
   47.4220   31.7130   43.4120 H   0  0  0  0  0  0  0  0  0  0  0  0
   48.1870   29.9630   45.2240 H   0  0  0  0  0  0  0  0  0  0  0  0
   44.5450   35.8170   44.5570 C   0  0  0  0  0  0  0  0  0  0  0  0
   44.9480   36.2590   43.3080 C   0  0  0  0  0  0  0  0  0  0  0  0
   45.9430   35.5320   42.6710 C   0  0  0  0  0  0  0  0  0  0  0  0
   46.4530   34.4430   43.3070 N   0  0  0  0  0  0  0  0  0  0  0  0
   46.0410   34.0440   44.5100 C   0  0  0  0  0  0  0  0  0  0  0  0
   45.0870   34.7350   45.1300 N   0  0  0  0  0  0  0  0  0  0  0  0
   43.7690   36.3960   45.0370 H   0  0  0  0  0  0  0  0  0  0  0  0
   44.5560   37.1090   42.8020 H   0  0  0  0  0  0  0  0  0  0  0  0
   46.3660   35.7360   41.7110 H   0  0  0  0  0  0  0  0  0  0  0  0
  1  3  1  0  0  0  0
  1  2  1  0  0  0  0
  4 13  1  0  0  0  0
  5  4  1  0  0  0  0
  5  1  1  0  0  0  0
  6  5  2  0  0  0  0
  7 11  2  0  0  0  0
  7  6  1  0  0  0  0
  8  7  1  0  0  0  0
  9  8  1  0  0  0  0
  9 10  2  0  0  0  0
 10 11  1  0  0  0  0
 11 12  1  0  0  0  0
 12 18  1  0  0  0  0
 12  4  2  0  0  0  0
 14  6  1  0  0  0  0
 15  8  1  0  0  0  0
 16  9  1  0  0  0  0
 17 10  1  0  0  0  0
 18 19  2  0  0  0  0
 19 20  1  0  0  0  0
 21 19  1  0  0  0  0
 22 21  2  0  0  0  0
 23 22  1  0  0  0  0
 23 18  1  0  0  0  0
 24  1  1  0  0  0  0
 24 25  1  0  0  0  0
 26 24  1  0  0  0  0
 27 31  2  0  0  0  0
 28 27  1  0  0  0  0
 28 29  2  0  0  0  0
 29 30  1  0  0  0  0
 30 24  1  0  0  0  0
 31 30  1  0  0  0  0
 32 28  1  0  0  0  0
 33 29  1  0  0  0  0
 34 40  1  0  0  0  0
 34 39  1  0  0  0  0
 35 34  2  0  0  0  0
 36 37  2  0  0  0  0
 36 35  1  0  0  0  0
 37 38  1  0  0  0  0
 38 39  2  0  0  0  0
 38 27  1  0  0  0  0
 41 35  1  0  0  0  0
 42 36  1  0  0  0  0
M  END
>  <minimizedAffinity>
-5.3153367

>  <minimizedRMSD>
0.745234907

$$$$
