
 OpenBabel03252505253D

 40 43  0  0  1  0  0  0  0  0999 V2000
   48.4240   29.8540   45.4040 F   0  0  0  0  0  0  0  0  0  0  0  0
   48.9540   29.6930   46.6560 C   0  0  0  0  0  0  0  0  0  0  0  0
   50.1500   29.0460   46.7630 C   0  0  0  0  0  0  0  0  0  0  0  0
   50.6840   28.8810   48.0150 C   0  0  0  0  0  0  0  0  0  0  0  0
   50.0060   29.3680   49.1160 C   0  0  0  0  0  0  0  0  0  0  0  0
   48.8120   30.0150   49.0140 C   0  0  0  0  0  0  0  0  0  0  0  0
   48.2730   30.1790   47.7250 C   0  0  0  0  0  0  0  0  0  0  0  0
   51.6300   28.3760   48.1670 H   0  0  0  0  0  0  0  0  0  0  0  0
   50.4370   29.2330   50.1040 H   0  0  0  0  0  0  0  0  0  0  0  0
   48.2880   30.3920   49.8770 H   0  0  0  0  0  0  0  0  0  0  0  0
   47.0240   30.8590   47.6650 N   0  0  0  0  0  0  0  0  0  0  0  0
   45.6880   30.3670   47.4680 C   0  0  0  0  0  0  0  0  0  0  0  0
   44.9110   31.0440   48.6140 C   0  0  0  0  0  0  0  0  0  0  0  0
   45.7460   32.2610   48.9390 C   0  0  0  0  0  0  0  0  0  0  0  0
   46.7310   32.2840   47.7910 C   0  0  2  0  0  0  0  0  0  0  0  0
   45.2820   30.6150   46.4860 H   0  0  0  0  0  0  0  0  0  0  0  0
   45.7110   29.2710   47.6250 H   0  0  0  0  0  0  0  0  0  0  0  0
   43.9320   31.3300   48.1800 H   0  0  0  0  0  0  0  0  0  0  0  0
   44.7970   30.3740   49.4810 H   0  0  0  0  0  0  0  0  0  0  0  0
   46.2640   32.1240   49.8900 H   0  0  0  0  0  0  0  0  0  0  0  0
   45.1500   33.1890   48.9980 H   0  0  0  0  0  0  0  0  0  0  0  0
   47.6470   32.7680   48.1600 H   0  0  0  0  0  0  0  0  0  0  0  0
   46.2080   32.9010   46.5410 C   0  0  0  0  0  0  0  0  0  0  0  0
   45.1370   32.6720   46.3860 H   0  0  0  0  0  0  0  0  0  0  0  0
   46.8680   32.6280   45.7120 H   0  0  0  0  0  0  0  0  0  0  0  0
   46.2840   34.0020   46.6630 H   0  0  0  0  0  0  0  0  0  0  0  0
   52.7360   28.4030   44.2550 C   0  0  0  0  0  0  0  0  0  0  0  0
   52.1070   27.5850   43.3160 C   0  0  0  0  0  0  0  0  0  0  0  0
   50.7800   27.2800   43.5940 C   0  0  0  0  0  0  0  0  0  0  0  0
   50.1940   27.7650   44.7020 N   0  0  0  0  0  0  0  0  0  0  0  0
   50.8290   28.5470   45.5800 C   0  0  0  0  0  0  0  0  0  0  0  0
   52.0980   28.8540   45.3410 N   0  0  0  0  0  0  0  0  0  0  0  0
   53.7670   28.6190   44.0060 H   0  0  0  0  0  0  0  0  0  0  0  0
   52.4710   27.1510   42.4150 H   0  0  0  0  0  0  0  0  0  0  0  0
   49.9110   26.4680   42.7980 C   0  0  0  0  0  0  0  0  0  0  0  0
   48.6170   26.3110   43.1140 C   0  0  0  0  0  0  0  0  0  0  0  0
   47.9390   26.6690   43.9050 H   0  0  0  0  0  0  0  0  0  0  0  0
   47.6840   25.5770   42.4570 C   0  0  0  0  0  3  0  0  0  0  0  0
   48.2980   24.9150   41.2590 C   0  0  0  0  0  3  0  0  0  0  0  0
   50.1230   25.4950   41.3250 S   0  0  0  0  0  0  0  0  0  0  0  0
  1  2  1  0  0  0  0
  2  3  2  0  0  0  0
  2  7  1  0  0  0  0
  3  4  1  0  0  0  0
  4  8  1  0  0  0  0
  4  5  2  0  0  0  0
  5  9  1  0  0  0  0
  6  5  1  0  0  0  0
  6 10  1  0  0  0  0
  7  6  2  0  0  0  0
 11  7  1  0  0  0  0
 11 15  1  0  0  0  0
 12 17  1  0  0  0  0
 12 11  1  0  0  0  0
 12 13  1  0  0  0  0
 13 14  1  0  0  0  0
 13 19  1  0  0  0  0
 14 21  1  0  0  0  0
 14 20  1  0  0  0  0
 15 22  1  1  0  0  0
 15 14  1  0  0  0  0
 16 12  1  0  0  0  0
 18 13  1  0  0  0  0
 23 26  1  0  0  0  0
 23 15  1  0  0  0  0
 24 23  1  0  0  0  0
 25 23  1  0  0  0  0
 27 32  1  0  0  0  0
 28 29  1  0  0  0  0
 28 27  2  0  0  0  0
 29 30  2  0  0  0  0
 30 31  1  0  0  0  0
 31  3  1  0  0  0  0
 32 31  2  0  0  0  0
 33 27  1  0  0  0  0
 34 28  1  0  0  0  0
 35 36  2  0  0  0  0
 35 29  1  0  0  0  0
 36 37  1  0  0  0  0
 38 36  1  0  0  0  0
 39 40  1  0  0  0  0
 39 38  2  0  0  0  0
 40 35  1  0  0  0  0
M  END
>  <minimizedAffinity>
-3.25251651

>  <minimizedRMSD>
6.48637009

$$$$
