
 OpenBabel03242514383D

 30 32  0  0  0  0  0  0  0  0999 V2000
   36.7450   31.5280   38.5550 O   0  0  0  0  0  0  0  0  0  0  0  0
   37.6580   32.3100   40.8300 O   0  0  0  0  0  0  0  0  0  0  0  0
   37.6720   32.6440   39.3800 P   0  0  2  0  0  0  0  0  0  0  0  0
   36.9800   34.1680   39.2000 O   0  0  0  0  0  0  0  0  0  0  0  0
   37.1870   34.5630   38.3170 H   0  0  0  0  0  0  0  0  0  0  0  0
   39.2870   32.6390   38.7750 O   0  0  0  0  0  0  0  0  0  0  0  0
   41.1820   32.2510   40.1830 C   0  0  0  0  0  0  0  0  0  0  0  0
   40.3270   33.1500   39.5470 C   0  0  0  0  0  0  0  0  0  0  0  0
   40.5490   34.5280   39.7130 C   0  0  0  0  0  0  0  0  0  0  0  0
   41.6060   34.9060   40.4990 N   0  0  0  0  0  0  0  0  0  0  0  0
   42.4090   34.0090   41.0950 C   0  0  0  0  0  0  0  0  0  0  0  0
   42.2020   32.6950   40.9420 N   0  0  0  0  0  0  0  0  0  0  0  0
   41.1060   31.1900   40.1270 H   0  0  0  0  0  0  0  0  0  0  0  0
   39.8960   35.2160   39.2270 H   0  0  0  0  0  0  0  0  0  0  0  0
   43.2350   34.3470   41.7090 H   0  0  0  0  0  0  0  0  0  0  0  0
   36.4600   30.2720   38.9420 C   0  0  0  0  0  0  0  0  0  0  0  0
   35.6540   29.6740   38.1100 O   0  0  0  0  0  0  0  0  0  0  0  0
   36.7290   29.2790   39.9970 C   0  0  0  0  0  0  0  0  0  0  0  0
   35.8630   28.9110   41.0650 C   0  0  0  0  0  0  0  0  0  0  0  0
   36.3520   27.9620   41.9080 C   0  0  0  0  0  0  0  0  0  0  0  0
   37.5610   27.4140   41.7390 C   0  0  0  0  0  0  0  0  0  0  0  0
   38.1790   28.3150   40.1770 S   0  0  0  0  0  0  0  0  0  0  0  0
   34.9180   29.3890   41.1340 H   0  0  0  0  0  0  0  0  0  0  0  0
   35.7990   27.5920   42.7610 H   0  0  0  0  0  0  0  0  0  0  0  0
   38.4060   26.4760   42.3170 C   0  0  0  0  0  0  0  0  0  0  0  0
   39.3060   26.6970   43.3010 C   0  0  0  0  0  0  0  0  0  0  0  0
   39.4600   27.6690   43.7510 H   0  0  0  0  0  0  0  0  0  0  0  0
   40.0700   25.6680   43.7680 C   0  0  0  0  0  3  0  0  0  0  0  0
   39.8420   24.3450   43.1380 C   0  0  0  0  0  3  0  0  0  0  0  0
   38.5320   24.7090   41.9130 S   0  0  0  0  0  0  0  0  0  0  0  0
  1 16  1  0  0  0  0
  1  3  1  0  0  0  0
  3  2  2  1  0  0  0
  4  3  1  0  0  0  0
  5  4  1  0  0  0  0
  6  3  1  0  0  0  0
  6  8  1  0  0  0  0
  7 12  1  0  0  0  0
  8  9  1  0  0  0  0
  8  7  2  0  0  0  0
  9 10  2  0  0  0  0
 10 11  1  0  0  0  0
 11 15  1  0  0  0  0
 12 11  2  0  0  0  0
 13  7  1  0  0  0  0
 14  9  1  0  0  0  0
 16 18  1  0  0  0  0
 17 16  2  0  0  0  0
 18 22  1  0  0  0  0
 18 19  2  0  0  0  0
 19 23  1  0  0  0  0
 19 20  1  0  0  0  0
 20 24  1  0  0  0  0
 21 20  2  0  0  0  0
 21 25  1  0  0  0  0
 22 21  1  0  0  0  0
 25 26  2  0  0  0  0
 26 27  1  0  0  0  0
 26 28  1  0  0  0  0
 29 28  2  0  0  0  0
 30 25  1  0  0  0  0
 30 29  1  0  0  0  0
M  END
>  <minimizedAffinity>
-5.38919926

$$$$

 OpenBabel03242514383D

 30 32  0  0  0  0  0  0  0  0999 V2000
   41.0490   34.3810   39.0310 O   0  0  0  0  0  0  0  0  0  0  0  0
   43.0800   32.8280   38.7500 O   0  0  0  0  0  0  0  0  0  0  0  0
   41.9430   33.4240   37.9970 P   0  0  2  0  0  0  0  0  0  0  0  0
   42.5870   34.3900   36.7790 O   0  0  0  0  0  0  0  0  0  0  0  0
   41.9130   34.6070   36.0880 H   0  0  0  0  0  0  0  0  0  0  0  0
   40.9490   32.1850   37.3250 O   0  0  0  0  0  0  0  0  0  0  0  0
   40.8160   29.8250   37.6930 C   0  0  0  0  0  0  0  0  0  0  0  0
   41.4670   30.9100   37.1090 C   0  0  0  0  0  0  0  0  0  0  0  0
   42.6150   30.6730   36.3320 C   0  0  0  0  0  0  0  0  0  0  0  0
   43.0250   29.3740   36.1960 N   0  0  0  0  0  0  0  0  0  0  0  0
   42.3700   28.3530   36.7740 C   0  0  0  0  0  0  0  0  0  0  0  0
   41.2770   28.5720   37.5150 N   0  0  0  0  0  0  0  0  0  0  0  0
   39.9420   29.8890   38.2990 H   0  0  0  0  0  0  0  0  0  0  0  0
   43.1130   31.5030   35.8860 H   0  0  0  0  0  0  0  0  0  0  0  0
   42.7250   27.3380   36.6420 H   0  0  0  0  0  0  0  0  0  0  0  0
   40.1150   33.9700   39.9080 C   0  0  0  0  0  0  0  0  0  0  0  0
   39.7800   34.9110   40.7440 O   0  0  0  0  0  0  0  0  0  0  0  0
   39.2960   32.8060   40.2900 C   0  0  0  0  0  0  0  0  0  0  0  0
   37.9090   32.6150   40.0320 C   0  0  0  0  0  0  0  0  0  0  0  0
   37.3890   31.4450   40.4900 C   0  0  0  0  0  0  0  0  0  0  0  0
   38.1330   30.5390   41.1350 C   0  0  0  0  0  0  0  0  0  0  0  0
   39.8430   31.3810   41.1450 S   0  0  0  0  0  0  0  0  0  0  0  0
   37.3840   33.3780   39.5140 H   0  0  0  0  0  0  0  0  0  0  0  0
   36.3490   31.1740   40.3640 H   0  0  0  0  0  0  0  0  0  0  0  0
   38.0260   29.2930   41.7370 C   0  0  0  0  0  0  0  0  0  0  0  0
   37.6840   29.0420   43.0200 C   0  0  0  0  0  0  0  0  0  0  0  0
   37.4500   29.8240   43.7320 H   0  0  0  0  0  0  0  0  0  0  0  0
   37.6220   27.7550   43.4700 C   0  0  0  0  0  3  0  0  0  0  0  0
   37.9450   26.7000   42.4790 C   0  0  0  0  0  3  0  0  0  0  0  0
   38.3140   27.6710   40.9720 S   0  0  0  0  0  0  0  0  0  0  0  0
  1 16  1  0  0  0  0
  3  2  2  1  0  0  0
  3  1  1  0  0  0  0
  4  3  1  0  0  0  0
  5  4  1  0  0  0  0
  6  3  1  0  0  0  0
  7 13  1  0  0  0  0
  8  6  1  0  0  0  0
  8  7  2  0  0  0  0
  9  8  1  0  0  0  0
 10  9  2  0  0  0  0
 10 11  1  0  0  0  0
 11 12  2  0  0  0  0
 12  7  1  0  0  0  0
 14  9  1  0  0  0  0
 15 11  1  0  0  0  0
 16 18  1  0  0  0  0
 16 17  2  0  0  0  0
 18 22  1  0  0  0  0
 19 18  2  0  0  0  0
 19 20  1  0  0  0  0
 20 21  2  0  0  0  0
 21 22  1  0  0  0  0
 21 25  1  0  0  0  0
 23 19  1  0  0  0  0
 24 20  1  0  0  0  0
 25 26  2  0  0  0  0
 26 28  1  0  0  0  0
 26 27  1  0  0  0  0
 29 28  2  0  0  0  0
 30 25  1  0  0  0  0
 30 29  1  0  0  0  0
M  END
>  <minimizedAffinity>
-5.2647624

$$$$

 OpenBabel03242514383D

 30 32  0  0  0  0  0  0  0  0999 V2000
   38.2820   31.4210   41.1350 O   0  0  0  0  0  0  0  0  0  0  0  0
   39.3540   33.5930   40.2650 O   0  0  0  0  0  0  0  0  0  0  0  0
   38.2530   32.6310   39.9850 P   0  0  2  0  0  0  0  0  0  0  0  0
   36.7980   33.4680   40.1100 O   0  0  0  0  0  0  0  0  0  0  0  0
   36.0530   32.9720   39.6900 H   0  0  0  0  0  0  0  0  0  0  0  0
   38.4290   31.9560   38.4080 O   0  0  0  0  0  0  0  0  0  0  0  0
   40.5740   32.1650   37.3670 C   0  0  0  0  0  0  0  0  0  0  0  0
   39.6340   31.3720   38.0250 C   0  0  0  0  0  0  0  0  0  0  0  0
   39.9410   30.0230   38.2710 C   0  0  0  0  0  0  0  0  0  0  0  0
   41.1600   29.5660   37.8440 N   0  0  0  0  0  0  0  0  0  0  0  0
   42.0400   30.3620   37.2140 C   0  0  0  0  0  0  0  0  0  0  0  0
   41.7530   31.6470   36.9750 N   0  0  0  0  0  0  0  0  0  0  0  0
   40.4450   33.1950   37.1290 H   0  0  0  0  0  0  0  0  0  0  0  0
   39.2240   29.4170   38.7740 H   0  0  0  0  0  0  0  0  0  0  0  0
   42.9950   29.9630   36.8920 H   0  0  0  0  0  0  0  0  0  0  0  0
   37.4020   30.4130   41.2690 C   0  0  0  0  0  0  0  0  0  0  0  0
   36.1680   30.8260   41.1920 O   0  0  0  0  0  0  0  0  0  0  0  0
   37.3080   28.9580   41.4770 C   0  0  0  0  0  0  0  0  0  0  0  0
   37.0420   28.2860   42.7040 C   0  0  0  0  0  0  0  0  0  0  0  0
   37.0050   26.9280   42.6260 C   0  0  0  0  0  0  0  0  0  0  0  0
   37.2040   26.2750   41.4740 C   0  0  0  0  0  0  0  0  0  0  0  0
   37.4960   27.7150   40.2600 S   0  0  0  0  0  0  0  0  0  0  0  0
   36.8950   28.8700   43.5760 H   0  0  0  0  0  0  0  0  0  0  0  0
   36.8150   26.2950   43.4820 H   0  0  0  0  0  0  0  0  0  0  0  0
   37.2540   24.9840   40.9670 C   0  0  0  0  0  0  0  0  0  0  0  0
   36.3350   24.3910   40.1730 C   0  0  0  0  0  0  0  0  0  0  0  0
   35.4330   24.8900   39.8420 H   0  0  0  0  0  0  0  0  0  0  0  0
   36.5250   23.1080   39.7520 C   0  0  0  0  0  3  0  0  0  0  0  0
   37.7690   22.4440   40.2160 C   0  0  0  0  0  3  0  0  0  0  0  0
   38.5590   23.7470   41.2290 S   0  0  0  0  0  0  0  0  0  0  0  0
  1 16  1  0  0  0  0
  3  4  1  0  0  0  0
  3  2  2  1  0  0  0
  3  1  1  0  0  0  0
  5  4  1  0  0  0  0
  6  3  1  0  0  0  0
  7  8  1  0  0  0  0
  8  9  2  0  0  0  0
  8  6  1  0  0  0  0
  9 14  1  0  0  0  0
 10  9  1  0  0  0  0
 11 10  2  0  0  0  0
 12 11  1  0  0  0  0
 12  7  2  0  0  0  0
 13  7  1  0  0  0  0
 15 11  1  0  0  0  0
 16 18  1  0  0  0  0
 17 16  2  0  0  0  0
 18 19  2  0  0  0  0
 19 23  1  0  0  0  0
 20 19  1  0  0  0  0
 20 24  1  0  0  0  0
 21 20  2  0  0  0  0
 22 21  1  0  0  0  0
 22 18  1  0  0  0  0
 25 30  1  0  0  0  0
 25 21  1  0  0  0  0
 26 25  2  0  0  0  0
 27 26  1  0  0  0  0
 28 26  1  0  0  0  0
 28 29  2  0  0  0  0
 29 30  1  0  0  0  0
M  END
>  <minimizedAffinity>
-5.18866682

$$$$

 OpenBabel03242514383D

 30 32  0  0  0  0  0  0  0  0999 V2000
   36.1810   28.0310   41.7120 O   0  0  0  0  0  0  0  0  0  0  0  0
   36.0090   27.2430   44.1550 O   0  0  0  0  0  0  0  0  0  0  0  0
   36.9630   27.8230   43.1710 P   0  0  2  0  0  0  0  0  0  0  0  0
   37.4450   29.3280   43.7510 O   0  0  0  0  0  0  0  0  0  0  0  0
   38.2600   29.6540   43.2950 H   0  0  0  0  0  0  0  0  0  0  0  0
   38.3280   26.7870   42.9710 O   0  0  0  0  0  0  0  0  0  0  0  0
   39.2280   25.6030   41.0970 C   0  0  0  0  0  0  0  0  0  0  0  0
   38.2640   25.7030   42.1000 C   0  0  0  0  0  0  0  0  0  0  0  0
   37.2730   24.7100   42.1870 C   0  0  0  0  0  0  0  0  0  0  0  0
   37.3180   23.6940   41.2700 N   0  0  0  0  0  0  0  0  0  0  0  0
   38.2640   23.6320   40.3180 C   0  0  0  0  0  0  0  0  0  0  0  0
   39.2100   24.5750   40.2290 N   0  0  0  0  0  0  0  0  0  0  0  0
   40.0210   26.2970   40.9400 H   0  0  0  0  0  0  0  0  0  0  0  0
   36.5370   24.7860   42.9530 H   0  0  0  0  0  0  0  0  0  0  0  0
   38.2660   22.8110   39.6100 H   0  0  0  0  0  0  0  0  0  0  0  0
   36.7050   28.5300   40.5780 C   0  0  0  0  0  0  0  0  0  0  0  0
   36.7260   27.6480   39.6190 O   0  0  0  0  0  0  0  0  0  0  0  0
   37.2870   29.7500   39.9920 C   0  0  0  0  0  0  0  0  0  0  0  0
   36.7840   30.4900   38.8840 C   0  0  0  0  0  0  0  0  0  0  0  0
   37.5120   31.5880   38.5410 C   0  0  0  0  0  0  0  0  0  0  0  0
   38.6190   31.9430   39.2030 C   0  0  0  0  0  0  0  0  0  0  0  0
   38.7330   30.5790   40.5290 S   0  0  0  0  0  0  0  0  0  0  0  0
   35.9000   30.1470   38.4100 H   0  0  0  0  0  0  0  0  0  0  0  0
   37.2430   32.2370   37.7190 H   0  0  0  0  0  0  0  0  0  0  0  0
   39.6060   32.9190   39.1980 C   0  0  0  0  0  0  0  0  0  0  0  0
   39.6410   34.0380   39.9550 C   0  0  0  0  0  0  0  0  0  0  0  0
   38.8680   34.2900   40.6690 H   0  0  0  0  0  0  0  0  0  0  0  0
   40.6840   34.9090   39.8360 C   0  0  0  0  0  3  0  0  0  0  0  0
   41.7330   34.5430   38.8520 C   0  0  0  0  0  3  0  0  0  0  0  0
   41.1110   32.9590   38.1790 S   0  0  0  0  0  0  0  0  0  0  0  0
  1  3  1  0  0  0  0
  3  4  1  0  0  0  0
  3  2  2  1  0  0  0
  5  4  1  0  0  0  0
  6  3  1  0  0  0  0
  7  8  1  0  0  0  0
  8  9  2  0  0  0  0
  8  6  1  0  0  0  0
  9 14  1  0  0  0  0
 10  9  1  0  0  0  0
 11 10  2  0  0  0  0
 12 11  1  0  0  0  0
 12  7  2  0  0  0  0
 13  7  1  0  0  0  0
 15 11  1  0  0  0  0
 16  1  1  0  0  0  0
 17 16  2  0  0  0  0
 18 22  1  0  0  0  0
 18 16  1  0  0  0  0
 19 18  2  0  0  0  0
 20 19  1  0  0  0  0
 20 21  2  0  0  0  0
 21 22  1  0  0  0  0
 23 19  1  0  0  0  0
 24 20  1  0  0  0  0
 25 21  1  0  0  0  0
 25 26  2  0  0  0  0
 26 27  1  0  0  0  0
 28 26  1  0  0  0  0
 29 28  2  0  0  0  0
 30 29  1  0  0  0  0
 30 25  1  0  0  0  0
M  END
>  <minimizedAffinity>
-5.17120695

$$$$

 OpenBabel03242514383D

 30 32  0  0  0  0  0  0  0  0999 V2000
   37.0720   29.2950   39.6300 O   0  0  0  0  0  0  0  0  0  0  0  0
   34.5320   29.0870   39.9820 O   0  0  0  0  0  0  0  0  0  0  0  0
   35.7990   29.3810   40.7050 P   0  0  2  0  0  0  0  0  0  0  0  0
   35.6950   30.9520   41.3020 O   0  0  0  0  0  0  0  0  0  0  0  0
   36.3720   31.1240   42.0020 H   0  0  0  0  0  0  0  0  0  0  0  0
   36.0320   28.2590   41.9940 O   0  0  0  0  0  0  0  0  0  0  0  0
   38.2160   28.6360   42.8940 C   0  0  0  0  0  0  0  0  0  0  0  0
   37.3060   27.7760   42.2820 C   0  0  0  0  0  0  0  0  0  0  0  0
   37.7110   26.4640   41.9810 C   0  0  0  0  0  0  0  0  0  0  0  0
   38.9920   26.1100   42.3140 N   0  0  0  0  0  0  0  0  0  0  0  0
   39.8410   26.9670   42.9040 C   0  0  0  0  0  0  0  0  0  0  0  0
   39.4610   28.2180   43.1930 N   0  0  0  0  0  0  0  0  0  0  0  0
   38.0160   29.6470   43.1650 H   0  0  0  0  0  0  0  0  0  0  0  0
   37.0160   25.8060   41.5140 H   0  0  0  0  0  0  0  0  0  0  0  0
   40.8460   26.6490   43.1530 H   0  0  0  0  0  0  0  0  0  0  0  0
   37.6370   30.3180   38.9630 C   0  0  0  0  0  0  0  0  0  0  0  0
   36.7620   31.2160   38.6110 O   0  0  0  0  0  0  0  0  0  0  0  0
   38.9280   30.8210   38.4630 C   0  0  0  0  0  0  0  0  0  0  0  0
   39.3740   32.1740   38.4590 C   0  0  0  0  0  0  0  0  0  0  0  0
   40.6160   32.3730   37.9410 C   0  0  0  0  0  0  0  0  0  0  0  0
   41.3620   31.3670   37.4710 C   0  0  0  0  0  0  0  0  0  0  0  0
   40.2190   29.8700   37.7630 S   0  0  0  0  0  0  0  0  0  0  0  0
   38.7270   32.9180   38.8490 H   0  0  0  0  0  0  0  0  0  0  0  0
   41.0750   33.3510   37.8750 H   0  0  0  0  0  0  0  0  0  0  0  0
   42.6010   31.1270   36.8920 C   0  0  0  0  0  0  0  0  0  0  0  0
   42.8790   30.2300   35.9210 C   0  0  0  0  0  0  0  0  0  0  0  0
   42.1290   29.5840   35.4830 H   0  0  0  0  0  0  0  0  0  0  0  0
   44.1540   30.1080   35.4500 C   0  0  0  0  0  3  0  0  0  0  0  0
   45.1660   31.0030   36.0630 C   0  0  0  0  0  3  0  0  0  0  0  0
   44.1750   31.9490   37.2770 S   0  0  0  0  0  0  0  0  0  0  0  0
  1  3  1  0  0  0  0
  3  2  2  6  0  0  0
  3  4  1  0  0  0  0
  3  6  1  0  0  0  0
  4  5  1  0  0  0  0
  6  8  1  0  0  0  0
  7 13  1  0  0  0  0
  7 12  1  0  0  0  0
  8  7  2  0  0  0  0
  9  8  1  0  0  0  0
  9 10  2  0  0  0  0
 10 11  1  0  0  0  0
 11 15  1  0  0  0  0
 11 12  2  0  0  0  0
 14  9  1  0  0  0  0
 16  1  1  0  0  0  0
 17 16  2  0  0  0  0
 18 16  1  0  0  0  0
 19 18  2  0  0  0  0
 19 23  1  0  0  0  0
 20 19  1  0  0  0  0
 21 22  1  0  0  0  0
 21 20  2  0  0  0  0
 22 18  1  0  0  0  0
 24 20  1  0  0  0  0
 25 30  1  0  0  0  0
 25 21  1  0  0  0  0
 26 25  2  0  0  0  0
 27 26  1  0  0  0  0
 28 26  1  0  0  0  0
 28 29  2  0  0  0  0
 29 30  1  0  0  0  0
M  END
>  <minimizedAffinity>
-5.16119623

$$$$

 OpenBabel03242514383D

 30 32  0  0  0  0  0  0  0  0999 V2000
   40.4290   32.1930   40.3580 O   0  0  0  0  0  0  0  0  0  0  0  0
   40.1230   34.6010   39.5030 O   0  0  0  0  0  0  0  0  0  0  0  0
   39.3870   33.4790   40.1480 P   0  0  2  0  0  0  0  0  0  0  0  0
   38.8650   34.0110   41.6570 O   0  0  0  0  0  0  0  0  0  0  0  0
   38.1600   33.4250   42.0290 H   0  0  0  0  0  0  0  0  0  0  0  0
   38.0430   33.0030   39.1770 O   0  0  0  0  0  0  0  0  0  0  0  0
   37.4200   30.7950   38.4980 C   0  0  0  0  0  0  0  0  0  0  0  0
   37.3690   31.8150   39.4470 C   0  0  0  0  0  0  0  0  0  0  0  0
   36.6400   31.6030   40.6300 C   0  0  0  0  0  0  0  0  0  0  0  0
   36.0190   30.3900   40.7770 N   0  0  0  0  0  0  0  0  0  0  0  0
   36.0930   29.4310   39.8400 C   0  0  0  0  0  0  0  0  0  0  0  0
   36.7840   29.6280   38.7110 N   0  0  0  0  0  0  0  0  0  0  0  0
   37.9410   30.8490   37.5700 H   0  0  0  0  0  0  0  0  0  0  0  0
   36.6000   32.3810   41.3560 H   0  0  0  0  0  0  0  0  0  0  0  0
   35.5880   28.4850   39.9940 H   0  0  0  0  0  0  0  0  0  0  0  0
   40.3840   31.2680   41.3330 C   0  0  0  0  0  0  0  0  0  0  0  0
   41.2280   31.5240   42.2920 O   0  0  0  0  0  0  0  0  0  0  0  0
   39.7080   30.0220   41.7370 C   0  0  0  0  0  0  0  0  0  0  0  0
   38.9510   29.8080   42.9240 C   0  0  0  0  0  0  0  0  0  0  0  0
   38.4260   28.5600   43.0600 C   0  0  0  0  0  0  0  0  0  0  0  0
   38.6090   27.6070   42.1390 C   0  0  0  0  0  0  0  0  0  0  0  0
   39.6750   28.5160   40.8470 S   0  0  0  0  0  0  0  0  0  0  0  0
   38.8490   30.6120   43.6080 H   0  0  0  0  0  0  0  0  0  0  0  0
   37.8320   28.2620   43.9130 H   0  0  0  0  0  0  0  0  0  0  0  0
   38.2800   26.2820   41.8840 C   0  0  0  0  0  0  0  0  0  0  0  0
   37.0510   25.7250   41.9630 C   0  0  0  0  0  0  0  0  0  0  0  0
   36.1680   26.2840   42.2440 H   0  0  0  0  0  0  0  0  0  0  0  0
   36.8850   24.4000   41.6820 C   0  0  0  0  0  3  0  0  0  0  0  0
   38.1080   23.6540   41.2980 C   0  0  0  0  0  3  0  0  0  0  0  0
   39.4020   24.9450   41.3790 S   0  0  0  0  0  0  0  0  0  0  0  0
  1 16  1  0  0  0  0
  3  2  2  6  0  0  0
  3  1  1  0  0  0  0
  3  4  1  0  0  0  0
  4  5  1  0  0  0  0
  6  8  1  0  0  0  0
  6  3  1  0  0  0  0
  7 12  2  0  0  0  0
  7  8  1  0  0  0  0
  8  9  2  0  0  0  0
  9 10  1  0  0  0  0
  9 14  1  0  0  0  0
 11 15  1  0  0  0  0
 11 10  2  0  0  0  0
 12 11  1  0  0  0  0
 13  7  1  0  0  0  0
 16 18  1  0  0  0  0
 16 17  2  0  0  0  0
 18 19  2  0  0  0  0
 19 20  1  0  0  0  0
 19 23  1  0  0  0  0
 20 24  1  0  0  0  0
 21 20  2  0  0  0  0
 22 18  1  0  0  0  0
 22 21  1  0  0  0  0
 25 26  2  0  0  0  0
 25 21  1  0  0  0  0
 26 27  1  0  0  0  0
 28 26  1  0  0  0  0
 29 30  1  0  0  0  0
 29 28  2  0  0  0  0
 30 25  1  0  0  0  0
M  END
>  <minimizedAffinity>
-5.14067745

$$$$

 OpenBabel03242514383D

 30 32  0  0  0  0  0  0  0  0999 V2000
   38.4420   31.9800   41.3300 O   0  0  0  0  0  0  0  0  0  0  0  0
   39.0870   34.3960   40.7240 O   0  0  0  0  0  0  0  0  0  0  0  0
   38.4170   33.1850   40.1760 P   0  0  2  0  0  0  0  0  0  0  0  0
   36.8170   33.5910   39.8470 O   0  0  0  0  0  0  0  0  0  0  0  0
   36.3860   32.9310   39.2490 H   0  0  0  0  0  0  0  0  0  0  0  0
   39.2130   32.6520   38.7420 O   0  0  0  0  0  0  0  0  0  0  0  0
   39.7670   30.4250   38.0670 C   0  0  0  0  0  0  0  0  0  0  0  0
   38.8340   31.4590   38.1310 C   0  0  0  0  0  0  0  0  0  0  0  0
   37.5580   31.2560   37.5780 C   0  0  0  0  0  0  0  0  0  0  0  0
   37.3090   30.0370   37.0040 N   0  0  0  0  0  0  0  0  0  0  0  0
   38.2330   29.0640   36.9620 C   0  0  0  0  0  0  0  0  0  0  0  0
   39.4500   29.2520   37.4860 N   0  0  0  0  0  0  0  0  0  0  0  0
   40.7590   30.4710   38.4520 H   0  0  0  0  0  0  0  0  0  0  0  0
   36.8450   32.0460   37.6270 H   0  0  0  0  0  0  0  0  0  0  0  0
   37.9970   28.1130   36.5000 H   0  0  0  0  0  0  0  0  0  0  0  0
   37.6550   30.8900   41.3770 C   0  0  0  0  0  0  0  0  0  0  0  0
   36.4250   31.1600   41.0430 O   0  0  0  0  0  0  0  0  0  0  0  0
   37.6640   29.4480   41.6780 C   0  0  0  0  0  0  0  0  0  0  0  0
   37.7020   28.8440   42.9670 C   0  0  0  0  0  0  0  0  0  0  0  0
   37.7010   27.4830   42.9710 C   0  0  0  0  0  0  0  0  0  0  0  0
   37.6640   26.7680   41.8400 C   0  0  0  0  0  0  0  0  0  0  0  0
   37.6260   28.1390   40.5170 S   0  0  0  0  0  0  0  0  0  0  0  0
   37.7290   29.4760   43.8180 H   0  0  0  0  0  0  0  0  0  0  0  0
   37.7290   26.8990   43.8800 H   0  0  0  0  0  0  0  0  0  0  0  0
   37.6500   25.4510   41.4030 C   0  0  0  0  0  0  0  0  0  0  0  0
   36.6230   24.8090   40.8030 C   0  0  0  0  0  0  0  0  0  0  0  0
   35.6720   25.2830   40.5970 H   0  0  0  0  0  0  0  0  0  0  0  0
   36.7600   23.5040   40.4290 C   0  0  0  0  0  3  0  0  0  0  0  0
   38.0720   22.8750   40.7200 C   0  0  0  0  0  3  0  0  0  0  0  0
   38.9980   24.2370   41.5170 S   0  0  0  0  0  0  0  0  0  0  0  0
  1 16  1  0  0  0  0
  3  2  2  1  0  0  0
  3  1  1  0  0  0  0
  4  3  1  0  0  0  0
  5  4  1  0  0  0  0
  6  3  1  0  0  0  0
  7  8  1  0  0  0  0
  7 13  1  0  0  0  0
  8  6  1  0  0  0  0
  9 14  1  0  0  0  0
  9  8  2  0  0  0  0
 10  9  1  0  0  0  0
 11 10  2  0  0  0  0
 11 12  1  0  0  0  0
 12  7  2  0  0  0  0
 15 11  1  0  0  0  0
 16 18  1  0  0  0  0
 17 16  2  0  0  0  0
 18 19  2  0  0  0  0
 19 20  1  0  0  0  0
 19 23  1  0  0  0  0
 20 24  1  0  0  0  0
 21 20  2  0  0  0  0
 22 18  1  0  0  0  0
 22 21  1  0  0  0  0
 25 30  1  0  0  0  0
 25 21  1  0  0  0  0
 26 25  2  0  0  0  0
 27 26  1  0  0  0  0
 28 29  2  0  0  0  0
 28 26  1  0  0  0  0
 29 30  1  0  0  0  0
M  END
>  <minimizedAffinity>
-5.12021112

$$$$

 OpenBabel03242514383D

 30 32  0  0  0  0  0  0  0  0999 V2000
   37.9740   29.8640   40.7380 O   0  0  0  0  0  0  0  0  0  0  0  0
   37.7590   32.4270   40.7900 O   0  0  0  0  0  0  0  0  0  0  0  0
   37.0290   31.1940   40.3890 P   0  0  2  0  0  0  0  0  0  0  0  0
   35.6180   31.1160   41.3040 O   0  0  0  0  0  0  0  0  0  0  0  0
   34.9660   30.4790   40.9190 H   0  0  0  0  0  0  0  0  0  0  0  0
   36.6560   31.2330   38.7060 O   0  0  0  0  0  0  0  0  0  0  0  0
   35.3340   29.3380   38.0870 C   0  0  0  0  0  0  0  0  0  0  0  0
   36.5300   30.0470   37.9870 C   0  0  0  0  0  0  0  0  0  0  0  0
   37.5540   29.5360   37.1700 C   0  0  0  0  0  0  0  0  0  0  0  0
   37.3070   28.3590   36.5150 N   0  0  0  0  0  0  0  0  0  0  0  0
   36.1400   27.7040   36.6360 C   0  0  0  0  0  0  0  0  0  0  0  0
   35.1620   28.1850   37.4130 N   0  0  0  0  0  0  0  0  0  0  0  0
   34.4950   29.6320   38.6750 H   0  0  0  0  0  0  0  0  0  0  0  0
   38.4680   30.0780   37.0940 H   0  0  0  0  0  0  0  0  0  0  0  0
   35.9830   26.7750   36.1000 H   0  0  0  0  0  0  0  0  0  0  0  0
   37.6380   28.8140   41.5100 C   0  0  0  0  0  0  0  0  0  0  0  0
   37.4940   29.1500   42.7600 O   0  0  0  0  0  0  0  0  0  0  0  0
   37.3600   27.3670   41.4660 C   0  0  0  0  0  0  0  0  0  0  0  0
   37.1730   26.4990   42.5790 C   0  0  0  0  0  0  0  0  0  0  0  0
   36.9260   25.1990   42.2650 C   0  0  0  0  0  0  0  0  0  0  0  0
   36.8610   24.7710   40.9990 C   0  0  0  0  0  0  0  0  0  0  0  0
   37.1890   26.3800   40.0310 S   0  0  0  0  0  0  0  0  0  0  0  0
   37.2380   26.9100   43.5550 H   0  0  0  0  0  0  0  0  0  0  0  0
   36.7670   24.4340   43.0140 H   0  0  0  0  0  0  0  0  0  0  0  0
   36.6480   23.6120   40.2670 C   0  0  0  0  0  0  0  0  0  0  0  0
   35.5270   23.2770   39.5900 C   0  0  0  0  0  0  0  0  0  0  0  0
   34.6500   23.9110   39.5530 H   0  0  0  0  0  0  0  0  0  0  0  0
   35.4670   22.0940   38.9130 C   0  0  0  0  0  3  0  0  0  0  0  0
   36.6800   21.2420   38.9760 C   0  0  0  0  0  3  0  0  0  0  0  0
   37.8090   22.2360   40.0190 S   0  0  0  0  0  0  0  0  0  0  0  0
  1 16  1  0  0  0  0
  3  1  1  0  0  0  0
  3  2  2  1  0  0  0
  3  4  1  0  0  0  0
  5  4  1  0  0  0  0
  6  3  1  0  0  0  0
  7 13  1  0  0  0  0
  8  7  1  0  0  0  0
  8  6  1  0  0  0  0
  9  8  2  0  0  0  0
 10 11  2  0  0  0  0
 10  9  1  0  0  0  0
 11 12  1  0  0  0  0
 12  7  2  0  0  0  0
 14  9  1  0  0  0  0
 15 11  1  0  0  0  0
 16 17  2  0  0  0  0
 18 16  1  0  0  0  0
 18 19  2  0  0  0  0
 19 23  1  0  0  0  0
 20 19  1  0  0  0  0
 20 24  1  0  0  0  0
 21 20  2  0  0  0  0
 22 21  1  0  0  0  0
 22 18  1  0  0  0  0
 25 21  1  0  0  0  0
 26 25  2  0  0  0  0
 27 26  1  0  0  0  0
 28 29  2  0  0  0  0
 28 26  1  0  0  0  0
 29 30  1  0  0  0  0
 30 25  1  0  0  0  0
M  END
>  <minimizedAffinity>
-5.11665583

$$$$

 OpenBabel03242514383D

 30 32  0  0  0  0  0  0  0  0999 V2000
   38.8110   32.3900   39.4290 O   0  0  0  0  0  0  0  0  0  0  0  0
   40.6700   32.5400   41.2020 O   0  0  0  0  0  0  0  0  0  0  0  0
   39.8090   33.3820   40.3260 P   0  0  2  0  0  0  0  0  0  0  0  0
   38.8610   34.3530   41.3210 O   0  0  0  0  0  0  0  0  0  0  0  0
   38.4610   35.1090   40.8240 H   0  0  0  0  0  0  0  0  0  0  0  0
   40.7790   34.3520   39.2810 O   0  0  0  0  0  0  0  0  0  0  0  0
   41.7840   32.9810   37.5980 C   0  0  0  0  0  0  0  0  0  0  0  0
   41.9290   33.8240   38.6990 C   0  0  0  0  0  0  0  0  0  0  0  0
   43.2220   34.1010   39.1740 C   0  0  0  0  0  0  0  0  0  0  0  0
   44.2730   33.5190   38.5160 N   0  0  0  0  0  0  0  0  0  0  0  0
   44.0940   32.7120   37.4560 C   0  0  0  0  0  0  0  0  0  0  0  0
   42.8640   32.4440   37.0000 N   0  0  0  0  0  0  0  0  0  0  0  0
   40.8550   32.7040   37.1570 H   0  0  0  0  0  0  0  0  0  0  0  0
   43.3330   34.7450   40.0160 H   0  0  0  0  0  0  0  0  0  0  0  0
   44.9510   32.2710   36.9610 H   0  0  0  0  0  0  0  0  0  0  0  0
   37.7160   31.7400   39.8620 C   0  0  0  0  0  0  0  0  0  0  0  0
   36.7310   32.5540   40.1160 O   0  0  0  0  0  0  0  0  0  0  0  0
   37.1950   30.3970   40.1700 C   0  0  0  0  0  0  0  0  0  0  0  0
   35.8340   30.0380   40.3890 C   0  0  0  0  0  0  0  0  0  0  0  0
   35.6170   28.7210   40.6540 C   0  0  0  0  0  0  0  0  0  0  0  0
   36.6140   27.8300   40.7020 C   0  0  0  0  0  0  0  0  0  0  0  0
   38.1290   28.9250   40.3300 S   0  0  0  0  0  0  0  0  0  0  0  0
   35.0980   30.7990   40.3340 H   0  0  0  0  0  0  0  0  0  0  0  0
   34.6320   28.3150   40.8410 H   0  0  0  0  0  0  0  0  0  0  0  0
   36.8370   26.4790   40.9240 C   0  0  0  0  0  0  0  0  0  0  0  0
   37.1720   25.8960   42.0970 C   0  0  0  0  0  0  0  0  0  0  0  0
   37.3040   26.4540   43.0150 H   0  0  0  0  0  0  0  0  0  0  0  0
   37.3590   24.5460   42.1580 C   0  0  0  0  0  3  0  0  0  0  0  0
   37.1720   23.8010   40.8890 C   0  0  0  0  0  3  0  0  0  0  0  0
   36.7390   25.1310   39.7090 S   0  0  0  0  0  0  0  0  0  0  0  0
  1 16  1  0  0  0  0
  1  3  1  0  0  0  0
  3  2  2  1  0  0  0
  3  4  1  0  0  0  0
  5  4  1  0  0  0  0
  6  3  1  0  0  0  0
  7  8  1  0  0  0  0
  8  9  2  0  0  0  0
  8  6  1  0  0  0  0
  9 14  1  0  0  0  0
 10  9  1  0  0  0  0
 11 10  2  0  0  0  0
 12 11  1  0  0  0  0
 12  7  2  0  0  0  0
 13  7  1  0  0  0  0
 15 11  1  0  0  0  0
 16 17  2  0  0  0  0
 16 18  1  0  0  0  0
 18 22  1  0  0  0  0
 18 19  2  0  0  0  0
 19 20  1  0  0  0  0
 20 21  2  0  0  0  0
 20 24  1  0  0  0  0
 21 25  1  0  0  0  0
 22 21  1  0  0  0  0
 23 19  1  0  0  0  0
 25 26  2  0  0  0  0
 26 28  1  0  0  0  0
 26 27  1  0  0  0  0
 29 28  2  0  0  0  0
 30 29  1  0  0  0  0
 30 25  1  0  0  0  0
M  END
>  <minimizedAffinity>
-5.065238

$$$$
