
 OpenBabel03252506253D

 42 46  0  0  0  0  0  0  0  0999 V2000
   46.4390   30.1670   48.2740 C   0  0  0  0  0  0  0  0  0  0  0  0
   46.7410   29.7800   49.2930 H   0  0  0  0  0  0  0  0  0  0  0  0
   45.8140   31.0570   48.4910 H   0  0  0  0  0  0  0  0  0  0  0  0
   45.8310   27.7380   47.6680 C   0  0  0  0  0  0  0  0  0  0  0  0
   45.6630   29.1150   47.6360 C   0  0  0  0  0  0  0  0  0  0  0  0
   44.6030   29.5680   46.8840 C   0  0  0  0  0  0  0  0  0  0  0  0
   43.7520   28.7270   46.1990 C   0  0  0  0  0  0  0  0  0  0  0  0
   42.6720   28.8810   45.4170 N   0  0  0  0  0  0  0  0  0  0  0  0
   42.2030   27.7070   44.9950 C   0  0  0  0  0  0  0  0  0  0  0  0
   42.9930   26.7090   45.5080 C   0  0  0  0  0  0  0  0  0  0  0  0
   43.9390   27.3570   46.2450 C   0  0  0  0  0  0  0  0  0  0  0  0
   44.9870   26.8880   46.9870 C   0  0  0  0  0  0  0  0  0  0  0  0
   46.6840   27.5130   48.2830 H   0  0  0  0  0  0  0  0  0  0  0  0
   44.3400   30.6080   46.7600 H   0  0  0  0  0  0  0  0  0  0  0  0
   42.2520   29.8250   45.1710 H   0  0  0  0  0  0  0  0  0  0  0  0
   41.3390   27.6090   44.3540 H   0  0  0  0  0  0  0  0  0  0  0  0
   42.7850   25.6940   45.2910 H   0  0  0  0  0  0  0  0  0  0  0  0
   45.3530   25.5000   47.1590 C   0  0  0  0  0  0  0  0  0  0  0  0
   45.2130   24.6460   48.1520 C   0  0  0  0  0  0  0  0  0  0  0  0
   44.7840   24.7600   49.1160 H   0  0  0  0  0  0  0  0  0  0  0  0
   45.6240   23.3640   48.0980 C   0  0  0  0  0  3  0  0  0  0  0  0
   46.2340   22.9410   46.9000 C   0  0  0  0  0  3  0  0  0  0  0  0
   46.1420   24.5380   45.9250 S   0  0  0  0  0  0  0  0  0  0  0  0
   47.6890   30.5860   47.5960 C   0  0  0  0  0  0  0  0  0  0  0  0
   48.2140   31.3020   48.2780 H   0  0  0  0  0  0  0  0  0  0  0  0
   48.3350   29.7360   47.3900 H   0  0  0  0  0  0  0  0  0  0  0  0
   46.6260   32.8660   45.0520 C   0  0  0  0  0  0  0  0  0  0  0  0
   47.2150   31.8430   44.2930 C   0  0  0  0  0  0  0  0  0  0  0  0
   47.6770   30.8830   45.1330 C   0  0  0  0  0  0  0  0  0  0  0  0
   47.3820   31.2990   46.3670 N   0  0  0  0  0  0  0  0  0  0  0  0
   46.7510   32.4890   46.3340 N   0  0  0  0  0  0  0  0  0  0  0  0
   47.3150   31.7780   43.2110 H   0  0  0  0  0  0  0  0  0  0  0  0
   48.1870   29.9520   44.8950 H   0  0  0  0  0  0  0  0  0  0  0  0
   44.5200   35.8220   44.7000 C   0  0  0  0  0  0  0  0  0  0  0  0
   44.8640   36.3300   43.4580 C   0  0  0  0  0  0  0  0  0  0  0  0
   45.8320   35.6450   42.7400 C   0  0  0  0  0  0  0  0  0  0  0  0
   46.3750   34.5280   43.2940 N   0  0  0  0  0  0  0  0  0  0  0  0
   46.0210   34.0650   44.4940 C   0  0  0  0  0  0  0  0  0  0  0  0
   45.0930   34.7170   45.1910 N   0  0  0  0  0  0  0  0  0  0  0  0
   43.7640   36.3710   45.2440 H   0  0  0  0  0  0  0  0  0  0  0  0
   44.4440   37.2030   43.0150 H   0  0  0  0  0  0  0  0  0  0  0  0
   46.2090   35.9010   41.7740 H   0  0  0  0  0  0  0  0  0  0  0  0
  1  3  1  0  0  0  0
  1  2  1  0  0  0  0
  4 13  1  0  0  0  0
  5  4  1  0  0  0  0
  5  1  1  0  0  0  0
  6  5  2  0  0  0  0
  7 11  2  0  0  0  0
  7  6  1  0  0  0  0
  8  7  1  0  0  0  0
  9  8  1  0  0  0  0
  9 10  2  0  0  0  0
 10 11  1  0  0  0  0
 11 12  1  0  0  0  0
 12 18  1  0  0  0  0
 12  4  2  0  0  0  0
 14  6  1  0  0  0  0
 15  8  1  0  0  0  0
 16  9  1  0  0  0  0
 17 10  1  0  0  0  0
 18 19  2  0  0  0  0
 19 20  1  0  0  0  0
 21 19  1  0  0  0  0
 22 21  2  0  0  0  0
 23 22  1  0  0  0  0
 23 18  1  0  0  0  0
 24  1  1  0  0  0  0
 24 25  1  0  0  0  0
 26 24  1  0  0  0  0
 27 31  2  0  0  0  0
 28 27  1  0  0  0  0
 28 29  2  0  0  0  0
 29 30  1  0  0  0  0
 30 24  1  0  0  0  0
 31 30  1  0  0  0  0
 32 28  1  0  0  0  0
 33 29  1  0  0  0  0
 34 39  1  0  0  0  0
 34 40  1  0  0  0  0
 35 34  2  0  0  0  0
 36 37  2  0  0  0  0
 36 35  1  0  0  0  0
 37 38  1  0  0  0  0
 38 27  1  0  0  0  0
 38 39  2  0  0  0  0
 41 35  1  0  0  0  0
 42 36  1  0  0  0  0
M  END
>  <minimizedAffinity>
-5.30540276

>  <minimizedRMSD>
0.741790473

$$$$
