
 OpenBabel03252506253D

 42 46  0  0  0  0  0  0  0  0999 V2000
   46.4650   30.1240   48.2890 C   0  0  0  0  0  0  0  0  0  0  0  0
   46.7670   29.6890   49.2880 H   0  0  0  0  0  0  0  0  0  0  0  0
   45.8260   30.9930   48.5490 H   0  0  0  0  0  0  0  0  0  0  0  0
   45.9220   27.7270   47.5160 C   0  0  0  0  0  0  0  0  0  0  0  0
   45.7070   29.0960   47.5930 C   0  0  0  0  0  0  0  0  0  0  0  0
   44.6130   29.5670   46.9030 C   0  0  0  0  0  0  0  0  0  0  0  0
   43.7730   28.7500   46.1780 C   0  0  0  0  0  0  0  0  0  0  0  0
   42.6670   28.9230   45.4360 N   0  0  0  0  0  0  0  0  0  0  0  0
   42.2250   27.7690   44.9380 C   0  0  0  0  0  0  0  0  0  0  0  0
   43.0620   26.7640   45.3550 C   0  0  0  0  0  0  0  0  0  0  0  0
   44.0060   27.3880   46.1150 C   0  0  0  0  0  0  0  0  0  0  0  0
   45.0890   26.9010   46.7930 C   0  0  0  0  0  0  0  0  0  0  0  0
   46.7980   27.4870   48.0910 H   0  0  0  0  0  0  0  0  0  0  0  0
   44.3120   30.6030   46.8640 H   0  0  0  0  0  0  0  0  0  0  0  0
   42.2090   29.8680   45.2730 H   0  0  0  0  0  0  0  0  0  0  0  0
   41.3480   27.6890   44.3130 H   0  0  0  0  0  0  0  0  0  0  0  0
   42.8820   25.7610   45.0670 H   0  0  0  0  0  0  0  0  0  0  0  0
   45.5050   25.5180   46.8500 C   0  0  0  0  0  0  0  0  0  0  0  0
   46.0530   24.7040   45.9740 C   0  0  0  0  0  0  0  0  0  0  0  0
   46.3370   24.8540   44.9620 H   0  0  0  0  0  0  0  0  0  0  0  0
   46.3790   23.4240   46.2450 C   0  0  0  0  0  3  0  0  0  0  0  0
   46.1060   22.9600   47.5480 C   0  0  0  0  0  3  0  0  0  0  0  0
   45.3650   24.5160   48.2820 S   0  0  0  0  0  0  0  0  0  0  0  0
   47.7130   30.5950   47.6410 C   0  0  0  0  0  0  0  0  0  0  0  0
   48.1920   31.3300   48.3370 H   0  0  0  0  0  0  0  0  0  0  0  0
   48.3970   29.7730   47.4480 H   0  0  0  0  0  0  0  0  0  0  0  0
   46.6440   32.8520   45.0780 C   0  0  0  0  0  0  0  0  0  0  0  0
   47.2420   31.8280   44.3280 C   0  0  0  0  0  0  0  0  0  0  0  0
   47.7070   30.8770   45.1760 C   0  0  0  0  0  0  0  0  0  0  0  0
   47.4050   31.2980   46.4070 N   0  0  0  0  0  0  0  0  0  0  0  0
   46.7670   32.4840   46.3630 N   0  0  0  0  0  0  0  0  0  0  0  0
   47.3460   31.7570   43.2470 H   0  0  0  0  0  0  0  0  0  0  0  0
   48.2240   29.9470   44.9450 H   0  0  0  0  0  0  0  0  0  0  0  0
   44.5210   35.7930   44.7010 C   0  0  0  0  0  0  0  0  0  0  0  0
   44.8650   36.2950   43.4560 C   0  0  0  0  0  0  0  0  0  0  0  0
   45.8380   35.6090   42.7450 C   0  0  0  0  0  0  0  0  0  0  0  0
   46.3870   34.5000   43.3090 N   0  0  0  0  0  0  0  0  0  0  0  0
   46.0330   34.0440   44.5100 C   0  0  0  0  0  0  0  0  0  0  0  0
   45.1000   34.6950   45.2010 N   0  0  0  0  0  0  0  0  0  0  0  0
   43.7620   36.3420   45.2400 H   0  0  0  0  0  0  0  0  0  0  0  0
   44.4410   37.1620   43.0060 H   0  0  0  0  0  0  0  0  0  0  0  0
   46.2160   35.8610   41.7780 H   0  0  0  0  0  0  0  0  0  0  0  0
  1  3  1  0  0  0  0
  1  2  1  0  0  0  0
  4  5  1  0  0  0  0
  4 13  1  0  0  0  0
  5  1  1  0  0  0  0
  6  5  2  0  0  0  0
  7  6  1  0  0  0  0
  8  7  1  0  0  0  0
  9 10  2  0  0  0  0
  9  8  1  0  0  0  0
 10 11  1  0  0  0  0
 11  7  2  0  0  0  0
 11 12  1  0  0  0  0
 12 18  1  0  0  0  0
 12  4  2  0  0  0  0
 14  6  1  0  0  0  0
 15  8  1  0  0  0  0
 16  9  1  0  0  0  0
 17 10  1  0  0  0  0
 18 23  1  0  0  0  0
 19 21  1  0  0  0  0
 19 18  2  0  0  0  0
 20 19  1  0  0  0  0
 21 22  2  0  0  0  0
 22 23  1  0  0  0  0
 24  1  1  0  0  0  0
 24 25  1  0  0  0  0
 26 24  1  0  0  0  0
 27 31  2  0  0  0  0
 28 27  1  0  0  0  0
 28 29  2  0  0  0  0
 29 30  1  0  0  0  0
 30 24  1  0  0  0  0
 31 30  1  0  0  0  0
 32 28  1  0  0  0  0
 33 29  1  0  0  0  0
 34 39  1  0  0  0  0
 34 40  1  0  0  0  0
 35 34  2  0  0  0  0
 36 37  2  0  0  0  0
 36 35  1  0  0  0  0
 37 38  1  0  0  0  0
 38 27  1  0  0  0  0
 38 39  2  0  0  0  0
 41 35  1  0  0  0  0
 42 36  1  0  0  0  0
M  END
>  <minimizedAffinity>
-5.1801548

>  <minimizedRMSD>
0.918309629

$$$$
