
 OpenBabel03252504433D

 42 45  0  0  0  0  0  0  0  0999 V2000
   37.5920   31.6880   40.3630 C   0  0  0  0  0  0  0  0  0  0  0  0
   37.2700   32.7330   39.5500 C   0  0  0  0  0  0  0  0  0  0  0  0
   38.4210   33.2580   39.1320 N   0  0  0  0  0  0  0  0  0  0  0  0
   39.4570   32.5980   39.6390 C   0  0  0  0  0  0  0  0  0  0  0  0
   38.9360   31.6020   40.4200 N   0  0  0  0  0  0  0  0  0  0  0  0
   40.8690   32.7710   39.4870 N   0  0  0  0  0  0  0  0  0  0  0  0
   41.5150   32.0630   38.3580 C   0  0  0  0  0  0  0  0  0  0  0  0
   41.7730   33.1430   37.3140 C   0  0  0  0  0  0  0  0  0  0  0  0
   42.4120   34.3480   37.9690 C   0  0  0  0  0  0  0  0  0  0  0  0
   42.9730   33.9490   39.3260 C   0  0  0  0  0  0  0  0  0  0  0  0
   41.8320   33.5180   40.2280 C   0  0  0  0  0  0  0  0  0  0  0  0
   36.2590   33.0590   39.3050 H   0  0  0  0  0  0  0  0  0  0  0  0
   38.5180   34.0810   38.4890 H   0  0  0  0  0  0  0  0  0  0  0  0
   42.4720   31.6100   38.6580 H   0  0  0  0  0  0  0  0  0  0  0  0
   40.8140   31.3410   37.9040 H   0  0  0  0  0  0  0  0  0  0  0  0
   42.4490   32.7960   36.5020 H   0  0  0  0  0  0  0  0  0  0  0  0
   40.8040   33.4440   36.8390 H   0  0  0  0  0  0  0  0  0  0  0  0
   41.6390   35.1150   38.1560 H   0  0  0  0  0  0  0  0  0  0  0  0
   43.1780   34.7960   37.3330 H   0  0  0  0  0  0  0  0  0  0  0  0
   43.3970   34.8960   39.7630 H   0  0  0  0  0  0  0  0  0  0  0  0
   43.7550   33.1650   39.2380 H   0  0  0  0  0  0  0  0  0  0  0  0
   42.2640   32.8500   41.0020 H   0  0  0  0  0  0  0  0  0  0  0  0
   41.4040   34.3930   40.7600 H   0  0  0  0  0  0  0  0  0  0  0  0
   36.6400   30.7890   41.0630 C   0  0  0  0  0  0  0  0  0  0  0  0
   35.7970   30.6100   40.3440 H   0  0  0  0  0  0  0  0  0  0  0  0
   36.2240   31.2850   41.9550 H   0  0  0  0  0  0  0  0  0  0  0  0
   37.4840   28.9900   42.5360 C   0  0  0  0  0  3  0  0  0  0  0  0
   37.2450   29.4650   41.3330 C   0  0  0  0  0  3  0  0  0  0  0  0
   38.0870   27.6660   42.6540 C   0  0  0  0  0  0  0  0  0  0  0  0
   39.0940   27.3940   43.6040 C   0  0  0  0  0  0  0  0  0  0  0  0
   39.6020   26.1010   43.6370 C   0  0  0  0  0  0  0  0  0  0  0  0
   39.1280   25.1640   42.7770 N   0  0  0  0  0  0  0  0  0  0  0  0
   38.1650   25.4540   41.8790 C   0  0  0  0  0  0  0  0  0  0  0  0
   37.6550   26.6760   41.8190 N   0  0  0  0  0  0  0  0  0  0  0  0
   39.4030   28.1910   44.2360 H   0  0  0  0  0  0  0  0  0  0  0  0
   40.3730   25.9280   44.3770 H   0  0  0  0  0  0  0  0  0  0  0  0
   37.8050   24.3210   41.0630 C   0  0  0  0  0  0  0  0  0  0  0  0
   38.4550   23.1620   40.8360 C   0  0  0  0  0  0  0  0  0  0  0  0
   39.4080   22.9940   41.3190 H   0  0  0  0  0  0  0  0  0  0  0  0
   37.8970   22.2210   40.0030 C   0  0  0  0  0  3  0  0  0  0  0  0
   36.6580   22.5510   39.4370 C   0  0  0  0  0  3  0  0  0  0  0  0
   36.2970   24.2150   40.1030 S   0  0  0  0  0  0  0  0  0  0  0  0
  1  5  1  0  0  0  0
  1 24  1  0  0  0  0
  2  1  2  0  0  0  0
  3  2  1  0  0  0  0
  3  4  1  0  0  0  0
  4  5  2  0  0  0  0
  6  4  1  0  0  0  0
  6 11  1  0  0  0  0
  7 14  1  0  0  0  0
  7  6  1  0  0  0  0
  8  9  1  0  0  0  0
  8  7  1  0  0  0  0
  9 18  1  0  0  0  0
  9 10  1  0  0  0  0
 10 20  1  0  0  0  0
 10 11  1  0  0  0  0
 11 23  1  0  0  0  0
 11 22  1  0  0  0  0
 12  2  1  0  0  0  0
 13  3  1  0  0  0  0
 15  7  1  0  0  0  0
 16  8  1  0  0  0  0
 17  8  1  0  0  0  0
 19  9  1  0  0  0  0
 21 10  1  0  0  0  0
 24 28  1  0  0  0  0
 24 26  1  0  0  0  0
 25 24  1  0  0  0  0
 27 29  1  0  0  0  0
 28 27  2  0  0  0  0
 29 30  1  0  0  0  0
 30 31  2  0  0  0  0
 30 35  1  0  0  0  0
 31 36  1  0  0  0  0
 32 31  1  0  0  0  0
 33 32  2  0  0  0  0
 34 33  1  0  0  0  0
 34 29  2  0  0  0  0
 37 33  1  0  0  0  0
 38 37  2  0  0  0  0
 38 39  1  0  0  0  0
 40 38  1  0  0  0  0
 41 40  2  0  0  0  0
 41 42  1  0  0  0  0
 42 37  1  0  0  0  0
M  END
>  <minimizedAffinity>
-5.86771297

$$$$

 OpenBabel03252504433D

 42 45  0  0  0  0  0  0  0  0999 V2000
   38.5020   28.0950   42.9930 C   0  0  0  0  0  0  0  0  0  0  0  0
   37.3310   28.6950   43.3440 C   0  0  0  0  0  0  0  0  0  0  0  0
   37.2490   29.8170   42.6310 N   0  0  0  0  0  0  0  0  0  0  0  0
   38.3100   29.9590   41.8440 C   0  0  0  0  0  0  0  0  0  0  0  0
   39.1080   28.8700   42.0710 N   0  0  0  0  0  0  0  0  0  0  0  0
   38.6770   30.9750   40.9050 N   0  0  0  0  0  0  0  0  0  0  0  0
   38.1990   30.8070   39.5130 C   0  0  0  0  0  0  0  0  0  0  0  0
   37.0460   31.7920   39.3730 C   0  0  0  0  0  0  0  0  0  0  0  0
   37.4550   33.1440   39.9180 C   0  0  0  0  0  0  0  0  0  0  0  0
   38.9710   33.2070   40.0270 C   0  0  0  0  0  0  0  0  0  0  0  0
   39.4410   32.1720   41.0330 C   0  0  0  0  0  0  0  0  0  0  0  0
   36.6150   28.3120   44.0710 H   0  0  0  0  0  0  0  0  0  0  0  0
   36.4610   30.5080   42.6700 H   0  0  0  0  0  0  0  0  0  0  0  0
   38.9840   31.0570   38.7830 H   0  0  0  0  0  0  0  0  0  0  0  0
   37.7760   29.7970   39.3700 H   0  0  0  0  0  0  0  0  0  0  0  0
   36.7310   31.9310   38.3150 H   0  0  0  0  0  0  0  0  0  0  0  0
   36.1570   31.4120   39.9410 H   0  0  0  0  0  0  0  0  0  0  0  0
   37.0560   33.2610   40.9410 H   0  0  0  0  0  0  0  0  0  0  0  0
   37.0610   33.9610   39.3100 H   0  0  0  0  0  0  0  0  0  0  0  0
   39.1960   34.2180   40.4670 H   0  0  0  0  0  0  0  0  0  0  0  0
   39.4640   33.0830   39.0400 H   0  0  0  0  0  0  0  0  0  0  0  0
   40.4960   31.9350   40.7870 H   0  0  0  0  0  0  0  0  0  0  0  0
   39.4360   32.5960   42.0590 H   0  0  0  0  0  0  0  0  0  0  0  0
   39.0290   26.8100   43.5200 C   0  0  0  0  0  0  0  0  0  0  0  0
   38.4550   26.6040   44.4620 H   0  0  0  0  0  0  0  0  0  0  0  0
   40.0940   26.9090   43.7870 H   0  0  0  0  0  0  0  0  0  0  0  0
   37.5390   25.3940   42.1450 C   0  0  0  0  0  3  0  0  0  0  0  0
   38.7380   25.6880   42.5990 C   0  0  0  0  0  3  0  0  0  0  0  0
   37.3960   24.2570   41.2420 C   0  0  0  0  0  0  0  0  0  0  0  0
   38.4770   23.3950   40.9600 C   0  0  0  0  0  0  0  0  0  0  0  0
   38.2360   22.3420   40.0860 C   0  0  0  0  0  0  0  0  0  0  0  0
   37.0020   22.1780   39.5440 N   0  0  0  0  0  0  0  0  0  0  0  0
   35.9880   23.0180   39.8320 C   0  0  0  0  0  0  0  0  0  0  0  0
   36.1800   24.0350   40.6620 N   0  0  0  0  0  0  0  0  0  0  0  0
   39.4060   23.6020   41.4310 H   0  0  0  0  0  0  0  0  0  0  0  0
   39.0870   21.7010   39.8930 H   0  0  0  0  0  0  0  0  0  0  0  0
   34.7650   22.6690   39.1530 C   0  0  0  0  0  0  0  0  0  0  0  0
   33.4960   22.6130   39.6050 C   0  0  0  0  0  0  0  0  0  0  0  0
   33.2990   22.8610   40.6400 H   0  0  0  0  0  0  0  0  0  0  0  0
   32.4840   22.2470   38.7490 C   0  0  0  0  0  3  0  0  0  0  0  0
   32.8630   21.9520   37.4330 C   0  0  0  0  0  3  0  0  0  0  0  0
   34.6750   22.2000   37.4270 S   0  0  0  0  0  0  0  0  0  0  0  0
  1  2  2  0  0  0  0
  1 24  1  0  0  0  0
  2 12  1  0  0  0  0
  3 13  1  0  0  0  0
  3  2  1  0  0  0  0
  4  5  2  0  0  0  0
  4  3  1  0  0  0  0
  5  1  1  0  0  0  0
  6 11  1  0  0  0  0
  6  4  1  0  0  0  0
  7  6  1  0  0  0  0
  8  7  1  0  0  0  0
  8  9  1  0  0  0  0
  8 17  1  0  0  0  0
  9 10  1  0  0  0  0
  9 18  1  0  0  0  0
 10 20  1  0  0  0  0
 10 11  1  0  0  0  0
 11 23  1  0  0  0  0
 14  7  1  0  0  0  0
 15  7  1  0  0  0  0
 16  8  1  0  0  0  0
 19  9  1  0  0  0  0
 21 10  1  0  0  0  0
 22 11  1  0  0  0  0
 24 26  1  0  0  0  0
 24 25  1  0  0  0  0
 27 28  2  0  0  0  0
 28 24  1  0  0  0  0
 29 27  1  0  0  0  0
 30 29  1  0  0  0  0
 30 35  1  0  0  0  0
 31 30  2  0  0  0  0
 32 33  2  0  0  0  0
 32 31  1  0  0  0  0
 33 34  1  0  0  0  0
 34 29  2  0  0  0  0
 36 31  1  0  0  0  0
 37 38  2  0  0  0  0
 37 33  1  0  0  0  0
 38 39  1  0  0  0  0
 40 38  1  0  0  0  0
 41 40  2  0  0  0  0
 42 41  1  0  0  0  0
 42 37  1  0  0  0  0
M  END
>  <minimizedAffinity>
-5.84342766

$$$$

 OpenBabel03252504433D

 42 45  0  0  0  0  0  0  0  0999 V2000
   37.0530   31.0500   40.0000 C   0  0  0  0  0  0  0  0  0  0  0  0
   36.2150   30.9360   41.0680 C   0  0  0  0  0  0  0  0  0  0  0  0
   36.2380   29.6550   41.4340 N   0  0  0  0  0  0  0  0  0  0  0  0
   37.0490   28.9510   40.6520 C   0  0  0  0  0  0  0  0  0  0  0  0
   37.5670   29.8320   39.7410 N   0  0  0  0  0  0  0  0  0  0  0  0
   37.4080   27.5660   40.6440 N   0  0  0  0  0  0  0  0  0  0  0  0
   38.5640   27.1670   41.4790 C   0  0  0  0  0  0  0  0  0  0  0  0
   37.9510   26.4890   42.6990 C   0  0  0  0  0  0  0  0  0  0  0  0
   36.9030   25.4900   42.2580 C   0  0  0  0  0  0  0  0  0  0  0  0
   37.0930   25.1740   40.7830 C   0  0  0  0  0  0  0  0  0  0  0  0
   36.8610   26.4340   39.9700 C   0  0  0  0  0  0  0  0  0  0  0  0
   35.6460   31.7490   41.5190 H   0  0  0  0  0  0  0  0  0  0  0  0
   35.6970   29.2390   42.2310 H   0  0  0  0  0  0  0  0  0  0  0  0
   39.2160   26.4520   40.9540 H   0  0  0  0  0  0  0  0  0  0  0  0
   39.1010   28.0590   41.8460 H   0  0  0  0  0  0  0  0  0  0  0  0
   38.7070   25.9460   43.3080 H   0  0  0  0  0  0  0  0  0  0  0  0
   37.4790   27.2620   43.3590 H   0  0  0  0  0  0  0  0  0  0  0  0
   35.9000   25.9430   42.3620 H   0  0  0  0  0  0  0  0  0  0  0  0
   36.9240   24.5850   42.8690 H   0  0  0  0  0  0  0  0  0  0  0  0
   36.2650   24.4580   40.5220 H   0  0  0  0  0  0  0  0  0  0  0  0
   38.0880   24.7240   40.5790 H   0  0  0  0  0  0  0  0  0  0  0  0
   37.4040   26.3080   39.0120 H   0  0  0  0  0  0  0  0  0  0  0  0
   35.7850   26.5430   39.7190 H   0  0  0  0  0  0  0  0  0  0  0  0
   37.3600   32.2940   39.2480 C   0  0  0  0  0  0  0  0  0  0  0  0
   37.0540   33.1420   39.9160 H   0  0  0  0  0  0  0  0  0  0  0  0
   36.7530   32.3510   38.3300 H   0  0  0  0  0  0  0  0  0  0  0  0
   39.6560   32.9300   39.9100 C   0  0  0  0  0  3  0  0  0  0  0  0
   38.8160   32.4440   39.0230 C   0  0  0  0  0  3  0  0  0  0  0  0
   41.0680   33.0210   39.5530 C   0  0  0  0  0  0  0  0  0  0  0  0
   41.9520   33.8800   40.2410 C   0  0  0  0  0  0  0  0  0  0  0  0
   43.2770   33.8930   39.8240 C   0  0  0  0  0  0  0  0  0  0  0  0
   43.6720   33.1010   38.7940 N   0  0  0  0  0  0  0  0  0  0  0  0
   42.8050   32.2900   38.1550 C   0  0  0  0  0  0  0  0  0  0  0  0
   41.5320   32.2510   38.5250 N   0  0  0  0  0  0  0  0  0  0  0  0
   41.5520   34.4630   41.0350 H   0  0  0  0  0  0  0  0  0  0  0  0
   43.9260   34.5630   40.3730 H   0  0  0  0  0  0  0  0  0  0  0  0
   43.4250   31.5360   37.0940 C   0  0  0  0  0  0  0  0  0  0  0  0
   42.9050   30.6290   36.2430 C   0  0  0  0  0  0  0  0  0  0  0  0
   41.8540   30.3840   36.3200 H   0  0  0  0  0  0  0  0  0  0  0  0
   43.7140   30.0370   35.3020 C   0  0  0  0  0  3  0  0  0  0  0  0
   45.0570   30.4370   35.3000 C   0  0  0  0  0  3  0  0  0  0  0  0
   45.1560   31.6620   36.6530 S   0  0  0  0  0  0  0  0  0  0  0  0
  1  2  2  0  0  0  0
  2  3  1  0  0  0  0
  2 12  1  0  0  0  0
  3 13  1  0  0  0  0
  4  3  1  0  0  0  0
  5  1  1  0  0  0  0
  5  4  2  0  0  0  0
  6  4  1  0  0  0  0
  6  7  1  0  0  0  0
  7 15  1  0  0  0  0
  7  8  1  0  0  0  0
  8 16  1  0  0  0  0
  8 17  1  0  0  0  0
  9 18  1  0  0  0  0
  9  8  1  0  0  0  0
  9 19  1  0  0  0  0
 10  9  1  0  0  0  0
 11  6  1  0  0  0  0
 11 10  1  0  0  0  0
 14  7  1  0  0  0  0
 20 10  1  0  0  0  0
 21 10  1  0  0  0  0
 22 11  1  0  0  0  0
 23 11  1  0  0  0  0
 24 25  1  0  0  0  0
 24  1  1  0  0  0  0
 26 24  1  0  0  0  0
 28 24  1  0  0  0  0
 28 27  2  0  0  0  0
 29 27  1  0  0  0  0
 29 30  1  0  0  0  0
 30 35  1  0  0  0  0
 31 30  2  0  0  0  0
 31 36  1  0  0  0  0
 32 31  1  0  0  0  0
 33 34  1  0  0  0  0
 33 32  2  0  0  0  0
 34 29  2  0  0  0  0
 37 33  1  0  0  0  0
 38 39  1  0  0  0  0
 38 37  2  0  0  0  0
 40 38  1  0  0  0  0
 41 40  2  0  0  0  0
 41 42  1  0  0  0  0
 42 37  1  0  0  0  0
M  END
>  <minimizedAffinity>
-5.74094486

$$$$

 OpenBabel03252504433D

 42 45  0  0  0  0  0  0  0  0999 V2000
   36.1820   28.3900   38.5230 C   0  0  0  0  0  0  0  0  0  0  0  0
   35.6460   27.2120   38.0970 C   0  0  0  0  0  0  0  0  0  0  0  0
   36.2010   26.2530   38.8370 N   0  0  0  0  0  0  0  0  0  0  0  0
   37.0610   26.7650   39.7120 C   0  0  0  0  0  0  0  0  0  0  0  0
   37.0530   28.1190   39.5150 N   0  0  0  0  0  0  0  0  0  0  0  0
   37.8880   26.1570   40.7090 N   0  0  0  0  0  0  0  0  0  0  0  0
   37.2920   25.9690   42.0520 C   0  0  0  0  0  0  0  0  0  0  0  0
   36.9640   24.4830   42.1300 C   0  0  0  0  0  0  0  0  0  0  0  0
   38.1510   23.6680   41.6640 C   0  0  0  0  0  0  0  0  0  0  0  0
   39.3980   24.5390   41.6780 C   0  0  0  0  0  0  0  0  0  0  0  0
   39.2280   25.6700   40.6820 C   0  0  0  0  0  0  0  0  0  0  0  0
   34.9080   27.1000   37.3030 H   0  0  0  0  0  0  0  0  0  0  0  0
   35.9990   25.2270   38.7570 H   0  0  0  0  0  0  0  0  0  0  0  0
   38.0040   26.2270   42.8500 H   0  0  0  0  0  0  0  0  0  0  0  0
   36.3350   26.5120   42.1280 H   0  0  0  0  0  0  0  0  0  0  0  0
   36.7100   24.1570   43.1630 H   0  0  0  0  0  0  0  0  0  0  0  0
   36.0770   24.2610   41.4800 H   0  0  0  0  0  0  0  0  0  0  0  0
   37.9910   23.3570   40.6150 H   0  0  0  0  0  0  0  0  0  0  0  0
   38.2830   22.7660   42.2630 H   0  0  0  0  0  0  0  0  0  0  0  0
   40.2250   23.8800   41.2910 H   0  0  0  0  0  0  0  0  0  0  0  0
   39.6320   24.9130   42.6980 H   0  0  0  0  0  0  0  0  0  0  0  0
   39.9000   26.4910   41.0030 H   0  0  0  0  0  0  0  0  0  0  0  0
   39.5660   25.3530   39.6730 H   0  0  0  0  0  0  0  0  0  0  0  0
   35.8650   29.7440   37.9990 C   0  0  0  0  0  0  0  0  0  0  0  0
   34.8050   29.9530   38.3050 H   0  0  0  0  0  0  0  0  0  0  0  0
   35.9080   29.7530   36.8980 H   0  0  0  0  0  0  0  0  0  0  0  0
   37.6090   31.4970   38.0230 C   0  0  0  0  0  3  0  0  0  0  0  0
   36.6990   30.7830   38.6470 C   0  0  0  0  0  3  0  0  0  0  0  0
   38.3590   32.4890   38.7860 C   0  0  0  0  0  0  0  0  0  0  0  0
   37.7220   33.3620   39.6940 C   0  0  0  0  0  0  0  0  0  0  0  0
   38.5270   34.2700   40.3720 C   0  0  0  0  0  0  0  0  0  0  0  0
   39.8650   34.2890   40.1460 N   0  0  0  0  0  0  0  0  0  0  0  0
   40.4470   33.4430   39.2730 C   0  0  0  0  0  0  0  0  0  0  0  0
   39.7110   32.5630   38.6070 N   0  0  0  0  0  0  0  0  0  0  0  0
   36.6690   33.2730   39.8040 H   0  0  0  0  0  0  0  0  0  0  0  0
   38.0050   34.9230   41.0590 H   0  0  0  0  0  0  0  0  0  0  0  0
   41.8730   33.6300   39.1810 C   0  0  0  0  0  0  0  0  0  0  0  0
   42.8310   33.5420   40.1260 C   0  0  0  0  0  0  0  0  0  0  0  0
   42.5450   33.2940   41.1390 H   0  0  0  0  0  0  0  0  0  0  0  0
   44.1450   33.7670   39.7850 C   0  0  0  0  0  3  0  0  0  0  0  0
   44.3920   34.0790   38.4420 C   0  0  0  0  0  3  0  0  0  0  0  0
   42.7350   34.0500   37.6690 S   0  0  0  0  0  0  0  0  0  0  0  0
  1  5  1  0  0  0  0
  2  1  2  0  0  0  0
  2  3  1  0  0  0  0
  3  4  1  0  0  0  0
  4  6  1  0  0  0  0
  5  4  2  0  0  0  0
  6  7  1  0  0  0  0
  7 15  1  0  0  0  0
  7  8  1  0  0  0  0
  7 14  1  0  0  0  0
  8 16  1  0  0  0  0
  9 10  1  0  0  0  0
  9  8  1  0  0  0  0
  9 19  1  0  0  0  0
 10 21  1  0  0  0  0
 11  6  1  0  0  0  0
 11 22  1  0  0  0  0
 11 10  1  0  0  0  0
 12  2  1  0  0  0  0
 13  3  1  0  0  0  0
 17  8  1  0  0  0  0
 18  9  1  0  0  0  0
 20 10  1  0  0  0  0
 23 11  1  0  0  0  0
 24 25  1  0  0  0  0
 24  1  1  0  0  0  0
 24 28  1  0  0  0  0
 26 24  1  0  0  0  0
 27 28  2  0  0  0  0
 27 29  1  0  0  0  0
 29 30  1  0  0  0  0
 30 35  1  0  0  0  0
 30 31  2  0  0  0  0
 31 36  1  0  0  0  0
 32 31  1  0  0  0  0
 33 32  2  0  0  0  0
 34 29  2  0  0  0  0
 34 33  1  0  0  0  0
 37 33  1  0  0  0  0
 37 38  2  0  0  0  0
 38 39  1  0  0  0  0
 40 38  1  0  0  0  0
 41 40  2  0  0  0  0
 42 41  1  0  0  0  0
 42 37  1  0  0  0  0
M  END
>  <minimizedAffinity>
-5.71168947

$$$$

 OpenBabel03252504433D

 42 45  0  0  0  0  0  0  0  0999 V2000
   38.9530   25.8730   42.9210 C   0  0  0  0  0  0  0  0  0  0  0  0
   39.4770   24.6470   43.2010 C   0  0  0  0  0  0  0  0  0  0  0  0
   38.9680   23.8030   42.3040 N   0  0  0  0  0  0  0  0  0  0  0  0
   38.1490   24.4330   41.4680 C   0  0  0  0  0  0  0  0  0  0  0  0
   38.1370   25.7460   41.8560 N   0  0  0  0  0  0  0  0  0  0  0  0
   37.3800   23.9730   40.3530 N   0  0  0  0  0  0  0  0  0  0  0  0
   38.0450   23.9800   39.0300 C   0  0  0  0  0  0  0  0  0  0  0  0
   38.3890   22.5200   38.7570 C   0  0  0  0  0  0  0  0  0  0  0  0
   37.1870   21.6470   39.0410 C   0  0  0  0  0  0  0  0  0  0  0  0
   35.9340   22.5090   39.0860 C   0  0  0  0  0  0  0  0  0  0  0  0
   36.0440   23.4860   40.2410 C   0  0  0  0  0  0  0  0  0  0  0  0
   40.1740   24.4230   44.0080 H   0  0  0  0  0  0  0  0  0  0  0  0
   39.1750   22.7760   42.2470 H   0  0  0  0  0  0  0  0  0  0  0  0
   37.3720   24.3490   38.2400 H   0  0  0  0  0  0  0  0  0  0  0  0
   39.0000   24.5300   39.0820 H   0  0  0  0  0  0  0  0  0  0  0  0
   38.6980   22.3460   37.7030 H   0  0  0  0  0  0  0  0  0  0  0  0
   39.2430   22.2090   39.4130 H   0  0  0  0  0  0  0  0  0  0  0  0
   37.2950   21.1890   40.0400 H   0  0  0  0  0  0  0  0  0  0  0  0
   37.0930   20.8390   38.3130 H   0  0  0  0  0  0  0  0  0  0  0  0
   35.0950   21.8010   39.3320 H   0  0  0  0  0  0  0  0  0  0  0  0
   35.7500   23.0250   38.1190 H   0  0  0  0  0  0  0  0  0  0  0  0
   35.3830   24.3450   40.0060 H   0  0  0  0  0  0  0  0  0  0  0  0
   35.6570   23.0280   41.1760 H   0  0  0  0  0  0  0  0  0  0  0  0
   39.2320   27.1380   43.6480 C   0  0  0  0  0  0  0  0  0  0  0  0
   40.3230   27.1100   43.9100 H   0  0  0  0  0  0  0  0  0  0  0  0
   38.6580   27.1780   44.5880 H   0  0  0  0  0  0  0  0  0  0  0  0
   37.9940   29.1090   42.8110 C   0  0  0  0  0  3  0  0  0  0  0  0
   39.0430   28.3180   42.7730 C   0  0  0  0  0  3  0  0  0  0  0  0
   37.9390   30.2380   41.8880 C   0  0  0  0  0  0  0  0  0  0  0  0
   36.7280   30.6470   41.2900 C   0  0  0  0  0  0  0  0  0  0  0  0
   36.7830   31.7330   40.4250 C   0  0  0  0  0  0  0  0  0  0  0  0
   37.9680   32.3520   40.1890 N   0  0  0  0  0  0  0  0  0  0  0  0
   39.1090   31.9390   40.7750 C   0  0  0  0  0  0  0  0  0  0  0  0
   39.0960   30.9060   41.6060 N   0  0  0  0  0  0  0  0  0  0  0  0
   35.8490   30.1010   41.5350 H   0  0  0  0  0  0  0  0  0  0  0  0
   35.8370   32.0190   39.9850 H   0  0  0  0  0  0  0  0  0  0  0  0
   40.2520   32.7290   40.3890 C   0  0  0  0  0  0  0  0  0  0  0  0
   40.3600   33.7420   39.5060 C   0  0  0  0  0  0  0  0  0  0  0  0
   39.4780   34.0600   38.9660 H   0  0  0  0  0  0  0  0  0  0  0  0
   41.5790   34.3470   39.3100 C   0  0  0  0  0  3  0  0  0  0  0  0
   42.6470   33.8480   40.0680 C   0  0  0  0  0  3  0  0  0  0  0  0
   41.8970   32.5090   41.0610 S   0  0  0  0  0  0  0  0  0  0  0  0
  1  2  2  0  0  0  0
  1 24  1  0  0  0  0
  2 12  1  0  0  0  0
  3  2  1  0  0  0  0
  4  5  2  0  0  0  0
  4  3  1  0  0  0  0
  5  1  1  0  0  0  0
  6  4  1  0  0  0  0
  7 15  1  0  0  0  0
  7  6  1  0  0  0  0
  8  7  1  0  0  0  0
  8  9  1  0  0  0  0
  8 17  1  0  0  0  0
  9 10  1  0  0  0  0
  9 18  1  0  0  0  0
 10 20  1  0  0  0  0
 10 11  1  0  0  0  0
 11  6  1  0  0  0  0
 11 23  1  0  0  0  0
 13  3  1  0  0  0  0
 14  7  1  0  0  0  0
 16  8  1  0  0  0  0
 19  9  1  0  0  0  0
 21 10  1  0  0  0  0
 22 11  1  0  0  0  0
 24 25  1  0  0  0  0
 24 26  1  0  0  0  0
 28 27  2  0  0  0  0
 28 24  1  0  0  0  0
 29 27  1  0  0  0  0
 30 35  1  0  0  0  0
 30 29  2  0  0  0  0
 31 30  1  0  0  0  0
 32 31  2  0  0  0  0
 32 33  1  0  0  0  0
 33 34  2  0  0  0  0
 34 29  1  0  0  0  0
 36 31  1  0  0  0  0
 37 33  1  0  0  0  0
 37 42  1  0  0  0  0
 38 37  2  0  0  0  0
 39 38  1  0  0  0  0
 40 38  1  0  0  0  0
 40 41  2  0  0  0  0
 41 42  1  0  0  0  0
M  END
>  <minimizedAffinity>
-5.63463593

$$$$

 OpenBabel03252504433D

 42 45  0  0  0  0  0  0  0  0999 V2000
   38.4010   32.0160   38.4810 C   0  0  0  0  0  0  0  0  0  0  0  0
   38.7070   31.9240   37.1560 C   0  0  0  0  0  0  0  0  0  0  0  0
   39.9920   32.2540   37.0400 N   0  0  0  0  0  0  0  0  0  0  0  0
   40.5170   32.5480   38.2250 C   0  0  0  0  0  0  0  0  0  0  0  0
   39.5110   32.3990   39.1410 N   0  0  0  0  0  0  0  0  0  0  0  0
   41.8350   32.9470   38.6160 N   0  0  0  0  0  0  0  0  0  0  0  0
   42.7960   31.8670   38.9350 C   0  0  0  0  0  0  0  0  0  0  0  0
   43.7170   31.7910   37.7240 C   0  0  0  0  0  0  0  0  0  0  0  0
   44.1780   33.1810   37.3410 C   0  0  0  0  0  0  0  0  0  0  0  0
   43.9380   34.1320   38.5030 C   0  0  0  0  0  0  0  0  0  0  0  0
   42.4470   34.2260   38.7690 C   0  0  0  0  0  0  0  0  0  0  0  0
   38.0170   31.6360   36.3640 H   0  0  0  0  0  0  0  0  0  0  0  0
   40.5360   32.2810   36.1440 H   0  0  0  0  0  0  0  0  0  0  0  0
   43.3900   32.1050   39.8310 H   0  0  0  0  0  0  0  0  0  0  0  0
   42.2760   30.8960   39.0030 H   0  0  0  0  0  0  0  0  0  0  0  0
   44.6210   31.1710   37.9150 H   0  0  0  0  0  0  0  0  0  0  0  0
   43.1680   31.3270   36.8640 H   0  0  0  0  0  0  0  0  0  0  0  0
   43.5680   33.5480   36.4960 H   0  0  0  0  0  0  0  0  0  0  0  0
   45.2230   33.1870   37.0250 H   0  0  0  0  0  0  0  0  0  0  0  0
   44.2710   35.1420   38.1350 H   0  0  0  0  0  0  0  0  0  0  0  0
   44.5050   33.8310   39.4100 H   0  0  0  0  0  0  0  0  0  0  0  0
   42.3240   34.5420   39.8250 H   0  0  0  0  0  0  0  0  0  0  0  0
   41.9890   35.0170   38.1400 H   0  0  0  0  0  0  0  0  0  0  0  0
   37.0810   31.7370   39.1030 C   0  0  0  0  0  0  0  0  0  0  0  0
   36.3580   31.6140   38.2530 H   0  0  0  0  0  0  0  0  0  0  0  0
   36.7480   32.5970   39.7070 H   0  0  0  0  0  0  0  0  0  0  0  0
   37.2530   30.3370   41.1340 C   0  0  0  0  0  3  0  0  0  0  0  0
   37.0890   30.4500   39.8340 C   0  0  0  0  0  3  0  0  0  0  0  0
   37.2390   29.0020   41.7240 C   0  0  0  0  0  0  0  0  0  0  0  0
   37.3290   28.8080   43.1190 C   0  0  0  0  0  0  0  0  0  0  0  0
   37.3060   27.4970   43.5800 C   0  0  0  0  0  0  0  0  0  0  0  0
   37.2020   26.4710   42.6980 N   0  0  0  0  0  0  0  0  0  0  0  0
   37.1190   26.6860   41.3700 C   0  0  0  0  0  0  0  0  0  0  0  0
   37.1360   27.9230   40.8930 N   0  0  0  0  0  0  0  0  0  0  0  0
   37.4070   29.6730   43.7320 H   0  0  0  0  0  0  0  0  0  0  0  0
   37.3770   27.3870   44.6540 H   0  0  0  0  0  0  0  0  0  0  0  0
   37.0160   25.4640   40.6120 C   0  0  0  0  0  0  0  0  0  0  0  0
   36.5480   24.2500   40.9650 C   0  0  0  0  0  0  0  0  0  0  0  0
   36.1730   24.1070   41.9700 H   0  0  0  0  0  0  0  0  0  0  0  0
   36.5550   23.2250   40.0480 C   0  0  0  0  0  3  0  0  0  0  0  0
   37.0640   23.5330   38.7790 C   0  0  0  0  0  3  0  0  0  0  0  0
   37.5330   25.2960   38.9060 S   0  0  0  0  0  0  0  0  0  0  0  0
  1 24  1  0  0  0  0
  1  5  1  0  0  0  0
  2  1  2  0  0  0  0
  3  2  1  0  0  0  0
  3  4  1  0  0  0  0
  4  6  1  0  0  0  0
  4  5  2  0  0  0  0
  6 11  1  0  0  0  0
  6  7  1  0  0  0  0
  7 15  1  0  0  0  0
  7 14  1  0  0  0  0
  8 16  1  0  0  0  0
  8  7  1  0  0  0  0
  9  8  1  0  0  0  0
  9 10  1  0  0  0  0
 10 11  1  0  0  0  0
 10 21  1  0  0  0  0
 11 22  1  0  0  0  0
 12  2  1  0  0  0  0
 13  3  1  0  0  0  0
 17  8  1  0  0  0  0
 18  9  1  0  0  0  0
 19  9  1  0  0  0  0
 20 10  1  0  0  0  0
 23 11  1  0  0  0  0
 24 26  1  0  0  0  0
 24 28  1  0  0  0  0
 25 24  1  0  0  0  0
 27 29  1  0  0  0  0
 28 27  2  0  0  0  0
 29 30  1  0  0  0  0
 30 31  2  0  0  0  0
 30 35  1  0  0  0  0
 31 36  1  0  0  0  0
 32 31  1  0  0  0  0
 33 32  2  0  0  0  0
 34 33  1  0  0  0  0
 34 29  2  0  0  0  0
 37 38  2  0  0  0  0
 37 33  1  0  0  0  0
 38 39  1  0  0  0  0
 40 38  1  0  0  0  0
 41 42  1  0  0  0  0
 41 40  2  0  0  0  0
 42 37  1  0  0  0  0
M  END
>  <minimizedAffinity>
-5.62920523

$$$$

 OpenBabel03252504433D

 42 45  0  0  0  0  0  0  0  0999 V2000
   38.7650   33.4220   39.9010 C   0  0  0  0  0  0  0  0  0  0  0  0
   39.3260   34.3480   40.7280 C   0  0  0  0  0  0  0  0  0  0  0  0
   40.6420   34.1410   40.6930 N   0  0  0  0  0  0  0  0  0  0  0  0
   40.9440   33.1310   39.8840 C   0  0  0  0  0  0  0  0  0  0  0  0
   39.7560   32.6720   39.3800 N   0  0  0  0  0  0  0  0  0  0  0  0
   42.1930   32.5390   39.5160 N   0  0  0  0  0  0  0  0  0  0  0  0
   42.8950   33.1230   38.3500 C   0  0  0  0  0  0  0  0  0  0  0  0
   44.0290   33.9470   38.9470 C   0  0  0  0  0  0  0  0  0  0  0  0
   44.7610   33.1330   39.9920 C   0  0  0  0  0  0  0  0  0  0  0  0
   44.4250   31.6610   39.8130 C   0  0  0  0  0  0  0  0  0  0  0  0
   42.9420   31.4550   40.0610 C   0  0  0  0  0  0  0  0  0  0  0  0
   38.7840   35.1020   41.2980 H   0  0  0  0  0  0  0  0  0  0  0  0
   41.3600   34.6910   41.2230 H   0  0  0  0  0  0  0  0  0  0  0  0
   43.3160   32.3420   37.6980 H   0  0  0  0  0  0  0  0  0  0  0  0
   42.2340   33.8280   37.8160 H   0  0  0  0  0  0  0  0  0  0  0  0
   44.7700   34.2680   38.1820 H   0  0  0  0  0  0  0  0  0  0  0  0
   43.6100   34.8740   39.4180 H   0  0  0  0  0  0  0  0  0  0  0  0
   44.4030   33.4230   40.9970 H   0  0  0  0  0  0  0  0  0  0  0  0
   45.8380   33.3070   39.9590 H   0  0  0  0  0  0  0  0  0  0  0  0
   44.9730   31.1280   40.6390 H   0  0  0  0  0  0  0  0  0  0  0  0
   44.7380   31.2810   38.8170 H   0  0  0  0  0  0  0  0  0  0  0  0
   42.6480   30.5290   39.5260 H   0  0  0  0  0  0  0  0  0  0  0  0
   42.7490   31.2790   41.1400 H   0  0  0  0  0  0  0  0  0  0  0  0
   37.3180   33.2610   39.6080 C   0  0  0  0  0  0  0  0  0  0  0  0
   37.1100   33.9060   38.7130 H   0  0  0  0  0  0  0  0  0  0  0  0
   36.7100   33.6400   40.4460 H   0  0  0  0  0  0  0  0  0  0  0  0
   36.5460   30.9490   40.0250 C   0  0  0  0  0  3  0  0  0  0  0  0
   36.9980   31.8730   39.2060 C   0  0  0  0  0  3  0  0  0  0  0  0
   36.2730   29.6190   39.4910 C   0  0  0  0  0  0  0  0  0  0  0  0
   35.6000   29.4370   38.2650 C   0  0  0  0  0  0  0  0  0  0  0  0
   35.3890   28.1290   37.8450 C   0  0  0  0  0  0  0  0  0  0  0  0
   35.8240   27.0940   38.6070 N   0  0  0  0  0  0  0  0  0  0  0  0
   36.4640   27.2980   39.7750 C   0  0  0  0  0  0  0  0  0  0  0  0
   36.6840   28.5320   40.2090 N   0  0  0  0  0  0  0  0  0  0  0  0
   35.2960   30.3080   37.7370 H   0  0  0  0  0  0  0  0  0  0  0  0
   34.8700   28.0280   36.9000 H   0  0  0  0  0  0  0  0  0  0  0  0
   36.8410   26.0680   40.4270 C   0  0  0  0  0  0  0  0  0  0  0  0
   37.1580   25.8190   41.7130 C   0  0  0  0  0  0  0  0  0  0  0  0
   37.1450   26.6360   42.4220 H   0  0  0  0  0  0  0  0  0  0  0  0
   37.4870   24.5400   42.0970 C   0  0  0  0  0  3  0  0  0  0  0  0
   37.4670   23.5660   41.0900 C   0  0  0  0  0  3  0  0  0  0  0  0
   36.9750   24.4900   39.5910 S   0  0  0  0  0  0  0  0  0  0  0  0
  1  2  2  0  0  0  0
  2 12  1  0  0  0  0
  3  2  1  0  0  0  0
  3 13  1  0  0  0  0
  4  3  1  0  0  0  0
  5  4  2  0  0  0  0
  5  1  1  0  0  0  0
  6  4  1  0  0  0  0
  6 11  1  0  0  0  0
  7  8  1  0  0  0  0
  7  6  1  0  0  0  0
  8 17  1  0  0  0  0
  8  9  1  0  0  0  0
  9 18  1  0  0  0  0
 10  9  1  0  0  0  0
 10 11  1  0  0  0  0
 10 20  1  0  0  0  0
 11 23  1  0  0  0  0
 14  7  1  0  0  0  0
 15  7  1  0  0  0  0
 16  8  1  0  0  0  0
 19  9  1  0  0  0  0
 21 10  1  0  0  0  0
 22 11  1  0  0  0  0
 24  1  1  0  0  0  0
 24 26  1  0  0  0  0
 25 24  1  0  0  0  0
 28 24  1  0  0  0  0
 28 27  2  0  0  0  0
 29 27  1  0  0  0  0
 29 34  1  0  0  0  0
 30 29  2  0  0  0  0
 31 30  1  0  0  0  0
 31 32  2  0  0  0  0
 32 33  1  0  0  0  0
 33 34  2  0  0  0  0
 33 37  1  0  0  0  0
 35 30  1  0  0  0  0
 36 31  1  0  0  0  0
 37 38  2  0  0  0  0
 38 40  1  0  0  0  0
 38 39  1  0  0  0  0
 41 40  2  0  0  0  0
 42 37  1  0  0  0  0
 42 41  1  0  0  0  0
M  END
>  <minimizedAffinity>
-5.48272467

$$$$

 OpenBabel03252504433D

 42 45  0  0  0  0  0  0  0  0999 V2000
   33.7110   28.1470   36.3550 C   0  0  0  0  0  0  0  0  0  0  0  0
   34.3990   28.8690   35.4280 C   0  0  0  0  0  0  0  0  0  0  0  0
   33.5130   29.6710   34.8380 N   0  0  0  0  0  0  0  0  0  0  0  0
   32.2980   29.4950   35.3470 C   0  0  0  0  0  0  0  0  0  0  0  0
   32.4190   28.5280   36.3090 N   0  0  0  0  0  0  0  0  0  0  0  0
   31.0390   30.1110   35.0560 N   0  0  0  0  0  0  0  0  0  0  0  0
   30.7080   31.3450   35.8040 C   0  0  0  0  0  0  0  0  0  0  0  0
   30.9280   32.4780   34.8080 C   0  0  0  0  0  0  0  0  0  0  0  0
   30.2630   32.1400   33.4920 C   0  0  0  0  0  0  0  0  0  0  0  0
   29.2550   31.0210   33.7060 C   0  0  0  0  0  0  0  0  0  0  0  0
   29.9870   29.7710   34.1560 C   0  0  0  0  0  0  0  0  0  0  0  0
   35.4660   28.7890   35.2240 H   0  0  0  0  0  0  0  0  0  0  0  0
   33.7260   30.3580   34.0740 H   0  0  0  0  0  0  0  0  0  0  0  0
   29.6580   31.3490   36.1340 H   0  0  0  0  0  0  0  0  0  0  0  0
   31.4250   31.5010   36.6290 H   0  0  0  0  0  0  0  0  0  0  0  0
   30.5100   33.4450   35.1650 H   0  0  0  0  0  0  0  0  0  0  0  0
   32.0270   32.6260   34.6470 H   0  0  0  0  0  0  0  0  0  0  0  0
   31.0220   31.7560   32.7870 H   0  0  0  0  0  0  0  0  0  0  0  0
   29.8000   33.0170   33.0360 H   0  0  0  0  0  0  0  0  0  0  0  0
   28.8300   30.8040   32.6860 H   0  0  0  0  0  0  0  0  0  0  0  0
   28.4540   31.3140   34.4170 H   0  0  0  0  0  0  0  0  0  0  0  0
   29.2550   29.1440   34.7030 H   0  0  0  0  0  0  0  0  0  0  0  0
   30.3250   29.1810   33.2780 H   0  0  0  0  0  0  0  0  0  0  0  0
   34.2740   27.1210   37.2710 C   0  0  0  0  0  0  0  0  0  0  0  0
   34.9170   26.4580   36.6330 H   0  0  0  0  0  0  0  0  0  0  0  0
   33.4700   26.5020   37.6990 H   0  0  0  0  0  0  0  0  0  0  0  0
   34.7820   28.5800   39.2020 C   0  0  0  0  0  3  0  0  0  0  0  0
   35.1730   27.7300   38.2780 C   0  0  0  0  0  3  0  0  0  0  0  0
   35.7780   29.1030   40.1320 C   0  0  0  0  0  0  0  0  0  0  0  0
   36.1600   28.3870   41.2870 C   0  0  0  0  0  0  0  0  0  0  0  0
   37.1170   28.9730   42.1080 C   0  0  0  0  0  0  0  0  0  0  0  0
   37.6390   30.1820   41.7840 N   0  0  0  0  0  0  0  0  0  0  0  0
   37.2540   30.8440   40.6740 C   0  0  0  0  0  0  0  0  0  0  0  0
   36.3440   30.3170   39.8660 N   0  0  0  0  0  0  0  0  0  0  0  0
   35.6970   27.4460   41.4580 H   0  0  0  0  0  0  0  0  0  0  0  0
   37.3860   28.3960   42.9830 H   0  0  0  0  0  0  0  0  0  0  0  0
   37.9290   32.1080   40.5150 C   0  0  0  0  0  0  0  0  0  0  0  0
   37.5080   33.2620   39.9610 C   0  0  0  0  0  0  0  0  0  0  0  0
   36.5090   33.3110   39.5490 H   0  0  0  0  0  0  0  0  0  0  0  0
   38.3510   34.3490   39.9300 C   0  0  0  0  0  3  0  0  0  0  0  0
   39.6200   34.1640   40.4950 C   0  0  0  0  0  3  0  0  0  0  0  0
   39.6010   32.4290   41.0700 S   0  0  0  0  0  0  0  0  0  0  0  0
  1 24  1  0  0  0  0
  2  1  2  0  0  0  0
  3  4  1  0  0  0  0
  3  2  1  0  0  0  0
  4  5  2  0  0  0  0
  5  1  1  0  0  0  0
  6  4  1  0  0  0  0
  6  7  1  0  0  0  0
  7 14  1  0  0  0  0
  7 15  1  0  0  0  0
  8 16  1  0  0  0  0
  8  7  1  0  0  0  0
  9 10  1  0  0  0  0
  9  8  1  0  0  0  0
 10 11  1  0  0  0  0
 10 21  1  0  0  0  0
 11 22  1  0  0  0  0
 11  6  1  0  0  0  0
 12  2  1  0  0  0  0
 13  3  1  0  0  0  0
 17  8  1  0  0  0  0
 18  9  1  0  0  0  0
 19  9  1  0  0  0  0
 20 10  1  0  0  0  0
 23 11  1  0  0  0  0
 24 26  1  0  0  0  0
 24 28  1  0  0  0  0
 25 24  1  0  0  0  0
 27 29  1  0  0  0  0
 28 27  2  0  0  0  0
 29 30  1  0  0  0  0
 30 35  1  0  0  0  0
 30 31  2  0  0  0  0
 31 36  1  0  0  0  0
 32 31  1  0  0  0  0
 33 32  2  0  0  0  0
 34 29  2  0  0  0  0
 34 33  1  0  0  0  0
 37 33  1  0  0  0  0
 37 42  1  0  0  0  0
 38 37  2  0  0  0  0
 39 38  1  0  0  0  0
 40 38  1  0  0  0  0
 40 41  2  0  0  0  0
 41 42  1  0  0  0  0
M  END
>  <minimizedAffinity>
-5.42223358

$$$$

 OpenBabel03252504433D

 42 45  0  0  0  0  0  0  0  0999 V2000
   37.5050   31.9020   40.3630 C   0  0  0  0  0  0  0  0  0  0  0  0
   37.2420   32.9700   39.5590 C   0  0  0  0  0  0  0  0  0  0  0  0
   38.4210   33.4420   39.1570 N   0  0  0  0  0  0  0  0  0  0  0  0
   39.4190   32.7260   39.6650 C   0  0  0  0  0  0  0  0  0  0  0  0
   38.8420   31.7500   40.4310 N   0  0  0  0  0  0  0  0  0  0  0  0
   40.8390   32.8310   39.5280 N   0  0  0  0  0  0  0  0  0  0  0  0
   41.4600   32.1040   38.3970 C   0  0  0  0  0  0  0  0  0  0  0  0
   41.7800   33.1800   37.3670 C   0  0  0  0  0  0  0  0  0  0  0  0
   42.4720   34.3460   38.0400 C   0  0  0  0  0  0  0  0  0  0  0  0
   42.9990   33.9060   39.3970 C   0  0  0  0  0  0  0  0  0  0  0  0
   41.8310   33.5220   40.2850 C   0  0  0  0  0  0  0  0  0  0  0  0
   36.2510   33.3470   39.3080 H   0  0  0  0  0  0  0  0  0  0  0  0
   38.5640   34.2650   38.5230 H   0  0  0  0  0  0  0  0  0  0  0  0
   42.3910   31.6010   38.7010 H   0  0  0  0  0  0  0  0  0  0  0  0
   40.7280   31.4220   37.9290 H   0  0  0  0  0  0  0  0  0  0  0  0
   42.4460   32.8090   36.5570 H   0  0  0  0  0  0  0  0  0  0  0  0
   40.8310   33.5330   36.8860 H   0  0  0  0  0  0  0  0  0  0  0  0
   41.7350   35.1480   38.2280 H   0  0  0  0  0  0  0  0  0  0  0  0
   43.2640   34.7620   37.4150 H   0  0  0  0  0  0  0  0  0  0  0  0
   43.4660   34.8260   39.8480 H   0  0  0  0  0  0  0  0  0  0  0  0
   43.7430   33.0850   39.3070 H   0  0  0  0  0  0  0  0  0  0  0  0
   42.2220   32.8260   41.0550 H   0  0  0  0  0  0  0  0  0  0  0  0
   41.4410   34.4120   40.8220 H   0  0  0  0  0  0  0  0  0  0  0  0
   36.5030   31.0430   41.0460 C   0  0  0  0  0  0  0  0  0  0  0  0
   35.7350   30.7870   40.2680 H   0  0  0  0  0  0  0  0  0  0  0  0
   35.9970   31.6030   41.8500 H   0  0  0  0  0  0  0  0  0  0  0  0
   36.9810   28.6270   40.8260 C   0  0  0  0  0  3  0  0  0  0  0  0
   37.0990   29.7600   41.4830 C   0  0  0  0  0  3  0  0  0  0  0  0
   37.6220   27.4350   41.3740 C   0  0  0  0  0  0  0  0  0  0  0  0
   36.8900   26.2590   41.6440 C   0  0  0  0  0  0  0  0  0  0  0  0
   37.5950   25.1800   42.1640 C   0  0  0  0  0  0  0  0  0  0  0  0
   38.9290   25.2870   42.3910 N   0  0  0  0  0  0  0  0  0  0  0  0
   39.6010   26.4240   42.1230 C   0  0  0  0  0  0  0  0  0  0  0  0
   38.9630   27.4750   41.6260 N   0  0  0  0  0  0  0  0  0  0  0  0
   35.8490   26.2690   41.4330 H   0  0  0  0  0  0  0  0  0  0  0  0
   37.0020   24.2950   42.3580 H   0  0  0  0  0  0  0  0  0  0  0  0
   41.0050   26.3280   42.4370 C   0  0  0  0  0  0  0  0  0  0  0  0
   41.6730   25.4470   43.2080 C   0  0  0  0  0  0  0  0  0  0  0  0
   41.1200   24.6580   43.6990 H   0  0  0  0  0  0  0  0  0  0  0  0
   43.0360   25.5660   43.3530 C   0  0  0  0  0  3  0  0  0  0  0  0
   43.6410   26.6270   42.6670 C   0  0  0  0  0  3  0  0  0  0  0  0
   42.2510   27.4530   41.8130 S   0  0  0  0  0  0  0  0  0  0  0  0
  1  5  1  0  0  0  0
  1 24  1  0  0  0  0
  2  1  2  0  0  0  0
  3  2  1  0  0  0  0
  3  4  1  0  0  0  0
  4  5  2  0  0  0  0
  6  4  1  0  0  0  0
  6 11  1  0  0  0  0
  7 14  1  0  0  0  0
  7  6  1  0  0  0  0
  8  9  1  0  0  0  0
  8  7  1  0  0  0  0
  9 18  1  0  0  0  0
  9 10  1  0  0  0  0
 10 20  1  0  0  0  0
 10 11  1  0  0  0  0
 11 23  1  0  0  0  0
 11 22  1  0  0  0  0
 12  2  1  0  0  0  0
 13  3  1  0  0  0  0
 15  7  1  0  0  0  0
 16  8  1  0  0  0  0
 17  8  1  0  0  0  0
 19  9  1  0  0  0  0
 21 10  1  0  0  0  0
 24 28  1  0  0  0  0
 24 26  1  0  0  0  0
 25 24  1  0  0  0  0
 27 29  1  0  0  0  0
 27 28  2  0  0  0  0
 29 34  2  0  0  0  0
 29 30  1  0  0  0  0
 30 31  2  0  0  0  0
 31 36  1  0  0  0  0
 31 32  1  0  0  0  0
 33 32  2  0  0  0  0
 33 37  1  0  0  0  0
 34 33  1  0  0  0  0
 35 30  1  0  0  0  0
 37 38  2  0  0  0  0
 38 40  1  0  0  0  0
 38 39  1  0  0  0  0
 41 40  2  0  0  0  0
 42 37  1  0  0  0  0
 42 41  1  0  0  0  0
M  END
>  <minimizedAffinity>
-5.40543509

$$$$
