
 OpenBabel03252506263D

 42 46  0  0  0  0  0  0  0  0999 V2000
   45.5710   30.2850   48.7190 C   0  0  0  0  0  0  0  0  0  0  0  0
   45.6400   29.8720   49.7700 H   0  0  0  0  0  0  0  0  0  0  0  0
   44.8090   31.0870   48.7880 H   0  0  0  0  0  0  0  0  0  0  0  0
   45.4380   27.8450   47.9040 C   0  0  0  0  0  0  0  0  0  0  0  0
   45.1230   29.1960   47.8660 C   0  0  0  0  0  0  0  0  0  0  0  0
   44.2540   29.5770   46.8690 C   0  0  0  0  0  0  0  0  0  0  0  0
   43.7220   28.6920   45.9560 C   0  0  0  0  0  0  0  0  0  0  0  0
   42.8770   28.7750   44.9160 N   0  0  0  0  0  0  0  0  0  0  0  0
   42.6780   27.5850   44.3500 C   0  0  0  0  0  0  0  0  0  0  0  0
   43.4170   26.6490   45.0290 C   0  0  0  0  0  0  0  0  0  0  0  0
   44.0500   27.3490   46.0120 C   0  0  0  0  0  0  0  0  0  0  0  0
   44.9120   26.9510   46.9960 C   0  0  0  0  0  0  0  0  0  0  0  0
   46.1180   27.6760   48.7190 H   0  0  0  0  0  0  0  0  0  0  0  0
   43.9120   30.5890   46.7070 H   0  0  0  0  0  0  0  0  0  0  0  0
   42.4290   29.6820   44.5930 H   0  0  0  0  0  0  0  0  0  0  0  0
   42.0340   27.4340   43.4970 H   0  0  0  0  0  0  0  0  0  0  0  0
   43.3960   25.6320   44.7350 H   0  0  0  0  0  0  0  0  0  0  0  0
   45.3810   25.6020   47.2210 C   0  0  0  0  0  0  0  0  0  0  0  0
   45.0880   24.6840   48.1180 C   0  0  0  0  0  0  0  0  0  0  0  0
   44.4130   24.6950   48.9360 H   0  0  0  0  0  0  0  0  0  0  0  0
   45.6480   23.4570   48.1390 C   0  0  0  0  0  3  0  0  0  0  0  0
   46.5950   23.1720   47.1370 C   0  0  0  0  0  3  0  0  0  0  0  0
   46.5730   24.8030   46.2160 S   0  0  0  0  0  0  0  0  0  0  0  0
   46.8960   30.8760   48.4140 C   0  0  0  0  0  0  0  0  0  0  0  0
   47.0790   31.6880   49.1630 H   0  0  0  0  0  0  0  0  0  0  0  0
   47.6880   30.1350   48.4750 H   0  0  0  0  0  0  0  0  0  0  0  0
   46.4230   32.9320   45.5230 C   0  0  0  0  0  0  0  0  0  0  0  0
   47.2200   31.8960   45.0120 C   0  0  0  0  0  0  0  0  0  0  0  0
   47.4910   31.0180   46.0090 C   0  0  0  0  0  0  0  0  0  0  0  0
   46.8810   31.4940   47.0970 N   0  0  0  0  0  0  0  0  0  0  0  0
   46.2360   32.6440   46.8210 N   0  0  0  0  0  0  0  0  0  0  0  0
   47.5900   31.7690   43.9960 H   0  0  0  0  0  0  0  0  0  0  0  0
   48.0770   30.1020   45.9740 H   0  0  0  0  0  0  0  0  0  0  0  0
   44.5120   35.8830   44.5540 C   0  0  0  0  0  0  0  0  0  0  0  0
   44.9940   36.1930   43.2930 C   0  0  0  0  0  0  0  0  0  0  0  0
   45.9880   35.3750   42.7770 C   0  0  0  0  0  0  0  0  0  0  0  0
   46.4200   34.3310   43.5340 N   0  0  0  0  0  0  0  0  0  0  0  0
   45.9340   34.0600   44.7450 C   0  0  0  0  0  0  0  0  0  0  0  0
   44.9800   34.8400   45.2500 N   0  0  0  0  0  0  0  0  0  0  0  0
   43.7390   36.5320   44.9390 H   0  0  0  0  0  0  0  0  0  0  0  0
   44.6630   37.0080   42.6930 H   0  0  0  0  0  0  0  0  0  0  0  0
   46.4660   35.4740   41.8270 H   0  0  0  0  0  0  0  0  0  0  0  0
  1  3  1  0  0  0  0
  1  2  1  0  0  0  0
  4 13  1  0  0  0  0
  5  4  1  0  0  0  0
  5  1  1  0  0  0  0
  6  5  2  0  0  0  0
  7 11  2  0  0  0  0
  7  6  1  0  0  0  0
  8  7  1  0  0  0  0
  9  8  1  0  0  0  0
  9 10  2  0  0  0  0
 10 11  1  0  0  0  0
 11 12  1  0  0  0  0
 12 18  1  0  0  0  0
 12  4  2  0  0  0  0
 14  6  1  0  0  0  0
 15  8  1  0  0  0  0
 16  9  1  0  0  0  0
 17 10  1  0  0  0  0
 18 19  2  0  0  0  0
 19 21  1  0  0  0  0
 19 20  1  0  0  0  0
 22 21  2  0  0  0  0
 23 22  1  0  0  0  0
 23 18  1  0  0  0  0
 24 26  1  0  0  0  0
 24  1  1  0  0  0  0
 24 25  1  0  0  0  0
 27 31  2  0  0  0  0
 28 27  1  0  0  0  0
 28 29  2  0  0  0  0
 29 30  1  0  0  0  0
 30 24  1  0  0  0  0
 31 30  1  0  0  0  0
 32 28  1  0  0  0  0
 33 29  1  0  0  0  0
 34 40  1  0  0  0  0
 34 39  1  0  0  0  0
 35 34  2  0  0  0  0
 36 35  1  0  0  0  0
 36 37  2  0  0  0  0
 37 38  1  0  0  0  0
 38 39  2  0  0  0  0
 38 27  1  0  0  0  0
 41 35  1  0  0  0  0
 42 36  1  0  0  0  0
M  END
>  <minimizedAffinity>
-5.37678528

>  <minimizedRMSD>
0.95098877

$$$$
