
 OpenBabel03242518133D

 28 30  0  0  0  0  0  0  0  0999 V2000
   48.3450   33.9080   42.6650 C   0  0  0  0  0  0  0  0  0  0  0  0
   49.0050   34.2020   43.5160 H   0  0  0  0  0  0  0  0  0  0  0  0
   47.4920   33.3360   43.0980 H   0  0  0  0  0  0  0  0  0  0  0  0
   49.0870   33.1150   41.7480 C   0  0  0  0  0  0  0  0  0  0  0  0
   48.8550   32.4530   40.4960 C   0  0  0  0  0  0  0  0  0  0  0  0
   49.8510   31.7650   39.8860 C   0  0  0  0  0  0  0  0  0  0  0  0
   51.1360   31.7360   40.5600 C   0  0  0  0  0  0  0  0  0  0  0  0
   50.9080   32.6970   42.0630 S   0  0  0  0  0  0  0  0  0  0  0  0
   47.8530   32.5780   40.1450 H   0  0  0  0  0  0  0  0  0  0  0  0
   49.7040   31.2620   38.9500 H   0  0  0  0  0  0  0  0  0  0  0  0
   52.2970   31.1200   40.1680 C   0  0  0  0  0  0  0  0  0  0  0  0
   53.0620   31.2520   39.0340 C   0  0  0  0  0  0  0  0  0  0  0  0
   52.7330   31.9550   38.2840 H   0  0  0  0  0  0  0  0  0  0  0  0
   54.1990   30.5190   38.8620 C   0  0  0  0  0  0  0  0  0  0  0  0
   54.5350   29.5930   39.9640 C   0  0  0  0  0  0  0  0  0  0  0  0
   53.1290   29.8760   41.1930 S   0  0  0  0  0  0  0  0  0  0  0  0
   47.7570   35.1880   42.1280 C   0  0  0  0  0  0  0  0  0  0  0  0
   48.0430   36.0340   42.8120 H   0  0  0  0  0  0  0  0  0  0  0  0
   48.1760   35.4280   41.1580 H   0  0  0  0  0  0  0  0  0  0  0  0
   46.3110   35.0850   42.1270 C   0  0  0  0  0  0  0  0  0  0  0  0
   45.5290   35.6310   43.1450 C   0  0  0  0  0  0  0  0  0  0  0  0
   44.1470   35.4940   43.0780 C   0  0  0  0  0  0  0  0  0  0  0  0
   43.6260   34.8360   42.0280 N   0  0  0  0  0  0  0  0  0  0  0  0
   44.3980   34.3170   41.0570 C   0  0  0  0  0  0  0  0  0  0  0  0
   45.7250   34.4370   41.1020 N   0  0  0  0  0  0  0  0  0  0  0  0
   45.9750   36.1570   43.9790 H   0  0  0  0  0  0  0  0  0  0  0  0
   43.4740   35.8830   43.8160 H   0  0  0  0  0  0  0  0  0  0  0  0
   43.9330   33.7850   40.2140 H   0  0  0  0  0  0  0  0  0  0  0  0
  1  3  1  0  0  0  0
  1  2  1  0  0  0  0
  4  8  1  0  0  0  0
  4  1  1  0  0  0  0
  5  4  2  0  0  0  0
  6  5  1  0  0  0  0
  6  7  2  0  0  0  0
  7  8  1  0  0  0  0
  9  5  1  0  0  0  0
 10  6  1  0  0  0  0
 11  7  1  0  0  0  0
 11 16  1  0  0  0  0
 12 11  2  0  0  0  0
 13 12  1  0  0  0  0
 14 12  1  0  0  0  0
 14 15  2  0  0  0  0
 15 16  1  0  0  0  0
 17  1  1  0  0  0  0
 17 18  1  0  0  0  0
 19 17  1  0  0  0  0
 20 17  1  0  0  0  0
 20 21  1  0  0  0  0
 21 26  1  0  0  0  0
 22 21  2  0  0  0  0
 22 27  1  0  0  0  0
 23 22  1  0  0  0  0
 24 25  1  0  0  0  0
 24 23  2  0  0  0  0
 25 20  2  0  0  0  0
 28 24  1  0  0  0  0
M  END
>  <minimizedAffinity>
-3.99712515

>  <minimizedRMSD>
1.15079796

$$$$
