
 OpenBabel03252504423D

 42 45  0  0  0  0  0  0  0  0999 V2000
   46.4220   32.1910   47.7680 C   0  0  0  0  0  0  0  0  0  0  0  0
   45.9550   31.8380   48.9990 C   0  0  0  0  0  0  0  0  0  0  0  0
   46.9310   31.1540   49.5930 N   0  0  0  0  0  0  0  0  0  0  0  0
   47.9940   31.0560   48.8020 C   0  0  0  0  0  0  0  0  0  0  0  0
   47.6750   31.7110   47.6440 N   0  0  0  0  0  0  0  0  0  0  0  0
   49.2700   30.4340   48.9850 N   0  0  0  0  0  0  0  0  0  0  0  0
   50.3360   31.2580   49.6010 C   0  0  0  0  0  0  0  0  0  0  0  0
   50.4410   30.7540   51.0360 C   0  0  0  0  0  0  0  0  0  0  0  0
   50.4960   29.2420   51.0470 C   0  0  0  0  0  0  0  0  0  0  0  0
   50.8550   28.7390   49.6570 C   0  0  0  0  0  0  0  0  0  0  0  0
   49.7550   29.1270   48.6870 C   0  0  0  0  0  0  0  0  0  0  0  0
   44.9700   32.0800   49.3970 H   0  0  0  0  0  0  0  0  0  0  0  0
   46.8870   30.7410   50.5570 H   0  0  0  0  0  0  0  0  0  0  0  0
   51.3020   31.1160   49.0930 H   0  0  0  0  0  0  0  0  0  0  0  0
   50.0230   32.3150   49.6560 H   0  0  0  0  0  0  0  0  0  0  0  0
   51.3490   31.1340   51.5540 H   0  0  0  0  0  0  0  0  0  0  0  0
   49.5510   31.1020   51.6200 H   0  0  0  0  0  0  0  0  0  0  0  0
   49.4930   28.8420   51.2820 H   0  0  0  0  0  0  0  0  0  0  0  0
   51.1890   28.8680   51.8020 H   0  0  0  0  0  0  0  0  0  0  0  0
   50.8430   27.6160   49.7350 H   0  0  0  0  0  0  0  0  0  0  0  0
   51.8510   29.1050   49.3270 H   0  0  0  0  0  0  0  0  0  0  0  0
   50.2070   29.1500   47.6740 H   0  0  0  0  0  0  0  0  0  0  0  0
   48.9610   28.3510   48.6680 H   0  0  0  0  0  0  0  0  0  0  0  0
   45.6920   32.9730   46.7380 C   0  0  0  0  0  0  0  0  0  0  0  0
   45.5450   33.9970   47.1740 H   0  0  0  0  0  0  0  0  0  0  0  0
   44.6960   32.5370   46.5550 H   0  0  0  0  0  0  0  0  0  0  0  0
   46.1550   33.8990   44.4920 C   0  0  0  0  0  3  0  0  0  0  0  0
   46.5080   33.1530   45.5160 C   0  0  0  0  0  3  0  0  0  0  0  0
   47.0590   33.9860   43.3500 C   0  0  0  0  0  0  0  0  0  0  0  0
   46.9800   35.0470   42.4230 C   0  0  0  0  0  0  0  0  0  0  0  0
   47.8880   35.0380   41.3700 C   0  0  0  0  0  0  0  0  0  0  0  0
   48.7980   34.0360   41.2680 N   0  0  0  0  0  0  0  0  0  0  0  0
   48.8500   33.0350   42.1700 C   0  0  0  0  0  0  0  0  0  0  0  0
   48.0000   33.0100   43.1870 N   0  0  0  0  0  0  0  0  0  0  0  0
   46.2350   35.7870   42.5840 H   0  0  0  0  0  0  0  0  0  0  0  0
   47.7980   35.8650   40.6790 H   0  0  0  0  0  0  0  0  0  0  0  0
   49.8850   32.0750   41.8790 C   0  0  0  0  0  0  0  0  0  0  0  0
   50.6790   31.3620   42.7030 C   0  0  0  0  0  0  0  0  0  0  0  0
   50.5660   31.4860   43.7710 H   0  0  0  0  0  0  0  0  0  0  0  0
   51.6070   30.4970   42.1750 C   0  0  0  0  0  3  0  0  0  0  0  0
   51.6590   30.4230   40.7760 C   0  0  0  0  0  3  0  0  0  0  0  0
   50.3710   31.5960   40.2220 S   0  0  0  0  0  0  0  0  0  0  0  0
  1  2  2  0  0  0  0
  2 12  1  0  0  0  0
  2  3  1  0  0  0  0
  3 13  1  0  0  0  0
  4  6  1  0  0  0  0
  4  3  1  0  0  0  0
  5  1  1  0  0  0  0
  5  4  2  0  0  0  0
  6  7  1  0  0  0  0
  7 15  1  0  0  0  0
  7  8  1  0  0  0  0
  8  9  1  0  0  0  0
  8 16  1  0  0  0  0
  8 17  1  0  0  0  0
  9 18  1  0  0  0  0
  9 19  1  0  0  0  0
 10 20  1  0  0  0  0
 10  9  1  0  0  0  0
 11  6  1  0  0  0  0
 11 10  1  0  0  0  0
 14  7  1  0  0  0  0
 21 10  1  0  0  0  0
 22 11  1  0  0  0  0
 23 11  1  0  0  0  0
 24 25  1  0  0  0  0
 24  1  1  0  0  0  0
 26 24  1  0  0  0  0
 27 28  2  0  0  0  0
 28 24  1  0  0  0  0
 29 27  1  0  0  0  0
 30 35  1  0  0  0  0
 30 29  2  0  0  0  0
 31 30  1  0  0  0  0
 32 31  2  0  0  0  0
 32 33  1  0  0  0  0
 33 34  2  0  0  0  0
 34 29  1  0  0  0  0
 36 31  1  0  0  0  0
 37 33  1  0  0  0  0
 37 38  2  0  0  0  0
 38 39  1  0  0  0  0
 40 38  1  0  0  0  0
 41 40  2  0  0  0  0
 42 41  1  0  0  0  0
 42 37  1  0  0  0  0
M  END
>  <minimizedAffinity>
-5.82466984

>  <minimizedRMSD>
0.501751184

$$$$
