
 OpenBabel03252504423D

 42 45  0  0  0  0  0  0  0  0999 V2000
   46.4230   32.1910   47.7690 C   0  0  0  0  0  0  0  0  0  0  0  0
   45.9550   31.8370   48.9980 C   0  0  0  0  0  0  0  0  0  0  0  0
   46.9320   31.1520   49.5930 N   0  0  0  0  0  0  0  0  0  0  0  0
   47.9950   31.0550   48.8020 C   0  0  0  0  0  0  0  0  0  0  0  0
   47.6760   31.7120   47.6440 N   0  0  0  0  0  0  0  0  0  0  0  0
   49.2710   30.4340   48.9850 N   0  0  0  0  0  0  0  0  0  0  0  0
   50.3360   31.2570   49.6020 C   0  0  0  0  0  0  0  0  0  0  0  0
   50.4410   30.7510   51.0360 C   0  0  0  0  0  0  0  0  0  0  0  0
   50.4960   29.2390   51.0450 C   0  0  0  0  0  0  0  0  0  0  0  0
   50.8560   28.7380   49.6550 C   0  0  0  0  0  0  0  0  0  0  0  0
   49.7570   29.1270   48.6850 C   0  0  0  0  0  0  0  0  0  0  0  0
   44.9700   32.0770   49.3970 H   0  0  0  0  0  0  0  0  0  0  0  0
   46.8870   30.7370   50.5550 H   0  0  0  0  0  0  0  0  0  0  0  0
   51.3030   31.1160   49.0950 H   0  0  0  0  0  0  0  0  0  0  0  0
   50.0230   32.3140   49.6580 H   0  0  0  0  0  0  0  0  0  0  0  0
   51.3480   31.1300   51.5560 H   0  0  0  0  0  0  0  0  0  0  0  0
   49.5500   31.0980   51.6210 H   0  0  0  0  0  0  0  0  0  0  0  0
   49.4930   28.8380   51.2790 H   0  0  0  0  0  0  0  0  0  0  0  0
   51.1890   28.8640   51.8000 H   0  0  0  0  0  0  0  0  0  0  0  0
   50.8450   27.6150   49.7310 H   0  0  0  0  0  0  0  0  0  0  0  0
   51.8520   29.1050   49.3260 H   0  0  0  0  0  0  0  0  0  0  0  0
   50.2090   29.1520   47.6720 H   0  0  0  0  0  0  0  0  0  0  0  0
   48.9630   28.3510   48.6640 H   0  0  0  0  0  0  0  0  0  0  0  0
   45.6930   32.9750   46.7390 C   0  0  0  0  0  0  0  0  0  0  0  0
   45.5440   33.9980   47.1770 H   0  0  0  0  0  0  0  0  0  0  0  0
   44.6980   32.5380   46.5540 H   0  0  0  0  0  0  0  0  0  0  0  0
   46.1470   33.8870   44.4860 C   0  0  0  0  0  3  0  0  0  0  0  0
   46.5110   33.1590   45.5190 C   0  0  0  0  0  3  0  0  0  0  0  0
   47.0540   33.9810   43.3470 C   0  0  0  0  0  0  0  0  0  0  0  0
   46.9780   35.0460   42.4250 C   0  0  0  0  0  0  0  0  0  0  0  0
   47.8880   35.0430   41.3750 C   0  0  0  0  0  0  0  0  0  0  0  0
   48.7980   34.0410   41.2700 N   0  0  0  0  0  0  0  0  0  0  0  0
   48.8470   33.0350   42.1660 C   0  0  0  0  0  0  0  0  0  0  0  0
   47.9960   33.0050   43.1810 N   0  0  0  0  0  0  0  0  0  0  0  0
   46.2320   35.7850   42.5890 H   0  0  0  0  0  0  0  0  0  0  0  0
   47.8000   35.8740   40.6880 H   0  0  0  0  0  0  0  0  0  0  0  0
   49.8840   32.0770   41.8720 C   0  0  0  0  0  0  0  0  0  0  0  0
   50.6810   31.3680   42.6950 C   0  0  0  0  0  0  0  0  0  0  0  0
   50.5730   31.4940   43.7630 H   0  0  0  0  0  0  0  0  0  0  0  0
   51.6090   30.5040   42.1630 C   0  0  0  0  0  3  0  0  0  0  0  0
   51.6560   30.4260   40.7650 C   0  0  0  0  0  3  0  0  0  0  0  0
   50.3650   31.5960   40.2140 S   0  0  0  0  0  0  0  0  0  0  0  0
  1  2  2  0  0  0  0
  2 12  1  0  0  0  0
  2  3  1  0  0  0  0
  3 13  1  0  0  0  0
  4  6  1  0  0  0  0
  4  3  1  0  0  0  0
  5  1  1  0  0  0  0
  5  4  2  0  0  0  0
  6  7  1  0  0  0  0
  7 15  1  0  0  0  0
  7  8  1  0  0  0  0
  8  9  1  0  0  0  0
  8 16  1  0  0  0  0
  8 17  1  0  0  0  0
  9 18  1  0  0  0  0
  9 19  1  0  0  0  0
 10 20  1  0  0  0  0
 10  9  1  0  0  0  0
 11  6  1  0  0  0  0
 11 10  1  0  0  0  0
 14  7  1  0  0  0  0
 21 10  1  0  0  0  0
 22 11  1  0  0  0  0
 23 11  1  0  0  0  0
 24 25  1  0  0  0  0
 24  1  1  0  0  0  0
 26 24  1  0  0  0  0
 27 28  2  0  0  0  0
 28 24  1  0  0  0  0
 29 27  1  0  0  0  0
 30 35  1  0  0  0  0
 30 29  2  0  0  0  0
 31 30  1  0  0  0  0
 32 31  2  0  0  0  0
 32 33  1  0  0  0  0
 33 34  2  0  0  0  0
 34 29  1  0  0  0  0
 36 31  1  0  0  0  0
 37 33  1  0  0  0  0
 37 38  2  0  0  0  0
 38 39  1  0  0  0  0
 40 38  1  0  0  0  0
 41 40  2  0  0  0  0
 42 41  1  0  0  0  0
 42 37  1  0  0  0  0
M  END
>  <minimizedAffinity>
-5.82585526

>  <minimizedRMSD>
0.458610952

$$$$
