
 OpenBabel03252504383D

 27 29  0  0  0  0  0  0  0  0999 V2000
   45.2910   33.1390   47.4120 C   0  0  0  0  0  0  0  0  0  0  0  0
   44.2900   32.6430   47.3910 H   0  0  0  0  0  0  0  0  0  0  0  0
   45.2610   34.1300   47.8640 H   0  0  0  0  0  0  0  0  0  0  0  0
   46.2250   32.2630   48.1880 C   0  0  0  0  0  0  0  0  0  0  0  0
   45.8760   31.3230   49.1490 C   0  0  0  0  0  0  0  0  0  0  0  0
   47.0440   30.7960   49.5590 N   0  0  0  0  0  0  0  0  0  0  0  0
   48.0780   31.3460   48.9180 C   0  0  0  0  0  0  0  0  0  0  0  0
   47.5570   32.2490   48.0770 N   0  0  0  0  0  0  0  0  0  0  0  0
   44.8860   31.0720   49.4900 H   0  0  0  0  0  0  0  0  0  0  0  0
   47.1080   30.0380   50.3010 H   0  0  0  0  0  0  0  0  0  0  0  0
   49.4580   31.0150   49.1140 C   0  0  0  0  0  0  0  0  0  0  0  0
   50.1940   29.9420   48.7880 C   0  0  0  0  0  0  0  0  0  0  0  0
   49.6920   29.1350   48.2730 H   0  0  0  0  0  0  0  0  0  0  0  0
   51.5260   29.9170   49.1180 C   0  0  0  0  0  0  0  0  0  0  0  0
   52.0390   31.0230   49.7800 C   0  0  0  0  0  0  0  0  0  0  0  0
   50.6050   32.1160   49.9350 S   0  0  0  0  0  0  0  0  0  0  0  0
   45.3250   34.2570   45.2210 C   0  0  0  0  0  0  0  0  0  0  0  0
   45.8120   33.3170   46.0280 C   0  0  0  0  0  0  0  0  0  0  0  0
   45.9290   34.3250   43.8770 C   0  0  0  0  0  0  0  0  0  0  0  0
   45.1250   34.6310   42.7430 C   0  0  0  0  0  0  0  0  0  0  0  0
   45.7540   34.6780   41.5090 C   0  0  0  0  0  0  0  0  0  0  0  0
   47.0840   34.4360   41.4330 N   0  0  0  0  0  0  0  0  0  0  0  0
   47.8340   34.1440   42.5250 C   0  0  0  0  0  0  0  0  0  0  0  0
   47.2420   34.0970   43.7160 N   0  0  0  0  0  0  0  0  0  0  0  0
   44.0780   34.8080   42.9100 H   0  0  0  0  0  0  0  0  0  0  0  0
   45.1450   34.9110   40.6440 H   0  0  0  0  0  0  0  0  0  0  0  0
   48.8960   33.9500   42.4640 H   0  0  0  0  0  0  0  0  0  0  0  0
  1  3  1  0  0  0  0
  1  4  1  0  0  0  0
  2  1  1  0  0  0  0
  4  5  2  0  0  0  0
  5  9  1  0  0  0  0
  5  6  1  0  0  0  0
  6 10  1  0  0  0  0
  7 11  1  0  0  0  0
  7  6  1  0  0  0  0
  8  4  1  0  0  0  0
  8  7  2  0  0  0  0
 11 16  1  0  0  0  0
 12 11  2  0  0  0  0
 12 14  1  0  0  0  0
 13 12  1  0  0  0  0
 14 15  2  0  0  0  0
 15 16  1  0  0  0  0
 17 18  2  0  0  0  0
 18  1  1  0  0  0  0
 19 17  1  0  0  0  0
 20 25  1  0  0  0  0
 20 19  2  0  0  0  0
 21 20  1  0  0  0  0
 22 21  2  0  0  0  0
 22 23  1  0  0  0  0
 23 24  2  0  0  0  0
 24 19  1  0  0  0  0
 26 21  1  0  0  0  0
 27 23  1  0  0  0  0
M  END
>  <minimizedAffinity>
-5.24169016

>  <minimizedRMSD>
8.32579708

$$$$
