
 OpenBabel03242517413D

 37 40  0  0  0  0  0  0  0  0999 V2000
   39.8470   35.0840   39.9890 C   0  0  0  0  0  0  0  0  0  0  0  0
   39.4130   35.0150   40.9930 H   0  0  0  0  0  0  0  0  0  0  0  0
   39.5770   36.0620   39.5210 H   0  0  0  0  0  0  0  0  0  0  0  0
   39.3010   34.0110   39.1300 C   0  0  0  0  0  0  0  0  0  0  0  0
   38.5550   34.3230   38.0210 C   0  0  0  0  0  0  0  0  0  0  0  0
   38.0630   33.3650   37.1450 C   0  0  0  0  0  0  0  0  0  0  0  0
   38.3300   32.0320   37.3880 C   0  0  0  0  0  0  0  0  0  0  0  0
   39.0890   31.7070   38.5160 C   0  0  0  0  0  0  0  0  0  0  0  0
   39.5640   32.7040   39.3750 C   0  0  0  0  0  0  0  0  0  0  0  0
   38.3580   35.3800   37.8500 H   0  0  0  0  0  0  0  0  0  0  0  0
   37.4920   33.7500   36.3190 H   0  0  0  0  0  0  0  0  0  0  0  0
   37.9330   31.3350   36.6890 H   0  0  0  0  0  0  0  0  0  0  0  0
   39.2320   30.6370   38.5980 H   0  0  0  0  0  0  0  0  0  0  0  0
   40.2010   32.0930   40.5430 C   0  0  0  0  0  0  0  0  0  0  0  0
   39.7040   31.9250   41.9200 C   0  0  0  0  0  0  0  0  0  0  0  0
   38.7740   32.2660   42.3200 H   0  0  0  0  0  0  0  0  0  0  0  0
   40.5530   31.2230   42.7080 C   0  0  0  0  0  0  0  0  0  0  0  0
   41.7580   30.6890   42.3550 C   0  0  0  0  0  0  0  0  0  0  0  0
   41.7500   31.2590   40.5520 S   0  0  0  0  0  0  0  0  0  0  0  0
   41.9500   35.0750   41.2940 C   0  0  0  0  0  0  0  0  0  0  0  0
   41.3390   34.9930   40.1240 C   0  0  0  0  0  0  0  0  0  0  0  0
   44.0310   35.5710   42.5800 C   0  0  0  0  0  0  0  0  0  0  0  0
   43.3760   34.9790   41.4760 C   0  0  0  0  0  0  0  0  0  0  0  0
   44.1560   34.2960   40.5680 C   0  0  0  0  0  0  0  0  0  0  0  0
   45.5130   34.2160   40.7590 N   0  0  0  0  0  0  0  0  0  0  0  0
   46.0930   34.8060   41.8400 C   0  0  0  0  0  0  0  0  0  0  0  0
   45.3660   35.4730   42.7380 N   0  0  0  0  0  0  0  0  0  0  0  0
   43.4310   36.1110   43.3030 H   0  0  0  0  0  0  0  0  0  0  0  0
   43.7540   33.8100   39.6950 H   0  0  0  0  0  0  0  0  0  0  0  0
   47.5230   34.7240   42.0570 C   0  0  0  0  0  0  0  0  0  0  0  0
   48.4860   35.6290   41.8760 C   0  0  0  0  0  0  0  0  0  0  0  0
   49.7910   35.3420   42.1550 C   0  0  0  0  0  0  0  0  0  0  0  0
   50.0200   34.0210   42.6450 C   0  0  0  0  0  0  0  0  0  0  0  0
   48.3300   33.2620   42.6730 S   0  0  0  0  0  0  0  0  0  0  0  0
   48.2220   36.6130   41.4990 H   0  0  0  0  0  0  0  0  0  0  0  0
   50.6440   35.9690   42.0560 H   0  0  0  0  0  0  0  0  0  0  0  0
   50.9370   33.5650   42.9310 H   0  0  0  0  0  0  0  0  0  0  0  0
  1 21  1  0  0  0  0
  1  2  1  0  0  0  0
  3  1  1  0  0  0  0
  4  9  1  0  0  0  0
  4  1  1  0  0  0  0
  5  4  2  0  0  0  0
  6  7  2  0  0  0  0
  6  5  1  0  0  0  0
  7  8  1  0  0  0  0
  8 13  1  0  0  0  0
  8  9  2  0  0  0  0
  9 14  1  0  0  0  0
 10  5  1  0  0  0  0
 11  6  1  0  0  0  0
 12  7  1  0  0  0  0
 14 19  1  0  0  0  0
 14 15  2  0  0  0  0
 15 16  1  0  0  0  0
 15 17  1  0  0  0  0
 18 17  2  0  0  0  0
 19 18  1  0  0  0  0
 20 23  1  0  0  0  0
 21 20  2  0  0  0  0
 22 27  1  0  0  0  0
 22 28  1  0  0  0  0
 23 22  2  0  0  0  0
 24 25  2  0  0  0  0
 24 23  1  0  0  0  0
 25 26  1  0  0  0  0
 26 30  1  0  0  0  0
 26 27  2  0  0  0  0
 29 24  1  0  0  0  0
 30 34  1  0  0  0  0
 31 30  2  0  0  0  0
 31 32  1  0  0  0  0
 32 33  2  0  0  0  0
 33 34  1  0  0  0  0
 33 37  1  0  0  0  0
 35 31  1  0  0  0  0
 36 32  1  0  0  0  0
M  END
>  <minimizedAffinity>
-6.63194799

>  <minimizedRMSD>
4.49518681

$$$$
