
 OpenBabel03242515063D

 36 38  0  0  0  0  0  0  0  0999 V2000
   37.3310   29.6320   42.0640 S   0  0  0  0  0  0  0  0  0  0  0  0
   37.5670   30.0960   40.3490 C   0  0  0  0  0  0  0  0  0  0  0  0
   36.6110   29.6310   39.4330 C   0  0  0  0  0  0  0  0  0  0  0  0
   36.7670   29.9750   38.0980 C   0  0  0  0  0  0  0  0  0  0  0  0
   37.8140   30.7300   37.7350 N   0  0  0  0  0  0  0  0  0  0  0  0
   38.7390   31.1770   38.6290 C   0  0  0  0  0  0  0  0  0  0  0  0
   38.5840   30.8440   39.9140 N   0  0  0  0  0  0  0  0  0  0  0  0
   35.7950   29.0330   39.7780 H   0  0  0  0  0  0  0  0  0  0  0  0
   35.7960   29.4980   37.1980 C   0  0  0  0  0  0  0  0  0  0  0  0
   34.5520   29.0680   37.4210 C   0  0  0  0  0  0  0  0  0  0  0  0
   33.9890   28.9800   38.3390 H   0  0  0  0  0  0  0  0  0  0  0  0
   33.6670   28.6250   36.5290 C   0  0  0  0  0  3  0  0  0  0  0  0
   34.2180   28.6510   35.1680 C   0  0  0  0  0  3  0  0  0  0  0  0
   35.9920   29.3420   35.4430 S   0  0  0  0  0  0  0  0  0  0  0  0
   39.8190   31.9800   38.1200 C   0  0  0  0  0  0  0  0  0  0  0  0
   40.7190   32.3240   38.9250 O   0  0  0  0  0  0  0  0  0  0  0  0
   39.7940   32.3280   36.7340 N   0  0  0  0  0  0  0  0  0  0  0  0
   40.0450   32.0350   35.7650 H   0  0  0  0  0  0  0  0  0  0  0  0
   39.3540   33.2590   36.4930 H   0  0  0  0  0  0  0  0  0  0  0  0
   38.6920   28.6780   42.7250 C   0  0  0  0  0  0  0  0  0  0  0  0
   39.2790   28.2670   41.8680 H   0  0  0  0  0  0  0  0  0  0  0  0
   39.3900   29.3270   43.3010 H   0  0  0  0  0  0  0  0  0  0  0  0
   38.2650   27.5550   43.6110 C   0  0  0  0  0  0  0  0  0  0  0  0
   38.8470   27.4630   44.5520 H   0  0  0  0  0  0  0  0  0  0  0  0
   37.2170   27.7850   43.9360 H   0  0  0  0  0  0  0  0  0  0  0  0
   40.7330   25.7910   43.7140 Cl  0  0  0  0  0  0  0  0  0  0  0  0
   39.2900   25.3940   42.8350 C   0  0  0  0  0  0  0  0  0  0  0  0
   38.2090   26.2780   42.8550 C   0  0  0  0  0  0  0  0  0  0  0  0
   37.1040   25.8940   42.1350 C   0  0  0  0  0  0  0  0  0  0  0  0
   36.9550   24.7220   41.3960 C   0  0  0  0  0  0  0  0  0  0  0  0
   38.0490   23.8750   41.4040 C   0  0  0  0  0  0  0  0  0  0  0  0
   37.9500   22.3690   40.4960 Cl  0  0  0  0  0  0  0  0  0  0  0  0
   39.1800   24.2140   42.1090 C   0  0  0  0  0  0  0  0  0  0  0  0
   36.2450   26.5640   42.1320 H   0  0  0  0  0  0  0  0  0  0  0  0
   36.0300   24.5290   40.8670 H   0  0  0  0  0  0  0  0  0  0  0  0
   40.0090   23.5050   42.0770 H   0  0  0  0  0  0  0  0  0  0  0  0
  1 20  1  0  0  0  0
  2  1  1  0  0  0  0
  3  8  1  0  0  0  0
  3  2  2  0  0  0  0
  4  3  1  0  0  0  0
  5  4  2  0  0  0  0
  5  6  1  0  0  0  0
  6  7  2  0  0  0  0
  7  2  1  0  0  0  0
  9 10  2  0  0  0  0
  9  4  1  0  0  0  0
 10 11  1  0  0  0  0
 12 10  1  0  0  0  0
 13 14  1  0  0  0  0
 13 12  2  0  0  0  0
 14  9  1  0  0  0  0
 15  6  1  0  0  0  0
 15 16  2  0  0  0  0
 17 15  1  0  0  0  0
 18 17  1  0  0  0  0
 19 17  1  0  0  0  0
 20 22  1  0  0  0  0
 20 23  1  0  0  0  0
 21 20  1  0  0  0  0
 23 25  1  0  0  0  0
 23 24  1  0  0  0  0
 27 28  1  0  0  0  0
 27 26  1  0  0  0  0
 28 23  1  0  0  0  0
 29 28  2  0  0  0  0
 30 31  2  0  0  0  0
 30 29  1  0  0  0  0
 31 33  1  0  0  0  0
 32 31  1  0  0  0  0
 33 27  2  0  0  0  0
 34 29  1  0  0  0  0
 35 30  1  0  0  0  0
 36 33  1  0  0  0  0
M  END
>  <minimizedAffinity>
-5.91512156

$$$$

 OpenBabel03242515063D

 36 38  0  0  0  0  0  0  0  0999 V2000
   36.2110   28.8880   41.0750 S   0  0  0  0  0  0  0  0  0  0  0  0
   37.2990   30.1090   40.3400 C   0  0  0  0  0  0  0  0  0  0  0  0
   38.3120   29.6260   39.4970 C   0  0  0  0  0  0  0  0  0  0  0  0
   39.1680   30.5480   38.9140 C   0  0  0  0  0  0  0  0  0  0  0  0
   38.9990   31.8530   39.1730 N   0  0  0  0  0  0  0  0  0  0  0  0
   38.0140   32.3150   39.9910 C   0  0  0  0  0  0  0  0  0  0  0  0
   37.1910   31.4230   40.5510 N   0  0  0  0  0  0  0  0  0  0  0  0
   38.3990   28.5740   39.3270 H   0  0  0  0  0  0  0  0  0  0  0  0
   40.1760   30.0400   38.0730 C   0  0  0  0  0  0  0  0  0  0  0  0
   40.3280   28.8220   37.5490 C   0  0  0  0  0  0  0  0  0  0  0  0
   39.7220   27.9330   37.6420 H   0  0  0  0  0  0  0  0  0  0  0  0
   41.3050   28.3890   36.7540 C   0  0  0  0  0  3  0  0  0  0  0  0
   42.2820   29.4500   36.4780 C   0  0  0  0  0  3  0  0  0  0  0  0
   41.5740   30.9440   37.4630 S   0  0  0  0  0  0  0  0  0  0  0  0
   37.9330   33.7370   40.1930 C   0  0  0  0  0  0  0  0  0  0  0  0
   37.1620   34.3890   39.4450 O   0  0  0  0  0  0  0  0  0  0  0  0
   38.7320   34.3100   41.2300 N   0  0  0  0  0  0  0  0  0  0  0  0
   38.7940   34.5420   42.2450 H   0  0  0  0  0  0  0  0  0  0  0  0
   39.6780   34.6830   40.9400 H   0  0  0  0  0  0  0  0  0  0  0  0
   36.8570   28.1990   42.5940 C   0  0  0  0  0  0  0  0  0  0  0  0
   37.8370   28.6900   42.8110 H   0  0  0  0  0  0  0  0  0  0  0  0
   36.1900   28.4400   43.4540 H   0  0  0  0  0  0  0  0  0  0  0  0
   37.0460   26.7190   42.5520 C   0  0  0  0  0  0  0  0  0  0  0  0
   36.3450   26.1470   43.1950 H   0  0  0  0  0  0  0  0  0  0  0  0
   36.8120   26.3980   41.5050 H   0  0  0  0  0  0  0  0  0  0  0  0
   37.8910   23.8870   41.8610 Cl  0  0  0  0  0  0  0  0  0  0  0  0
   38.9580   25.0860   42.5220 C   0  0  0  0  0  0  0  0  0  0  0  0
   38.4650   26.3620   42.8050 C   0  0  0  0  0  0  0  0  0  0  0  0
   39.3690   27.2550   43.3260 C   0  0  0  0  0  0  0  0  0  0  0  0
   40.7150   27.0170   43.5990 C   0  0  0  0  0  0  0  0  0  0  0  0
   41.1600   25.7410   43.3040 C   0  0  0  0  0  0  0  0  0  0  0  0
   42.8500   25.3500   43.6160 Cl  0  0  0  0  0  0  0  0  0  0  0  0
   40.2950   24.8100   42.7800 C   0  0  0  0  0  0  0  0  0  0  0  0
   39.0130   28.2580   43.5560 H   0  0  0  0  0  0  0  0  0  0  0  0
   41.3310   27.8050   44.0120 H   0  0  0  0  0  0  0  0  0  0  0  0
   40.7060   23.8220   42.5690 H   0  0  0  0  0  0  0  0  0  0  0  0
  1 20  1  0  0  0  0
  2  7  1  0  0  0  0
  2  1  1  0  0  0  0
  3  2  2  0  0  0  0
  4  5  2  0  0  0  0
  4  3  1  0  0  0  0
  5  6  1  0  0  0  0
  6 15  1  0  0  0  0
  6  7  2  0  0  0  0
  8  3  1  0  0  0  0
  9  4  1  0  0  0  0
 10 11  1  0  0  0  0
 10  9  2  0  0  0  0
 12 10  1  0  0  0  0
 13 12  2  0  0  0  0
 13 14  1  0  0  0  0
 14  9  1  0  0  0  0
 15 17  1  0  0  0  0
 16 15  2  0  0  0  0
 17 18  1  0  0  0  0
 19 17  1  0  0  0  0
 20 21  1  0  0  0  0
 20 22  1  0  0  0  0
 23 20  1  0  0  0  0
 23 28  1  0  0  0  0
 23 24  1  0  0  0  0
 25 23  1  0  0  0  0
 26 27  1  0  0  0  0
 27 33  2  0  0  0  0
 27 28  1  0  0  0  0
 28 29  2  0  0  0  0
 29 34  1  0  0  0  0
 29 30  1  0  0  0  0
 30 35  1  0  0  0  0
 31 30  2  0  0  0  0
 31 32  1  0  0  0  0
 33 31  1  0  0  0  0
 36 33  1  0  0  0  0
M  END
>  <minimizedAffinity>
-5.76643324

$$$$

 OpenBabel03242515063D

 36 38  0  0  0  0  0  0  0  0999 V2000
   36.7090   28.9630   41.3040 S   0  0  0  0  0  0  0  0  0  0  0  0
   37.8520   30.3420   41.2300 C   0  0  0  0  0  0  0  0  0  0  0  0
   39.1270   30.1340   41.7790 C   0  0  0  0  0  0  0  0  0  0  0  0
   40.0330   31.1830   41.7360 C   0  0  0  0  0  0  0  0  0  0  0  0
   39.6630   32.3450   41.1780 N   0  0  0  0  0  0  0  0  0  0  0  0
   38.4240   32.5410   40.6470 C   0  0  0  0  0  0  0  0  0  0  0  0
   37.5540   31.5260   40.6910 N   0  0  0  0  0  0  0  0  0  0  0  0
   39.3680   29.1870   42.2110 H   0  0  0  0  0  0  0  0  0  0  0  0
   41.3050   30.9520   42.2910 C   0  0  0  0  0  0  0  0  0  0  0  0
   41.7910   29.8750   42.9130 C   0  0  0  0  0  0  0  0  0  0  0  0
   41.3310   28.9250   43.1420 H   0  0  0  0  0  0  0  0  0  0  0  0
   43.0090   29.7050   43.4240 C   0  0  0  0  0  3  0  0  0  0  0  0
   43.8440   30.8980   43.2300 C   0  0  0  0  0  3  0  0  0  0  0  0
   42.6590   32.0970   42.3040 S   0  0  0  0  0  0  0  0  0  0  0  0
   38.1430   33.8310   40.0760 C   0  0  0  0  0  0  0  0  0  0  0  0
   38.9650   34.7550   40.2920 O   0  0  0  0  0  0  0  0  0  0  0  0
   36.9490   33.9710   39.3020 N   0  0  0  0  0  0  0  0  0  0  0  0
   36.5140   33.8690   38.3600 H   0  0  0  0  0  0  0  0  0  0  0  0
   36.0950   34.3190   39.8180 H   0  0  0  0  0  0  0  0  0  0  0  0
   36.7310   28.1180   42.8800 C   0  0  0  0  0  0  0  0  0  0  0  0
   37.5450   28.5640   43.5040 H   0  0  0  0  0  0  0  0  0  0  0  0
   35.7810   28.2900   43.4360 H   0  0  0  0  0  0  0  0  0  0  0  0
   36.9460   26.6450   42.7710 C   0  0  0  0  0  0  0  0  0  0  0  0
   36.3190   26.0360   43.4540 H   0  0  0  0  0  0  0  0  0  0  0  0
   36.6260   26.3520   41.7380 H   0  0  0  0  0  0  0  0  0  0  0  0
   38.0730   24.7050   40.7260 Cl  0  0  0  0  0  0  0  0  0  0  0  0
   39.0080   25.4330   41.9940 C   0  0  0  0  0  0  0  0  0  0  0  0
   38.3890   26.3140   42.8840 C   0  0  0  0  0  0  0  0  0  0  0  0
   39.1950   26.8480   43.8600 C   0  0  0  0  0  0  0  0  0  0  0  0
   40.5530   26.6010   44.0490 C   0  0  0  0  0  0  0  0  0  0  0  0
   41.1250   25.7230   43.1450 C   0  0  0  0  0  0  0  0  0  0  0  0
   42.8400   25.3510   43.3080 Cl  0  0  0  0  0  0  0  0  0  0  0  0
   40.3620   25.1600   42.1500 C   0  0  0  0  0  0  0  0  0  0  0  0
   38.7400   27.5390   44.5680 H   0  0  0  0  0  0  0  0  0  0  0  0
   41.0850   27.0840   44.8590 H   0  0  0  0  0  0  0  0  0  0  0  0
   40.8700   24.4760   41.4690 H   0  0  0  0  0  0  0  0  0  0  0  0
  1 20  1  0  0  0  0
  2  1  1  0  0  0  0
  2  3  1  0  0  0  0
  3  8  1  0  0  0  0
  4  3  2  0  0  0  0
  4  9  1  0  0  0  0
  5  4  1  0  0  0  0
  6  7  1  0  0  0  0
  6  5  2  0  0  0  0
  7  2  2  0  0  0  0
  9 14  1  0  0  0  0
  9 10  2  0  0  0  0
 10 11  1  0  0  0  0
 10 12  1  0  0  0  0
 13 12  2  0  0  0  0
 14 13  1  0  0  0  0
 15 16  2  0  0  0  0
 15  6  1  0  0  0  0
 17 19  1  0  0  0  0
 17 15  1  0  0  0  0
 18 17  1  0  0  0  0
 20 22  1  0  0  0  0
 20 21  1  0  0  0  0
 23 20  1  0  0  0  0
 23 28  1  0  0  0  0
 23 24  1  0  0  0  0
 25 23  1  0  0  0  0
 26 27  1  0  0  0  0
 27 33  2  0  0  0  0
 27 28  1  0  0  0  0
 28 29  2  0  0  0  0
 29 30  1  0  0  0  0
 29 34  1  0  0  0  0
 30 35  1  0  0  0  0
 31 32  1  0  0  0  0
 31 30  2  0  0  0  0
 33 31  1  0  0  0  0
 36 33  1  0  0  0  0
M  END
>  <minimizedAffinity>
-5.71879196

$$$$

 OpenBabel03242515063D

 36 38  0  0  0  0  0  0  0  0999 V2000
   39.1050   30.0660   42.7190 S   0  0  0  0  0  0  0  0  0  0  0  0
   39.7990   30.9100   41.2980 C   0  0  0  0  0  0  0  0  0  0  0  0
   40.9400   31.6960   41.5250 C   0  0  0  0  0  0  0  0  0  0  0  0
   41.4980   32.3600   40.4440 C   0  0  0  0  0  0  0  0  0  0  0  0
   40.9370   32.2290   39.2340 N   0  0  0  0  0  0  0  0  0  0  0  0
   39.8300   31.4650   39.0190 C   0  0  0  0  0  0  0  0  0  0  0  0
   39.2940   30.8260   40.0640 N   0  0  0  0  0  0  0  0  0  0  0  0
   41.3450   31.7630   42.5120 H   0  0  0  0  0  0  0  0  0  0  0  0
   42.6410   33.1410   40.6970 C   0  0  0  0  0  0  0  0  0  0  0  0
   42.8430   34.1080   41.5960 C   0  0  0  0  0  0  0  0  0  0  0  0
   42.1850   34.5250   42.3430 H   0  0  0  0  0  0  0  0  0  0  0  0
   43.9500   34.8220   41.7950 C   0  0  0  0  0  3  0  0  0  0  0  0
   45.0190   34.4250   40.8690 C   0  0  0  0  0  3  0  0  0  0  0  0
   44.1880   33.0320   39.8360 S   0  0  0  0  0  0  0  0  0  0  0  0
   39.3180   31.4020   37.6760 C   0  0  0  0  0  0  0  0  0  0  0  0
   38.5020   30.4870   37.4060 O   0  0  0  0  0  0  0  0  0  0  0  0
   39.7720   32.3860   36.7430 N   0  0  0  0  0  0  0  0  0  0  0  0
   39.6260   33.3450   36.3600 H   0  0  0  0  0  0  0  0  0  0  0  0
   40.6010   32.1170   36.1460 H   0  0  0  0  0  0  0  0  0  0  0  0
   37.9270   28.7960   42.2730 C   0  0  0  0  0  0  0  0  0  0  0  0
   36.9230   29.2750   42.1640 H   0  0  0  0  0  0  0  0  0  0  0  0
   38.1740   28.3560   41.2790 H   0  0  0  0  0  0  0  0  0  0  0  0
   37.8370   27.6840   43.2640 C   0  0  0  0  0  0  0  0  0  0  0  0
   38.5320   27.7760   44.1250 H   0  0  0  0  0  0  0  0  0  0  0  0
   36.8100   27.7360   43.7100 H   0  0  0  0  0  0  0  0  0  0  0  0
   40.2690   25.9960   43.9350 Cl  0  0  0  0  0  0  0  0  0  0  0  0
   39.0250   25.5110   42.8270 C   0  0  0  0  0  0  0  0  0  0  0  0
   37.9460   26.3660   42.5890 C   0  0  0  0  0  0  0  0  0  0  0  0
   37.0030   25.9120   41.6990 C   0  0  0  0  0  0  0  0  0  0  0  0
   37.0160   24.6970   41.0170 C   0  0  0  0  0  0  0  0  0  0  0  0
   38.1020   23.8820   41.2820 C   0  0  0  0  0  0  0  0  0  0  0  0
   38.2010   22.3250   40.4640 Cl  0  0  0  0  0  0  0  0  0  0  0  0
   39.0740   24.2900   42.1650 C   0  0  0  0  0  0  0  0  0  0  0  0
   36.1500   26.5570   41.4940 H   0  0  0  0  0  0  0  0  0  0  0  0
   36.2110   24.4490   40.3370 H   0  0  0  0  0  0  0  0  0  0  0  0
   39.9050   23.6030   42.3320 H   0  0  0  0  0  0  0  0  0  0  0  0
  2  3  1  0  0  0  0
  2  1  1  0  0  0  0
  3  8  1  0  0  0  0
  4  9  1  0  0  0  0
  4  3  2  0  0  0  0
  5  4  1  0  0  0  0
  6  5  2  0  0  0  0
  6  7  1  0  0  0  0
  7  2  2  0  0  0  0
  9 10  2  0  0  0  0
 10 12  1  0  0  0  0
 10 11  1  0  0  0  0
 13 12  2  0  0  0  0
 14  9  1  0  0  0  0
 14 13  1  0  0  0  0
 15  6  1  0  0  0  0
 16 15  2  0  0  0  0
 17 15  1  0  0  0  0
 18 17  1  0  0  0  0
 19 17  1  0  0  0  0
 20  1  1  0  0  0  0
 20 23  1  0  0  0  0
 21 20  1  0  0  0  0
 22 20  1  0  0  0  0
 23 25  1  0  0  0  0
 23 24  1  0  0  0  0
 27 26  1  0  0  0  0
 28 27  1  0  0  0  0
 28 23  1  0  0  0  0
 29 28  2  0  0  0  0
 30 31  2  0  0  0  0
 30 29  1  0  0  0  0
 31 33  1  0  0  0  0
 32 31  1  0  0  0  0
 33 36  1  0  0  0  0
 33 27  2  0  0  0  0
 34 29  1  0  0  0  0
 35 30  1  0  0  0  0
M  END
>  <minimizedAffinity>
-5.63177204

$$$$

 OpenBabel03242515063D

 36 38  0  0  0  0  0  0  0  0999 V2000
   40.7910   30.0850   42.5340 S   0  0  0  0  0  0  0  0  0  0  0  0
   39.5210   30.6890   41.4210 C   0  0  0  0  0  0  0  0  0  0  0  0
   38.7460   29.7210   40.7640 C   0  0  0  0  0  0  0  0  0  0  0  0
   37.7560   30.1590   39.8970 C   0  0  0  0  0  0  0  0  0  0  0  0
   37.5760   31.4760   39.7200 N   0  0  0  0  0  0  0  0  0  0  0  0
   38.3320   32.4100   40.3610 C   0  0  0  0  0  0  0  0  0  0  0  0
   39.2850   31.9840   41.1960 N   0  0  0  0  0  0  0  0  0  0  0  0
   38.9330   28.6840   40.9430 H   0  0  0  0  0  0  0  0  0  0  0  0
   36.9920   29.1710   39.2500 C   0  0  0  0  0  0  0  0  0  0  0  0
   37.0490   27.8400   39.3410 C   0  0  0  0  0  0  0  0  0  0  0  0
   37.6910   27.2000   39.9270 H   0  0  0  0  0  0  0  0  0  0  0  0
   36.2980   26.9430   38.7030 C   0  0  0  0  0  3  0  0  0  0  0  0
   35.3210   27.5920   37.8190 C   0  0  0  0  0  3  0  0  0  0  0  0
   35.6850   29.4620   38.0870 S   0  0  0  0  0  0  0  0  0  0  0  0
   38.0460   33.7940   40.0900 C   0  0  0  0  0  0  0  0  0  0  0  0
   38.7650   34.6580   40.6500 O   0  0  0  0  0  0  0  0  0  0  0  0
   36.9640   34.0890   39.2030 N   0  0  0  0  0  0  0  0  0  0  0  0
   36.6720   34.2170   38.2100 H   0  0  0  0  0  0  0  0  0  0  0  0
   36.0250   34.2680   39.6530 H   0  0  0  0  0  0  0  0  0  0  0  0
   41.0580   28.3220   42.4000 C   0  0  0  0  0  0  0  0  0  0  0  0
   40.7110   27.9920   41.3900 H   0  0  0  0  0  0  0  0  0  0  0  0
   42.1440   28.0800   42.4520 H   0  0  0  0  0  0  0  0  0  0  0  0
   40.3540   27.5250   43.4480 C   0  0  0  0  0  0  0  0  0  0  0  0
   41.0260   26.9730   44.1370 H   0  0  0  0  0  0  0  0  0  0  0  0
   39.8090   28.2600   44.0950 H   0  0  0  0  0  0  0  0  0  0  0  0
   37.4510   28.2710   43.9280 Cl  0  0  0  0  0  0  0  0  0  0  0  0
   37.9610   26.8980   42.9960 C   0  0  0  0  0  0  0  0  0  0  0  0
   39.3250   26.6450   42.8370 C   0  0  0  0  0  0  0  0  0  0  0  0
   39.6490   25.5410   42.0870 C   0  0  0  0  0  0  0  0  0  0  0  0
   38.7610   24.6570   41.4760 C   0  0  0  0  0  0  0  0  0  0  0  0
   37.4210   24.9460   41.6590 C   0  0  0  0  0  0  0  0  0  0  0  0
   36.2260   23.8820   40.9210 Cl  0  0  0  0  0  0  0  0  0  0  0  0
   37.0430   26.0400   42.4010 C   0  0  0  0  0  0  0  0  0  0  0  0
   40.7060   25.3190   41.9460 H   0  0  0  0  0  0  0  0  0  0  0  0
   39.1380   23.8170   40.9070 H   0  0  0  0  0  0  0  0  0  0  0  0
   35.9720   26.2140   42.5090 H   0  0  0  0  0  0  0  0  0  0  0  0
  2  1  1  0  0  0  0
  3  8  1  0  0  0  0
  3  2  2  0  0  0  0
  4  3  1  0  0  0  0
  5  4  2  0  0  0  0
  5  6  1  0  0  0  0
  6  7  2  0  0  0  0
  7  2  1  0  0  0  0
  9 10  2  0  0  0  0
  9  4  1  0  0  0  0
 10 11  1  0  0  0  0
 12 10  1  0  0  0  0
 13 14  1  0  0  0  0
 13 12  2  0  0  0  0
 14  9  1  0  0  0  0
 15  6  1  0  0  0  0
 15 16  2  0  0  0  0
 17 19  1  0  0  0  0
 17 15  1  0  0  0  0
 18 17  1  0  0  0  0
 20 22  1  0  0  0  0
 20  1  1  0  0  0  0
 20 23  1  0  0  0  0
 21 20  1  0  0  0  0
 23 25  1  0  0  0  0
 23 24  1  0  0  0  0
 27 26  1  0  0  0  0
 28 27  1  0  0  0  0
 28 23  1  0  0  0  0
 29 28  2  0  0  0  0
 30 31  2  0  0  0  0
 30 29  1  0  0  0  0
 31 33  1  0  0  0  0
 32 31  1  0  0  0  0
 33 36  1  0  0  0  0
 33 27  2  0  0  0  0
 34 29  1  0  0  0  0
 35 30  1  0  0  0  0
M  END
>  <minimizedAffinity>
-5.61943674

$$$$

 OpenBabel03242515063D

 36 38  0  0  0  0  0  0  0  0999 V2000
   40.6060   29.0320   42.3130 S   0  0  0  0  0  0  0  0  0  0  0  0
   40.1290   30.3860   41.2390 C   0  0  0  0  0  0  0  0  0  0  0  0
   41.1690   31.0960   40.6190 C   0  0  0  0  0  0  0  0  0  0  0  0
   40.8300   32.1490   39.7820 C   0  0  0  0  0  0  0  0  0  0  0  0
   39.5360   32.4470   39.5970 N   0  0  0  0  0  0  0  0  0  0  0  0
   38.5310   31.7540   40.2010 C   0  0  0  0  0  0  0  0  0  0  0  0
   38.8630   30.7400   41.0070 N   0  0  0  0  0  0  0  0  0  0  0  0
   42.1840   30.8140   40.8030 H   0  0  0  0  0  0  0  0  0  0  0  0
   41.8890   32.8460   39.1720 C   0  0  0  0  0  0  0  0  0  0  0  0
   41.9000   33.6110   38.0780 C   0  0  0  0  0  0  0  0  0  0  0  0
   41.1060   33.8800   37.3970 H   0  0  0  0  0  0  0  0  0  0  0  0
   42.9350   34.2520   37.5370 C   0  0  0  0  0  3  0  0  0  0  0  0
   44.1650   34.0310   38.3090 C   0  0  0  0  0  3  0  0  0  0  0  0
   43.5700   32.8860   39.7350 S   0  0  0  0  0  0  0  0  0  0  0  0
   37.1820   32.1670   39.9250 C   0  0  0  0  0  0  0  0  0  0  0  0
   36.3100   31.2710   39.8060 O   0  0  0  0  0  0  0  0  0  0  0  0
   36.9250   33.5690   39.8070 N   0  0  0  0  0  0  0  0  0  0  0  0
   36.7000   34.4510   40.3140 H   0  0  0  0  0  0  0  0  0  0  0  0
   36.9550   33.9690   38.8280 H   0  0  0  0  0  0  0  0  0  0  0  0
   39.2200   28.2970   43.1710 C   0  0  0  0  0  0  0  0  0  0  0  0
   38.9780   28.9370   44.0550 H   0  0  0  0  0  0  0  0  0  0  0  0
   38.3100   28.2950   42.5280 H   0  0  0  0  0  0  0  0  0  0  0  0
   39.4690   26.8990   43.6300 C   0  0  0  0  0  0  0  0  0  0  0  0
   40.5370   26.6540   43.8050 H   0  0  0  0  0  0  0  0  0  0  0  0
   38.9780   26.8000   44.6320 H   0  0  0  0  0  0  0  0  0  0  0  0
   36.4440   27.0520   43.4290 Cl  0  0  0  0  0  0  0  0  0  0  0  0
   37.4200   25.9070   42.5620 C   0  0  0  0  0  0  0  0  0  0  0  0
   38.8060   25.9230   42.7280 C   0  0  0  0  0  0  0  0  0  0  0  0
   39.5090   24.9860   42.0100 C   0  0  0  0  0  0  0  0  0  0  0  0
   38.9820   24.0320   41.1420 C   0  0  0  0  0  0  0  0  0  0  0  0
   37.6050   24.0520   41.0080 C   0  0  0  0  0  0  0  0  0  0  0  0
   36.8510   22.8800   39.9300 Cl  0  0  0  0  0  0  0  0  0  0  0  0
   36.8550   24.9690   41.7050 C   0  0  0  0  0  0  0  0  0  0  0  0
   40.5930   24.9750   42.1190 H   0  0  0  0  0  0  0  0  0  0  0  0
   39.6410   23.3430   40.6290 H   0  0  0  0  0  0  0  0  0  0  0  0
   35.7750   24.9350   41.5570 H   0  0  0  0  0  0  0  0  0  0  0  0
  1 20  1  0  0  0  0
  2  1  1  0  0  0  0
  3  8  1  0  0  0  0
  3  2  2  0  0  0  0
  4  3  1  0  0  0  0
  5  4  2  0  0  0  0
  5  6  1  0  0  0  0
  6  7  2  0  0  0  0
  7  2  1  0  0  0  0
  9 14  1  0  0  0  0
  9  4  1  0  0  0  0
 10  9  2  0  0  0  0
 11 10  1  0  0  0  0
 12 10  1  0  0  0  0
 12 13  2  0  0  0  0
 13 14  1  0  0  0  0
 15  6  1  0  0  0  0
 16 15  2  0  0  0  0
 17 15  1  0  0  0  0
 17 18  1  0  0  0  0
 19 17  1  0  0  0  0
 20 23  1  0  0  0  0
 20 21  1  0  0  0  0
 22 20  1  0  0  0  0
 23 24  1  0  0  0  0
 23 25  1  0  0  0  0
 27 28  1  0  0  0  0
 27 26  1  0  0  0  0
 28 23  1  0  0  0  0
 29 34  1  0  0  0  0
 29 28  2  0  0  0  0
 30 29  1  0  0  0  0
 31 30  2  0  0  0  0
 31 33  1  0  0  0  0
 32 31  1  0  0  0  0
 33 27  2  0  0  0  0
 35 30  1  0  0  0  0
 36 33  1  0  0  0  0
M  END
>  <minimizedAffinity>
-5.58255339

$$$$

 OpenBabel03242515063D

 36 38  0  0  0  0  0  0  0  0999 V2000
   37.5940   31.4870   40.6040 S   0  0  0  0  0  0  0  0  0  0  0  0
   39.2660   31.2830   41.2160 C   0  0  0  0  0  0  0  0  0  0  0  0
   39.5540   30.0790   41.8770 C   0  0  0  0  0  0  0  0  0  0  0  0
   40.8400   29.8940   42.3620 C   0  0  0  0  0  0  0  0  0  0  0  0
   41.7520   30.8590   42.1830 N   0  0  0  0  0  0  0  0  0  0  0  0
   41.4680   32.0260   41.5400 C   0  0  0  0  0  0  0  0  0  0  0  0
   40.2260   32.2010   41.0750 N   0  0  0  0  0  0  0  0  0  0  0  0
   38.7870   29.3440   41.9910 H   0  0  0  0  0  0  0  0  0  0  0  0
   41.1050   28.6790   43.0210 C   0  0  0  0  0  0  0  0  0  0  0  0
   40.2940   27.6540   43.2980 C   0  0  0  0  0  0  0  0  0  0  0  0
   39.2450   27.5080   43.0890 H   0  0  0  0  0  0  0  0  0  0  0  0
   40.5950   26.5200   43.9280 C   0  0  0  0  0  3  0  0  0  0  0  0
   42.0090   26.4850   44.3250 C   0  0  0  0  0  3  0  0  0  0  0  0
   42.6700   28.1750   43.6840 S   0  0  0  0  0  0  0  0  0  0  0  0
   42.5290   32.9870   41.4090 C   0  0  0  0  0  0  0  0  0  0  0  0
   42.8500   33.3480   40.2500 O   0  0  0  0  0  0  0  0  0  0  0  0
   43.1450   33.4670   42.6070 N   0  0  0  0  0  0  0  0  0  0  0  0
   43.1040   34.1680   43.3780 H   0  0  0  0  0  0  0  0  0  0  0  0
   44.0170   32.9580   42.9220 H   0  0  0  0  0  0  0  0  0  0  0  0
   36.8460   29.9480   40.0830 C   0  0  0  0  0  0  0  0  0  0  0  0
   36.1190   30.1730   39.2650 H   0  0  0  0  0  0  0  0  0  0  0  0
   37.6090   29.2640   39.6450 H   0  0  0  0  0  0  0  0  0  0  0  0
   36.1430   29.2190   41.1800 C   0  0  0  0  0  0  0  0  0  0  0  0
   36.2440   29.6850   42.1820 H   0  0  0  0  0  0  0  0  0  0  0  0
   35.0490   29.2650   40.9430 H   0  0  0  0  0  0  0  0  0  0  0  0
   36.8000   27.9830   43.8730 Cl  0  0  0  0  0  0  0  0  0  0  0  0
   36.8420   27.1170   42.3700 C   0  0  0  0  0  0  0  0  0  0  0  0
   36.5210   27.7830   41.1850 C   0  0  0  0  0  0  0  0  0  0  0  0
   36.5780   27.0300   40.0370 C   0  0  0  0  0  0  0  0  0  0  0  0
   36.9200   25.6830   39.9380 C   0  0  0  0  0  0  0  0  0  0  0  0
   37.2300   25.0630   41.1350 C   0  0  0  0  0  0  0  0  0  0  0  0
   37.6750   23.3580   41.1060 Cl  0  0  0  0  0  0  0  0  0  0  0  0
   37.1890   25.7720   42.3130 C   0  0  0  0  0  0  0  0  0  0  0  0
   36.3330   27.5240   39.0970 H   0  0  0  0  0  0  0  0  0  0  0  0
   36.9300   25.1960   38.9720 H   0  0  0  0  0  0  0  0  0  0  0  0
   37.4440   25.2280   43.2230 H   0  0  0  0  0  0  0  0  0  0  0  0
  1  2  1  0  0  0  0
  2  3  1  0  0  0  0
  3  8  1  0  0  0  0
  3  4  2  0  0  0  0
  4  9  1  0  0  0  0
  5  4  1  0  0  0  0
  6  5  2  0  0  0  0
  7  2  2  0  0  0  0
  7  6  1  0  0  0  0
  9 10  2  0  0  0  0
  9 14  1  0  0  0  0
 10 12  1  0  0  0  0
 11 10  1  0  0  0  0
 12 13  2  0  0  0  0
 14 13  1  0  0  0  0
 15  6  1  0  0  0  0
 15 17  1  0  0  0  0
 16 15  2  0  0  0  0
 17 19  1  0  0  0  0
 17 18  1  0  0  0  0
 20  1  1  0  0  0  0
 20 23  1  0  0  0  0
 21 20  1  0  0  0  0
 22 20  1  0  0  0  0
 23 28  1  0  0  0  0
 23 24  1  0  0  0  0
 25 23  1  0  0  0  0
 27 26  1  0  0  0  0
 28 27  2  0  0  0  0
 29 28  1  0  0  0  0
 30 29  2  0  0  0  0
 30 31  1  0  0  0  0
 31 33  2  0  0  0  0
 32 31  1  0  0  0  0
 33 27  1  0  0  0  0
 33 36  1  0  0  0  0
 34 29  1  0  0  0  0
 35 30  1  0  0  0  0
M  END
>  <minimizedAffinity>
-5.57459021

$$$$

 OpenBabel03242515063D

 36 38  0  0  0  0  0  0  0  0999 V2000
   35.0060   28.8440   36.6580 S   0  0  0  0  0  0  0  0  0  0  0  0
   36.3340   29.3830   37.7360 C   0  0  0  0  0  0  0  0  0  0  0  0
   36.3000   28.9180   39.0590 C   0  0  0  0  0  0  0  0  0  0  0  0
   37.3150   29.3180   39.9150 C   0  0  0  0  0  0  0  0  0  0  0  0
   38.2810   30.1250   39.4540 N   0  0  0  0  0  0  0  0  0  0  0  0
   38.3080   30.5740   38.1680 C   0  0  0  0  0  0  0  0  0  0  0  0
   37.3270   30.1850   37.3460 N   0  0  0  0  0  0  0  0  0  0  0  0
   35.5050   28.2760   39.3730 H   0  0  0  0  0  0  0  0  0  0  0  0
   37.2610   28.8390   41.2370 C   0  0  0  0  0  0  0  0  0  0  0  0
   36.5390   27.8480   41.7660 C   0  0  0  0  0  0  0  0  0  0  0  0
   35.8240   27.1760   41.3130 H   0  0  0  0  0  0  0  0  0  0  0  0
   36.5230   27.4310   43.0310 C   0  0  0  0  0  3  0  0  0  0  0  0
   37.4420   28.2160   43.8660 C   0  0  0  0  0  3  0  0  0  0  0  0
   38.1910   29.4660   42.6100 S   0  0  0  0  0  0  0  0  0  0  0  0
   39.3950   31.4360   37.7890 C   0  0  0  0  0  0  0  0  0  0  0  0
   40.4240   31.4270   38.5090 O   0  0  0  0  0  0  0  0  0  0  0  0
   39.2300   32.2410   36.6190 N   0  0  0  0  0  0  0  0  0  0  0  0
   39.3200   32.2850   35.5810 H   0  0  0  0  0  0  0  0  0  0  0  0
   38.8690   33.2230   36.7730 H   0  0  0  0  0  0  0  0  0  0  0  0
   33.4110   28.8240   37.4680 C   0  0  0  0  0  0  0  0  0  0  0  0
   33.5030   28.2200   38.4050 H   0  0  0  0  0  0  0  0  0  0  0  0
   33.1130   29.8500   37.7850 H   0  0  0  0  0  0  0  0  0  0  0  0
   32.3150   28.2600   36.6260 C   0  0  0  0  0  0  0  0  0  0  0  0
   32.5960   27.3550   36.0490 H   0  0  0  0  0  0  0  0  0  0  0  0
   31.5130   27.9220   37.3310 H   0  0  0  0  0  0  0  0  0  0  0  0
   31.8620   27.5580   33.7080 Cl  0  0  0  0  0  0  0  0  0  0  0  0
   31.4650   29.0950   34.4110 C   0  0  0  0  0  0  0  0  0  0  0  0
   31.7160   29.3140   35.7670 C   0  0  0  0  0  0  0  0  0  0  0  0
   31.3760   30.5540   36.2500 C   0  0  0  0  0  0  0  0  0  0  0  0
   30.8110   31.6040   35.5280 C   0  0  0  0  0  0  0  0  0  0  0  0
   30.5800   31.3440   34.1890 C   0  0  0  0  0  0  0  0  0  0  0  0
   29.8680   32.6150   33.1990 Cl  0  0  0  0  0  0  0  0  0  0  0  0
   30.9040   30.1180   33.6570 C   0  0  0  0  0  0  0  0  0  0  0  0
   31.5590   30.7530   37.3050 H   0  0  0  0  0  0  0  0  0  0  0  0
   30.5860   32.5410   36.0210 H   0  0  0  0  0  0  0  0  0  0  0  0
   30.6970   29.9740   32.5960 H   0  0  0  0  0  0  0  0  0  0  0  0
  1 20  1  0  0  0  0
  1  2  1  0  0  0  0
  2  3  1  0  0  0  0
  3  8  1  0  0  0  0
  3  4  2  0  0  0  0
  4  9  1  0  0  0  0
  5  4  1  0  0  0  0
  6  5  2  0  0  0  0
  7  2  2  0  0  0  0
  7  6  1  0  0  0  0
  9 10  2  0  0  0  0
  9 14  1  0  0  0  0
 10 12  1  0  0  0  0
 11 10  1  0  0  0  0
 12 13  2  0  0  0  0
 14 13  1  0  0  0  0
 15  6  1  0  0  0  0
 15 16  2  0  0  0  0
 17 19  1  0  0  0  0
 17 15  1  0  0  0  0
 18 17  1  0  0  0  0
 20 22  1  0  0  0  0
 20 21  1  0  0  0  0
 23 25  1  0  0  0  0
 23 20  1  0  0  0  0
 24 23  1  0  0  0  0
 26 27  1  0  0  0  0
 27 28  1  0  0  0  0
 28 29  2  0  0  0  0
 28 23  1  0  0  0  0
 29 34  1  0  0  0  0
 30 35  1  0  0  0  0
 30 29  1  0  0  0  0
 31 30  2  0  0  0  0
 32 31  1  0  0  0  0
 33 31  1  0  0  0  0
 33 27  2  0  0  0  0
 36 33  1  0  0  0  0
M  END
>  <minimizedAffinity>
-5.52159739

$$$$

 OpenBabel03242515063D

 36 38  0  0  0  0  0  0  0  0999 V2000
   37.9320   31.1560   39.9990 S   0  0  0  0  0  0  0  0  0  0  0  0
   39.5260   31.0430   40.8120 C   0  0  0  0  0  0  0  0  0  0  0  0
   39.7770   29.8760   41.5490 C   0  0  0  0  0  0  0  0  0  0  0  0
   41.0020   29.7610   42.1890 C   0  0  0  0  0  0  0  0  0  0  0  0
   41.8930   30.7570   42.0810 N   0  0  0  0  0  0  0  0  0  0  0  0
   41.6430   31.8880   41.3630 C   0  0  0  0  0  0  0  0  0  0  0  0
   40.4610   31.9940   40.7480 N   0  0  0  0  0  0  0  0  0  0  0  0
   39.0300   29.1140   41.6010 H   0  0  0  0  0  0  0  0  0  0  0  0
   41.2310   28.5820   42.9210 C   0  0  0  0  0  0  0  0  0  0  0  0
   40.4550   27.5090   43.0940 C   0  0  0  0  0  0  0  0  0  0  0  0
   39.4680   27.2850   42.7170 H   0  0  0  0  0  0  0  0  0  0  0  0
   40.7200   26.4120   43.8020 C   0  0  0  0  0  3  0  0  0  0  0  0
   42.0460   26.4850   44.4280 C   0  0  0  0  0  3  0  0  0  0  0  0
   42.6930   28.2030   43.8520 S   0  0  0  0  0  0  0  0  0  0  0  0
   42.6770   32.8880   41.3210 C   0  0  0  0  0  0  0  0  0  0  0  0
   43.2050   33.1330   40.2080 O   0  0  0  0  0  0  0  0  0  0  0  0
   43.0290   33.5340   42.5460 N   0  0  0  0  0  0  0  0  0  0  0  0
   42.8140   34.3130   43.2050 H   0  0  0  0  0  0  0  0  0  0  0  0
   43.8400   33.1140   43.0810 H   0  0  0  0  0  0  0  0  0  0  0  0
   36.5600   30.8230   41.0980 C   0  0  0  0  0  0  0  0  0  0  0  0
   36.9740   30.5620   42.1030 H   0  0  0  0  0  0  0  0  0  0  0  0
   35.9370   31.7350   41.2430 H   0  0  0  0  0  0  0  0  0  0  0  0
   35.6690   29.7210   40.6310 C   0  0  0  0  0  0  0  0  0  0  0  0
   34.6030   29.8360   40.9200 H   0  0  0  0  0  0  0  0  0  0  0  0
   35.6740   29.7580   39.5110 H   0  0  0  0  0  0  0  0  0  0  0  0
   36.2680   27.7710   38.3830 Cl  0  0  0  0  0  0  0  0  0  0  0  0
   36.5300   27.4280   40.0640 C   0  0  0  0  0  0  0  0  0  0  0  0
   36.2190   28.3980   41.0190 C   0  0  0  0  0  0  0  0  0  0  0  0
   36.4540   28.0510   42.3280 C   0  0  0  0  0  0  0  0  0  0  0  0
   36.9650   26.8410   42.7910 C   0  0  0  0  0  0  0  0  0  0  0  0
   37.2590   25.9090   41.8120 C   0  0  0  0  0  0  0  0  0  0  0  0
   37.9110   24.3490   42.3060 Cl  0  0  0  0  0  0  0  0  0  0  0  0
   37.0420   26.2070   40.4870 C   0  0  0  0  0  0  0  0  0  0  0  0
   36.2210   28.7880   43.0950 H   0  0  0  0  0  0  0  0  0  0  0  0
   37.1070   26.6830   43.8530 H   0  0  0  0  0  0  0  0  0  0  0  0
   37.2940   25.4320   39.7620 H   0  0  0  0  0  0  0  0  0  0  0  0
  1  2  1  0  0  0  0
  1 20  1  0  0  0  0
  2  3  1  0  0  0  0
  3  8  1  0  0  0  0
  3  4  2  0  0  0  0
  4  9  1  0  0  0  0
  5  4  1  0  0  0  0
  6  5  2  0  0  0  0
  7  2  2  0  0  0  0
  7  6  1  0  0  0  0
  9 10  2  0  0  0  0
  9 14  1  0  0  0  0
 10 12  1  0  0  0  0
 11 10  1  0  0  0  0
 12 13  2  0  0  0  0
 14 13  1  0  0  0  0
 15  6  1  0  0  0  0
 15 17  1  0  0  0  0
 16 15  2  0  0  0  0
 17 19  1  0  0  0  0
 17 18  1  0  0  0  0
 20 22  1  0  0  0  0
 20 21  1  0  0  0  0
 23 24  1  0  0  0  0
 23 28  1  0  0  0  0
 23 20  1  0  0  0  0
 25 23  1  0  0  0  0
 26 27  1  0  0  0  0
 27 33  2  0  0  0  0
 27 28  1  0  0  0  0
 28 29  2  0  0  0  0
 29 30  1  0  0  0  0
 29 34  1  0  0  0  0
 30 35  1  0  0  0  0
 31 32  1  0  0  0  0
 31 30  2  0  0  0  0
 33 31  1  0  0  0  0
 36 33  1  0  0  0  0
M  END
>  <minimizedAffinity>
-5.48966169

$$$$
