
 OpenBabel03252504413D

 42 45  0  0  0  0  0  0  0  0999 V2000
   46.3970   32.2110   47.7540 C   0  0  0  0  0  0  0  0  0  0  0  0
   45.9320   31.8410   48.9800 C   0  0  0  0  0  0  0  0  0  0  0  0
   46.9110   31.1510   49.5640 N   0  0  0  0  0  0  0  0  0  0  0  0
   47.9730   31.0660   48.7700 C   0  0  0  0  0  0  0  0  0  0  0  0
   47.6510   31.7360   47.6210 N   0  0  0  0  0  0  0  0  0  0  0  0
   49.2510   30.4450   48.9430 N   0  0  0  0  0  0  0  0  0  0  0  0
   50.3150   31.2620   49.5680 C   0  0  0  0  0  0  0  0  0  0  0  0
   50.4240   30.7390   50.9950 C   0  0  0  0  0  0  0  0  0  0  0  0
   50.4820   29.2270   50.9860 C   0  0  0  0  0  0  0  0  0  0  0  0
   50.8400   28.7440   49.5890 C   0  0  0  0  0  0  0  0  0  0  0  0
   49.7380   29.1430   48.6250 C   0  0  0  0  0  0  0  0  0  0  0  0
   44.9470   32.0740   49.3830 H   0  0  0  0  0  0  0  0  0  0  0  0
   46.8690   30.7250   50.5210 H   0  0  0  0  0  0  0  0  0  0  0  0
   51.2810   31.1290   49.0570 H   0  0  0  0  0  0  0  0  0  0  0  0
   50.0000   32.3180   49.6380 H   0  0  0  0  0  0  0  0  0  0  0  0
   51.3320   31.1130   51.5180 H   0  0  0  0  0  0  0  0  0  0  0  0
   49.5330   31.0770   51.5860 H   0  0  0  0  0  0  0  0  0  0  0  0
   49.4800   28.8220   51.2160 H   0  0  0  0  0  0  0  0  0  0  0  0
   51.1770   28.8440   51.7350 H   0  0  0  0  0  0  0  0  0  0  0  0
   50.8310   27.6200   49.6510 H   0  0  0  0  0  0  0  0  0  0  0  0
   51.8350   29.1170   49.2630 H   0  0  0  0  0  0  0  0  0  0  0  0
   50.1890   29.1810   47.6130 H   0  0  0  0  0  0  0  0  0  0  0  0
   48.9460   28.3650   48.5970 H   0  0  0  0  0  0  0  0  0  0  0  0
   45.6630   33.0060   46.7350 C   0  0  0  0  0  0  0  0  0  0  0  0
   45.5450   34.0340   47.1710 H   0  0  0  0  0  0  0  0  0  0  0  0
   44.6550   32.5900   46.5720 H   0  0  0  0  0  0  0  0  0  0  0  0
   46.0770   33.8720   44.4560 C   0  0  0  0  0  3  0  0  0  0  0  0
   46.4600   33.1660   45.4980 C   0  0  0  0  0  3  0  0  0  0  0  0
   46.9650   33.9440   43.3000 C   0  0  0  0  0  0  0  0  0  0  0  0
   47.0020   35.0810   42.4650 C   0  0  0  0  0  0  0  0  0  0  0  0
   47.8820   35.0500   41.3900 C   0  0  0  0  0  0  0  0  0  0  0  0
   48.6590   33.9570   41.1810 N   0  0  0  0  0  0  0  0  0  0  0  0
   48.6010   32.8840   41.9960 C   0  0  0  0  0  0  0  0  0  0  0  0
   47.7740   32.8770   43.0320 N   0  0  0  0  0  0  0  0  0  0  0  0
   46.3570   35.8910   42.7070 H   0  0  0  0  0  0  0  0  0  0  0  0
   47.8840   35.9380   40.7720 H   0  0  0  0  0  0  0  0  0  0  0  0
   49.5040   31.8330   41.5980 C   0  0  0  0  0  0  0  0  0  0  0  0
   49.4670   30.9970   40.5420 C   0  0  0  0  0  0  0  0  0  0  0  0
   48.6470   31.0770   39.8400 H   0  0  0  0  0  0  0  0  0  0  0  0
   50.4630   30.0640   40.3770 C   0  0  0  0  0  3  0  0  0  0  0  0
   51.4700   30.0540   41.3510 C   0  0  0  0  0  3  0  0  0  0  0  0
   50.9860   31.3880   42.5020 S   0  0  0  0  0  0  0  0  0  0  0  0
  1  2  2  0  0  0  0
  2 12  1  0  0  0  0
  2  3  1  0  0  0  0
  3 13  1  0  0  0  0
  4  6  1  0  0  0  0
  4  3  1  0  0  0  0
  5  1  1  0  0  0  0
  5  4  2  0  0  0  0
  6  7  1  0  0  0  0
  7 15  1  0  0  0  0
  7  8  1  0  0  0  0
  8 16  1  0  0  0  0
  8 17  1  0  0  0  0
  9  8  1  0  0  0  0
  9 18  1  0  0  0  0
  9 19  1  0  0  0  0
 10 20  1  0  0  0  0
 10  9  1  0  0  0  0
 11  6  1  0  0  0  0
 11 10  1  0  0  0  0
 14  7  1  0  0  0  0
 21 10  1  0  0  0  0
 22 11  1  0  0  0  0
 23 11  1  0  0  0  0
 24 25  1  0  0  0  0
 24  1  1  0  0  0  0
 26 24  1  0  0  0  0
 27 28  2  0  0  0  0
 28 24  1  0  0  0  0
 29 27  1  0  0  0  0
 30 35  1  0  0  0  0
 30 29  2  0  0  0  0
 31 30  1  0  0  0  0
 32 31  2  0  0  0  0
 32 33  1  0  0  0  0
 33 34  2  0  0  0  0
 34 29  1  0  0  0  0
 36 31  1  0  0  0  0
 37 33  1  0  0  0  0
 37 42  1  0  0  0  0
 38 37  2  0  0  0  0
 39 38  1  0  0  0  0
 40 38  1  0  0  0  0
 40 41  2  0  0  0  0
 41 42  1  0  0  0  0
M  END
>  <minimizedAffinity>
-5.60355806

>  <minimizedRMSD>
0.796828747

$$$$
