
 OpenBabel03242518463D

 42 45  0  0  1  0  0  0  0  0999 V2000
   47.4820   32.9950   44.4070 C   0  0  2  0  0  0  0  0  0  0  0  0
   47.3660   33.3630   42.9710 C   0  0  1  0  0  0  0  0  0  0  0  0
   47.2850   32.1330   42.0660 C   0  0  0  0  0  0  0  0  0  0  0  0
   48.4130   31.3810   42.4110 O   0  0  0  0  0  0  0  0  0  0  0  0
   48.2640   30.7780   43.6410 C   0  0  0  0  0  0  0  0  0  0  0  0
   47.3070   31.4730   44.5550 C   0  0  1  0  0  0  0  0  0  0  0  0
   48.4830   33.2420   44.8030 H   0  0  0  0  0  0  0  0  0  0  0  0
   48.2830   33.9310   42.6280 H   0  0  0  0  0  0  0  0  0  0  0  0
   46.3420   31.5790   42.2350 H   0  0  0  0  0  0  0  0  0  0  0  0
   47.4310   32.4180   41.0130 H   0  0  0  0  0  0  0  0  0  0  0  0
   47.9390   29.7220   43.4470 H   0  0  0  0  0  0  0  0  0  0  0  0
   49.2580   30.6600   44.1450 H   0  0  0  0  0  0  0  0  0  0  0  0
   46.2500   31.2810   44.2750 H   0  0  0  0  0  0  0  0  0  0  0  0
   45.0290   36.1820   42.8300 C   0  0  0  0  0  0  0  0  0  0  0  0
   43.9870   35.7190   41.9710 C   0  0  0  0  0  0  0  0  0  0  0  0
   44.1460   34.4060   41.4610 C   0  0  0  0  0  0  0  0  0  0  0  0
   45.2400   33.6910   41.8070 N   0  0  0  0  0  0  0  0  0  0  0  0
   46.1930   34.1830   42.6240 C   0  0  0  0  0  0  0  0  0  0  0  0
   46.0830   35.4280   43.1320 N   0  0  0  0  0  0  0  0  0  0  0  0
   43.1420   36.3450   41.7390 H   0  0  0  0  0  0  0  0  0  0  0  0
   43.3710   34.0330   40.8110 H   0  0  0  0  0  0  0  0  0  0  0  0
   44.8910   37.4370   43.3260 O   0  0  0  0  0  0  0  0  0  0  0  0
   45.3140   37.6610   44.2180 H   0  0  0  0  0  0  0  0  0  0  0  0
   46.5380   33.6200   45.2240 O   0  0  0  0  0  0  0  0  0  0  0  0
   45.6260   33.2980   44.9580 H   0  0  0  0  0  0  0  0  0  0  0  0
   47.4940   31.1780   45.8860 O   0  0  0  0  0  0  0  0  0  0  0  0
   46.2750   28.7750   45.7750 F   0  0  0  0  0  0  0  0  0  0  0  0
   46.1460   29.6590   46.7840 C   0  0  0  0  0  0  0  0  0  0  0  0
   46.7330   30.8990   46.9250 C   0  0  0  0  0  0  0  0  0  0  0  0
   46.4180   31.5790   48.0880 C   0  0  0  0  0  0  0  0  0  0  0  0
   45.5940   31.1410   49.0930 C   0  0  0  0  0  0  0  0  0  0  0  0
   45.0400   29.9110   48.9080 C   0  0  0  0  0  0  0  0  0  0  0  0
   45.2920   29.1540   47.7800 C   0  0  0  0  0  0  0  0  0  0  0  0
   46.9240   32.5600   48.1290 H   0  0  0  0  0  0  0  0  0  0  0  0
   45.4720   31.8180   49.9280 H   0  0  0  0  0  0  0  0  0  0  0  0
   44.3840   29.5570   49.7060 H   0  0  0  0  0  0  0  0  0  0  0  0
   44.6420   27.8290   47.6700 C   0  0  0  0  0  0  0  0  0  0  0  0
   44.7050   26.8330   48.5250 C   0  0  0  0  0  0  0  0  0  0  0  0
   45.2690   26.8840   49.4460 H   0  0  0  0  0  0  0  0  0  0  0  0
   44.0150   25.6990   48.2050 C   0  0  0  0  0  0  0  0  0  0  0  0
   43.2880   25.6470   47.0080 C   0  0  0  0  0  0  0  0  0  0  0  0
   43.6460   27.3530   46.3350 S   0  0  0  0  0  0  0  0  0  0  0  0
  1  6  1  0  0  0  0
  1  7  1  1  0  0  0
  1 24  1  0  0  0  0
  2  8  1  6  0  0  0
  2  1  1  0  0  0  0
  3  9  1  0  0  0  0
  3  4  1  0  0  0  0
  3  2  1  0  0  0  0
  4  5  1  0  0  0  0
  5 12  1  0  0  0  0
  5  6  1  0  0  0  0
  6 13  1  6  0  0  0
  6 26  1  0  0  0  0
 10  3  1  0  0  0  0
 11  5  1  0  0  0  0
 14 19  1  0  0  0  0
 14 22  1  0  0  0  0
 15 14  2  0  0  0  0
 16 17  2  0  0  0  0
 16 15  1  0  0  0  0
 17 18  1  0  0  0  0
 18  2  1  0  0  0  0
 18 19  2  0  0  0  0
 20 15  1  0  0  0  0
 21 16  1  0  0  0  0
 22 23  1  0  0  0  0
 25 24  1  0  0  0  0
 26 29  1  0  0  0  0
 27 28  1  0  0  0  0
 28 29  2  0  0  0  0
 28 33  1  0  0  0  0
 29 30  1  0  0  0  0
 30 34  1  0  0  0  0
 30 31  2  0  0  0  0
 31 35  1  0  0  0  0
 32 31  1  0  0  0  0
 32 36  1  0  0  0  0
 33 32  2  0  0  0  0
 37 33  1  0  0  0  0
 37 38  2  0  0  0  0
 38 39  1  0  0  0  0
 40 38  1  0  0  0  0
 41 40  2  0  0  0  0
 42 41  1  0  0  0  0
 42 37  1  0  0  0  0
M  END
>  <minimizedAffinity>
-5.79021883

>  <minimizedRMSD>
0.711277783

$$$$
