
 OpenBabel03242523073D

 42 46  0  0  1  0  0  0  0  0999 V2000
   45.2260   36.0410   43.3900 C   0  0  0  0  0  0  0  0  0  0  0  0
   46.0180   34.9210   43.1650 C   0  0  0  0  0  0  0  0  0  0  0  0
   46.0860   33.9760   44.1550 C   0  0  0  0  0  0  0  0  0  0  0  0
   45.3800   34.1730   45.3120 N   0  0  0  0  0  0  0  0  0  0  0  0
   44.6200   35.2700   45.5020 C   0  0  0  0  0  0  0  0  0  0  0  0
   44.5490   36.1870   44.5500 N   0  0  0  0  0  0  0  0  0  0  0  0
   45.1470   36.8090   42.6300 H   0  0  0  0  0  0  0  0  0  0  0  0
   44.0390   35.4920   46.3860 H   0  0  0  0  0  0  0  0  0  0  0  0
   46.7110   34.8360   41.9590 N   0  0  0  0  0  0  0  0  0  0  0  0
   48.0030   35.3840   41.7860 C   0  0  0  0  0  0  0  0  0  0  0  0
   48.6630   35.0580   40.4710 C   0  0  0  0  0  0  0  0  0  0  0  0
   48.4590   33.7500   39.9920 N   0  0  0  0  0  0  0  0  0  0  0  0
   47.1780   33.2120   40.1660 C   0  0  0  0  0  0  0  0  0  0  0  0
   46.2180   34.2100   40.7810 C   0  0  0  0  0  0  0  0  0  0  0  0
   47.8800   36.5040   41.7780 H   0  0  0  0  0  0  0  0  0  0  0  0
   48.6770   35.1970   42.6520 H   0  0  0  0  0  0  0  0  0  0  0  0
   49.7510   35.2440   40.6050 H   0  0  0  0  0  0  0  0  0  0  0  0
   48.3570   35.7720   39.6660 H   0  0  0  0  0  0  0  0  0  0  0  0
   49.2550   33.0800   40.1420 H   0  0  0  0  0  0  0  0  0  0  0  0
   46.7570   32.9910   39.1400 H   0  0  0  0  0  0  0  0  0  0  0  0
   47.1430   32.2290   40.6790 H   0  0  0  0  0  0  0  0  0  0  0  0
   45.9920   34.9560   39.9780 H   0  0  0  0  0  0  0  0  0  0  0  0
   45.2750   33.6330   41.0020 H   0  0  0  0  0  0  0  0  0  0  0  0
   46.4600   32.0230   45.4170 C   0  0  0  0  0  0  0  0  0  0  0  0
   46.7840   32.7560   44.2560 C   0  0  0  0  0  0  0  0  0  0  0  0
   47.7710   32.1070   43.5360 C   0  0  0  0  0  0  0  0  0  0  0  0
   48.3740   30.9350   43.8620 C   0  0  0  0  0  0  0  0  0  0  0  0
   47.9990   30.2890   45.0220 C   0  0  0  0  0  0  0  0  0  0  0  0
   47.0310   30.8280   45.8130 C   0  0  0  0  0  0  0  0  0  0  0  0
   48.7900   29.1600   45.0710 O   0  0  0  0  0  0  0  0  0  0  0  0
   49.6270   29.0920   43.9330 C   0  0  1  0  0  0  0  0  0  0  0  0
   49.3580   30.2580   43.1580 O   0  0  0  0  0  0  0  0  0  0  0  0
   45.7090   32.2400   46.2070 H   0  0  0  0  0  0  0  0  0  0  0  0
   48.0160   32.6480   42.6790 H   0  0  0  0  0  0  0  0  0  0  0  0
   46.8160   30.2540   46.6730 H   0  0  0  0  0  0  0  0  0  0  0  0
   49.4520   28.1700   43.3770 H   0  0  0  0  0  0  0  0  0  0  0  0
   51.0650   29.0660   44.3270 C   0  0  0  0  0  0  0  0  0  0  0  0
   52.0890   29.9740   43.9940 C   0  0  0  0  0  0  0  0  0  0  0  0
   51.8240   30.8120   43.3720 H   0  0  0  0  0  0  0  0  0  0  0  0
   53.3280   29.6840   44.5090 C   0  0  0  0  0  0  0  0  0  0  0  0
   53.5250   28.5870   45.2840 C   0  0  0  0  0  0  0  0  0  0  0  0
   51.8480   27.8260   45.3480 S   0  0  0  0  0  0  0  0  0  0  0  0
  1  6  1  0  0  0  0
  2  1  2  0  0  0  0
  2  3  1  0  0  0  0
  3 25  1  0  0  0  0
  3  4  2  0  0  0  0
  4  5  1  0  0  0  0
  5  8  1  0  0  0  0
  6  5  2  0  0  0  0
  7  1  1  0  0  0  0
  9  2  1  0  0  0  0
 10  9  1  0  0  0  0
 10 16  1  0  0  0  0
 11 17  1  0  0  0  0
 11 10  1  0  0  0  0
 12 19  1  0  0  0  0
 12 13  1  0  0  0  0
 12 11  1  0  0  0  0
 13 21  1  0  0  0  0
 13 14  1  0  0  0  0
 14 23  1  0  0  0  0
 14  9  1  0  0  0  0
 15 10  1  0  0  0  0
 18 11  1  0  0  0  0
 20 13  1  0  0  0  0
 22 14  1  0  0  0  0
 24 29  1  0  0  0  0
 24 33  1  0  0  0  0
 25 24  2  0  0  0  0
 26 27  2  0  0  0  0
 26 25  1  0  0  0  0
 27 28  1  0  0  0  0
 28 30  1  0  0  0  0
 28 29  2  0  0  0  0
 29 35  1  0  0  0  0
 31 36  1  6  0  0  0
 31 37  1  0  0  0  0
 31 30  1  0  0  0  0
 32 27  1  0  0  0  0
 32 31  1  0  0  0  0
 34 26  1  0  0  0  0
 37 42  1  0  0  0  0
 38 37  2  0  0  0  0
 38 40  1  0  0  0  0
 39 38  1  0  0  0  0
 40 41  2  0  0  0  0
 41 42  1  0  0  0  0
M  END
>  <minimizedAffinity>
-5.32768679

>  <minimizedRMSD>
0.585545063

$$$$
