
 OpenBabel03252505373D

 30 32  0  0  0  0  0  0  0  0999 V2000
   44.6340   35.3810   45.9010 C   0  0  0  0  0  0  0  0  0  0  0  0
   45.2070   35.5220   44.6170 C   0  0  0  0  0  0  0  0  0  0  0  0
   45.8110   34.4260   44.0450 C   0  0  0  0  0  0  0  0  0  0  0  0
   45.8240   33.2660   44.7490 N   0  0  0  0  0  0  0  0  0  0  0  0
   45.2640   33.1690   45.9820 C   0  0  0  0  0  0  0  0  0  0  0  0
   44.6680   34.2270   46.5570 N   0  0  0  0  0  0  0  0  0  0  0  0
   45.3200   31.9370   46.7020 N   0  0  0  0  0  0  0  0  0  0  0  0
   44.1500   36.2240   46.3760 H   0  0  0  0  0  0  0  0  0  0  0  0
   44.8160   31.8090   47.5780 H   0  0  0  0  0  0  0  0  0  0  0  0
   45.8880   31.1380   46.3310 H   0  0  0  0  0  0  0  0  0  0  0  0
   46.4210   34.4380   42.7510 C   0  0  0  0  0  0  0  0  0  0  0  0
   47.7480   34.8620   42.6670 C   0  0  0  0  0  0  0  0  0  0  0  0
   48.4340   34.9040   41.4490 C   0  0  0  0  0  0  0  0  0  0  0  0
   47.8000   34.5190   40.2960 C   0  0  0  0  0  0  0  0  0  0  0  0
   46.5090   34.1070   40.3870 C   0  0  0  0  0  0  0  0  0  0  0  0
   45.8100   34.0590   41.5880 C   0  0  0  0  0  0  0  0  0  0  0  0
   48.2920   35.1790   43.5680 H   0  0  0  0  0  0  0  0  0  0  0  0
   49.4670   35.2430   41.4440 H   0  0  0  0  0  0  0  0  0  0  0  0
   48.3530   34.5610   39.3690 H   0  0  0  0  0  0  0  0  0  0  0  0
   46.0150   33.8040   39.4700 H   0  0  0  0  0  0  0  0  0  0  0  0
   44.4090   33.5990   41.6570 C   0  0  0  0  0  0  0  0  0  0  0  0
   44.0410   33.1410   40.3950 F   0  0  0  0  0  0  0  0  0  0  0  0
   43.5960   34.6520   42.0370 F   0  0  0  0  0  0  0  0  0  0  0  0
   44.1830   32.5970   42.5710 F   0  0  0  0  0  0  0  0  0  0  0  0
   45.1390   36.8360   44.0410 C   0  0  0  0  0  0  0  0  0  0  0  0
   44.9690   37.3390   42.7520 C   0  0  0  0  0  0  0  0  0  0  0  0
   44.8600   36.5640   42.0150 H   0  0  0  0  0  0  0  0  0  0  0  0
   44.9600   38.6870   42.5890 C   0  0  0  0  0  3  0  0  0  0  0  0
   45.1240   39.4810   43.7350 C   0  0  0  0  0  3  0  0  0  0  0  0
   45.2940   38.2160   45.0670 S   0  0  0  0  0  0  0  0  0  0  0  0
  1  8  1  0  0  0  0
  1  6  1  0  0  0  0
  2  1  2  0  0  0  0
  3  2  1  0  0  0  0
  3  4  2  0  0  0  0
  4  5  1  0  0  0  0
  5  6  2  0  0  0  0
  5  7  1  0  0  0  0
  7  9  1  0  0  0  0
 10  7  1  0  0  0  0
 11  3  1  0  0  0  0
 12 11  1  0  0  0  0
 12 17  1  0  0  0  0
 13 12  2  0  0  0  0
 14 15  2  0  0  0  0
 14 13  1  0  0  0  0
 15 16  1  0  0  0  0
 16 21  1  0  0  0  0
 16 11  2  0  0  0  0
 18 13  1  0  0  0  0
 19 14  1  0  0  0  0
 20 15  1  0  0  0  0
 21 23  1  0  0  0  0
 21 24  1  0  0  0  0
 22 21  1  0  0  0  0
 25  2  1  0  0  0  0
 25 30  1  0  0  0  0
 26 25  2  0  0  0  0
 27 26  1  0  0  0  0
 28 26  1  0  0  0  0
 28 29  2  0  0  0  0
 29 30  1  0  0  0  0
M  END
>  <minimizedAffinity>
-1.42708373

>  <minimizedRMSD>
1.23795474

$$$$
