
 OpenBabel03252500533D

 21 22  0  0  0  0  0  0  0  0999 V2000
   36.5000   29.0160   41.4980 C   0  0  0  0  0  0  0  0  0  0  0  0
   37.5290   29.9280   41.5940 C   0  0  0  0  0  0  0  0  0  0  0  0
   38.5280   29.6770   42.5790 C   0  0  0  0  0  0  0  0  0  0  0  0
   38.4080   28.5740   43.3570 N   0  0  0  0  0  0  0  0  0  0  0  0
   37.3830   27.7220   43.2210 C   0  0  0  0  0  0  0  0  0  0  0  0
   36.4460   27.9330   42.3130 N   0  0  0  0  0  0  0  0  0  0  0  0
   39.3980   30.2550   42.8090 H   0  0  0  0  0  0  0  0  0  0  0  0
   37.2880   26.8450   43.8430 H   0  0  0  0  0  0  0  0  0  0  0  0
   37.6750   31.1490   40.8900 C   0  0  0  0  0  0  0  0  0  0  0  0
   36.9070   31.9640   40.0140 C   0  0  0  0  0  0  0  0  0  0  0  0
   35.9290   31.7100   39.6850 H   0  0  0  0  0  0  0  0  0  0  0  0
   37.4330   33.1280   39.6020 C   0  0  0  0  0  3  0  0  0  0  0  0
   38.6830   33.5820   39.9820 C   0  0  0  0  0  3  0  0  0  0  0  0
   39.2080   32.1540   41.0930 S   0  0  0  0  0  0  0  0  0  0  0  0
   35.4600   29.1660   40.4810 C   0  0  0  0  0  0  0  0  0  0  0  0
   34.4720   28.8790   40.9160 H   0  0  0  0  0  0  0  0  0  0  0  0
   35.3960   30.2170   40.1680 H   0  0  0  0  0  0  0  0  0  0  0  0
   35.7590   28.2750   39.3060 C   0  0  0  0  0  0  0  0  0  0  0  0
   34.9840   27.4500   39.3200 H   0  0  0  0  0  0  0  0  0  0  0  0
   36.7630   27.7820   39.3610 H   0  0  0  0  0  0  0  0  0  0  0  0
   35.5840   28.7610   38.3160 H   0  0  0  0  0  0  0  0  0  0  0  0
  1  2  2  0  0  0  0
  1  6  1  0  0  0  0
  2  3  1  0  0  0  0
  3  7  1  0  0  0  0
  3  4  2  0  0  0  0
  5  4  1  0  0  0  0
  5  8  1  0  0  0  0
  6  5  2  0  0  0  0
  9 14  1  0  0  0  0
  9  2  1  0  0  0  0
 10  9  2  0  0  0  0
 11 10  1  0  0  0  0
 12 13  2  0  0  0  0
 12 10  1  0  0  0  0
 13 14  1  0  0  0  0
 15 16  1  0  0  0  0
 15  1  1  0  0  0  0
 17 15  1  0  0  0  0
 18 19  1  0  0  0  0
 18 20  1  0  0  0  0
 18 15  1  0  0  0  0
 21 18  1  0  0  0  0
M  END
>  <minimizedAffinity>
-4.15950155

$$$$

 OpenBabel03252500533D

 21 22  0  0  0  0  0  0  0  0999 V2000
   37.1270   31.0820   40.8070 C   0  0  0  0  0  0  0  0  0  0  0  0
   38.1670   30.6010   41.5740 C   0  0  0  0  0  0  0  0  0  0  0  0
   39.3410   31.4050   41.6520 C   0  0  0  0  0  0  0  0  0  0  0  0
   39.3690   32.5780   40.9740 N   0  0  0  0  0  0  0  0  0  0  0  0
   38.3280   32.9960   40.2420 C   0  0  0  0  0  0  0  0  0  0  0  0
   37.2280   32.2680   40.1560 N   0  0  0  0  0  0  0  0  0  0  0  0
   40.2460   31.2140   42.1890 H   0  0  0  0  0  0  0  0  0  0  0  0
   38.3520   33.9300   39.7020 H   0  0  0  0  0  0  0  0  0  0  0  0
   38.2540   29.3470   42.2300 C   0  0  0  0  0  0  0  0  0  0  0  0
   37.8840   28.7790   43.4790 C   0  0  0  0  0  0  0  0  0  0  0  0
   37.4140   29.3310   44.2570 H   0  0  0  0  0  0  0  0  0  0  0  0
   38.1150   27.4730   43.6780 C   0  0  0  0  0  3  0  0  0  0  0  0
   38.6930   26.6440   42.7340 C   0  0  0  0  0  3  0  0  0  0  0  0
   38.9570   27.8900   41.3460 S   0  0  0  0  0  0  0  0  0  0  0  0
   35.8660   30.3480   40.7130 C   0  0  0  0  0  0  0  0  0  0  0  0
   35.7830   29.6410   41.5740 H   0  0  0  0  0  0  0  0  0  0  0  0
   35.0230   31.0500   40.7740 H   0  0  0  0  0  0  0  0  0  0  0  0
   35.8210   29.5670   39.4280 C   0  0  0  0  0  0  0  0  0  0  0  0
   35.9060   28.4750   39.7090 H   0  0  0  0  0  0  0  0  0  0  0  0
   36.6720   29.7940   38.7350 H   0  0  0  0  0  0  0  0  0  0  0  0
   34.8340   29.6120   38.9070 H   0  0  0  0  0  0  0  0  0  0  0  0
  1  2  1  0  0  0  0
  2  3  2  0  0  0  0
  2  9  1  0  0  0  0
  3  7  1  0  0  0  0
  4  3  1  0  0  0  0
  5  4  2  0  0  0  0
  6  5  1  0  0  0  0
  6  1  2  0  0  0  0
  8  5  1  0  0  0  0
  9 10  2  0  0  0  0
 10 12  1  0  0  0  0
 10 11  1  0  0  0  0
 13 12  2  0  0  0  0
 14  9  1  0  0  0  0
 14 13  1  0  0  0  0
 15 17  1  0  0  0  0
 15  1  1  0  0  0  0
 15 16  1  0  0  0  0
 18 19  1  0  0  0  0
 18 15  1  0  0  0  0
 20 18  1  0  0  0  0
 21 18  1  0  0  0  0
M  END
>  <minimizedAffinity>
-3.89174604

$$$$

 OpenBabel03252500533D

 21 22  0  0  0  0  0  0  0  0999 V2000
   38.4940   29.6050   42.5110 C   0  0  0  0  0  0  0  0  0  0  0  0
   37.4990   29.7340   41.5660 C   0  0  0  0  0  0  0  0  0  0  0  0
   36.4610   28.7570   41.5810 C   0  0  0  0  0  0  0  0  0  0  0  0
   36.5130   27.7700   42.5080 N   0  0  0  0  0  0  0  0  0  0  0  0
   37.5070   27.6930   43.4020 C   0  0  0  0  0  0  0  0  0  0  0  0
   38.4800   28.5880   43.4080 N   0  0  0  0  0  0  0  0  0  0  0  0
   35.6060   28.6820   40.9410 H   0  0  0  0  0  0  0  0  0  0  0  0
   37.5480   26.9050   44.1390 H   0  0  0  0  0  0  0  0  0  0  0  0
   37.4230   30.6740   40.5080 C   0  0  0  0  0  0  0  0  0  0  0  0
   37.0900   32.0440   40.3320 C   0  0  0  0  0  0  0  0  0  0  0  0
   36.7700   32.6760   41.1250 H   0  0  0  0  0  0  0  0  0  0  0  0
   37.2120   32.5770   39.1070 C   0  0  0  0  0  3  0  0  0  0  0  0
   37.6450   31.8680   38.0020 C   0  0  0  0  0  3  0  0  0  0  0  0
   37.9260   30.1860   38.8030 S   0  0  0  0  0  0  0  0  0  0  0  0
   39.5700   30.5910   42.6020 C   0  0  0  0  0  0  0  0  0  0  0  0
   39.4690   31.3280   41.7690 H   0  0  0  0  0  0  0  0  0  0  0  0
   39.4900   31.1420   43.5490 H   0  0  0  0  0  0  0  0  0  0  0  0
   40.9050   29.9050   42.4940 C   0  0  0  0  0  0  0  0  0  0  0  0
   41.3410   30.2000   41.4920 H   0  0  0  0  0  0  0  0  0  0  0  0
   40.8380   28.7870   42.5050 H   0  0  0  0  0  0  0  0  0  0  0  0
   41.6680   30.2860   43.2160 H   0  0  0  0  0  0  0  0  0  0  0  0
  1 15  1  0  0  0  0
  1  6  1  0  0  0  0
  2  3  1  0  0  0  0
  2  1  2  0  0  0  0
  3  4  2  0  0  0  0
  4  5  1  0  0  0  0
  5  6  2  0  0  0  0
  5  8  1  0  0  0  0
  7  3  1  0  0  0  0
  9  2  1  0  0  0  0
 10  9  2  0  0  0  0
 10 11  1  0  0  0  0
 12 10  1  0  0  0  0
 13 14  1  0  0  0  0
 13 12  2  0  0  0  0
 14  9  1  0  0  0  0
 15 17  1  0  0  0  0
 16 15  1  0  0  0  0
 18 20  1  0  0  0  0
 18 15  1  0  0  0  0
 18 21  1  0  0  0  0
 19 18  1  0  0  0  0
M  END
>  <minimizedAffinity>
-3.87081909

$$$$

 OpenBabel03252500533D

 21 22  0  0  0  0  0  0  0  0999 V2000
   37.4160   28.8600   42.0730 C   0  0  0  0  0  0  0  0  0  0  0  0
   37.0670   27.7900   41.2780 C   0  0  0  0  0  0  0  0  0  0  0  0
   36.1520   28.0420   40.2150 C   0  0  0  0  0  0  0  0  0  0  0  0
   35.6810   29.3020   40.0510 N   0  0  0  0  0  0  0  0  0  0  0  0
   36.0530   30.3060   40.8570 C   0  0  0  0  0  0  0  0  0  0  0  0
   36.9020   30.0950   41.8480 N   0  0  0  0  0  0  0  0  0  0  0  0
   35.7610   27.3560   39.4930 H   0  0  0  0  0  0  0  0  0  0  0  0
   35.6760   31.3080   40.7260 H   0  0  0  0  0  0  0  0  0  0  0  0
   37.4360   26.4300   41.4410 C   0  0  0  0  0  0  0  0  0  0  0  0
   36.9830   25.2900   42.1590 C   0  0  0  0  0  0  0  0  0  0  0  0
   36.1520   25.3060   42.8200 H   0  0  0  0  0  0  0  0  0  0  0  0
   37.6230   24.1260   41.9720 C   0  0  0  0  0  3  0  0  0  0  0  0
   38.6990   23.9700   41.1190 C   0  0  0  0  0  3  0  0  0  0  0  0
   38.8420   25.7340   40.4730 S   0  0  0  0  0  0  0  0  0  0  0  0
   38.3880   28.7030   43.1530 C   0  0  0  0  0  0  0  0  0  0  0  0
   38.0970   29.3580   44.0110 H   0  0  0  0  0  0  0  0  0  0  0  0
   38.3850   27.6640   43.5090 H   0  0  0  0  0  0  0  0  0  0  0  0
   39.7580   29.1010   42.6740 C   0  0  0  0  0  0  0  0  0  0  0  0
   40.0170   30.0690   43.1980 H   0  0  0  0  0  0  0  0  0  0  0  0
   39.8070   29.3020   41.5730 H   0  0  0  0  0  0  0  0  0  0  0  0
   40.5710   28.4130   43.0100 H   0  0  0  0  0  0  0  0  0  0  0  0
  1 15  1  0  0  0  0
  2  9  1  0  0  0  0
  2  1  2  0  0  0  0
  3  2  1  0  0  0  0
  4  3  2  0  0  0  0
  4  5  1  0  0  0  0
  5  6  2  0  0  0  0
  6  1  1  0  0  0  0
  7  3  1  0  0  0  0
  8  5  1  0  0  0  0
  9 10  2  0  0  0  0
 10 11  1  0  0  0  0
 12 10  1  0  0  0  0
 13 12  2  0  0  0  0
 14 13  1  0  0  0  0
 14  9  1  0  0  0  0
 15 17  1  0  0  0  0
 15 16  1  0  0  0  0
 18 21  1  0  0  0  0
 18 15  1  0  0  0  0
 18 19  1  0  0  0  0
 20 18  1  0  0  0  0
M  END
>  <minimizedAffinity>
-3.83667397

$$$$

 OpenBabel03252500533D

 21 22  0  0  0  0  0  0  0  0999 V2000
   37.1610   26.9400   41.6690 C   0  0  0  0  0  0  0  0  0  0  0  0
   36.9010   28.1940   41.1590 C   0  0  0  0  0  0  0  0  0  0  0  0
   37.1910   29.3080   41.9990 C   0  0  0  0  0  0  0  0  0  0  0  0
   37.6950   29.0750   43.2350 N   0  0  0  0  0  0  0  0  0  0  0  0
   37.9270   27.8330   43.6800 C   0  0  0  0  0  0  0  0  0  0  0  0
   37.6670   26.7840   42.9170 N   0  0  0  0  0  0  0  0  0  0  0  0
   37.0640   30.3510   41.7920 H   0  0  0  0  0  0  0  0  0  0  0  0
   38.3270   27.6480   44.6650 H   0  0  0  0  0  0  0  0  0  0  0  0
   36.2880   28.5180   39.9230 C   0  0  0  0  0  0  0  0  0  0  0  0
   34.9880   28.8260   39.4360 C   0  0  0  0  0  0  0  0  0  0  0  0
   34.1200   28.8380   40.0490 H   0  0  0  0  0  0  0  0  0  0  0  0
   34.8530   29.1430   38.1390 C   0  0  0  0  0  3  0  0  0  0  0  0
   35.9080   29.1890   37.2470 C   0  0  0  0  0  3  0  0  0  0  0  0
   37.3160   28.7120   38.4050 S   0  0  0  0  0  0  0  0  0  0  0  0
   36.9440   25.7430   40.8580 C   0  0  0  0  0  0  0  0  0  0  0  0
   35.9710   25.8350   40.3150 H   0  0  0  0  0  0  0  0  0  0  0  0
   37.7400   25.6540   40.1070 H   0  0  0  0  0  0  0  0  0  0  0  0
   36.9010   24.5260   41.7410 C   0  0  0  0  0  0  0  0  0  0  0  0
   35.8290   24.1630   41.7410 H   0  0  0  0  0  0  0  0  0  0  0  0
   37.1760   24.7340   42.8070 H   0  0  0  0  0  0  0  0  0  0  0  0
   37.4580   23.6500   41.3290 H   0  0  0  0  0  0  0  0  0  0  0  0
  1  6  1  0  0  0  0
  2  1  2  0  0  0  0
  2  3  1  0  0  0  0
  3  4  2  0  0  0  0
  4  5  1  0  0  0  0
  5  8  1  0  0  0  0
  6  5  2  0  0  0  0
  7  3  1  0  0  0  0
  9  2  1  0  0  0  0
 10  9  2  0  0  0  0
 10 11  1  0  0  0  0
 12 10  1  0  0  0  0
 13 12  2  0  0  0  0
 13 14  1  0  0  0  0
 14  9  1  0  0  0  0
 15  1  1  0  0  0  0
 15 18  1  0  0  0  0
 16 15  1  0  0  0  0
 17 15  1  0  0  0  0
 18 19  1  0  0  0  0
 18 20  1  0  0  0  0
 21 18  1  0  0  0  0
M  END
>  <minimizedAffinity>
-3.77887726

$$$$

 OpenBabel03252500533D

 21 22  0  0  0  0  0  0  0  0999 V2000
   39.4450   31.0870   41.2850 C   0  0  0  0  0  0  0  0  0  0  0  0
   38.1920   30.5300   41.4260 C   0  0  0  0  0  0  0  0  0  0  0  0
   37.0910   31.2670   40.9010 C   0  0  0  0  0  0  0  0  0  0  0  0
   37.3350   32.4600   40.3060 N   0  0  0  0  0  0  0  0  0  0  0  0
   38.5750   32.9560   40.1990 C   0  0  0  0  0  0  0  0  0  0  0  0
   39.6120   32.2880   40.6770 N   0  0  0  0  0  0  0  0  0  0  0  0
   36.0530   31.0100   40.9070 H   0  0  0  0  0  0  0  0  0  0  0  0
   38.7670   33.9060   39.7260 H   0  0  0  0  0  0  0  0  0  0  0  0
   37.8440   29.3420   42.1160 C   0  0  0  0  0  0  0  0  0  0  0  0
   37.7040   28.9020   43.4610 C   0  0  0  0  0  0  0  0  0  0  0  0
   37.9000   29.5210   44.3030 H   0  0  0  0  0  0  0  0  0  0  0  0
   37.2780   27.6490   43.6800 C   0  0  0  0  0  3  0  0  0  0  0  0
   36.9640   26.7580   42.6700 C   0  0  0  0  0  3  0  0  0  0  0  0
   37.3230   27.8450   41.1740 S   0  0  0  0  0  0  0  0  0  0  0  0
   40.6360   30.3770   41.7460 C   0  0  0  0  0  0  0  0  0  0  0  0
   40.3410   29.3710   42.1350 H   0  0  0  0  0  0  0  0  0  0  0  0
   41.3250   30.2210   40.9050 H   0  0  0  0  0  0  0  0  0  0  0  0
   41.3030   31.1540   42.8480 C   0  0  0  0  0  0  0  0  0  0  0  0
   41.1440   30.5670   43.8020 H   0  0  0  0  0  0  0  0  0  0  0  0
   40.8610   32.1700   43.0130 H   0  0  0  0  0  0  0  0  0  0  0  0
   42.4160   31.1910   42.7650 H   0  0  0  0  0  0  0  0  0  0  0  0
  1  2  1  0  0  0  0
  1 15  1  0  0  0  0
  2  9  1  0  0  0  0
  3  7  1  0  0  0  0
  3  2  2  0  0  0  0
  4  3  1  0  0  0  0
  5  4  2  0  0  0  0
  5  6  1  0  0  0  0
  6  1  2  0  0  0  0
  8  5  1  0  0  0  0
  9 10  2  0  0  0  0
 10 12  1  0  0  0  0
 10 11  1  0  0  0  0
 13 12  2  0  0  0  0
 14  9  1  0  0  0  0
 14 13  1  0  0  0  0
 15 16  1  0  0  0  0
 15 18  1  0  0  0  0
 17 15  1  0  0  0  0
 18 20  1  0  0  0  0
 18 19  1  0  0  0  0
 21 18  1  0  0  0  0
M  END
>  <minimizedAffinity>
-3.75587392

$$$$

 OpenBabel03252500533D

 21 22  0  0  0  0  0  0  0  0999 V2000
   38.0410   29.1580   41.1390 C   0  0  0  0  0  0  0  0  0  0  0  0
   36.9810   28.2820   41.0490 C   0  0  0  0  0  0  0  0  0  0  0  0
   35.6930   28.8440   40.8140 C   0  0  0  0  0  0  0  0  0  0  0  0
   35.5840   30.1890   40.6980 N   0  0  0  0  0  0  0  0  0  0  0  0
   36.6500   30.9950   40.7960 C   0  0  0  0  0  0  0  0  0  0  0  0
   37.8560   30.4960   41.0120 N   0  0  0  0  0  0  0  0  0  0  0  0
   34.7540   28.3410   40.7110 H   0  0  0  0  0  0  0  0  0  0  0  0
   36.5620   32.0670   40.7040 H   0  0  0  0  0  0  0  0  0  0  0  0
   36.9950   26.8790   41.2540 C   0  0  0  0  0  0  0  0  0  0  0  0
   37.0800   25.9710   42.3440 C   0  0  0  0  0  0  0  0  0  0  0  0
   37.1870   26.2780   43.3560 H   0  0  0  0  0  0  0  0  0  0  0  0
   36.9950   24.6570   42.0860 C   0  0  0  0  0  3  0  0  0  0  0  0
   36.8270   24.1340   40.8170 C   0  0  0  0  0  3  0  0  0  0  0  0
   36.7820   25.7350   39.8250 S   0  0  0  0  0  0  0  0  0  0  0  0
   39.4050   28.6660   41.3260 C   0  0  0  0  0  0  0  0  0  0  0  0
   39.4520   27.5870   41.0390 H   0  0  0  0  0  0  0  0  0  0  0  0
   40.0920   29.2170   40.6710 H   0  0  0  0  0  0  0  0  0  0  0  0
   39.8090   28.8090   42.7680 C   0  0  0  0  0  0  0  0  0  0  0  0
   39.8620   27.7640   43.1960 H   0  0  0  0  0  0  0  0  0  0  0  0
   39.0690   29.3790   43.3870 H   0  0  0  0  0  0  0  0  0  0  0  0
   40.8510   29.1870   42.9090 H   0  0  0  0  0  0  0  0  0  0  0  0
  1 15  1  0  0  0  0
  2  1  1  0  0  0  0
  2  9  1  0  0  0  0
  3  2  2  0  0  0  0
  4  5  2  0  0  0  0
  4  3  1  0  0  0  0
  5  6  1  0  0  0  0
  6  1  2  0  0  0  0
  7  3  1  0  0  0  0
  8  5  1  0  0  0  0
  9 10  2  0  0  0  0
 10 11  1  0  0  0  0
 12 10  1  0  0  0  0
 13 12  2  0  0  0  0
 14 13  1  0  0  0  0
 14  9  1  0  0  0  0
 15 18  1  0  0  0  0
 16 15  1  0  0  0  0
 17 15  1  0  0  0  0
 18 21  1  0  0  0  0
 18 19  1  0  0  0  0
 18 20  1  0  0  0  0
M  END
>  <minimizedAffinity>
-3.74707985

$$$$

 OpenBabel03252500533D

 21 22  0  0  0  0  0  0  0  0999 V2000
   37.3820   26.5280   42.1550 C   0  0  0  0  0  0  0  0  0  0  0  0
   36.9820   27.2030   41.0220 C   0  0  0  0  0  0  0  0  0  0  0  0
   36.6590   26.4160   39.8790 C   0  0  0  0  0  0  0  0  0  0  0  0
   36.7650   25.0690   39.9690 N   0  0  0  0  0  0  0  0  0  0  0  0
   37.1620   24.4650   41.0970 C   0  0  0  0  0  0  0  0  0  0  0  0
   37.4660   25.1750   42.1710 N   0  0  0  0  0  0  0  0  0  0  0  0
   36.3300   26.7440   38.9150 H   0  0  0  0  0  0  0  0  0  0  0  0
   37.2470   23.3920   41.1670 H   0  0  0  0  0  0  0  0  0  0  0  0
   36.9390   28.6050   40.8160 C   0  0  0  0  0  0  0  0  0  0  0  0
   35.9720   29.6470   40.8310 C   0  0  0  0  0  0  0  0  0  0  0  0
   34.9380   29.4840   41.0140 H   0  0  0  0  0  0  0  0  0  0  0  0
   36.3890   30.9060   40.6270 C   0  0  0  0  0  3  0  0  0  0  0  0
   37.7100   31.2500   40.4050 C   0  0  0  0  0  3  0  0  0  0  0  0
   38.4950   29.5400   40.4940 S   0  0  0  0  0  0  0  0  0  0  0  0
   37.6840   27.2520   43.3890 C   0  0  0  0  0  0  0  0  0  0  0  0
   37.3700   28.3190   43.2800 H   0  0  0  0  0  0  0  0  0  0  0  0
   37.1130   26.8190   44.2220 H   0  0  0  0  0  0  0  0  0  0  0  0
   39.1610   27.2000   43.6680 C   0  0  0  0  0  0  0  0  0  0  0  0
   39.5600   28.2440   43.4990 H   0  0  0  0  0  0  0  0  0  0  0  0
   39.7240   26.5190   42.9790 H   0  0  0  0  0  0  0  0  0  0  0  0
   39.4120   27.0100   44.7400 H   0  0  0  0  0  0  0  0  0  0  0  0
  1  6  1  0  0  0  0
  1 15  1  0  0  0  0
  2  1  2  0  0  0  0
  3  4  2  0  0  0  0
  3  2  1  0  0  0  0
  4  5  1  0  0  0  0
  5  8  1  0  0  0  0
  5  6  2  0  0  0  0
  7  3  1  0  0  0  0
  9 10  2  0  0  0  0
  9  2  1  0  0  0  0
 10 11  1  0  0  0  0
 12 10  1  0  0  0  0
 13 14  1  0  0  0  0
 13 12  2  0  0  0  0
 14  9  1  0  0  0  0
 15 18  1  0  0  0  0
 15 17  1  0  0  0  0
 16 15  1  0  0  0  0
 18 21  1  0  0  0  0
 19 18  1  0  0  0  0
 20 18  1  0  0  0  0
M  END
>  <minimizedAffinity>
-3.72376466

$$$$

 OpenBabel03252500533D

 21 22  0  0  0  0  0  0  0  0999 V2000
   37.9090   26.5360   42.3770 C   0  0  0  0  0  0  0  0  0  0  0  0
   37.7840   27.7140   41.6720 C   0  0  0  0  0  0  0  0  0  0  0  0
   38.7930   28.7000   41.8730 C   0  0  0  0  0  0  0  0  0  0  0  0
   39.8020   28.4280   42.7360 N   0  0  0  0  0  0  0  0  0  0  0  0
   39.8720   27.2650   43.3960 C   0  0  0  0  0  0  0  0  0  0  0  0
   38.9490   26.3350   43.2250 N   0  0  0  0  0  0  0  0  0  0  0  0
   38.8780   29.6680   41.4250 H   0  0  0  0  0  0  0  0  0  0  0  0
   40.6760   27.0510   44.0840 H   0  0  0  0  0  0  0  0  0  0  0  0
   36.7150   28.1120   40.8310 C   0  0  0  0  0  0  0  0  0  0  0  0
   35.5730   28.9560   40.8990 C   0  0  0  0  0  0  0  0  0  0  0  0
   35.2970   29.4990   41.7700 H   0  0  0  0  0  0  0  0  0  0  0  0
   34.8190   29.0970   39.7980 C   0  0  0  0  0  3  0  0  0  0  0  0
   35.0900   28.4680   38.5970 C   0  0  0  0  0  3  0  0  0  0  0  0
   36.6480   27.5270   39.0840 S   0  0  0  0  0  0  0  0  0  0  0  0
   36.9490   25.4490   42.1930 C   0  0  0  0  0  0  0  0  0  0  0  0
   36.3680   25.3040   43.1370 H   0  0  0  0  0  0  0  0  0  0  0  0
   36.2370   25.7120   41.3990 H   0  0  0  0  0  0  0  0  0  0  0  0
   37.6740   24.1730   41.8610 C   0  0  0  0  0  0  0  0  0  0  0  0
   37.5720   23.4980   42.7630 H   0  0  0  0  0  0  0  0  0  0  0  0
   38.7710   24.3140   41.6810 H   0  0  0  0  0  0  0  0  0  0  0  0
   37.1910   23.5770   41.0500 H   0  0  0  0  0  0  0  0  0  0  0  0
  1  6  1  0  0  0  0
  2  3  1  0  0  0  0
  2  1  2  0  0  0  0
  3  4  2  0  0  0  0
  4  5  1  0  0  0  0
  5  8  1  0  0  0  0
  6  5  2  0  0  0  0
  7  3  1  0  0  0  0
  9 10  2  0  0  0  0
  9  2  1  0  0  0  0
 10 11  1  0  0  0  0
 12 10  1  0  0  0  0
 13 14  1  0  0  0  0
 13 12  2  0  0  0  0
 14  9  1  0  0  0  0
 15  1  1  0  0  0  0
 15 16  1  0  0  0  0
 17 15  1  0  0  0  0
 18 15  1  0  0  0  0
 18 19  1  0  0  0  0
 20 18  1  0  0  0  0
 21 18  1  0  0  0  0
M  END
>  <minimizedAffinity>
-3.70634365

$$$$
