
 OpenBabel03242510053D

 15 16  0  0  0  0  0  0  0  0999 V2000
   44.5720   35.7780   44.7030 C   0  0  0  0  0  0  0  0  0  0  0  0
   45.2760   35.5760   43.5000 C   0  0  0  0  0  0  0  0  0  0  0  0
   46.1500   34.4870   43.4360 C   0  0  0  0  0  0  0  0  0  0  0  0
   46.2710   33.6810   44.5420 N   0  0  0  0  0  0  0  0  0  0  0  0
   45.5650   33.9210   45.6830 C   0  0  0  0  0  0  0  0  0  0  0  0
   44.7220   34.9670   45.7560 N   0  0  0  0  0  0  0  0  0  0  0  0
   43.9060   36.6080   44.7550 H   0  0  0  0  0  0  0  0  0  0  0  0
   45.1950   36.1920   42.6290 H   0  0  0  0  0  0  0  0  0  0  0  0
   46.7070   34.2910   42.5440 H   0  0  0  0  0  0  0  0  0  0  0  0
   45.8790   32.9190   46.7020 C   0  0  0  0  0  0  0  0  0  0  0  0
   45.1270   32.8140   47.9210 C   0  0  0  0  0  0  0  0  0  0  0  0
   44.2980   33.4640   48.1490 H   0  0  0  0  0  0  0  0  0  0  0  0
   45.5070   31.8390   48.8050 C   0  0  0  0  0  0  0  0  0  0  0  0
   46.6140   30.9830   48.4840 C   0  0  0  0  0  0  0  0  0  0  0  0
   47.1280   31.6140   46.8350 S   0  0  0  0  0  0  0  0  0  0  0  0
  1  7  1  0  0  0  0
  1  6  1  0  0  0  0
  2  1  2  0  0  0  0
  3  2  1  0  0  0  0
  3  4  2  0  0  0  0
  4  5  1  0  0  0  0
  5  6  2  0  0  0  0
  5 10  1  0  0  0  0
  8  2  1  0  0  0  0
  9  3  1  0  0  0  0
 10 15  1  0  0  0  0
 10 11  2  0  0  0  0
 11 12  1  0  0  0  0
 11 13  1  0  0  0  0
 14 13  2  0  0  0  0
 15 14  1  0  0  0  0
M  END
>  <minimizedAffinity>
-4.14108419

>  <minimizedRMSD>
0.486318588

$$$$
