
 OpenBabel03252505263D

 40 43  0  0  1  0  0  0  0  0999 V2000
   38.8570   30.2960   41.7000 F   0  0  0  0  0  0  0  0  0  0  0  0
   37.9450   30.0540   40.7090 C   0  0  0  0  0  0  0  0  0  0  0  0
   37.7960   30.9990   39.7360 C   0  0  0  0  0  0  0  0  0  0  0  0
   36.8830   30.7620   38.7420 C   0  0  0  0  0  0  0  0  0  0  0  0
   36.1500   29.5900   38.7530 C   0  0  0  0  0  0  0  0  0  0  0  0
   36.2950   28.6440   39.7210 C   0  0  0  0  0  0  0  0  0  0  0  0
   37.2350   28.8970   40.7370 C   0  0  0  0  0  0  0  0  0  0  0  0
   36.7180   31.4720   37.9400 H   0  0  0  0  0  0  0  0  0  0  0  0
   35.4300   29.4100   37.9600 H   0  0  0  0  0  0  0  0  0  0  0  0
   35.7210   27.7320   39.7230 H   0  0  0  0  0  0  0  0  0  0  0  0
   37.3540   27.8830   41.7280 N   0  0  0  0  0  0  0  0  0  0  0  0
   37.4700   26.4550   41.6090 C   0  0  0  0  0  0  0  0  0  0  0  0
   38.6740   26.1420   42.5200 C   0  0  0  0  0  0  0  0  0  0  0  0
   38.7090   27.3120   43.4770 C   0  0  0  0  0  0  0  0  0  0  0  0
   37.3940   28.0000   43.1830 C   0  0  2  0  0  0  0  0  0  0  0  0
   36.5670   25.9260   41.9160 H   0  0  0  0  0  0  0  0  0  0  0  0
   37.7260   26.2290   40.5560 H   0  0  0  0  0  0  0  0  0  0  0  0
   38.4130   25.2000   43.0430 H   0  0  0  0  0  0  0  0  0  0  0  0
   39.6080   26.0480   41.9440 H   0  0  0  0  0  0  0  0  0  0  0  0
   39.5490   27.9680   43.2460 H   0  0  0  0  0  0  0  0  0  0  0  0
   38.7910   27.0010   44.5340 H   0  0  0  0  0  0  0  0  0  0  0  0
   37.5270   29.0660   43.4150 H   0  0  0  0  0  0  0  0  0  0  0  0
   36.2160   27.3970   43.8660 C   0  0  0  0  0  0  0  0  0  0  0  0
   36.2960   26.2960   43.9290 H   0  0  0  0  0  0  0  0  0  0  0  0
   35.3040   27.7720   43.3880 H   0  0  0  0  0  0  0  0  0  0  0  0
   36.2120   27.7770   44.9080 H   0  0  0  0  0  0  0  0  0  0  0  0
   38.8130   34.4640   40.3270 C   0  0  0  0  0  0  0  0  0  0  0  0
   40.1050   34.5360   39.8030 C   0  0  0  0  0  0  0  0  0  0  0  0
   40.5850   33.3540   39.2530 C   0  0  0  0  0  0  0  0  0  0  0  0
   39.8180   32.2500   39.2520 N   0  0  0  0  0  0  0  0  0  0  0  0
   38.5840   32.2190   39.7630 C   0  0  0  0  0  0  0  0  0  0  0  0
   38.0990   33.3330   40.2960 N   0  0  0  0  0  0  0  0  0  0  0  0
   38.4730   35.4010   40.7470 H   0  0  0  0  0  0  0  0  0  0  0  0
   40.7910   35.3480   39.7520 H   0  0  0  0  0  0  0  0  0  0  0  0
   41.8680   33.1580   38.6520 C   0  0  0  0  0  0  0  0  0  0  0  0
   42.9780   33.6910   39.1840 C   0  0  0  0  0  0  0  0  0  0  0  0
   43.2250   34.3150   40.0580 H   0  0  0  0  0  0  0  0  0  0  0  0
   44.2510   33.5890   38.7260 C   0  0  0  0  0  3  0  0  0  0  0  0
   44.2860   32.7590   37.4760 C   0  0  0  0  0  3  0  0  0  0  0  0
   42.4470   32.2880   37.2120 S   0  0  0  0  0  0  0  0  0  0  0  0
  2  7  1  0  0  0  0
  2  1  1  0  0  0  0
  3 31  1  0  0  0  0
  3  2  2  0  0  0  0
  4  5  2  0  0  0  0
  4  3  1  0  0  0  0
  5  6  1  0  0  0  0
  6 10  1  0  0  0  0
  6  7  2  0  0  0  0
  7 11  1  0  0  0  0
  8  4  1  0  0  0  0
  9  5  1  0  0  0  0
 11 15  1  0  0  0  0
 12 11  1  0  0  0  0
 12 16  1  0  0  0  0
 12 13  1  0  0  0  0
 13 18  1  0  0  0  0
 13 14  1  0  0  0  0
 14 21  1  0  0  0  0
 15 22  1  1  0  0  0
 15 14  1  0  0  0  0
 15 23  1  0  0  0  0
 17 12  1  0  0  0  0
 19 13  1  0  0  0  0
 20 14  1  0  0  0  0
 23 24  1  0  0  0  0
 23 26  1  0  0  0  0
 25 23  1  0  0  0  0
 27 33  1  0  0  0  0
 28 27  2  0  0  0  0
 29 28  1  0  0  0  0
 30 29  2  0  0  0  0
 30 31  1  0  0  0  0
 31 32  2  0  0  0  0
 32 27  1  0  0  0  0
 34 28  1  0  0  0  0
 35 36  2  0  0  0  0
 35 29  1  0  0  0  0
 36 37  1  0  0  0  0
 38 36  1  0  0  0  0
 39 38  2  0  0  0  0
 40 39  1  0  0  0  0
 40 35  1  0  0  0  0
M  END
>  <minimizedAffinity>
-6.0543437

$$$$

 OpenBabel03252505263D

 40 43  0  0  1  0  0  0  0  0999 V2000
   40.2350   30.4080   41.6610 F   0  0  0  0  0  0  0  0  0  0  0  0
   38.9970   30.8040   41.2330 C   0  0  0  0  0  0  0  0  0  0  0  0
   38.9210   31.9060   40.4320 C   0  0  0  0  0  0  0  0  0  0  0  0
   37.6830   32.3060   40.0020 C   0  0  0  0  0  0  0  0  0  0  0  0
   36.5630   31.5930   40.3860 C   0  0  0  0  0  0  0  0  0  0  0  0
   36.6330   30.4930   41.1840 C   0  0  0  0  0  0  0  0  0  0  0  0
   37.9090   30.0900   41.6200 C   0  0  0  0  0  0  0  0  0  0  0  0
   37.5560   33.1730   39.3640 H   0  0  0  0  0  0  0  0  0  0  0  0
   35.5860   31.9170   40.0390 H   0  0  0  0  0  0  0  0  0  0  0  0
   35.7560   29.9410   41.4790 H   0  0  0  0  0  0  0  0  0  0  0  0
   37.9360   28.9360   42.4530 N   0  0  0  0  0  0  0  0  0  0  0  0
   37.4350   28.7190   43.7830 C   0  0  0  0  0  0  0  0  0  0  0  0
   36.6380   27.4080   43.6290 C   0  0  0  0  0  0  0  0  0  0  0  0
   37.2630   26.7520   42.4190 C   0  0  0  0  0  0  0  0  0  0  0  0
   38.4890   27.6100   42.1920 C   0  0  2  0  0  0  0  0  0  0  0  0
   38.2270   28.6400   44.5290 H   0  0  0  0  0  0  0  0  0  0  0  0
   36.7460   29.5530   44.0190 H   0  0  0  0  0  0  0  0  0  0  0  0
   36.8390   26.8290   44.5520 H   0  0  0  0  0  0  0  0  0  0  0  0
   35.5620   27.5990   43.4890 H   0  0  0  0  0  0  0  0  0  0  0  0
   36.5880   26.8100   41.5640 H   0  0  0  0  0  0  0  0  0  0  0  0
   37.5200   25.6920   42.5890 H   0  0  0  0  0  0  0  0  0  0  0  0
   38.7210   27.5650   41.1190 H   0  0  0  0  0  0  0  0  0  0  0  0
   39.6510   27.2650   43.0560 C   0  0  0  0  0  0  0  0  0  0  0  0
   39.3340   26.9580   44.0700 H   0  0  0  0  0  0  0  0  0  0  0  0
   40.3710   28.0900   43.0230 H   0  0  0  0  0  0  0  0  0  0  0  0
   40.1490   26.3850   42.5990 H   0  0  0  0  0  0  0  0  0  0  0  0
   41.5110   34.4850   40.2550 C   0  0  0  0  0  0  0  0  0  0  0  0
   42.4210   33.9930   39.3190 C   0  0  0  0  0  0  0  0  0  0  0  0
   42.0950   32.7580   38.7720 C   0  0  0  0  0  0  0  0  0  0  0  0
   40.9720   32.1260   39.1540 N   0  0  0  0  0  0  0  0  0  0  0  0
   40.1230   32.6290   40.0550 C   0  0  0  0  0  0  0  0  0  0  0  0
   40.4090   33.8070   40.5940 N   0  0  0  0  0  0  0  0  0  0  0  0
   41.7970   35.4470   40.6600 H   0  0  0  0  0  0  0  0  0  0  0  0
   43.3290   34.4050   38.9480 H   0  0  0  0  0  0  0  0  0  0  0  0
   42.8520   32.0360   37.7960 C   0  0  0  0  0  0  0  0  0  0  0  0
   42.2800   31.1090   37.0120 C   0  0  0  0  0  0  0  0  0  0  0  0
   41.2710   30.6860   36.8830 H   0  0  0  0  0  0  0  0  0  0  0  0
   42.8700   30.3530   36.0530 C   0  0  0  0  0  3  0  0  0  0  0  0
   44.3290   30.6870   35.9550 C   0  0  0  0  0  3  0  0  0  0  0  0
   44.5570   32.0450   37.2880 S   0  0  0  0  0  0  0  0  0  0  0  0
  2  7  1  0  0  0  0
  2  1  1  0  0  0  0
  3  2  2  0  0  0  0
  4  5  2  0  0  0  0
  4  3  1  0  0  0  0
  5  6  1  0  0  0  0
  6 10  1  0  0  0  0
  6  7  2  0  0  0  0
  7 11  1  0  0  0  0
  8  4  1  0  0  0  0
  9  5  1  0  0  0  0
 11 12  1  0  0  0  0
 12 17  1  0  0  0  0
 12 16  1  0  0  0  0
 13 12  1  0  0  0  0
 13 18  1  0  0  0  0
 14 21  1  0  0  0  0
 14 13  1  0  0  0  0
 15 22  1  6  0  0  0
 15 14  1  0  0  0  0
 15 11  1  0  0  0  0
 15 23  1  0  0  0  0
 19 13  1  0  0  0  0
 20 14  1  0  0  0  0
 23 24  1  0  0  0  0
 25 23  1  0  0  0  0
 26 23  1  0  0  0  0
 27 32  1  0  0  0  0
 27 33  1  0  0  0  0
 28 27  2  0  0  0  0
 29 30  2  0  0  0  0
 29 28  1  0  0  0  0
 30 31  1  0  0  0  0
 31  3  1  0  0  0  0
 31 32  2  0  0  0  0
 34 28  1  0  0  0  0
 35 29  1  0  0  0  0
 36 35  2  0  0  0  0
 37 36  1  0  0  0  0
 38 36  1  0  0  0  0
 39 38  2  0  0  0  0
 39 40  1  0  0  0  0
 40 35  1  0  0  0  0
M  END
>  <minimizedAffinity>
-6.01036119

$$$$

 OpenBabel03252505263D

 40 43  0  0  1  0  0  0  0  0999 V2000
   38.2560   27.3110   39.6690 F   0  0  0  0  0  0  0  0  0  0  0  0
   38.0340   27.9020   40.8830 C   0  0  0  0  0  0  0  0  0  0  0  0
   37.8780   29.2570   40.9140 C   0  0  0  0  0  0  0  0  0  0  0  0
   37.6570   29.8540   42.1280 C   0  0  0  0  0  0  0  0  0  0  0  0
   37.5980   29.0780   43.2700 C   0  0  0  0  0  0  0  0  0  0  0  0
   37.7530   27.7250   43.2450 C   0  0  0  0  0  0  0  0  0  0  0  0
   37.9800   27.1230   41.9930 C   0  0  0  0  0  0  0  0  0  0  0  0
   37.5240   30.9250   42.2190 H   0  0  0  0  0  0  0  0  0  0  0  0
   37.4210   29.5590   44.2270 H   0  0  0  0  0  0  0  0  0  0  0  0
   37.7060   27.1250   44.1390 H   0  0  0  0  0  0  0  0  0  0  0  0
   38.1360   25.7080   42.0140 N   0  0  0  0  0  0  0  0  0  0  0  0
   37.1710   24.6540   42.1680 C   0  0  0  0  0  0  0  0  0  0  0  0
   37.5190   23.7110   40.9980 C   0  0  0  0  0  0  0  0  0  0  0  0
   38.9670   24.0320   40.7020 C   0  0  0  0  0  0  0  0  0  0  0  0
   39.3450   24.9010   41.8820 C   0  0  2  0  0  0  0  0  0  0  0  0
   37.2330   24.1560   43.1370 H   0  0  0  0  0  0  0  0  0  0  0  0
   36.1680   25.0950   42.0100 H   0  0  0  0  0  0  0  0  0  0  0  0
   37.4070   22.6840   41.4010 H   0  0  0  0  0  0  0  0  0  0  0  0
   36.8680   23.8840   40.1260 H   0  0  0  0  0  0  0  0  0  0  0  0
   39.0490   24.5900   39.7690 H   0  0  0  0  0  0  0  0  0  0  0  0
   39.6000   23.1310   40.6270 H   0  0  0  0  0  0  0  0  0  0  0  0
   40.1450   25.5750   41.5440 H   0  0  0  0  0  0  0  0  0  0  0  0
   39.7000   24.1460   43.1150 C   0  0  0  0  0  0  0  0  0  0  0  0
   39.0800   23.2390   43.2350 H   0  0  0  0  0  0  0  0  0  0  0  0
   39.6860   24.8370   43.9650 H   0  0  0  0  0  0  0  0  0  0  0  0
   40.7490   23.8030   42.9980 H   0  0  0  0  0  0  0  0  0  0  0  0
   37.0820   30.6170   37.6110 C   0  0  0  0  0  0  0  0  0  0  0  0
   38.1050   31.5340   37.3620 C   0  0  0  0  0  0  0  0  0  0  0  0
   39.0530   31.6480   38.3710 C   0  0  0  0  0  0  0  0  0  0  0  0
   38.9440   30.9060   39.4870 N   0  0  0  0  0  0  0  0  0  0  0  0
   37.9500   30.0370   39.6910 C   0  0  0  0  0  0  0  0  0  0  0  0
   37.0290   29.9070   38.7430 N   0  0  0  0  0  0  0  0  0  0  0  0
   36.3630   30.5550   36.8050 H   0  0  0  0  0  0  0  0  0  0  0  0
   38.2850   32.1650   36.5250 H   0  0  0  0  0  0  0  0  0  0  0  0
   40.1960   32.5090   38.3690 C   0  0  0  0  0  0  0  0  0  0  0  0
   41.1130   32.4500   37.3920 C   0  0  0  0  0  0  0  0  0  0  0  0
   41.2660   31.8590   36.4740 H   0  0  0  0  0  0  0  0  0  0  0  0
   42.2370   33.1970   37.2610 C   0  0  0  0  0  3  0  0  0  0  0  0
   42.3520   34.1640   38.4040 C   0  0  0  0  0  3  0  0  0  0  0  0
   40.7900   33.7900   39.4500 S   0  0  0  0  0  0  0  0  0  0  0  0
  1  2  1  0  0  0  0
  2  3  2  0  0  0  0
  2  7  1  0  0  0  0
  3  4  1  0  0  0  0
  4  8  1  0  0  0  0
  4  5  2  0  0  0  0
  5  9  1  0  0  0  0
  6  5  1  0  0  0  0
  6 10  1  0  0  0  0
  7 11  1  0  0  0  0
  7  6  2  0  0  0  0
 11 12  1  0  0  0  0
 12 16  1  0  0  0  0
 13 18  1  0  0  0  0
 13 12  1  0  0  0  0
 14 13  1  0  0  0  0
 14 15  1  0  0  0  0
 15 22  1  6  0  0  0
 15 11  1  0  0  0  0
 15 23  1  0  0  0  0
 17 12  1  0  0  0  0
 19 13  1  0  0  0  0
 20 14  1  0  0  0  0
 21 14  1  0  0  0  0
 23 24  1  0  0  0  0
 23 25  1  0  0  0  0
 26 23  1  0  0  0  0
 27 32  1  0  0  0  0
 28 27  2  0  0  0  0
 28 29  1  0  0  0  0
 29 30  2  0  0  0  0
 30 31  1  0  0  0  0
 31  3  1  0  0  0  0
 32 31  2  0  0  0  0
 33 27  1  0  0  0  0
 34 28  1  0  0  0  0
 35 29  1  0  0  0  0
 35 40  1  0  0  0  0
 36 35  2  0  0  0  0
 37 36  1  0  0  0  0
 38 36  1  0  0  0  0
 38 39  2  0  0  0  0
 39 40  1  0  0  0  0
M  END
>  <minimizedAffinity>
-5.87341833

$$$$

 OpenBabel03252505263D

 40 43  0  0  1  0  0  0  0  0999 V2000
   37.9020   28.2190   39.6960 F   0  0  0  0  0  0  0  0  0  0  0  0
   37.6770   28.0620   41.0370 C   0  0  0  0  0  0  0  0  0  0  0  0
   37.6520   29.1830   41.8150 C   0  0  0  0  0  0  0  0  0  0  0  0
   37.4290   29.0310   43.1580 C   0  0  0  0  0  0  0  0  0  0  0  0
   37.2360   27.7650   43.6800 C   0  0  0  0  0  0  0  0  0  0  0  0
   37.2590   26.6440   42.9080 C   0  0  0  0  0  0  0  0  0  0  0  0
   37.4900   26.8110   41.5300 C   0  0  0  0  0  0  0  0  0  0  0  0
   37.3970   29.8810   43.8290 H   0  0  0  0  0  0  0  0  0  0  0  0
   37.0580   27.6550   44.7450 H   0  0  0  0  0  0  0  0  0  0  0  0
   37.1080   25.6600   43.3210 H   0  0  0  0  0  0  0  0  0  0  0  0
   37.5060   25.6130   40.7620 N   0  0  0  0  0  0  0  0  0  0  0  0
   38.4780   24.5570   40.6800 C   0  0  0  0  0  0  0  0  0  0  0  0
   37.6120   23.2930   40.8580 C   0  0  0  0  0  0  0  0  0  0  0  0
   36.2340   23.7450   40.4290 C   0  0  0  0  0  0  0  0  0  0  0  0
   36.5210   25.0980   39.8160 C   0  0  2  0  0  0  0  0  0  0  0  0
   39.0290   24.5550   39.7390 H   0  0  0  0  0  0  0  0  0  0  0  0
   39.1630   24.6670   41.5430 H   0  0  0  0  0  0  0  0  0  0  0  0
   38.0290   22.5460   40.1530 H   0  0  0  0  0  0  0  0  0  0  0  0
   37.6260   22.9310   41.8980 H   0  0  0  0  0  0  0  0  0  0  0  0
   35.5790   23.8440   41.2960 H   0  0  0  0  0  0  0  0  0  0  0  0
   35.7580   23.0530   39.7120 H   0  0  0  0  0  0  0  0  0  0  0  0
   35.6130   25.7060   39.9350 H   0  0  0  0  0  0  0  0  0  0  0  0
   37.0090   25.0470   38.4100 C   0  0  0  0  0  0  0  0  0  0  0  0
   37.6670   24.1760   38.2340 H   0  0  0  0  0  0  0  0  0  0  0  0
   37.4430   26.0190   38.1540 H   0  0  0  0  0  0  0  0  0  0  0  0
   36.1200   24.9120   37.7600 H   0  0  0  0  0  0  0  0  0  0  0  0
   37.0430   32.3580   40.0990 C   0  0  0  0  0  0  0  0  0  0  0  0
   38.2830   32.9970   40.1110 C   0  0  0  0  0  0  0  0  0  0  0  0
   39.3070   32.2870   40.7260 C   0  0  0  0  0  0  0  0  0  0  0  0
   39.0640   31.0770   41.2570 N   0  0  0  0  0  0  0  0  0  0  0  0
   37.8620   30.4950   41.2270 C   0  0  0  0  0  0  0  0  0  0  0  0
   36.8640   31.1490   40.6460 N   0  0  0  0  0  0  0  0  0  0  0  0
   36.2700   32.9380   39.6130 H   0  0  0  0  0  0  0  0  0  0  0  0
   38.5820   33.9420   39.7250 H   0  0  0  0  0  0  0  0  0  0  0  0
   40.6650   32.7130   40.8730 C   0  0  0  0  0  0  0  0  0  0  0  0
   41.0670   33.9240   40.4600 C   0  0  0  0  0  0  0  0  0  0  0  0
   40.6010   34.7990   39.9800 H   0  0  0  0  0  0  0  0  0  0  0  0
   42.3130   34.4560   40.5340 C   0  0  0  0  0  3  0  0  0  0  0  0
   43.2560   33.4780   41.1710 C   0  0  0  0  0  3  0  0  0  0  0  0
   42.1360   31.9670   41.5380 S   0  0  0  0  0  0  0  0  0  0  0  0
  1  2  1  0  0  0  0
  2  7  2  0  0  0  0
  2  3  1  0  0  0  0
  3  4  2  0  0  0  0
  4  5  1  0  0  0  0
  4  8  1  0  0  0  0
  5  9  1  0  0  0  0
  6 10  1  0  0  0  0
  6  5  2  0  0  0  0
  7  6  1  0  0  0  0
 11  7  1  0  0  0  0
 12 11  1  0  0  0  0
 12 13  1  0  0  0  0
 12 17  1  0  0  0  0
 13 19  1  0  0  0  0
 14 13  1  0  0  0  0
 14 20  1  0  0  0  0
 15 22  1  1  0  0  0
 15 14  1  0  0  0  0
 15 11  1  0  0  0  0
 16 12  1  0  0  0  0
 18 13  1  0  0  0  0
 21 14  1  0  0  0  0
 23 15  1  0  0  0  0
 24 23  1  0  0  0  0
 25 23  1  0  0  0  0
 26 23  1  0  0  0  0
 27 28  2  0  0  0  0
 27 32  1  0  0  0  0
 28 29  1  0  0  0  0
 29 35  1  0  0  0  0
 29 30  2  0  0  0  0
 31 30  1  0  0  0  0
 31  3  1  0  0  0  0
 32 31  2  0  0  0  0
 33 27  1  0  0  0  0
 34 28  1  0  0  0  0
 35 40  1  0  0  0  0
 36 38  1  0  0  0  0
 36 35  2  0  0  0  0
 37 36  1  0  0  0  0
 38 39  2  0  0  0  0
 39 40  1  0  0  0  0
M  END
>  <minimizedAffinity>
-5.86024189

$$$$

 OpenBabel03252505263D

 40 43  0  0  1  0  0  0  0  0999 V2000
   40.1540   30.2040   41.1380 F   0  0  0  0  0  0  0  0  0  0  0  0
   39.0930   30.9290   40.6670 C   0  0  0  0  0  0  0  0  0  0  0  0
   37.8370   30.4830   40.9570 C   0  0  0  0  0  0  0  0  0  0  0  0
   36.7720   31.2060   40.4860 C   0  0  0  0  0  0  0  0  0  0  0  0
   36.9960   32.3480   39.7420 C   0  0  0  0  0  0  0  0  0  0  0  0
   38.2480   32.7980   39.4500 C   0  0  0  0  0  0  0  0  0  0  0  0
   39.3350   32.0490   39.9380 C   0  0  0  0  0  0  0  0  0  0  0  0
   35.7490   30.9050   40.6820 H   0  0  0  0  0  0  0  0  0  0  0  0
   36.1460   32.9140   39.3740 H   0  0  0  0  0  0  0  0  0  0  0  0
   38.4160   33.6900   38.8690 H   0  0  0  0  0  0  0  0  0  0  0  0
   40.6240   32.5540   39.6090 N   0  0  0  0  0  0  0  0  0  0  0  0
   41.5410   32.1940   38.5620 C   0  0  0  0  0  0  0  0  0  0  0  0
   41.9070   33.5630   37.9530 C   0  0  0  0  0  0  0  0  0  0  0  0
   41.6300   34.5360   39.0760 C   0  0  0  0  0  0  0  0  0  0  0  0
   41.4050   33.6080   40.2510 C   0  0  2  0  0  0  0  0  0  0  0  0
   42.4160   31.6540   38.9280 H   0  0  0  0  0  0  0  0  0  0  0  0
   40.9800   31.5900   37.8220 H   0  0  0  0  0  0  0  0  0  0  0  0
   42.9900   33.5060   37.7250 H   0  0  0  0  0  0  0  0  0  0  0  0
   41.3070   33.7830   37.0550 H   0  0  0  0  0  0  0  0  0  0  0  0
   40.7310   35.1160   38.8650 H   0  0  0  0  0  0  0  0  0  0  0  0
   42.4640   35.2380   39.2520 H   0  0  0  0  0  0  0  0  0  0  0  0
   40.7310   34.1260   40.9480 H   0  0  0  0  0  0  0  0  0  0  0  0
   42.6530   33.1190   40.8990 C   0  0  0  0  0  0  0  0  0  0  0  0
   43.4570   32.9410   40.1610 H   0  0  0  0  0  0  0  0  0  0  0  0
   42.4060   32.2630   41.5350 H   0  0  0  0  0  0  0  0  0  0  0  0
   43.0100   33.9270   41.5710 H   0  0  0  0  0  0  0  0  0  0  0  0
   37.4730   28.2100   43.8020 C   0  0  0  0  0  0  0  0  0  0  0  0
   37.2760   26.9580   43.2170 C   0  0  0  0  0  0  0  0  0  0  0  0
   37.2760   26.9500   41.8280 C   0  0  0  0  0  0  0  0  0  0  0  0
   37.4570   28.0940   41.1460 N   0  0  0  0  0  0  0  0  0  0  0  0
   37.6440   29.2760   41.7400 C   0  0  0  0  0  0  0  0  0  0  0  0
   37.6480   29.3140   43.0670 N   0  0  0  0  0  0  0  0  0  0  0  0
   37.4670   28.1790   44.8830 H   0  0  0  0  0  0  0  0  0  0  0  0
   37.1240   26.0010   43.6560 H   0  0  0  0  0  0  0  0  0  0  0  0
   37.0970   25.8060   40.9860 C   0  0  0  0  0  0  0  0  0  0  0  0
   37.3560   24.5660   41.4260 C   0  0  0  0  0  0  0  0  0  0  0  0
   37.7120   24.1100   42.3640 H   0  0  0  0  0  0  0  0  0  0  0  0
   37.2330   23.4000   40.7450 C   0  0  0  0  0  3  0  0  0  0  0  0
   36.7420   23.6640   39.3520 C   0  0  0  0  0  3  0  0  0  0  0  0
   36.5550   25.5710   39.3090 S   0  0  0  0  0  0  0  0  0  0  0  0
  2  3  1  0  0  0  0
  2  1  1  0  0  0  0
  3 31  1  0  0  0  0
  4  8  1  0  0  0  0
  4  3  2  0  0  0  0
  5  4  1  0  0  0  0
  6  5  2  0  0  0  0
  6  7  1  0  0  0  0
  7  2  2  0  0  0  0
  9  5  1  0  0  0  0
 10  6  1  0  0  0  0
 11  7  1  0  0  0  0
 11 15  1  0  0  0  0
 12 16  1  0  0  0  0
 12 11  1  0  0  0  0
 13 12  1  0  0  0  0
 13 14  1  0  0  0  0
 14 21  1  0  0  0  0
 14 15  1  0  0  0  0
 15 23  1  0  0  0  0
 15 22  1  1  0  0  0
 17 12  1  0  0  0  0
 18 13  1  0  0  0  0
 19 13  1  0  0  0  0
 20 14  1  0  0  0  0
 23 25  1  0  0  0  0
 23 26  1  0  0  0  0
 24 23  1  0  0  0  0
 27 33  1  0  0  0  0
 28 34  1  0  0  0  0
 28 27  1  0  0  0  0
 29 28  2  0  0  0  0
 30 31  2  0  0  0  0
 30 29  1  0  0  0  0
 31 32  1  0  0  0  0
 32 27  2  0  0  0  0
 35 36  2  0  0  0  0
 35 29  1  0  0  0  0
 36 37  1  0  0  0  0
 38 36  1  0  0  0  0
 39 38  2  0  0  0  0
 40 39  1  0  0  0  0
 40 35  1  0  0  0  0
M  END
>  <minimizedAffinity>
-5.78894663

$$$$

 OpenBabel03252505263D

 40 43  0  0  1  0  0  0  0  0999 V2000
   39.6100   30.2610   38.1020 F   0  0  0  0  0  0  0  0  0  0  0  0
   38.9970   31.3060   38.7390 C   0  0  0  0  0  0  0  0  0  0  0  0
   37.6750   31.1740   39.0520 C   0  0  0  0  0  0  0  0  0  0  0  0
   37.0560   32.2180   39.6890 C   0  0  0  0  0  0  0  0  0  0  0  0
   37.7770   33.3570   39.9920 C   0  0  0  0  0  0  0  0  0  0  0  0
   39.0960   33.4940   39.6820 C   0  0  0  0  0  0  0  0  0  0  0  0
   39.7220   32.4160   39.0280 C   0  0  0  0  0  0  0  0  0  0  0  0
   36.0090   32.1750   39.9650 H   0  0  0  0  0  0  0  0  0  0  0  0
   37.2780   34.1790   40.4970 H   0  0  0  0  0  0  0  0  0  0  0  0
   39.6520   34.3850   39.9210 H   0  0  0  0  0  0  0  0  0  0  0  0
   41.0990   32.6030   38.7230 N   0  0  0  0  0  0  0  0  0  0  0  0
   42.2850   32.2680   39.4640 C   0  0  0  0  0  0  0  0  0  0  0  0
   43.1400   31.5350   38.4110 C   0  0  0  0  0  0  0  0  0  0  0  0
   42.6080   32.0570   37.0960 C   0  0  0  0  0  0  0  0  0  0  0  0
   41.7220   33.1990   37.5440 C   0  0  2  0  0  0  0  0  0  0  0  0
   42.7910   33.1420   39.8770 H   0  0  0  0  0  0  0  0  0  0  0  0
   41.9880   31.5630   40.2650 H   0  0  0  0  0  0  0  0  0  0  0  0
   44.1810   31.8720   38.5890 H   0  0  0  0  0  0  0  0  0  0  0  0
   43.0410   30.4410   38.4950 H   0  0  0  0  0  0  0  0  0  0  0  0
   42.0230   31.2880   36.5910 H   0  0  0  0  0  0  0  0  0  0  0  0
   43.4070   32.3920   36.4110 H   0  0  0  0  0  0  0  0  0  0  0  0
   40.9320   33.3110   36.7870 H   0  0  0  0  0  0  0  0  0  0  0  0
   42.4460   34.4680   37.8260 C   0  0  0  0  0  0  0  0  0  0  0  0
   43.4360   34.2850   38.2840 H   0  0  0  0  0  0  0  0  0  0  0  0
   41.7850   35.1310   38.3940 H   0  0  0  0  0  0  0  0  0  0  0  0
   42.6330   34.9620   36.8490 H   0  0  0  0  0  0  0  0  0  0  0  0
   35.5000   28.7950   37.3180 C   0  0  0  0  0  0  0  0  0  0  0  0
   35.5830   27.6330   38.0860 C   0  0  0  0  0  0  0  0  0  0  0  0
   36.4090   27.7190   39.2000 C   0  0  0  0  0  0  0  0  0  0  0  0
   37.0570   28.8650   39.4720 N   0  0  0  0  0  0  0  0  0  0  0  0
   36.9530   29.9600   38.7140 C   0  0  0  0  0  0  0  0  0  0  0  0
   36.1720   29.9070   37.6420 N   0  0  0  0  0  0  0  0  0  0  0  0
   34.8500   28.6920   36.4600 H   0  0  0  0  0  0  0  0  0  0  0  0
   35.1190   26.6840   37.9630 H   0  0  0  0  0  0  0  0  0  0  0  0
   36.6670   26.6790   40.1470 C   0  0  0  0  0  0  0  0  0  0  0  0
   36.9460   26.9540   41.4300 C   0  0  0  0  0  0  0  0  0  0  0  0
   37.0470   27.8610   42.0480 H   0  0  0  0  0  0  0  0  0  0  0  0
   37.2100   26.0770   42.4300 C   0  0  0  0  0  3  0  0  0  0  0  0
   37.1520   24.6690   41.9120 C   0  0  0  0  0  3  0  0  0  0  0  0
   36.7230   24.9030   40.0590 S   0  0  0  0  0  0  0  0  0  0  0  0
  1  2  1  0  0  0  0
  2  7  2  0  0  0  0
  2  3  1  0  0  0  0
  3  4  2  0  0  0  0
  4  8  1  0  0  0  0
  4  5  1  0  0  0  0
  5  9  1  0  0  0  0
  6 10  1  0  0  0  0
  6  5  2  0  0  0  0
  7  6  1  0  0  0  0
 11  7  1  0  0  0  0
 11 12  1  0  0  0  0
 12 16  1  0  0  0  0
 12 17  1  0  0  0  0
 13 19  1  0  0  0  0
 13 18  1  0  0  0  0
 13 12  1  0  0  0  0
 14 15  1  0  0  0  0
 14 13  1  0  0  0  0
 15 22  1  6  0  0  0
 15 23  1  0  0  0  0
 15 11  1  0  0  0  0
 20 14  1  0  0  0  0
 21 14  1  0  0  0  0
 23 24  1  0  0  0  0
 23 25  1  0  0  0  0
 26 23  1  0  0  0  0
 27 32  2  0  0  0  0
 27 28  1  0  0  0  0
 28 29  2  0  0  0  0
 29 30  1  0  0  0  0
 29 35  1  0  0  0  0
 31  3  1  0  0  0  0
 31 30  2  0  0  0  0
 32 31  1  0  0  0  0
 33 27  1  0  0  0  0
 34 28  1  0  0  0  0
 35 36  2  0  0  0  0
 36 37  1  0  0  0  0
 36 38  1  0  0  0  0
 39 38  2  0  0  0  0
 40 35  1  0  0  0  0
 40 39  1  0  0  0  0
M  END
>  <minimizedAffinity>
-5.56547403

$$$$

 OpenBabel03252505263D

 40 43  0  0  1  0  0  0  0  0999 V2000
   37.8180   28.1480   39.3650 F   0  0  0  0  0  0  0  0  0  0  0  0
   37.8000   28.1190   40.7330 C   0  0  0  0  0  0  0  0  0  0  0  0
   37.8760   29.3080   41.3970 C   0  0  0  0  0  0  0  0  0  0  0  0
   37.8590   29.2840   42.7670 C   0  0  0  0  0  0  0  0  0  0  0  0
   37.7660   28.0740   43.4280 C   0  0  0  0  0  0  0  0  0  0  0  0
   37.6900   26.8840   42.7700 C   0  0  0  0  0  0  0  0  0  0  0  0
   37.7090   26.9200   41.3630 C   0  0  0  0  0  0  0  0  0  0  0  0
   37.9150   30.1940   43.3520 H   0  0  0  0  0  0  0  0  0  0  0  0
   37.7520   28.0650   44.5130 H   0  0  0  0  0  0  0  0  0  0  0  0
   37.6180   25.9440   43.2910 H   0  0  0  0  0  0  0  0  0  0  0  0
   37.6280   25.6550   40.7170 N   0  0  0  0  0  0  0  0  0  0  0  0
   38.5500   24.5520   40.6800 C   0  0  0  0  0  0  0  0  0  0  0  0
   37.6480   23.3520   41.0340 C   0  0  0  0  0  0  0  0  0  0  0  0
   36.2640   23.8220   40.6480 C   0  0  0  0  0  0  0  0  0  0  0  0
   36.5630   25.0960   39.8880 C   0  0  2  0  0  0  0  0  0  0  0  0
   39.0380   24.4360   39.7120 H   0  0  0  0  0  0  0  0  0  0  0  0
   39.2940   24.7140   41.4850 H   0  0  0  0  0  0  0  0  0  0  0  0
   37.9900   22.5230   40.3820 H   0  0  0  0  0  0  0  0  0  0  0  0
   37.7160   23.0910   42.1020 H   0  0  0  0  0  0  0  0  0  0  0  0
   35.6720   24.0340   41.5400 H   0  0  0  0  0  0  0  0  0  0  0  0
   35.7160   23.0870   40.0330 H   0  0  0  0  0  0  0  0  0  0  0  0
   35.6900   25.7540   40.0030 H   0  0  0  0  0  0  0  0  0  0  0  0
   36.9560   24.8890   38.4670 C   0  0  0  0  0  0  0  0  0  0  0  0
   37.5670   23.9760   38.3380 H   0  0  0  0  0  0  0  0  0  0  0  0
   37.4110   25.8120   38.0910 H   0  0  0  0  0  0  0  0  0  0  0  0
   36.0220   24.7330   37.8890 H   0  0  0  0  0  0  0  0  0  0  0  0
   37.0830   32.6210   40.0570 C   0  0  0  0  0  0  0  0  0  0  0  0
   38.1810   32.9380   39.2570 C   0  0  0  0  0  0  0  0  0  0  0  0
   39.1770   31.9700   39.2100 C   0  0  0  0  0  0  0  0  0  0  0  0
   39.0410   30.8290   39.9070 N   0  0  0  0  0  0  0  0  0  0  0  0
   37.9740   30.5590   40.6640 C   0  0  0  0  0  0  0  0  0  0  0  0
   37.0070   31.4650   40.7280 N   0  0  0  0  0  0  0  0  0  0  0  0
   36.3290   33.3960   40.0700 H   0  0  0  0  0  0  0  0  0  0  0  0
   38.3880   33.8010   38.6700 H   0  0  0  0  0  0  0  0  0  0  0  0
   40.3990   32.0450   38.4690 C   0  0  0  0  0  0  0  0  0  0  0  0
   40.8800   30.9830   37.8060 C   0  0  0  0  0  0  0  0  0  0  0  0
   40.5730   29.9370   37.6420 H   0  0  0  0  0  0  0  0  0  0  0  0
   42.0160   30.9090   37.0690 C   0  0  0  0  0  3  0  0  0  0  0  0
   42.7240   32.2320   37.0750 C   0  0  0  0  0  3  0  0  0  0  0  0
   41.5890   33.3290   38.1610 S   0  0  0  0  0  0  0  0  0  0  0  0
  1  2  1  0  0  0  0
  2  7  2  0  0  0  0
  2  3  1  0  0  0  0
  3  4  2  0  0  0  0
  4  8  1  0  0  0  0
  4  5  1  0  0  0  0
  5  9  1  0  0  0  0
  6 10  1  0  0  0  0
  6  5  2  0  0  0  0
  7  6  1  0  0  0  0
 11  7  1  0  0  0  0
 12 11  1  0  0  0  0
 12 13  1  0  0  0  0
 12 17  1  0  0  0  0
 13 19  1  0  0  0  0
 14 13  1  0  0  0  0
 14 20  1  0  0  0  0
 15 22  1  1  0  0  0
 15 14  1  0  0  0  0
 15 11  1  0  0  0  0
 16 12  1  0  0  0  0
 18 13  1  0  0  0  0
 21 14  1  0  0  0  0
 23 15  1  0  0  0  0
 24 23  1  0  0  0  0
 25 23  1  0  0  0  0
 26 23  1  0  0  0  0
 27 33  1  0  0  0  0
 27 32  1  0  0  0  0
 28 27  2  0  0  0  0
 29 28  1  0  0  0  0
 29 30  2  0  0  0  0
 30 31  1  0  0  0  0
 31 32  2  0  0  0  0
 31  3  1  0  0  0  0
 34 28  1  0  0  0  0
 35 29  1  0  0  0  0
 36 35  2  0  0  0  0
 37 36  1  0  0  0  0
 38 39  2  0  0  0  0
 38 36  1  0  0  0  0
 39 40  1  0  0  0  0
 40 35  1  0  0  0  0
M  END
>  <minimizedAffinity>
-5.56429386

$$$$

 OpenBabel03252505263D

 40 43  0  0  1  0  0  0  0  0999 V2000
   36.4960   27.8040   39.4020 F   0  0  0  0  0  0  0  0  0  0  0  0
   36.8280   29.1170   39.5990 C   0  0  0  0  0  0  0  0  0  0  0  0
   36.6190   29.9890   38.5710 C   0  0  0  0  0  0  0  0  0  0  0  0
   36.9510   31.3050   38.7640 C   0  0  0  0  0  0  0  0  0  0  0  0
   37.4810   31.7050   39.9760 C   0  0  0  0  0  0  0  0  0  0  0  0
   37.6920   30.8390   41.0050 C   0  0  0  0  0  0  0  0  0  0  0  0
   37.3470   29.4900   40.7970 C   0  0  0  0  0  0  0  0  0  0  0  0
   36.8080   32.0470   37.9870 H   0  0  0  0  0  0  0  0  0  0  0  0
   37.7400   32.7500   40.1200 H   0  0  0  0  0  0  0  0  0  0  0  0
   38.1050   31.1580   41.9480 H   0  0  0  0  0  0  0  0  0  0  0  0
   37.5850   28.6210   41.8980 N   0  0  0  0  0  0  0  0  0  0  0  0
   37.2360   28.7390   43.2870 C   0  0  0  0  0  0  0  0  0  0  0  0
   36.5890   27.3710   43.5860 C   0  0  0  0  0  0  0  0  0  0  0  0
   37.1750   26.4630   42.5290 C   0  0  0  0  0  0  0  0  0  0  0  0
   38.2660   27.3290   41.9370 C   0  0  2  0  0  0  0  0  0  0  0  0
   38.0960   28.9410   43.9280 H   0  0  0  0  0  0  0  0  0  0  0  0
   36.4770   29.5410   43.3730 H   0  0  0  0  0  0  0  0  0  0  0  0
   36.9400   27.0920   44.5990 H   0  0  0  0  0  0  0  0  0  0  0  0
   35.4900   27.4190   43.5290 H   0  0  0  0  0  0  0  0  0  0  0  0
   36.4240   26.2200   41.7760 H   0  0  0  0  0  0  0  0  0  0  0  0
   37.5700   25.5190   42.9440 H   0  0  0  0  0  0  0  0  0  0  0  0
   38.4040   27.0090   40.8950 H   0  0  0  0  0  0  0  0  0  0  0  0
   39.5340   27.3430   42.7170 C   0  0  0  0  0  0  0  0  0  0  0  0
   39.3480   27.3040   43.8060 H   0  0  0  0  0  0  0  0  0  0  0  0
   40.1450   28.1870   42.3790 H   0  0  0  0  0  0  0  0  0  0  0  0
   40.0890   26.4190   42.4550 H   0  0  0  0  0  0  0  0  0  0  0  0
   36.3450   28.8590   35.1010 C   0  0  0  0  0  0  0  0  0  0  0  0
   34.9780   28.6460   34.9170 C   0  0  0  0  0  0  0  0  0  0  0  0
   34.1860   28.9090   36.0270 C   0  0  0  0  0  0  0  0  0  0  0  0
   34.7470   29.3340   37.1720 N   0  0  0  0  0  0  0  0  0  0  0  0
   36.0620   29.5270   37.3120 C   0  0  0  0  0  0  0  0  0  0  0  0
   36.8440   29.2840   36.2680 N   0  0  0  0  0  0  0  0  0  0  0  0
   36.9310   28.6450   34.2170 H   0  0  0  0  0  0  0  0  0  0  0  0
   34.4340   28.3150   34.0650 H   0  0  0  0  0  0  0  0  0  0  0  0
   32.7630   28.7740   36.1060 C   0  0  0  0  0  0  0  0  0  0  0  0
   32.0260   29.5780   36.8860 C   0  0  0  0  0  0  0  0  0  0  0  0
   32.2180   30.4190   37.5720 H   0  0  0  0  0  0  0  0  0  0  0  0
   30.6810   29.5650   37.0580 C   0  0  0  0  0  3  0  0  0  0  0  0
   30.0640   28.4810   36.2230 C   0  0  0  0  0  3  0  0  0  0  0  0
   31.5740   27.6890   35.3490 S   0  0  0  0  0  0  0  0  0  0  0  0
  1  2  1  0  0  0  0
  2  7  1  0  0  0  0
  3  4  1  0  0  0  0
  3  2  2  0  0  0  0
  4  5  2  0  0  0  0
  5  9  1  0  0  0  0
  5  6  1  0  0  0  0
  6 10  1  0  0  0  0
  7  6  2  0  0  0  0
  7 11  1  0  0  0  0
  8  4  1  0  0  0  0
 11 15  1  0  0  0  0
 11 12  1  0  0  0  0
 12 17  1  0  0  0  0
 12 13  1  0  0  0  0
 12 16  1  0  0  0  0
 13 18  1  0  0  0  0
 14 21  1  0  0  0  0
 14 13  1  0  0  0  0
 15 22  1  6  0  0  0
 15 14  1  0  0  0  0
 15 23  1  0  0  0  0
 19 13  1  0  0  0  0
 20 14  1  0  0  0  0
 23 24  1  0  0  0  0
 25 23  1  0  0  0  0
 26 23  1  0  0  0  0
 27 32  1  0  0  0  0
 28 27  2  0  0  0  0
 28 29  1  0  0  0  0
 29 35  1  0  0  0  0
 29 30  2  0  0  0  0
 30 31  1  0  0  0  0
 31  3  1  0  0  0  0
 32 31  2  0  0  0  0
 33 27  1  0  0  0  0
 34 28  1  0  0  0  0
 35 36  2  0  0  0  0
 36 38  1  0  0  0  0
 36 37  1  0  0  0  0
 39 38  2  0  0  0  0
 40 35  1  0  0  0  0
 40 39  1  0  0  0  0
M  END
>  <minimizedAffinity>
-5.56183815

$$$$

 OpenBabel03252505263D

 40 43  0  0  1  0  0  0  0  0999 V2000
   39.5500   30.8930   38.6610 F   0  0  0  0  0  0  0  0  0  0  0  0
   39.2140   32.1200   39.1640 C   0  0  0  0  0  0  0  0  0  0  0  0
   37.9310   32.3060   39.5890 C   0  0  0  0  0  0  0  0  0  0  0  0
   37.5900   33.5340   40.0920 C   0  0  0  0  0  0  0  0  0  0  0  0
   38.5410   34.5340   40.1560 C   0  0  0  0  0  0  0  0  0  0  0  0
   39.8230   34.3540   39.7350 C   0  0  0  0  0  0  0  0  0  0  0  0
   40.1630   33.0900   39.2190 C   0  0  0  0  0  0  0  0  0  0  0  0
   36.5880   33.7440   40.4470 H   0  0  0  0  0  0  0  0  0  0  0  0
   38.2620   35.5040   40.5580 H   0  0  0  0  0  0  0  0  0  0  0  0
   40.5600   35.1390   39.7870 H   0  0  0  0  0  0  0  0  0  0  0  0
   41.5120   32.9460   38.7890 N   0  0  0  0  0  0  0  0  0  0  0  0
   42.6620   32.3960   39.4540 C   0  0  0  0  0  0  0  0  0  0  0  0
   43.2320   31.4340   38.3920 C   0  0  0  0  0  0  0  0  0  0  0  0
   42.7030   31.9900   37.0900 C   0  0  0  0  0  0  0  0  0  0  0  0
   42.1340   33.3240   37.5230 C   0  0  2  0  0  0  0  0  0  0  0  0
   43.3830   33.1550   39.7590 H   0  0  0  0  0  0  0  0  0  0  0  0
   42.2970   31.8190   40.3270 H   0  0  0  0  0  0  0  0  0  0  0  0
   44.3340   31.5390   38.4590 H   0  0  0  0  0  0  0  0  0  0  0  0
   42.9060   30.3960   38.5640 H   0  0  0  0  0  0  0  0  0  0  0  0
   41.9180   31.3460   36.6920 H   0  0  0  0  0  0  0  0  0  0  0  0
   43.4870   32.1000   36.3190 H   0  0  0  0  0  0  0  0  0  0  0  0
   41.3190   33.5690   36.8270 H   0  0  0  0  0  0  0  0  0  0  0  0
   43.1410   34.4130   37.6500 C   0  0  0  0  0  0  0  0  0  0  0  0
   44.1060   34.0370   38.0380 H   0  0  0  0  0  0  0  0  0  0  0  0
   42.6970   35.2360   38.2200 H   0  0  0  0  0  0  0  0  0  0  0  0
   43.3360   34.7980   36.6280 H   0  0  0  0  0  0  0  0  0  0  0  0
   35.4400   29.7910   40.5210 C   0  0  0  0  0  0  0  0  0  0  0  0
   35.1140   29.1690   39.3150 C   0  0  0  0  0  0  0  0  0  0  0  0
   35.7850   29.6560   38.2000 C   0  0  0  0  0  0  0  0  0  0  0  0
   36.6730   30.6560   38.3300 N   0  0  0  0  0  0  0  0  0  0  0  0
   36.9610   31.2280   39.5020 C   0  0  0  0  0  0  0  0  0  0  0  0
   36.3350   30.7840   40.5850 N   0  0  0  0  0  0  0  0  0  0  0  0
   34.9000   29.3880   41.3660 H   0  0  0  0  0  0  0  0  0  0  0  0
   34.4340   28.3790   39.1010 H   0  0  0  0  0  0  0  0  0  0  0  0
   35.6370   29.1960   36.8530 C   0  0  0  0  0  0  0  0  0  0  0  0
   36.6250   29.3270   35.9560 C   0  0  0  0  0  0  0  0  0  0  0  0
   37.6480   29.7380   35.9500 H   0  0  0  0  0  0  0  0  0  0  0  0
   36.6250   28.9420   34.6560 C   0  0  0  0  0  3  0  0  0  0  0  0
   35.3110   28.3070   34.3050 C   0  0  0  0  0  3  0  0  0  0  0  0
   34.3290   28.3990   35.9480 S   0  0  0  0  0  0  0  0  0  0  0  0
  1  2  1  0  0  0  0
  2  7  2  0  0  0  0
  2  3  1  0  0  0  0
  3  4  2  0  0  0  0
  4  5  1  0  0  0  0
  4  8  1  0  0  0  0
  5  9  1  0  0  0  0
  6 10  1  0  0  0  0
  6  5  2  0  0  0  0
  7  6  1  0  0  0  0
 11  7  1  0  0  0  0
 11 12  1  0  0  0  0
 12 16  1  0  0  0  0
 12 17  1  0  0  0  0
 13 18  1  0  0  0  0
 13 19  1  0  0  0  0
 13 12  1  0  0  0  0
 14 15  1  0  0  0  0
 14 13  1  0  0  0  0
 15 22  1  6  0  0  0
 15 23  1  0  0  0  0
 15 11  1  0  0  0  0
 20 14  1  0  0  0  0
 21 14  1  0  0  0  0
 23 24  1  0  0  0  0
 23 25  1  0  0  0  0
 26 23  1  0  0  0  0
 27 32  1  0  0  0  0
 27 33  1  0  0  0  0
 28 27  2  0  0  0  0
 29 30  2  0  0  0  0
 29 28  1  0  0  0  0
 30 31  1  0  0  0  0
 31  3  1  0  0  0  0
 31 32  2  0  0  0  0
 34 28  1  0  0  0  0
 35 29  1  0  0  0  0
 36 35  2  0  0  0  0
 37 36  1  0  0  0  0
 38 36  1  0  0  0  0
 39 38  2  0  0  0  0
 39 40  1  0  0  0  0
 40 35  1  0  0  0  0
M  END
>  <minimizedAffinity>
-5.49946117

$$$$
