
 OpenBabel03252502443D

 28 30  0  0  1  0  0  0  0  0999 V2000
   47.6340   35.4610   41.9100 C   0  0  0  0  0  0  0  0  0  0  0  0
   47.8700   35.9210   42.9210 H   0  0  0  0  0  0  0  0  0  0  0  0
   47.3660   36.1900   41.1480 H   0  0  0  0  0  0  0  0  0  0  0  0
   48.8970   34.7600   41.5200 C   0  0  1  0  0  0  0  0  0  0  0  0
   50.0100   34.7600   42.5220 C   0  0  0  0  0  0  0  0  0  0  0  0
   49.2330   33.5300   42.2170 C   0  0  2  0  0  0  0  0  0  0  0  0
   49.1350   34.9200   40.4310 H   0  0  0  0  0  0  0  0  0  0  0  0
   49.9490   35.2980   43.4810 H   0  0  0  0  0  0  0  0  0  0  0  0
   51.0100   34.9200   42.0630 H   0  0  0  0  0  0  0  0  0  0  0  0
   48.6810   32.8740   42.8390 H   0  0  0  0  0  0  0  0  0  0  0  0
   50.0660   32.5620   41.2720 C   0  0  0  0  0  0  0  0  0  0  0  0
   51.3510   32.2640   41.5190 C   0  0  0  0  0  0  0  0  0  0  0  0
   51.9150   32.6500   42.3630 H   0  0  0  0  0  0  0  0  0  0  0  0
   51.9430   31.4220   40.6290 C   0  0  0  0  0  0  0  0  0  0  0  0
   51.2510   30.9220   39.5540 C   0  0  0  0  0  0  0  0  0  0  0  0
   49.5690   31.7500   39.8530 S   0  0  0  0  0  0  0  0  0  0  0  0
   46.5970   34.3610   42.1050 C   0  0  0  0  0  0  0  0  0  0  0  0
   47.1710   33.4460   42.4560 H   0  0  0  0  0  0  0  0  0  0  0  0
   45.9540   34.1890   41.2530 H   0  0  0  0  0  0  0  0  0  0  0  0
   44.4770   35.9380   44.7750 C   0  0  0  0  0  0  0  0  0  0  0  0
   45.1040   35.7160   43.5120 C   0  0  0  0  0  0  0  0  0  0  0  0
   45.8940   34.6060   43.3960 C   0  0  0  0  0  0  0  0  0  0  0  0
   46.0570   33.7660   44.4560 N   0  0  0  0  0  0  0  0  0  0  0  0
   45.4620   33.9920   45.6240 C   0  0  0  0  0  0  0  0  0  0  0  0
   44.6770   35.0650   45.7960 N   0  0  0  0  0  0  0  0  0  0  0  0
   43.8320   36.7870   44.9720 H   0  0  0  0  0  0  0  0  0  0  0  0
   44.8420   36.4750   42.8170 H   0  0  0  0  0  0  0  0  0  0  0  0
   45.6080   33.3090   46.4490 H   0  0  0  0  0  0  0  0  0  0  0  0
  1 17  1  0  0  0  0
  1  2  1  0  0  0  0
  3  1  1  0  0  0  0
  4  7  1  6  0  0  0
  4  1  1  0  0  0  0
  4  6  1  0  0  0  0
  4  5  1  0  0  0  0
  5  8  1  0  0  0  0
  6  5  1  0  0  0  0
  6 10  1  1  0  0  0
  9  5  1  0  0  0  0
 11 12  2  0  0  0  0
 11  6  1  0  0  0  0
 12 13  1  0  0  0  0
 14 12  1  0  0  0  0
 15 16  1  0  0  0  0
 15 14  2  0  0  0  0
 16 11  1  0  0  0  0
 17 18  1  0  0  0  0
 17 22  1  0  0  0  0
 19 17  1  0  0  0  0
 20 26  1  0  0  0  0
 20 25  1  0  0  0  0
 21 20  2  0  0  0  0
 22 21  1  0  0  0  0
 22 23  2  0  0  0  0
 23 24  1  0  0  0  0
 24 25  2  0  0  0  0
 24 28  1  0  0  0  0
 27 21  1  0  0  0  0
M  END
>  <minimizedAffinity>
-4.74204445

>  <minimizedRMSD>
1.18332279

$$$$
