
 OpenBabel03252505193D

 31 34  0  0  0  0  0  0  0  0999 V2000
   44.6010   35.6920   44.7100 C   0  0  0  0  0  0  0  0  0  0  0  0
   45.2650   35.5970   43.4910 C   0  0  0  0  0  0  0  0  0  0  0  0
   46.1790   34.5740   43.3810 C   0  0  0  0  0  0  0  0  0  0  0  0
   46.4060   33.7100   44.4270 N   0  0  0  0  0  0  0  0  0  0  0  0
   45.7160   33.8550   45.6070 C   0  0  0  0  0  0  0  0  0  0  0  0
   44.8170   34.8480   45.7400 N   0  0  0  0  0  0  0  0  0  0  0  0
   43.8760   36.5110   44.7850 H   0  0  0  0  0  0  0  0  0  0  0  0
   45.0950   36.2660   42.6660 H   0  0  0  0  0  0  0  0  0  0  0  0
   45.9680   32.9120   46.6870 C   0  0  0  0  0  0  0  0  0  0  0  0
   45.1570   32.9020   47.7870 C   0  0  0  0  0  0  0  0  0  0  0  0
   45.3750   32.0060   48.8220 C   0  0  0  0  0  0  0  0  0  0  0  0
   46.4280   31.1300   48.7060 C   0  0  0  0  0  0  0  0  0  0  0  0
   47.2100   31.1840   47.5790 C   0  0  0  0  0  0  0  0  0  0  0  0
   47.0100   32.0510   46.5630 N   0  0  0  0  0  0  0  0  0  0  0  0
   44.3450   33.5940   47.8540 H   0  0  0  0  0  0  0  0  0  0  0  0
   44.7590   31.9780   49.6890 H   0  0  0  0  0  0  0  0  0  0  0  0
   46.5900   30.4400   49.5110 H   0  0  0  0  0  0  0  0  0  0  0  0
   48.3300   30.2860   47.4050 C   0  0  0  0  0  0  0  0  0  0  0  0
   48.8260   29.3900   46.4350 C   0  0  0  0  0  0  0  0  0  0  0  0
   48.1550   29.4070   45.6040 H   0  0  0  0  0  0  0  0  0  0  0  0
   49.9740   28.7210   46.7050 C   0  0  0  0  0  0  0  0  0  0  0  0
   50.6840   28.8910   47.9220 C   0  0  0  0  0  0  0  0  0  0  0  0
   49.5800   30.1670   48.7950 S   0  0  0  0  0  0  0  0  0  0  0  0
   46.9400   34.3490   42.0990 C   0  0  0  0  0  0  0  0  0  0  0  0
   48.0920   35.3460   41.9480 C   0  0  0  0  0  0  0  0  0  0  0  0
   48.2770   33.8190   42.1720 C   0  0  0  0  0  0  0  0  0  0  0  0
   46.3360   34.1980   41.1790 H   0  0  0  0  0  0  0  0  0  0  0  0
   48.3520   36.0040   42.7750 H   0  0  0  0  0  0  0  0  0  0  0  0
   48.2460   35.7180   40.9390 H   0  0  0  0  0  0  0  0  0  0  0  0
   48.6640   33.5740   43.2040 H   0  0  0  0  0  0  0  0  0  0  0  0
   48.8120   33.2830   41.3990 H   0  0  0  0  0  0  0  0  0  0  0  0
  1  7  1  0  0  0  0
  1  6  1  0  0  0  0
  2  1  2  0  0  0  0
  3  2  1  0  0  0  0
  3  4  2  0  0  0  0
  4  5  1  0  0  0  0
  5  6  2  0  0  0  0
  5  9  1  0  0  0  0
  8  2  1  0  0  0  0
  9 10  1  0  0  0  0
 10 15  1  0  0  0  0
 10 11  2  0  0  0  0
 11 16  1  0  0  0  0
 12 11  1  0  0  0  0
 12 17  1  0  0  0  0
 13 12  2  0  0  0  0
 14  9  2  0  0  0  0
 14 13  1  0  0  0  0
 18 13  1  0  0  0  0
 18 23  1  0  0  0  0
 19 21  1  0  0  0  0
 19 18  2  0  0  0  0
 20 19  1  0  0  0  0
 21 22  2  0  0  0  0
 22 23  1  0  0  0  0
 24 26  1  0  0  0  0
 24  3  1  0  0  0  0
 25 24  1  0  0  0  0
 25 26  1  0  0  0  0
 25 28  1  0  0  0  0
 26 30  1  0  0  0  0
 27 24  1  0  0  0  0
 29 25  1  0  0  0  0
 31 26  1  0  0  0  0
M  END
>  <minimizedAffinity>
-5.68126202

>  <minimizedRMSD>
0.40593642

$$$$
