
 OpenBabel03242518143D

 28 30  0  0  0  0  0  0  0  0999 V2000
   36.3150   28.1760   41.5130 C   0  0  0  0  0  0  0  0  0  0  0  0
   36.7320   27.3380   40.9050 H   0  0  0  0  0  0  0  0  0  0  0  0
   35.2050   28.0990   41.4530 H   0  0  0  0  0  0  0  0  0  0  0  0
   36.7760   29.4130   40.9870 C   0  0  0  0  0  0  0  0  0  0  0  0
   36.2330   30.7130   40.7140 C   0  0  0  0  0  0  0  0  0  0  0  0
   37.0130   31.6900   40.1920 C   0  0  0  0  0  0  0  0  0  0  0  0
   38.4000   31.3510   39.9280 C   0  0  0  0  0  0  0  0  0  0  0  0
   38.5750   29.6330   40.4320 S   0  0  0  0  0  0  0  0  0  0  0  0
   35.1970   30.7860   40.9680 H   0  0  0  0  0  0  0  0  0  0  0  0
   36.6330   32.6700   39.9800 H   0  0  0  0  0  0  0  0  0  0  0  0
   39.3930   32.1410   39.4080 C   0  0  0  0  0  0  0  0  0  0  0  0
   39.9790   33.2930   39.8720 C   0  0  0  0  0  0  0  0  0  0  0  0
   39.6320   33.6920   40.8140 H   0  0  0  0  0  0  0  0  0  0  0  0
   40.9680   33.9140   39.1670 C   0  0  0  0  0  3  0  0  0  0  0  0
   41.3500   33.2670   37.8950 C   0  0  0  0  0  3  0  0  0  0  0  0
   40.2050   31.7650   37.8300 S   0  0  0  0  0  0  0  0  0  0  0  0
   36.6760   27.8760   42.9460 C   0  0  0  0  0  0  0  0  0  0  0  0
   37.0830   28.8120   43.4200 H   0  0  0  0  0  0  0  0  0  0  0  0
   35.7970   27.6050   43.5170 H   0  0  0  0  0  0  0  0  0  0  0  0
   37.7200   26.8710   42.9740 C   0  0  0  0  0  0  0  0  0  0  0  0
   38.9120   27.0610   43.6750 C   0  0  0  0  0  0  0  0  0  0  0  0
   39.8690   26.0530   43.6570 C   0  0  0  0  0  0  0  0  0  0  0  0
   39.6000   24.9360   42.9610 N   0  0  0  0  0  0  0  0  0  0  0  0
   38.4450   24.7730   42.2920 C   0  0  0  0  0  0  0  0  0  0  0  0
   37.5130   25.7260   42.2960 N   0  0  0  0  0  0  0  0  0  0  0  0
   39.1020   27.9720   44.2280 H   0  0  0  0  0  0  0  0  0  0  0  0
   40.8090   26.1170   44.1680 H   0  0  0  0  0  0  0  0  0  0  0  0
   38.2620   23.8430   41.7340 H   0  0  0  0  0  0  0  0  0  0  0  0
  1 17  1  0  0  0  0
  2  1  1  0  0  0  0
  3  1  1  0  0  0  0
  4  1  1  0  0  0  0
  5  9  1  0  0  0  0
  5  4  2  0  0  0  0
  6  5  1  0  0  0  0
  7  6  2  0  0  0  0
  7  8  1  0  0  0  0
  8  4  1  0  0  0  0
 10  6  1  0  0  0  0
 11 12  2  0  0  0  0
 11  7  1  0  0  0  0
 12 13  1  0  0  0  0
 14 12  1  0  0  0  0
 15 14  2  0  0  0  0
 16 15  1  0  0  0  0
 16 11  1  0  0  0  0
 17 20  1  0  0  0  0
 17 18  1  0  0  0  0
 17 19  1  0  0  0  0
 20 21  1  0  0  0  0
 21 26  1  0  0  0  0
 22 21  2  0  0  0  0
 22 27  1  0  0  0  0
 23 22  1  0  0  0  0
 24 25  1  0  0  0  0
 24 23  2  0  0  0  0
 25 20  2  0  0  0  0
 28 24  1  0  0  0  0
M  END
>  <minimizedAffinity>
-4.79762077

$$$$

 OpenBabel03242518143D

 28 30  0  0  0  0  0  0  0  0999 V2000
   36.9420   25.7200   42.4800 C   0  0  0  0  0  0  0  0  0  0  0  0
   36.1330   25.5860   41.7240 H   0  0  0  0  0  0  0  0  0  0  0  0
   36.5200   25.4160   43.4650 H   0  0  0  0  0  0  0  0  0  0  0  0
   37.3520   27.0820   42.4910 C   0  0  0  0  0  0  0  0  0  0  0  0
   38.0220   27.9760   43.3920 C   0  0  0  0  0  0  0  0  0  0  0  0
   38.2540   29.2640   43.0400 C   0  0  0  0  0  0  0  0  0  0  0  0
   37.7930   29.6770   41.7270 C   0  0  0  0  0  0  0  0  0  0  0  0
   37.0310   28.2150   41.0070 S   0  0  0  0  0  0  0  0  0  0  0  0
   38.2900   27.5050   44.3140 H   0  0  0  0  0  0  0  0  0  0  0  0
   38.7520   29.9520   43.6930 H   0  0  0  0  0  0  0  0  0  0  0  0
   37.8960   30.9060   41.1280 C   0  0  0  0  0  0  0  0  0  0  0  0
   37.0120   31.6220   40.3580 C   0  0  0  0  0  0  0  0  0  0  0  0
   36.0460   31.1830   40.1580 H   0  0  0  0  0  0  0  0  0  0  0  0
   37.3430   32.8490   39.8620 C   0  0  0  0  0  3  0  0  0  0  0  0
   38.6940   33.3350   40.2090 C   0  0  0  0  0  3  0  0  0  0  0  0
   39.3900   31.9260   41.2580 S   0  0  0  0  0  0  0  0  0  0  0  0
   38.0020   24.7010   42.1490 C   0  0  0  0  0  0  0  0  0  0  0  0
   38.9070   25.2350   41.7480 H   0  0  0  0  0  0  0  0  0  0  0  0
   38.3280   24.1790   43.0410 H   0  0  0  0  0  0  0  0  0  0  0  0
   37.5070   23.8200   41.1090 C   0  0  0  0  0  0  0  0  0  0  0  0
   36.2440   23.9840   40.5380 C   0  0  0  0  0  0  0  0  0  0  0  0
   35.8370   23.1010   39.5450 C   0  0  0  0  0  0  0  0  0  0  0  0
   36.6840   22.1240   39.1790 N   0  0  0  0  0  0  0  0  0  0  0  0
   37.8970   21.9840   39.7420 C   0  0  0  0  0  0  0  0  0  0  0  0
   38.3080   22.8200   40.6960 N   0  0  0  0  0  0  0  0  0  0  0  0
   35.5830   24.7810   40.8520 H   0  0  0  0  0  0  0  0  0  0  0  0
   34.8850   23.1560   39.0550 H   0  0  0  0  0  0  0  0  0  0  0  0
   38.5620   21.1710   39.4140 H   0  0  0  0  0  0  0  0  0  0  0  0
  1  4  1  0  0  0  0
  1  3  1  0  0  0  0
  2  1  1  0  0  0  0
  4  5  2  0  0  0  0
  5  9  1  0  0  0  0
  6  5  1  0  0  0  0
  6 10  1  0  0  0  0
  7  6  2  0  0  0  0
  8  7  1  0  0  0  0
  8  4  1  0  0  0  0
 11 16  1  0  0  0  0
 11  7  1  0  0  0  0
 12 11  2  0  0  0  0
 13 12  1  0  0  0  0
 14 15  2  0  0  0  0
 14 12  1  0  0  0  0
 15 16  1  0  0  0  0
 17  1  1  0  0  0  0
 17 19  1  0  0  0  0
 18 17  1  0  0  0  0
 20 17  1  0  0  0  0
 21 26  1  0  0  0  0
 21 20  2  0  0  0  0
 22 21  1  0  0  0  0
 23 22  2  0  0  0  0
 23 24  1  0  0  0  0
 24 25  2  0  0  0  0
 25 20  1  0  0  0  0
 27 22  1  0  0  0  0
 28 24  1  0  0  0  0
M  END
>  <minimizedAffinity>
-4.77833319

$$$$

 OpenBabel03242518143D

 28 30  0  0  0  0  0  0  0  0999 V2000
   36.4610   30.0440   38.3160 C   0  0  0  0  0  0  0  0  0  0  0  0
   35.6880   30.8240   38.5150 H   0  0  0  0  0  0  0  0  0  0  0  0
   36.0640   29.3930   37.5040 H   0  0  0  0  0  0  0  0  0  0  0  0
   36.6940   29.3020   39.5060 C   0  0  0  0  0  0  0  0  0  0  0  0
   36.0790   29.1500   40.7940 C   0  0  0  0  0  0  0  0  0  0  0  0
   36.6060   28.3070   41.7150 C   0  0  0  0  0  0  0  0  0  0  0  0
   37.8040   27.5840   41.3310 C   0  0  0  0  0  0  0  0  0  0  0  0
   38.1660   28.1170   39.6510 S   0  0  0  0  0  0  0  0  0  0  0  0
   35.2060   29.7580   40.9060 H   0  0  0  0  0  0  0  0  0  0  0  0
   36.1660   28.1740   42.6830 H   0  0  0  0  0  0  0  0  0  0  0  0
   38.5340   26.6810   42.0610 C   0  0  0  0  0  0  0  0  0  0  0  0
   39.4200   26.8500   43.0980 C   0  0  0  0  0  0  0  0  0  0  0  0
   39.6130   27.8560   43.4370 H   0  0  0  0  0  0  0  0  0  0  0  0
   40.0360   25.7810   43.6790 C   0  0  0  0  0  3  0  0  0  0  0  0
   39.6850   24.4590   43.1200 C   0  0  0  0  0  3  0  0  0  0  0  0
   38.4520   24.8950   41.7570 S   0  0  0  0  0  0  0  0  0  0  0  0
   37.6470   30.7660   37.7290 C   0  0  0  0  0  0  0  0  0  0  0  0
   38.4890   30.0320   37.5960 H   0  0  0  0  0  0  0  0  0  0  0  0
   37.4170   31.1450   36.7410 H   0  0  0  0  0  0  0  0  0  0  0  0
   38.0890   31.7890   38.6560 C   0  0  0  0  0  0  0  0  0  0  0  0
   37.2600   32.8400   39.0500 C   0  0  0  0  0  0  0  0  0  0  0  0
   37.7520   33.7850   39.9430 C   0  0  0  0  0  0  0  0  0  0  0  0
   39.0120   33.6420   40.3870 N   0  0  0  0  0  0  0  0  0  0  0  0
   39.7950   32.6210   39.9930 C   0  0  0  0  0  0  0  0  0  0  0  0
   39.3430   31.7030   39.1390 N   0  0  0  0  0  0  0  0  0  0  0  0
   36.2480   32.9300   38.6770 H   0  0  0  0  0  0  0  0  0  0  0  0
   37.1830   34.6210   40.2970 H   0  0  0  0  0  0  0  0  0  0  0  0
   40.8220   32.5390   40.3800 H   0  0  0  0  0  0  0  0  0  0  0  0
  1  2  1  0  0  0  0
  1  4  1  0  0  0  0
  3  1  1  0  0  0  0
  4  8  1  0  0  0  0
  4  5  2  0  0  0  0
  5  9  1  0  0  0  0
  5  6  1  0  0  0  0
  6 10  1  0  0  0  0
  7  6  2  0  0  0  0
  7 11  1  0  0  0  0
  8  7  1  0  0  0  0
 11 12  2  0  0  0  0
 12 13  1  0  0  0  0
 12 14  1  0  0  0  0
 15 14  2  0  0  0  0
 16 11  1  0  0  0  0
 16 15  1  0  0  0  0
 17  1  1  0  0  0  0
 17 20  1  0  0  0  0
 18 17  1  0  0  0  0
 19 17  1  0  0  0  0
 20 21  2  0  0  0  0
 20 25  1  0  0  0  0
 21 22  1  0  0  0  0
 22 27  1  0  0  0  0
 22 23  2  0  0  0  0
 24 28  1  0  0  0  0
 24 23  1  0  0  0  0
 25 24  2  0  0  0  0
 26 21  1  0  0  0  0
M  END
>  <minimizedAffinity>
-4.6213026

$$$$

 OpenBabel03242518143D

 28 30  0  0  0  0  0  0  0  0999 V2000
   36.9730   25.2290   42.0790 C   0  0  0  0  0  0  0  0  0  0  0  0
   36.7910   25.0250   40.9970 H   0  0  0  0  0  0  0  0  0  0  0  0
   36.0670   24.8890   42.6310 H   0  0  0  0  0  0  0  0  0  0  0  0
   37.1960   26.6210   42.2620 C   0  0  0  0  0  0  0  0  0  0  0  0
   37.3920   27.5240   43.3600 C   0  0  0  0  0  0  0  0  0  0  0  0
   37.5910   28.8470   43.1380 C   0  0  0  0  0  0  0  0  0  0  0  0
   37.5920   29.2860   41.7550 C   0  0  0  0  0  0  0  0  0  0  0  0
   37.3090   27.8000   40.7820 S   0  0  0  0  0  0  0  0  0  0  0  0
   37.3600   27.0310   44.3080 H   0  0  0  0  0  0  0  0  0  0  0  0
   37.7410   29.5420   43.9400 H   0  0  0  0  0  0  0  0  0  0  0  0
   37.7670   30.5510   41.2560 C   0  0  0  0  0  0  0  0  0  0  0  0
   36.9350   31.3680   40.5290 C   0  0  0  0  0  0  0  0  0  0  0  0
   35.9540   30.9940   40.2780 H   0  0  0  0  0  0  0  0  0  0  0  0
   37.3350   32.6120   40.1360 C   0  0  0  0  0  3  0  0  0  0  0  0
   38.7010   33.0020   40.5430 C   0  0  0  0  0  3  0  0  0  0  0  0
   39.3050   31.4830   41.4910 S   0  0  0  0  0  0  0  0  0  0  0  0
   38.0880   24.3070   42.5000 C   0  0  0  0  0  0  0  0  0  0  0  0
   38.3310   24.5010   43.5810 H   0  0  0  0  0  0  0  0  0  0  0  0
   37.7750   23.2710   42.4410 H   0  0  0  0  0  0  0  0  0  0  0  0
   39.2720   24.6010   41.7160 C   0  0  0  0  0  0  0  0  0  0  0  0
   40.4490   25.0690   42.3010 C   0  0  0  0  0  0  0  0  0  0  0  0
   41.5450   25.3300   41.4870 C   0  0  0  0  0  0  0  0  0  0  0  0
   41.4180   25.1190   40.1660 N   0  0  0  0  0  0  0  0  0  0  0  0
   40.2730   24.6670   39.6230 C   0  0  0  0  0  0  0  0  0  0  0  0
   39.2110   24.4100   40.3850 N   0  0  0  0  0  0  0  0  0  0  0  0
   40.5230   25.2300   43.3680 H   0  0  0  0  0  0  0  0  0  0  0  0
   42.4860   25.6900   41.8530 H   0  0  0  0  0  0  0  0  0  0  0  0
   40.2100   24.5060   38.5360 H   0  0  0  0  0  0  0  0  0  0  0  0
  1  4  1  0  0  0  0
  1 17  1  0  0  0  0
  1  3  1  0  0  0  0
  2  1  1  0  0  0  0
  4  5  2  0  0  0  0
  5  9  1  0  0  0  0
  6  5  1  0  0  0  0
  6 10  1  0  0  0  0
  7  6  2  0  0  0  0
  8  7  1  0  0  0  0
  8  4  1  0  0  0  0
 11 16  1  0  0  0  0
 11  7  1  0  0  0  0
 12 11  2  0  0  0  0
 13 12  1  0  0  0  0
 14 12  1  0  0  0  0
 14 15  2  0  0  0  0
 15 16  1  0  0  0  0
 17 18  1  0  0  0  0
 19 17  1  0  0  0  0
 20 21  1  0  0  0  0
 20 17  1  0  0  0  0
 21 26  1  0  0  0  0
 22 27  1  0  0  0  0
 22 21  2  0  0  0  0
 23 22  1  0  0  0  0
 24 23  2  0  0  0  0
 24 25  1  0  0  0  0
 25 20  2  0  0  0  0
 28 24  1  0  0  0  0
M  END
>  <minimizedAffinity>
-4.544487

$$$$

 OpenBabel03242518143D

 28 30  0  0  0  0  0  0  0  0999 V2000
   39.3320   30.4600   42.9300 C   0  0  0  0  0  0  0  0  0  0  0  0
   39.8140   30.4720   43.9360 H   0  0  0  0  0  0  0  0  0  0  0  0
   38.6930   31.3700   42.8650 H   0  0  0  0  0  0  0  0  0  0  0  0
   38.5580   29.2750   42.7940 C   0  0  0  0  0  0  0  0  0  0  0  0
   37.6330   28.5210   43.5920 C   0  0  0  0  0  0  0  0  0  0  0  0
   37.0630   27.3920   43.1040 C   0  0  0  0  0  0  0  0  0  0  0  0
   37.4380   26.9980   41.7580 C   0  0  0  0  0  0  0  0  0  0  0  0
   38.6040   28.2500   41.2010 S   0  0  0  0  0  0  0  0  0  0  0  0
   37.4730   28.9550   44.5560 H   0  0  0  0  0  0  0  0  0  0  0  0
   36.3690   26.8120   43.6780 H   0  0  0  0  0  0  0  0  0  0  0  0
   37.0170   25.9130   41.0330 C   0  0  0  0  0  0  0  0  0  0  0  0
   36.8070   24.6030   41.3900 C   0  0  0  0  0  0  0  0  0  0  0  0
   36.9910   24.3250   42.4170 H   0  0  0  0  0  0  0  0  0  0  0  0
   36.3790   23.6840   40.4780 C   0  0  0  0  0  3  0  0  0  0  0  0
   36.1650   24.1940   39.1080 C   0  0  0  0  0  3  0  0  0  0  0  0
   36.6180   26.0220   39.2670 S   0  0  0  0  0  0  0  0  0  0  0  0
   40.4420   30.6580   41.9290 C   0  0  0  0  0  0  0  0  0  0  0  0
   41.4140   30.7740   42.4830 H   0  0  0  0  0  0  0  0  0  0  0  0
   40.5550   29.7830   41.3000 H   0  0  0  0  0  0  0  0  0  0  0  0
   40.2030   31.8800   41.1870 C   0  0  0  0  0  0  0  0  0  0  0  0
   38.9270   32.4280   41.0530 C   0  0  0  0  0  0  0  0  0  0  0  0
   38.7730   33.6030   40.3270 C   0  0  0  0  0  0  0  0  0  0  0  0
   39.8680   34.1600   39.7840 N   0  0  0  0  0  0  0  0  0  0  0  0
   41.0900   33.6150   39.9250 C   0  0  0  0  0  0  0  0  0  0  0  0
   41.2600   32.4900   40.6170 N   0  0  0  0  0  0  0  0  0  0  0  0
   38.0610   31.9570   41.5020 H   0  0  0  0  0  0  0  0  0  0  0  0
   37.8300   34.0900   40.1760 H   0  0  0  0  0  0  0  0  0  0  0  0
   41.9630   34.1030   39.4650 H   0  0  0  0  0  0  0  0  0  0  0  0
  1  2  1  0  0  0  0
  3  1  1  0  0  0  0
  4  1  1  0  0  0  0
  4  5  2  0  0  0  0
  5  9  1  0  0  0  0
  6  5  1  0  0  0  0
  6 10  1  0  0  0  0
  7  6  2  0  0  0  0
  8  7  1  0  0  0  0
  8  4  1  0  0  0  0
 11 12  2  0  0  0  0
 11  7  1  0  0  0  0
 12 13  1  0  0  0  0
 14 12  1  0  0  0  0
 15 16  1  0  0  0  0
 15 14  2  0  0  0  0
 16 11  1  0  0  0  0
 17 18  1  0  0  0  0
 17  1  1  0  0  0  0
 19 17  1  0  0  0  0
 20 17  1  0  0  0  0
 21 20  1  0  0  0  0
 21 26  1  0  0  0  0
 22 21  2  0  0  0  0
 23 24  2  0  0  0  0
 23 22  1  0  0  0  0
 24 25  1  0  0  0  0
 25 20  2  0  0  0  0
 27 22  1  0  0  0  0
 28 24  1  0  0  0  0
M  END
>  <minimizedAffinity>
-4.51988029

$$$$

 OpenBabel03242518143D

 28 30  0  0  0  0  0  0  0  0999 V2000
   36.8900   27.2320   42.4080 C   0  0  0  0  0  0  0  0  0  0  0  0
   37.7390   26.5570   42.1430 H   0  0  0  0  0  0  0  0  0  0  0  0
   36.0910   26.5920   42.8470 H   0  0  0  0  0  0  0  0  0  0  0  0
   36.4350   27.8950   41.2360 C   0  0  0  0  0  0  0  0  0  0  0  0
   35.5770   28.9990   40.9120 C   0  0  0  0  0  0  0  0  0  0  0  0
   35.3770   29.3610   39.6220 C   0  0  0  0  0  0  0  0  0  0  0  0
   36.0660   28.5830   38.6080 C   0  0  0  0  0  0  0  0  0  0  0  0
   36.9960   27.3380   39.5130 S   0  0  0  0  0  0  0  0  0  0  0  0
   35.1530   29.4560   41.7800 H   0  0  0  0  0  0  0  0  0  0  0  0
   34.7420   30.1820   39.3530 H   0  0  0  0  0  0  0  0  0  0  0  0
   36.0390   28.7330   37.2450 C   0  0  0  0  0  0  0  0  0  0  0  0
   35.0290   29.0960   36.3880 C   0  0  0  0  0  0  0  0  0  0  0  0
   34.0600   29.3130   36.8120 H   0  0  0  0  0  0  0  0  0  0  0  0
   35.2420   29.1790   35.0430 C   0  0  0  0  0  3  0  0  0  0  0  0
   36.6110   28.8550   34.5920 C   0  0  0  0  0  3  0  0  0  0  0  0
   37.4990   28.4470   36.2090 S   0  0  0  0  0  0  0  0  0  0  0  0
   37.3850   28.1090   43.5290 C   0  0  0  0  0  0  0  0  0  0  0  0
   36.6630   28.9600   43.6700 H   0  0  0  0  0  0  0  0  0  0  0  0
   37.3980   27.5670   44.4670 H   0  0  0  0  0  0  0  0  0  0  0  0
   38.6710   28.6710   43.1640 C   0  0  0  0  0  0  0  0  0  0  0  0
   39.8240   27.8890   43.0820 C   0  0  0  0  0  0  0  0  0  0  0  0
   41.0230   28.4960   42.7260 C   0  0  0  0  0  0  0  0  0  0  0  0
   41.0150   29.8160   42.4760 N   0  0  0  0  0  0  0  0  0  0  0  0
   39.8920   30.5510   42.5610 C   0  0  0  0  0  0  0  0  0  0  0  0
   38.7320   29.9900   42.9010 N   0  0  0  0  0  0  0  0  0  0  0  0
   39.8010   26.8270   43.2880 H   0  0  0  0  0  0  0  0  0  0  0  0
   41.9520   27.9700   42.6390 H   0  0  0  0  0  0  0  0  0  0  0  0
   39.9270   31.6300   42.3490 H   0  0  0  0  0  0  0  0  0  0  0  0
  1  3  1  0  0  0  0
  1 17  1  0  0  0  0
  2  1  1  0  0  0  0
  4  1  1  0  0  0  0
  5  4  2  0  0  0  0
  5  9  1  0  0  0  0
  6  5  1  0  0  0  0
  7  8  1  0  0  0  0
  7  6  2  0  0  0  0
  8  4  1  0  0  0  0
 10  6  1  0  0  0  0
 11  7  1  0  0  0  0
 12 13  1  0  0  0  0
 12 11  2  0  0  0  0
 14 12  1  0  0  0  0
 15 14  2  0  0  0  0
 15 16  1  0  0  0  0
 16 11  1  0  0  0  0
 17 18  1  0  0  0  0
 17 19  1  0  0  0  0
 20 17  1  0  0  0  0
 21 20  1  0  0  0  0
 21 26  1  0  0  0  0
 22 21  2  0  0  0  0
 23 24  2  0  0  0  0
 23 22  1  0  0  0  0
 24 25  1  0  0  0  0
 25 20  2  0  0  0  0
 27 22  1  0  0  0  0
 28 24  1  0  0  0  0
M  END
>  <minimizedAffinity>
-4.36649609

$$$$

 OpenBabel03242518143D

 28 30  0  0  0  0  0  0  0  0999 V2000
   35.8240   28.1740   39.6560 C   0  0  0  0  0  0  0  0  0  0  0  0
   34.9560   27.4730   39.6630 H   0  0  0  0  0  0  0  0  0  0  0  0
   36.3360   28.0490   38.6750 H   0  0  0  0  0  0  0  0  0  0  0  0
   36.6920   27.8550   40.7360 C   0  0  0  0  0  0  0  0  0  0  0  0
   36.5980   27.7220   42.1620 C   0  0  0  0  0  0  0  0  0  0  0  0
   37.6870   27.3840   42.8960 C   0  0  0  0  0  0  0  0  0  0  0  0
   38.9250   27.1700   42.1700 C   0  0  0  0  0  0  0  0  0  0  0  0
   38.5200   27.4550   40.4400 S   0  0  0  0  0  0  0  0  0  0  0  0
   35.6130   27.9160   42.5290 H   0  0  0  0  0  0  0  0  0  0  0  0
   37.6440   27.2770   43.9610 H   0  0  0  0  0  0  0  0  0  0  0  0
   40.1590   26.8240   42.6590 C   0  0  0  0  0  0  0  0  0  0  0  0
   41.1390   27.5700   43.2690 C   0  0  0  0  0  0  0  0  0  0  0  0
   40.9550   28.6240   43.4130 H   0  0  0  0  0  0  0  0  0  0  0  0
   42.3070   26.9970   43.6800 C   0  0  0  0  0  3  0  0  0  0  0  0
   42.4330   25.5470   43.4220 C   0  0  0  0  0  3  0  0  0  0  0  0
   40.7940   25.1280   42.5820 S   0  0  0  0  0  0  0  0  0  0  0  0
   35.2410   29.5640   39.6470 C   0  0  0  0  0  0  0  0  0  0  0  0
   34.5170   29.6480   38.7910 H   0  0  0  0  0  0  0  0  0  0  0  0
   34.6670   29.7480   40.5480 H   0  0  0  0  0  0  0  0  0  0  0  0
   36.3040   30.5250   39.4290 C   0  0  0  0  0  0  0  0  0  0  0  0
   37.0480   30.5520   38.2480 C   0  0  0  0  0  0  0  0  0  0  0  0
   38.0520   31.5020   38.1090 C   0  0  0  0  0  0  0  0  0  0  0  0
   38.2610   32.3570   39.1240 N   0  0  0  0  0  0  0  0  0  0  0  0
   37.5320   32.3140   40.2540 C   0  0  0  0  0  0  0  0  0  0  0  0
   36.5640   31.4120   40.4090 N   0  0  0  0  0  0  0  0  0  0  0  0
   36.8570   29.8510   37.4460 H   0  0  0  0  0  0  0  0  0  0  0  0
   38.6680   31.5920   37.2360 H   0  0  0  0  0  0  0  0  0  0  0  0
   37.7350   33.0330   41.0620 H   0  0  0  0  0  0  0  0  0  0  0  0
  1  2  1  0  0  0  0
  1  4  1  0  0  0  0
  3  1  1  0  0  0  0
  4  5  2  0  0  0  0
  5  9  1  0  0  0  0
  5  6  1  0  0  0  0
  6 10  1  0  0  0  0
  7 11  1  0  0  0  0
  7  6  2  0  0  0  0
  8  4  1  0  0  0  0
  8  7  1  0  0  0  0
 11 12  2  0  0  0  0
 12 13  1  0  0  0  0
 12 14  1  0  0  0  0
 15 14  2  0  0  0  0
 16 11  1  0  0  0  0
 16 15  1  0  0  0  0
 17  1  1  0  0  0  0
 17 19  1  0  0  0  0
 18 17  1  0  0  0  0
 20 17  1  0  0  0  0
 20 25  1  0  0  0  0
 21 20  2  0  0  0  0
 22 21  1  0  0  0  0
 22 23  2  0  0  0  0
 23 24  1  0  0  0  0
 24 25  2  0  0  0  0
 24 28  1  0  0  0  0
 26 21  1  0  0  0  0
 27 22  1  0  0  0  0
M  END
>  <minimizedAffinity>
-4.32057905

$$$$

 OpenBabel03242518143D

 28 30  0  0  0  0  0  0  0  0999 V2000
   36.2660   29.9420   38.4700 C   0  0  0  0  0  0  0  0  0  0  0  0
   36.8650   29.0650   38.1280 H   0  0  0  0  0  0  0  0  0  0  0  0
   35.6000   30.2310   37.6260 H   0  0  0  0  0  0  0  0  0  0  0  0
   37.1470   31.0020   38.8210 C   0  0  0  0  0  0  0  0  0  0  0  0
   37.0560   32.2790   39.4710 C   0  0  0  0  0  0  0  0  0  0  0  0
   38.1610   33.0460   39.6390 C   0  0  0  0  0  0  0  0  0  0  0  0
   39.4120   32.5130   39.1320 C   0  0  0  0  0  0  0  0  0  0  0  0
   38.9960   30.9150   38.4190 S   0  0  0  0  0  0  0  0  0  0  0  0
   36.0600   32.5120   39.7790 H   0  0  0  0  0  0  0  0  0  0  0  0
   38.1210   34.0020   40.1220 H   0  0  0  0  0  0  0  0  0  0  0  0
   40.6620   33.0750   39.1690 C   0  0  0  0  0  0  0  0  0  0  0  0
   41.4280   33.6610   38.1900 C   0  0  0  0  0  0  0  0  0  0  0  0
   41.0170   33.7140   37.1920 H   0  0  0  0  0  0  0  0  0  0  0  0
   42.6670   34.1600   38.4680 C   0  0  0  0  0  3  0  0  0  0  0  0
   43.1100   34.0240   39.8710 C   0  0  0  0  0  3  0  0  0  0  0  0
   41.6450   33.1570   40.6910 S   0  0  0  0  0  0  0  0  0  0  0  0
   35.3590   29.4320   39.5600 C   0  0  0  0  0  0  0  0  0  0  0  0
   35.0750   30.2910   40.2280 H   0  0  0  0  0  0  0  0  0  0  0  0
   34.4320   29.0530   39.1450 H   0  0  0  0  0  0  0  0  0  0  0  0
   36.0760   28.4610   40.3630 C   0  0  0  0  0  0  0  0  0  0  0  0
   36.3990   27.1930   39.8790 C   0  0  0  0  0  0  0  0  0  0  0  0
   37.0890   26.3140   40.7060 C   0  0  0  0  0  0  0  0  0  0  0  0
   37.4140   26.7300   41.9420 N   0  0  0  0  0  0  0  0  0  0  0  0
   37.0930   27.9570   42.3890 C   0  0  0  0  0  0  0  0  0  0  0  0
   36.4320   28.8160   41.6130 N   0  0  0  0  0  0  0  0  0  0  0  0
   36.1250   26.8850   38.8790 H   0  0  0  0  0  0  0  0  0  0  0  0
   37.3760   25.3240   40.4140 H   0  0  0  0  0  0  0  0  0  0  0  0
   37.3780   28.2600   43.4080 H   0  0  0  0  0  0  0  0  0  0  0  0
  1  4  1  0  0  0  0
  1 17  1  0  0  0  0
  2  1  1  0  0  0  0
  3  1  1  0  0  0  0
  4  5  2  0  0  0  0
  5  6  1  0  0  0  0
  5  9  1  0  0  0  0
  6 10  1  0  0  0  0
  7 11  1  0  0  0  0
  7  6  2  0  0  0  0
  8  4  1  0  0  0  0
  8  7  1  0  0  0  0
 11 16  1  0  0  0  0
 12 14  1  0  0  0  0
 12 11  2  0  0  0  0
 13 12  1  0  0  0  0
 14 15  2  0  0  0  0
 15 16  1  0  0  0  0
 17 18  1  0  0  0  0
 17 20  1  0  0  0  0
 19 17  1  0  0  0  0
 20 25  1  0  0  0  0
 21 20  2  0  0  0  0
 21 22  1  0  0  0  0
 22 23  2  0  0  0  0
 23 24  1  0  0  0  0
 24 28  1  0  0  0  0
 25 24  2  0  0  0  0
 26 21  1  0  0  0  0
 27 22  1  0  0  0  0
M  END
>  <minimizedAffinity>
-4.29212618

$$$$

 OpenBabel03242518143D

 28 30  0  0  0  0  0  0  0  0999 V2000
   38.2330   27.0250   42.9670 C   0  0  0  0  0  0  0  0  0  0  0  0
   39.1300   27.4410   42.4500 H   0  0  0  0  0  0  0  0  0  0  0  0
   38.5900   26.5540   43.9100 H   0  0  0  0  0  0  0  0  0  0  0  0
   37.6030   26.0730   42.1190 C   0  0  0  0  0  0  0  0  0  0  0  0
   37.1340   24.7200   42.2160 C   0  0  0  0  0  0  0  0  0  0  0  0
   36.5540   24.1140   41.1520 C   0  0  0  0  0  0  0  0  0  0  0  0
   36.4390   24.8970   39.9350 C   0  0  0  0  0  0  0  0  0  0  0  0
   37.1630   26.4960   40.3250 S   0  0  0  0  0  0  0  0  0  0  0  0
   37.3000   24.2970   43.1840 H   0  0  0  0  0  0  0  0  0  0  0  0
   36.1940   23.1050   41.1980 H   0  0  0  0  0  0  0  0  0  0  0  0
   35.9020   24.5320   38.7270 C   0  0  0  0  0  0  0  0  0  0  0  0
   35.5970   25.2650   37.6050 C   0  0  0  0  0  0  0  0  0  0  0  0
   35.7980   26.3250   37.6260 H   0  0  0  0  0  0  0  0  0  0  0  0
   35.0590   24.6720   36.5010 C   0  0  0  0  0  3  0  0  0  0  0  0
   34.8330   23.2160   36.6030 C   0  0  0  0  0  3  0  0  0  0  0  0
   35.4420   22.8190   38.3470 S   0  0  0  0  0  0  0  0  0  0  0  0
   37.4010   28.2120   43.3830 C   0  0  0  0  0  0  0  0  0  0  0  0
   36.3190   27.9900   43.1670 H   0  0  0  0  0  0  0  0  0  0  0  0
   37.4680   28.3750   44.4520 H   0  0  0  0  0  0  0  0  0  0  0  0
   37.7860   29.3650   42.5940 C   0  0  0  0  0  0  0  0  0  0  0  0
   39.0510   29.9450   42.6980 C   0  0  0  0  0  0  0  0  0  0  0  0
   39.3500   31.0500   41.9090 C   0  0  0  0  0  0  0  0  0  0  0  0
   38.4010   31.5110   41.0780 N   0  0  0  0  0  0  0  0  0  0  0  0
   37.1870   30.9370   40.9930 C   0  0  0  0  0  0  0  0  0  0  0  0
   36.8790   29.8760   41.7390 N   0  0  0  0  0  0  0  0  0  0  0  0
   39.7970   29.5520   43.3760 H   0  0  0  0  0  0  0  0  0  0  0  0
   40.2960   31.5540   41.9270 H   0  0  0  0  0  0  0  0  0  0  0  0
   36.4370   31.3440   40.2990 H   0  0  0  0  0  0  0  0  0  0  0  0
  1 17  1  0  0  0  0
  1  3  1  0  0  0  0
  2  1  1  0  0  0  0
  4  5  2  0  0  0  0
  4  1  1  0  0  0  0
  5  9  1  0  0  0  0
  6 10  1  0  0  0  0
  6  5  1  0  0  0  0
  7  8  1  0  0  0  0
  7  6  2  0  0  0  0
  8  4  1  0  0  0  0
 11  7  1  0  0  0  0
 12 13  1  0  0  0  0
 12 11  2  0  0  0  0
 14 15  2  0  0  0  0
 14 12  1  0  0  0  0
 15 16  1  0  0  0  0
 16 11  1  0  0  0  0
 17 19  1  0  0  0  0
 18 17  1  0  0  0  0
 20 21  1  0  0  0  0
 20 17  1  0  0  0  0
 21 26  1  0  0  0  0
 22 27  1  0  0  0  0
 22 21  2  0  0  0  0
 23 22  1  0  0  0  0
 24 23  2  0  0  0  0
 24 25  1  0  0  0  0
 25 20  2  0  0  0  0
 28 24  1  0  0  0  0
M  END
>  <minimizedAffinity>
-4.29056025

$$$$
