
 OpenBabel03252506253D

 42 46  0  0  0  0  0  0  0  0999 V2000
   46.1220   30.3300   48.4430 C   0  0  0  0  0  0  0  0  0  0  0  0
   46.3270   30.0190   49.5110 H   0  0  0  0  0  0  0  0  0  0  0  0
   45.4680   31.2200   48.5360 H   0  0  0  0  0  0  0  0  0  0  0  0
   45.5800   27.8540   47.9830 C   0  0  0  0  0  0  0  0  0  0  0  0
   45.4270   29.2220   47.8070 C   0  0  0  0  0  0  0  0  0  0  0  0
   44.4750   29.6020   46.8890 C   0  0  0  0  0  0  0  0  0  0  0  0
   43.7130   28.6990   46.1780 C   0  0  0  0  0  0  0  0  0  0  0  0
   42.7430   28.7770   45.2540 N   0  0  0  0  0  0  0  0  0  0  0  0
   42.3230   27.5690   44.8810 C   0  0  0  0  0  0  0  0  0  0  0  0
   43.0350   26.6240   45.5780 C   0  0  0  0  0  0  0  0  0  0  0  0
   43.8830   27.3390   46.3690 C   0  0  0  0  0  0  0  0  0  0  0  0
   44.8240   26.9420   47.2770 C   0  0  0  0  0  0  0  0  0  0  0  0
   46.3460   27.6880   48.7190 H   0  0  0  0  0  0  0  0  0  0  0  0
   44.2370   30.6250   46.6400 H   0  0  0  0  0  0  0  0  0  0  0  0
   42.3640   29.6940   44.8740 H   0  0  0  0  0  0  0  0  0  0  0  0
   41.5470   27.4110   44.1460 H   0  0  0  0  0  0  0  0  0  0  0  0
   42.8490   25.5930   45.4270 H   0  0  0  0  0  0  0  0  0  0  0  0
   45.1560   25.5770   47.6170 C   0  0  0  0  0  0  0  0  0  0  0  0
   45.1750   24.4560   46.9280 C   0  0  0  0  0  0  0  0  0  0  0  0
   44.9440   24.2540   45.9130 H   0  0  0  0  0  0  0  0  0  0  0  0
   45.5350   23.2650   47.4500 C   0  0  0  0  0  3  0  0  0  0  0  0
   45.9060   23.2520   48.8080 C   0  0  0  0  0  3  0  0  0  0  0  0
   45.6800   25.0690   49.2090 S   0  0  0  0  0  0  0  0  0  0  0  0
   47.4280   30.7260   47.8630 C   0  0  0  0  0  0  0  0  0  0  0  0
   47.8910   31.4690   48.5620 H   0  0  0  0  0  0  0  0  0  0  0  0
   48.0890   29.8710   47.7470 H   0  0  0  0  0  0  0  0  0  0  0  0
   46.5910   32.9020   45.1490 C   0  0  0  0  0  0  0  0  0  0  0  0
   47.2540   31.8580   44.4860 C   0  0  0  0  0  0  0  0  0  0  0  0
   47.6420   30.9340   45.4000 C   0  0  0  0  0  0  0  0  0  0  0  0
   47.2320   31.3910   46.5860 N   0  0  0  0  0  0  0  0  0  0  0  0
   46.5990   32.5730   46.4500 N   0  0  0  0  0  0  0  0  0  0  0  0
   47.4540   31.7550   43.4220 H   0  0  0  0  0  0  0  0  0  0  0  0
   48.1780   30.0000   45.2440 H   0  0  0  0  0  0  0  0  0  0  0  0
   44.5460   35.8560   44.5210 C   0  0  0  0  0  0  0  0  0  0  0  0
   44.9630   36.2900   43.2730 C   0  0  0  0  0  0  0  0  0  0  0  0
   45.9580   35.5550   42.6480 C   0  0  0  0  0  0  0  0  0  0  0  0
   46.4560   34.4660   43.2920 N   0  0  0  0  0  0  0  0  0  0  0  0
   46.0330   34.0750   44.4940 C   0  0  0  0  0  0  0  0  0  0  0  0
   45.0770   34.7740   45.1030 N   0  0  0  0  0  0  0  0  0  0  0  0
   43.7700   36.4420   44.9930 H   0  0  0  0  0  0  0  0  0  0  0  0
   44.5790   37.1410   42.7610 H   0  0  0  0  0  0  0  0  0  0  0  0
   46.3900   35.7530   41.6910 H   0  0  0  0  0  0  0  0  0  0  0  0
  1  3  1  0  0  0  0
  1  2  1  0  0  0  0
  4 13  1  0  0  0  0
  5  4  1  0  0  0  0
  5  1  1  0  0  0  0
  6  5  2  0  0  0  0
  7 11  2  0  0  0  0
  7  6  1  0  0  0  0
  8  7  1  0  0  0  0
  9  8  1  0  0  0  0
  9 10  2  0  0  0  0
 10 11  1  0  0  0  0
 11 12  1  0  0  0  0
 12 18  1  0  0  0  0
 12  4  2  0  0  0  0
 14  6  1  0  0  0  0
 15  8  1  0  0  0  0
 16  9  1  0  0  0  0
 17 10  1  0  0  0  0
 18 23  1  0  0  0  0
 19 21  1  0  0  0  0
 19 18  2  0  0  0  0
 20 19  1  0  0  0  0
 21 22  2  0  0  0  0
 22 23  1  0  0  0  0
 24  1  1  0  0  0  0
 24 25  1  0  0  0  0
 26 24  1  0  0  0  0
 27 31  2  0  0  0  0
 28 27  1  0  0  0  0
 28 29  2  0  0  0  0
 29 30  1  0  0  0  0
 30 24  1  0  0  0  0
 31 30  1  0  0  0  0
 32 28  1  0  0  0  0
 33 29  1  0  0  0  0
 34 40  1  0  0  0  0
 34 39  1  0  0  0  0
 35 34  2  0  0  0  0
 36 35  1  0  0  0  0
 36 37  2  0  0  0  0
 37 38  1  0  0  0  0
 38 39  2  0  0  0  0
 38 27  1  0  0  0  0
 41 35  1  0  0  0  0
 42 36  1  0  0  0  0
M  END
>  <minimizedAffinity>
-5.44310951

>  <minimizedRMSD>
0.575747132

$$$$
