
 OpenBabel03252506253D

 42 46  0  0  0  0  0  0  0  0999 V2000
   46.2600   30.2920   48.4510 C   0  0  0  0  0  0  0  0  0  0  0  0
   46.5040   29.9020   49.4840 H   0  0  0  0  0  0  0  0  0  0  0  0
   45.5910   31.1570   48.6340 H   0  0  0  0  0  0  0  0  0  0  0  0
   45.8040   27.8550   47.7480 C   0  0  0  0  0  0  0  0  0  0  0  0
   45.5660   29.2230   47.7490 C   0  0  0  0  0  0  0  0  0  0  0  0
   44.5170   29.6460   46.9650 C   0  0  0  0  0  0  0  0  0  0  0  0
   43.7400   28.7850   46.2200 C   0  0  0  0  0  0  0  0  0  0  0  0
   42.6870   28.9080   45.3960 N   0  0  0  0  0  0  0  0  0  0  0  0
   42.2970   27.7270   44.9200 C   0  0  0  0  0  0  0  0  0  0  0  0
   43.1160   26.7540   45.4370 C   0  0  0  0  0  0  0  0  0  0  0  0
   43.9960   27.4250   46.2330 C   0  0  0  0  0  0  0  0  0  0  0  0
   45.0340   26.9860   47.0060 C   0  0  0  0  0  0  0  0  0  0  0  0
   46.6410   27.6540   48.3920 H   0  0  0  0  0  0  0  0  0  0  0  0
   44.2060   30.6740   46.8600 H   0  0  0  0  0  0  0  0  0  0  0  0
   42.2300   29.8380   45.1610 H   0  0  0  0  0  0  0  0  0  0  0  0
   41.4670   27.6060   44.2400 H   0  0  0  0  0  0  0  0  0  0  0  0
   42.9690   25.7370   45.1820 H   0  0  0  0  0  0  0  0  0  0  0  0
   45.4640   25.6130   47.1520 C   0  0  0  0  0  0  0  0  0  0  0  0
   45.9250   24.7170   46.3050 C   0  0  0  0  0  0  0  0  0  0  0  0
   46.1010   24.7690   45.2600 H   0  0  0  0  0  0  0  0  0  0  0  0
   46.2870   23.4680   46.6630 C   0  0  0  0  0  3  0  0  0  0  0  0
   46.1540   23.1330   48.0250 C   0  0  0  0  0  3  0  0  0  0  0  0
   45.4810   24.7540   48.6790 S   0  0  0  0  0  0  0  0  0  0  0  0
   47.5390   30.7610   47.8660 C   0  0  0  0  0  0  0  0  0  0  0  0
   47.9590   31.5320   48.5600 H   0  0  0  0  0  0  0  0  0  0  0  0
   48.2470   29.9460   47.7500 H   0  0  0  0  0  0  0  0  0  0  0  0
   46.6150   32.9040   45.1530 C   0  0  0  0  0  0  0  0  0  0  0  0
   47.2500   31.8480   44.4810 C   0  0  0  0  0  0  0  0  0  0  0  0
   47.6670   30.9350   45.3940 C   0  0  0  0  0  0  0  0  0  0  0  0
   47.3000   31.4100   46.5870 N   0  0  0  0  0  0  0  0  0  0  0  0
   46.6680   32.5930   46.4570 N   0  0  0  0  0  0  0  0  0  0  0  0
   47.4120   31.7300   43.4120 H   0  0  0  0  0  0  0  0  0  0  0  0
   48.1930   29.9960   45.2320 H   0  0  0  0  0  0  0  0  0  0  0  0
   44.5350   35.8360   44.5410 C   0  0  0  0  0  0  0  0  0  0  0  0
   44.9340   36.2730   43.2880 C   0  0  0  0  0  0  0  0  0  0  0  0
   45.9300   35.5460   42.6530 C   0  0  0  0  0  0  0  0  0  0  0  0
   46.4460   34.4630   43.2940 N   0  0  0  0  0  0  0  0  0  0  0  0
   46.0390   34.0700   44.5010 C   0  0  0  0  0  0  0  0  0  0  0  0
   45.0830   34.7610   45.1190 N   0  0  0  0  0  0  0  0  0  0  0  0
   43.7580   36.4160   45.0200 H   0  0  0  0  0  0  0  0  0  0  0  0
   44.5370   37.1190   42.7780 H   0  0  0  0  0  0  0  0  0  0  0  0
   46.3510   35.7470   41.6920 H   0  0  0  0  0  0  0  0  0  0  0  0
  1  3  1  0  0  0  0
  1  2  1  0  0  0  0
  4  5  1  0  0  0  0
  4 13  1  0  0  0  0
  5  1  1  0  0  0  0
  6  5  2  0  0  0  0
  7 11  2  0  0  0  0
  7  6  1  0  0  0  0
  8  7  1  0  0  0  0
  9  8  1  0  0  0  0
  9 10  2  0  0  0  0
 10 11  1  0  0  0  0
 11 12  1  0  0  0  0
 12 18  1  0  0  0  0
 12  4  2  0  0  0  0
 14  6  1  0  0  0  0
 15  8  1  0  0  0  0
 16  9  1  0  0  0  0
 17 10  1  0  0  0  0
 18 23  1  0  0  0  0
 19 21  1  0  0  0  0
 19 18  2  0  0  0  0
 20 19  1  0  0  0  0
 21 22  2  0  0  0  0
 22 23  1  0  0  0  0
 24  1  1  0  0  0  0
 24 25  1  0  0  0  0
 26 24  1  0  0  0  0
 27 31  2  0  0  0  0
 28 27  1  0  0  0  0
 28 29  2  0  0  0  0
 29 30  1  0  0  0  0
 30 24  1  0  0  0  0
 31 30  1  0  0  0  0
 32 28  1  0  0  0  0
 33 29  1  0  0  0  0
 34 40  1  0  0  0  0
 34 39  1  0  0  0  0
 35 34  2  0  0  0  0
 36 35  1  0  0  0  0
 36 37  2  0  0  0  0
 37 38  1  0  0  0  0
 38 39  2  0  0  0  0
 38 27  1  0  0  0  0
 41 35  1  0  0  0  0
 42 36  1  0  0  0  0
M  END
>  <minimizedAffinity>
-5.23299074

>  <minimizedRMSD>
1.00571144

$$$$
