
 OpenBabel03252504413D

 42 45  0  0  0  0  0  0  0  0999 V2000
   46.3270   32.2320   47.8170 C   0  0  0  0  0  0  0  0  0  0  0  0
   45.8780   31.8420   49.0420 C   0  0  0  0  0  0  0  0  0  0  0  0
   46.8690   31.1550   49.6090 N   0  0  0  0  0  0  0  0  0  0  0  0
   47.9250   31.0910   48.8050 C   0  0  0  0  0  0  0  0  0  0  0  0
   47.5850   31.7710   47.6670 N   0  0  0  0  0  0  0  0  0  0  0  0
   49.2100   30.4810   48.9590 N   0  0  0  0  0  0  0  0  0  0  0  0
   50.2720   31.3020   49.5850 C   0  0  0  0  0  0  0  0  0  0  0  0
   50.3980   30.7630   51.0050 C   0  0  0  0  0  0  0  0  0  0  0  0
   50.4720   29.2520   50.9760 C   0  0  0  0  0  0  0  0  0  0  0  0
   50.8230   28.7890   49.5710 C   0  0  0  0  0  0  0  0  0  0  0  0
   49.7080   29.1880   48.6220 C   0  0  0  0  0  0  0  0  0  0  0  0
   44.8940   32.0610   49.4570 H   0  0  0  0  0  0  0  0  0  0  0  0
   46.8400   30.7180   50.5620 H   0  0  0  0  0  0  0  0  0  0  0  0
   51.2340   31.1850   49.0630 H   0  0  0  0  0  0  0  0  0  0  0  0
   49.9470   32.3530   49.6690 H   0  0  0  0  0  0  0  0  0  0  0  0
   51.3070   31.1410   51.5230 H   0  0  0  0  0  0  0  0  0  0  0  0
   49.5100   31.0850   51.6070 H   0  0  0  0  0  0  0  0  0  0  0  0
   49.4760   28.8340   51.2110 H   0  0  0  0  0  0  0  0  0  0  0  0
   51.1780   28.8680   51.7150 H   0  0  0  0  0  0  0  0  0  0  0  0
   50.8250   27.6640   49.6200 H   0  0  0  0  0  0  0  0  0  0  0  0
   51.8100   29.1760   49.2400 H   0  0  0  0  0  0  0  0  0  0  0  0
   50.1490   29.2420   47.6060 H   0  0  0  0  0  0  0  0  0  0  0  0
   48.9240   28.4030   48.5910 H   0  0  0  0  0  0  0  0  0  0  0  0
   45.5770   33.0310   46.8140 C   0  0  0  0  0  0  0  0  0  0  0  0
   45.4760   34.0600   47.2520 H   0  0  0  0  0  0  0  0  0  0  0  0
   44.5620   32.6220   46.6750 H   0  0  0  0  0  0  0  0  0  0  0  0
   45.9450   33.8930   44.5260 C   0  0  0  0  0  3  0  0  0  0  0  0
   46.3460   33.1850   45.5590 C   0  0  0  0  0  3  0  0  0  0  0  0
   46.8070   33.9580   43.3500 C   0  0  0  0  0  0  0  0  0  0  0  0
   46.8100   35.0810   42.4950 C   0  0  0  0  0  0  0  0  0  0  0  0
   47.6680   35.0440   41.4030 C   0  0  0  0  0  0  0  0  0  0  0  0
   48.4550   33.9580   41.1960 N   0  0  0  0  0  0  0  0  0  0  0  0
   48.4310   32.8990   42.0290 C   0  0  0  0  0  0  0  0  0  0  0  0
   47.6260   32.8980   43.0830 N   0  0  0  0  0  0  0  0  0  0  0  0
   46.1590   35.8850   42.7380 H   0  0  0  0  0  0  0  0  0  0  0  0
   47.6430   35.9210   40.7690 H   0  0  0  0  0  0  0  0  0  0  0  0
   49.3410   31.8550   41.6300 C   0  0  0  0  0  0  0  0  0  0  0  0
   49.2410   30.9280   40.6560 C   0  0  0  0  0  0  0  0  0  0  0  0
   48.3530   30.9150   40.0370 H   0  0  0  0  0  0  0  0  0  0  0  0
   50.2600   30.0250   40.4700 C   0  0  0  0  0  3  0  0  0  0  0  0
   51.3580   30.1420   41.3320 C   0  0  0  0  0  3  0  0  0  0  0  0
   50.9240   31.5510   42.4120 S   0  0  0  0  0  0  0  0  0  0  0  0
  1  2  2  0  0  0  0
  2 12  1  0  0  0  0
  2  3  1  0  0  0  0
  3 13  1  0  0  0  0
  4  6  1  0  0  0  0
  4  3  1  0  0  0  0
  5  1  1  0  0  0  0
  5  4  2  0  0  0  0
  6  7  1  0  0  0  0
  7 15  1  0  0  0  0
  7  8  1  0  0  0  0
  8 16  1  0  0  0  0
  8 17  1  0  0  0  0
  9  8  1  0  0  0  0
  9 18  1  0  0  0  0
  9 19  1  0  0  0  0
 10 20  1  0  0  0  0
 10  9  1  0  0  0  0
 11  6  1  0  0  0  0
 11 10  1  0  0  0  0
 14  7  1  0  0  0  0
 21 10  1  0  0  0  0
 22 11  1  0  0  0  0
 23 11  1  0  0  0  0
 24 25  1  0  0  0  0
 24  1  1  0  0  0  0
 26 24  1  0  0  0  0
 27 28  2  0  0  0  0
 28 24  1  0  0  0  0
 29 27  1  0  0  0  0
 30 35  1  0  0  0  0
 30 29  2  0  0  0  0
 31 30  1  0  0  0  0
 32 31  2  0  0  0  0
 32 33  1  0  0  0  0
 33 34  2  0  0  0  0
 34 29  1  0  0  0  0
 36 31  1  0  0  0  0
 37 33  1  0  0  0  0
 37 42  1  0  0  0  0
 38 37  2  0  0  0  0
 39 38  1  0  0  0  0
 40 38  1  0  0  0  0
 40 41  2  0  0  0  0
 41 42  1  0  0  0  0
M  END
>  <minimizedAffinity>
-5.58978415

>  <minimizedRMSD>
0.846041858

$$$$
