
 OpenBabel03252500323D

 40 43  0  0  1  0  0  0  0  0999 V2000
   46.1460   31.7570   46.2690 N   0  0  0  0  0  0  0  0  0  0  0  0
   46.2720   32.6050   47.3970 C   0  0  0  0  0  0  0  0  0  0  0  0
   47.5730   32.3660   48.1630 C   0  0  0  0  0  0  0  0  0  0  0  0
   47.4540   30.9590   48.7330 C   0  0  0  0  0  0  0  0  0  0  0  0
   47.4110   30.0440   47.5300 C   0  0  0  0  0  0  0  0  0  0  0  0
   46.3110   30.4040   46.5810 C   0  0  2  0  0  0  0  0  0  0  0  0
   45.4820   32.2020   48.1090 H   0  0  0  0  0  0  0  0  0  0  0  0
   45.9800   33.6330   47.2940 H   0  0  0  0  0  0  0  0  0  0  0  0
   48.4110   32.4010   47.4480 H   0  0  0  0  0  0  0  0  0  0  0  0
   47.6740   33.0570   48.9960 H   0  0  0  0  0  0  0  0  0  0  0  0
   48.3370   30.6740   49.3310 H   0  0  0  0  0  0  0  0  0  0  0  0
   46.5340   30.8730   49.3440 H   0  0  0  0  0  0  0  0  0  0  0  0
   48.3890   30.1940   46.9900 H   0  0  0  0  0  0  0  0  0  0  0  0
   47.3450   28.9820   47.7740 H   0  0  0  0  0  0  0  0  0  0  0  0
   45.3800   30.1440   47.1850 H   0  0  0  0  0  0  0  0  0  0  0  0
   46.2770   29.4650   45.4680 C   0  0  0  0  0  0  0  0  0  0  0  0
   47.1390   28.7670   44.7370 C   0  0  0  0  0  0  0  0  0  0  0  0
   48.1660   28.9270   45.0340 H   0  0  0  0  0  0  0  0  0  0  0  0
   46.7430   27.9520   43.7390 C   0  0  0  0  0  0  0  0  0  0  0  0
   45.3540   27.8770   43.5060 C   0  0  0  0  0  0  0  0  0  0  0  0
   44.6160   29.0400   44.7960 S   0  0  0  0  0  0  0  0  0  0  0  0
   46.6290   32.2710   45.0350 C   0  0  0  0  0  0  0  0  0  0  0  0
   46.3380   31.6690   44.1560 H   0  0  0  0  0  0  0  0  0  0  0  0
   47.7550   32.3020   45.0590 H   0  0  0  0  0  0  0  0  0  0  0  0
   46.4110   34.4510   43.6110 C   0  0  1  0  0  0  0  0  0  0  0  0
   45.1160   33.9010   43.7650 C   0  0  0  0  0  0  0  0  0  0  0  0
   46.0710   33.6420   44.8810 C   0  0  1  0  0  0  0  0  0  0  0  0
   46.5630   35.5530   43.7540 H   0  0  0  0  0  0  0  0  0  0  0  0
   44.2360   34.5300   43.9820 H   0  0  0  0  0  0  0  0  0  0  0  0
   44.8150   32.9900   43.1820 H   0  0  0  0  0  0  0  0  0  0  0  0
   46.1640   34.2940   45.7560 H   0  0  0  0  0  0  0  0  0  0  0  0
   47.0940   33.0800   41.6460 C   0  0  0  0  0  0  0  0  0  0  0  0
   47.4850   33.9070   42.7390 C   0  0  0  0  0  0  0  0  0  0  0  0
   48.8170   34.1600   42.9410 C   0  0  0  0  0  0  0  0  0  0  0  0
   49.7100   33.5980   42.0710 N   0  0  0  0  0  0  0  0  0  0  0  0
   49.3140   32.8100   41.0320 C   0  0  0  0  0  0  0  0  0  0  0  0
   47.9950   32.5350   40.7980 N   0  0  0  0  0  0  0  0  0  0  0  0
   46.0430   32.8930   41.5040 H   0  0  0  0  0  0  0  0  0  0  0  0
   49.1220   34.7800   43.7600 H   0  0  0  0  0  0  0  0  0  0  0  0
   50.1310   32.4200   40.4070 H   0  0  0  0  0  0  0  0  0  0  0  0
  1  6  1  0  0  0  0
  1  2  1  0  0  0  0
  2  7  1  0  0  0  0
  2  3  1  0  0  0  0
  3  4  1  0  0  0  0
  3 10  1  0  0  0  0
  4 11  1  0  0  0  0
  4 12  1  0  0  0  0
  5 14  1  0  0  0  0
  5  4  1  0  0  0  0
  6 15  1  1  0  0  0
  6  5  1  0  0  0  0
  8  2  1  0  0  0  0
  9  3  1  0  0  0  0
 13  5  1  0  0  0  0
 16  6  1  0  0  0  0
 17 18  1  0  0  0  0
 17 16  2  0  0  0  0
 19 17  1  0  0  0  0
 20 19  2  0  0  0  0
 20 21  1  0  0  0  0
 21 16  1  0  0  0  0
 22 24  1  0  0  0  0
 22  1  1  0  0  0  0
 23 22  1  0  0  0  0
 25 28  1  1  0  0  0
 25 26  1  0  0  0  0
 25 27  1  0  0  0  0
 26 29  1  0  0  0  0
 26 27  1  0  0  0  0
 27 22  1  0  0  0  0
 27 31  1  1  0  0  0
 30 26  1  0  0  0  0
 32 33  1  0  0  0  0
 33 34  2  0  0  0  0
 33 25  1  0  0  0  0
 34 39  1  0  0  0  0
 35 34  1  0  0  0  0
 36 35  2  0  0  0  0
 37 36  1  0  0  0  0
 37 32  2  0  0  0  0
 38 32  1  0  0  0  0
 40 36  1  0  0  0  0
M  END
>  <minimizedAffinity>
-3.97858787

>  <minimizedRMSD>
1.95035875

$$$$
