
 OpenBabel03242522503D

 23 24  0  0  0  0  0  0  0  0999 V2000
   45.6800   30.6410   47.6980 O   0  0  0  0  0  0  0  0  0  0  0  0
   45.9820   31.9990   48.3890 P   0  0  2  0  0  0  0  0  0  0  0  0
   45.3840   31.8380   49.9500 O   0  0  0  0  0  0  0  0  0  0  0  0
   45.4370   32.6570   50.4920 H   0  0  0  0  0  0  0  0  0  0  0  0
   45.1370   33.1940   47.5530 O   0  0  0  0  0  0  0  0  0  0  0  0
   46.9750   33.2540   44.4180 C   0  0  0  0  0  0  0  0  0  0  0  0
   46.5520   32.8840   45.7100 C   0  0  0  0  0  0  0  0  0  0  0  0
   45.5230   33.5880   46.2890 C   0  0  0  0  0  0  0  0  0  0  0  0
   44.9720   34.5980   45.5820 N   0  0  0  0  0  0  0  0  0  0  0  0
   45.3670   34.9550   44.3580 C   0  0  0  0  0  0  0  0  0  0  0  0
   46.3720   34.2840   43.7690 N   0  0  0  0  0  0  0  0  0  0  0  0
   47.7740   32.7670   43.8770 H   0  0  0  0  0  0  0  0  0  0  0  0
   47.1190   32.0640   46.0750 H   0  0  0  0  0  0  0  0  0  0  0  0
   44.8220   35.7890   43.9250 H   0  0  0  0  0  0  0  0  0  0  0  0
   47.6150   32.2520   48.3560 O   0  0  0  0  0  0  0  0  0  0  0  0
   48.6530   31.6120   48.8980 C   0  0  0  0  0  0  0  0  0  0  0  0
   49.5880   32.3950   49.3710 O   0  0  0  0  0  0  0  0  0  0  0  0
   49.2780   30.1900   49.2300 C   0  0  0  0  0  0  0  0  0  0  0  0
   49.9470   29.8200   50.2960 C   0  0  0  0  0  0  0  0  0  0  0  0
   50.1290   30.5790   51.0780 H   0  0  0  0  0  0  0  0  0  0  0  0
   50.4010   28.5800   50.4460 C   0  0  0  0  0  3  0  0  0  0  0  0
   50.0700   27.7190   49.3180 C   0  0  0  0  0  3  0  0  0  0  0  0
   49.1080   28.9410   48.1870 S   0  0  0  0  0  0  0  0  0  0  0  0
  2  1  2  6  0  0  0
  2  3  1  0  0  0  0
  3  4  1  0  0  0  0
  5  2  1  0  0  0  0
  6  7  1  0  0  0  0
  7 13  1  0  0  0  0
  7  8  2  0  0  0  0
  8  5  1  0  0  0  0
  9  8  1  0  0  0  0
 10  9  2  0  0  0  0
 11 10  1  0  0  0  0
 11  6  2  0  0  0  0
 12  6  1  0  0  0  0
 14 10  1  0  0  0  0
 15  2  1  0  0  0  0
 15 16  1  0  0  0  0
 16 18  1  0  0  0  0
 16 17  2  0  0  0  0
 18 19  2  0  0  0  0
 19 21  1  0  0  0  0
 19 20  1  0  0  0  0
 22 21  2  0  0  0  0
 23 18  1  0  0  0  0
 23 22  1  0  0  0  0
M  END
>  <minimizedAffinity>
-4.69162512

>  <minimizedRMSD>
0.823169649

$$$$
