
 OpenBabel03242522503D

 23 24  0  0  0  0  0  0  0  0999 V2000
   45.5060   30.7900   47.5620 O   0  0  0  0  0  0  0  0  0  0  0  0
   45.8660   32.0670   48.3690 P   0  0  2  0  0  0  0  0  0  0  0  0
   45.2890   31.7820   49.9200 O   0  0  0  0  0  0  0  0  0  0  0  0
   45.3790   32.5460   50.5340 H   0  0  0  0  0  0  0  0  0  0  0  0
   45.0480   33.3620   47.6630 O   0  0  0  0  0  0  0  0  0  0  0  0
   46.6910   33.5080   44.4250 C   0  0  0  0  0  0  0  0  0  0  0  0
   46.3480   33.1040   45.7290 C   0  0  0  0  0  0  0  0  0  0  0  0
   45.3550   33.7890   46.3880 C   0  0  0  0  0  0  0  0  0  0  0  0
   44.7610   34.8150   45.7420 N   0  0  0  0  0  0  0  0  0  0  0  0
   45.0790   35.2040   44.5060 C   0  0  0  0  0  0  0  0  0  0  0  0
   46.0470   34.5520   43.8400 N   0  0  0  0  0  0  0  0  0  0  0  0
   47.4560   33.0380   43.8230 H   0  0  0  0  0  0  0  0  0  0  0  0
   46.9380   32.2760   46.0380 H   0  0  0  0  0  0  0  0  0  0  0  0
   44.5070   36.0470   44.1280 H   0  0  0  0  0  0  0  0  0  0  0  0
   47.5060   32.2690   48.3260 O   0  0  0  0  0  0  0  0  0  0  0  0
   48.5300   31.5520   48.7930 C   0  0  0  0  0  0  0  0  0  0  0  0
   49.4840   32.2590   49.3410 O   0  0  0  0  0  0  0  0  0  0  0  0
   49.1220   30.0880   48.9700 C   0  0  0  0  0  0  0  0  0  0  0  0
   49.8920   29.6280   49.9260 C   0  0  0  0  0  0  0  0  0  0  0  0
   50.1970   30.3300   50.7230 H   0  0  0  0  0  0  0  0  0  0  0  0
   50.3020   28.3630   49.9540 C   0  0  0  0  0  3  0  0  0  0  0  0
   49.8030   27.5870   48.8260 C   0  0  0  0  0  3  0  0  0  0  0  0
   48.7750   28.9140   47.8850 S   0  0  0  0  0  0  0  0  0  0  0  0
  2  1  2  6  0  0  0
  2  3  1  0  0  0  0
  3  4  1  0  0  0  0
  5  2  1  0  0  0  0
  6  7  1  0  0  0  0
  7 13  1  0  0  0  0
  7  8  2  0  0  0  0
  8  5  1  0  0  0  0
  9  8  1  0  0  0  0
 10  9  2  0  0  0  0
 11  6  2  0  0  0  0
 11 10  1  0  0  0  0
 12  6  1  0  0  0  0
 14 10  1  0  0  0  0
 15  2  1  0  0  0  0
 15 16  1  0  0  0  0
 16 18  1  0  0  0  0
 16 17  2  0  0  0  0
 18 19  2  0  0  0  0
 19 21  1  0  0  0  0
 19 20  1  0  0  0  0
 22 21  2  0  0  0  0
 23 22  1  0  0  0  0
 23 18  1  0  0  0  0
M  END
>  <minimizedAffinity>
-4.66226768

>  <minimizedRMSD>
0.514929533

$$$$
