
 OpenBabel03242522493D

 23 24  0  0  0  0  0  0  0  0999 V2000
   45.5550   30.7630   47.5790 O   0  0  0  0  0  0  0  0  0  0  0  0
   45.9030   32.0530   48.3710 P   0  0  2  0  0  0  0  0  0  0  0  0
   45.3400   31.7750   49.9290 O   0  0  0  0  0  0  0  0  0  0  0  0
   45.4240   32.5450   50.5350 H   0  0  0  0  0  0  0  0  0  0  0  0
   45.0620   33.3300   47.6580 O   0  0  0  0  0  0  0  0  0  0  0  0
   46.7060   33.4910   44.4210 C   0  0  0  0  0  0  0  0  0  0  0  0
   46.3630   33.0800   45.7240 C   0  0  0  0  0  0  0  0  0  0  0  0
   45.3690   33.7620   46.3860 C   0  0  0  0  0  0  0  0  0  0  0  0
   44.7750   34.7920   45.7450 N   0  0  0  0  0  0  0  0  0  0  0  0
   45.0940   35.1860   44.5100 C   0  0  0  0  0  0  0  0  0  0  0  0
   46.0620   34.5380   43.8410 N   0  0  0  0  0  0  0  0  0  0  0  0
   47.4710   33.0230   43.8170 H   0  0  0  0  0  0  0  0  0  0  0  0
   46.9530   32.2510   46.0290 H   0  0  0  0  0  0  0  0  0  0  0  0
   44.5210   36.0320   44.1370 H   0  0  0  0  0  0  0  0  0  0  0  0
   47.5390   32.2760   48.3150 O   0  0  0  0  0  0  0  0  0  0  0  0
   48.5730   31.6130   48.8370 C   0  0  0  0  0  0  0  0  0  0  0  0
   49.5160   32.3750   49.3290 O   0  0  0  0  0  0  0  0  0  0  0  0
   49.1870   30.1770   49.1270 C   0  0  0  0  0  0  0  0  0  0  0  0
   49.1420   29.1020   48.3770 C   0  0  0  0  0  0  0  0  0  0  0  0
   48.6010   29.1690   47.4160 H   0  0  0  0  0  0  0  0  0  0  0  0
   49.7210   27.9630   48.7440 C   0  0  0  0  0  3  0  0  0  0  0  0
   50.3860   28.0620   50.0380 C   0  0  0  0  0  3  0  0  0  0  0  0
   50.0250   29.8930   50.5030 S   0  0  0  0  0  0  0  0  0  0  0  0
  2  1  2  6  0  0  0
  2  3  1  0  0  0  0
  3  4  1  0  0  0  0
  5  2  1  0  0  0  0
  6  7  1  0  0  0  0
  7 13  1  0  0  0  0
  7  8  2  0  0  0  0
  8  5  1  0  0  0  0
  9  8  1  0  0  0  0
 10  9  2  0  0  0  0
 11  6  2  0  0  0  0
 11 10  1  0  0  0  0
 12  6  1  0  0  0  0
 14 10  1  0  0  0  0
 15  2  1  0  0  0  0
 15 16  1  0  0  0  0
 16 18  1  0  0  0  0
 16 17  2  0  0  0  0
 18 23  1  0  0  0  0
 19 21  1  0  0  0  0
 19 18  2  0  0  0  0
 20 19  1  0  0  0  0
 21 22  2  0  0  0  0
 22 23  1  0  0  0  0
M  END
>  <minimizedAffinity>
-4.73603249

>  <minimizedRMSD>
0.658742368

$$$$
