
 OpenBabel03242522493D

 23 24  0  0  0  0  0  0  0  0999 V2000
   45.5070   30.7890   47.5630 O   0  0  0  0  0  0  0  0  0  0  0  0
   45.8660   32.0670   48.3700 P   0  0  2  0  0  0  0  0  0  0  0  0
   45.2880   31.7830   49.9210 O   0  0  0  0  0  0  0  0  0  0  0  0
   45.3770   32.5460   50.5350 H   0  0  0  0  0  0  0  0  0  0  0  0
   45.0470   33.3610   47.6630 O   0  0  0  0  0  0  0  0  0  0  0  0
   46.6920   33.5060   44.4260 C   0  0  0  0  0  0  0  0  0  0  0  0
   46.3480   33.1030   45.7300 C   0  0  0  0  0  0  0  0  0  0  0  0
   45.3550   33.7880   46.3890 C   0  0  0  0  0  0  0  0  0  0  0  0
   44.7610   34.8140   45.7420 N   0  0  0  0  0  0  0  0  0  0  0  0
   45.0800   35.2030   44.5060 C   0  0  0  0  0  0  0  0  0  0  0  0
   46.0480   34.5510   43.8400 N   0  0  0  0  0  0  0  0  0  0  0  0
   47.4570   33.0360   43.8250 H   0  0  0  0  0  0  0  0  0  0  0  0
   46.9380   32.2750   46.0390 H   0  0  0  0  0  0  0  0  0  0  0  0
   44.5080   36.0470   44.1280 H   0  0  0  0  0  0  0  0  0  0  0  0
   47.5050   32.2700   48.3290 O   0  0  0  0  0  0  0  0  0  0  0  0
   48.5300   31.5520   48.7940 C   0  0  0  0  0  0  0  0  0  0  0  0
   49.4850   32.2590   49.3400 O   0  0  0  0  0  0  0  0  0  0  0  0
   49.1210   30.0890   48.9700 C   0  0  0  0  0  0  0  0  0  0  0  0
   49.8920   29.6280   49.9260 C   0  0  0  0  0  0  0  0  0  0  0  0
   50.1980   30.3310   50.7220 H   0  0  0  0  0  0  0  0  0  0  0  0
   50.3010   28.3640   49.9520 C   0  0  0  0  0  3  0  0  0  0  0  0
   49.8010   27.5870   48.8240 C   0  0  0  0  0  3  0  0  0  0  0  0
   48.7740   28.9150   47.8850 S   0  0  0  0  0  0  0  0  0  0  0  0
  2  1  2  6  0  0  0
  2  3  1  0  0  0  0
  3  4  1  0  0  0  0
  5  2  1  0  0  0  0
  6  7  1  0  0  0  0
  7 13  1  0  0  0  0
  7  8  2  0  0  0  0
  8  5  1  0  0  0  0
  9  8  1  0  0  0  0
 10  9  2  0  0  0  0
 11  6  2  0  0  0  0
 11 10  1  0  0  0  0
 12  6  1  0  0  0  0
 14 10  1  0  0  0  0
 15  2  1  0  0  0  0
 15 16  1  0  0  0  0
 16 18  1  0  0  0  0
 16 17  2  0  0  0  0
 18 19  2  0  0  0  0
 19 21  1  0  0  0  0
 19 20  1  0  0  0  0
 22 21  2  0  0  0  0
 23 22  1  0  0  0  0
 23 18  1  0  0  0  0
M  END
>  <minimizedAffinity>
-4.66214561

>  <minimizedRMSD>
0.508302748

$$$$
