
 OpenBabel03242519403D

 26 27  0  0  0  0  0  0  0  0999 V2000
   48.0300   32.8150   41.9300 O   0  0  0  0  0  0  0  0  0  0  0  0
   47.1040   33.9260   41.3680 P   0  0  2  0  0  0  0  0  0  0  0  0
   45.5330   33.6920   42.0120 O   0  0  0  0  0  0  0  0  0  0  0  0
   44.3730   35.9090   44.6660 C   0  0  0  0  0  0  0  0  0  0  0  0
   44.6450   35.4050   43.3710 C   0  0  0  0  0  0  0  0  0  0  0  0
   45.2790   34.1560   43.2880 C   0  0  0  0  0  0  0  0  0  0  0  0
   45.5900   33.5100   44.4310 N   0  0  0  0  0  0  0  0  0  0  0  0
   45.3160   34.0210   45.6510 C   0  0  0  0  0  0  0  0  0  0  0  0
   44.7120   35.2130   45.7780 N   0  0  0  0  0  0  0  0  0  0  0  0
   43.8850   36.8750   44.6840 H   0  0  0  0  0  0  0  0  0  0  0  0
   44.3660   35.9800   42.5050 H   0  0  0  0  0  0  0  0  0  0  0  0
   45.5810   33.4730   46.5470 H   0  0  0  0  0  0  0  0  0  0  0  0
   47.0350   33.7970   39.7180 O   0  0  0  0  0  0  0  0  0  0  0  0
   46.0390   33.3460   38.9270 C   0  0  0  0  0  0  0  0  0  0  0  0
   46.2210   33.0760   37.6260 O   0  0  0  0  0  0  0  0  0  0  0  0
   44.4850   32.9050   38.8440 C   0  0  0  0  0  0  0  0  0  0  0  0
   43.4050   33.7680   38.5670 C   0  0  0  0  0  0  0  0  0  0  0  0
   43.6360   34.8350   38.3640 H   0  0  0  0  0  0  0  0  0  0  0  0
   42.1820   33.3040   38.5550 C   0  0  0  0  0  3  0  0  0  0  0  0
   42.1160   31.9230   38.8380 C   0  0  0  0  0  3  0  0  0  0  0  0
   43.9850   31.5080   39.0910 S   0  0  0  0  0  0  0  0  0  0  0  0
   47.7040   35.3690   41.9110 O   0  0  0  0  0  0  0  0  0  0  0  0
   48.9540   35.6700   41.3880 C   0  0  0  0  0  0  0  0  0  0  0  0
   49.3980   36.9310   41.7480 F   0  0  0  0  0  0  0  0  0  0  0  0
   49.8390   34.6890   41.7020 F   0  0  0  0  0  0  0  0  0  0  0  0
   48.7930   35.6910   40.0020 F   0  0  0  0  0  0  0  0  0  0  0  0
  2 22  1  0  0  0  0
  2  1  2  1  0  0  0
  2  3  1  0  0  0  0
  3  6  1  0  0  0  0
  4 10  1  0  0  0  0
  4  9  1  0  0  0  0
  5  4  2  0  0  0  0
  6  5  1  0  0  0  0
  6  7  2  0  0  0  0
  7  8  1  0  0  0  0
  8  9  2  0  0  0  0
  8 12  1  0  0  0  0
 11  5  1  0  0  0  0
 13  2  1  0  0  0  0
 14 13  1  0  0  0  0
 15 14  2  0  0  0  0
 16 14  1  0  0  0  0
 16 21  1  0  0  0  0
 17 16  2  0  0  0  0
 18 17  1  0  0  0  0
 19 17  1  0  0  0  0
 19 20  2  0  0  0  0
 20 21  1  0  0  0  0
 23 25  1  0  0  0  0
 23 24  1  0  0  0  0
 23 22  1  0  0  0  0
 26 23  1  0  0  0  0
M  END
>  <minimizedAffinity>
-5.03442907

>  <minimizedRMSD>
1.85509348

$$$$
