
 OpenBabel03242519403D

 26 27  0  0  0  0  0  0  0  0999 V2000
   48.0110   32.8950   41.6680 O   0  0  0  0  0  0  0  0  0  0  0  0
   47.1410   34.1080   41.2480 P   0  0  2  0  0  0  0  0  0  0  0  0
   45.5590   33.8760   41.8660 O   0  0  0  0  0  0  0  0  0  0  0  0
   44.4020   35.9030   44.6690 C   0  0  0  0  0  0  0  0  0  0  0  0
   44.6680   35.4880   43.3420 C   0  0  0  0  0  0  0  0  0  0  0  0
   45.3110   34.2520   43.1720 C   0  0  0  0  0  0  0  0  0  0  0  0
   45.6350   33.5350   44.2670 N   0  0  0  0  0  0  0  0  0  0  0  0
   45.3660   33.9610   45.5200 C   0  0  0  0  0  0  0  0  0  0  0  0
   44.7540   35.1370   45.7300 N   0  0  0  0  0  0  0  0  0  0  0  0
   43.9060   36.8600   44.7540 H   0  0  0  0  0  0  0  0  0  0  0  0
   44.3780   36.1160   42.5170 H   0  0  0  0  0  0  0  0  0  0  0  0
   45.6420   33.3570   46.3760 H   0  0  0  0  0  0  0  0  0  0  0  0
   47.0690   34.1830   39.5940 O   0  0  0  0  0  0  0  0  0  0  0  0
   46.9520   33.1890   38.6890 C   0  0  0  0  0  0  0  0  0  0  0  0
   46.6930   33.4230   37.3940 O   0  0  0  0  0  0  0  0  0  0  0  0
   47.0100   31.5930   38.4320 C   0  0  0  0  0  0  0  0  0  0  0  0
   48.0510   30.7370   38.8470 C   0  0  0  0  0  0  0  0  0  0  0  0
   48.8910   31.1850   39.4190 H   0  0  0  0  0  0  0  0  0  0  0  0
   48.0050   29.4620   38.5560 C   0  0  0  0  0  3  0  0  0  0  0  0
   46.8530   29.1060   37.8240 C   0  0  0  0  0  3  0  0  0  0  0  0
   45.9680   30.8170   37.6760 S   0  0  0  0  0  0  0  0  0  0  0  0
   47.8110   35.4450   41.9580 O   0  0  0  0  0  0  0  0  0  0  0  0
   49.0540   35.7730   41.4370 C   0  0  0  0  0  0  0  0  0  0  0  0
   49.4630   37.0490   41.7840 F   0  0  0  0  0  0  0  0  0  0  0  0
   49.9630   34.8200   41.7640 F   0  0  0  0  0  0  0  0  0  0  0  0
   48.8990   35.7740   40.0490 F   0  0  0  0  0  0  0  0  0  0  0  0
  2  1  2  1  0  0  0
  2  3  1  0  0  0  0
  2 22  1  0  0  0  0
  3  6  1  0  0  0  0
  4 10  1  0  0  0  0
  4  9  1  0  0  0  0
  5  4  2  0  0  0  0
  6  5  1  0  0  0  0
  6  7  2  0  0  0  0
  7  8  1  0  0  0  0
  8  9  2  0  0  0  0
  8 12  1  0  0  0  0
 11  5  1  0  0  0  0
 13  2  1  0  0  0  0
 14 13  1  0  0  0  0
 15 14  2  0  0  0  0
 16 14  1  0  0  0  0
 16 17  2  0  0  0  0
 17 18  1  0  0  0  0
 19 17  1  0  0  0  0
 20 19  2  0  0  0  0
 21 20  1  0  0  0  0
 21 16  1  0  0  0  0
 23 25  1  0  0  0  0
 23 24  1  0  0  0  0
 23 22  1  0  0  0  0
 26 23  1  0  0  0  0
M  END
>  <minimizedAffinity>
-4.76169729

>  <minimizedRMSD>
0.607792139

$$$$
