
 OpenBabel03242519403D

 26 27  0  0  0  0  0  0  0  0999 V2000
   48.0020   32.8980   41.7350 O   0  0  0  0  0  0  0  0  0  0  0  0
   47.1310   34.0950   41.2700 P   0  0  2  0  0  0  0  0  0  0  0  0
   45.5460   33.8780   41.8850 O   0  0  0  0  0  0  0  0  0  0  0  0
   44.3980   35.9180   44.6820 C   0  0  0  0  0  0  0  0  0  0  0  0
   44.6630   35.4980   43.3570 C   0  0  0  0  0  0  0  0  0  0  0  0
   45.2990   34.2590   43.1900 C   0  0  0  0  0  0  0  0  0  0  0  0
   45.6180   33.5420   44.2870 N   0  0  0  0  0  0  0  0  0  0  0  0
   45.3500   33.9730   45.5390 C   0  0  0  0  0  0  0  0  0  0  0  0
   44.7440   35.1520   45.7460 N   0  0  0  0  0  0  0  0  0  0  0  0
   43.9070   36.8780   44.7650 H   0  0  0  0  0  0  0  0  0  0  0  0
   44.3770   36.1260   42.5300 H   0  0  0  0  0  0  0  0  0  0  0  0
   45.6220   33.3680   46.3970 H   0  0  0  0  0  0  0  0  0  0  0  0
   47.0690   34.1150   39.6140 O   0  0  0  0  0  0  0  0  0  0  0  0
   46.8450   33.1070   38.7460 C   0  0  0  0  0  0  0  0  0  0  0  0
   46.1330   33.2710   37.6210 O   0  0  0  0  0  0  0  0  0  0  0  0
   47.1090   31.5480   38.4000 C   0  0  0  0  0  0  0  0  0  0  0  0
   48.1790   30.7730   38.8930 C   0  0  0  0  0  0  0  0  0  0  0  0
   48.8890   31.2590   39.5950 H   0  0  0  0  0  0  0  0  0  0  0  0
   48.3090   29.5260   38.5200 C   0  0  0  0  0  3  0  0  0  0  0  0
   47.3010   29.1110   37.6240 C   0  0  0  0  0  3  0  0  0  0  0  0
   46.2580   30.7310   37.4670 S   0  0  0  0  0  0  0  0  0  0  0  0
   47.7920   35.4560   41.9400 O   0  0  0  0  0  0  0  0  0  0  0  0
   49.0420   35.7670   41.4210 C   0  0  0  0  0  0  0  0  0  0  0  0
   49.4690   37.0360   41.7730 F   0  0  0  0  0  0  0  0  0  0  0  0
   49.9350   34.7990   41.7470 F   0  0  0  0  0  0  0  0  0  0  0  0
   48.8880   35.7750   40.0330 F   0  0  0  0  0  0  0  0  0  0  0  0
  2  1  2  1  0  0  0
  2  3  1  0  0  0  0
  2 22  1  0  0  0  0
  3  6  1  0  0  0  0
  4 10  1  0  0  0  0
  4  9  1  0  0  0  0
  5  4  2  0  0  0  0
  6  5  1  0  0  0  0
  6  7  2  0  0  0  0
  7  8  1  0  0  0  0
  8  9  2  0  0  0  0
  8 12  1  0  0  0  0
 11  5  1  0  0  0  0
 13  2  1  0  0  0  0
 14 13  1  0  0  0  0
 15 14  2  0  0  0  0
 16 14  1  0  0  0  0
 16 17  2  0  0  0  0
 17 18  1  0  0  0  0
 19 17  1  0  0  0  0
 20 19  2  0  0  0  0
 21 20  1  0  0  0  0
 21 16  1  0  0  0  0
 23 25  1  0  0  0  0
 23 24  1  0  0  0  0
 23 22  1  0  0  0  0
 26 23  1  0  0  0  0
M  END
>  <minimizedAffinity>
-4.75750542

>  <minimizedRMSD>
0.653001785

$$$$
