
 OpenBabel03242519403D

 26 27  0  0  0  0  0  0  0  0999 V2000
   48.0150   32.8900   41.7700 O   0  0  0  0  0  0  0  0  0  0  0  0
   47.1610   34.0960   41.2960 P   0  0  2  0  0  0  0  0  0  0  0  0
   45.5660   33.8920   41.8900 O   0  0  0  0  0  0  0  0  0  0  0  0
   44.3880   35.9280   44.6770 C   0  0  0  0  0  0  0  0  0  0  0  0
   44.6670   35.5100   43.3540 C   0  0  0  0  0  0  0  0  0  0  0  0
   45.3050   34.2710   43.1930 C   0  0  0  0  0  0  0  0  0  0  0  0
   45.6130   33.5530   44.2920 N   0  0  0  0  0  0  0  0  0  0  0  0
   45.3320   33.9830   45.5420 C   0  0  0  0  0  0  0  0  0  0  0  0
   44.7240   35.1620   45.7430 N   0  0  0  0  0  0  0  0  0  0  0  0
   43.8960   36.8880   44.7560 H   0  0  0  0  0  0  0  0  0  0  0  0
   44.3890   36.1390   42.5250 H   0  0  0  0  0  0  0  0  0  0  0  0
   45.5960   33.3770   46.4020 H   0  0  0  0  0  0  0  0  0  0  0  0
   47.1210   34.1190   39.6400 O   0  0  0  0  0  0  0  0  0  0  0  0
   46.5680   33.2420   38.7760 C   0  0  0  0  0  0  0  0  0  0  0  0
   46.6980   33.3640   37.4470 O   0  0  0  0  0  0  0  0  0  0  0  0
   45.6950   31.8900   38.6090 C   0  0  0  0  0  0  0  0  0  0  0  0
   44.5640   31.5490   39.3780 C   0  0  0  0  0  0  0  0  0  0  0  0
   44.2240   32.2740   40.1480 H   0  0  0  0  0  0  0  0  0  0  0  0
   43.9520   30.4110   39.1740 C   0  0  0  0  0  3  0  0  0  0  0  0
   44.5480   29.6430   38.1510 C   0  0  0  0  0  3  0  0  0  0  0  0
   46.0050   30.7960   37.6240 S   0  0  0  0  0  0  0  0  0  0  0  0
   47.8250   35.4490   41.9770 O   0  0  0  0  0  0  0  0  0  0  0  0
   49.0620   35.7780   41.4410 C   0  0  0  0  0  0  0  0  0  0  0  0
   49.4760   37.0530   41.7870 F   0  0  0  0  0  0  0  0  0  0  0  0
   49.9740   34.8230   41.7540 F   0  0  0  0  0  0  0  0  0  0  0  0
   48.8880   35.7840   40.0560 F   0  0  0  0  0  0  0  0  0  0  0  0
  2  1  2  1  0  0  0
  2  3  1  0  0  0  0
  2 22  1  0  0  0  0
  3  6  1  0  0  0  0
  4 10  1  0  0  0  0
  4  9  1  0  0  0  0
  5  4  2  0  0  0  0
  6  5  1  0  0  0  0
  6  7  2  0  0  0  0
  7  8  1  0  0  0  0
  8  9  2  0  0  0  0
  8 12  1  0  0  0  0
 11  5  1  0  0  0  0
 13  2  1  0  0  0  0
 14 13  1  0  0  0  0
 15 14  2  0  0  0  0
 16 14  1  0  0  0  0
 16 17  2  0  0  0  0
 17 18  1  0  0  0  0
 19 17  1  0  0  0  0
 20 19  2  0  0  0  0
 21 20  1  0  0  0  0
 21 16  1  0  0  0  0
 23 25  1  0  0  0  0
 23 24  1  0  0  0  0
 23 22  1  0  0  0  0
 26 23  1  0  0  0  0
M  END
>  <minimizedAffinity>
-4.80695915

>  <minimizedRMSD>
0.654515624

$$$$
