
 OpenBabel03242510503D

 19 20  0  0  0  0  0  0  0  0999 V2000
   44.5240   36.2290   44.6230 C   0  0  0  0  0  0  0  0  0  0  0  0
   45.1100   36.3160   43.3440 C   0  0  0  0  0  0  0  0  0  0  0  0
   45.8900   35.2280   42.9150 C   0  0  0  0  0  0  0  0  0  0  0  0
   46.0440   34.1530   43.7360 N   0  0  0  0  0  0  0  0  0  0  0  0
   45.4660   34.1090   44.9560 C   0  0  0  0  0  0  0  0  0  0  0  0
   44.7090   35.1550   45.3830 N   0  0  0  0  0  0  0  0  0  0  0  0
   46.7240   32.1020   45.3800 C   0  0  0  0  0  0  0  0  0  0  0  0
   47.4890   32.2460   44.4190 O   0  0  0  0  0  0  0  0  0  0  0  0
   45.6640   32.9520   45.7730 N   0  0  0  0  0  0  0  0  0  0  0  0
   43.9090   36.9900   45.0670 H   0  0  0  0  0  0  0  0  0  0  0  0
   44.9250   37.2100   42.7750 H   0  0  0  0  0  0  0  0  0  0  0  0
   46.3360   35.2950   41.9400 H   0  0  0  0  0  0  0  0  0  0  0  0
   45.0620   32.7670   46.5950 H   0  0  0  0  0  0  0  0  0  0  0  0
   46.9610   30.8820   46.2110 C   0  0  0  0  0  0  0  0  0  0  0  0
   47.7670   30.8090   47.4360 C   0  0  0  0  0  0  0  0  0  0  0  0
   48.2500   31.6990   47.8000 H   0  0  0  0  0  0  0  0  0  0  0  0
   47.7820   29.5420   47.9570 C   0  0  0  0  0  3  0  0  0  0  0  0
   47.1290   28.4950   47.4030 C   0  0  0  0  0  3  0  0  0  0  0  0
   46.3370   29.2640   45.9250 S   0  0  0  0  0  0  0  0  0  0  0  0
  1 10  1  0  0  0  0
  1  6  1  0  0  0  0
  2  1  2  0  0  0  0
  3  2  1  0  0  0  0
  3  4  2  0  0  0  0
  4  5  1  0  0  0  0
  5  6  2  0  0  0  0
  5  9  1  0  0  0  0
  7  9  1  0  0  0  0
  7 14  1  0  0  0  0
  8  7  2  0  0  0  0
  9 13  1  0  0  0  0
 11  2  1  0  0  0  0
 12  3  1  0  0  0  0
 14 15  2  0  0  0  0
 15 16  1  0  0  0  0
 15 17  1  0  0  0  0
 18 17  2  0  0  0  0
 19 14  1  0  0  0  0
 19 18  1  0  0  0  0
M  END
>  <minimizedAffinity>
-4.17321014

>  <minimizedRMSD>
2.16344786

$$$$
