
 OpenBabel03242510493D

 19 20  0  0  0  0  0  0  0  0999 V2000
   44.5240   36.2290   44.6230 C   0  0  0  0  0  0  0  0  0  0  0  0
   45.1100   36.3160   43.3440 C   0  0  0  0  0  0  0  0  0  0  0  0
   45.8890   35.2280   42.9150 C   0  0  0  0  0  0  0  0  0  0  0  0
   46.0440   34.1530   43.7360 N   0  0  0  0  0  0  0  0  0  0  0  0
   45.4660   34.1090   44.9560 C   0  0  0  0  0  0  0  0  0  0  0  0
   44.7100   35.1560   45.3830 N   0  0  0  0  0  0  0  0  0  0  0  0
   46.7240   32.1030   45.3800 C   0  0  0  0  0  0  0  0  0  0  0  0
   47.4890   32.2470   44.4190 O   0  0  0  0  0  0  0  0  0  0  0  0
   45.6650   32.9520   45.7740 N   0  0  0  0  0  0  0  0  0  0  0  0
   43.9090   36.9910   45.0660 H   0  0  0  0  0  0  0  0  0  0  0  0
   44.9250   37.2100   42.7740 H   0  0  0  0  0  0  0  0  0  0  0  0
   46.3350   35.2950   41.9400 H   0  0  0  0  0  0  0  0  0  0  0  0
   45.0620   32.7680   46.5960 H   0  0  0  0  0  0  0  0  0  0  0  0
   46.9620   30.8840   46.2120 C   0  0  0  0  0  0  0  0  0  0  0  0
   47.7660   30.8110   47.4370 C   0  0  0  0  0  0  0  0  0  0  0  0
   48.2460   31.7020   47.8030 H   0  0  0  0  0  0  0  0  0  0  0  0
   47.7810   29.5440   47.9580 C   0  0  0  0  0  3  0  0  0  0  0  0
   47.1310   28.4960   47.4040 C   0  0  0  0  0  3  0  0  0  0  0  0
   46.3410   29.2640   45.9240 S   0  0  0  0  0  0  0  0  0  0  0  0
  1 10  1  0  0  0  0
  1  6  1  0  0  0  0
  2  1  2  0  0  0  0
  3  2  1  0  0  0  0
  3  4  2  0  0  0  0
  4  5  1  0  0  0  0
  5  6  2  0  0  0  0
  5  9  1  0  0  0  0
  7  9  1  0  0  0  0
  7 14  1  0  0  0  0
  8  7  2  0  0  0  0
  9 13  1  0  0  0  0
 11  2  1  0  0  0  0
 12  3  1  0  0  0  0
 14 15  2  0  0  0  0
 15 16  1  0  0  0  0
 15 17  1  0  0  0  0
 18 17  2  0  0  0  0
 19 14  1  0  0  0  0
 19 18  1  0  0  0  0
M  END
>  <minimizedAffinity>
-4.17673063

>  <minimizedRMSD>
2.14604449

$$$$
