
 OpenBabel03242510493D

 19 20  0  0  0  0  0  0  0  0999 V2000
   44.5220   36.1440   44.6550 C   0  0  0  0  0  0  0  0  0  0  0  0
   45.0810   36.3260   43.3730 C   0  0  0  0  0  0  0  0  0  0  0  0
   45.8920   35.2950   42.8710 C   0  0  0  0  0  0  0  0  0  0  0  0
   46.1030   34.1820   43.6270 N   0  0  0  0  0  0  0  0  0  0  0  0
   45.5490   34.0470   44.8510 C   0  0  0  0  0  0  0  0  0  0  0  0
   44.7620   35.0370   45.3490 N   0  0  0  0  0  0  0  0  0  0  0  0
   46.8900   32.0700   45.1390 C   0  0  0  0  0  0  0  0  0  0  0  0
   47.6310   32.2970   44.1760 O   0  0  0  0  0  0  0  0  0  0  0  0
   45.8060   32.8540   45.5980 N   0  0  0  0  0  0  0  0  0  0  0  0
   43.8860   36.8550   45.1510 H   0  0  0  0  0  0  0  0  0  0  0  0
   44.8510   37.2430   42.8590 H   0  0  0  0  0  0  0  0  0  0  0  0
   46.3180   35.4340   41.8940 H   0  0  0  0  0  0  0  0  0  0  0  0
   45.2260   32.6000   46.4170 H   0  0  0  0  0  0  0  0  0  0  0  0
   47.1880   30.8150   45.8960 C   0  0  0  0  0  0  0  0  0  0  0  0
   48.2130   29.8210   45.5610 C   0  0  0  0  0  0  0  0  0  0  0  0
   48.8300   29.9750   44.6930 H   0  0  0  0  0  0  0  0  0  0  0  0
   48.2280   28.7870   46.4580 C   0  0  0  0  0  3  0  0  0  0  0  0
   47.3950   28.7020   47.5210 C   0  0  0  0  0  3  0  0  0  0  0  0
   46.3900   30.2400   47.3530 S   0  0  0  0  0  0  0  0  0  0  0  0
  1 10  1  0  0  0  0
  1  6  1  0  0  0  0
  2  1  2  0  0  0  0
  3  2  1  0  0  0  0
  3  4  2  0  0  0  0
  4  5  1  0  0  0  0
  5  6  2  0  0  0  0
  5  9  1  0  0  0  0
  7  9  1  0  0  0  0
  7 14  1  0  0  0  0
  8  7  2  0  0  0  0
  9 13  1  0  0  0  0
 11  2  1  0  0  0  0
 12  3  1  0  0  0  0
 14 19  1  0  0  0  0
 15 14  2  0  0  0  0
 15 17  1  0  0  0  0
 16 15  1  0  0  0  0
 17 18  2  0  0  0  0
 19 18  1  0  0  0  0
M  END
>  <minimizedAffinity>
-4.04692173

>  <minimizedRMSD>
2.47387767

$$$$
