
 OpenBabel03242510493D

 19 20  0  0  0  0  0  0  0  0999 V2000
   44.5910   36.2970   44.5240 C   0  0  0  0  0  0  0  0  0  0  0  0
   45.2380   36.3650   43.2730 C   0  0  0  0  0  0  0  0  0  0  0  0
   45.9780   35.2420   42.8670 C   0  0  0  0  0  0  0  0  0  0  0  0
   46.0390   34.1520   43.6820 N   0  0  0  0  0  0  0  0  0  0  0  0
   45.4050   34.1270   44.8740 C   0  0  0  0  0  0  0  0  0  0  0  0
   44.6860   35.2080   45.2790 N   0  0  0  0  0  0  0  0  0  0  0  0
   46.5360   32.0540   45.3300 C   0  0  0  0  0  0  0  0  0  0  0  0
   47.3500   32.1660   44.4060 O   0  0  0  0  0  0  0  0  0  0  0  0
   45.5060   32.9540   45.6860 N   0  0  0  0  0  0  0  0  0  0  0  0
   43.9970   37.0860   44.9480 H   0  0  0  0  0  0  0  0  0  0  0  0
   45.1260   37.2730   42.7070 H   0  0  0  0  0  0  0  0  0  0  0  0
   46.4710   35.2940   41.9140 H   0  0  0  0  0  0  0  0  0  0  0  0
   44.8580   32.7930   46.4780 H   0  0  0  0  0  0  0  0  0  0  0  0
   46.6720   30.8160   46.1570 C   0  0  0  0  0  0  0  0  0  0  0  0
   47.9110   30.2920   46.7420 C   0  0  0  0  0  0  0  0  0  0  0  0
   48.8320   30.8230   46.5800 H   0  0  0  0  0  0  0  0  0  0  0  0
   47.6910   29.1380   47.4450 C   0  0  0  0  0  3  0  0  0  0  0  0
   46.4760   28.5590   47.5790 C   0  0  0  0  0  3  0  0  0  0  0  0
   45.3910   29.7050   46.6230 S   0  0  0  0  0  0  0  0  0  0  0  0
  1 10  1  0  0  0  0
  1  6  1  0  0  0  0
  2  1  2  0  0  0  0
  3  2  1  0  0  0  0
  3  4  2  0  0  0  0
  4  5  1  0  0  0  0
  5  6  2  0  0  0  0
  5  9  1  0  0  0  0
  7  9  1  0  0  0  0
  7 14  1  0  0  0  0
  8  7  2  0  0  0  0
  9 13  1  0  0  0  0
 11  2  1  0  0  0  0
 12  3  1  0  0  0  0
 14 19  1  0  0  0  0
 14 15  2  0  0  0  0
 15 17  1  0  0  0  0
 16 15  1  0  0  0  0
 17 18  2  0  0  0  0
 19 18  1  0  0  0  0
M  END
>  <minimizedAffinity>
-4.17156601

>  <minimizedRMSD>
2.1240294

$$$$
