
 OpenBabel03242510503D

 19 20  0  0  0  0  0  0  0  0999 V2000
   44.5240   36.1660   44.6670 C   0  0  0  0  0  0  0  0  0  0  0  0
   45.0880   36.3160   43.3840 C   0  0  0  0  0  0  0  0  0  0  0  0
   45.8830   35.2620   42.9010 C   0  0  0  0  0  0  0  0  0  0  0  0
   46.0720   34.1590   43.6760 N   0  0  0  0  0  0  0  0  0  0  0  0
   45.5140   34.0550   44.9010 C   0  0  0  0  0  0  0  0  0  0  0  0
   44.7430   35.0670   45.3810 N   0  0  0  0  0  0  0  0  0  0  0  0
   46.8190   32.0600   45.2270 C   0  0  0  0  0  0  0  0  0  0  0  0
   47.5660   32.2580   44.2620 O   0  0  0  0  0  0  0  0  0  0  0  0
   45.7490   32.8710   45.6690 N   0  0  0  0  0  0  0  0  0  0  0  0
   43.9000   36.8960   45.1490 H   0  0  0  0  0  0  0  0  0  0  0  0
   44.8760   37.2270   42.8530 H   0  0  0  0  0  0  0  0  0  0  0  0
   46.3130   35.3770   41.9230 H   0  0  0  0  0  0  0  0  0  0  0  0
   45.1630   32.6410   46.4910 H   0  0  0  0  0  0  0  0  0  0  0  0
   47.0940   30.8140   46.0060 C   0  0  0  0  0  0  0  0  0  0  0  0
   46.8460   29.4380   45.5610 C   0  0  0  0  0  0  0  0  0  0  0  0
   46.4250   29.2710   44.5850 H   0  0  0  0  0  0  0  0  0  0  0  0
   47.2090   28.5240   46.5150 C   0  0  0  0  0  3  0  0  0  0  0  0
   47.7310   28.8600   47.7160 C   0  0  0  0  0  3  0  0  0  0  0  0
   47.7740   30.7010   47.6230 S   0  0  0  0  0  0  0  0  0  0  0  0
  1 10  1  0  0  0  0
  1  6  1  0  0  0  0
  2  1  2  0  0  0  0
  3  2  1  0  0  0  0
  3  4  2  0  0  0  0
  4  5  1  0  0  0  0
  5  6  2  0  0  0  0
  5  9  1  0  0  0  0
  7  9  1  0  0  0  0
  7 14  1  0  0  0  0
  8  7  2  0  0  0  0
  9 13  1  0  0  0  0
 11  2  1  0  0  0  0
 12  3  1  0  0  0  0
 14 19  1  0  0  0  0
 15 14  2  0  0  0  0
 15 17  1  0  0  0  0
 16 15  1  0  0  0  0
 17 18  2  0  0  0  0
 19 18  1  0  0  0  0
M  END
>  <minimizedAffinity>
-3.99731231

>  <minimizedRMSD>
2.35349679

$$$$
