
 OpenBabel03242510493D

 19 20  0  0  0  0  0  0  0  0999 V2000
   44.5850   36.3040   44.5140 C   0  0  0  0  0  0  0  0  0  0  0  0
   45.2300   36.3690   43.2620 C   0  0  0  0  0  0  0  0  0  0  0  0
   45.9740   35.2470   42.8600 C   0  0  0  0  0  0  0  0  0  0  0  0
   46.0390   34.1610   43.6780 N   0  0  0  0  0  0  0  0  0  0  0  0
   45.4070   34.1380   44.8710 C   0  0  0  0  0  0  0  0  0  0  0  0
   44.6840   35.2180   45.2730 N   0  0  0  0  0  0  0  0  0  0  0  0
   46.5450   32.0700   45.3340 C   0  0  0  0  0  0  0  0  0  0  0  0
   47.3580   32.1820   44.4090 O   0  0  0  0  0  0  0  0  0  0  0  0
   45.5120   32.9680   45.6880 N   0  0  0  0  0  0  0  0  0  0  0  0
   43.9880   37.0920   44.9350 H   0  0  0  0  0  0  0  0  0  0  0  0
   45.1140   37.2750   42.6920 H   0  0  0  0  0  0  0  0  0  0  0  0
   46.4650   35.2970   41.9060 H   0  0  0  0  0  0  0  0  0  0  0  0
   44.8650   32.8090   46.4810 H   0  0  0  0  0  0  0  0  0  0  0  0
   46.6860   30.8360   46.1660 C   0  0  0  0  0  0  0  0  0  0  0  0
   47.7880   30.5280   47.0840 C   0  0  0  0  0  0  0  0  0  0  0  0
   48.5910   31.2360   47.1960 H   0  0  0  0  0  0  0  0  0  0  0  0
   47.6140   29.3140   47.6950 C   0  0  0  0  0  3  0  0  0  0  0  0
   46.5520   28.5070   47.4720 C   0  0  0  0  0  3  0  0  0  0  0  0
   45.5760   29.4750   46.2430 S   0  0  0  0  0  0  0  0  0  0  0  0
  1 10  1  0  0  0  0
  1  6  1  0  0  0  0
  2  1  2  0  0  0  0
  3  2  1  0  0  0  0
  3  4  2  0  0  0  0
  4  5  1  0  0  0  0
  5  6  2  0  0  0  0
  5  9  1  0  0  0  0
  7  9  1  0  0  0  0
  7 14  1  0  0  0  0
  8  7  2  0  0  0  0
  9 13  1  0  0  0  0
 11  2  1  0  0  0  0
 12  3  1  0  0  0  0
 14 19  1  0  0  0  0
 14 15  2  0  0  0  0
 15 16  1  0  0  0  0
 15 17  1  0  0  0  0
 18 17  2  0  0  0  0
 19 18  1  0  0  0  0
M  END
>  <minimizedAffinity>
-4.20638371

>  <minimizedRMSD>
2.13401031

$$$$
