
 OpenBabel03242510503D

 19 20  0  0  0  0  0  0  0  0999 V2000
   44.4800   36.0540   42.7810 C   0  0  0  0  0  0  0  0  0  0  0  0
   45.1320   35.4410   41.6920 C   0  0  0  0  0  0  0  0  0  0  0  0
   45.8240   34.2440   41.9440 C   0  0  0  0  0  0  0  0  0  0  0  0
   45.8360   33.7330   43.2070 N   0  0  0  0  0  0  0  0  0  0  0  0
   45.1990   34.3520   44.2230 C   0  0  0  0  0  0  0  0  0  0  0  0
   44.5250   35.5110   43.9930 N   0  0  0  0  0  0  0  0  0  0  0  0
   46.2380   32.7770   45.7150 C   0  0  0  0  0  0  0  0  0  0  0  0
   47.0580   32.3650   44.8860 O   0  0  0  0  0  0  0  0  0  0  0  0
   45.2460   33.7670   45.5280 N   0  0  0  0  0  0  0  0  0  0  0  0
   43.9190   36.9690   42.7210 H   0  0  0  0  0  0  0  0  0  0  0  0
   45.0610   35.9270   40.7350 H   0  0  0  0  0  0  0  0  0  0  0  0
   46.3210   33.7780   41.1140 H   0  0  0  0  0  0  0  0  0  0  0  0
   44.5900   34.0630   46.2720 H   0  0  0  0  0  0  0  0  0  0  0  0
   46.3180   32.1430   47.0660 C   0  0  0  0  0  0  0  0  0  0  0  0
   45.3180   32.2490   48.1360 C   0  0  0  0  0  0  0  0  0  0  0  0
   44.4310   32.8320   47.9680 H   0  0  0  0  0  0  0  0  0  0  0  0
   45.6950   31.5480   49.2520 C   0  0  0  0  0  3  0  0  0  0  0  0
   46.8480   30.8460   49.3440 C   0  0  0  0  0  3  0  0  0  0  0  0
   47.6120   31.1290   47.6900 S   0  0  0  0  0  0  0  0  0  0  0  0
  1  6  1  0  0  0  0
  2  3  1  0  0  0  0
  2  1  2  0  0  0  0
  3  4  2  0  0  0  0
  4  5  1  0  0  0  0
  5  9  1  0  0  0  0
  6  5  2  0  0  0  0
  7 14  1  0  0  0  0
  8  7  2  0  0  0  0
  9  7  1  0  0  0  0
  9 13  1  0  0  0  0
 10  1  1  0  0  0  0
 11  2  1  0  0  0  0
 12  3  1  0  0  0  0
 14 19  1  0  0  0  0
 14 15  2  0  0  0  0
 15 17  1  0  0  0  0
 16 15  1  0  0  0  0
 17 18  2  0  0  0  0
 19 18  1  0  0  0  0
M  END
>  <minimizedAffinity>
-4.08516121

>  <minimizedRMSD>
1.5319134

$$$$
