
 OpenBabel03252503583D

 31 34  0  0  0  0  0  0  0  0999 V2000
   46.8150   34.9840   42.6780 C   0  0  0  0  0  0  0  0  0  0  0  0
   45.8790   36.0250   42.6270 C   0  0  0  0  0  0  0  0  0  0  0  0
   44.8910   36.0380   43.6020 C   0  0  0  0  0  0  0  0  0  0  0  0
   44.8700   35.0690   44.5410 N   0  0  0  0  0  0  0  0  0  0  0  0
   45.8020   34.0730   44.5550 C   0  0  0  0  0  0  0  0  0  0  0  0
   46.7640   34.0400   43.6250 N   0  0  0  0  0  0  0  0  0  0  0  0
   45.8600   36.8200   41.8930 H   0  0  0  0  0  0  0  0  0  0  0  0
   44.1390   36.8220   43.6100 H   0  0  0  0  0  0  0  0  0  0  0  0
   46.0410   31.7230   45.1680 C   0  0  0  0  0  0  0  0  0  0  0  0
   45.7680   33.0250   45.5810 C   0  0  0  0  0  0  0  0  0  0  0  0
   45.4830   33.2830   46.8970 C   0  0  0  0  0  0  0  0  0  0  0  0
   45.4700   32.2350   47.8080 C   0  0  0  0  0  0  0  0  0  0  0  0
   45.2340   32.1720   49.1180 N   0  0  0  0  0  0  0  0  0  0  0  0
   45.3410   30.9040   49.5610 C   0  0  0  0  0  0  0  0  0  0  0  0
   45.6650   30.0890   48.4860 C   0  0  0  0  0  0  0  0  0  0  0  0
   45.7430   30.9260   47.3990 C   0  0  0  0  0  0  0  0  0  0  0  0
   46.0260   30.6810   46.0780 C   0  0  0  0  0  0  0  0  0  0  0  0
   46.2660   31.5180   44.1270 H   0  0  0  0  0  0  0  0  0  0  0  0
   45.2740   34.2920   47.2070 H   0  0  0  0  0  0  0  0  0  0  0  0
   44.9950   32.9680   49.7610 H   0  0  0  0  0  0  0  0  0  0  0  0
   45.2240   30.4590   50.5470 H   0  0  0  0  0  0  0  0  0  0  0  0
   45.8370   29.0080   48.4370 H   0  0  0  0  0  0  0  0  0  0  0  0
   46.2440   29.6810   45.7180 H   0  0  0  0  0  0  0  0  0  0  0  0
   47.8290   34.9920   41.6510 C   0  0  0  0  0  0  0  0  0  0  0  0
   48.9900   35.5200   41.7980 O   0  0  0  0  0  0  0  0  0  0  0  0
   47.5450   34.3820   40.3860 C   0  0  0  0  0  0  0  0  0  0  0  0
   48.2250   34.4670   39.2210 C   0  0  0  0  0  0  0  0  0  0  0  0
   49.1250   35.0650   39.1540 H   0  0  0  0  0  0  0  0  0  0  0  0
   47.8240   33.8190   38.0860 C   0  0  0  0  0  0  0  0  0  0  0  0
   46.5690   33.0280   38.3050 C   0  0  0  0  0  0  0  0  0  0  0  0
   46.1840   33.3390   40.0590 S   0  0  0  0  0  0  0  0  0  0  0  0
  1  6  1  0  0  0  0
  2  1  2  0  0  0  0
  2  3  1  0  0  0  0
  3  8  1  0  0  0  0
  3  4  2  0  0  0  0
  4  5  1  0  0  0  0
  5 10  1  0  0  0  0
  6  5  2  0  0  0  0
  7  2  1  0  0  0  0
  9 10  2  0  0  0  0
  9 17  1  0  0  0  0
 10 11  1  0  0  0  0
 11 19  1  0  0  0  0
 11 12  2  0  0  0  0
 12 13  1  0  0  0  0
 13 14  1  0  0  0  0
 13 20  1  0  0  0  0
 14 21  1  0  0  0  0
 15 14  2  0  0  0  0
 16 12  1  0  0  0  0
 16 15  1  0  0  0  0
 17 16  2  0  0  0  0
 18  9  1  0  0  0  0
 22 15  1  0  0  0  0
 23 17  1  0  0  0  0
 24 25  2  0  0  0  0
 24  1  1  0  0  0  0
 26 24  1  0  0  0  0
 27 26  2  0  0  0  0
 28 27  1  0  0  0  0
 29 30  2  0  0  0  0
 29 27  1  0  0  0  0
 30 31  1  0  0  0  0
 31 26  1  0  0  0  0
M  END
>  <minimizedAffinity>
-6.11467457

>  <minimizedRMSD>
0.716990888

$$$$
