
 OpenBabel03252508493D

 25 27  0  0  0  0  0  0  0  0999 V2000
   45.9860   34.1900   41.0460 C   0  0  0  0  0  0  0  0  0  0  0  0
   46.5640   34.8230   42.1460 C   0  0  0  0  0  0  0  0  0  0  0  0
   47.8990   35.1940   42.0220 C   0  0  0  0  0  0  0  0  0  0  0  0
   48.5490   34.9220   40.8460 N   0  0  0  0  0  0  0  0  0  0  0  0
   47.9580   34.3160   39.8220 C   0  0  0  0  0  0  0  0  0  0  0  0
   46.6620   33.9430   39.9140 N   0  0  0  0  0  0  0  0  0  0  0  0
   48.3720   35.6890   42.8650 H   0  0  0  0  0  0  0  0  0  0  0  0
   48.4840   34.1070   38.9000 H   0  0  0  0  0  0  0  0  0  0  0  0
   45.7750   35.0570   43.3410 C   0  0  0  0  0  0  0  0  0  0  0  0
   45.0730   36.2360   43.5580 C   0  0  0  0  0  0  0  0  0  0  0  0
   44.4820   36.0140   44.7970 C   0  0  0  0  0  0  0  0  0  0  0  0
   44.8070   34.7870   45.2860 N   0  0  0  0  0  0  0  0  0  0  0  0
   45.5860   34.2320   44.3880 N   0  0  0  0  0  0  0  0  0  0  0  0
   44.9770   37.1290   42.9570 H   0  0  0  0  0  0  0  0  0  0  0  0
   43.8400   36.7230   45.3200 H   0  0  0  0  0  0  0  0  0  0  0  0
   44.4890   34.3860   46.1960 H   0  0  0  0  0  0  0  0  0  0  0  0
   44.6640   33.8070   41.1320 O   0  0  0  0  0  0  0  0  0  0  0  0
   43.5810   34.4320   40.5840 C   0  0  0  0  0  0  0  0  0  0  0  0
   43.3050   35.6810   40.6090 O   0  0  0  0  0  0  0  0  0  0  0  0
   42.4800   33.6970   39.8200 C   0  0  0  0  0  0  0  0  0  0  0  0
   41.8770   34.0100   38.6700 C   0  0  0  0  0  0  0  0  0  0  0  0
   42.2000   34.9210   38.1870 H   0  0  0  0  0  0  0  0  0  0  0  0
   40.9110   33.2100   38.1540 C   0  0  0  0  0  3  0  0  0  0  0  0
   40.6110   32.0400   38.9320 C   0  0  0  0  0  3  0  0  0  0  0  0
   41.7960   32.2130   40.3860 S   0  0  0  0  0  0  0  0  0  0  0  0
  1 17  1  0  0  0  0
  1  2  1  0  0  0  0
  2  9  1  0  0  0  0
  3  2  2  0  0  0  0
  3  7  1  0  0  0  0
  4  3  1  0  0  0  0
  5  6  1  0  0  0  0
  5  4  2  0  0  0  0
  6  1  2  0  0  0  0
  8  5  1  0  0  0  0
  9 10  1  0  0  0  0
  9 13  2  0  0  0  0
 10 11  2  0  0  0  0
 11 12  1  0  0  0  0
 11 15  1  0  0  0  0
 12 16  1  0  0  0  0
 13 12  1  0  0  0  0
 14 10  1  0  0  0  0
 18 19  2  0  0  0  0
 18 17  1  0  0  0  0
 20 25  1  0  0  0  0
 20 18  1  0  0  0  0
 21 20  2  0  0  0  0
 22 21  1  0  0  0  0
 23 21  1  0  0  0  0
 23 24  2  0  0  0  0
 24 25  1  0  0  0  0
M  END
>  <minimizedAffinity>
-5.04553556

>  <minimizedRMSD>
0.421392769

$$$$
