
 OpenBabel03252508493D

 25 27  0  0  0  0  0  0  0  0999 V2000
   46.0810   34.1640   41.0110 C   0  0  0  0  0  0  0  0  0  0  0  0
   46.6240   34.8170   42.1180 C   0  0  0  0  0  0  0  0  0  0  0  0
   47.9480   35.2300   42.0110 C   0  0  0  0  0  0  0  0  0  0  0  0
   48.6230   34.9770   40.8440 N   0  0  0  0  0  0  0  0  0  0  0  0
   48.0650   34.3510   39.8140 C   0  0  0  0  0  0  0  0  0  0  0  0
   46.7810   33.9370   39.8890 N   0  0  0  0  0  0  0  0  0  0  0  0
   48.3940   35.7410   42.8600 H   0  0  0  0  0  0  0  0  0  0  0  0
   48.6100   34.1580   38.8990 H   0  0  0  0  0  0  0  0  0  0  0  0
   45.8120   35.0280   43.3020 C   0  0  0  0  0  0  0  0  0  0  0  0
   45.0690   36.1830   43.5060 C   0  0  0  0  0  0  0  0  0  0  0  0
   44.4690   35.9450   44.7370 C   0  0  0  0  0  0  0  0  0  0  0  0
   44.8280   34.7300   45.2340 N   0  0  0  0  0  0  0  0  0  0  0  0
   45.6370   34.1990   44.3480 N   0  0  0  0  0  0  0  0  0  0  0  0
   44.9510   37.0710   42.9010 H   0  0  0  0  0  0  0  0  0  0  0  0
   43.7970   36.6330   45.2490 H   0  0  0  0  0  0  0  0  0  0  0  0
   44.5110   34.3210   46.1400 H   0  0  0  0  0  0  0  0  0  0  0  0
   44.7720   33.7390   41.0800 O   0  0  0  0  0  0  0  0  0  0  0  0
   43.6940   34.2610   40.4250 C   0  0  0  0  0  0  0  0  0  0  0  0
   43.2780   35.4700   40.4450 O   0  0  0  0  0  0  0  0  0  0  0  0
   42.7760   33.4370   39.5220 C   0  0  0  0  0  0  0  0  0  0  0  0
   41.4770   33.5880   39.2510 C   0  0  0  0  0  0  0  0  0  0  0  0
   40.9760   34.4140   39.7360 H   0  0  0  0  0  0  0  0  0  0  0  0
   40.8390   32.7370   38.4090 C   0  0  0  0  0  3  0  0  0  0  0  0
   41.6650   31.6970   37.8580 C   0  0  0  0  0  3  0  0  0  0  0  0
   43.3410   32.0630   38.6380 S   0  0  0  0  0  0  0  0  0  0  0  0
  1 17  1  0  0  0  0
  1  2  1  0  0  0  0
  2  9  1  0  0  0  0
  3  2  2  0  0  0  0
  3  7  1  0  0  0  0
  4  3  1  0  0  0  0
  5  6  1  0  0  0  0
  5  4  2  0  0  0  0
  6  1  2  0  0  0  0
  8  5  1  0  0  0  0
  9 10  1  0  0  0  0
  9 13  2  0  0  0  0
 10 11  2  0  0  0  0
 11 12  1  0  0  0  0
 11 15  1  0  0  0  0
 12 16  1  0  0  0  0
 13 12  1  0  0  0  0
 14 10  1  0  0  0  0
 18 19  2  0  0  0  0
 18 17  1  0  0  0  0
 20 18  1  0  0  0  0
 21 20  2  0  0  0  0
 21 22  1  0  0  0  0
 23 21  1  0  0  0  0
 24 23  2  0  0  0  0
 24 25  1  0  0  0  0
 25 20  1  0  0  0  0
M  END
>  <minimizedAffinity>
-4.97483683

>  <minimizedRMSD>
0.0950292498

$$$$
