
 OpenBabel03242512053D

 17 18  0  0  0  0  0  0  0  0999 V2000
   36.6830   31.3380   40.7390 C   0  0  0  0  0  0  0  0  0  0  0  0
   36.2920   30.3410   39.8260 C   0  0  0  0  0  0  0  0  0  0  0  0
   36.6320   30.5350   38.4800 C   0  0  0  0  0  0  0  0  0  0  0  0
   37.3090   31.6520   38.1240 N   0  0  0  0  0  0  0  0  0  0  0  0
   37.6660   32.5890   39.0430 C   0  0  0  0  0  0  0  0  0  0  0  0
   37.3550   32.4340   40.3490 N   0  0  0  0  0  0  0  0  0  0  0  0
   36.4430   31.2330   41.7950 H   0  0  0  0  0  0  0  0  0  0  0  0
   36.3510   29.7950   37.7470 H   0  0  0  0  0  0  0  0  0  0  0  0
   38.2000   33.4300   38.6370 H   0  0  0  0  0  0  0  0  0  0  0  0
   35.5830   29.1980   40.2800 C   0  0  0  0  0  0  0  0  0  0  0  0
   34.3610   29.1380   40.0520 O   0  0  0  0  0  0  0  0  0  0  0  0
   36.2350   28.1200   40.9860 C   0  0  0  0  0  0  0  0  0  0  0  0
   36.5000   27.9350   42.2960 C   0  0  0  0  0  0  0  0  0  0  0  0
   36.1760   28.7260   42.9770 H   0  0  0  0  0  0  0  0  0  0  0  0
   37.1320   26.8300   42.7450 C   0  0  0  0  0  3  0  0  0  0  0  0
   37.4880   25.8880   41.7160 C   0  0  0  0  0  3  0  0  0  0  0  0
   36.8740   26.6870   40.1710 S   0  0  0  0  0  0  0  0  0  0  0  0
  1  7  1  0  0  0  0
  2 10  1  0  0  0  0
  2  1  2  0  0  0  0
  3  2  1  0  0  0  0
  4  3  2  0  0  0  0
  4  5  1  0  0  0  0
  5  6  2  0  0  0  0
  6  1  1  0  0  0  0
  8  3  1  0  0  0  0
  9  5  1  0  0  0  0
 10 12  1  0  0  0  0
 11 10  2  0  0  0  0
 12 13  2  0  0  0  0
 13 15  1  0  0  0  0
 13 14  1  0  0  0  0
 16 15  2  0  0  0  0
 17 12  1  0  0  0  0
 17 16  1  0  0  0  0
M  END
>  <minimizedAffinity>
-3.98255038

$$$$

 OpenBabel03242512053D

 17 18  0  0  0  0  0  0  0  0999 V2000
   35.7970   28.7770   40.7660 C   0  0  0  0  0  0  0  0  0  0  0  0
   36.7170   28.5970   41.8170 C   0  0  0  0  0  0  0  0  0  0  0  0
   37.5870   29.6600   42.0950 C   0  0  0  0  0  0  0  0  0  0  0  0
   37.5080   30.7910   41.3560 N   0  0  0  0  0  0  0  0  0  0  0  0
   36.6010   30.9180   40.3480 C   0  0  0  0  0  0  0  0  0  0  0  0
   35.7470   29.9140   40.0530 N   0  0  0  0  0  0  0  0  0  0  0  0
   35.1010   27.9810   40.5120 H   0  0  0  0  0  0  0  0  0  0  0  0
   38.3080   29.5640   42.8920 H   0  0  0  0  0  0  0  0  0  0  0  0
   36.6360   31.8630   39.8360 H   0  0  0  0  0  0  0  0  0  0  0  0
   36.7380   27.3790   42.5450 C   0  0  0  0  0  0  0  0  0  0  0  0
   36.2270   27.3660   43.6800 O   0  0  0  0  0  0  0  0  0  0  0  0
   37.3260   26.1740   42.0100 C   0  0  0  0  0  0  0  0  0  0  0  0
   36.9720   24.8760   42.1170 C   0  0  0  0  0  0  0  0  0  0  0  0
   36.0800   24.6610   42.7130 H   0  0  0  0  0  0  0  0  0  0  0  0
   37.6780   23.8930   41.5220 C   0  0  0  0  0  3  0  0  0  0  0  0
   38.8220   24.3500   40.7760 C   0  0  0  0  0  3  0  0  0  0  0  0
   38.7790   26.1800   41.0010 S   0  0  0  0  0  0  0  0  0  0  0  0
  1  2  1  0  0  0  0
  2  3  2  0  0  0  0
  2 10  1  0  0  0  0
  3  8  1  0  0  0  0
  4  3  1  0  0  0  0
  5  4  2  0  0  0  0
  6  5  1  0  0  0  0
  6  1  2  0  0  0  0
  7  1  1  0  0  0  0
  9  5  1  0  0  0  0
 10 11  2  0  0  0  0
 12 13  2  0  0  0  0
 12 10  1  0  0  0  0
 13 14  1  0  0  0  0
 15 13  1  0  0  0  0
 16 17  1  0  0  0  0
 16 15  2  0  0  0  0
 17 12  1  0  0  0  0
M  END
>  <minimizedAffinity>
-3.91136289

$$$$

 OpenBabel03242512053D

 17 18  0  0  0  0  0  0  0  0999 V2000
   38.6670   26.3620   41.2900 C   0  0  0  0  0  0  0  0  0  0  0  0
   37.4580   26.2010   41.9920 C   0  0  0  0  0  0  0  0  0  0  0  0
   36.9860   24.8930   42.1650 C   0  0  0  0  0  0  0  0  0  0  0  0
   37.7000   23.8600   41.6570 N   0  0  0  0  0  0  0  0  0  0  0  0
   38.8640   24.0660   40.9830 C   0  0  0  0  0  0  0  0  0  0  0  0
   39.3490   25.3140   40.8000 N   0  0  0  0  0  0  0  0  0  0  0  0
   39.0750   27.3580   41.1310 H   0  0  0  0  0  0  0  0  0  0  0  0
   36.0630   24.7250   42.6970 H   0  0  0  0  0  0  0  0  0  0  0  0
   39.3380   23.1670   40.6300 H   0  0  0  0  0  0  0  0  0  0  0  0
   36.7690   27.3370   42.4940 C   0  0  0  0  0  0  0  0  0  0  0  0
   36.3910   27.3160   43.6790 O   0  0  0  0  0  0  0  0  0  0  0  0
   36.5010   28.4960   41.6750 C   0  0  0  0  0  0  0  0  0  0  0  0
   35.5810   28.7260   40.7160 C   0  0  0  0  0  0  0  0  0  0  0  0
   34.8950   27.9050   40.4900 H   0  0  0  0  0  0  0  0  0  0  0  0
   35.5080   29.9060   40.0660 C   0  0  0  0  0  3  0  0  0  0  0  0
   36.4850   30.8770   40.4860 C   0  0  0  0  0  3  0  0  0  0  0  0
   37.4350   29.9920   41.7960 S   0  0  0  0  0  0  0  0  0  0  0  0
  1  2  1  0  0  0  0
  2  3  2  0  0  0  0
  2 10  1  0  0  0  0
  3  8  1  0  0  0  0
  4  3  1  0  0  0  0
  5  4  2  0  0  0  0
  6  5  1  0  0  0  0
  6  1  2  0  0  0  0
  7  1  1  0  0  0  0
  9  5  1  0  0  0  0
 10 11  2  0  0  0  0
 12 17  1  0  0  0  0
 12 10  1  0  0  0  0
 13 12  2  0  0  0  0
 14 13  1  0  0  0  0
 15 16  2  0  0  0  0
 15 13  1  0  0  0  0
 16 17  1  0  0  0  0
M  END
>  <minimizedAffinity>
-3.89875126

$$$$

 OpenBabel03242512053D

 17 18  0  0  0  0  0  0  0  0999 V2000
   36.4290   29.8170   38.4590 C   0  0  0  0  0  0  0  0  0  0  0  0
   35.6960   29.6580   39.6500 C   0  0  0  0  0  0  0  0  0  0  0  0
   34.4020   29.1290   39.5410 C   0  0  0  0  0  0  0  0  0  0  0  0
   33.9230   28.8010   38.3180 N   0  0  0  0  0  0  0  0  0  0  0  0
   34.6700   28.9740   37.1930 C   0  0  0  0  0  0  0  0  0  0  0  0
   35.9210   29.4800   37.2620 N   0  0  0  0  0  0  0  0  0  0  0  0
   37.4380   30.2230   38.4920 H   0  0  0  0  0  0  0  0  0  0  0  0
   33.8060   28.9910   40.4290 H   0  0  0  0  0  0  0  0  0  0  0  0
   34.1790   28.6760   36.2840 H   0  0  0  0  0  0  0  0  0  0  0  0
   36.2700   30.0270   40.8950 C   0  0  0  0  0  0  0  0  0  0  0  0
   36.2390   31.2280   41.2210 O   0  0  0  0  0  0  0  0  0  0  0  0
   36.8770   29.0600   41.7770 C   0  0  0  0  0  0  0  0  0  0  0  0
   36.4820   27.8310   42.1730 C   0  0  0  0  0  0  0  0  0  0  0  0
   35.5320   27.4710   41.7700 H   0  0  0  0  0  0  0  0  0  0  0  0
   37.2200   27.0840   43.0200 C   0  0  0  0  0  3  0  0  0  0  0  0
   38.4420   27.7080   43.4540 C   0  0  0  0  0  3  0  0  0  0  0  0
   38.4220   29.3390   42.5920 S   0  0  0  0  0  0  0  0  0  0  0  0
  1  7  1  0  0  0  0
  1  2  1  0  0  0  0
  2 10  1  0  0  0  0
  3  2  2  0  0  0  0
  3  8  1  0  0  0  0
  4  3  1  0  0  0  0
  5  6  1  0  0  0  0
  5  4  2  0  0  0  0
  6  1  2  0  0  0  0
  9  5  1  0  0  0  0
 10 11  2  0  0  0  0
 10 12  1  0  0  0  0
 12 13  2  0  0  0  0
 12 17  1  0  0  0  0
 13 15  1  0  0  0  0
 14 13  1  0  0  0  0
 15 16  2  0  0  0  0
 17 16  1  0  0  0  0
M  END
>  <minimizedAffinity>
-3.87115383

$$$$

 OpenBabel03242512053D

 17 18  0  0  0  0  0  0  0  0999 V2000
   38.0550   25.3860   42.0040 C   0  0  0  0  0  0  0  0  0  0  0  0
   38.0460   26.5380   42.8130 C   0  0  0  0  0  0  0  0  0  0  0  0
   39.1390   26.7300   43.6680 C   0  0  0  0  0  0  0  0  0  0  0  0
   40.1380   25.8150   43.6800 N   0  0  0  0  0  0  0  0  0  0  0  0
   40.1020   24.7150   42.8790 C   0  0  0  0  0  0  0  0  0  0  0  0
   39.0630   24.5000   42.0420 N   0  0  0  0  0  0  0  0  0  0  0  0
   37.2280   25.1930   41.3240 H   0  0  0  0  0  0  0  0  0  0  0  0
   39.1720   27.6000   44.3050 H   0  0  0  0  0  0  0  0  0  0  0  0
   40.9530   24.0650   42.9790 H   0  0  0  0  0  0  0  0  0  0  0  0
   36.9600   27.4490   42.7430 C   0  0  0  0  0  0  0  0  0  0  0  0
   36.1400   27.4580   43.6800 O   0  0  0  0  0  0  0  0  0  0  0  0
   36.7860   28.3530   41.6300 C   0  0  0  0  0  0  0  0  0  0  0  0
   35.6830   28.7780   40.9810 C   0  0  0  0  0  0  0  0  0  0  0  0
   34.7260   28.3860   41.3360 H   0  0  0  0  0  0  0  0  0  0  0  0
   35.7520   29.6420   39.9470 C   0  0  0  0  0  3  0  0  0  0  0  0
   37.0880   30.0600   39.6100 C   0  0  0  0  0  3  0  0  0  0  0  0
   38.1410   29.1580   40.8270 S   0  0  0  0  0  0  0  0  0  0  0  0
  1  6  2  0  0  0  0
  1  2  1  0  0  0  0
  2  3  2  0  0  0  0
  3  4  1  0  0  0  0
  3  8  1  0  0  0  0
  5  9  1  0  0  0  0
  5  4  2  0  0  0  0
  6  5  1  0  0  0  0
  7  1  1  0  0  0  0
 10  2  1  0  0  0  0
 10 11  2  0  0  0  0
 12 10  1  0  0  0  0
 13 14  1  0  0  0  0
 13 12  2  0  0  0  0
 15 13  1  0  0  0  0
 16 15  2  0  0  0  0
 16 17  1  0  0  0  0
 17 12  1  0  0  0  0
M  END
>  <minimizedAffinity>
-3.82845306

$$$$

 OpenBabel03242512053D

 17 18  0  0  0  0  0  0  0  0999 V2000
   36.7790   28.2430   42.3670 C   0  0  0  0  0  0  0  0  0  0  0  0
   36.3690   28.1310   41.0250 C   0  0  0  0  0  0  0  0  0  0  0  0
   36.6790   26.9390   40.3570 C   0  0  0  0  0  0  0  0  0  0  0  0
   37.3470   25.9640   41.0200 N   0  0  0  0  0  0  0  0  0  0  0  0
   37.7230   26.1190   42.3180 C   0  0  0  0  0  0  0  0  0  0  0  0
   37.4400   27.2560   42.9920 N   0  0  0  0  0  0  0  0  0  0  0  0
   36.5620   29.1500   42.9280 H   0  0  0  0  0  0  0  0  0  0  0  0
   36.3830   26.8110   39.3280 H   0  0  0  0  0  0  0  0  0  0  0  0
   38.2460   25.2760   42.7330 H   0  0  0  0  0  0  0  0  0  0  0  0
   35.6730   29.1990   40.4010 C   0  0  0  0  0  0  0  0  0  0  0  0
   34.4410   29.0920   40.2580 O   0  0  0  0  0  0  0  0  0  0  0  0
   36.3470   30.3890   39.9380 C   0  0  0  0  0  0  0  0  0  0  0  0
   36.6950   31.5290   40.5700 C   0  0  0  0  0  0  0  0  0  0  0  0
   36.4340   31.5990   41.6300 H   0  0  0  0  0  0  0  0  0  0  0  0
   37.3330   32.5320   39.9320 C   0  0  0  0  0  3  0  0  0  0  0  0
   37.6020   32.2760   38.5410 C   0  0  0  0  0  3  0  0  0  0  0  0
   36.9020   30.5910   38.2710 S   0  0  0  0  0  0  0  0  0  0  0  0
  1  7  1  0  0  0  0
  1  6  1  0  0  0  0
  2  1  2  0  0  0  0
  3  4  2  0  0  0  0
  3  2  1  0  0  0  0
  4  5  1  0  0  0  0
  5  9  1  0  0  0  0
  5  6  2  0  0  0  0
  8  3  1  0  0  0  0
 10  2  1  0  0  0  0
 11 10  2  0  0  0  0
 12 10  1  0  0  0  0
 12 13  2  0  0  0  0
 13 14  1  0  0  0  0
 15 13  1  0  0  0  0
 16 15  2  0  0  0  0
 17 16  1  0  0  0  0
 17 12  1  0  0  0  0
M  END
>  <minimizedAffinity>
-3.78989053

$$$$

 OpenBabel03242512053D

 17 18  0  0  0  0  0  0  0  0999 V2000
   38.6320   30.5190   39.2660 C   0  0  0  0  0  0  0  0  0  0  0  0
   38.1660   31.1030   40.4580 C   0  0  0  0  0  0  0  0  0  0  0  0
   38.7740   32.2970   40.8690 C   0  0  0  0  0  0  0  0  0  0  0  0
   39.7670   32.8260   40.1140 N   0  0  0  0  0  0  0  0  0  0  0  0
   40.1850   32.2240   38.9680 C   0  0  0  0  0  0  0  0  0  0  0  0
   39.6190   31.0720   38.5420 N   0  0  0  0  0  0  0  0  0  0  0  0
   38.1910   29.5920   38.9060 H   0  0  0  0  0  0  0  0  0  0  0  0
   38.4470   32.7770   41.7770 H   0  0  0  0  0  0  0  0  0  0  0  0
   40.9780   32.7410   38.4580 H   0  0  0  0  0  0  0  0  0  0  0  0
   37.1200   30.4840   41.1930 C   0  0  0  0  0  0  0  0  0  0  0  0
   35.9940   31.0120   41.1670 O   0  0  0  0  0  0  0  0  0  0  0  0
   37.3290   29.2770   41.9570 C   0  0  0  0  0  0  0  0  0  0  0  0
   36.5780   28.1650   42.1040 C   0  0  0  0  0  0  0  0  0  0  0  0
   35.6310   28.1400   41.5580 H   0  0  0  0  0  0  0  0  0  0  0  0
   36.9730   27.1360   42.8810 C   0  0  0  0  0  3  0  0  0  0  0  0
   38.2460   27.3310   43.5260 C   0  0  0  0  0  3  0  0  0  0  0  0
   38.7680   29.0040   42.9480 S   0  0  0  0  0  0  0  0  0  0  0  0
  1  2  1  0  0  0  0
  2  3  2  0  0  0  0
  2 10  1  0  0  0  0
  3  8  1  0  0  0  0
  4  3  1  0  0  0  0
  5  4  2  0  0  0  0
  6  5  1  0  0  0  0
  6  1  2  0  0  0  0
  7  1  1  0  0  0  0
  9  5  1  0  0  0  0
 10 12  1  0  0  0  0
 11 10  2  0  0  0  0
 12 13  2  0  0  0  0
 12 17  1  0  0  0  0
 13 15  1  0  0  0  0
 14 13  1  0  0  0  0
 15 16  2  0  0  0  0
 17 16  1  0  0  0  0
M  END
>  <minimizedAffinity>
-3.75560713

$$$$

 OpenBabel03242512053D

 17 18  0  0  0  0  0  0  0  0999 V2000
   38.7140   31.0690   39.1790 C   0  0  0  0  0  0  0  0  0  0  0  0
   38.3100   31.4460   40.4740 C   0  0  0  0  0  0  0  0  0  0  0  0
   38.9570   32.5460   41.0530 C   0  0  0  0  0  0  0  0  0  0  0  0
   39.9250   33.1860   40.3550 N   0  0  0  0  0  0  0  0  0  0  0  0
   40.2820   32.7840   39.1050 C   0  0  0  0  0  0  0  0  0  0  0  0
   39.6790   31.7280   38.5160 N   0  0  0  0  0  0  0  0  0  0  0  0
   38.2410   30.2220   38.6870 H   0  0  0  0  0  0  0  0  0  0  0  0
   38.6780   32.8680   42.0440 H   0  0  0  0  0  0  0  0  0  0  0  0
   41.0620   33.3730   38.6550 H   0  0  0  0  0  0  0  0  0  0  0  0
   37.2870   30.7210   41.1400 C   0  0  0  0  0  0  0  0  0  0  0  0
   36.1210   31.1500   41.0630 O   0  0  0  0  0  0  0  0  0  0  0  0
   37.5610   29.5180   41.8890 C   0  0  0  0  0  0  0  0  0  0  0  0
   38.4630   29.2470   42.8550 C   0  0  0  0  0  0  0  0  0  0  0  0
   39.1250   30.0660   43.1490 H   0  0  0  0  0  0  0  0  0  0  0  0
   38.5470   28.0290   43.4310 C   0  0  0  0  0  3  0  0  0  0  0  0
   37.6010   27.0670   42.9280 C   0  0  0  0  0  3  0  0  0  0  0  0
   36.6630   28.0130   41.6520 S   0  0  0  0  0  0  0  0  0  0  0  0
  1  2  1  0  0  0  0
  2  3  2  0  0  0  0
  2 10  1  0  0  0  0
  3  8  1  0  0  0  0
  4  3  1  0  0  0  0
  5  4  2  0  0  0  0
  6  5  1  0  0  0  0
  6  1  2  0  0  0  0
  7  1  1  0  0  0  0
  9  5  1  0  0  0  0
 10 12  1  0  0  0  0
 11 10  2  0  0  0  0
 12 13  2  0  0  0  0
 13 14  1  0  0  0  0
 13 15  1  0  0  0  0
 16 15  2  0  0  0  0
 17 12  1  0  0  0  0
 17 16  1  0  0  0  0
M  END
>  <minimizedAffinity>
-3.71932983

$$$$

 OpenBabel03242512053D

 17 18  0  0  0  0  0  0  0  0999 V2000
   38.1580   28.0110   40.9740 C   0  0  0  0  0  0  0  0  0  0  0  0
   37.4970   29.0020   41.7240 C   0  0  0  0  0  0  0  0  0  0  0  0
   37.5270   28.8770   43.1200 C   0  0  0  0  0  0  0  0  0  0  0  0
   38.1780   27.8270   43.6750 N   0  0  0  0  0  0  0  0  0  0  0  0
   38.8040   26.8930   42.9080 C   0  0  0  0  0  0  0  0  0  0  0  0
   38.7950   26.9840   41.5600 N   0  0  0  0  0  0  0  0  0  0  0  0
   38.1630   28.0650   39.8880 H   0  0  0  0  0  0  0  0  0  0  0  0
   37.0320   29.6140   43.7320 H   0  0  0  0  0  0  0  0  0  0  0  0
   39.2850   26.1100   43.4660 H   0  0  0  0  0  0  0  0  0  0  0  0
   36.8360   30.0710   41.0650 C   0  0  0  0  0  0  0  0  0  0  0  0
   35.6360   29.9240   40.7680 O   0  0  0  0  0  0  0  0  0  0  0  0
   37.5090   31.3060   40.7390 C   0  0  0  0  0  0  0  0  0  0  0  0
   37.1090   32.3920   40.0450 C   0  0  0  0  0  0  0  0  0  0  0  0
   36.0930   32.3670   39.6420 H   0  0  0  0  0  0  0  0  0  0  0  0
   37.9180   33.4560   39.8580 C   0  0  0  0  0  3  0  0  0  0  0  0
   39.2210   33.3260   40.4570 C   0  0  0  0  0  3  0  0  0  0  0  0
   39.1660   31.6590   41.2470 S   0  0  0  0  0  0  0  0  0  0  0  0
  1  6  2  0  0  0  0
  1  2  1  0  0  0  0
  2  3  2  0  0  0  0
  3  4  1  0  0  0  0
  3  8  1  0  0  0  0
  5  9  1  0  0  0  0
  5  4  2  0  0  0  0
  6  5  1  0  0  0  0
  7  1  1  0  0  0  0
 10  2  1  0  0  0  0
 11 10  2  0  0  0  0
 12 10  1  0  0  0  0
 12 17  1  0  0  0  0
 13 12  2  0  0  0  0
 14 13  1  0  0  0  0
 15 13  1  0  0  0  0
 15 16  2  0  0  0  0
 16 17  1  0  0  0  0
M  END
>  <minimizedAffinity>
-3.71691513

$$$$
