
 OpenBabel03242519123D

 44 47  0  0  1  0  0  0  0  0999 V2000
   40.2170   33.4140   38.8240 N   0  0  0  0  0  0  0  0  0  0  0  0
   40.2130   33.2420   37.7720 H   0  0  0  0  0  0  0  0  0  0  0  0
   42.1140   35.1320   41.2960 N   0  0  0  0  0  0  0  0  0  0  0  0
   41.5700   33.8630   40.8200 C   0  0  0  0  0  0  0  0  0  0  0  0
   41.1510   34.3060   39.4470 C   0  0  2  0  0  0  0  0  0  0  0  0
   40.4130   35.5980   39.7400 C   0  0  0  0  0  0  0  0  0  0  0  0
   41.1820   36.1500   40.9120 C   0  0  0  0  0  0  0  0  0  0  0  0
   42.3320   33.0630   40.8320 H   0  0  0  0  0  0  0  0  0  0  0  0
   40.6880   33.6420   41.4280 H   0  0  0  0  0  0  0  0  0  0  0  0
   42.0040   34.4600   38.7760 H   0  0  0  0  0  0  0  0  0  0  0  0
   40.4870   36.2270   38.8310 H   0  0  0  0  0  0  0  0  0  0  0  0
   39.3450   35.4210   39.9620 H   0  0  0  0  0  0  0  0  0  0  0  0
   41.7240   37.0520   40.5510 H   0  0  0  0  0  0  0  0  0  0  0  0
   40.4830   36.3950   41.7600 H   0  0  0  0  0  0  0  0  0  0  0  0
   44.6490   36.4080   43.7270 C   0  0  0  0  0  0  0  0  0  0  0  0
   43.4160   36.2270   43.1180 C   0  0  0  0  0  0  0  0  0  0  0  0
   43.3040   35.3900   41.9950 C   0  0  0  0  0  0  0  0  0  0  0  0
   44.4450   34.7990   41.5730 N   0  0  0  0  0  0  0  0  0  0  0  0
   45.6430   34.9630   42.1500 C   0  0  0  0  0  0  0  0  0  0  0  0
   45.7350   35.7790   43.2390 N   0  0  0  0  0  0  0  0  0  0  0  0
   44.7210   37.0560   44.5920 H   0  0  0  0  0  0  0  0  0  0  0  0
   42.5030   36.7040   43.4610 H   0  0  0  0  0  0  0  0  0  0  0  0
   46.4940   34.4470   41.7380 H   0  0  0  0  0  0  0  0  0  0  0  0
   39.3050   31.2600   39.6980 C   0  0  0  0  0  0  0  0  0  0  0  0
   39.1810   32.6200   39.3570 C   0  0  0  0  0  0  0  0  0  0  0  0
   37.9350   33.1090   39.6000 C   0  0  0  0  0  0  0  0  0  0  0  0
   36.8600   32.4180   40.1180 C   0  0  0  0  0  0  0  0  0  0  0  0
   37.0490   31.0850   40.4310 C   0  0  0  0  0  0  0  0  0  0  0  0
   38.2770   30.5330   40.2120 C   0  0  0  0  0  0  0  0  0  0  0  0
   37.7400   34.1640   39.3660 H   0  0  0  0  0  0  0  0  0  0  0  0
   35.8990   32.8890   40.2780 H   0  0  0  0  0  0  0  0  0  0  0  0
   36.1930   30.5600   40.8360 H   0  0  0  0  0  0  0  0  0  0  0  0
   38.5860   28.8010   41.9210 C   0  0  0  0  0  0  0  0  0  0  0  0
   38.7390   29.6990   42.8000 O   0  0  0  0  0  0  0  0  0  0  0  0
   38.4160   29.1530   40.5530 N   0  0  0  0  0  0  0  0  0  0  0  0
   38.3750   28.5450   39.7230 H   0  0  0  0  0  0  0  0  0  0  0  0
   38.5470   27.3060   42.0750 C   0  0  0  0  0  0  0  0  0  0  0  0
   37.3060   26.6450   42.0350 C   0  0  0  0  0  0  0  0  0  0  0  0
   36.3450   27.1150   41.9000 H   0  0  0  0  0  0  0  0  0  0  0  0
   37.2710   25.3050   42.1720 C   0  0  0  0  0  3  0  0  0  0  0  0
   38.5180   24.5590   42.3620 C   0  0  0  0  0  3  0  0  0  0  0  0
   39.7700   25.9840   42.3240 S   0  0  0  0  0  0  0  0  0  0  0  0
   41.6490   30.1660   39.2870 N   0  0  0  0  0  0  0  0  0  0  0  0
   40.6180   30.6550   39.4670 C   0  0  0  0  0  0  0  0  0  0  0  0
  1 25  1  0  0  0  0
  1  5  1  0  0  0  0
  2  1  1  0  0  0  0
  3 17  1  0  0  0  0
  4  8  1  0  0  0  0
  4  3  1  0  0  0  0
  4  9  1  0  0  0  0
  5 10  1  6  0  0  0
  5  6  1  0  0  0  0
  5  4  1  0  0  0  0
  6 12  1  0  0  0  0
  6  7  1  0  0  0  0
  7  3  1  0  0  0  0
  7 14  1  0  0  0  0
 11  6  1  0  0  0  0
 13  7  1  0  0  0  0
 15 21  1  0  0  0  0
 16 22  1  0  0  0  0
 16 15  2  0  0  0  0
 17 16  1  0  0  0  0
 18 17  2  0  0  0  0
 18 19  1  0  0  0  0
 19 20  2  0  0  0  0
 20 15  1  0  0  0  0
 23 19  1  0  0  0  0
 24 29  1  0  0  0  0
 25 26  1  0  0  0  0
 25 24  2  0  0  0  0
 26 27  2  0  0  0  0
 27 31  1  0  0  0  0
 27 28  1  0  0  0  0
 28 32  1  0  0  0  0
 29 28  2  0  0  0  0
 29 35  1  0  0  0  0
 30 26  1  0  0  0  0
 33 37  1  0  0  0  0
 33 34  2  0  0  0  0
 35 33  1  0  0  0  0
 36 35  1  0  0  0  0
 37 42  1  0  0  0  0
 38 37  2  0  0  0  0
 38 40  1  0  0  0  0
 39 38  1  0  0  0  0
 40 41  2  0  0  0  0
 42 41  1  0  0  0  0
 43 44  3  0  0  0  0
 44 24  1  0  0  0  0
M  END
>  <minimizedAffinity>
-6.35657501

$$$$

 OpenBabel03242519123D

 44 47  0  0  1  0  0  0  0  0999 V2000
   39.9610   29.2190   42.0860 N   0  0  0  0  0  0  0  0  0  0  0  0
   40.8120   28.8970   42.6410 H   0  0  0  0  0  0  0  0  0  0  0  0
   39.3260   32.3950   40.6130 N   0  0  0  0  0  0  0  0  0  0  0  0
   39.5640   31.6250   41.8310 C   0  0  0  0  0  0  0  0  0  0  0  0
   40.0130   30.3410   41.1950 C   0  0  2  0  0  0  0  0  0  0  0  0
   38.9520   30.1230   40.1340 C   0  0  0  0  0  0  0  0  0  0  0  0
   38.6240   31.5310   39.7110 C   0  0  0  0  0  0  0  0  0  0  0  0
   40.3200   32.1080   42.4760 H   0  0  0  0  0  0  0  0  0  0  0  0
   38.5940   31.4840   42.3180 H   0  0  0  0  0  0  0  0  0  0  0  0
   41.0180   30.4130   40.7650 H   0  0  0  0  0  0  0  0  0  0  0  0
   39.4170   29.5200   39.3290 H   0  0  0  0  0  0  0  0  0  0  0  0
   38.0800   29.5720   40.5300 H   0  0  0  0  0  0  0  0  0  0  0  0
   39.0110   31.6600   38.6750 H   0  0  0  0  0  0  0  0  0  0  0  0
   37.5140   31.7090   39.7660 H   0  0  0  0  0  0  0  0  0  0  0  0
   39.2850   36.0890   40.0520 C   0  0  0  0  0  0  0  0  0  0  0  0
   38.8200   34.8250   40.3830 C   0  0  0  0  0  0  0  0  0  0  0  0
   39.6810   33.7180   40.3050 C   0  0  0  0  0  0  0  0  0  0  0  0
   40.9460   33.9700   39.8980 N   0  0  0  0  0  0  0  0  0  0  0  0
   41.4100   35.1850   39.5740 C   0  0  0  0  0  0  0  0  0  0  0  0
   40.5620   36.2500   39.6560 N   0  0  0  0  0  0  0  0  0  0  0  0
   38.6110   36.9340   40.1170 H   0  0  0  0  0  0  0  0  0  0  0  0
   37.8040   34.6270   40.7100 H   0  0  0  0  0  0  0  0  0  0  0  0
   42.4370   35.2830   39.2600 H   0  0  0  0  0  0  0  0  0  0  0  0
   38.7410   27.0480   41.9040 C   0  0  0  0  0  0  0  0  0  0  0  0
   38.9110   28.3430   42.4300 C   0  0  0  0  0  0  0  0  0  0  0  0
   37.9430   28.6770   43.3250 C   0  0  0  0  0  0  0  0  0  0  0  0
   36.8800   27.8940   43.7250 C   0  0  0  0  0  0  0  0  0  0  0  0
   36.7710   26.6330   43.1710 C   0  0  0  0  0  0  0  0  0  0  0  0
   37.7120   26.2360   42.2660 C   0  0  0  0  0  0  0  0  0  0  0  0
   37.9900   29.6690   43.7900 H   0  0  0  0  0  0  0  0  0  0  0  0
   36.1520   28.2430   44.4470 H   0  0  0  0  0  0  0  0  0  0  0  0
   35.9300   26.0350   43.4990 H   0  0  0  0  0  0  0  0  0  0  0  0
   36.9080   24.7800   40.4640 C   0  0  0  0  0  0  0  0  0  0  0  0
   36.3780   25.7790   39.8950 O   0  0  0  0  0  0  0  0  0  0  0  0
   37.5500   24.9250   41.7260 N   0  0  0  0  0  0  0  0  0  0  0  0
   37.9380   24.2010   42.3470 H   0  0  0  0  0  0  0  0  0  0  0  0
   36.9870   23.3490   40.0090 C   0  0  0  0  0  0  0  0  0  0  0  0
   38.0580   22.5490   40.4470 C   0  0  0  0  0  0  0  0  0  0  0  0
   38.8560   22.8650   41.1000 H   0  0  0  0  0  0  0  0  0  0  0  0
   38.1290   21.2660   40.0400 C   0  0  0  0  0  3  0  0  0  0  0  0
   37.0980   20.7260   39.1500 C   0  0  0  0  0  3  0  0  0  0  0  0
   35.9940   22.2560   38.9480 S   0  0  0  0  0  0  0  0  0  0  0  0
   40.5350   26.2770   40.1590 N   0  0  0  0  0  0  0  0  0  0  0  0
   39.7440   26.6100   40.9320 C   0  0  0  0  0  0  0  0  0  0  0  0
  1 25  1  0  0  0  0
  1  2  1  0  0  0  0
  3  4  1  0  0  0  0
  4  9  1  0  0  0  0
  4  8  1  0  0  0  0
  5 10  1  6  0  0  0
  5  4  1  0  0  0  0
  5  1  1  0  0  0  0
  6 12  1  0  0  0  0
  6  5  1  0  0  0  0
  7 14  1  0  0  0  0
  7  6  1  0  0  0  0
  7  3  1  0  0  0  0
 11  6  1  0  0  0  0
 13  7  1  0  0  0  0
 15 21  1  0  0  0  0
 15 16  1  0  0  0  0
 16 22  1  0  0  0  0
 17 16  2  0  0  0  0
 17  3  1  0  0  0  0
 18 17  1  0  0  0  0
 19 20  1  0  0  0  0
 19 18  2  0  0  0  0
 20 15  2  0  0  0  0
 23 19  1  0  0  0  0
 24 29  2  0  0  0  0
 24 25  1  0  0  0  0
 25 26  2  0  0  0  0
 26 27  1  0  0  0  0
 26 30  1  0  0  0  0
 27 31  1  0  0  0  0
 28 32  1  0  0  0  0
 28 27  2  0  0  0  0
 29 28  1  0  0  0  0
 33 35  1  0  0  0  0
 34 33  2  0  0  0  0
 35 29  1  0  0  0  0
 35 36  1  0  0  0  0
 37 38  2  0  0  0  0
 37 33  1  0  0  0  0
 38 39  1  0  0  0  0
 40 38  1  0  0  0  0
 41 40  2  0  0  0  0
 42 41  1  0  0  0  0
 42 37  1  0  0  0  0
 43 44  3  0  0  0  0
 44 24  1  0  0  0  0
M  END
>  <minimizedAffinity>
-5.94617748

$$$$

 OpenBabel03242519123D

 44 47  0  0  1  0  0  0  0  0999 V2000
   36.4270   29.4430   40.2920 N   0  0  0  0  0  0  0  0  0  0  0  0
   35.3770   29.5100   40.1240 H   0  0  0  0  0  0  0  0  0  0  0  0
   37.9170   32.6380   39.8040 N   0  0  0  0  0  0  0  0  0  0  0  0
   37.2520   31.7130   40.7180 C   0  0  0  0  0  0  0  0  0  0  0  0
   37.3320   30.4730   39.8740 C   0  0  2  0  0  0  0  0  0  0  0  0
   36.8520   30.9750   38.5260 C   0  0  0  0  0  0  0  0  0  0  0  0
   37.3770   32.3860   38.5000 C   0  0  0  0  0  0  0  0  0  0  0  0
   37.7820   31.6460   41.6850 H   0  0  0  0  0  0  0  0  0  0  0  0
   36.2120   32.0400   40.8070 H   0  0  0  0  0  0  0  0  0  0  0  0
   38.3470   30.0630   39.8250 H   0  0  0  0  0  0  0  0  0  0  0  0
   37.3100   30.3220   37.7560 H   0  0  0  0  0  0  0  0  0  0  0  0
   35.7530   30.9160   38.4310 H   0  0  0  0  0  0  0  0  0  0  0  0
   38.1860   32.4210   37.7360 H   0  0  0  0  0  0  0  0  0  0  0  0
   36.5480   33.1100   38.2630 H   0  0  0  0  0  0  0  0  0  0  0  0
   39.7150   35.8510   40.4380 C   0  0  0  0  0  0  0  0  0  0  0  0
   38.6620   34.9870   40.1770 C   0  0  0  0  0  0  0  0  0  0  0  0
   38.8990   33.6070   40.0660 C   0  0  0  0  0  0  0  0  0  0  0  0
   40.1800   33.2030   40.2270 N   0  0  0  0  0  0  0  0  0  0  0  0
   41.2080   34.0250   40.4800 C   0  0  0  0  0  0  0  0  0  0  0  0
   40.9610   35.3620   40.5850 N   0  0  0  0  0  0  0  0  0  0  0  0
   39.5190   36.9130   40.5210 H   0  0  0  0  0  0  0  0  0  0  0  0
   37.6350   35.3150   40.0480 H   0  0  0  0  0  0  0  0  0  0  0  0
   42.1940   33.6050   40.5930 H   0  0  0  0  0  0  0  0  0  0  0  0
   36.9000   26.9910   40.3110 C   0  0  0  0  0  0  0  0  0  0  0  0
   36.6440   28.2170   40.9540 C   0  0  0  0  0  0  0  0  0  0  0  0
   36.6270   28.1040   42.3090 C   0  0  0  0  0  0  0  0  0  0  0  0
   36.8270   26.9560   43.0480 C   0  0  0  0  0  0  0  0  0  0  0  0
   37.0750   25.7860   42.3540 C   0  0  0  0  0  0  0  0  0  0  0  0
   37.1050   25.8320   40.9910 C   0  0  0  0  0  0  0  0  0  0  0  0
   36.4350   29.0080   42.9000 H   0  0  0  0  0  0  0  0  0  0  0  0
   36.7960   26.9580   44.1290 H   0  0  0  0  0  0  0  0  0  0  0  0
   37.2290   24.8970   42.9520 H   0  0  0  0  0  0  0  0  0  0  0  0
   38.7150   24.1890   40.1400 C   0  0  0  0  0  0  0  0  0  0  0  0
   39.6660   24.9680   40.4410 O   0  0  0  0  0  0  0  0  0  0  0  0
   37.3640   24.5950   40.3270 N   0  0  0  0  0  0  0  0  0  0  0  0
   36.4950   24.1180   40.0470 H   0  0  0  0  0  0  0  0  0  0  0  0
   38.7590   22.7960   39.5740 C   0  0  0  0  0  0  0  0  0  0  0  0
   37.9940   21.7850   40.1830 C   0  0  0  0  0  0  0  0  0  0  0  0
   37.3560   21.9080   41.0440 H   0  0  0  0  0  0  0  0  0  0  0  0
   38.0330   20.5370   39.6760 C   0  0  0  0  0  3  0  0  0  0  0  0
   38.8680   20.2520   38.5060 C   0  0  0  0  0  3  0  0  0  0  0  0
   39.6050   21.9720   38.1920 S   0  0  0  0  0  0  0  0  0  0  0  0
   36.9500   27.0540   37.6930 N   0  0  0  0  0  0  0  0  0  0  0  0
   36.9360   27.0260   38.8480 C   0  0  0  0  0  0  0  0  0  0  0  0
  1 25  1  0  0  0  0
  2  1  1  0  0  0  0
  3 17  1  0  0  0  0
  3  4  1  0  0  0  0
  4  9  1  0  0  0  0
  4  8  1  0  0  0  0
  5 10  1  6  0  0  0
  5  1  1  0  0  0  0
  5  4  1  0  0  0  0
  6  5  1  0  0  0  0
  7  6  1  0  0  0  0
  7  3  1  0  0  0  0
 11  6  1  0  0  0  0
 12  6  1  0  0  0  0
 13  7  1  0  0  0  0
 14  7  1  0  0  0  0
 15 21  1  0  0  0  0
 15 20  1  0  0  0  0
 16 15  2  0  0  0  0
 17 16  1  0  0  0  0
 17 18  2  0  0  0  0
 18 19  1  0  0  0  0
 19 20  2  0  0  0  0
 19 23  1  0  0  0  0
 22 16  1  0  0  0  0
 24 25  2  0  0  0  0
 24 29  1  0  0  0  0
 25 26  1  0  0  0  0
 26 30  1  0  0  0  0
 26 27  2  0  0  0  0
 27 31  1  0  0  0  0
 28 32  1  0  0  0  0
 28 27  1  0  0  0  0
 29 28  2  0  0  0  0
 33 35  1  0  0  0  0
 33 34  2  0  0  0  0
 35 29  1  0  0  0  0
 36 35  1  0  0  0  0
 37 33  1  0  0  0  0
 37 38  2  0  0  0  0
 38 39  1  0  0  0  0
 40 38  1  0  0  0  0
 41 40  2  0  0  0  0
 42 41  1  0  0  0  0
 42 37  1  0  0  0  0
 43 44  3  0  0  0  0
 44 24  1  0  0  0  0
M  END
>  <minimizedAffinity>
-5.86742687

$$$$

 OpenBabel03242519123D

 44 47  0  0  1  0  0  0  0  0999 V2000
   38.1510   30.7200   38.8490 N   0  0  0  0  0  0  0  0  0  0  0  0
   38.4750   30.7430   37.8340 H   0  0  0  0  0  0  0  0  0  0  0  0
   37.3150   27.3290   39.5330 N   0  0  0  0  0  0  0  0  0  0  0  0
   38.3610   28.3110   39.2580 C   0  0  0  0  0  0  0  0  0  0  0  0
   37.5410   29.5580   39.4270 C   0  0  2  0  0  0  0  0  0  0  0  0
   36.3070   29.2410   38.6060 C   0  0  0  0  0  0  0  0  0  0  0  0
   36.1500   27.7580   38.8170 C   0  0  0  0  0  0  0  0  0  0  0  0
   39.2040   28.2150   39.9650 H   0  0  0  0  0  0  0  0  0  0  0  0
   38.6490   28.1900   38.2090 H   0  0  0  0  0  0  0  0  0  0  0  0
   37.2990   29.7630   40.4760 H   0  0  0  0  0  0  0  0  0  0  0  0
   35.4730   29.8350   39.0320 H   0  0  0  0  0  0  0  0  0  0  0  0
   36.4340   29.5200   37.5450 H   0  0  0  0  0  0  0  0  0  0  0  0
   35.2400   27.6100   39.4400 H   0  0  0  0  0  0  0  0  0  0  0  0
   36.0690   27.2270   37.8270 H   0  0  0  0  0  0  0  0  0  0  0  0
   36.7080   23.9360   40.9750 C   0  0  0  0  0  0  0  0  0  0  0  0
   36.5790   25.0210   40.1210 C   0  0  0  0  0  0  0  0  0  0  0  0
   37.3580   26.1720   40.3270 C   0  0  0  0  0  0  0  0  0  0  0  0
   38.2080   26.1410   41.3790 N   0  0  0  0  0  0  0  0  0  0  0  0
   38.3440   25.1000   42.2130 C   0  0  0  0  0  0  0  0  0  0  0  0
   37.5810   23.9900   41.9990 N   0  0  0  0  0  0  0  0  0  0  0  0
   36.1020   23.0540   40.8050 H   0  0  0  0  0  0  0  0  0  0  0  0
   35.8960   25.0420   39.2780 H   0  0  0  0  0  0  0  0  0  0  0  0
   39.0500   25.1730   43.0230 H   0  0  0  0  0  0  0  0  0  0  0  0
   39.6700   32.3260   40.0090 C   0  0  0  0  0  0  0  0  0  0  0  0
   38.4520   31.9870   39.3890 C   0  0  0  0  0  0  0  0  0  0  0  0
   37.5730   33.0240   39.3570 C   0  0  0  0  0  0  0  0  0  0  0  0
   37.7730   34.2950   39.8550 C   0  0  0  0  0  0  0  0  0  0  0  0
   38.9910   34.5630   40.4520 C   0  0  0  0  0  0  0  0  0  0  0  0
   39.9180   33.5640   40.5150 C   0  0  0  0  0  0  0  0  0  0  0  0
   36.5940   32.8570   38.8920 H   0  0  0  0  0  0  0  0  0  0  0  0
   37.0130   35.0630   39.7870 H   0  0  0  0  0  0  0  0  0  0  0  0
   39.1270   35.5660   40.8360 H   0  0  0  0  0  0  0  0  0  0  0  0
   42.1920   34.4670   40.3510 C   0  0  0  0  0  0  0  0  0  0  0  0
   42.0620   34.5600   39.0950 O   0  0  0  0  0  0  0  0  0  0  0  0
   41.1570   33.8960   41.1430 N   0  0  0  0  0  0  0  0  0  0  0  0
   41.1530   33.6690   42.1480 H   0  0  0  0  0  0  0  0  0  0  0  0
   43.3370   34.8870   41.2300 C   0  0  0  0  0  0  0  0  0  0  0  0
   43.0880   35.7430   42.3180 C   0  0  0  0  0  0  0  0  0  0  0  0
   42.1270   36.1430   42.5990 H   0  0  0  0  0  0  0  0  0  0  0  0
   44.1140   36.1200   43.1060 C   0  0  0  0  0  3  0  0  0  0  0  0
   45.4680   35.6380   42.8190 C   0  0  0  0  0  3  0  0  0  0  0  0
   45.1270   34.5720   41.2870 S   0  0  0  0  0  0  0  0  0  0  0  0
   41.4560   30.4160   40.1390 N   0  0  0  0  0  0  0  0  0  0  0  0
   40.6730   31.2630   40.0840 C   0  0  0  0  0  0  0  0  0  0  0  0
  1 25  1  0  0  0  0
  1  5  1  0  0  0  0
  2  1  1  0  0  0  0
  3 17  1  0  0  0  0
  4  5  1  0  0  0  0
  4  3  1  0  0  0  0
  4  8  1  0  0  0  0
  5 10  1  1  0  0  0
  6  7  1  0  0  0  0
  6 11  1  0  0  0  0
  6  5  1  0  0  0  0
  7 13  1  0  0  0  0
  7  3  1  0  0  0  0
  9  4  1  0  0  0  0
 12  6  1  0  0  0  0
 14  7  1  0  0  0  0
 15 20  1  0  0  0  0
 16 17  1  0  0  0  0
 16 15  2  0  0  0  0
 17 18  2  0  0  0  0
 18 19  1  0  0  0  0
 19 23  1  0  0  0  0
 20 19  2  0  0  0  0
 21 15  1  0  0  0  0
 22 16  1  0  0  0  0
 24 44  1  0  0  0  0
 24 29  1  0  0  0  0
 25 24  2  0  0  0  0
 26 25  1  0  0  0  0
 26 27  2  0  0  0  0
 27 28  1  0  0  0  0
 28 29  2  0  0  0  0
 28 32  1  0  0  0  0
 29 35  1  0  0  0  0
 30 26  1  0  0  0  0
 31 27  1  0  0  0  0
 33 35  1  0  0  0  0
 33 37  1  0  0  0  0
 34 33  2  0  0  0  0
 35 36  1  0  0  0  0
 37 42  1  0  0  0  0
 37 38  2  0  0  0  0
 38 39  1  0  0  0  0
 38 40  1  0  0  0  0
 41 40  2  0  0  0  0
 42 41  1  0  0  0  0
 44 43  3  0  0  0  0
M  END
>  <minimizedAffinity>
-5.86654043

$$$$

 OpenBabel03242519123D

 44 47  0  0  1  0  0  0  0  0999 V2000
   38.7640   29.2890   43.0780 N   0  0  0  0  0  0  0  0  0  0  0  0
   37.9590   29.4830   43.7480 H   0  0  0  0  0  0  0  0  0  0  0  0
   39.6010   31.8890   40.7950 N   0  0  0  0  0  0  0  0  0  0  0  0
   38.5820   31.2670   41.6380 C   0  0  0  0  0  0  0  0  0  0  0  0
   39.4760   30.3440   42.4180 C   0  0  2  0  0  0  0  0  0  0  0  0
   40.3100   29.7090   41.3220 C   0  0  0  0  0  0  0  0  0  0  0  0
   40.4490   30.8320   40.3280 C   0  0  0  0  0  0  0  0  0  0  0  0
   38.0490   32.0160   42.2510 H   0  0  0  0  0  0  0  0  0  0  0  0
   37.9280   30.6880   40.9800 H   0  0  0  0  0  0  0  0  0  0  0  0
   40.0930   30.8760   43.1510 H   0  0  0  0  0  0  0  0  0  0  0  0
   41.2720   29.4070   41.7810 H   0  0  0  0  0  0  0  0  0  0  0  0
   39.8220   28.8110   40.9010 H   0  0  0  0  0  0  0  0  0  0  0  0
   41.5140   31.1560   40.3480 H   0  0  0  0  0  0  0  0  0  0  0  0
   40.1370   30.4900   39.3020 H   0  0  0  0  0  0  0  0  0  0  0  0
   39.0860   35.5330   40.1480 C   0  0  0  0  0  0  0  0  0  0  0  0
   38.7860   34.2260   40.5050 C   0  0  0  0  0  0  0  0  0  0  0  0
   39.7840   33.2390   40.4600 C   0  0  0  0  0  0  0  0  0  0  0  0
   41.0110   33.6450   40.0580 N   0  0  0  0  0  0  0  0  0  0  0  0
   41.3160   34.9030   39.7100 C   0  0  0  0  0  0  0  0  0  0  0  0
   40.3360   35.8490   39.7600 N   0  0  0  0  0  0  0  0  0  0  0  0
   38.3070   36.2840   40.1880 H   0  0  0  0  0  0  0  0  0  0  0  0
   37.8000   33.9050   40.8280 H   0  0  0  0  0  0  0  0  0  0  0  0
   42.3250   35.1270   39.4030 H   0  0  0  0  0  0  0  0  0  0  0  0
   38.0810   27.0170   42.3000 C   0  0  0  0  0  0  0  0  0  0  0  0
   38.9110   27.8880   43.0310 C   0  0  0  0  0  0  0  0  0  0  0  0
   39.8950   27.2320   43.7030 C   0  0  0  0  0  0  0  0  0  0  0  0
   40.1220   25.8710   43.7210 C   0  0  0  0  0  0  0  0  0  0  0  0
   39.2700   25.0730   42.9820 C   0  0  0  0  0  0  0  0  0  0  0  0
   38.2610   25.6700   42.2830 C   0  0  0  0  0  0  0  0  0  0  0  0
   40.5950   27.8270   44.3030 H   0  0  0  0  0  0  0  0  0  0  0  0
   40.9330   25.4330   44.2880 H   0  0  0  0  0  0  0  0  0  0  0  0
   39.4640   24.0080   43.0090 H   0  0  0  0  0  0  0  0  0  0  0  0
   37.8450   24.3470   40.2600 C   0  0  0  0  0  0  0  0  0  0  0  0
   38.9020   24.8120   39.7410 O   0  0  0  0  0  0  0  0  0  0  0  0
   37.4110   24.7970   41.5380 N   0  0  0  0  0  0  0  0  0  0  0  0
   36.5380   24.5860   42.0420 H   0  0  0  0  0  0  0  0  0  0  0  0
   36.8870   23.3190   39.7250 C   0  0  0  0  0  0  0  0  0  0  0  0
   35.5100   23.6020   39.7220 C   0  0  0  0  0  0  0  0  0  0  0  0
   35.0520   24.5120   40.0760 H   0  0  0  0  0  0  0  0  0  0  0  0
   34.6510   22.6810   39.2420 C   0  0  0  0  0  3  0  0  0  0  0  0
   35.1610   21.4040   38.7340 C   0  0  0  0  0  3  0  0  0  0  0  0
   37.0210   21.6520   39.0120 S   0  0  0  0  0  0  0  0  0  0  0  0
   36.1400   28.1520   40.9560 N   0  0  0  0  0  0  0  0  0  0  0  0
   36.9940   27.6450   41.5460 C   0  0  0  0  0  0  0  0  0  0  0  0
  1  2  1  0  0  0  0
  3  4  1  0  0  0  0
  4  8  1  0  0  0  0
  4  5  1  0  0  0  0
  5  1  1  0  0  0  0
  5 10  1  1  0  0  0
  6 11  1  0  0  0  0
  6  5  1  0  0  0  0
  7 13  1  0  0  0  0
  7  3  1  0  0  0  0
  7  6  1  0  0  0  0
  9  4  1  0  0  0  0
 12  6  1  0  0  0  0
 14  7  1  0  0  0  0
 15 21  1  0  0  0  0
 15 16  1  0  0  0  0
 16 22  1  0  0  0  0
 17 16  2  0  0  0  0
 17  3  1  0  0  0  0
 18 17  1  0  0  0  0
 19 20  1  0  0  0  0
 19 18  2  0  0  0  0
 20 15  2  0  0  0  0
 23 19  1  0  0  0  0
 24 25  1  0  0  0  0
 25  1  1  0  0  0  0
 25 26  2  0  0  0  0
 26 27  1  0  0  0  0
 26 30  1  0  0  0  0
 27 31  1  0  0  0  0
 28 32  1  0  0  0  0
 28 27  2  0  0  0  0
 29 24  2  0  0  0  0
 29 28  1  0  0  0  0
 33 35  1  0  0  0  0
 34 33  2  0  0  0  0
 35 36  1  0  0  0  0
 35 29  1  0  0  0  0
 37 33  1  0  0  0  0
 38 37  2  0  0  0  0
 38 39  1  0  0  0  0
 40 38  1  0  0  0  0
 41 42  1  0  0  0  0
 41 40  2  0  0  0  0
 42 37  1  0  0  0  0
 43 44  3  0  0  0  0
 44 24  1  0  0  0  0
M  END
>  <minimizedAffinity>
-5.83227444

$$$$

 OpenBabel03242519123D

 44 47  0  0  1  0  0  0  0  0999 V2000
   37.6150   27.2650   42.4390 N   0  0  0  0  0  0  0  0  0  0  0  0
   37.5480   27.4620   43.4840 H   0  0  0  0  0  0  0  0  0  0  0  0
   38.3040   24.5630   40.2280 N   0  0  0  0  0  0  0  0  0  0  0  0
   38.2690   26.0090   40.4370 C   0  0  0  0  0  0  0  0  0  0  0  0
   38.0830   26.0100   41.9270 C   0  0  2  0  0  0  0  0  0  0  0  0
   36.9630   25.0040   42.1090 C   0  0  0  0  0  0  0  0  0  0  0  0
   37.2420   24.0090   41.0140 C   0  0  0  0  0  0  0  0  0  0  0  0
   39.1990   26.4920   40.0890 H   0  0  0  0  0  0  0  0  0  0  0  0
   37.3660   26.3830   39.9450 H   0  0  0  0  0  0  0  0  0  0  0  0
   38.9920   25.7190   42.4650 H   0  0  0  0  0  0  0  0  0  0  0  0
   37.0720   24.5790   43.1270 H   0  0  0  0  0  0  0  0  0  0  0  0
   35.9680   25.4760   42.0270 H   0  0  0  0  0  0  0  0  0  0  0  0
   37.5790   23.0680   41.5050 H   0  0  0  0  0  0  0  0  0  0  0  0
   36.3220   23.8450   40.3880 H   0  0  0  0  0  0  0  0  0  0  0  0
   39.8470   21.8200   38.2140 C   0  0  0  0  0  0  0  0  0  0  0  0
   38.9130   22.4850   38.9940 C   0  0  0  0  0  0  0  0  0  0  0  0
   39.1700   23.7930   39.4350 C   0  0  0  0  0  0  0  0  0  0  0  0
   40.3510   24.3330   39.0550 N   0  0  0  0  0  0  0  0  0  0  0  0
   41.2640   23.7040   38.3020 C   0  0  0  0  0  0  0  0  0  0  0  0
   40.9990   22.4340   37.8810 N   0  0  0  0  0  0  0  0  0  0  0  0
   39.6360   20.8120   37.8800 H   0  0  0  0  0  0  0  0  0  0  0  0
   37.9660   22.0480   39.2970 H   0  0  0  0  0  0  0  0  0  0  0  0
   42.1760   24.2200   38.0520 H   0  0  0  0  0  0  0  0  0  0  0  0
   37.9190   29.6200   41.6670 C   0  0  0  0  0  0  0  0  0  0  0  0
   37.1700   28.4350   41.7880 C   0  0  0  0  0  0  0  0  0  0  0  0
   35.9460   28.5260   41.2020 C   0  0  0  0  0  0  0  0  0  0  0  0
   35.4220   29.6200   40.5440 C   0  0  0  0  0  0  0  0  0  0  0  0
   36.2100   30.7520   40.4610 C   0  0  0  0  0  0  0  0  0  0  0  0
   37.4500   30.7250   41.0290 C   0  0  0  0  0  0  0  0  0  0  0  0
   35.2870   27.6500   41.2440 H   0  0  0  0  0  0  0  0  0  0  0  0
   34.4330   29.6040   40.1060 H   0  0  0  0  0  0  0  0  0  0  0  0
   35.7800   31.5990   39.9410 H   0  0  0  0  0  0  0  0  0  0  0  0
   38.9720   32.1380   39.7250 C   0  0  0  0  0  0  0  0  0  0  0  0
   39.0590   31.2310   38.8460 O   0  0  0  0  0  0  0  0  0  0  0  0
   38.2200   31.9230   40.9130 N   0  0  0  0  0  0  0  0  0  0  0  0
   38.1340   32.5190   41.7480 H   0  0  0  0  0  0  0  0  0  0  0  0
   39.5700   33.5180   39.7390 C   0  0  0  0  0  0  0  0  0  0  0  0
   38.8050   34.5920   40.2290 C   0  0  0  0  0  0  0  0  0  0  0  0
   37.7980   34.5270   40.6090 H   0  0  0  0  0  0  0  0  0  0  0  0
   39.3410   35.8280   40.2430 C   0  0  0  0  0  3  0  0  0  0  0  0
   40.7050   36.0360   39.7490 C   0  0  0  0  0  3  0  0  0  0  0  0
   41.1570   34.2610   39.2550 S   0  0  0  0  0  0  0  0  0  0  0  0
   40.3090   29.5890   42.7390 N   0  0  0  0  0  0  0  0  0  0  0  0
   39.2520   29.6050   42.2720 C   0  0  0  0  0  0  0  0  0  0  0  0
  1  2  1  0  0  0  0
  3  4  1  0  0  0  0
  3  7  1  0  0  0  0
  4  5  1  0  0  0  0
  5  6  1  0  0  0  0
  5  1  1  0  0  0  0
  5 10  1  1  0  0  0
  6 11  1  0  0  0  0
  7 13  1  0  0  0  0
  7  6  1  0  0  0  0
  8  4  1  0  0  0  0
  9  4  1  0  0  0  0
 12  6  1  0  0  0  0
 14  7  1  0  0  0  0
 15 16  1  0  0  0  0
 16 22  1  0  0  0  0
 16 17  2  0  0  0  0
 17  3  1  0  0  0  0
 18 17  1  0  0  0  0
 19 18  2  0  0  0  0
 20 15  2  0  0  0  0
 20 19  1  0  0  0  0
 21 15  1  0  0  0  0
 23 19  1  0  0  0  0
 24 25  1  0  0  0  0
 24 44  1  0  0  0  0
 25  1  1  0  0  0  0
 26 30  1  0  0  0  0
 26 25  2  0  0  0  0
 27 26  1  0  0  0  0
 28 27  2  0  0  0  0
 28 29  1  0  0  0  0
 29 24  2  0  0  0  0
 31 27  1  0  0  0  0
 32 28  1  0  0  0  0
 33 37  1  0  0  0  0
 33 35  1  0  0  0  0
 34 33  2  0  0  0  0
 35 29  1  0  0  0  0
 35 36  1  0  0  0  0
 37 38  2  0  0  0  0
 38 40  1  0  0  0  0
 38 39  1  0  0  0  0
 41 40  2  0  0  0  0
 42 37  1  0  0  0  0
 42 41  1  0  0  0  0
 44 43  3  0  0  0  0
M  END
>  <minimizedAffinity>
-5.816535

$$$$

 OpenBabel03242519123D

 44 47  0  0  1  0  0  0  0  0999 V2000
   36.8040   29.8420   40.9350 N   0  0  0  0  0  0  0  0  0  0  0  0
   35.7600   29.9880   41.0890 H   0  0  0  0  0  0  0  0  0  0  0  0
   38.1260   32.9310   39.7650 N   0  0  0  0  0  0  0  0  0  0  0  0
   37.6210   32.1540   40.8930 C   0  0  0  0  0  0  0  0  0  0  0  0
   37.6140   30.8000   40.2420 C   0  0  2  0  0  0  0  0  0  0  0  0
   36.9360   31.0890   38.9160 C   0  0  0  0  0  0  0  0  0  0  0  0
   37.4150   32.4820   38.6040 C   0  0  0  0  0  0  0  0  0  0  0  0
   38.2830   32.2370   41.7730 H   0  0  0  0  0  0  0  0  0  0  0  0
   36.5950   32.4860   41.0800 H   0  0  0  0  0  0  0  0  0  0  0  0
   38.6220   30.3910   40.1100 H   0  0  0  0  0  0  0  0  0  0  0  0
   37.2980   30.3280   38.1950 H   0  0  0  0  0  0  0  0  0  0  0  0
   35.8360   31.0110   38.9900 H   0  0  0  0  0  0  0  0  0  0  0  0
   38.1070   32.4030   37.7360 H   0  0  0  0  0  0  0  0  0  0  0  0
   36.5420   33.1570   38.3820 H   0  0  0  0  0  0  0  0  0  0  0  0
   41.3330   34.8090   39.3750 C   0  0  0  0  0  0  0  0  0  0  0  0
   40.4500   33.7390   39.3650 C   0  0  0  0  0  0  0  0  0  0  0  0
   39.1090   33.9330   39.7350 C   0  0  0  0  0  0  0  0  0  0  0  0
   38.7610   35.1920   40.0870 N   0  0  0  0  0  0  0  0  0  0  0  0
   39.6020   36.2350   40.1030 C   0  0  0  0  0  0  0  0  0  0  0  0
   40.9010   36.0300   39.7400 N   0  0  0  0  0  0  0  0  0  0  0  0
   42.3650   34.6450   39.0860 H   0  0  0  0  0  0  0  0  0  0  0  0
   40.7340   32.7300   39.0800 H   0  0  0  0  0  0  0  0  0  0  0  0
   39.2270   37.2010   40.3990 H   0  0  0  0  0  0  0  0  0  0  0  0
   36.8650   27.3460   40.9470 C   0  0  0  0  0  0  0  0  0  0  0  0
   37.1200   28.6020   41.5280 C   0  0  0  0  0  0  0  0  0  0  0  0
   37.7170   28.5040   42.7460 C   0  0  0  0  0  0  0  0  0  0  0  0
   38.0650   27.3450   43.4080 C   0  0  0  0  0  0  0  0  0  0  0  0
   37.7870   26.1450   42.7810 C   0  0  0  0  0  0  0  0  0  0  0  0
   37.1890   26.1740   41.5560 C   0  0  0  0  0  0  0  0  0  0  0  0
   37.9570   29.4330   43.2790 H   0  0  0  0  0  0  0  0  0  0  0  0
   38.5400   27.3610   44.3800 H   0  0  0  0  0  0  0  0  0  0  0  0
   38.0680   25.2470   43.3170 H   0  0  0  0  0  0  0  0  0  0  0  0
   37.9670   24.2600   40.2340 C   0  0  0  0  0  0  0  0  0  0  0  0
   39.0630   24.8560   40.0210 O   0  0  0  0  0  0  0  0  0  0  0  0
   36.9240   24.9050   40.9560 N   0  0  0  0  0  0  0  0  0  0  0  0
   35.9580   24.5920   41.1260 H   0  0  0  0  0  0  0  0  0  0  0  0
   37.5330   22.8780   39.8300 C   0  0  0  0  0  0  0  0  0  0  0  0
   36.2790   22.7060   39.2160 C   0  0  0  0  0  0  0  0  0  0  0  0
   35.5710   23.4890   38.9970 H   0  0  0  0  0  0  0  0  0  0  0  0
   35.8900   21.4680   38.8540 C   0  0  0  0  0  3  0  0  0  0  0  0
   36.7720   20.3240   39.1030 C   0  0  0  0  0  3  0  0  0  0  0  0
   38.2390   21.2050   39.9210 S   0  0  0  0  0  0  0  0  0  0  0  0
   35.7200   27.3880   38.5920 N   0  0  0  0  0  0  0  0  0  0  0  0
   36.2230   27.3620   39.6320 C   0  0  0  0  0  0  0  0  0  0  0  0
  1  2  1  0  0  0  0
  1 25  1  0  0  0  0
  3  4  1  0  0  0  0
  4  9  1  0  0  0  0
  4  8  1  0  0  0  0
  5 10  1  6  0  0  0
  5  4  1  0  0  0  0
  5  1  1  0  0  0  0
  6 12  1  0  0  0  0
  6  5  1  0  0  0  0
  7  6  1  0  0  0  0
  7  3  1  0  0  0  0
 11  6  1  0  0  0  0
 13  7  1  0  0  0  0
 14  7  1  0  0  0  0
 15 20  1  0  0  0  0
 16 15  2  0  0  0  0
 16 17  1  0  0  0  0
 17  3  1  0  0  0  0
 17 18  2  0  0  0  0
 18 19  1  0  0  0  0
 19 23  1  0  0  0  0
 20 19  2  0  0  0  0
 21 15  1  0  0  0  0
 22 16  1  0  0  0  0
 24 25  2  0  0  0  0
 24 29  1  0  0  0  0
 25 26  1  0  0  0  0
 26 30  1  0  0  0  0
 26 27  2  0  0  0  0
 27 31  1  0  0  0  0
 28 32  1  0  0  0  0
 28 27  1  0  0  0  0
 29 28  2  0  0  0  0
 33 35  1  0  0  0  0
 34 33  2  0  0  0  0
 35 36  1  0  0  0  0
 35 29  1  0  0  0  0
 37 42  1  0  0  0  0
 37 33  1  0  0  0  0
 38 37  2  0  0  0  0
 39 38  1  0  0  0  0
 40 41  2  0  0  0  0
 40 38  1  0  0  0  0
 41 42  1  0  0  0  0
 43 44  3  0  0  0  0
 44 24  1  0  0  0  0
M  END
>  <minimizedAffinity>
-5.73797417

$$$$

 OpenBabel03242519123D

 44 47  0  0  1  0  0  0  0  0999 V2000
   38.4740   30.5600   37.7890 N   0  0  0  0  0  0  0  0  0  0  0  0
   38.8510   30.8770   36.8440 H   0  0  0  0  0  0  0  0  0  0  0  0
   38.2920   27.2410   39.0590 N   0  0  0  0  0  0  0  0  0  0  0  0
   38.5100   28.6580   39.3370 C   0  0  0  0  0  0  0  0  0  0  0  0
   38.0390   29.2140   38.0230 C   0  0  2  0  0  0  0  0  0  0  0  0
   38.7580   28.3270   37.0260 C   0  0  0  0  0  0  0  0  0  0  0  0
   38.7890   27.0000   37.7360 C   0  0  0  0  0  0  0  0  0  0  0  0
   37.9280   28.9940   40.2140 H   0  0  0  0  0  0  0  0  0  0  0  0
   39.5890   28.8030   39.4410 H   0  0  0  0  0  0  0  0  0  0  0  0
   36.9500   29.1640   37.9120 H   0  0  0  0  0  0  0  0  0  0  0  0
   38.1460   28.3170   36.1010 H   0  0  0  0  0  0  0  0  0  0  0  0
   39.7630   28.7150   36.7800 H   0  0  0  0  0  0  0  0  0  0  0  0
   38.1020   26.3180   37.1850 H   0  0  0  0  0  0  0  0  0  0  0  0
   39.8390   26.5960   37.7690 H   0  0  0  0  0  0  0  0  0  0  0  0
   37.2120   25.1470   41.9590 C   0  0  0  0  0  0  0  0  0  0  0  0
   37.8240   26.1810   41.2650 C   0  0  0  0  0  0  0  0  0  0  0  0
   37.7170   26.2470   39.8670 C   0  0  0  0  0  0  0  0  0  0  0  0
   37.0010   25.2640   39.2730 N   0  0  0  0  0  0  0  0  0  0  0  0
   36.4040   24.2590   39.9290 C   0  0  0  0  0  0  0  0  0  0  0  0
   36.5170   24.2100   41.2870 N   0  0  0  0  0  0  0  0  0  0  0  0
   37.3020   25.1080   43.0380 H   0  0  0  0  0  0  0  0  0  0  0  0
   38.3980   26.9670   41.7460 H   0  0  0  0  0  0  0  0  0  0  0  0
   35.8550   23.5240   39.3640 H   0  0  0  0  0  0  0  0  0  0  0  0
   39.6590   32.1150   39.3430 C   0  0  0  0  0  0  0  0  0  0  0  0
   38.5210   31.6900   38.6310 C   0  0  0  0  0  0  0  0  0  0  0  0
   37.4440   32.4940   38.8370 C   0  0  0  0  0  0  0  0  0  0  0  0
   37.3890   33.6170   39.6370 C   0  0  0  0  0  0  0  0  0  0  0  0
   38.5410   33.9790   40.3080 C   0  0  0  0  0  0  0  0  0  0  0  0
   39.6580   33.2130   40.1440 C   0  0  0  0  0  0  0  0  0  0  0  0
   36.5070   32.2440   38.3240 H   0  0  0  0  0  0  0  0  0  0  0  0
   36.4830   34.2000   39.7430 H   0  0  0  0  0  0  0  0  0  0  0  0
   38.4770   34.8630   40.9310 H   0  0  0  0  0  0  0  0  0  0  0  0
   41.6550   34.6310   40.2850 C   0  0  0  0  0  0  0  0  0  0  0  0
   41.4430   35.0420   39.1060 O   0  0  0  0  0  0  0  0  0  0  0  0
   40.8190   33.6340   40.8610 N   0  0  0  0  0  0  0  0  0  0  0  0
   40.9190   33.1380   41.7590 H   0  0  0  0  0  0  0  0  0  0  0  0
   42.7170   35.0410   41.2660 C   0  0  0  0  0  0  0  0  0  0  0  0
   42.4240   36.0330   42.2190 C   0  0  0  0  0  0  0  0  0  0  0  0
   41.4820   36.5490   42.3240 H   0  0  0  0  0  0  0  0  0  0  0  0
   43.3760   36.4000   43.0990 C   0  0  0  0  0  3  0  0  0  0  0  0
   44.6960   35.7660   43.0510 C   0  0  0  0  0  3  0  0  0  0  0  0
   44.4420   34.5710   41.6000 S   0  0  0  0  0  0  0  0  0  0  0  0
   41.8140   30.6550   39.0560 N   0  0  0  0  0  0  0  0  0  0  0  0
   40.8640   31.3010   39.1750 C   0  0  0  0  0  0  0  0  0  0  0  0
  1  5  1  0  0  0  0
  1 25  1  0  0  0  0
  2  1  1  0  0  0  0
  3  4  1  0  0  0  0
  3 17  1  0  0  0  0
  4  9  1  0  0  0  0
  4  8  1  0  0  0  0
  5 10  1  6  0  0  0
  5  4  1  0  0  0  0
  6  7  1  0  0  0  0
  6  5  1  0  0  0  0
  7 14  1  0  0  0  0
  7  3  1  0  0  0  0
 11  6  1  0  0  0  0
 12  6  1  0  0  0  0
 13  7  1  0  0  0  0
 15 21  1  0  0  0  0
 16 22  1  0  0  0  0
 16 15  2  0  0  0  0
 17 16  1  0  0  0  0
 18 17  2  0  0  0  0
 18 19  1  0  0  0  0
 19 20  2  0  0  0  0
 20 15  1  0  0  0  0
 23 19  1  0  0  0  0
 24 29  1  0  0  0  0
 25 26  1  0  0  0  0
 25 24  2  0  0  0  0
 26 27  2  0  0  0  0
 27 31  1  0  0  0  0
 27 28  1  0  0  0  0
 28 32  1  0  0  0  0
 29 28  2  0  0  0  0
 29 35  1  0  0  0  0
 30 26  1  0  0  0  0
 33 35  1  0  0  0  0
 33 37  1  0  0  0  0
 34 33  2  0  0  0  0
 35 36  1  0  0  0  0
 37 42  1  0  0  0  0
 37 38  2  0  0  0  0
 38 39  1  0  0  0  0
 38 40  1  0  0  0  0
 41 40  2  0  0  0  0
 42 41  1  0  0  0  0
 43 44  3  0  0  0  0
 44 24  1  0  0  0  0
M  END
>  <minimizedAffinity>
-5.67029285

$$$$

 OpenBabel03242519123D

 44 47  0  0  1  0  0  0  0  0999 V2000
   37.1600   30.5800   41.0730 N   0  0  0  0  0  0  0  0  0  0  0  0
   36.1360   30.8300   41.2330 H   0  0  0  0  0  0  0  0  0  0  0  0
   39.6520   33.0100   40.3320 N   0  0  0  0  0  0  0  0  0  0  0  0
   39.2400   31.8760   41.1570 C   0  0  0  0  0  0  0  0  0  0  0  0
   38.0510   31.4390   40.3490 C   0  0  2  0  0  0  0  0  0  0  0  0
   37.3240   32.7490   40.1180 C   0  0  0  0  0  0  0  0  0  0  0  0
   38.4590   33.7320   40.0010 C   0  0  0  0  0  0  0  0  0  0  0  0
   40.0420   31.1210   41.2400 H   0  0  0  0  0  0  0  0  0  0  0  0
   38.9120   32.2800   42.1190 H   0  0  0  0  0  0  0  0  0  0  0  0
   38.3360   30.9520   39.4100 H   0  0  0  0  0  0  0  0  0  0  0  0
   36.7440   32.6360   39.1800 H   0  0  0  0  0  0  0  0  0  0  0  0
   36.6250   32.9840   40.9400 H   0  0  0  0  0  0  0  0  0  0  0  0
   38.4940   34.0670   38.9400 H   0  0  0  0  0  0  0  0  0  0  0  0
   38.3040   34.5960   40.7060 H   0  0  0  0  0  0  0  0  0  0  0  0
   43.3020   33.7940   40.1730 C   0  0  0  0  0  0  0  0  0  0  0  0
   42.0850   33.3990   40.7090 C   0  0  0  0  0  0  0  0  0  0  0  0
   40.9340   33.3870   39.9030 C   0  0  0  0  0  0  0  0  0  0  0  0
   41.0980   33.7730   38.6170 N   0  0  0  0  0  0  0  0  0  0  0  0
   42.2670   34.1570   38.0840 C   0  0  0  0  0  0  0  0  0  0  0  0
   43.3750   34.1630   38.8800 N   0  0  0  0  0  0  0  0  0  0  0  0
   44.1810   33.7980   40.8050 H   0  0  0  0  0  0  0  0  0  0  0  0
   41.9570   33.0900   41.7420 H   0  0  0  0  0  0  0  0  0  0  0  0
   42.2950   34.4470   37.0470 H   0  0  0  0  0  0  0  0  0  0  0  0
   37.4380   28.0990   41.0160 C   0  0  0  0  0  0  0  0  0  0  0  0
   37.3610   29.3310   41.6950 C   0  0  0  0  0  0  0  0  0  0  0  0
   37.5060   29.1970   43.0410 C   0  0  0  0  0  0  0  0  0  0  0  0
   37.7070   28.0250   43.7400 C   0  0  0  0  0  0  0  0  0  0  0  0
   37.7730   26.8510   43.0140 C   0  0  0  0  0  0  0  0  0  0  0  0
   37.6350   26.9170   41.6580 C   0  0  0  0  0  0  0  0  0  0  0  0
   37.4610   30.1040   43.6570 H   0  0  0  0  0  0  0  0  0  0  0  0
   37.8110   28.0120   44.8170 H   0  0  0  0  0  0  0  0  0  0  0  0
   37.9310   25.9430   43.5810 H   0  0  0  0  0  0  0  0  0  0  0  0
   38.9890   25.1870   40.5670 C   0  0  0  0  0  0  0  0  0  0  0  0
   40.0230   25.9010   40.7220 O   0  0  0  0  0  0  0  0  0  0  0  0
   37.7110   25.6740   40.9580 N   0  0  0  0  0  0  0  0  0  0  0  0
   36.7810   25.2560   40.8130 H   0  0  0  0  0  0  0  0  0  0  0  0
   38.8580   23.8020   39.9970 C   0  0  0  0  0  0  0  0  0  0  0  0
   38.0050   22.8790   40.6280 C   0  0  0  0  0  0  0  0  0  0  0  0
   37.4130   23.0670   41.5100 H   0  0  0  0  0  0  0  0  0  0  0  0
   37.8870   21.6370   40.1170 C   0  0  0  0  0  3  0  0  0  0  0  0
   38.6460   21.2670   38.9200 C   0  0  0  0  0  3  0  0  0  0  0  0
   39.5610   22.8950   38.5860 S   0  0  0  0  0  0  0  0  0  0  0  0
   37.1810   28.1860   38.4120 N   0  0  0  0  0  0  0  0  0  0  0  0
   37.2920   28.1550   39.5610 C   0  0  0  0  0  0  0  0  0  0  0  0
  1  2  1  0  0  0  0
  1 25  1  0  0  0  0
  3  4  1  0  0  0  0
  4  8  1  0  0  0  0
  4  9  1  0  0  0  0
  5 10  1  6  0  0  0
  5  1  1  0  0  0  0
  5  4  1  0  0  0  0
  6  5  1  0  0  0  0
  6 12  1  0  0  0  0
  7  6  1  0  0  0  0
  7  3  1  0  0  0  0
  7 14  1  0  0  0  0
 11  6  1  0  0  0  0
 13  7  1  0  0  0  0
 15 16  1  0  0  0  0
 15 21  1  0  0  0  0
 16 22  1  0  0  0  0
 17  3  1  0  0  0  0
 17 16  2  0  0  0  0
 18 17  1  0  0  0  0
 19 18  2  0  0  0  0
 19 20  1  0  0  0  0
 20 15  2  0  0  0  0
 23 19  1  0  0  0  0
 24 29  2  0  0  0  0
 24 25  1  0  0  0  0
 25 26  2  0  0  0  0
 26 30  1  0  0  0  0
 26 27  1  0  0  0  0
 27 31  1  0  0  0  0
 28 32  1  0  0  0  0
 28 27  2  0  0  0  0
 29 28  1  0  0  0  0
 33 34  2  0  0  0  0
 33 35  1  0  0  0  0
 35 29  1  0  0  0  0
 36 35  1  0  0  0  0
 37 33  1  0  0  0  0
 37 38  2  0  0  0  0
 38 39  1  0  0  0  0
 40 38  1  0  0  0  0
 41 40  2  0  0  0  0
 42 41  1  0  0  0  0
 42 37  1  0  0  0  0
 43 44  3  0  0  0  0
 44 24  1  0  0  0  0
M  END
>  <minimizedAffinity>
-5.61043835

$$$$
