
 OpenBabel03252508493D

 25 27  0  0  0  0  0  0  0  0999 V2000
   45.9360   34.2350   41.0330 C   0  0  0  0  0  0  0  0  0  0  0  0
   46.5380   34.8150   42.1490 C   0  0  0  0  0  0  0  0  0  0  0  0
   47.8900   35.1250   42.0370 C   0  0  0  0  0  0  0  0  0  0  0  0
   48.5320   34.8480   40.8580 N   0  0  0  0  0  0  0  0  0  0  0  0
   47.9180   34.2930   39.8190 C   0  0  0  0  0  0  0  0  0  0  0  0
   46.6050   33.9810   39.8980 N   0  0  0  0  0  0  0  0  0  0  0  0
   48.3820   35.5780   42.8940 H   0  0  0  0  0  0  0  0  0  0  0  0
   48.4370   34.0800   38.8940 H   0  0  0  0  0  0  0  0  0  0  0  0
   45.7550   35.0600   43.3460 C   0  0  0  0  0  0  0  0  0  0  0  0
   45.1120   36.2670   43.5880 C   0  0  0  0  0  0  0  0  0  0  0  0
   44.5050   36.0460   44.8180 C   0  0  0  0  0  0  0  0  0  0  0  0
   44.7660   34.7930   45.2800 N   0  0  0  0  0  0  0  0  0  0  0  0
   45.5210   34.2210   44.3720 N   0  0  0  0  0  0  0  0  0  0  0  0
   45.0640   37.1770   43.0080 H   0  0  0  0  0  0  0  0  0  0  0  0
   43.8960   36.7730   45.3550 H   0  0  0  0  0  0  0  0  0  0  0  0
   44.4230   34.3860   46.1780 H   0  0  0  0  0  0  0  0  0  0  0  0
   44.5970   33.9130   41.1060 O   0  0  0  0  0  0  0  0  0  0  0  0
   43.5440   34.6280   40.6130 C   0  0  0  0  0  0  0  0  0  0  0  0
   43.2480   35.8500   40.8540 O   0  0  0  0  0  0  0  0  0  0  0  0
   42.5060   34.0480   39.6530 C   0  0  0  0  0  0  0  0  0  0  0  0
   41.5470   34.6600   38.9520 C   0  0  0  0  0  0  0  0  0  0  0  0
   41.4740   35.7330   39.0670 H   0  0  0  0  0  0  0  0  0  0  0  0
   40.7200   33.9520   38.1430 C   0  0  0  0  0  3  0  0  0  0  0  0
   40.9650   32.5370   38.1130 C   0  0  0  0  0  3  0  0  0  0  0  0
   42.4180   32.3590   39.2990 S   0  0  0  0  0  0  0  0  0  0  0  0
  1 17  1  0  0  0  0
  1  2  1  0  0  0  0
  2  9  1  0  0  0  0
  3  2  2  0  0  0  0
  3  7  1  0  0  0  0
  4  3  1  0  0  0  0
  5  6  1  0  0  0  0
  5  4  2  0  0  0  0
  6  1  2  0  0  0  0
  8  5  1  0  0  0  0
  9 10  1  0  0  0  0
  9 13  2  0  0  0  0
 10 11  2  0  0  0  0
 11 12  1  0  0  0  0
 11 15  1  0  0  0  0
 12 16  1  0  0  0  0
 13 12  1  0  0  0  0
 14 10  1  0  0  0  0
 18 19  2  0  0  0  0
 18 17  1  0  0  0  0
 20 18  1  0  0  0  0
 21 22  1  0  0  0  0
 21 20  2  0  0  0  0
 23 21  1  0  0  0  0
 24 23  2  0  0  0  0
 24 25  1  0  0  0  0
 25 20  1  0  0  0  0
M  END
>  <minimizedAffinity>
-5.17304087

>  <minimizedRMSD>
0.603691518

$$$$
