
 OpenBabel03252508493D

 25 27  0  0  0  0  0  0  0  0999 V2000
   45.9810   34.1860   41.0460 C   0  0  0  0  0  0  0  0  0  0  0  0
   46.5600   34.8200   42.1450 C   0  0  0  0  0  0  0  0  0  0  0  0
   47.8940   35.1930   42.0190 C   0  0  0  0  0  0  0  0  0  0  0  0
   48.5430   34.9210   40.8420 N   0  0  0  0  0  0  0  0  0  0  0  0
   47.9520   34.3130   39.8200 C   0  0  0  0  0  0  0  0  0  0  0  0
   46.6570   33.9390   39.9140 N   0  0  0  0  0  0  0  0  0  0  0  0
   48.3670   35.6890   42.8620 H   0  0  0  0  0  0  0  0  0  0  0  0
   48.4770   34.1050   38.8970 H   0  0  0  0  0  0  0  0  0  0  0  0
   45.7720   35.0540   43.3410 C   0  0  0  0  0  0  0  0  0  0  0  0
   45.0700   36.2320   43.5590 C   0  0  0  0  0  0  0  0  0  0  0  0
   44.4810   36.0100   44.7980 C   0  0  0  0  0  0  0  0  0  0  0  0
   44.8070   34.7830   45.2870 N   0  0  0  0  0  0  0  0  0  0  0  0
   45.5850   34.2280   44.3880 N   0  0  0  0  0  0  0  0  0  0  0  0
   44.9730   37.1250   42.9580 H   0  0  0  0  0  0  0  0  0  0  0  0
   43.8390   36.7180   45.3220 H   0  0  0  0  0  0  0  0  0  0  0  0
   44.4890   34.3820   46.1970 H   0  0  0  0  0  0  0  0  0  0  0  0
   44.6610   33.8000   41.1350 O   0  0  0  0  0  0  0  0  0  0  0  0
   43.5740   34.4330   40.6030 C   0  0  0  0  0  0  0  0  0  0  0  0
   43.3230   35.6880   40.6030 O   0  0  0  0  0  0  0  0  0  0  0  0
   42.4360   33.7020   39.8920 C   0  0  0  0  0  0  0  0  0  0  0  0
   41.9890   33.8210   38.6380 C   0  0  0  0  0  0  0  0  0  0  0  0
   42.4940   34.5420   38.0120 H   0  0  0  0  0  0  0  0  0  0  0  0
   40.9520   33.0660   38.1980 C   0  0  0  0  0  3  0  0  0  0  0  0
   40.4040   32.1610   39.1690 C   0  0  0  0  0  3  0  0  0  0  0  0
   41.4760   32.5000   40.6810 S   0  0  0  0  0  0  0  0  0  0  0  0
  1 17  1  0  0  0  0
  1  2  1  0  0  0  0
  2  9  1  0  0  0  0
  3  2  2  0  0  0  0
  3  7  1  0  0  0  0
  4  3  1  0  0  0  0
  5  6  1  0  0  0  0
  5  4  2  0  0  0  0
  6  1  2  0  0  0  0
  8  5  1  0  0  0  0
  9 10  1  0  0  0  0
  9 13  2  0  0  0  0
 10 11  2  0  0  0  0
 11 12  1  0  0  0  0
 11 15  1  0  0  0  0
 12 16  1  0  0  0  0
 13 12  1  0  0  0  0
 14 10  1  0  0  0  0
 18 17  1  0  0  0  0
 19 18  2  0  0  0  0
 20 18  1  0  0  0  0
 20 25  1  0  0  0  0
 21 20  2  0  0  0  0
 22 21  1  0  0  0  0
 23 21  1  0  0  0  0
 23 24  2  0  0  0  0
 24 25  1  0  0  0  0
M  END
>  <minimizedAffinity>
-5.07430696

>  <minimizedRMSD>
0.480706871

$$$$
