
 OpenBabel03252508523D

 25 27  0  0  0  0  0  0  0  0999 V2000
   39.6220   31.6040   41.1730 C   0  0  0  0  0  0  0  0  0  0  0  0
   38.6850   31.6040   40.1400 C   0  0  0  0  0  0  0  0  0  0  0  0
   39.0220   32.3180   38.9940 C   0  0  0  0  0  0  0  0  0  0  0  0
   40.2310   32.9620   38.9530 N   0  0  0  0  0  0  0  0  0  0  0  0
   41.0940   32.9350   39.9630 C   0  0  0  0  0  0  0  0  0  0  0  0
   40.7940   32.2510   41.0890 N   0  0  0  0  0  0  0  0  0  0  0  0
   38.3080   32.3340   38.1740 H   0  0  0  0  0  0  0  0  0  0  0  0
   42.0450   33.4490   39.9160 H   0  0  0  0  0  0  0  0  0  0  0  0
   37.4340   30.8860   40.2980 C   0  0  0  0  0  0  0  0  0  0  0  0
   37.1460   29.7190   39.6030 C   0  0  0  0  0  0  0  0  0  0  0  0
   35.8750   29.3960   40.0640 C   0  0  0  0  0  0  0  0  0  0  0  0
   35.4340   30.3080   40.9730 N   0  0  0  0  0  0  0  0  0  0  0  0
   36.3940   31.1930   41.0960 N   0  0  0  0  0  0  0  0  0  0  0  0
   37.7210   29.1610   38.8780 H   0  0  0  0  0  0  0  0  0  0  0  0
   35.2950   28.5300   39.7470 H   0  0  0  0  0  0  0  0  0  0  0  0
   34.5130   30.2870   41.4650 H   0  0  0  0  0  0  0  0  0  0  0  0
   39.3230   30.9080   42.3250 O   0  0  0  0  0  0  0  0  0  0  0  0
   39.6250   29.6070   42.6100 C   0  0  0  0  0  0  0  0  0  0  0  0
   40.7810   29.1030   42.8280 O   0  0  0  0  0  0  0  0  0  0  0  0
   38.5750   28.5010   42.7160 C   0  0  0  0  0  0  0  0  0  0  0  0
   37.4440   28.4560   43.4260 C   0  0  0  0  0  0  0  0  0  0  0  0
   37.2160   29.3250   44.0280 H   0  0  0  0  0  0  0  0  0  0  0  0
   36.6390   27.3650   43.3790 C   0  0  0  0  0  3  0  0  0  0  0  0
   37.1000   26.3060   42.5260 C   0  0  0  0  0  3  0  0  0  0  0  0
   38.7120   27.0120   41.8490 S   0  0  0  0  0  0  0  0  0  0  0  0
  1 17  1  0  0  0  0
  2  9  1  0  0  0  0
  2  1  2  0  0  0  0
  3  2  1  0  0  0  0
  4  3  2  0  0  0  0
  4  5  1  0  0  0  0
  5  6  2  0  0  0  0
  6  1  1  0  0  0  0
  7  3  1  0  0  0  0
  8  5  1  0  0  0  0
  9 13  2  0  0  0  0
 10 11  2  0  0  0  0
 10  9  1  0  0  0  0
 11 12  1  0  0  0  0
 12 13  1  0  0  0  0
 12 16  1  0  0  0  0
 14 10  1  0  0  0  0
 15 11  1  0  0  0  0
 17 18  1  0  0  0  0
 18 20  1  0  0  0  0
 18 19  2  0  0  0  0
 20 21  2  0  0  0  0
 21 22  1  0  0  0  0
 23 21  1  0  0  0  0
 24 23  2  0  0  0  0
 25 24  1  0  0  0  0
 25 20  1  0  0  0  0
M  END
>  <minimizedAffinity>
-4.92805338

$$$$

 OpenBabel03252508523D

 25 27  0  0  0  0  0  0  0  0999 V2000
   36.5250   29.1330   38.5630 C   0  0  0  0  0  0  0  0  0  0  0  0
   35.7210   28.9990   39.6950 C   0  0  0  0  0  0  0  0  0  0  0  0
   34.3490   28.9070   39.4780 C   0  0  0  0  0  0  0  0  0  0  0  0
   33.8840   28.9500   38.1890 N   0  0  0  0  0  0  0  0  0  0  0  0
   34.6880   29.0790   37.1390 C   0  0  0  0  0  0  0  0  0  0  0  0
   36.0240   29.1710   37.3190 N   0  0  0  0  0  0  0  0  0  0  0  0
   33.7010   28.8020   40.3440 H   0  0  0  0  0  0  0  0  0  0  0  0
   34.3070   29.1110   36.1270 H   0  0  0  0  0  0  0  0  0  0  0  0
   36.3280   28.9670   41.0130 C   0  0  0  0  0  0  0  0  0  0  0  0
   36.5900   27.7830   41.6890 C   0  0  0  0  0  0  0  0  0  0  0  0
   37.1580   28.2310   42.8760 C   0  0  0  0  0  0  0  0  0  0  0  0
   37.2310   29.5900   42.9070 N   0  0  0  0  0  0  0  0  0  0  0  0
   36.7240   30.0070   41.7700 N   0  0  0  0  0  0  0  0  0  0  0  0
   36.4180   26.7520   41.4150 H   0  0  0  0  0  0  0  0  0  0  0  0
   37.5040   27.5900   43.6860 H   0  0  0  0  0  0  0  0  0  0  0  0
   37.6180   30.1660   43.6870 H   0  0  0  0  0  0  0  0  0  0  0  0
   37.8890   29.2280   38.7390 O   0  0  0  0  0  0  0  0  0  0  0  0
   38.6870   30.3030   38.4700 C   0  0  0  0  0  0  0  0  0  0  0  0
   39.7250   30.3380   37.7240 O   0  0  0  0  0  0  0  0  0  0  0  0
   38.4480   31.6970   39.0510 C   0  0  0  0  0  0  0  0  0  0  0  0
   37.3800   32.4930   38.9600 C   0  0  0  0  0  0  0  0  0  0  0  0
   36.5420   32.1160   38.3900 H   0  0  0  0  0  0  0  0  0  0  0  0
   37.3690   33.7100   39.5590 C   0  0  0  0  0  3  0  0  0  0  0  0
   38.5690   34.0460   40.2730 C   0  0  0  0  0  3  0  0  0  0  0  0
   39.6370   32.5170   40.0000 S   0  0  0  0  0  0  0  0  0  0  0  0
  1 17  1  0  0  0  0
  1  2  1  0  0  0  0
  2  9  1  0  0  0  0
  3  2  2  0  0  0  0
  3  7  1  0  0  0  0
  4  3  1  0  0  0  0
  5  6  1  0  0  0  0
  5  4  2  0  0  0  0
  6  1  2  0  0  0  0
  8  5  1  0  0  0  0
  9 10  1  0  0  0  0
  9 13  2  0  0  0  0
 10 11  2  0  0  0  0
 11 12  1  0  0  0  0
 11 15  1  0  0  0  0
 12 16  1  0  0  0  0
 13 12  1  0  0  0  0
 14 10  1  0  0  0  0
 18 17  1  0  0  0  0
 18 20  1  0  0  0  0
 19 18  2  0  0  0  0
 20 25  1  0  0  0  0
 21 20  2  0  0  0  0
 21 23  1  0  0  0  0
 22 21  1  0  0  0  0
 23 24  2  0  0  0  0
 25 24  1  0  0  0  0
M  END
>  <minimizedAffinity>
-4.69736147

$$$$

 OpenBabel03252508523D

 25 27  0  0  0  0  0  0  0  0999 V2000
   36.5310   30.1420   39.2070 C   0  0  0  0  0  0  0  0  0  0  0  0
   37.1790   30.5670   38.0480 C   0  0  0  0  0  0  0  0  0  0  0  0
   37.7280   31.8460   38.0740 C   0  0  0  0  0  0  0  0  0  0  0  0
   37.6010   32.5920   39.2170 N   0  0  0  0  0  0  0  0  0  0  0  0
   36.9740   32.1450   40.3000 C   0  0  0  0  0  0  0  0  0  0  0  0
   36.4300   30.9080   40.3030 N   0  0  0  0  0  0  0  0  0  0  0  0
   38.2390   32.2000   37.1820 H   0  0  0  0  0  0  0  0  0  0  0  0
   36.8810   32.7460   41.1950 H   0  0  0  0  0  0  0  0  0  0  0  0
   37.2490   29.6880   36.8950 C   0  0  0  0  0  0  0  0  0  0  0  0
   36.3220   29.7300   35.8620 C   0  0  0  0  0  0  0  0  0  0  0  0
   36.7790   28.7370   35.0040 C   0  0  0  0  0  0  0  0  0  0  0  0
   37.9020   28.1420   35.4900 N   0  0  0  0  0  0  0  0  0  0  0  0
   38.1630   28.7360   36.6310 N   0  0  0  0  0  0  0  0  0  0  0  0
   35.4500   30.3510   35.7120 H   0  0  0  0  0  0  0  0  0  0  0  0
   36.3080   28.4590   34.0610 H   0  0  0  0  0  0  0  0  0  0  0  0
   38.4350   27.3710   35.0310 H   0  0  0  0  0  0  0  0  0  0  0  0
   35.9730   28.8810   39.2180 O   0  0  0  0  0  0  0  0  0  0  0  0
   36.4760   27.7570   39.8090 C   0  0  0  0  0  0  0  0  0  0  0  0
   36.5260   26.5750   39.3230 O   0  0  0  0  0  0  0  0  0  0  0  0
   37.0830   27.7410   41.2110 C   0  0  0  0  0  0  0  0  0  0  0  0
   36.4860   27.7460   42.4060 C   0  0  0  0  0  0  0  0  0  0  0  0
   35.4050   27.7660   42.4060 H   0  0  0  0  0  0  0  0  0  0  0  0
   37.2190   27.7270   43.5470 C   0  0  0  0  0  3  0  0  0  0  0  0
   38.6420   27.7020   43.3560 C   0  0  0  0  0  3  0  0  0  0  0  0
   38.7910   27.7080   41.4770 S   0  0  0  0  0  0  0  0  0  0  0  0
  1 17  1  0  0  0  0
  1  6  1  0  0  0  0
  2  3  1  0  0  0  0
  2  1  2  0  0  0  0
  3  4  2  0  0  0  0
  4  5  1  0  0  0  0
  5  6  2  0  0  0  0
  5  8  1  0  0  0  0
  7  3  1  0  0  0  0
  9  2  1  0  0  0  0
 10  9  1  0  0  0  0
 11 12  1  0  0  0  0
 11 10  2  0  0  0  0
 12 13  1  0  0  0  0
 13  9  2  0  0  0  0
 14 10  1  0  0  0  0
 15 11  1  0  0  0  0
 16 12  1  0  0  0  0
 17 18  1  0  0  0  0
 18 20  1  0  0  0  0
 19 18  2  0  0  0  0
 20 25  1  0  0  0  0
 20 21  2  0  0  0  0
 21 22  1  0  0  0  0
 21 23  1  0  0  0  0
 24 23  2  0  0  0  0
 25 24  1  0  0  0  0
M  END
>  <minimizedAffinity>
-4.69699574

$$$$

 OpenBabel03252508523D

 25 27  0  0  0  0  0  0  0  0999 V2000
   38.1000   29.7350   38.7580 C   0  0  0  0  0  0  0  0  0  0  0  0
   38.8610   30.8860   38.5550 C   0  0  0  0  0  0  0  0  0  0  0  0
   40.0900   30.7180   37.9240 C   0  0  0  0  0  0  0  0  0  0  0  0
   40.4680   29.4550   37.5480 N   0  0  0  0  0  0  0  0  0  0  0  0
   39.7100   28.3850   37.7630 C   0  0  0  0  0  0  0  0  0  0  0  0
   38.5110   28.5180   38.3730 N   0  0  0  0  0  0  0  0  0  0  0  0
   40.7010   31.6000   37.7550 H   0  0  0  0  0  0  0  0  0  0  0  0
   40.0210   27.3940   37.4610 H   0  0  0  0  0  0  0  0  0  0  0  0
   38.3570   32.1730   38.9980 C   0  0  0  0  0  0  0  0  0  0  0  0
   39.0010   32.9400   39.9600 C   0  0  0  0  0  0  0  0  0  0  0  0
   38.1790   34.0560   40.0590 C   0  0  0  0  0  0  0  0  0  0  0  0
   37.1160   33.9630   39.2150 N   0  0  0  0  0  0  0  0  0  0  0  0
   37.2500   32.8180   38.5870 N   0  0  0  0  0  0  0  0  0  0  0  0
   39.9080   32.7650   40.5210 H   0  0  0  0  0  0  0  0  0  0  0  0
   38.3510   34.9030   40.7230 H   0  0  0  0  0  0  0  0  0  0  0  0
   36.3580   34.6720   39.1020 H   0  0  0  0  0  0  0  0  0  0  0  0
   36.8760   29.8630   39.3800 O   0  0  0  0  0  0  0  0  0  0  0  0
   36.6350   29.9860   40.7180 C   0  0  0  0  0  0  0  0  0  0  0  0
   36.0070   30.9270   41.3150 O   0  0  0  0  0  0  0  0  0  0  0  0
   37.1030   28.9670   41.7570 C   0  0  0  0  0  0  0  0  0  0  0  0
   36.6150   27.7610   42.0580 C   0  0  0  0  0  0  0  0  0  0  0  0
   35.7530   27.4330   41.4930 H   0  0  0  0  0  0  0  0  0  0  0  0
   37.1860   27.0040   43.0270 C   0  0  0  0  0  3  0  0  0  0  0  0
   38.3230   27.5990   43.6730 C   0  0  0  0  0  3  0  0  0  0  0  0
   38.4610   29.2570   42.7860 S   0  0  0  0  0  0  0  0  0  0  0  0
  1 17  1  0  0  0  0
  2  1  1  0  0  0  0
  2  9  1  0  0  0  0
  3  2  2  0  0  0  0
  4  5  2  0  0  0  0
  4  3  1  0  0  0  0
  5  6  1  0  0  0  0
  6  1  2  0  0  0  0
  7  3  1  0  0  0  0
  8  5  1  0  0  0  0
  9 10  1  0  0  0  0
 10 11  2  0  0  0  0
 10 14  1  0  0  0  0
 11 15  1  0  0  0  0
 12 11  1  0  0  0  0
 13  9  2  0  0  0  0
 13 12  1  0  0  0  0
 16 12  1  0  0  0  0
 17 18  1  0  0  0  0
 18 19  2  0  0  0  0
 18 20  1  0  0  0  0
 20 21  2  0  0  0  0
 20 25  1  0  0  0  0
 21 23  1  0  0  0  0
 22 21  1  0  0  0  0
 23 24  2  0  0  0  0
 25 24  1  0  0  0  0
M  END
>  <minimizedAffinity>
-4.68227768

$$$$

 OpenBabel03252508523D

 25 27  0  0  0  0  0  0  0  0999 V2000
   39.4930   28.1220   41.2790 C   0  0  0  0  0  0  0  0  0  0  0  0
   38.3330   28.1440   42.0530 C   0  0  0  0  0  0  0  0  0  0  0  0
   38.4020   27.5260   43.2970 C   0  0  0  0  0  0  0  0  0  0  0  0
   39.5850   26.9470   43.6780 N   0  0  0  0  0  0  0  0  0  0  0  0
   40.6660   26.9490   42.9070 C   0  0  0  0  0  0  0  0  0  0  0  0
   40.6290   27.5410   41.6930 N   0  0  0  0  0  0  0  0  0  0  0  0
   37.5110   27.5300   43.9190 H   0  0  0  0  0  0  0  0  0  0  0  0
   41.5930   26.4870   43.2210 H   0  0  0  0  0  0  0  0  0  0  0  0
   37.1370   28.7880   41.5420 C   0  0  0  0  0  0  0  0  0  0  0  0
   36.2650   28.1610   40.6620 C   0  0  0  0  0  0  0  0  0  0  0  0
   35.2920   29.1320   40.4550 C   0  0  0  0  0  0  0  0  0  0  0  0
   35.5630   30.2620   41.1640 N   0  0  0  0  0  0  0  0  0  0  0  0
   36.6810   30.0260   41.8100 N   0  0  0  0  0  0  0  0  0  0  0  0
   36.2870   27.1760   40.2180 H   0  0  0  0  0  0  0  0  0  0  0  0
   34.4200   29.0170   39.8120 H   0  0  0  0  0  0  0  0  0  0  0  0
   34.9850   31.1300   41.1780 H   0  0  0  0  0  0  0  0  0  0  0  0
   39.4630   28.7240   40.0390 O   0  0  0  0  0  0  0  0  0  0  0  0
   39.9130   29.9700   39.7110 C   0  0  0  0  0  0  0  0  0  0  0  0
   41.1160   30.3250   39.4570 O   0  0  0  0  0  0  0  0  0  0  0  0
   39.0020   31.1920   39.5920 C   0  0  0  0  0  0  0  0  0  0  0  0
   38.0100   31.4430   38.7340 C   0  0  0  0  0  0  0  0  0  0  0  0
   37.8010   30.6780   37.9990 H   0  0  0  0  0  0  0  0  0  0  0  0
   37.3140   32.6050   38.8010 C   0  0  0  0  0  3  0  0  0  0  0  0
   37.7280   33.5040   39.8420 C   0  0  0  0  0  3  0  0  0  0  0  0
   39.1370   32.5490   40.6540 S   0  0  0  0  0  0  0  0  0  0  0  0
  1  6  2  0  0  0  0
  1  2  1  0  0  0  0
  2  3  2  0  0  0  0
  3  4  1  0  0  0  0
  3  7  1  0  0  0  0
  5  8  1  0  0  0  0
  5  4  2  0  0  0  0
  6  5  1  0  0  0  0
  9 13  2  0  0  0  0
  9  2  1  0  0  0  0
 10  9  1  0  0  0  0
 11 10  2  0  0  0  0
 11 12  1  0  0  0  0
 12 16  1  0  0  0  0
 12 13  1  0  0  0  0
 14 10  1  0  0  0  0
 15 11  1  0  0  0  0
 17  1  1  0  0  0  0
 18 17  1  0  0  0  0
 19 18  2  0  0  0  0
 20 18  1  0  0  0  0
 20 25  1  0  0  0  0
 21 23  1  0  0  0  0
 21 20  2  0  0  0  0
 22 21  1  0  0  0  0
 23 24  2  0  0  0  0
 24 25  1  0  0  0  0
M  END
>  <minimizedAffinity>
-4.6779995

$$$$

 OpenBabel03252508523D

 25 27  0  0  0  0  0  0  0  0999 V2000
   36.8660   26.0690   40.2900 C   0  0  0  0  0  0  0  0  0  0  0  0
   37.3950   26.0220   41.5800 C   0  0  0  0  0  0  0  0  0  0  0  0
   37.8130   24.7760   42.0370 C   0  0  0  0  0  0  0  0  0  0  0  0
   37.6840   23.6940   41.2050 N   0  0  0  0  0  0  0  0  0  0  0  0
   37.1730   23.7850   39.9820 C   0  0  0  0  0  0  0  0  0  0  0  0
   36.7570   24.9820   39.5110 N   0  0  0  0  0  0  0  0  0  0  0  0
   38.2290   24.7140   43.0380 H   0  0  0  0  0  0  0  0  0  0  0  0
   37.0770   22.9230   39.3370 H   0  0  0  0  0  0  0  0  0  0  0  0
   37.4810   27.2360   42.3690 C   0  0  0  0  0  0  0  0  0  0  0  0
   38.6450   27.9860   42.4680 C   0  0  0  0  0  0  0  0  0  0  0  0
   38.2650   29.0290   43.3040 C   0  0  0  0  0  0  0  0  0  0  0  0
   36.9620   28.9110   43.6790 N   0  0  0  0  0  0  0  0  0  0  0  0
   36.5140   27.8220   43.1000 N   0  0  0  0  0  0  0  0  0  0  0  0
   39.6240   27.8440   42.0320 H   0  0  0  0  0  0  0  0  0  0  0  0
   38.9150   29.8430   43.6270 H   0  0  0  0  0  0  0  0  0  0  0  0
   36.4410   29.5680   44.3020 H   0  0  0  0  0  0  0  0  0  0  0  0
   36.4400   27.2860   39.8020 O   0  0  0  0  0  0  0  0  0  0  0  0
   37.1040   28.1150   38.9450 C   0  0  0  0  0  0  0  0  0  0  0  0
   37.7930   27.7880   37.9180 O   0  0  0  0  0  0  0  0  0  0  0  0
   37.1270   29.6370   39.0910 C   0  0  0  0  0  0  0  0  0  0  0  0
   36.8710   30.4010   40.1560 C   0  0  0  0  0  0  0  0  0  0  0  0
   36.6000   29.8860   41.0680 H   0  0  0  0  0  0  0  0  0  0  0  0
   36.9510   31.7520   40.0750 C   0  0  0  0  0  3  0  0  0  0  0  0
   37.3240   32.2630   38.7860 C   0  0  0  0  0  3  0  0  0  0  0  0
   37.5310   30.6840   37.7770 S   0  0  0  0  0  0  0  0  0  0  0  0
  1  2  1  0  0  0  0
  2  3  2  0  0  0  0
  2  9  1  0  0  0  0
  3  7  1  0  0  0  0
  4  3  1  0  0  0  0
  5  4  2  0  0  0  0
  6  5  1  0  0  0  0
  6  1  2  0  0  0  0
  8  5  1  0  0  0  0
  9 10  1  0  0  0  0
  9 13  2  0  0  0  0
 10 11  2  0  0  0  0
 11 15  1  0  0  0  0
 11 12  1  0  0  0  0
 12 16  1  0  0  0  0
 13 12  1  0  0  0  0
 14 10  1  0  0  0  0
 17  1  1  0  0  0  0
 18 20  1  0  0  0  0
 18 17  1  0  0  0  0
 19 18  2  0  0  0  0
 20 21  2  0  0  0  0
 21 22  1  0  0  0  0
 23 21  1  0  0  0  0
 24 23  2  0  0  0  0
 25 24  1  0  0  0  0
 25 20  1  0  0  0  0
M  END
>  <minimizedAffinity>
-4.66369295

$$$$

 OpenBabel03252508523D

 25 27  0  0  0  0  0  0  0  0999 V2000
   36.9180   30.2720   39.8300 C   0  0  0  0  0  0  0  0  0  0  0  0
   37.6050   31.2460   39.1060 C   0  0  0  0  0  0  0  0  0  0  0  0
   37.5130   31.1720   37.7190 C   0  0  0  0  0  0  0  0  0  0  0  0
   36.7650   30.1670   37.1640 N   0  0  0  0  0  0  0  0  0  0  0  0
   36.1260   29.2590   37.8940 C   0  0  0  0  0  0  0  0  0  0  0  0
   36.1980   29.3050   39.2420 N   0  0  0  0  0  0  0  0  0  0  0  0
   38.0400   31.9200   37.1330 H   0  0  0  0  0  0  0  0  0  0  0  0
   35.5400   28.4710   37.4410 H   0  0  0  0  0  0  0  0  0  0  0  0
   38.3680   32.2630   39.8060 C   0  0  0  0  0  0  0  0  0  0  0  0
   37.8960   33.5540   40.0010 C   0  0  0  0  0  0  0  0  0  0  0  0
   38.9360   34.1550   40.7000 C   0  0  0  0  0  0  0  0  0  0  0  0
   39.9600   33.2840   40.9080 N   0  0  0  0  0  0  0  0  0  0  0  0
   39.5900   32.1510   40.3600 N   0  0  0  0  0  0  0  0  0  0  0  0
   36.9690   34.0250   39.7070 H   0  0  0  0  0  0  0  0  0  0  0  0
   38.9440   35.1900   41.0420 H   0  0  0  0  0  0  0  0  0  0  0  0
   40.8510   33.4940   41.4080 H   0  0  0  0  0  0  0  0  0  0  0  0
   36.9860   30.3120   41.2070 O   0  0  0  0  0  0  0  0  0  0  0  0
   37.7890   29.5650   42.0200 C   0  0  0  0  0  0  0  0  0  0  0  0
   38.6250   29.9840   42.8930 O   0  0  0  0  0  0  0  0  0  0  0  0
   37.8120   28.0360   42.0070 C   0  0  0  0  0  0  0  0  0  0  0  0
   36.8890   27.1600   42.4140 C   0  0  0  0  0  0  0  0  0  0  0  0
   35.9760   27.5730   42.8200 H   0  0  0  0  0  0  0  0  0  0  0  0
   37.1090   25.8260   42.3130 C   0  0  0  0  0  3  0  0  0  0  0  0
   38.3780   25.4590   41.7490 C   0  0  0  0  0  3  0  0  0  0  0  0
   39.1610   27.1390   41.4060 S   0  0  0  0  0  0  0  0  0  0  0  0
  1 17  1  0  0  0  0
  2  9  1  0  0  0  0
  2  1  2  0  0  0  0
  3  2  1  0  0  0  0
  4  3  2  0  0  0  0
  4  5  1  0  0  0  0
  5  6  2  0  0  0  0
  6  1  1  0  0  0  0
  7  3  1  0  0  0  0
  8  5  1  0  0  0  0
  9 10  1  0  0  0  0
  9 13  2  0  0  0  0
 10 11  2  0  0  0  0
 11 12  1  0  0  0  0
 11 15  1  0  0  0  0
 12 16  1  0  0  0  0
 13 12  1  0  0  0  0
 14 10  1  0  0  0  0
 17 18  1  0  0  0  0
 18 19  2  0  0  0  0
 20 18  1  0  0  0  0
 20 21  2  0  0  0  0
 21 22  1  0  0  0  0
 23 21  1  0  0  0  0
 24 23  2  0  0  0  0
 25 24  1  0  0  0  0
 25 20  1  0  0  0  0
M  END
>  <minimizedAffinity>
-4.66140175

$$$$

 OpenBabel03252508523D

 25 27  0  0  0  0  0  0  0  0999 V2000
   36.2940   27.8210   38.0310 C   0  0  0  0  0  0  0  0  0  0  0  0
   36.5330   29.1940   38.0600 C   0  0  0  0  0  0  0  0  0  0  0  0
   36.8780   29.7920   36.8510 C   0  0  0  0  0  0  0  0  0  0  0  0
   36.9560   29.0080   35.7300 N   0  0  0  0  0  0  0  0  0  0  0  0
   36.7190   27.7010   35.7490 C   0  0  0  0  0  0  0  0  0  0  0  0
   36.3830   27.0930   36.9080 N   0  0  0  0  0  0  0  0  0  0  0  0
   37.0690   30.8620   36.8470 H   0  0  0  0  0  0  0  0  0  0  0  0
   36.7850   27.0940   34.8560 H   0  0  0  0  0  0  0  0  0  0  0  0
   36.4210   29.9210   39.3110 C   0  0  0  0  0  0  0  0  0  0  0  0
   37.4780   30.6360   39.8610 C   0  0  0  0  0  0  0  0  0  0  0  0
   36.9210   31.1520   41.0250 C   0  0  0  0  0  0  0  0  0  0  0  0
   35.6220   30.7730   41.1610 N   0  0  0  0  0  0  0  0  0  0  0  0
   35.3470   30.0330   40.1140 N   0  0  0  0  0  0  0  0  0  0  0  0
   38.4910   30.7850   39.5180 H   0  0  0  0  0  0  0  0  0  0  0  0
   37.4460   31.7800   41.7440 H   0  0  0  0  0  0  0  0  0  0  0  0
   34.9870   31.0320   41.9490 H   0  0  0  0  0  0  0  0  0  0  0  0
   35.9510   27.1930   39.2100 O   0  0  0  0  0  0  0  0  0  0  0  0
   36.7800   26.5340   40.0710 C   0  0  0  0  0  0  0  0  0  0  0  0
   37.1930   25.3250   39.9870 O   0  0  0  0  0  0  0  0  0  0  0  0
   37.3700   27.1710   41.3280 C   0  0  0  0  0  0  0  0  0  0  0  0
   36.7710   27.5550   42.4590 C   0  0  0  0  0  0  0  0  0  0  0  0
   35.7010   27.4020   42.5150 H   0  0  0  0  0  0  0  0  0  0  0  0
   37.4860   28.1070   43.4700 C   0  0  0  0  0  3  0  0  0  0  0  0
   38.8950   28.2330   43.2200 C   0  0  0  0  0  3  0  0  0  0  0  0
   39.0560   27.5170   41.4840 S   0  0  0  0  0  0  0  0  0  0  0  0
  1  2  1  0  0  0  0
  1 17  1  0  0  0  0
  2  9  1  0  0  0  0
  3  2  2  0  0  0  0
  4  5  2  0  0  0  0
  4  3  1  0  0  0  0
  5  6  1  0  0  0  0
  6  1  2  0  0  0  0
  7  3  1  0  0  0  0
  8  5  1  0  0  0  0
  9 10  1  0  0  0  0
  9 13  2  0  0  0  0
 10 11  2  0  0  0  0
 11 12  1  0  0  0  0
 11 15  1  0  0  0  0
 12 16  1  0  0  0  0
 13 12  1  0  0  0  0
 14 10  1  0  0  0  0
 17 18  1  0  0  0  0
 18 20  1  0  0  0  0
 19 18  2  0  0  0  0
 20 25  1  0  0  0  0
 20 21  2  0  0  0  0
 21 22  1  0  0  0  0
 21 23  1  0  0  0  0
 24 23  2  0  0  0  0
 25 24  1  0  0  0  0
M  END
>  <minimizedAffinity>
-4.57051039

$$$$

 OpenBabel03252508523D

 25 27  0  0  0  0  0  0  0  0999 V2000
   36.7540   27.4620   41.4750 C   0  0  0  0  0  0  0  0  0  0  0  0
   36.6630   27.0590   40.1430 C   0  0  0  0  0  0  0  0  0  0  0  0
   36.8350   25.7020   39.8890 C   0  0  0  0  0  0  0  0  0  0  0  0
   37.0750   24.8620   40.9450 N   0  0  0  0  0  0  0  0  0  0  0  0
   37.1540   25.2900   42.2000 C   0  0  0  0  0  0  0  0  0  0  0  0
   36.9930   26.6030   42.4770 N   0  0  0  0  0  0  0  0  0  0  0  0
   36.7680   25.3630   38.8590 H   0  0  0  0  0  0  0  0  0  0  0  0
   37.3450   24.6150   43.0240 H   0  0  0  0  0  0  0  0  0  0  0  0
   36.4060   28.0420   39.1070 C   0  0  0  0  0  0  0  0  0  0  0  0
   35.1260   28.4710   38.7800 C   0  0  0  0  0  0  0  0  0  0  0  0
   35.3630   29.3890   37.7640 C   0  0  0  0  0  0  0  0  0  0  0  0
   36.6940   29.5010   37.5010 N   0  0  0  0  0  0  0  0  0  0  0  0
   37.2980   28.6790   38.3260 N   0  0  0  0  0  0  0  0  0  0  0  0
   34.1600   28.1960   39.1780 H   0  0  0  0  0  0  0  0  0  0  0  0
   34.5930   29.9520   37.2370 H   0  0  0  0  0  0  0  0  0  0  0  0
   37.1260   30.1240   36.7840 H   0  0  0  0  0  0  0  0  0  0  0  0
   36.5910   28.8000   41.7650 O   0  0  0  0  0  0  0  0  0  0  0  0
   37.5690   29.7230   42.0000 C   0  0  0  0  0  0  0  0  0  0  0  0
   38.4330   29.7240   42.9430 O   0  0  0  0  0  0  0  0  0  0  0  0
   37.7880   30.9590   41.1270 C   0  0  0  0  0  0  0  0  0  0  0  0
   36.9210   31.6490   40.3820 C   0  0  0  0  0  0  0  0  0  0  0  0
   35.8990   31.2960   40.3780 H   0  0  0  0  0  0  0  0  0  0  0  0
   37.3240   32.7330   39.6730 C   0  0  0  0  0  3  0  0  0  0  0  0
   38.7180   33.0560   39.7980 C   0  0  0  0  0  3  0  0  0  0  0  0
   39.3350   31.7130   40.9680 S   0  0  0  0  0  0  0  0  0  0  0  0
  1 17  1  0  0  0  0
  1  6  1  0  0  0  0
  2  1  2  0  0  0  0
  3  2  1  0  0  0  0
  3  4  2  0  0  0  0
  4  5  1  0  0  0  0
  5  6  2  0  0  0  0
  5  8  1  0  0  0  0
  7  3  1  0  0  0  0
  9  2  1  0  0  0  0
 10  9  1  0  0  0  0
 10 14  1  0  0  0  0
 11 10  2  0  0  0  0
 12 11  1  0  0  0  0
 12 13  1  0  0  0  0
 13  9  2  0  0  0  0
 15 11  1  0  0  0  0
 16 12  1  0  0  0  0
 17 18  1  0  0  0  0
 18 19  2  0  0  0  0
 20 18  1  0  0  0  0
 21 20  2  0  0  0  0
 22 21  1  0  0  0  0
 23 24  2  0  0  0  0
 23 21  1  0  0  0  0
 24 25  1  0  0  0  0
 25 20  1  0  0  0  0
M  END
>  <minimizedAffinity>
-4.54379559

$$$$
