
 OpenBabel03252504013D

 31 34  0  0  0  0  0  0  0  0999 V2000
   33.3850   28.8020   36.6930 C   0  0  0  0  0  0  0  0  0  0  0  0
   34.1550   29.1470   35.5760 C   0  0  0  0  0  0  0  0  0  0  0  0
   35.5340   29.1760   35.7400 C   0  0  0  0  0  0  0  0  0  0  0  0
   36.0670   28.8770   36.9430 N   0  0  0  0  0  0  0  0  0  0  0  0
   35.2790   28.5450   38.0070 C   0  0  0  0  0  0  0  0  0  0  0  0
   33.9470   28.5100   37.8710 N   0  0  0  0  0  0  0  0  0  0  0  0
   33.7700   29.3930   34.5950 H   0  0  0  0  0  0  0  0  0  0  0  0
   36.1800   29.4370   34.9070 H   0  0  0  0  0  0  0  0  0  0  0  0
   36.3670   26.9320   39.4800 C   0  0  0  0  0  0  0  0  0  0  0  0
   35.8710   28.2230   39.3100 C   0  0  0  0  0  0  0  0  0  0  0  0
   35.9470   29.1290   40.3360 C   0  0  0  0  0  0  0  0  0  0  0  0
   36.5230   28.7460   41.5400 C   0  0  0  0  0  0  0  0  0  0  0  0
   36.7350   29.3850   42.6910 N   0  0  0  0  0  0  0  0  0  0  0  0
   37.3370   28.5730   43.5810 C   0  0  0  0  0  0  0  0  0  0  0  0
   37.5330   27.3350   42.9860 C   0  0  0  0  0  0  0  0  0  0  0  0
   37.0220   27.4510   41.7170 C   0  0  0  0  0  0  0  0  0  0  0  0
   36.9390   26.5540   40.6810 C   0  0  0  0  0  0  0  0  0  0  0  0
   36.3070   26.2150   38.6690 H   0  0  0  0  0  0  0  0  0  0  0  0
   35.5620   30.1230   40.1950 H   0  0  0  0  0  0  0  0  0  0  0  0
   36.4870   30.3790   42.9220 H   0  0  0  0  0  0  0  0  0  0  0  0
   37.6670   28.7260   44.6080 H   0  0  0  0  0  0  0  0  0  0  0  0
   37.9860   26.4190   43.3810 H   0  0  0  0  0  0  0  0  0  0  0  0
   37.3140   25.5400   40.7740 H   0  0  0  0  0  0  0  0  0  0  0  0
   31.9550   28.7830   36.4960 C   0  0  0  0  0  0  0  0  0  0  0  0
   31.3110   27.7740   36.0320 O   0  0  0  0  0  0  0  0  0  0  0  0
   31.1900   29.9470   36.8300 C   0  0  0  0  0  0  0  0  0  0  0  0
   30.9590   31.0610   36.0990 C   0  0  0  0  0  0  0  0  0  0  0  0
   31.3810   31.1630   35.1080 H   0  0  0  0  0  0  0  0  0  0  0  0
   30.1990   32.0990   36.5600 C   0  0  0  0  0  3  0  0  0  0  0  0
   29.6730   31.8400   37.9400 C   0  0  0  0  0  3  0  0  0  0  0  0
   30.3420   30.1910   38.3370 S   0  0  0  0  0  0  0  0  0  0  0  0
  1  6  1  0  0  0  0
  2  3  1  0  0  0  0
  2  1  2  0  0  0  0
  3  4  2  0  0  0  0
  4  5  1  0  0  0  0
  5 10  1  0  0  0  0
  6  5  2  0  0  0  0
  7  2  1  0  0  0  0
  8  3  1  0  0  0  0
  9 17  1  0  0  0  0
 10  9  2  0  0  0  0
 10 11  1  0  0  0  0
 11 12  2  0  0  0  0
 12 16  1  0  0  0  0
 12 13  1  0  0  0  0
 13 20  1  0  0  0  0
 13 14  1  0  0  0  0
 14 21  1  0  0  0  0
 15 22  1  0  0  0  0
 15 14  2  0  0  0  0
 16 15  1  0  0  0  0
 17 23  1  0  0  0  0
 17 16  2  0  0  0  0
 18  9  1  0  0  0  0
 19 11  1  0  0  0  0
 24  1  1  0  0  0  0
 24 26  1  0  0  0  0
 25 24  2  0  0  0  0
 26 31  1  0  0  0  0
 27 29  1  0  0  0  0
 27 26  2  0  0  0  0
 28 27  1  0  0  0  0
 29 30  2  0  0  0  0
 30 31  1  0  0  0  0
M  END
>  <minimizedAffinity>
-5.89473152

$$$$

 OpenBabel03252504013D

 31 34  0  0  0  0  0  0  0  0999 V2000
   36.9320   28.6450   41.6470 C   0  0  0  0  0  0  0  0  0  0  0  0
   35.6770   28.7220   41.0280 C   0  0  0  0  0  0  0  0  0  0  0  0
   35.5180   29.6770   40.0330 C   0  0  0  0  0  0  0  0  0  0  0  0
   36.5550   30.4760   39.7060 N   0  0  0  0  0  0  0  0  0  0  0  0
   37.7620   30.3680   40.3340 C   0  0  0  0  0  0  0  0  0  0  0  0
   37.9380   29.4540   41.2960 N   0  0  0  0  0  0  0  0  0  0  0  0
   34.8210   28.1020   41.2590 H   0  0  0  0  0  0  0  0  0  0  0  0
   34.5660   29.7810   39.5200 H   0  0  0  0  0  0  0  0  0  0  0  0
   39.6260   31.7880   41.0130 C   0  0  0  0  0  0  0  0  0  0  0  0
   38.8810   31.2440   39.9700 C   0  0  0  0  0  0  0  0  0  0  0  0
   39.2050   31.5340   38.6690 C   0  0  0  0  0  0  0  0  0  0  0  0
   40.2790   32.3730   38.4070 C   0  0  0  0  0  0  0  0  0  0  0  0
   40.8230   32.8280   37.2790 N   0  0  0  0  0  0  0  0  0  0  0  0
   41.8710   33.6310   37.5460 C   0  0  0  0  0  0  0  0  0  0  0  0
   42.0260   33.7080   38.9220 C   0  0  0  0  0  0  0  0  0  0  0  0
   41.0310   32.9230   39.4500 C   0  0  0  0  0  0  0  0  0  0  0  0
   40.6960   32.6240   40.7480 C   0  0  0  0  0  0  0  0  0  0  0  0
   39.3710   31.5590   42.0410 H   0  0  0  0  0  0  0  0  0  0  0  0
   38.6230   31.1080   37.8700 H   0  0  0  0  0  0  0  0  0  0  0  0
   40.5170   32.6210   36.2950 H   0  0  0  0  0  0  0  0  0  0  0  0
   42.5570   34.1810   36.9030 H   0  0  0  0  0  0  0  0  0  0  0  0
   42.7580   34.2560   39.5280 H   0  0  0  0  0  0  0  0  0  0  0  0
   41.2520   33.0280   41.5870 H   0  0  0  0  0  0  0  0  0  0  0  0
   37.0690   27.6470   42.6800 C   0  0  0  0  0  0  0  0  0  0  0  0
   36.1610   27.3940   43.5530 O   0  0  0  0  0  0  0  0  0  0  0  0
   38.2770   26.8830   42.7560 C   0  0  0  0  0  0  0  0  0  0  0  0
   39.2640   26.9260   43.6800 C   0  0  0  0  0  0  0  0  0  0  0  0
   39.2030   27.6140   44.5130 H   0  0  0  0  0  0  0  0  0  0  0  0
   40.3690   26.1240   43.6150 C   0  0  0  0  0  3  0  0  0  0  0  0
   40.3360   25.2200   42.4190 C   0  0  0  0  0  3  0  0  0  0  0  0
   38.7650   25.6610   41.6080 S   0  0  0  0  0  0  0  0  0  0  0  0
  1 24  1  0  0  0  0
  2  7  1  0  0  0  0
  2  1  2  0  0  0  0
  3  2  1  0  0  0  0
  4  3  2  0  0  0  0
  4  5  1  0  0  0  0
  5  6  2  0  0  0  0
  6  1  1  0  0  0  0
  8  3  1  0  0  0  0
  9 18  1  0  0  0  0
 10  5  1  0  0  0  0
 10  9  2  0  0  0  0
 11 10  1  0  0  0  0
 12 11  2  0  0  0  0
 12 16  1  0  0  0  0
 13 14  1  0  0  0  0
 13 12  1  0  0  0  0
 14 15  2  0  0  0  0
 15 16  1  0  0  0  0
 15 22  1  0  0  0  0
 16 17  2  0  0  0  0
 17  9  1  0  0  0  0
 17 23  1  0  0  0  0
 19 11  1  0  0  0  0
 20 13  1  0  0  0  0
 21 14  1  0  0  0  0
 24 26  1  0  0  0  0
 24 25  2  0  0  0  0
 26 27  2  0  0  0  0
 27 28  1  0  0  0  0
 29 27  1  0  0  0  0
 30 29  2  0  0  0  0
 31 30  1  0  0  0  0
 31 26  1  0  0  0  0
M  END
>  <minimizedAffinity>
-5.75864649

$$$$

 OpenBabel03252504013D

 31 34  0  0  0  0  0  0  0  0999 V2000
   38.8620   31.3770   41.1650 C   0  0  0  0  0  0  0  0  0  0  0  0
   38.8910   32.7780   41.1800 C   0  0  0  0  0  0  0  0  0  0  0  0
   38.2370   33.4370   40.1470 C   0  0  0  0  0  0  0  0  0  0  0  0
   37.6130   32.7200   39.1900 N   0  0  0  0  0  0  0  0  0  0  0  0
   37.6090   31.3550   39.2130 C   0  0  0  0  0  0  0  0  0  0  0  0
   38.2320   30.6990   40.1990 N   0  0  0  0  0  0  0  0  0  0  0  0
   39.3780   33.3900   41.9260 H   0  0  0  0  0  0  0  0  0  0  0  0
   38.2280   34.5230   40.1090 H   0  0  0  0  0  0  0  0  0  0  0  0
   35.8310   29.8190   38.5540 C   0  0  0  0  0  0  0  0  0  0  0  0
   36.9270   30.5870   38.1660 C   0  0  0  0  0  0  0  0  0  0  0  0
   37.3240   30.6030   36.8540 C   0  0  0  0  0  0  0  0  0  0  0  0
   36.6260   29.8470   35.9220 C   0  0  0  0  0  0  0  0  0  0  0  0
   36.7680   29.6630   34.6100 N   0  0  0  0  0  0  0  0  0  0  0  0
   35.8260   28.8220   34.1420 C   0  0  0  0  0  0  0  0  0  0  0  0
   35.0200   28.4320   35.2020 C   0  0  0  0  0  0  0  0  0  0  0  0
   35.5260   29.0740   36.3060 C   0  0  0  0  0  0  0  0  0  0  0  0
   35.1380   29.0670   37.6230 C   0  0  0  0  0  0  0  0  0  0  0  0
   35.5160   29.8060   39.5910 H   0  0  0  0  0  0  0  0  0  0  0  0
   38.1720   31.2000   36.5640 H   0  0  0  0  0  0  0  0  0  0  0  0
   37.4950   30.0900   33.9820 H   0  0  0  0  0  0  0  0  0  0  0  0
   35.6170   28.4350   33.1460 H   0  0  0  0  0  0  0  0  0  0  0  0
   34.1540   27.7610   35.2290 H   0  0  0  0  0  0  0  0  0  0  0  0
   34.2900   28.4820   37.9640 H   0  0  0  0  0  0  0  0  0  0  0  0
   39.5520   30.7180   42.2470 C   0  0  0  0  0  0  0  0  0  0  0  0
   40.5780   31.2080   42.8430 O   0  0  0  0  0  0  0  0  0  0  0  0
   39.0830   29.4420   42.6980 C   0  0  0  0  0  0  0  0  0  0  0  0
   37.9170   29.1220   43.3030 C   0  0  0  0  0  0  0  0  0  0  0  0
   37.1790   29.8860   43.5090 H   0  0  0  0  0  0  0  0  0  0  0  0
   37.6100   27.8440   43.6790 C   0  0  0  0  0  3  0  0  0  0  0  0
   38.7070   26.8800   43.3400 C   0  0  0  0  0  3  0  0  0  0  0  0
   39.9650   27.9420   42.5580 S   0  0  0  0  0  0  0  0  0  0  0  0
  1  2  1  0  0  0  0
  1 24  1  0  0  0  0
  2  7  1  0  0  0  0
  3  2  2  0  0  0  0
  4  5  2  0  0  0  0
  4  3  1  0  0  0  0
  5  6  1  0  0  0  0
  6  1  2  0  0  0  0
  8  3  1  0  0  0  0
  9 18  1  0  0  0  0
 10  9  1  0  0  0  0
 10  5  1  0  0  0  0
 11 10  2  0  0  0  0
 12 16  2  0  0  0  0
 12 11  1  0  0  0  0
 13 12  1  0  0  0  0
 14 13  1  0  0  0  0
 14 15  2  0  0  0  0
 15 22  1  0  0  0  0
 15 16  1  0  0  0  0
 16 17  1  0  0  0  0
 17 23  1  0  0  0  0
 17  9  2  0  0  0  0
 19 11  1  0  0  0  0
 20 13  1  0  0  0  0
 21 14  1  0  0  0  0
 24 26  1  0  0  0  0
 24 25  2  0  0  0  0
 26 27  2  0  0  0  0
 27 28  1  0  0  0  0
 27 29  1  0  0  0  0
 30 29  2  0  0  0  0
 31 26  1  0  0  0  0
 31 30  1  0  0  0  0
M  END
>  <minimizedAffinity>
-5.74812937

$$$$

 OpenBabel03252504013D

 31 34  0  0  0  0  0  0  0  0999 V2000
   33.4960   29.0280   36.6400 C   0  0  0  0  0  0  0  0  0  0  0  0
   34.2020   29.0990   35.4320 C   0  0  0  0  0  0  0  0  0  0  0  0
   35.5820   29.2310   35.5110 C   0  0  0  0  0  0  0  0  0  0  0  0
   36.1770   29.2840   36.7200 N   0  0  0  0  0  0  0  0  0  0  0  0
   35.4520   29.2100   37.8730 C   0  0  0  0  0  0  0  0  0  0  0  0
   34.1200   29.0820   37.8210 N   0  0  0  0  0  0  0  0  0  0  0  0
   33.7650   29.0610   34.4430 H   0  0  0  0  0  0  0  0  0  0  0  0
   36.1800   29.2910   34.6050 H   0  0  0  0  0  0  0  0  0  0  0  0
   37.1290   30.2070   39.3380 C   0  0  0  0  0  0  0  0  0  0  0  0
   36.1110   29.2690   39.1820 C   0  0  0  0  0  0  0  0  0  0  0  0
   35.7660   28.4500   40.2260 C   0  0  0  0  0  0  0  0  0  0  0  0
   36.4390   28.5680   41.4350 C   0  0  0  0  0  0  0  0  0  0  0  0
   36.3330   27.9310   42.6010 N   0  0  0  0  0  0  0  0  0  0  0  0
   37.2250   28.4120   43.4880 C   0  0  0  0  0  0  0  0  0  0  0  0
   37.9560   29.4180   42.8750 C   0  0  0  0  0  0  0  0  0  0  0  0
   37.4610   29.5080   41.5970 C   0  0  0  0  0  0  0  0  0  0  0  0
   37.7980   30.3220   40.5440 C   0  0  0  0  0  0  0  0  0  0  0  0
   37.4030   30.8550   38.5130 H   0  0  0  0  0  0  0  0  0  0  0  0
   34.9780   27.7290   40.0960 H   0  0  0  0  0  0  0  0  0  0  0  0
   35.6650   27.1580   42.8460 H   0  0  0  0  0  0  0  0  0  0  0  0
   37.4410   28.1550   44.5240 H   0  0  0  0  0  0  0  0  0  0  0  0
   38.7670   30.0470   43.2620 H   0  0  0  0  0  0  0  0  0  0  0  0
   38.5840   31.0650   40.6260 H   0  0  0  0  0  0  0  0  0  0  0  0
   32.0630   28.8950   36.5290 C   0  0  0  0  0  0  0  0  0  0  0  0
   31.4730   27.8230   36.1410 O   0  0  0  0  0  0  0  0  0  0  0  0
   31.2320   30.0110   36.8670 C   0  0  0  0  0  0  0  0  0  0  0  0
   30.9630   31.1280   36.1530 C   0  0  0  0  0  0  0  0  0  0  0  0
   31.4040   31.2720   35.1750 H   0  0  0  0  0  0  0  0  0  0  0  0
   30.1400   32.1160   36.6150 C   0  0  0  0  0  3  0  0  0  0  0  0
   29.5930   31.8010   37.9760 C   0  0  0  0  0  3  0  0  0  0  0  0
   30.3350   30.1800   38.3550 S   0  0  0  0  0  0  0  0  0  0  0  0
  1  6  1  0  0  0  0
  2  3  1  0  0  0  0
  2  1  2  0  0  0  0
  3  4  2  0  0  0  0
  4  5  1  0  0  0  0
  5 10  1  0  0  0  0
  6  5  2  0  0  0  0
  7  2  1  0  0  0  0
  8  3  1  0  0  0  0
  9 17  1  0  0  0  0
 10  9  2  0  0  0  0
 10 11  1  0  0  0  0
 11 12  2  0  0  0  0
 12 16  1  0  0  0  0
 12 13  1  0  0  0  0
 13 20  1  0  0  0  0
 13 14  1  0  0  0  0
 14 21  1  0  0  0  0
 15 22  1  0  0  0  0
 15 14  2  0  0  0  0
 16 15  1  0  0  0  0
 17 23  1  0  0  0  0
 17 16  2  0  0  0  0
 18  9  1  0  0  0  0
 19 11  1  0  0  0  0
 24  1  1  0  0  0  0
 24 26  1  0  0  0  0
 25 24  2  0  0  0  0
 26 31  1  0  0  0  0
 27 29  1  0  0  0  0
 27 26  2  0  0  0  0
 28 27  1  0  0  0  0
 29 30  2  0  0  0  0
 30 31  1  0  0  0  0
M  END
>  <minimizedAffinity>
-5.6469841

$$$$

 OpenBabel03252504013D

 31 34  0  0  0  0  0  0  0  0999 V2000
   38.4290   26.3100   42.1830 C   0  0  0  0  0  0  0  0  0  0  0  0
   39.4210   26.1640   43.1620 C   0  0  0  0  0  0  0  0  0  0  0  0
   40.0900   27.3120   43.5630 C   0  0  0  0  0  0  0  0  0  0  0  0
   39.7670   28.4990   43.0090 N   0  0  0  0  0  0  0  0  0  0  0  0
   38.7930   28.5970   42.0580 C   0  0  0  0  0  0  0  0  0  0  0  0
   38.1340   27.5040   41.6560 N   0  0  0  0  0  0  0  0  0  0  0  0
   39.7110   25.2330   43.6310 H   0  0  0  0  0  0  0  0  0  0  0  0
   40.8690   27.2570   44.3190 H   0  0  0  0  0  0  0  0  0  0  0  0
   37.3020   29.9490   40.6780 C   0  0  0  0  0  0  0  0  0  0  0  0
   38.4520   29.8940   41.4620 C   0  0  0  0  0  0  0  0  0  0  0  0
   39.2100   31.0210   41.6500 C   0  0  0  0  0  0  0  0  0  0  0  0
   38.8190   32.2110   41.0510 C   0  0  0  0  0  0  0  0  0  0  0  0
   39.3360   33.4390   41.0470 N   0  0  0  0  0  0  0  0  0  0  0  0
   38.5800   34.2710   40.3050 C   0  0  0  0  0  0  0  0  0  0  0  0
   37.5090   33.5530   39.7940 C   0  0  0  0  0  0  0  0  0  0  0  0
   37.6660   32.2720   40.2620 C   0  0  0  0  0  0  0  0  0  0  0  0
   36.9160   31.1360   40.0820 C   0  0  0  0  0  0  0  0  0  0  0  0
   36.7010   29.0590   40.5290 H   0  0  0  0  0  0  0  0  0  0  0  0
   40.0970   30.9680   42.2580 H   0  0  0  0  0  0  0  0  0  0  0  0
   40.2070   33.7650   41.5370 H   0  0  0  0  0  0  0  0  0  0  0  0
   38.6720   35.3300   40.0670 H   0  0  0  0  0  0  0  0  0  0  0  0
   36.6810   33.8710   39.1500 H   0  0  0  0  0  0  0  0  0  0  0  0
   36.0140   31.1390   39.4790 H   0  0  0  0  0  0  0  0  0  0  0  0
   37.7520   25.1010   41.7810 C   0  0  0  0  0  0  0  0  0  0  0  0
   36.6510   24.6920   42.3010 O   0  0  0  0  0  0  0  0  0  0  0  0
   38.3220   24.2940   40.7440 C   0  0  0  0  0  0  0  0  0  0  0  0
   39.3140   24.5900   39.8750 C   0  0  0  0  0  0  0  0  0  0  0  0
   39.7980   25.5580   39.9040 H   0  0  0  0  0  0  0  0  0  0  0  0
   39.7530   23.7050   38.9310 C   0  0  0  0  0  3  0  0  0  0  0  0
   39.0090   22.4050   38.9900 C   0  0  0  0  0  3  0  0  0  0  0  0
   37.8310   22.6630   40.3580 S   0  0  0  0  0  0  0  0  0  0  0  0
  1  2  1  0  0  0  0
  2  3  2  0  0  0  0
  2  7  1  0  0  0  0
  3  8  1  0  0  0  0
  4  3  1  0  0  0  0
  5  4  2  0  0  0  0
  6  5  1  0  0  0  0
  6  1  2  0  0  0  0
  9 10  1  0  0  0  0
 10 11  2  0  0  0  0
 10  5  1  0  0  0  0
 11 19  1  0  0  0  0
 12 11  1  0  0  0  0
 13 12  1  0  0  0  0
 13 20  1  0  0  0  0
 14 13  1  0  0  0  0
 15 16  1  0  0  0  0
 15 14  2  0  0  0  0
 16 12  2  0  0  0  0
 17 16  1  0  0  0  0
 17  9  2  0  0  0  0
 18  9  1  0  0  0  0
 21 14  1  0  0  0  0
 22 15  1  0  0  0  0
 23 17  1  0  0  0  0
 24  1  1  0  0  0  0
 24 25  2  0  0  0  0
 26 24  1  0  0  0  0
 27 28  1  0  0  0  0
 27 26  2  0  0  0  0
 29 30  2  0  0  0  0
 29 27  1  0  0  0  0
 30 31  1  0  0  0  0
 31 26  1  0  0  0  0
M  END
>  <minimizedAffinity>
-5.5490284

$$$$

 OpenBabel03252504013D

 31 34  0  0  0  0  0  0  0  0999 V2000
   37.6700   26.5060   41.4010 C   0  0  0  0  0  0  0  0  0  0  0  0
   37.0520   26.2120   42.6230 C   0  0  0  0  0  0  0  0  0  0  0  0
   36.7940   27.2770   43.4760 C   0  0  0  0  0  0  0  0  0  0  0  0
   37.1400   28.5270   43.1030 N   0  0  0  0  0  0  0  0  0  0  0  0
   37.7410   28.7690   41.9020 C   0  0  0  0  0  0  0  0  0  0  0  0
   37.9990   27.7580   41.0640 N   0  0  0  0  0  0  0  0  0  0  0  0
   36.7580   25.2270   42.9600 H   0  0  0  0  0  0  0  0  0  0  0  0
   36.3160   27.1070   44.4360 H   0  0  0  0  0  0  0  0  0  0  0  0
   39.4160   30.5400   41.7870 C   0  0  0  0  0  0  0  0  0  0  0  0
   38.1130   30.1330   41.5090 C   0  0  0  0  0  0  0  0  0  0  0  0
   37.2410   30.9940   40.8950 C   0  0  0  0  0  0  0  0  0  0  0  0
   37.6700   32.2700   40.5540 C   0  0  0  0  0  0  0  0  0  0  0  0
   37.0710   33.3040   39.9650 N   0  0  0  0  0  0  0  0  0  0  0  0
   37.9190   34.3440   39.8520 C   0  0  0  0  0  0  0  0  0  0  0  0
   39.1410   33.9760   40.3960 C   0  0  0  0  0  0  0  0  0  0  0  0
   38.9770   32.6840   40.8310 C   0  0  0  0  0  0  0  0  0  0  0  0
   39.8410   31.8120   41.4470 C   0  0  0  0  0  0  0  0  0  0  0  0
   40.1070   29.8600   42.2730 H   0  0  0  0  0  0  0  0  0  0  0  0
   36.2360   30.6700   40.6840 H   0  0  0  0  0  0  0  0  0  0  0  0
   36.0800   33.3520   39.6180 H   0  0  0  0  0  0  0  0  0  0  0  0
   37.8030   35.3430   39.4360 H   0  0  0  0  0  0  0  0  0  0  0  0
   40.0760   34.5390   40.4930 H   0  0  0  0  0  0  0  0  0  0  0  0
   40.8630   32.0910   41.6790 H   0  0  0  0  0  0  0  0  0  0  0  0
   37.9310   25.3800   40.5360 C   0  0  0  0  0  0  0  0  0  0  0  0
   39.0410   24.7360   40.5170 O   0  0  0  0  0  0  0  0  0  0  0  0
   36.9060   24.9390   39.6380 C   0  0  0  0  0  0  0  0  0  0  0  0
   36.3160   25.6010   38.6170 C   0  0  0  0  0  0  0  0  0  0  0  0
   36.6080   26.6160   38.3810 H   0  0  0  0  0  0  0  0  0  0  0  0
   35.3410   25.0390   37.8410 C   0  0  0  0  0  3  0  0  0  0  0  0
   35.0260   23.6360   38.2650 C   0  0  0  0  0  3  0  0  0  0  0  0
   36.1540   23.3630   39.6710 S   0  0  0  0  0  0  0  0  0  0  0  0
  1  2  1  0  0  0  0
  2  7  1  0  0  0  0
  2  3  2  0  0  0  0
  3  8  1  0  0  0  0
  4  3  1  0  0  0  0
  5  4  2  0  0  0  0
  6  1  2  0  0  0  0
  6  5  1  0  0  0  0
  9 18  1  0  0  0  0
 10  9  1  0  0  0  0
 10  5  1  0  0  0  0
 11 10  2  0  0  0  0
 12 16  2  0  0  0  0
 12 11  1  0  0  0  0
 13 12  1  0  0  0  0
 14 13  1  0  0  0  0
 14 15  2  0  0  0  0
 15 22  1  0  0  0  0
 15 16  1  0  0  0  0
 16 17  1  0  0  0  0
 17 23  1  0  0  0  0
 17  9  2  0  0  0  0
 19 11  1  0  0  0  0
 20 13  1  0  0  0  0
 21 14  1  0  0  0  0
 24  1  1  0  0  0  0
 25 24  2  0  0  0  0
 26 31  1  0  0  0  0
 26 24  1  0  0  0  0
 27 26  2  0  0  0  0
 28 27  1  0  0  0  0
 29 30  2  0  0  0  0
 29 27  1  0  0  0  0
 30 31  1  0  0  0  0
M  END
>  <minimizedAffinity>
-5.5082655

$$$$

 OpenBabel03252504013D

 31 34  0  0  0  0  0  0  0  0999 V2000
   36.9260   28.7040   41.8390 C   0  0  0  0  0  0  0  0  0  0  0  0
   35.7320   28.7340   41.1060 C   0  0  0  0  0  0  0  0  0  0  0  0
   35.5840   29.7540   40.1760 C   0  0  0  0  0  0  0  0  0  0  0  0
   36.5730   30.6570   40.0150 N   0  0  0  0  0  0  0  0  0  0  0  0
   37.7220   30.5910   40.7490 C   0  0  0  0  0  0  0  0  0  0  0  0
   37.8860   29.6160   41.6520 N   0  0  0  0  0  0  0  0  0  0  0  0
   34.9150   28.0320   41.2030 H   0  0  0  0  0  0  0  0  0  0  0  0
   34.6780   29.8250   39.5800 H   0  0  0  0  0  0  0  0  0  0  0  0
   38.4020   32.8920   40.3060 C   0  0  0  0  0  0  0  0  0  0  0  0
   38.7900   31.5790   40.5650 C   0  0  0  0  0  0  0  0  0  0  0  0
   40.1210   31.2580   40.6390 C   0  0  0  0  0  0  0  0  0  0  0  0
   41.0720   32.2520   40.4530 C   0  0  0  0  0  0  0  0  0  0  0  0
   42.4050   32.2490   40.4640 N   0  0  0  0  0  0  0  0  0  0  0  0
   42.8850   33.4850   40.2260 C   0  0  0  0  0  0  0  0  0  0  0  0
   41.8130   34.3470   40.0500 C   0  0  0  0  0  0  0  0  0  0  0  0
   40.6890   33.5720   40.1910 C   0  0  0  0  0  0  0  0  0  0  0  0
   39.3530   33.8800   40.1200 C   0  0  0  0  0  0  0  0  0  0  0  0
   37.3500   33.1470   40.2470 H   0  0  0  0  0  0  0  0  0  0  0  0
   40.4100   30.2410   40.8400 H   0  0  0  0  0  0  0  0  0  0  0  0
   43.0380   31.4280   40.6300 H   0  0  0  0  0  0  0  0  0  0  0  0
   43.8980   33.8780   40.1580 H   0  0  0  0  0  0  0  0  0  0  0  0
   41.7900   35.4230   39.8390 H   0  0  0  0  0  0  0  0  0  0  0  0
   39.0110   34.8900   39.9200 H   0  0  0  0  0  0  0  0  0  0  0  0
   37.0520   27.6370   42.8020 C   0  0  0  0  0  0  0  0  0  0  0  0
   36.0970   27.2510   43.5690 O   0  0  0  0  0  0  0  0  0  0  0  0
   38.3040   26.9540   42.9260 C   0  0  0  0  0  0  0  0  0  0  0  0
   39.3890   27.2780   43.6660 C   0  0  0  0  0  0  0  0  0  0  0  0
   39.3860   28.1690   44.2800 H   0  0  0  0  0  0  0  0  0  0  0  0
   40.5240   26.5170   43.6800 C   0  0  0  0  0  3  0  0  0  0  0  0
   40.4050   25.3140   42.7920 C   0  0  0  0  0  3  0  0  0  0  0  0
   38.7250   25.4730   42.1030 S   0  0  0  0  0  0  0  0  0  0  0  0
  1 24  1  0  0  0  0
  2  7  1  0  0  0  0
  2  1  2  0  0  0  0
  3  2  1  0  0  0  0
  4  3  2  0  0  0  0
  4  5  1  0  0  0  0
  5  6  2  0  0  0  0
  6  1  1  0  0  0  0
  8  3  1  0  0  0  0
  9 10  1  0  0  0  0
 10 11  2  0  0  0  0
 10  5  1  0  0  0  0
 11 19  1  0  0  0  0
 12 13  1  0  0  0  0
 12 11  1  0  0  0  0
 13 20  1  0  0  0  0
 14 13  1  0  0  0  0
 15 16  1  0  0  0  0
 15 14  2  0  0  0  0
 16 12  2  0  0  0  0
 17 16  1  0  0  0  0
 17  9  2  0  0  0  0
 18  9  1  0  0  0  0
 21 14  1  0  0  0  0
 22 15  1  0  0  0  0
 23 17  1  0  0  0  0
 24 26  1  0  0  0  0
 24 25  2  0  0  0  0
 26 27  2  0  0  0  0
 27 29  1  0  0  0  0
 27 28  1  0  0  0  0
 30 29  2  0  0  0  0
 31 30  1  0  0  0  0
 31 26  1  0  0  0  0
M  END
>  <minimizedAffinity>
-5.50570059

$$$$

 OpenBabel03252504013D

 31 34  0  0  0  0  0  0  0  0999 V2000
   38.3890   31.9300   40.5100 C   0  0  0  0  0  0  0  0  0  0  0  0
   37.0020   32.0550   40.3550 C   0  0  0  0  0  0  0  0  0  0  0  0
   36.2190   30.9850   40.7680 C   0  0  0  0  0  0  0  0  0  0  0  0
   36.8090   29.8910   41.2900 N   0  0  0  0  0  0  0  0  0  0  0  0
   38.1650   29.8100   41.4240 C   0  0  0  0  0  0  0  0  0  0  0  0
   38.9400   30.8290   41.0330 N   0  0  0  0  0  0  0  0  0  0  0  0
   36.4890   32.9130   39.9420 H   0  0  0  0  0  0  0  0  0  0  0  0
   35.1370   31.0290   40.6710 H   0  0  0  0  0  0  0  0  0  0  0  0
   39.9480   28.8030   42.7510 C   0  0  0  0  0  0  0  0  0  0  0  0
   38.7950   28.6130   41.9930 C   0  0  0  0  0  0  0  0  0  0  0  0
   38.2960   27.3500   41.8050 C   0  0  0  0  0  0  0  0  0  0  0  0
   38.9510   26.2680   42.3770 C   0  0  0  0  0  0  0  0  0  0  0  0
   38.7150   24.9560   42.3730 N   0  0  0  0  0  0  0  0  0  0  0  0
   39.6520   24.3020   43.0850 C   0  0  0  0  0  0  0  0  0  0  0  0
   40.5530   25.2310   43.5850 C   0  0  0  0  0  0  0  0  0  0  0  0
   40.1090   26.4520   43.1390 C   0  0  0  0  0  0  0  0  0  0  0  0
   40.5980   27.7220   43.3190 C   0  0  0  0  0  0  0  0  0  0  0  0
   40.3430   29.8010   42.9000 H   0  0  0  0  0  0  0  0  0  0  0  0
   37.4040   27.2140   41.2180 H   0  0  0  0  0  0  0  0  0  0  0  0
   37.9240   24.4530   41.8980 H   0  0  0  0  0  0  0  0  0  0  0  0
   39.7990   23.2470   43.3110 H   0  0  0  0  0  0  0  0  0  0  0  0
   41.4460   25.0960   44.2060 H   0  0  0  0  0  0  0  0  0  0  0  0
   41.4930   27.9110   43.9030 H   0  0  0  0  0  0  0  0  0  0  0  0
   39.1800   33.0540   40.0690 C   0  0  0  0  0  0  0  0  0  0  0  0
   38.9590   34.2670   40.4280 O   0  0  0  0  0  0  0  0  0  0  0  0
   40.2800   32.8270   39.1810 C   0  0  0  0  0  0  0  0  0  0  0  0
   41.5820   33.1590   39.3250 C   0  0  0  0  0  0  0  0  0  0  0  0
   41.9210   33.6730   40.2160 H   0  0  0  0  0  0  0  0  0  0  0  0
   42.5250   32.8720   38.3780 C   0  0  0  0  0  3  0  0  0  0  0  0
   41.9350   32.1610   37.1970 C   0  0  0  0  0  3  0  0  0  0  0  0
   40.1700   32.0280   37.6320 S   0  0  0  0  0  0  0  0  0  0  0  0
  1  6  1  0  0  0  0
  2  1  2  0  0  0  0
  2  3  1  0  0  0  0
  3  4  2  0  0  0  0
  4  5  1  0  0  0  0
  5 10  1  0  0  0  0
  6  5  2  0  0  0  0
  7  2  1  0  0  0  0
  8  3  1  0  0  0  0
  9 18  1  0  0  0  0
  9 17  1  0  0  0  0
 10  9  2  0  0  0  0
 11 10  1  0  0  0  0
 11 12  2  0  0  0  0
 12 16  1  0  0  0  0
 13 12  1  0  0  0  0
 13 14  1  0  0  0  0
 14 21  1  0  0  0  0
 14 15  2  0  0  0  0
 15 22  1  0  0  0  0
 16 17  2  0  0  0  0
 16 15  1  0  0  0  0
 17 23  1  0  0  0  0
 19 11  1  0  0  0  0
 20 13  1  0  0  0  0
 24 25  2  0  0  0  0
 24  1  1  0  0  0  0
 26 27  2  0  0  0  0
 26 24  1  0  0  0  0
 27 28  1  0  0  0  0
 29 27  1  0  0  0  0
 30 31  1  0  0  0  0
 30 29  2  0  0  0  0
 31 26  1  0  0  0  0
M  END
>  <minimizedAffinity>
-5.42993498

$$$$

 OpenBabel03252504013D

 31 34  0  0  0  0  0  0  0  0999 V2000
   33.4410   29.1390   36.9490 C   0  0  0  0  0  0  0  0  0  0  0  0
   34.1550   29.1030   35.7440 C   0  0  0  0  0  0  0  0  0  0  0  0
   35.4950   28.7430   35.8120 C   0  0  0  0  0  0  0  0  0  0  0  0
   36.0450   28.4470   37.0080 N   0  0  0  0  0  0  0  0  0  0  0  0
   35.3120   28.4940   38.1580 C   0  0  0  0  0  0  0  0  0  0  0  0
   34.0190   28.8390   38.1170 N   0  0  0  0  0  0  0  0  0  0  0  0
   33.7540   29.3320   34.7660 H   0  0  0  0  0  0  0  0  0  0  0  0
   36.0960   28.6980   34.9080 H   0  0  0  0  0  0  0  0  0  0  0  0
   36.3690   26.8640   39.6350 C   0  0  0  0  0  0  0  0  0  0  0  0
   35.9220   28.1710   39.4520 C   0  0  0  0  0  0  0  0  0  0  0  0
   36.0620   29.0910   40.4590 C   0  0  0  0  0  0  0  0  0  0  0  0
   36.6510   28.7060   41.6560 C   0  0  0  0  0  0  0  0  0  0  0  0
   36.9180   29.3570   42.7880 N   0  0  0  0  0  0  0  0  0  0  0  0
   37.5080   28.5370   43.6800 C   0  0  0  0  0  0  0  0  0  0  0  0
   37.6370   27.2810   43.1040 C   0  0  0  0  0  0  0  0  0  0  0  0
   37.1010   27.3960   41.8450 C   0  0  0  0  0  0  0  0  0  0  0  0
   36.9550   26.4840   40.8290 C   0  0  0  0  0  0  0  0  0  0  0  0
   36.2590   26.1350   38.8400 H   0  0  0  0  0  0  0  0  0  0  0  0
   35.7140   30.0990   40.3080 H   0  0  0  0  0  0  0  0  0  0  0  0
   36.7170   30.3650   43.0060 H   0  0  0  0  0  0  0  0  0  0  0  0
   37.8690   28.6950   44.6950 H   0  0  0  0  0  0  0  0  0  0  0  0
   38.0620   26.3540   43.5040 H   0  0  0  0  0  0  0  0  0  0  0  0
   37.2900   25.4570   40.9320 H   0  0  0  0  0  0  0  0  0  0  0  0
   32.0520   29.5210   36.8510 C   0  0  0  0  0  0  0  0  0  0  0  0
   31.2610   29.6010   37.8590 O   0  0  0  0  0  0  0  0  0  0  0  0
   31.5040   29.8340   35.5650 C   0  0  0  0  0  0  0  0  0  0  0  0
   31.4000   31.0300   34.9450 C   0  0  0  0  0  0  0  0  0  0  0  0
   31.7600   31.9300   35.4270 H   0  0  0  0  0  0  0  0  0  0  0  0
   30.8460   31.1700   33.7040 C   0  0  0  0  0  3  0  0  0  0  0  0
   30.3860   29.8580   33.1430 C   0  0  0  0  0  3  0  0  0  0  0  0
   30.8150   28.6710   34.4590 S   0  0  0  0  0  0  0  0  0  0  0  0
  1  6  1  0  0  0  0
  2  3  1  0  0  0  0
  2  1  2  0  0  0  0
  3  4  2  0  0  0  0
  4  5  1  0  0  0  0
  5 10  1  0  0  0  0
  6  5  2  0  0  0  0
  7  2  1  0  0  0  0
  8  3  1  0  0  0  0
  9 17  1  0  0  0  0
 10  9  2  0  0  0  0
 10 11  1  0  0  0  0
 11 12  2  0  0  0  0
 12 16  1  0  0  0  0
 12 13  1  0  0  0  0
 13 20  1  0  0  0  0
 13 14  1  0  0  0  0
 14 21  1  0  0  0  0
 15 22  1  0  0  0  0
 15 14  2  0  0  0  0
 16 15  1  0  0  0  0
 17 23  1  0  0  0  0
 17 16  2  0  0  0  0
 18  9  1  0  0  0  0
 19 11  1  0  0  0  0
 24  1  1  0  0  0  0
 24 25  2  0  0  0  0
 26 24  1  0  0  0  0
 27 28  1  0  0  0  0
 27 26  2  0  0  0  0
 29 27  1  0  0  0  0
 30 29  2  0  0  0  0
 30 31  1  0  0  0  0
 31 26  1  0  0  0  0
M  END
>  <minimizedAffinity>
-5.42221928

$$$$
