
 OpenBabel03252503363D

 19 20  0  0  0  0  0  0  0  0999 V2000
   37.3580   28.8980   41.3860 C   0  0  0  0  0  0  0  0  0  0  0  0
   36.9870   29.6510   42.3230 O   0  0  0  0  0  0  0  0  0  0  0  0
   37.9190   29.5570   40.2630 N   0  0  0  0  0  0  0  0  0  0  0  0
   38.2450   28.9220   39.4760 H   0  0  0  0  0  0  0  0  0  0  0  0
   37.2480   33.1660   39.5870 C   0  0  0  0  0  0  0  0  0  0  0  0
   37.0650   31.7720   39.5730 C   0  0  0  0  0  0  0  0  0  0  0  0
   38.0230   30.9750   40.2260 C   0  0  0  0  0  0  0  0  0  0  0  0
   39.0710   31.5920   40.8330 N   0  0  0  0  0  0  0  0  0  0  0  0
   39.2130   32.9470   40.8230 C   0  0  0  0  0  0  0  0  0  0  0  0
   38.3020   33.7080   40.2030 N   0  0  0  0  0  0  0  0  0  0  0  0
   36.4840   33.7270   39.0720 H   0  0  0  0  0  0  0  0  0  0  0  0
   36.2530   31.2530   39.1050 H   0  0  0  0  0  0  0  0  0  0  0  0
   40.0760   33.3660   41.3300 H   0  0  0  0  0  0  0  0  0  0  0  0
   37.2170   27.4910   41.4680 C   0  0  0  0  0  0  0  0  0  0  0  0
   37.1930   26.5330   42.4200 C   0  0  0  0  0  0  0  0  0  0  0  0
   37.3160   26.9580   43.4080 H   0  0  0  0  0  0  0  0  0  0  0  0
   37.0330   25.2220   42.1370 C   0  0  0  0  0  3  0  0  0  0  0  0
   36.8910   24.9260   40.7480 C   0  0  0  0  0  3  0  0  0  0  0  0
   36.9970   26.5490   39.9360 S   0  0  0  0  0  0  0  0  0  0  0  0
  1 14  1  0  0  0  0
  1  2  2  0  0  0  0
  3  1  1  0  0  0  0
  4  3  1  0  0  0  0
  5 10  1  0  0  0  0
  6  5  2  0  0  0  0
  6  7  1  0  0  0  0
  7  3  1  0  0  0  0
  7  8  2  0  0  0  0
  9  8  1  0  0  0  0
  9 13  1  0  0  0  0
 10  9  2  0  0  0  0
 11  5  1  0  0  0  0
 12  6  1  0  0  0  0
 14 15  2  0  0  0  0
 15 16  1  0  0  0  0
 17 15  1  0  0  0  0
 18 17  2  0  0  0  0
 19 18  1  0  0  0  0
 19 14  1  0  0  0  0
M  END
>  <minimizedAffinity>
-3.97331858

$$$$

 OpenBabel03252503363D

 19 20  0  0  0  0  0  0  0  0999 V2000
   38.3040   30.1600   40.7380 C   0  0  0  0  0  0  0  0  0  0  0  0
   38.9770   29.3840   40.0100 O   0  0  0  0  0  0  0  0  0  0  0  0
   37.8280   29.5950   41.9480 N   0  0  0  0  0  0  0  0  0  0  0  0
   37.2710   30.2520   42.5710 H   0  0  0  0  0  0  0  0  0  0  0  0
   37.5770   25.8840   42.2560 C   0  0  0  0  0  0  0  0  0  0  0  0
   37.2320   27.1960   41.8890 C   0  0  0  0  0  0  0  0  0  0  0  0
   38.0960   28.2370   42.2760 C   0  0  0  0  0  0  0  0  0  0  0  0
   39.2140   27.9200   42.9810 N   0  0  0  0  0  0  0  0  0  0  0  0
   39.5120   26.6340   43.3180 C   0  0  0  0  0  0  0  0  0  0  0  0
   38.6910   25.6410   42.9500 N   0  0  0  0  0  0  0  0  0  0  0  0
   36.8800   25.1260   41.9330 H   0  0  0  0  0  0  0  0  0  0  0  0
   36.3610   27.4810   41.3340 H   0  0  0  0  0  0  0  0  0  0  0  0
   40.4230   26.4600   43.8820 H   0  0  0  0  0  0  0  0  0  0  0  0
   38.0530   31.5000   40.3570 C   0  0  0  0  0  0  0  0  0  0  0  0
   37.1290   32.1950   39.6590 C   0  0  0  0  0  0  0  0  0  0  0  0
   36.3520   31.5430   39.2800 H   0  0  0  0  0  0  0  0  0  0  0  0
   37.1980   33.5320   39.4790 C   0  0  0  0  0  3  0  0  0  0  0  0
   38.3290   34.1560   40.0860 C   0  0  0  0  0  3  0  0  0  0  0  0
   39.2220   32.7840   40.8760 S   0  0  0  0  0  0  0  0  0  0  0  0
  1  3  1  0  0  0  0
  2  1  2  0  0  0  0
  3  7  1  0  0  0  0
  3  4  1  0  0  0  0
  5 10  1  0  0  0  0
  6  5  2  0  0  0  0
  6  7  1  0  0  0  0
  7  8  2  0  0  0  0
  8  9  1  0  0  0  0
  9 13  1  0  0  0  0
 10  9  2  0  0  0  0
 11  5  1  0  0  0  0
 12  6  1  0  0  0  0
 14  1  1  0  0  0  0
 14 19  1  0  0  0  0
 15 14  2  0  0  0  0
 16 15  1  0  0  0  0
 17 15  1  0  0  0  0
 17 18  2  0  0  0  0
 18 19  1  0  0  0  0
M  END
>  <minimizedAffinity>
-3.9285953

$$$$

 OpenBabel03252503363D

 19 20  0  0  0  0  0  0  0  0999 V2000
   38.7420   30.0730   42.0740 C   0  0  0  0  0  0  0  0  0  0  0  0
   39.5340   30.6850   42.8370 O   0  0  0  0  0  0  0  0  0  0  0  0
   38.6200   30.6120   40.7690 N   0  0  0  0  0  0  0  0  0  0  0  0
   37.9620   30.0900   40.1180 H   0  0  0  0  0  0  0  0  0  0  0  0
   39.6060   34.1610   40.1650 C   0  0  0  0  0  0  0  0  0  0  0  0
   38.8200   33.0690   40.5700 C   0  0  0  0  0  0  0  0  0  0  0  0
   39.3450   31.7760   40.3880 C   0  0  0  0  0  0  0  0  0  0  0  0
   40.5790   31.6520   39.8330 N   0  0  0  0  0  0  0  0  0  0  0  0
   41.3090   32.7380   39.4530 C   0  0  0  0  0  0  0  0  0  0  0  0
   40.8120   33.9700   39.6260 N   0  0  0  0  0  0  0  0  0  0  0  0
   39.1550   35.1280   40.3280 H   0  0  0  0  0  0  0  0  0  0  0  0
   37.8450   33.1290   41.0100 H   0  0  0  0  0  0  0  0  0  0  0  0
   42.2870   32.5590   39.0180 H   0  0  0  0  0  0  0  0  0  0  0  0
   38.0330   28.9270   42.5090 C   0  0  0  0  0  0  0  0  0  0  0  0
   37.3280   28.5260   43.5880 C   0  0  0  0  0  0  0  0  0  0  0  0
   37.2900   29.3020   44.3430 H   0  0  0  0  0  0  0  0  0  0  0  0
   36.7570   27.3050   43.6790 C   0  0  0  0  0  3  0  0  0  0  0  0
   36.9580   26.4680   42.5400 C   0  0  0  0  0  3  0  0  0  0  0  0
   37.9540   27.4870   41.4120 S   0  0  0  0  0  0  0  0  0  0  0  0
  1 14  1  0  0  0  0
  1  2  2  0  0  0  0
  3  1  1  0  0  0  0
  4  3  1  0  0  0  0
  5 11  1  0  0  0  0
  5  6  1  0  0  0  0
  6 12  1  0  0  0  0
  7  6  2  0  0  0  0
  7  3  1  0  0  0  0
  8  7  1  0  0  0  0
  9 10  1  0  0  0  0
  9  8  2  0  0  0  0
 10  5  2  0  0  0  0
 13  9  1  0  0  0  0
 14 15  2  0  0  0  0
 15 17  1  0  0  0  0
 15 16  1  0  0  0  0
 18 17  2  0  0  0  0
 19 14  1  0  0  0  0
 19 18  1  0  0  0  0
M  END
>  <minimizedAffinity>
-3.89602923

$$$$

 OpenBabel03252503363D

 19 20  0  0  0  0  0  0  0  0999 V2000
   36.8520   29.0400   40.7080 C   0  0  0  0  0  0  0  0  0  0  0  0
   35.6700   28.7270   41.0060 O   0  0  0  0  0  0  0  0  0  0  0  0
   37.7440   27.9510   40.5430 N   0  0  0  0  0  0  0  0  0  0  0  0
   38.7400   28.2120   40.2790 H   0  0  0  0  0  0  0  0  0  0  0  0
   36.9350   24.6410   42.0650 C   0  0  0  0  0  0  0  0  0  0  0  0
   37.3950   25.9650   41.9750 C   0  0  0  0  0  0  0  0  0  0  0  0
   37.3040   26.6110   40.7280 C   0  0  0  0  0  0  0  0  0  0  0  0
   36.7770   25.9220   39.6810 N   0  0  0  0  0  0  0  0  0  0  0  0
   36.3430   24.6380   39.8100 C   0  0  0  0  0  0  0  0  0  0  0  0
   36.4280   24.0210   40.9960 N   0  0  0  0  0  0  0  0  0  0  0  0
   37.0280   24.1950   43.0430 H   0  0  0  0  0  0  0  0  0  0  0  0
   37.8140   26.5380   42.7780 H   0  0  0  0  0  0  0  0  0  0  0  0
   35.9340   24.1540   38.9290 H   0  0  0  0  0  0  0  0  0  0  0  0
   37.2410   30.3920   40.5510 C   0  0  0  0  0  0  0  0  0  0  0  0
   36.7780   31.5140   39.9580 C   0  0  0  0  0  0  0  0  0  0  0  0
   35.8370   31.3320   39.4560 H   0  0  0  0  0  0  0  0  0  0  0  0
   37.4340   32.6940   40.0060 C   0  0  0  0  0  3  0  0  0  0  0  0
   38.6610   32.6630   40.7370 C   0  0  0  0  0  3  0  0  0  0  0  0
   38.7940   30.9420   41.3070 S   0  0  0  0  0  0  0  0  0  0  0  0
  1  2  2  0  0  0  0
  3  1  1  0  0  0  0
  3  7  1  0  0  0  0
  4  3  1  0  0  0  0
  5 11  1  0  0  0  0
  6  5  1  0  0  0  0
  6 12  1  0  0  0  0
  7  6  2  0  0  0  0
  8  9  2  0  0  0  0
  8  7  1  0  0  0  0
  9 10  1  0  0  0  0
 10  5  2  0  0  0  0
 13  9  1  0  0  0  0
 14  1  1  0  0  0  0
 14 19  1  0  0  0  0
 15 17  1  0  0  0  0
 15 14  2  0  0  0  0
 16 15  1  0  0  0  0
 17 18  2  0  0  0  0
 18 19  1  0  0  0  0
M  END
>  <minimizedAffinity>
-3.79667783

$$$$

 OpenBabel03252503363D

 19 20  0  0  0  0  0  0  0  0999 V2000
   37.8660   28.4930   41.8660 C   0  0  0  0  0  0  0  0  0  0  0  0
   37.3330   29.2420   42.7260 O   0  0  0  0  0  0  0  0  0  0  0  0
   38.4260   29.1590   40.7470 N   0  0  0  0  0  0  0  0  0  0  0  0
   38.8880   28.5300   40.0250 H   0  0  0  0  0  0  0  0  0  0  0  0
   39.2130   32.8000   40.9780 C   0  0  0  0  0  0  0  0  0  0  0  0
   39.3650   31.4120   41.1410 C   0  0  0  0  0  0  0  0  0  0  0  0
   38.3560   30.5750   40.6290 C   0  0  0  0  0  0  0  0  0  0  0  0
   37.2930   31.1500   40.0070 N   0  0  0  0  0  0  0  0  0  0  0  0
   37.1830   32.5000   39.8710 C   0  0  0  0  0  0  0  0  0  0  0  0
   38.1420   33.3000   40.3570 N   0  0  0  0  0  0  0  0  0  0  0  0
   40.0150   33.3940   41.3890 H   0  0  0  0  0  0  0  0  0  0  0  0
   40.1880   30.9260   41.6240 H   0  0  0  0  0  0  0  0  0  0  0  0
   36.3050   32.8850   39.3620 H   0  0  0  0  0  0  0  0  0  0  0  0
   37.8940   27.0870   42.0260 C   0  0  0  0  0  0  0  0  0  0  0  0
   37.0350   26.0460   41.9610 C   0  0  0  0  0  0  0  0  0  0  0  0
   36.0340   26.3780   41.7160 H   0  0  0  0  0  0  0  0  0  0  0  0
   37.4140   24.7680   42.1800 C   0  0  0  0  0  3  0  0  0  0  0  0
   38.7980   24.6020   42.4860 C   0  0  0  0  0  3  0  0  0  0  0  0
   39.4680   26.2910   42.4410 S   0  0  0  0  0  0  0  0  0  0  0  0
  1 14  1  0  0  0  0
  1  2  2  0  0  0  0
  3  1  1  0  0  0  0
  4  3  1  0  0  0  0
  5  6  1  0  0  0  0
  5 11  1  0  0  0  0
  6 12  1  0  0  0  0
  7  3  1  0  0  0  0
  7  6  2  0  0  0  0
  8  7  1  0  0  0  0
  9  8  2  0  0  0  0
  9 10  1  0  0  0  0
 10  5  2  0  0  0  0
 13  9  1  0  0  0  0
 14 19  1  0  0  0  0
 15 14  2  0  0  0  0
 15 17  1  0  0  0  0
 16 15  1  0  0  0  0
 17 18  2  0  0  0  0
 19 18  1  0  0  0  0
M  END
>  <minimizedAffinity>
-3.72484136

$$$$

 OpenBabel03252503363D

 19 20  0  0  0  0  0  0  0  0999 V2000
   37.5260   27.9640   40.4750 C   0  0  0  0  0  0  0  0  0  0  0  0
   38.7080   28.3420   40.2670 O   0  0  0  0  0  0  0  0  0  0  0  0
   36.5270   28.9420   40.2440 N   0  0  0  0  0  0  0  0  0  0  0  0
   35.5260   28.6220   40.4070 H   0  0  0  0  0  0  0  0  0  0  0  0
   37.3220   31.9200   38.1390 C   0  0  0  0  0  0  0  0  0  0  0  0
   36.9730   30.5970   38.4620 C   0  0  0  0  0  0  0  0  0  0  0  0
   36.8740   30.2560   39.8230 C   0  0  0  0  0  0  0  0  0  0  0  0
   37.1200   31.2200   40.7500 N   0  0  0  0  0  0  0  0  0  0  0  0
   37.4570   32.4910   40.3950 C   0  0  0  0  0  0  0  0  0  0  0  0
   37.5510   32.8180   39.0990 N   0  0  0  0  0  0  0  0  0  0  0  0
   37.3830   32.1260   37.0810 H   0  0  0  0  0  0  0  0  0  0  0  0
   36.7720   29.8140   37.7590 H   0  0  0  0  0  0  0  0  0  0  0  0
   37.6380   33.2050   41.1920 H   0  0  0  0  0  0  0  0  0  0  0  0
   37.2370   26.6480   40.9090 C   0  0  0  0  0  0  0  0  0  0  0  0
   37.2150   25.9470   42.0640 C   0  0  0  0  0  0  0  0  0  0  0  0
   37.4990   26.5670   42.9040 H   0  0  0  0  0  0  0  0  0  0  0  0
   36.8750   24.6410   42.1230 C   0  0  0  0  0  3  0  0  0  0  0  0
   36.5400   24.0560   40.8640 C   0  0  0  0  0  3  0  0  0  0  0  0
   36.7340   25.4180   39.6760 S   0  0  0  0  0  0  0  0  0  0  0  0
  1 14  1  0  0  0  0
  2  1  2  0  0  0  0
  3  4  1  0  0  0  0
  3  1  1  0  0  0  0
  5  6  2  0  0  0  0
  5 10  1  0  0  0  0
  6  7  1  0  0  0  0
  7  3  1  0  0  0  0
  7  8  2  0  0  0  0
  9  8  1  0  0  0  0
  9 13  1  0  0  0  0
 10  9  2  0  0  0  0
 11  5  1  0  0  0  0
 12  6  1  0  0  0  0
 14 15  2  0  0  0  0
 15 17  1  0  0  0  0
 15 16  1  0  0  0  0
 18 17  2  0  0  0  0
 19 18  1  0  0  0  0
 19 14  1  0  0  0  0
M  END
>  <minimizedAffinity>
-3.69515634

$$$$

 OpenBabel03252503363D

 19 20  0  0  0  0  0  0  0  0999 V2000
   35.6320   28.2480   39.2230 C   0  0  0  0  0  0  0  0  0  0  0  0
   36.7840   27.7860   39.0120 O   0  0  0  0  0  0  0  0  0  0  0  0
   35.4220   28.7860   40.5170 N   0  0  0  0  0  0  0  0  0  0  0  0
   34.4540   29.1890   40.6930 H   0  0  0  0  0  0  0  0  0  0  0  0
   37.6320   27.8060   43.3600 C   0  0  0  0  0  0  0  0  0  0  0  0
   36.5770   27.7370   42.4360 C   0  0  0  0  0  0  0  0  0  0  0  0
   36.4590   28.7730   41.4910 C   0  0  0  0  0  0  0  0  0  0  0  0
   37.3700   29.7820   41.5220 N   0  0  0  0  0  0  0  0  0  0  0  0
   38.3790   29.8120   42.4360 C   0  0  0  0  0  0  0  0  0  0  0  0
   38.4930   28.8270   43.3360 N   0  0  0  0  0  0  0  0  0  0  0  0
   37.6750   26.9870   44.0600 H   0  0  0  0  0  0  0  0  0  0  0  0
   35.8420   26.9590   42.3820 H   0  0  0  0  0  0  0  0  0  0  0  0
   39.0680   30.6500   42.3980 H   0  0  0  0  0  0  0  0  0  0  0  0
   34.6310   28.2220   38.2220 C   0  0  0  0  0  0  0  0  0  0  0  0
   33.6280   29.0100   37.7770 C   0  0  0  0  0  0  0  0  0  0  0  0
   33.5690   29.9290   38.3460 H   0  0  0  0  0  0  0  0  0  0  0  0
   32.8230   28.6620   36.7490 C   0  0  0  0  0  3  0  0  0  0  0  0
   33.1160   27.3910   36.1690 C   0  0  0  0  0  3  0  0  0  0  0  0
   34.5270   26.7760   37.1340 S   0  0  0  0  0  0  0  0  0  0  0  0
  1  3  1  0  0  0  0
  2  1  2  0  0  0  0
  3  4  1  0  0  0  0
  3  7  1  0  0  0  0
  5 11  1  0  0  0  0
  6  5  2  0  0  0  0
  7  8  2  0  0  0  0
  7  6  1  0  0  0  0
  8  9  1  0  0  0  0
  9 10  2  0  0  0  0
 10  5  1  0  0  0  0
 12  6  1  0  0  0  0
 13  9  1  0  0  0  0
 14  1  1  0  0  0  0
 15 14  2  0  0  0  0
 15 16  1  0  0  0  0
 17 15  1  0  0  0  0
 18 17  2  0  0  0  0
 18 19  1  0  0  0  0
 19 14  1  0  0  0  0
M  END
>  <minimizedAffinity>
-3.60779142

$$$$

 OpenBabel03252503363D

 19 20  0  0  0  0  0  0  0  0999 V2000
   35.6560   28.5350   40.1780 C   0  0  0  0  0  0  0  0  0  0  0  0
   34.5680   29.1630   40.1040 O   0  0  0  0  0  0  0  0  0  0  0  0
   36.0800   27.9130   38.9770 N   0  0  0  0  0  0  0  0  0  0  0  0
   37.0060   27.3930   39.0320 H   0  0  0  0  0  0  0  0  0  0  0  0
   34.6440   29.0480   35.7240 C   0  0  0  0  0  0  0  0  0  0  0  0
   35.4640   29.0430   36.8650 C   0  0  0  0  0  0  0  0  0  0  0  0
   35.2950   27.9990   37.7930 C   0  0  0  0  0  0  0  0  0  0  0  0
   34.3520   27.0540   37.5380 N   0  0  0  0  0  0  0  0  0  0  0  0
   33.5760   27.0950   36.4190 C   0  0  0  0  0  0  0  0  0  0  0  0
   33.7350   28.0880   35.5330 N   0  0  0  0  0  0  0  0  0  0  0  0
   34.8160   29.8700   35.0470 H   0  0  0  0  0  0  0  0  0  0  0  0
   36.2160   29.7700   37.0980 H   0  0  0  0  0  0  0  0  0  0  0  0
   32.8450   26.3050   36.2840 H   0  0  0  0  0  0  0  0  0  0  0  0
   36.3910   28.4680   41.3860 C   0  0  0  0  0  0  0  0  0  0  0  0
   36.4900   27.6590   42.4640 C   0  0  0  0  0  0  0  0  0  0  0  0
   35.8150   26.8170   42.3860 H   0  0  0  0  0  0  0  0  0  0  0  0
   37.3360   27.9040   43.4890 C   0  0  0  0  0  3  0  0  0  0  0  0
   38.1200   29.0880   43.3430 C   0  0  0  0  0  3  0  0  0  0  0  0
   37.5930   29.7760   41.7460 S   0  0  0  0  0  0  0  0  0  0  0  0
  1 14  1  0  0  0  0
  2  1  2  0  0  0  0
  3  4  1  0  0  0  0
  3  1  1  0  0  0  0
  5  6  1  0  0  0  0
  6 12  1  0  0  0  0
  6  7  2  0  0  0  0
  7  3  1  0  0  0  0
  8  7  1  0  0  0  0
  9  8  2  0  0  0  0
 10  5  2  0  0  0  0
 10  9  1  0  0  0  0
 11  5  1  0  0  0  0
 13  9  1  0  0  0  0
 14 19  1  0  0  0  0
 14 15  2  0  0  0  0
 15 17  1  0  0  0  0
 16 15  1  0  0  0  0
 18 17  2  0  0  0  0
 19 18  1  0  0  0  0
M  END
>  <minimizedAffinity>
-3.59630466

$$$$

 OpenBabel03252503363D

 19 20  0  0  0  0  0  0  0  0999 V2000
   36.6060   30.3910   38.1140 C   0  0  0  0  0  0  0  0  0  0  0  0
   37.5620   30.8090   37.4090 O   0  0  0  0  0  0  0  0  0  0  0  0
   36.5160   30.9580   39.4100 N   0  0  0  0  0  0  0  0  0  0  0  0
   35.7020   30.6170   40.0030 H   0  0  0  0  0  0  0  0  0  0  0  0
   38.3260   34.1610   40.0390 C   0  0  0  0  0  0  0  0  0  0  0  0
   37.3390   33.2850   39.5560 C   0  0  0  0  0  0  0  0  0  0  0  0
   37.4680   31.9170   39.8560 C   0  0  0  0  0  0  0  0  0  0  0  0
   38.5370   31.5150   40.5930 N   0  0  0  0  0  0  0  0  0  0  0  0
   39.4740   32.3960   41.0410 C   0  0  0  0  0  0  0  0  0  0  0  0
   39.3530   33.7000   40.7580 N   0  0  0  0  0  0  0  0  0  0  0  0
   38.1770   35.1970   39.7800 H   0  0  0  0  0  0  0  0  0  0  0  0
   36.4840   33.5660   38.9740 H   0  0  0  0  0  0  0  0  0  0  0  0
   40.2990   32.0000   41.6250 H   0  0  0  0  0  0  0  0  0  0  0  0
   35.6950   29.4230   37.6260 C   0  0  0  0  0  0  0  0  0  0  0  0
   34.6410   28.7110   38.0790 C   0  0  0  0  0  0  0  0  0  0  0  0
   34.4250   28.9430   39.1140 H   0  0  0  0  0  0  0  0  0  0  0  0
   33.9660   27.8290   37.3090 C   0  0  0  0  0  3  0  0  0  0  0  0
   34.4570   27.7090   35.9730 C   0  0  0  0  0  3  0  0  0  0  0  0
   35.8550   28.8680   35.9080 S   0  0  0  0  0  0  0  0  0  0  0  0
  1  3  1  0  0  0  0
  2  1  2  0  0  0  0
  3  7  1  0  0  0  0
  3  4  1  0  0  0  0
  5 10  1  0  0  0  0
  6  7  1  0  0  0  0
  6  5  2  0  0  0  0
  7  8  2  0  0  0  0
  8  9  1  0  0  0  0
  9 13  1  0  0  0  0
 10  9  2  0  0  0  0
 11  5  1  0  0  0  0
 12  6  1  0  0  0  0
 14 15  2  0  0  0  0
 14  1  1  0  0  0  0
 15 16  1  0  0  0  0
 17 15  1  0  0  0  0
 18 17  2  0  0  0  0
 19 18  1  0  0  0  0
 19 14  1  0  0  0  0
M  END
>  <minimizedAffinity>
-3.59528828

$$$$
