
 OpenBabel03252503343D

 19 20  0  0  0  0  0  0  0  0999 V2000
   46.8780   33.8990   40.5130 C   0  0  0  0  0  0  0  0  0  0  0  0
   45.7330   33.3840   40.6110 O   0  0  0  0  0  0  0  0  0  0  0  0
   47.2940   34.6690   41.6270 N   0  0  0  0  0  0  0  0  0  0  0  0
   48.2660   35.0950   41.5510 H   0  0  0  0  0  0  0  0  0  0  0  0
   44.7500   36.0150   44.0030 C   0  0  0  0  0  0  0  0  0  0  0  0
   45.5520   35.9240   42.8520 C   0  0  0  0  0  0  0  0  0  0  0  0
   46.4440   34.8410   42.7550 C   0  0  0  0  0  0  0  0  0  0  0  0
   46.4840   33.9430   43.7740 N   0  0  0  0  0  0  0  0  0  0  0  0
   45.6900   34.0670   44.8740 C   0  0  0  0  0  0  0  0  0  0  0  0
   44.8390   35.0970   44.9690 N   0  0  0  0  0  0  0  0  0  0  0  0
   44.0840   36.8640   44.0240 H   0  0  0  0  0  0  0  0  0  0  0  0
   45.5470   36.6130   42.0310 H   0  0  0  0  0  0  0  0  0  0  0  0
   45.7780   33.3100   45.6460 H   0  0  0  0  0  0  0  0  0  0  0  0
   47.6770   33.7080   39.3590 C   0  0  0  0  0  0  0  0  0  0  0  0
   47.9500   34.3500   38.2030 C   0  0  0  0  0  0  0  0  0  0  0  0
   47.4020   35.2800   38.1310 H   0  0  0  0  0  0  0  0  0  0  0  0
   48.8050   33.8630   37.2770 C   0  0  0  0  0  3  0  0  0  0  0  0
   49.3990   32.6100   37.6180 C   0  0  0  0  0  3  0  0  0  0  0  0
   48.6940   32.2120   39.2460 S   0  0  0  0  0  0  0  0  0  0  0  0
  1  2  2  0  0  0  0
  1  3  1  0  0  0  0
  3  7  1  0  0  0  0
  4  3  1  0  0  0  0
  5 11  1  0  0  0  0
  5 10  1  0  0  0  0
  6  5  2  0  0  0  0
  7  6  1  0  0  0  0
  7  8  2  0  0  0  0
  8  9  1  0  0  0  0
  9 10  2  0  0  0  0
  9 13  1  0  0  0  0
 12  6  1  0  0  0  0
 14  1  1  0  0  0  0
 15 14  2  0  0  0  0
 16 15  1  0  0  0  0
 17 18  2  0  0  0  0
 17 15  1  0  0  0  0
 18 19  1  0  0  0  0
 19 14  1  0  0  0  0
M  END
>  <minimizedAffinity>
-3.96249461

>  <minimizedRMSD>
0.661765456

$$$$
