
 OpenBabel03252503333D

 19 20  0  0  0  0  0  0  0  0999 V2000
   46.2050   33.7140   40.9510 C   0  0  0  0  0  0  0  0  0  0  0  0
   45.0740   33.2240   41.2070 O   0  0  0  0  0  0  0  0  0  0  0  0
   46.7490   34.5450   41.9620 N   0  0  0  0  0  0  0  0  0  0  0  0
   47.7090   34.9500   41.7540 H   0  0  0  0  0  0  0  0  0  0  0  0
   44.5250   36.0960   44.5270 C   0  0  0  0  0  0  0  0  0  0  0  0
   45.1970   35.9250   43.3040 C   0  0  0  0  0  0  0  0  0  0  0  0
   46.0300   34.8000   43.1630 C   0  0  0  0  0  0  0  0  0  0  0  0
   46.1410   33.9420   44.2120 N   0  0  0  0  0  0  0  0  0  0  0  0
   45.4720   34.1450   45.3810 C   0  0  0  0  0  0  0  0  0  0  0  0
   44.6780   35.2150   45.5180 N   0  0  0  0  0  0  0  0  0  0  0  0
   43.9000   36.9740   44.5800 H   0  0  0  0  0  0  0  0  0  0  0  0
   45.1330   36.5790   42.4590 H   0  0  0  0  0  0  0  0  0  0  0  0
   45.6110   33.4160   46.1730 H   0  0  0  0  0  0  0  0  0  0  0  0
   46.8710   33.4400   39.7320 C   0  0  0  0  0  0  0  0  0  0  0  0
   46.5920   33.4250   38.4100 C   0  0  0  0  0  0  0  0  0  0  0  0
   45.5630   33.7010   38.2230 H   0  0  0  0  0  0  0  0  0  0  0  0
   47.5070   33.1020   37.4700 C   0  0  0  0  0  3  0  0  0  0  0  0
   48.7970   32.7750   37.9860 C   0  0  0  0  0  3  0  0  0  0  0  0
   48.6160   32.9530   39.7860 S   0  0  0  0  0  0  0  0  0  0  0  0
  1  2  2  0  0  0  0
  1  3  1  0  0  0  0
  3  7  1  0  0  0  0
  4  3  1  0  0  0  0
  5 11  1  0  0  0  0
  5 10  1  0  0  0  0
  6  5  2  0  0  0  0
  7  6  1  0  0  0  0
  7  8  2  0  0  0  0
  8  9  1  0  0  0  0
  9 10  2  0  0  0  0
  9 13  1  0  0  0  0
 12  6  1  0  0  0  0
 14 19  1  0  0  0  0
 14  1  1  0  0  0  0
 15 14  2  0  0  0  0
 16 15  1  0  0  0  0
 17 18  2  0  0  0  0
 17 15  1  0  0  0  0
 18 19  1  0  0  0  0
M  END
>  <minimizedAffinity>
-3.7966826

>  <minimizedRMSD>
0.597920954

$$$$
