
 OpenBabel03252507473D

 34 36  0  0  0  0  0  0  0  0999 V2000
   39.3020   29.7340   42.1190 C   0  0  0  0  0  0  0  0  0  0  0  0
   39.1360   28.9870   42.9300 H   0  0  0  0  0  0  0  0  0  0  0  0
   40.1590   29.3560   41.5260 H   0  0  0  0  0  0  0  0  0  0  0  0
   38.0740   29.8230   41.3140 C   0  0  0  0  0  0  0  0  0  0  0  0
   37.0110   29.0230   41.7110 C   0  0  0  0  0  0  0  0  0  0  0  0
   35.8050   29.0210   41.0320 C   0  0  0  0  0  0  0  0  0  0  0  0
   35.7180   29.8570   39.9390 N   0  0  0  0  0  0  0  0  0  0  0  0
   36.7710   30.6250   39.5760 C   0  0  0  0  0  0  0  0  0  0  0  0
   37.9140   30.5970   40.2560 N   0  0  0  0  0  0  0  0  0  0  0  0
   34.9860   28.3890   41.3570 H   0  0  0  0  0  0  0  0  0  0  0  0
   36.6020   31.2440   38.7080 H   0  0  0  0  0  0  0  0  0  0  0  0
   37.1730   27.9440   43.1510 S   0  0  0  0  0  0  0  0  0  0  0  0
   37.8350   26.4020   42.7420 C   0  0  0  0  0  0  0  0  0  0  0  0
   37.3410   25.3160   42.0990 C   0  0  0  0  0  0  0  0  0  0  0  0
   36.3240   25.3740   41.7490 H   0  0  0  0  0  0  0  0  0  0  0  0
   38.1190   24.2090   41.9170 C   0  0  0  0  0  3  0  0  0  0  0  0
   39.4500   24.2320   42.4180 C   0  0  0  0  0  3  0  0  0  0  0  0
   39.5830   25.9510   43.1960 S   0  0  0  0  0  0  0  0  0  0  0  0
   39.7400   31.0650   42.6690 C   0  0  0  0  0  0  0  0  0  0  0  0
   38.8980   31.7550   42.8680 H   0  0  0  0  0  0  0  0  0  0  0  0
   40.1650   30.8530   43.6930 H   0  0  0  0  0  0  0  0  0  0  0  0
   40.8250   31.7160   41.9080 C   0  0  0  0  0  0  0  0  0  0  0  0
   42.1730   31.5640   42.3340 C   0  0  0  0  0  0  0  0  0  0  0  0
   43.1160   32.5350   41.0880 S   0  0  0  0  0  0  0  0  0  0  0  0
   41.4990   32.9890   40.1880 C   0  0  0  0  0  0  0  0  0  0  0  0
   40.7150   32.4550   40.8320 N   0  0  0  0  0  0  0  0  0  0  0  0
   42.5400   31.0100   43.1830 H   0  0  0  0  0  0  0  0  0  0  0  0
   41.4660   33.7810   39.0500 O   0  0  0  0  0  0  0  0  0  0  0  0
   42.6670   31.7990   37.7640 O   0  0  0  0  0  0  0  0  0  0  0  0
   41.8060   33.0390   37.5570 P   0  0  0  0  0  0  0  0  0  0  0  0
   40.3250   32.5620   36.8840 O   0  0  0  0  0  0  0  0  0  0  0  0
   40.4490   31.8540   36.2250 H   0  0  0  0  0  0  0  0  0  0  0  0
   42.5520   34.1510   36.5290 O   0  0  0  0  0  0  0  0  0  0  0  0
   41.8460   34.5590   35.9650 H   0  0  0  0  0  0  0  0  0  0  0  0
  1 19  1  0  0  0  0
  1  2  1  0  0  0  0
  3  1  1  0  0  0  0
  4  5  1  0  0  0  0
  4  1  1  0  0  0  0
  5 12  1  0  0  0  0
  6 10  1  0  0  0  0
  6  5  2  0  0  0  0
  7  6  1  0  0  0  0
  8  7  2  0  0  0  0
  8  9  1  0  0  0  0
  9  4  2  0  0  0  0
 11  8  1  0  0  0  0
 13 12  1  0  0  0  0
 13 18  1  0  0  0  0
 14 13  2  0  0  0  0
 15 14  1  0  0  0  0
 16 14  1  0  0  0  0
 16 17  2  0  0  0  0
 17 18  1  0  0  0  0
 19 20  1  0  0  0  0
 19 21  1  0  0  0  0
 22 23  2  0  0  0  0
 22 19  1  0  0  0  0
 23 27  1  0  0  0  0
 24 23  1  0  0  0  0
 25 26  2  0  0  0  0
 25 24  1  0  0  0  0
 26 22  1  0  0  0  0
 28 25  1  0  0  0  0
 30 29  2  0  0  0  0
 30 28  1  0  0  0  0
 31 30  1  0  0  0  0
 32 31  1  0  0  0  0
 33 30  1  0  0  0  0
 34 33  1  0  0  0  0
M  END
>  <minimizedAffinity>
-5.59391785

$$$$

 OpenBabel03252507473D

 34 36  0  0  0  0  0  0  0  0999 V2000
   36.6930   31.2260   40.4010 C   0  0  0  0  0  0  0  0  0  0  0  0
   35.7630   31.1850   41.0150 H   0  0  0  0  0  0  0  0  0  0  0  0
   37.5220   30.9480   41.0820 H   0  0  0  0  0  0  0  0  0  0  0  0
   36.5540   30.2720   39.2880 C   0  0  0  0  0  0  0  0  0  0  0  0
   36.2410   28.9630   39.6280 C   0  0  0  0  0  0  0  0  0  0  0  0
   36.0840   27.9770   38.6680 C   0  0  0  0  0  0  0  0  0  0  0  0
   36.2580   28.3690   37.3570 N   0  0  0  0  0  0  0  0  0  0  0  0
   36.5630   29.6520   37.0580 C   0  0  0  0  0  0  0  0  0  0  0  0
   36.7040   30.5700   38.0110 N   0  0  0  0  0  0  0  0  0  0  0  0
   35.8400   26.9600   38.9520 H   0  0  0  0  0  0  0  0  0  0  0  0
   36.6770   29.8560   36.0040 H   0  0  0  0  0  0  0  0  0  0  0  0
   36.0230   28.4990   41.3600 S   0  0  0  0  0  0  0  0  0  0  0  0
   37.4750   27.8760   42.0580 C   0  0  0  0  0  0  0  0  0  0  0  0
   37.8920   27.6930   43.3350 C   0  0  0  0  0  0  0  0  0  0  0  0
   37.2120   27.9810   44.1190 H   0  0  0  0  0  0  0  0  0  0  0  0
   39.1250   27.1660   43.5890 C   0  0  0  0  0  3  0  0  0  0  0  0
   39.9500   26.8180   42.4830 C   0  0  0  0  0  3  0  0  0  0  0  0
   38.8800   27.2810   40.9930 S   0  0  0  0  0  0  0  0  0  0  0  0
   36.9950   32.6260   39.9380 C   0  0  0  0  0  0  0  0  0  0  0  0
   36.5730   32.8590   38.9430 H   0  0  0  0  0  0  0  0  0  0  0  0
   36.4350   33.3110   40.6380 H   0  0  0  0  0  0  0  0  0  0  0  0
   38.4160   33.0130   40.0460 C   0  0  0  0  0  0  0  0  0  0  0  0
   38.7940   34.0700   40.9180 C   0  0  0  0  0  0  0  0  0  0  0  0
   40.6180   34.1600   40.6980 S   0  0  0  0  0  0  0  0  0  0  0  0
   40.5580   32.7280   39.4420 C   0  0  0  0  0  0  0  0  0  0  0  0
   39.4370   32.4890   39.4150 N   0  0  0  0  0  0  0  0  0  0  0  0
   38.1550   34.6660   41.5500 H   0  0  0  0  0  0  0  0  0  0  0  0
   41.6890   32.2280   38.8140 O   0  0  0  0  0  0  0  0  0  0  0  0
   42.5580   31.2050   36.5290 O   0  0  0  0  0  0  0  0  0  0  0  0
   41.7860   32.3760   37.1220 P   0  0  0  0  0  0  0  0  0  0  0  0
   40.2000   32.3380   36.5220 O   0  0  0  0  0  0  0  0  0  0  0  0
   40.1850   32.0790   35.5820 H   0  0  0  0  0  0  0  0  0  0  0  0
   42.4950   33.8560   36.7230 O   0  0  0  0  0  0  0  0  0  0  0  0
   41.7630   34.5050   36.5610 H   0  0  0  0  0  0  0  0  0  0  0  0
  1  2  1  0  0  0  0
  1  3  1  0  0  0  0
  4  5  1  0  0  0  0
  4  1  1  0  0  0  0
  5 12  1  0  0  0  0
  6 10  1  0  0  0  0
  6  5  2  0  0  0  0
  7  6  1  0  0  0  0
  8  7  2  0  0  0  0
  8  9  1  0  0  0  0
  9  4  2  0  0  0  0
 11  8  1  0  0  0  0
 12 13  1  0  0  0  0
 13 14  2  0  0  0  0
 14 16  1  0  0  0  0
 14 15  1  0  0  0  0
 17 16  2  0  0  0  0
 18 13  1  0  0  0  0
 18 17  1  0  0  0  0
 19 22  1  0  0  0  0
 19  1  1  0  0  0  0
 19 21  1  0  0  0  0
 20 19  1  0  0  0  0
 22 23  2  0  0  0  0
 23 27  1  0  0  0  0
 24 23  1  0  0  0  0
 25 24  1  0  0  0  0
 26 25  2  0  0  0  0
 26 22  1  0  0  0  0
 28 25  1  0  0  0  0
 29 30  2  0  0  0  0
 30 28  1  0  0  0  0
 31 30  1  0  0  0  0
 32 31  1  0  0  0  0
 33 30  1  0  0  0  0
 34 33  1  0  0  0  0
M  END
>  <minimizedAffinity>
-5.45414734

$$$$

 OpenBabel03252507473D

 34 36  0  0  0  0  0  0  0  0999 V2000
   36.7490   27.4340   42.3430 C   0  0  0  0  0  0  0  0  0  0  0  0
   36.5210   28.1880   41.5540 H   0  0  0  0  0  0  0  0  0  0  0  0
   35.8300   27.3450   42.9560 H   0  0  0  0  0  0  0  0  0  0  0  0
   37.0930   26.1650   41.6820 C   0  0  0  0  0  0  0  0  0  0  0  0
   37.3800   26.2280   40.3250 C   0  0  0  0  0  0  0  0  0  0  0  0
   37.7170   25.1010   39.5960 C   0  0  0  0  0  0  0  0  0  0  0  0
   37.7500   23.9110   40.2920 N   0  0  0  0  0  0  0  0  0  0  0  0
   37.4660   23.8810   41.6140 C   0  0  0  0  0  0  0  0  0  0  0  0
   37.1460   24.9880   42.2790 N   0  0  0  0  0  0  0  0  0  0  0  0
   37.9370   25.1700   38.5370 H   0  0  0  0  0  0  0  0  0  0  0  0
   37.5210   22.9020   42.0660 H   0  0  0  0  0  0  0  0  0  0  0  0
   37.3230   27.8120   39.4560 S   0  0  0  0  0  0  0  0  0  0  0  0
   35.7910   28.0930   38.7090 C   0  0  0  0  0  0  0  0  0  0  0  0
   34.7510   28.9120   38.9970 C   0  0  0  0  0  0  0  0  0  0  0  0
   34.8480   29.5430   39.8660 H   0  0  0  0  0  0  0  0  0  0  0  0
   33.6380   28.9200   38.2060 C   0  0  0  0  0  3  0  0  0  0  0  0
   33.6070   28.0490   37.0810 C   0  0  0  0  0  3  0  0  0  0  0  0
   35.2800   27.1720   37.1750 S   0  0  0  0  0  0  0  0  0  0  0  0
   37.8230   27.9160   43.2810 C   0  0  0  0  0  0  0  0  0  0  0  0
   37.4400   28.1850   44.2830 H   0  0  0  0  0  0  0  0  0  0  0  0
   38.4890   27.0250   43.4730 H   0  0  0  0  0  0  0  0  0  0  0  0
   38.7010   28.9620   42.7200 C   0  0  0  0  0  0  0  0  0  0  0  0
   40.1130   28.8270   42.8210 C   0  0  0  0  0  0  0  0  0  0  0  0
   40.7380   30.3460   41.9930 S   0  0  0  0  0  0  0  0  0  0  0  0
   38.9530   30.9160   41.6450 C   0  0  0  0  0  0  0  0  0  0  0  0
   38.3420   30.0620   42.1050 N   0  0  0  0  0  0  0  0  0  0  0  0
   40.6680   28.0220   43.2760 H   0  0  0  0  0  0  0  0  0  0  0  0
   38.6540   32.0990   40.9860 O   0  0  0  0  0  0  0  0  0  0  0  0
   37.3950   31.3590   38.7740 O   0  0  0  0  0  0  0  0  0  0  0  0
   37.2260   32.1530   40.0630 P   0  0  0  0  0  0  0  0  0  0  0  0
   36.0030   31.4290   40.9880 O   0  0  0  0  0  0  0  0  0  0  0  0
   35.2700   31.1210   40.4230 H   0  0  0  0  0  0  0  0  0  0  0  0
   36.8120   33.7610   39.7550 O   0  0  0  0  0  0  0  0  0  0  0  0
   36.1630   34.0420   40.4510 H   0  0  0  0  0  0  0  0  0  0  0  0
  1  3  1  0  0  0  0
  1 19  1  0  0  0  0
  2  1  1  0  0  0  0
  4  9  1  0  0  0  0
  4  1  1  0  0  0  0
  5  4  2  0  0  0  0
  6  7  2  0  0  0  0
  6  5  1  0  0  0  0
  7  8  1  0  0  0  0
  8 11  1  0  0  0  0
  8  9  2  0  0  0  0
 10  6  1  0  0  0  0
 12  5  1  0  0  0  0
 13 14  2  0  0  0  0
 13 12  1  0  0  0  0
 14 15  1  0  0  0  0
 16 14  1  0  0  0  0
 17 18  1  0  0  0  0
 17 16  2  0  0  0  0
 18 13  1  0  0  0  0
 19 21  1  0  0  0  0
 19 20  1  0  0  0  0
 22 23  2  0  0  0  0
 22 19  1  0  0  0  0
 23 27  1  0  0  0  0
 24 23  1  0  0  0  0
 25 24  1  0  0  0  0
 25 26  2  0  0  0  0
 26 22  1  0  0  0  0
 28 25  1  0  0  0  0
 29 30  2  0  0  0  0
 30 28  1  0  0  0  0
 30 31  1  0  0  0  0
 32 31  1  0  0  0  0
 33 30  1  0  0  0  0
 33 34  1  0  0  0  0
M  END
>  <minimizedAffinity>
-5.42742825

$$$$

 OpenBabel03252507473D

 34 36  0  0  0  0  0  0  0  0999 V2000
   37.1990   29.6110   39.8640 C   0  0  0  0  0  0  0  0  0  0  0  0
   38.1560   29.5220   39.2970 H   0  0  0  0  0  0  0  0  0  0  0  0
   36.4290   29.1080   39.2460 H   0  0  0  0  0  0  0  0  0  0  0  0
   37.3730   28.9500   41.1680 C   0  0  0  0  0  0  0  0  0  0  0  0
   37.1190   27.5860   41.2120 C   0  0  0  0  0  0  0  0  0  0  0  0
   37.2490   26.8560   42.3810 C   0  0  0  0  0  0  0  0  0  0  0  0
   37.6440   27.5600   43.5000 N   0  0  0  0  0  0  0  0  0  0  0  0
   37.8840   28.8890   43.4250 C   0  0  0  0  0  0  0  0  0  0  0  0
   37.7480   29.5540   42.2810 N   0  0  0  0  0  0  0  0  0  0  0  0
   37.0450   25.7920   42.3970 H   0  0  0  0  0  0  0  0  0  0  0  0
   38.1880   29.3460   44.3540 H   0  0  0  0  0  0  0  0  0  0  0  0
   36.6040   26.7070   39.7200 S   0  0  0  0  0  0  0  0  0  0  0  0
   37.1020   25.0530   39.7300 C   0  0  0  0  0  0  0  0  0  0  0  0
   36.4350   23.8800   39.8560 C   0  0  0  0  0  0  0  0  0  0  0  0
   35.3660   23.9330   39.9790 H   0  0  0  0  0  0  0  0  0  0  0  0
   37.1120   22.6940   39.8260 C   0  0  0  0  0  3  0  0  0  0  0  0
   38.5250   22.7300   39.6600 C   0  0  0  0  0  3  0  0  0  0  0  0
   38.8920   24.5820   39.5410 S   0  0  0  0  0  0  0  0  0  0  0  0
   36.7550   31.0430   39.9880 C   0  0  0  0  0  0  0  0  0  0  0  0
   35.9330   31.3080   39.2970 H   0  0  0  0  0  0  0  0  0  0  0  0
   36.2910   31.1360   41.0120 H   0  0  0  0  0  0  0  0  0  0  0  0
   37.8530   32.0300   39.9520 C   0  0  0  0  0  0  0  0  0  0  0  0
   37.6430   33.3370   40.4690 C   0  0  0  0  0  0  0  0  0  0  0  0
   39.2670   34.1590   40.1990 S   0  0  0  0  0  0  0  0  0  0  0  0
   39.9660   32.5670   39.4190 C   0  0  0  0  0  0  0  0  0  0  0  0
   39.0640   31.8610   39.4830 N   0  0  0  0  0  0  0  0  0  0  0  0
   36.7440   33.7370   40.9110 H   0  0  0  0  0  0  0  0  0  0  0  0
   41.2640   32.4670   38.9430 O   0  0  0  0  0  0  0  0  0  0  0  0
   42.2470   31.1810   36.8440 O   0  0  0  0  0  0  0  0  0  0  0  0
   41.4910   32.4380   37.2570 P   0  0  0  0  0  0  0  0  0  0  0  0
   39.9540   32.4040   36.5440 O   0  0  0  0  0  0  0  0  0  0  0  0
   39.9940   32.0520   35.6350 H   0  0  0  0  0  0  0  0  0  0  0  0
   42.2990   33.8390   36.7710 O   0  0  0  0  0  0  0  0  0  0  0  0
   41.6130   34.4980   36.4900 H   0  0  0  0  0  0  0  0  0  0  0  0
  1 19  1  0  0  0  0
  1  4  1  0  0  0  0
  2  1  1  0  0  0  0
  3  1  1  0  0  0  0
  4  5  2  0  0  0  0
  4  9  1  0  0  0  0
  5  6  1  0  0  0  0
  6 10  1  0  0  0  0
  6  7  2  0  0  0  0
  8  7  1  0  0  0  0
  8 11  1  0  0  0  0
  9  8  2  0  0  0  0
 12 13  1  0  0  0  0
 12  5  1  0  0  0  0
 13 14  2  0  0  0  0
 14 15  1  0  0  0  0
 16 14  1  0  0  0  0
 17 16  2  0  0  0  0
 18 17  1  0  0  0  0
 18 13  1  0  0  0  0
 19 21  1  0  0  0  0
 20 19  1  0  0  0  0
 22 19  1  0  0  0  0
 22 23  2  0  0  0  0
 23 27  1  0  0  0  0
 24 23  1  0  0  0  0
 25 26  2  0  0  0  0
 25 24  1  0  0  0  0
 26 22  1  0  0  0  0
 28 25  1  0  0  0  0
 29 30  2  0  0  0  0
 30 28  1  0  0  0  0
 31 30  1  0  0  0  0
 32 31  1  0  0  0  0
 33 30  1  0  0  0  0
 34 33  1  0  0  0  0
M  END
>  <minimizedAffinity>
-5.38838005

$$$$

 OpenBabel03252507473D

 34 36  0  0  0  0  0  0  0  0999 V2000
   37.3740   27.3460   43.1850 C   0  0  0  0  0  0  0  0  0  0  0  0
   36.7750   27.0020   42.3090 H   0  0  0  0  0  0  0  0  0  0  0  0
   36.7690   27.1060   44.0830 H   0  0  0  0  0  0  0  0  0  0  0  0
   38.6560   26.6230   43.1800 C   0  0  0  0  0  0  0  0  0  0  0  0
   38.6560   25.3610   42.6030 C   0  0  0  0  0  0  0  0  0  0  0  0
   39.8020   24.5870   42.5390 C   0  0  0  0  0  0  0  0  0  0  0  0
   40.9430   25.1400   43.0810 N   0  0  0  0  0  0  0  0  0  0  0  0
   40.9120   26.3720   43.6370 C   0  0  0  0  0  0  0  0  0  0  0  0
   39.7890   27.0850   43.6780 N   0  0  0  0  0  0  0  0  0  0  0  0
   39.7830   23.6030   42.0850 H   0  0  0  0  0  0  0  0  0  0  0  0
   41.8560   26.7150   44.0320 H   0  0  0  0  0  0  0  0  0  0  0  0
   37.1350   24.6790   41.9050 S   0  0  0  0  0  0  0  0  0  0  0  0
   36.9380   25.0890   40.2390 C   0  0  0  0  0  0  0  0  0  0  0  0
   36.0860   24.6730   39.2710 C   0  0  0  0  0  0  0  0  0  0  0  0
   35.3560   23.9300   39.5460 H   0  0  0  0  0  0  0  0  0  0  0  0
   36.1690   25.1890   38.0090 C   0  0  0  0  0  3  0  0  0  0  0  0
   37.1690   26.1670   37.7470 C   0  0  0  0  0  3  0  0  0  0  0  0
   38.0360   26.3490   39.4180 S   0  0  0  0  0  0  0  0  0  0  0  0
   37.5440   28.8410   43.1920 C   0  0  0  0  0  0  0  0  0  0  0  0
   36.9590   29.3450   43.9840 H   0  0  0  0  0  0  0  0  0  0  0  0
   38.6170   29.0300   43.4840 H   0  0  0  0  0  0  0  0  0  0  0  0
   37.3650   29.4830   41.8740 C   0  0  0  0  0  0  0  0  0  0  0  0
   36.1900   29.2240   41.1170 C   0  0  0  0  0  0  0  0  0  0  0  0
   36.4400   30.2320   39.5990 S   0  0  0  0  0  0  0  0  0  0  0  0
   38.1210   30.8440   40.2570 C   0  0  0  0  0  0  0  0  0  0  0  0
   38.1840   30.3070   41.2690 N   0  0  0  0  0  0  0  0  0  0  0  0
   35.3610   28.5880   41.3820 H   0  0  0  0  0  0  0  0  0  0  0  0
   38.9340   31.7190   39.5530 O   0  0  0  0  0  0  0  0  0  0  0  0
   40.1350   34.0800   39.4520 O   0  0  0  0  0  0  0  0  0  0  0  0
   38.9130   33.3590   40.0070 P   0  0  0  0  0  0  0  0  0  0  0  0
   37.5220   34.0510   39.3280 O   0  0  0  0  0  0  0  0  0  0  0  0
   37.6110   35.0190   39.2520 H   0  0  0  0  0  0  0  0  0  0  0  0
   38.8290   33.4790   41.6900 O   0  0  0  0  0  0  0  0  0  0  0  0
   37.8740   33.5820   41.9350 H   0  0  0  0  0  0  0  0  0  0  0  0
  1 19  1  0  0  0  0
  1  3  1  0  0  0  0
  2  1  1  0  0  0  0
  4  1  1  0  0  0  0
  4  9  1  0  0  0  0
  5  4  2  0  0  0  0
  6  5  1  0  0  0  0
  6  7  2  0  0  0  0
  7  8  1  0  0  0  0
  8  9  2  0  0  0  0
  8 11  1  0  0  0  0
 10  6  1  0  0  0  0
 12  5  1  0  0  0  0
 13 12  1  0  0  0  0
 14 15  1  0  0  0  0
 14 13  2  0  0  0  0
 16 14  1  0  0  0  0
 17 16  2  0  0  0  0
 17 18  1  0  0  0  0
 18 13  1  0  0  0  0
 19 21  1  0  0  0  0
 19 20  1  0  0  0  0
 22 19  1  0  0  0  0
 23 27  1  0  0  0  0
 23 22  2  0  0  0  0
 24 25  1  0  0  0  0
 24 23  1  0  0  0  0
 25 26  2  0  0  0  0
 26 22  1  0  0  0  0
 28 30  1  0  0  0  0
 28 25  1  0  0  0  0
 29 30  2  0  0  0  0
 30 33  1  0  0  0  0
 31 30  1  0  0  0  0
 32 31  1  0  0  0  0
 33 34  1  0  0  0  0
M  END
>  <minimizedAffinity>
-5.18830538

$$$$

 OpenBabel03252507473D

 34 36  0  0  0  0  0  0  0  0999 V2000
   35.9690   30.3730   40.5130 C   0  0  0  0  0  0  0  0  0  0  0  0
   36.7830   30.7560   41.1740 H   0  0  0  0  0  0  0  0  0  0  0  0
   35.0900   31.0190   40.7050 H   0  0  0  0  0  0  0  0  0  0  0  0
   36.4260   30.4670   39.1170 C   0  0  0  0  0  0  0  0  0  0  0  0
   37.2600   31.5330   38.8070 C   0  0  0  0  0  0  0  0  0  0  0  0
   37.7540   31.7270   37.5290 C   0  0  0  0  0  0  0  0  0  0  0  0
   37.3710   30.8010   36.5800 N   0  0  0  0  0  0  0  0  0  0  0  0
   36.5580   29.7730   36.9130 C   0  0  0  0  0  0  0  0  0  0  0  0
   36.1050   29.6230   38.1550 N   0  0  0  0  0  0  0  0  0  0  0  0
   38.4030   32.5650   37.3050 H   0  0  0  0  0  0  0  0  0  0  0  0
   36.3180   29.1040   36.1000 H   0  0  0  0  0  0  0  0  0  0  0  0
   37.7340   32.7200   40.0850 S   0  0  0  0  0  0  0  0  0  0  0  0
   39.2990   32.3900   40.7360 C   0  0  0  0  0  0  0  0  0  0  0  0
   39.7690   31.4690   41.6120 C   0  0  0  0  0  0  0  0  0  0  0  0
   39.0570   30.7700   42.0190 H   0  0  0  0  0  0  0  0  0  0  0  0
   41.0920   31.4490   41.9490 C   0  0  0  0  0  3  0  0  0  0  0  0
   41.9520   32.4150   41.3560 C   0  0  0  0  0  3  0  0  0  0  0  0
   40.7810   33.4080   40.2520 S   0  0  0  0  0  0  0  0  0  0  0  0
   35.5470   28.9810   40.8990 C   0  0  0  0  0  0  0  0  0  0  0  0
   34.5320   28.9370   41.3370 H   0  0  0  0  0  0  0  0  0  0  0  0
   35.4510   28.4070   39.9320 H   0  0  0  0  0  0  0  0  0  0  0  0
   36.5370   28.2420   41.7080 C   0  0  0  0  0  0  0  0  0  0  0  0
   37.3710   28.9480   42.6170 C   0  0  0  0  0  0  0  0  0  0  0  0
   38.3980   27.6170   43.3630 S   0  0  0  0  0  0  0  0  0  0  0  0
   37.5090   26.3080   42.3000 C   0  0  0  0  0  0  0  0  0  0  0  0
   36.7680   26.9530   41.7080 N   0  0  0  0  0  0  0  0  0  0  0  0
   37.3870   30.0090   42.8120 H   0  0  0  0  0  0  0  0  0  0  0  0
   37.8130   24.9560   42.3570 O   0  0  0  0  0  0  0  0  0  0  0  0
   36.0290   23.7710   40.7960 O   0  0  0  0  0  0  0  0  0  0  0  0
   37.5220   24.0190   40.9670 P   0  0  0  0  0  0  0  0  0  0  0  0
   38.0790   24.9090   39.6360 O   0  0  0  0  0  0  0  0  0  0  0  0
   37.6550   24.6110   38.8100 H   0  0  0  0  0  0  0  0  0  0  0  0
   38.3870   22.5720   41.0690 O   0  0  0  0  0  0  0  0  0  0  0  0
   39.2450   22.7010   40.5880 H   0  0  0  0  0  0  0  0  0  0  0  0
  1  3  1  0  0  0  0
  1 19  1  0  0  0  0
  1  2  1  0  0  0  0
  4  1  1  0  0  0  0
  5  4  1  0  0  0  0
  5 12  1  0  0  0  0
  6  5  2  0  0  0  0
  7  8  2  0  0  0  0
  7  6  1  0  0  0  0
  8  9  1  0  0  0  0
  9  4  2  0  0  0  0
 10  6  1  0  0  0  0
 11  8  1  0  0  0  0
 12 13  1  0  0  0  0
 13 14  2  0  0  0  0
 14 16  1  0  0  0  0
 14 15  1  0  0  0  0
 17 16  2  0  0  0  0
 18 13  1  0  0  0  0
 18 17  1  0  0  0  0
 19 20  1  0  0  0  0
 19 22  1  0  0  0  0
 21 19  1  0  0  0  0
 22 23  2  0  0  0  0
 23 27  1  0  0  0  0
 23 24  1  0  0  0  0
 25 28  1  0  0  0  0
 25 24  1  0  0  0  0
 26 22  1  0  0  0  0
 26 25  2  0  0  0  0
 29 30  2  0  0  0  0
 30 33  1  0  0  0  0
 30 28  1  0  0  0  0
 31 30  1  0  0  0  0
 32 31  1  0  0  0  0
 34 33  1  0  0  0  0
M  END
>  <minimizedAffinity>
-5.11193657

$$$$

 OpenBabel03252507473D

 34 36  0  0  0  0  0  0  0  0999 V2000
   37.0110   29.5100   39.9000 C   0  0  0  0  0  0  0  0  0  0  0  0
   36.4260   30.3120   39.3910 H   0  0  0  0  0  0  0  0  0  0  0  0
   36.2800   28.9300   40.4970 H   0  0  0  0  0  0  0  0  0  0  0  0
   37.6550   28.6830   38.8670 C   0  0  0  0  0  0  0  0  0  0  0  0
   37.6820   27.3140   39.0950 C   0  0  0  0  0  0  0  0  0  0  0  0
   38.2600   26.4340   38.1950 C   0  0  0  0  0  0  0  0  0  0  0  0
   38.8070   26.9950   37.0590 N   0  0  0  0  0  0  0  0  0  0  0  0
   38.7650   28.3330   36.8650 C   0  0  0  0  0  0  0  0  0  0  0  0
   38.2000   29.1440   37.7560 N   0  0  0  0  0  0  0  0  0  0  0  0
   38.2730   25.3680   38.3900 H   0  0  0  0  0  0  0  0  0  0  0  0
   39.2190   28.6710   35.9460 H   0  0  0  0  0  0  0  0  0  0  0  0
   36.9520   26.6260   40.5980 S   0  0  0  0  0  0  0  0  0  0  0  0
   38.1420   26.2580   41.7940 C   0  0  0  0  0  0  0  0  0  0  0  0
   38.6060   26.9190   42.8820 C   0  0  0  0  0  0  0  0  0  0  0  0
   38.1760   27.8850   43.0900 H   0  0  0  0  0  0  0  0  0  0  0  0
   39.5790   26.3650   43.6640 C   0  0  0  0  0  3  0  0  0  0  0  0
   40.0830   25.0840   43.3040 C   0  0  0  0  0  3  0  0  0  0  0  0
   39.0950   24.6590   41.7480 S   0  0  0  0  0  0  0  0  0  0  0  0
   37.9920   30.0780   40.8900 C   0  0  0  0  0  0  0  0  0  0  0  0
   37.5960   30.1200   41.9230 H   0  0  0  0  0  0  0  0  0  0  0  0
   38.8370   29.3330   40.9520 H   0  0  0  0  0  0  0  0  0  0  0  0
   38.6090   31.3550   40.4780 C   0  0  0  0  0  0  0  0  0  0  0  0
   37.8900   32.5710   40.6420 C   0  0  0  0  0  0  0  0  0  0  0  0
   39.0580   33.8360   39.9970 S   0  0  0  0  0  0  0  0  0  0  0  0
   40.3420   32.4830   39.6070 C   0  0  0  0  0  0  0  0  0  0  0  0
   39.7950   31.5360   39.9510 N   0  0  0  0  0  0  0  0  0  0  0  0
   36.9000   32.7030   41.0490 H   0  0  0  0  0  0  0  0  0  0  0  0
   41.5810   32.7570   39.0470 O   0  0  0  0  0  0  0  0  0  0  0  0
   42.6540   31.4710   36.9930 O   0  0  0  0  0  0  0  0  0  0  0  0
   41.7320   32.6280   37.3570 P   0  0  0  0  0  0  0  0  0  0  0  0
   40.1880   32.3050   36.7380 O   0  0  0  0  0  0  0  0  0  0  0  0
   40.2400   31.8910   35.8560 H   0  0  0  0  0  0  0  0  0  0  0  0
   42.2900   34.0910   36.7250 O   0  0  0  0  0  0  0  0  0  0  0  0
   41.4980   34.6140   36.4370 H   0  0  0  0  0  0  0  0  0  0  0  0
  1  3  1  0  0  0  0
  1 19  1  0  0  0  0
  2  1  1  0  0  0  0
  4  5  1  0  0  0  0
  4  1  1  0  0  0  0
  5 12  1  0  0  0  0
  6 10  1  0  0  0  0
  6  5  2  0  0  0  0
  7  6  1  0  0  0  0
  8  7  2  0  0  0  0
  8  9  1  0  0  0  0
  9  4  2  0  0  0  0
 11  8  1  0  0  0  0
 12 13  1  0  0  0  0
 13 14  2  0  0  0  0
 14 15  1  0  0  0  0
 14 16  1  0  0  0  0
 17 16  2  0  0  0  0
 18 13  1  0  0  0  0
 18 17  1  0  0  0  0
 19 21  1  0  0  0  0
 19 20  1  0  0  0  0
 22 23  2  0  0  0  0
 22 19  1  0  0  0  0
 23 27  1  0  0  0  0
 24 23  1  0  0  0  0
 25 26  2  0  0  0  0
 25 24  1  0  0  0  0
 26 22  1  0  0  0  0
 28 25  1  0  0  0  0
 29 30  2  0  0  0  0
 30 28  1  0  0  0  0
 31 30  1  0  0  0  0
 32 31  1  0  0  0  0
 33 30  1  0  0  0  0
 34 33  1  0  0  0  0
M  END
>  <minimizedAffinity>
-5.07969952

$$$$

 OpenBabel03252507473D

 34 36  0  0  0  0  0  0  0  0999 V2000
   37.7720   28.5170   42.4260 C   0  0  0  0  0  0  0  0  0  0  0  0
   37.1890   28.4600   41.4760 H   0  0  0  0  0  0  0  0  0  0  0  0
   37.0300   28.6960   43.2300 H   0  0  0  0  0  0  0  0  0  0  0  0
   38.4820   27.2410   42.6080 C   0  0  0  0  0  0  0  0  0  0  0  0
   38.2180   26.2450   41.6790 C   0  0  0  0  0  0  0  0  0  0  0  0
   38.8260   25.0030   41.7460 C   0  0  0  0  0  0  0  0  0  0  0  0
   39.7090   24.8110   42.7890 N   0  0  0  0  0  0  0  0  0  0  0  0
   39.9460   25.8020   43.6790 C   0  0  0  0  0  0  0  0  0  0  0  0
   39.3400   26.9820   43.5780 N   0  0  0  0  0  0  0  0  0  0  0  0
   38.6070   24.2360   41.0120 H   0  0  0  0  0  0  0  0  0  0  0  0
   40.6520   25.5520   44.4560 H   0  0  0  0  0  0  0  0  0  0  0  0
   37.0540   26.5430   40.3290 S   0  0  0  0  0  0  0  0  0  0  0  0
   37.8060   27.3020   38.9720 C   0  0  0  0  0  0  0  0  0  0  0  0
   37.6620   28.5140   38.3840 C   0  0  0  0  0  0  0  0  0  0  0  0
   36.9380   29.1860   38.8150 H   0  0  0  0  0  0  0  0  0  0  0  0
   38.4130   28.8460   37.2930 C   0  0  0  0  0  3  0  0  0  0  0  0
   39.3430   27.8880   36.8000 C   0  0  0  0  0  3  0  0  0  0  0  0
   39.1150   26.4270   37.9790 S   0  0  0  0  0  0  0  0  0  0  0  0
   38.6920   29.7080   42.4440 C   0  0  0  0  0  0  0  0  0  0  0  0
   38.7640   30.1900   43.4370 H   0  0  0  0  0  0  0  0  0  0  0  0
   39.7290   29.3020   42.2630 H   0  0  0  0  0  0  0  0  0  0  0  0
   38.4480   30.6870   41.3660 C   0  0  0  0  0  0  0  0  0  0  0  0
   37.1180   30.9480   40.9390 C   0  0  0  0  0  0  0  0  0  0  0  0
   37.3430   32.2060   39.6160 S   0  0  0  0  0  0  0  0  0  0  0  0
   39.2310   32.1650   39.8690 C   0  0  0  0  0  0  0  0  0  0  0  0
   39.3360   31.3920   40.7100 N   0  0  0  0  0  0  0  0  0  0  0  0
   36.2060   30.5080   41.3110 H   0  0  0  0  0  0  0  0  0  0  0  0
   40.1090   32.9430   39.1300 O   0  0  0  0  0  0  0  0  0  0  0  0
   41.2020   30.9120   37.8250 O   0  0  0  0  0  0  0  0  0  0  0  0
   40.6600   32.3240   37.6450 P   0  0  0  0  0  0  0  0  0  0  0  0
   39.3260   32.2620   36.6000 O   0  0  0  0  0  0  0  0  0  0  0  0
   39.4740   31.6260   35.8760 H   0  0  0  0  0  0  0  0  0  0  0  0
   41.8250   33.3610   36.9970 O   0  0  0  0  0  0  0  0  0  0  0  0
   41.3650   33.9750   36.3690 H   0  0  0  0  0  0  0  0  0  0  0  0
  1 19  1  0  0  0  0
  1  4  1  0  0  0  0
  1  3  1  0  0  0  0
  2  1  1  0  0  0  0
  4  9  1  0  0  0  0
  5  6  1  0  0  0  0
  5  4  2  0  0  0  0
  6  7  2  0  0  0  0
  7  8  1  0  0  0  0
  8 11  1  0  0  0  0
  9  8  2  0  0  0  0
 10  6  1  0  0  0  0
 12  5  1  0  0  0  0
 13 12  1  0  0  0  0
 14 15  1  0  0  0  0
 14 13  2  0  0  0  0
 16 14  1  0  0  0  0
 17 16  2  0  0  0  0
 17 18  1  0  0  0  0
 18 13  1  0  0  0  0
 19 20  1  0  0  0  0
 21 19  1  0  0  0  0
 22 19  1  0  0  0  0
 23 27  1  0  0  0  0
 23 22  2  0  0  0  0
 24 25  1  0  0  0  0
 24 23  1  0  0  0  0
 25 26  2  0  0  0  0
 26 22  1  0  0  0  0
 28 25  1  0  0  0  0
 30 29  2  0  0  0  0
 30 28  1  0  0  0  0
 31 30  1  0  0  0  0
 32 31  1  0  0  0  0
 33 30  1  0  0  0  0
 34 33  1  0  0  0  0
M  END
>  <minimizedAffinity>
-4.99862719

$$$$

 OpenBabel03252507473D

 34 36  0  0  0  0  0  0  0  0999 V2000
   39.3330   29.4810   42.1430 C   0  0  0  0  0  0  0  0  0  0  0  0
   39.1330   29.2780   41.0650 H   0  0  0  0  0  0  0  0  0  0  0  0
   38.3410   29.5560   42.6310 H   0  0  0  0  0  0  0  0  0  0  0  0
   40.1270   28.3650   42.6830 C   0  0  0  0  0  0  0  0  0  0  0  0
   39.4520   27.1710   42.9000 C   0  0  0  0  0  0  0  0  0  0  0  0
   40.0920   26.0520   43.4040 C   0  0  0  0  0  0  0  0  0  0  0  0
   41.4370   26.1890   43.6790 N   0  0  0  0  0  0  0  0  0  0  0  0
   42.0660   27.3650   43.4560 C   0  0  0  0  0  0  0  0  0  0  0  0
   41.4140   28.4180   42.9700 N   0  0  0  0  0  0  0  0  0  0  0  0
   39.5480   25.1280   43.5690 H   0  0  0  0  0  0  0  0  0  0  0  0
   43.1170   27.3690   43.7020 H   0  0  0  0  0  0  0  0  0  0  0  0
   37.6890   27.0400   42.5250 S   0  0  0  0  0  0  0  0  0  0  0  0
   37.3870   26.9380   40.8280 C   0  0  0  0  0  0  0  0  0  0  0  0
   36.3840   27.3820   40.0310 C   0  0  0  0  0  0  0  0  0  0  0  0
   35.5790   27.9170   40.5070 H   0  0  0  0  0  0  0  0  0  0  0  0
   36.4160   27.1470   38.6860 C   0  0  0  0  0  3  0  0  0  0  0  0
   37.5240   26.4300   38.1540 C   0  0  0  0  0  3  0  0  0  0  0  0
   38.5770   26.0770   39.6850 S   0  0  0  0  0  0  0  0  0  0  0  0
   39.9920   30.8190   42.3460 C   0  0  0  0  0  0  0  0  0  0  0  0
   39.9050   31.1980   43.3810 H   0  0  0  0  0  0  0  0  0  0  0  0
   41.0980   30.6430   42.2120 H   0  0  0  0  0  0  0  0  0  0  0  0
   39.6220   31.8410   41.3450 C   0  0  0  0  0  0  0  0  0  0  0  0
   38.2620   32.2330   41.2080 C   0  0  0  0  0  0  0  0  0  0  0  0
   38.3240   33.4940   39.8700 S   0  0  0  0  0  0  0  0  0  0  0  0
   40.2110   33.2730   39.7210 C   0  0  0  0  0  0  0  0  0  0  0  0
   40.4160   32.4750   40.5190 N   0  0  0  0  0  0  0  0  0  0  0  0
   37.4110   31.8710   41.7620 H   0  0  0  0  0  0  0  0  0  0  0  0
   40.9850   33.9840   38.8160 O   0  0  0  0  0  0  0  0  0  0  0  0
   42.9160   32.2360   38.3230 O   0  0  0  0  0  0  0  0  0  0  0  0
   41.8560   33.1000   37.6520 P   0  0  0  0  0  0  0  0  0  0  0  0
   40.7520   32.0840   36.8630 O   0  0  0  0  0  0  0  0  0  0  0  0
   41.2040   31.3300   36.4410 H   0  0  0  0  0  0  0  0  0  0  0  0
   42.5370   34.1610   36.5280 O   0  0  0  0  0  0  0  0  0  0  0  0
   41.9140   34.2230   35.7590 H   0  0  0  0  0  0  0  0  0  0  0  0
  1 19  1  0  0  0  0
  1  3  1  0  0  0  0
  1  4  1  0  0  0  0
  2  1  1  0  0  0  0
  4  5  2  0  0  0  0
  4  9  1  0  0  0  0
  5  6  1  0  0  0  0
  6 10  1  0  0  0  0
  6  7  2  0  0  0  0
  8  7  1  0  0  0  0
  8 11  1  0  0  0  0
  9  8  2  0  0  0  0
 12  5  1  0  0  0  0
 13 12  1  0  0  0  0
 14 15  1  0  0  0  0
 14 13  2  0  0  0  0
 16 14  1  0  0  0  0
 17 16  2  0  0  0  0
 17 18  1  0  0  0  0
 18 13  1  0  0  0  0
 19 20  1  0  0  0  0
 21 19  1  0  0  0  0
 22 19  1  0  0  0  0
 23 22  2  0  0  0  0
 23 27  1  0  0  0  0
 24 23  1  0  0  0  0
 25 24  1  0  0  0  0
 25 26  2  0  0  0  0
 26 22  1  0  0  0  0
 28 25  1  0  0  0  0
 30 29  2  0  0  0  0
 30 28  1  0  0  0  0
 31 30  1  0  0  0  0
 32 31  1  0  0  0  0
 33 30  1  0  0  0  0
 34 33  1  0  0  0  0
M  END
>  <minimizedAffinity>
-4.97602749

$$$$
