
 OpenBabel03252508023D

 39 42  0  0  1  0  0  0  0  0999 V2000
   44.2260   34.3570   41.5350 C   0  0  0  0  0  0  0  0  0  0  0  0
   45.1010   34.2430   40.6180 O   0  0  0  0  0  0  0  0  0  0  0  0
   42.0210   33.2860   41.1180 C   0  0  0  0  0  0  0  0  0  0  0  0
   42.7790   34.4070   41.3070 C   0  0  0  0  0  0  0  0  0  0  0  0
   42.1300   35.6570   41.2780 C   0  0  0  0  0  0  0  0  0  0  0  0
   40.7850   35.8080   41.0710 C   0  0  0  0  0  0  0  0  0  0  0  0
   40.0260   34.6820   40.8820 C   0  0  0  0  0  0  0  0  0  0  0  0
   40.6460   33.4660   40.9090 C   0  0  0  0  0  0  0  0  0  0  0  0
   42.6520   36.5950   41.4080 H   0  0  0  0  0  0  0  0  0  0  0  0
   40.2870   36.7480   41.0460 H   0  0  0  0  0  0  0  0  0  0  0  0
   38.9600   34.6510   40.7100 H   0  0  0  0  0  0  0  0  0  0  0  0
   40.0820   32.5460   40.7650 H   0  0  0  0  0  0  0  0  0  0  0  0
   42.7010   31.7230   41.2080 S   0  0  0  0  0  0  0  0  0  0  0  0
   41.5560   30.9020   40.5260 O   0  0  0  0  0  0  0  0  0  0  0  0
   42.7910   31.2420   42.6110 O   0  0  0  0  0  0  0  0  0  0  0  0
   43.7530   31.0070   40.1970 C   0  0  0  0  0  0  0  0  0  0  0  0
   44.8130   30.0520   40.0510 C   0  0  0  0  0  0  0  0  0  0  0  0
   45.0560   29.5690   40.9810 H   0  0  0  0  0  0  0  0  0  0  0  0
   45.4050   29.8720   38.8820 C   0  0  0  0  0  3  0  0  0  0  0  0
   45.0350   30.5900   37.7700 C   0  0  0  0  0  3  0  0  0  0  0  0
   43.7360   31.6280   38.3690 S   0  0  0  0  0  0  0  0  0  0  0  0
   44.5740   34.4530   42.9270 C   0  0  0  0  0  0  0  0  0  0  0  0
   44.3010   35.7160   43.5550 C   0  0  0  0  0  0  0  0  0  0  0  0
   44.6290   35.8220   44.8960 C   0  0  0  0  0  0  0  0  0  0  0  0
   45.1770   34.7480   45.5240 N   0  0  0  0  0  0  0  0  0  0  0  0
   45.4170   33.5630   44.8750 C   0  0  0  0  0  0  0  0  0  0  0  0
   45.1160   33.4580   43.6300 N   0  0  0  0  0  0  0  0  0  0  0  0
   43.8830   36.5930   43.1420 H   0  0  0  0  0  0  0  0  0  0  0  0
   44.4640   36.7380   45.4740 H   0  0  0  0  0  0  0  0  0  0  0  0
   46.0100   32.4490   45.6360 C   0  0  1  0  0  0  0  0  0  0  0  0
   46.9650   32.7530   46.7660 C   0  0  0  0  0  0  0  0  0  0  0  0
   45.5440   32.3490   47.0460 C   0  0  1  0  0  0  0  0  0  0  0  0
   46.2350   31.5200   45.0940 H   0  0  0  0  0  0  0  0  0  0  0  0
   47.8010   32.0470   46.9490 H   0  0  0  0  0  0  0  0  0  0  0  0
   47.2790   33.8120   46.8620 H   0  0  0  0  0  0  0  0  0  0  0  0
   45.4130   31.3430   47.5060 H   0  0  0  0  0  0  0  0  0  0  0  0
   44.7640   33.4150   47.6340 N   0  0  0  0  0  0  0  0  0  0  0  0
   43.8630   33.5990   47.1780 H   0  0  0  0  0  0  0  0  0  0  0  0
   45.2970   34.2330   47.9420 H   0  0  0  0  0  0  0  0  0  0  0  0
  1 22  1  0  0  0  0
  2  1  2  0  0  0  0
  3 13  1  0  0  0  0
  3  4  1  0  0  0  0
  4  1  1  0  0  0  0
  5  4  2  0  0  0  0
  5  9  1  0  0  0  0
  6  5  1  0  0  0  0
  7  8  1  0  0  0  0
  7  6  2  0  0  0  0
  8  3  2  0  0  0  0
 10  6  1  0  0  0  0
 11  7  1  0  0  0  0
 12  8  1  0  0  0  0
 13 15  2  0  0  0  0
 14 13  2  0  0  0  0
 16 13  1  0  0  0  0
 17 16  2  0  0  0  0
 17 18  1  0  0  0  0
 19 17  1  0  0  0  0
 20 21  1  0  0  0  0
 20 19  2  0  0  0  0
 21 16  1  0  0  0  0
 22 23  2  0  0  0  0
 22 27  1  0  0  0  0
 23 24  1  0  0  0  0
 24 29  1  0  0  0  0
 24 25  2  0  0  0  0
 26 25  1  0  0  0  0
 26 30  1  0  0  0  0
 27 26  2  0  0  0  0
 28 23  1  0  0  0  0
 30 33  1  6  0  0  0
 30 31  1  0  0  0  0
 30 32  1  0  0  0  0
 31 35  1  0  0  0  0
 31 34  1  0  0  0  0
 31 32  1  0  0  0  0
 32 36  1  1  0  0  0
 32 37  1  0  0  0  0
 37 39  1  0  0  0  0
 38 37  1  0  0  0  0
M  END
>  <minimizedAffinity>
-5.74907541

>  <minimizedRMSD>
1.34461319

$$$$
