
 OpenBabel03252507453D

 34 36  0  0  0  0  0  0  0  0999 V2000
   47.4440   34.5820   40.8490 C   0  0  0  0  0  0  0  0  0  0  0  0
   47.7010   35.4630   40.2150 H   0  0  0  0  0  0  0  0  0  0  0  0
   46.7960   33.9350   40.2250 H   0  0  0  0  0  0  0  0  0  0  0  0
   48.6950   33.9050   41.2260 C   0  0  0  0  0  0  0  0  0  0  0  0
   48.9480   32.6830   40.6190 C   0  0  0  0  0  0  0  0  0  0  0  0
   50.0920   31.9530   40.8940 C   0  0  0  0  0  0  0  0  0  0  0  0
   50.9660   32.5090   41.8050 N   0  0  0  0  0  0  0  0  0  0  0  0
   50.6920   33.7020   42.3800 C   0  0  0  0  0  0  0  0  0  0  0  0
   49.5800   34.3720   42.0890 N   0  0  0  0  0  0  0  0  0  0  0  0
   50.2730   31.0010   40.4100 H   0  0  0  0  0  0  0  0  0  0  0  0
   51.4380   34.0500   43.0780 H   0  0  0  0  0  0  0  0  0  0  0  0
   47.7730   31.9960   39.4300 S   0  0  0  0  0  0  0  0  0  0  0  0
   46.3340   31.4190   40.1920 C   0  0  0  0  0  0  0  0  0  0  0  0
   45.9840   31.2090   41.4840 C   0  0  0  0  0  0  0  0  0  0  0  0
   46.7230   31.4320   42.2360 H   0  0  0  0  0  0  0  0  0  0  0  0
   44.7420   30.7320   41.7940 C   0  0  0  0  0  0  0  0  0  0  0  0
   43.8380   30.4680   40.7270 C   0  0  0  0  0  0  0  0  0  0  0  0
   44.8410   30.9330   39.1930 S   0  0  0  0  0  0  0  0  0  0  0  0
   46.6080   34.9750   42.0380 C   0  0  0  0  0  0  0  0  0  0  0  0
   46.8930   34.4460   42.9670 H   0  0  0  0  0  0  0  0  0  0  0  0
   46.8590   36.0540   42.2500 H   0  0  0  0  0  0  0  0  0  0  0  0
   45.1510   34.9390   41.8000 C   0  0  0  0  0  0  0  0  0  0  0  0
   44.2670   35.5090   42.7560 C   0  0  0  0  0  0  0  0  0  0  0  0
   42.6080   35.2180   42.0160 S   0  0  0  0  0  0  0  0  0  0  0  0
   43.4060   34.3590   40.5140 C   0  0  0  0  0  0  0  0  0  0  0  0
   44.5210   34.4270   40.7720 N   0  0  0  0  0  0  0  0  0  0  0  0
   44.5220   35.9930   43.6850 H   0  0  0  0  0  0  0  0  0  0  0  0
   42.6670   33.8400   39.4610 O   0  0  0  0  0  0  0  0  0  0  0  0
   40.6740   34.1690   37.7460 O   0  0  0  0  0  0  0  0  0  0  0  0
   41.7350   34.9220   38.5370 P   0  0  0  0  0  0  0  0  0  0  0  0
   40.9600   35.9700   39.6210 O   0  0  0  0  0  0  0  0  0  0  0  0
   40.1730   36.3790   39.2150 H   0  0  0  0  0  0  0  0  0  0  0  0
   42.7470   35.8190   37.5250 O   0  0  0  0  0  0  0  0  0  0  0  0
   42.9560   36.6700   37.9880 H   0  0  0  0  0  0  0  0  0  0  0  0
  1  4  1  0  0  0  0
  1 19  1  0  0  0  0
  2  1  1  0  0  0  0
  3  1  1  0  0  0  0
  4  9  1  0  0  0  0
  5  6  1  0  0  0  0
  5  4  2  0  0  0  0
  6  7  2  0  0  0  0
  7  8  1  0  0  0  0
  8 11  1  0  0  0  0
  9  8  2  0  0  0  0
 10  6  1  0  0  0  0
 12 13  1  0  0  0  0
 12  5  1  0  0  0  0
 13 14  2  0  0  0  0
 14 16  1  0  0  0  0
 14 15  1  0  0  0  0
 17 16  2  0  0  0  0
 18 13  1  0  0  0  0
 18 17  1  0  0  0  0
 19 21  1  0  0  0  0
 19 20  1  0  0  0  0
 22 19  1  0  0  0  0
 22 23  2  0  0  0  0
 23 27  1  0  0  0  0
 24 23  1  0  0  0  0
 25 26  2  0  0  0  0
 25 24  1  0  0  0  0
 26 22  1  0  0  0  0
 28 25  1  0  0  0  0
 29 30  2  0  0  0  0
 30 28  1  0  0  0  0
 30 31  1  0  0  0  0
 32 31  1  0  0  0  0
 33 34  1  0  0  0  0
 33 30  1  0  0  0  0
M  END
>  <minimizedAffinity>
-4.39770412

>  <minimizedRMSD>
0.790105879

$$$$
