
 OpenBabel03252508023D

 39 42  0  0  1  0  0  0  0  0999 V2000
   44.2310   34.3620   41.5440 C   0  0  0  0  0  0  0  0  0  0  0  0
   45.1080   34.2490   40.6290 O   0  0  0  0  0  0  0  0  0  0  0  0
   42.0270   33.2890   41.1260 C   0  0  0  0  0  0  0  0  0  0  0  0
   42.7840   34.4110   41.3130 C   0  0  0  0  0  0  0  0  0  0  0  0
   42.1350   35.6600   41.2790 C   0  0  0  0  0  0  0  0  0  0  0  0
   40.7900   35.8100   41.0690 C   0  0  0  0  0  0  0  0  0  0  0  0
   40.0320   34.6830   40.8820 C   0  0  0  0  0  0  0  0  0  0  0  0
   40.6520   33.4680   40.9140 C   0  0  0  0  0  0  0  0  0  0  0  0
   42.6570   36.5990   41.4080 H   0  0  0  0  0  0  0  0  0  0  0  0
   40.2920   36.7500   41.0410 H   0  0  0  0  0  0  0  0  0  0  0  0
   38.9660   34.6510   40.7080 H   0  0  0  0  0  0  0  0  0  0  0  0
   40.0890   32.5480   40.7710 H   0  0  0  0  0  0  0  0  0  0  0  0
   42.7070   31.7260   41.2210 S   0  0  0  0  0  0  0  0  0  0  0  0
   41.5530   30.9000   40.5600 O   0  0  0  0  0  0  0  0  0  0  0  0
   42.8130   31.2580   42.6280 O   0  0  0  0  0  0  0  0  0  0  0  0
   43.7460   31.0010   40.2040 C   0  0  0  0  0  0  0  0  0  0  0  0
   44.5970   31.1440   39.0570 C   0  0  0  0  0  0  0  0  0  0  0  0
   44.5760   32.1430   38.6590 H   0  0  0  0  0  0  0  0  0  0  0  0
   45.2640   30.1070   38.5780 C   0  0  0  0  0  3  0  0  0  0  0  0
   45.1700   28.8620   39.1510 C   0  0  0  0  0  3  0  0  0  0  0  0
   44.0500   29.1160   40.4950 S   0  0  0  0  0  0  0  0  0  0  0  0
   44.5760   34.4560   42.9370 C   0  0  0  0  0  0  0  0  0  0  0  0
   44.2970   35.7170   43.5670 C   0  0  0  0  0  0  0  0  0  0  0  0
   44.6220   35.8220   44.9090 C   0  0  0  0  0  0  0  0  0  0  0  0
   45.1720   34.7480   45.5360 N   0  0  0  0  0  0  0  0  0  0  0  0
   45.4170   33.5660   44.8850 C   0  0  0  0  0  0  0  0  0  0  0  0
   45.1190   33.4620   43.6400 N   0  0  0  0  0  0  0  0  0  0  0  0
   43.8770   36.5940   43.1550 H   0  0  0  0  0  0  0  0  0  0  0  0
   44.4530   36.7360   45.4880 H   0  0  0  0  0  0  0  0  0  0  0  0
   46.0130   32.4520   45.6460 C   0  0  1  0  0  0  0  0  0  0  0  0
   46.9660   32.7580   46.7770 C   0  0  0  0  0  0  0  0  0  0  0  0
   45.5450   32.3490   47.0550 C   0  0  1  0  0  0  0  0  0  0  0  0
   46.2420   31.5250   45.1030 H   0  0  0  0  0  0  0  0  0  0  0  0
   47.8030   32.0530   46.9600 H   0  0  0  0  0  0  0  0  0  0  0  0
   47.2770   33.8180   46.8750 H   0  0  0  0  0  0  0  0  0  0  0  0
   45.4170   31.3420   47.5140 H   0  0  0  0  0  0  0  0  0  0  0  0
   44.7620   33.4120   47.6430 N   0  0  0  0  0  0  0  0  0  0  0  0
   43.8610   33.5950   47.1870 H   0  0  0  0  0  0  0  0  0  0  0  0
   45.2930   34.2310   47.9530 H   0  0  0  0  0  0  0  0  0  0  0  0
  1 22  1  0  0  0  0
  2  1  2  0  0  0  0
  3 13  1  0  0  0  0
  3  4  1  0  0  0  0
  4  1  1  0  0  0  0
  5  4  2  0  0  0  0
  5  9  1  0  0  0  0
  6  5  1  0  0  0  0
  7  8  1  0  0  0  0
  7  6  2  0  0  0  0
  8  3  2  0  0  0  0
 10  6  1  0  0  0  0
 11  7  1  0  0  0  0
 12  8  1  0  0  0  0
 13 15  2  0  0  0  0
 14 13  2  0  0  0  0
 16 21  1  0  0  0  0
 16 13  1  0  0  0  0
 17 16  2  0  0  0  0
 18 17  1  0  0  0  0
 19 17  1  0  0  0  0
 19 20  2  0  0  0  0
 20 21  1  0  0  0  0
 22 23  2  0  0  0  0
 22 27  1  0  0  0  0
 23 24  1  0  0  0  0
 24 29  1  0  0  0  0
 24 25  2  0  0  0  0
 26 25  1  0  0  0  0
 26 30  1  0  0  0  0
 27 26  2  0  0  0  0
 28 23  1  0  0  0  0
 30 33  1  6  0  0  0
 30 31  1  0  0  0  0
 30 32  1  0  0  0  0
 31 35  1  0  0  0  0
 31 34  1  0  0  0  0
 31 32  1  0  0  0  0
 32 36  1  1  0  0  0
 32 37  1  0  0  0  0
 37 39  1  0  0  0  0
 38 37  1  0  0  0  0
M  END
>  <minimizedAffinity>
-5.66727066

>  <minimizedRMSD>
1.11555445

$$$$
