
 OpenBabel03242513123D

 17 18  0  0  0  0  0  0  0  0999 V2000
   38.2450   28.6020   43.4360 C   0  0  0  0  0  0  0  0  0  0  0  0
   38.3530   27.2060   43.4620 C   0  0  0  0  0  0  0  0  0  0  0  0
   37.6040   26.5020   42.5030 C   0  0  0  0  0  0  0  0  0  0  0  0
   36.8210   27.1900   41.6070 N   0  0  0  0  0  0  0  0  0  0  0  0
   36.7640   28.5250   41.6380 C   0  0  0  0  0  0  0  0  0  0  0  0
   37.4650   29.2350   42.5400 N   0  0  0  0  0  0  0  0  0  0  0  0
   38.8440   29.0820   44.1970 H   0  0  0  0  0  0  0  0  0  0  0  0
   38.9730   26.6700   44.1710 H   0  0  0  0  0  0  0  0  0  0  0  0
   37.6700   25.4260   42.5020 H   0  0  0  0  0  0  0  0  0  0  0  0
   35.9610   29.3110   40.7260 C   0  0  0  0  0  0  0  0  0  0  0  0
   34.7600   29.1110   40.4490 O   0  0  0  0  0  0  0  0  0  0  0  0
   36.4880   30.4530   40.0140 C   0  0  0  0  0  0  0  0  0  0  0  0
   36.7300   31.7490   40.2880 C   0  0  0  0  0  0  0  0  0  0  0  0
   36.4860   32.0810   41.2870 H   0  0  0  0  0  0  0  0  0  0  0  0
   37.2540   32.5340   39.3010 C   0  0  0  0  0  3  0  0  0  0  0  0
   37.5160   32.0020   38.0900 C   0  0  0  0  0  3  0  0  0  0  0  0
   37.0280   30.2460   38.2060 S   0  0  0  0  0  0  0  0  0  0  0  0
  1  2  1  0  0  0  0
  1  7  1  0  0  0  0
  2  8  1  0  0  0  0
  3  2  2  0  0  0  0
  4  5  2  0  0  0  0
  4  3  1  0  0  0  0
  5  6  1  0  0  0  0
  6  1  2  0  0  0  0
  9  3  1  0  0  0  0
 10  5  1  0  0  0  0
 11 10  2  0  0  0  0
 12 13  2  0  0  0  0
 12 10  1  0  0  0  0
 13 14  1  0  0  0  0
 15 13  1  0  0  0  0
 16 17  1  0  0  0  0
 16 15  2  0  0  0  0
 17 12  1  0  0  0  0
M  END
>  <minimizedAffinity>
-4.02444887

$$$$

 OpenBabel03242513123D

 17 18  0  0  0  0  0  0  0  0999 V2000
   38.5910   28.8160   43.2800 C   0  0  0  0  0  0  0  0  0  0  0  0
   38.1550   27.5210   43.5830 C   0  0  0  0  0  0  0  0  0  0  0  0
   37.0000   27.0760   42.9160 C   0  0  0  0  0  0  0  0  0  0  0  0
   36.3660   27.9040   42.0210 N   0  0  0  0  0  0  0  0  0  0  0  0
   36.8360   29.1310   41.7780 C   0  0  0  0  0  0  0  0  0  0  0  0
   37.9380   29.5940   42.3960 N   0  0  0  0  0  0  0  0  0  0  0  0
   39.4810   29.0960   43.8250 H   0  0  0  0  0  0  0  0  0  0  0  0
   38.6600   26.8730   44.2900 H   0  0  0  0  0  0  0  0  0  0  0  0
   36.6440   26.0810   43.1320 H   0  0  0  0  0  0  0  0  0  0  0  0
   36.2190   30.0530   40.8500 C   0  0  0  0  0  0  0  0  0  0  0  0
   36.2520   31.2990   40.9240 O   0  0  0  0  0  0  0  0  0  0  0  0
   35.4710   29.6100   39.6950 C   0  0  0  0  0  0  0  0  0  0  0  0
   34.2390   29.1200   39.4580 C   0  0  0  0  0  0  0  0  0  0  0  0
   33.5950   29.0080   40.3170 H   0  0  0  0  0  0  0  0  0  0  0  0
   33.9010   28.8080   38.1710 C   0  0  0  0  0  3  0  0  0  0  0  0
   34.7960   28.9930   37.1810 C   0  0  0  0  0  3  0  0  0  0  0  0
   36.2930   29.6620   37.9850 S   0  0  0  0  0  0  0  0  0  0  0  0
  1  2  1  0  0  0  0
  1  7  1  0  0  0  0
  2  8  1  0  0  0  0
  3  9  1  0  0  0  0
  3  2  2  0  0  0  0
  4  3  1  0  0  0  0
  5  4  2  0  0  0  0
  5  6  1  0  0  0  0
  6  1  2  0  0  0  0
 10 11  2  0  0  0  0
 10  5  1  0  0  0  0
 12 10  1  0  0  0  0
 13 12  2  0  0  0  0
 13 14  1  0  0  0  0
 15 13  1  0  0  0  0
 16 17  1  0  0  0  0
 16 15  2  0  0  0  0
 17 12  1  0  0  0  0
M  END
>  <minimizedAffinity>
-3.99592376

$$$$

 OpenBabel03242513123D

 17 18  0  0  0  0  0  0  0  0999 V2000
   35.5830   29.6090   39.8630 C   0  0  0  0  0  0  0  0  0  0  0  0
   36.3590   30.7630   40.0190 C   0  0  0  0  0  0  0  0  0  0  0  0
   37.2760   30.7620   41.0850 C   0  0  0  0  0  0  0  0  0  0  0  0
   37.3700   29.6630   41.9050 N   0  0  0  0  0  0  0  0  0  0  0  0
   36.5960   28.5920   41.6990 C   0  0  0  0  0  0  0  0  0  0  0  0
   35.7070   28.5540   40.6910 N   0  0  0  0  0  0  0  0  0  0  0  0
   34.9000   29.6740   39.0280 H   0  0  0  0  0  0  0  0  0  0  0  0
   36.2800   31.6260   39.3690 H   0  0  0  0  0  0  0  0  0  0  0  0
   37.8870   31.6390   41.2260 H   0  0  0  0  0  0  0  0  0  0  0  0
   36.6430   27.4040   42.5230 C   0  0  0  0  0  0  0  0  0  0  0  0
   36.1800   27.2940   43.6770 O   0  0  0  0  0  0  0  0  0  0  0  0
   37.2550   26.1730   42.0760 C   0  0  0  0  0  0  0  0  0  0  0  0
   36.9650   24.8580   42.1380 C   0  0  0  0  0  0  0  0  0  0  0  0
   36.0460   24.5940   42.6410 H   0  0  0  0  0  0  0  0  0  0  0  0
   37.8380   23.9740   41.5710 C   0  0  0  0  0  3  0  0  0  0  0  0
   38.9550   24.4290   40.9700 C   0  0  0  0  0  3  0  0  0  0  0  0
   38.9050   26.2460   41.1420 S   0  0  0  0  0  0  0  0  0  0  0  0
  1  2  2  0  0  0  0
  1  6  1  0  0  0  0
  2  3  1  0  0  0  0
  3  9  1  0  0  0  0
  3  4  2  0  0  0  0
  5  4  1  0  0  0  0
  5 10  1  0  0  0  0
  6  5  2  0  0  0  0
  7  1  1  0  0  0  0
  8  2  1  0  0  0  0
 10 11  2  0  0  0  0
 12 13  2  0  0  0  0
 12 10  1  0  0  0  0
 13 14  1  0  0  0  0
 15 13  1  0  0  0  0
 16 17  1  0  0  0  0
 16 15  2  0  0  0  0
 17 12  1  0  0  0  0
M  END
>  <minimizedAffinity>
-3.95613647

$$$$

 OpenBabel03242513123D

 17 18  0  0  0  0  0  0  0  0999 V2000
   36.9560   31.7610   39.5530 C   0  0  0  0  0  0  0  0  0  0  0  0
   37.3050   33.1090   39.4020 C   0  0  0  0  0  0  0  0  0  0  0  0
   38.3560   33.5780   40.2110 C   0  0  0  0  0  0  0  0  0  0  0  0
   38.9770   32.7210   41.0890 N   0  0  0  0  0  0  0  0  0  0  0  0
   38.5930   31.4450   41.1820 C   0  0  0  0  0  0  0  0  0  0  0  0
   37.5920   30.9580   40.4260 N   0  0  0  0  0  0  0  0  0  0  0  0
   36.1440   31.4650   38.9040 H   0  0  0  0  0  0  0  0  0  0  0  0
   36.8110   33.7780   38.7080 H   0  0  0  0  0  0  0  0  0  0  0  0
   38.6440   34.6120   40.1140 H   0  0  0  0  0  0  0  0  0  0  0  0
   39.2020   30.4920   42.0830 C   0  0  0  0  0  0  0  0  0  0  0  0
   40.3380   30.5890   42.5940 O   0  0  0  0  0  0  0  0  0  0  0  0
   38.5330   29.2810   42.5020 C   0  0  0  0  0  0  0  0  0  0  0  0
   37.6750   28.9260   43.4780 C   0  0  0  0  0  0  0  0  0  0  0  0
   37.3710   29.7090   44.1560 H   0  0  0  0  0  0  0  0  0  0  0  0
   37.2610   27.6250   43.5370 C   0  0  0  0  0  3  0  0  0  0  0  0
   37.7140   26.7370   42.6290 C   0  0  0  0  0  3  0  0  0  0  0  0
   38.8320   27.6770   41.5330 S   0  0  0  0  0  0  0  0  0  0  0  0
  1  6  1  0  0  0  0
  2  1  2  0  0  0  0
  2  3  1  0  0  0  0
  3  4  2  0  0  0  0
  4  5  1  0  0  0  0
  5 10  1  0  0  0  0
  6  5  2  0  0  0  0
  7  1  1  0  0  0  0
  8  2  1  0  0  0  0
  9  3  1  0  0  0  0
 10 12  1  0  0  0  0
 10 11  2  0  0  0  0
 12 13  2  0  0  0  0
 13 15  1  0  0  0  0
 13 14  1  0  0  0  0
 16 15  2  0  0  0  0
 17 12  1  0  0  0  0
 17 16  1  0  0  0  0
M  END
>  <minimizedAffinity>
-3.94820642

$$$$

 OpenBabel03242513123D

 17 18  0  0  0  0  0  0  0  0999 V2000
   37.0480   28.7710   39.3050 C   0  0  0  0  0  0  0  0  0  0  0  0
   36.9030   30.1600   39.4080 C   0  0  0  0  0  0  0  0  0  0  0  0
   36.8030   30.6840   40.7090 C   0  0  0  0  0  0  0  0  0  0  0  0
   36.8500   29.8390   41.7920 N   0  0  0  0  0  0  0  0  0  0  0  0
   36.9900   28.5210   41.6220 C   0  0  0  0  0  0  0  0  0  0  0  0
   37.0890   27.9810   40.3940 N   0  0  0  0  0  0  0  0  0  0  0  0
   37.1190   28.4330   38.2810 H   0  0  0  0  0  0  0  0  0  0  0  0
   36.8680   30.8190   38.5500 H   0  0  0  0  0  0  0  0  0  0  0  0
   36.6920   31.7510   40.8150 H   0  0  0  0  0  0  0  0  0  0  0  0
   37.0460   27.5770   42.7160 C   0  0  0  0  0  0  0  0  0  0  0  0
   36.1360   27.3590   43.5430 O   0  0  0  0  0  0  0  0  0  0  0  0
   38.2060   26.7550   42.9740 C   0  0  0  0  0  0  0  0  0  0  0  0
   39.3500   26.8710   43.6780 C   0  0  0  0  0  0  0  0  0  0  0  0
   39.4920   27.8000   44.2100 H   0  0  0  0  0  0  0  0  0  0  0  0
   40.2280   25.8240   43.6660 C   0  0  0  0  0  3  0  0  0  0  0  0
   39.9360   24.7130   42.9600 C   0  0  0  0  0  3  0  0  0  0  0  0
   38.3090   25.0290   42.1920 S   0  0  0  0  0  0  0  0  0  0  0  0
  1  2  2  0  0  0  0
  1  6  1  0  0  0  0
  2  3  1  0  0  0  0
  3  9  1  0  0  0  0
  3  4  2  0  0  0  0
  5  4  1  0  0  0  0
  5 10  1  0  0  0  0
  6  5  2  0  0  0  0
  7  1  1  0  0  0  0
  8  2  1  0  0  0  0
 10 12  1  0  0  0  0
 10 11  2  0  0  0  0
 12 13  2  0  0  0  0
 13 14  1  0  0  0  0
 15 13  1  0  0  0  0
 16 15  2  0  0  0  0
 17 16  1  0  0  0  0
 17 12  1  0  0  0  0
M  END
>  <minimizedAffinity>
-3.86539936

$$$$

 OpenBabel03242513123D

 17 18  0  0  0  0  0  0  0  0999 V2000
   37.3010   31.2540   38.0440 C   0  0  0  0  0  0  0  0  0  0  0  0
   37.5520   32.5440   38.5290 C   0  0  0  0  0  0  0  0  0  0  0  0
   37.3430   32.7480   39.9040 C   0  0  0  0  0  0  0  0  0  0  0  0
   36.9150   31.7060   40.6930 N   0  0  0  0  0  0  0  0  0  0  0  0
   36.6940   30.4980   40.1640 C   0  0  0  0  0  0  0  0  0  0  0  0
   36.8820   30.2630   38.8530 N   0  0  0  0  0  0  0  0  0  0  0  0
   37.4800   31.1650   36.9820 H   0  0  0  0  0  0  0  0  0  0  0  0
   37.8890   33.3600   37.9020 H   0  0  0  0  0  0  0  0  0  0  0  0
   37.5300   33.7320   40.3030 H   0  0  0  0  0  0  0  0  0  0  0  0
   36.2430   29.3600   40.9340 C   0  0  0  0  0  0  0  0  0  0  0  0
   35.1120   28.8340   40.8710 O   0  0  0  0  0  0  0  0  0  0  0  0
   37.0880   28.6880   41.8950 C   0  0  0  0  0  0  0  0  0  0  0  0
   36.9070   27.9190   42.9870 C   0  0  0  0  0  0  0  0  0  0  0  0
   35.8840   27.7170   43.2660 H   0  0  0  0  0  0  0  0  0  0  0  0
   38.0120   27.4610   43.6480 C   0  0  0  0  0  3  0  0  0  0  0  0
   39.2420   27.7840   43.2000 C   0  0  0  0  0  3  0  0  0  0  0  0
   38.9730   28.8230   41.7220 S   0  0  0  0  0  0  0  0  0  0  0  0
  1  2  2  0  0  0  0
  1  6  1  0  0  0  0
  2  3  1  0  0  0  0
  3  9  1  0  0  0  0
  3  4  2  0  0  0  0
  5  4  1  0  0  0  0
  5 10  1  0  0  0  0
  6  5  2  0  0  0  0
  7  1  1  0  0  0  0
  8  2  1  0  0  0  0
 10 12  1  0  0  0  0
 11 10  2  0  0  0  0
 12 13  2  0  0  0  0
 13 14  1  0  0  0  0
 13 15  1  0  0  0  0
 16 15  2  0  0  0  0
 17 12  1  0  0  0  0
 17 16  1  0  0  0  0
M  END
>  <minimizedAffinity>
-3.85932517

$$$$

 OpenBabel03242513123D

 17 18  0  0  0  0  0  0  0  0999 V2000
   39.1540   25.2540   40.5580 C   0  0  0  0  0  0  0  0  0  0  0  0
   38.7180   23.9280   40.6720 C   0  0  0  0  0  0  0  0  0  0  0  0
   37.5630   23.7120   41.4440 C   0  0  0  0  0  0  0  0  0  0  0  0
   36.9280   24.7780   42.0370 N   0  0  0  0  0  0  0  0  0  0  0  0
   37.3990   26.0200   41.8870 C   0  0  0  0  0  0  0  0  0  0  0  0
   38.5010   26.2680   41.1560 N   0  0  0  0  0  0  0  0  0  0  0  0
   40.0440   25.3510   39.9530 H   0  0  0  0  0  0  0  0  0  0  0  0
   39.2240   23.0930   40.2020 H   0  0  0  0  0  0  0  0  0  0  0  0
   37.2070   22.7000   41.5470 H   0  0  0  0  0  0  0  0  0  0  0  0
   36.7810   27.1850   42.4820 C   0  0  0  0  0  0  0  0  0  0  0  0
   36.4040   27.2890   43.6680 O   0  0  0  0  0  0  0  0  0  0  0  0
   36.5260   28.3960   41.7360 C   0  0  0  0  0  0  0  0  0  0  0  0
   35.6060   28.8230   40.8490 C   0  0  0  0  0  0  0  0  0  0  0  0
   34.8290   28.1190   40.5900 H   0  0  0  0  0  0  0  0  0  0  0  0
   35.7210   30.0910   40.3540 C   0  0  0  0  0  3  0  0  0  0  0  0
   36.7390   30.8770   40.7570 C   0  0  0  0  0  3  0  0  0  0  0  0
   37.7020   29.8720   41.9390 S   0  0  0  0  0  0  0  0  0  0  0  0
  1  2  2  0  0  0  0
  1  6  1  0  0  0  0
  2  3  1  0  0  0  0
  3  9  1  0  0  0  0
  3  4  2  0  0  0  0
  5  4  1  0  0  0  0
  5 10  1  0  0  0  0
  6  5  2  0  0  0  0
  7  1  1  0  0  0  0
  8  2  1  0  0  0  0
 10 11  2  0  0  0  0
 12 17  1  0  0  0  0
 12 10  1  0  0  0  0
 13 12  2  0  0  0  0
 14 13  1  0  0  0  0
 15 16  2  0  0  0  0
 15 13  1  0  0  0  0
 16 17  1  0  0  0  0
M  END
>  <minimizedAffinity>
-3.84256458

$$$$

 OpenBabel03242513123D

 17 18  0  0  0  0  0  0  0  0999 V2000
   39.5240   33.5020   40.2950 C   0  0  0  0  0  0  0  0  0  0  0  0
   40.6920   32.8970   39.8140 C   0  0  0  0  0  0  0  0  0  0  0  0
   40.7200   31.4910   39.8270 C   0  0  0  0  0  0  0  0  0  0  0  0
   39.6350   30.7890   40.2970 N   0  0  0  0  0  0  0  0  0  0  0  0
   38.5510   31.4310   40.7420 C   0  0  0  0  0  0  0  0  0  0  0  0
   38.4850   32.7750   40.7460 N   0  0  0  0  0  0  0  0  0  0  0  0
   39.5670   34.5810   40.2580 H   0  0  0  0  0  0  0  0  0  0  0  0
   41.5430   33.4560   39.4460 H   0  0  0  0  0  0  0  0  0  0  0  0
   41.6080   31.0010   39.4620 H   0  0  0  0  0  0  0  0  0  0  0  0
   37.3760   30.7560   41.2490 C   0  0  0  0  0  0  0  0  0  0  0  0
   36.1930   31.1170   41.0780 O   0  0  0  0  0  0  0  0  0  0  0  0
   37.4540   29.5460   42.0360 C   0  0  0  0  0  0  0  0  0  0  0  0
   38.0410   29.1660   43.1880 C   0  0  0  0  0  0  0  0  0  0  0  0
   38.6180   29.9190   43.7030 H   0  0  0  0  0  0  0  0  0  0  0  0
   37.8660   27.8780   43.6100 C   0  0  0  0  0  3  0  0  0  0  0  0
   37.1210   27.0280   42.8760 C   0  0  0  0  0  3  0  0  0  0  0  0
   36.5510   27.9910   41.4320 S   0  0  0  0  0  0  0  0  0  0  0  0
  1  6  1  0  0  0  0
  2  3  1  0  0  0  0
  2  1  2  0  0  0  0
  3  4  2  0  0  0  0
  4  5  1  0  0  0  0
  5  6  2  0  0  0  0
  5 10  1  0  0  0  0
  7  1  1  0  0  0  0
  8  2  1  0  0  0  0
  9  3  1  0  0  0  0
 10 12  1  0  0  0  0
 11 10  2  0  0  0  0
 12 13  2  0  0  0  0
 13 15  1  0  0  0  0
 13 14  1  0  0  0  0
 16 15  2  0  0  0  0
 17 12  1  0  0  0  0
 17 16  1  0  0  0  0
M  END
>  <minimizedAffinity>
-3.83515024

$$$$

 OpenBabel03242513123D

 17 18  0  0  0  0  0  0  0  0999 V2000
   33.8930   28.7720   38.2640 C   0  0  0  0  0  0  0  0  0  0  0  0
   34.5880   28.8800   37.0530 C   0  0  0  0  0  0  0  0  0  0  0  0
   35.8970   29.3870   37.1240 C   0  0  0  0  0  0  0  0  0  0  0  0
   36.4260   29.7460   38.3420 N   0  0  0  0  0  0  0  0  0  0  0  0
   35.7070   29.6170   39.4610 C   0  0  0  0  0  0  0  0  0  0  0  0
   34.4510   29.1360   39.4340 N   0  0  0  0  0  0  0  0  0  0  0  0
   32.8960   28.3760   38.1400 H   0  0  0  0  0  0  0  0  0  0  0  0
   34.1650   28.5950   36.0970 H   0  0  0  0  0  0  0  0  0  0  0  0
   36.4530   29.4800   36.2060 H   0  0  0  0  0  0  0  0  0  0  0  0
   36.2000   29.9750   40.7720 C   0  0  0  0  0  0  0  0  0  0  0  0
   36.1980   31.1210   41.2690 O   0  0  0  0  0  0  0  0  0  0  0  0
   36.7700   29.0050   41.6800 C   0  0  0  0  0  0  0  0  0  0  0  0
   36.4560   27.7680   42.1110 C   0  0  0  0  0  0  0  0  0  0  0  0
   35.5520   27.3350   41.7080 H   0  0  0  0  0  0  0  0  0  0  0  0
   37.2880   27.1630   43.0100 C   0  0  0  0  0  3  0  0  0  0  0  0
   38.3910   27.8090   43.4400 C   0  0  0  0  0  3  0  0  0  0  0  0
   38.3840   29.4230   42.5860 S   0  0  0  0  0  0  0  0  0  0  0  0
  1  6  1  0  0  0  0
  2  3  1  0  0  0  0
  2  1  2  0  0  0  0
  3  4  2  0  0  0  0
  4  5  1  0  0  0  0
  5 10  1  0  0  0  0
  6  5  2  0  0  0  0
  7  1  1  0  0  0  0
  8  2  1  0  0  0  0
  9  3  1  0  0  0  0
 10 11  2  0  0  0  0
 10 12  1  0  0  0  0
 12 13  2  0  0  0  0
 12 17  1  0  0  0  0
 13 15  1  0  0  0  0
 14 13  1  0  0  0  0
 15 16  2  0  0  0  0
 17 16  1  0  0  0  0
M  END
>  <minimizedAffinity>
-3.80562615

$$$$
