
 OpenBabel03242513113D

 17 18  0  0  0  0  0  0  0  0999 V2000
   44.6400   35.9360   44.4000 C   0  0  0  0  0  0  0  0  0  0  0  0
   45.4270   35.7470   43.2570 C   0  0  0  0  0  0  0  0  0  0  0  0
   46.2980   34.6430   43.2710 C   0  0  0  0  0  0  0  0  0  0  0  0
   46.3410   33.8200   44.3720 N   0  0  0  0  0  0  0  0  0  0  0  0
   45.5610   34.0590   45.4310 C   0  0  0  0  0  0  0  0  0  0  0  0
   44.7150   35.1040   45.4560 N   0  0  0  0  0  0  0  0  0  0  0  0
   43.9950   36.7990   44.3250 H   0  0  0  0  0  0  0  0  0  0  0  0
   45.3880   36.4000   42.3940 H   0  0  0  0  0  0  0  0  0  0  0  0
   46.9140   34.4760   42.4030 H   0  0  0  0  0  0  0  0  0  0  0  0
   45.5560   33.2350   46.6200 C   0  0  0  0  0  0  0  0  0  0  0  0
   44.8400   33.4080   47.6280 O   0  0  0  0  0  0  0  0  0  0  0  0
   46.4130   32.0800   46.7680 C   0  0  0  0  0  0  0  0  0  0  0  0
   46.6210   30.9250   46.1060 C   0  0  0  0  0  0  0  0  0  0  0  0
   46.0190   30.7640   45.2240 H   0  0  0  0  0  0  0  0  0  0  0  0
   47.5610   30.0600   46.5910 C   0  0  0  0  0  0  0  0  0  0  0  0
   48.2500   30.3760   47.7050 C   0  0  0  0  0  0  0  0  0  0  0  0
   47.6240   32.0100   48.2280 S   0  0  0  0  0  0  0  0  0  0  0  0
  1  6  1  0  0  0  0
  2  3  1  0  0  0  0
  2  1  2  0  0  0  0
  3  4  2  0  0  0  0
  4  5  1  0  0  0  0
  5  6  2  0  0  0  0
  5 10  1  0  0  0  0
  7  1  1  0  0  0  0
  8  2  1  0  0  0  0
  9  3  1  0  0  0  0
 10 12  1  0  0  0  0
 10 11  2  0  0  0  0
 12 17  1  0  0  0  0
 13 15  1  0  0  0  0
 13 12  2  0  0  0  0
 14 13  1  0  0  0  0
 15 16  2  0  0  0  0
 16 17  1  0  0  0  0
M  END
>  <minimizedAffinity>
-4.09855175

>  <minimizedRMSD>
0.732581794

$$$$
