
 OpenBabel03242523303D

 19 20  0  0  0  0  0  0  0  0999 V2000
   45.7070   33.1780   46.4570 C   0  0  0  0  0  0  0  0  0  0  0  0
   46.2650   33.5760   47.3160 H   0  0  0  0  0  0  0  0  0  0  0  0
   44.7270   32.8340   46.8280 H   0  0  0  0  0  0  0  0  0  0  0  0
   44.5960   36.0390   44.3660 C   0  0  0  0  0  0  0  0  0  0  0  0
   45.3480   35.8370   43.2160 C   0  0  0  0  0  0  0  0  0  0  0  0
   46.2080   34.7500   43.1650 C   0  0  0  0  0  0  0  0  0  0  0  0
   46.3040   33.9030   44.2330 N   0  0  0  0  0  0  0  0  0  0  0  0
   45.5550   34.1340   45.3370 C   0  0  0  0  0  0  0  0  0  0  0  0
   44.7150   35.1860   45.4020 N   0  0  0  0  0  0  0  0  0  0  0  0
   43.9280   36.8730   44.4230 H   0  0  0  0  0  0  0  0  0  0  0  0
   45.2750   36.5040   42.3710 H   0  0  0  0  0  0  0  0  0  0  0  0
   46.8190   34.5410   42.2980 H   0  0  0  0  0  0  0  0  0  0  0  0
   46.5300   31.6970   45.7650 S   0  0  0  0  0  0  0  0  0  0  0  0
   47.5060   31.0030   47.0450 C   0  0  0  0  0  0  0  0  0  0  0  0
   48.1800   29.8500   47.1910 C   0  0  0  0  0  0  0  0  0  0  0  0
   48.1220   29.1850   46.3340 H   0  0  0  0  0  0  0  0  0  0  0  0
   48.8770   29.5330   48.3030 C   0  0  0  0  0  3  0  0  0  0  0  0
   48.8140   30.5800   49.3250 C   0  0  0  0  0  3  0  0  0  0  0  0
   47.7880   31.8690   48.5930 S   0  0  0  0  0  0  0  0  0  0  0  0
  1  3  1  0  0  0  0
  1  2  1  0  0  0  0
  4 10  1  0  0  0  0
  4  9  1  0  0  0  0
  5  4  2  0  0  0  0
  6  5  1  0  0  0  0
  6  7  2  0  0  0  0
  7  8  1  0  0  0  0
  8  9  2  0  0  0  0
  8  1  1  0  0  0  0
 11  5  1  0  0  0  0
 12  6  1  0  0  0  0
 13  1  1  0  0  0  0
 13 14  1  0  0  0  0
 14 15  2  0  0  0  0
 14 19  1  0  0  0  0
 15 17  1  0  0  0  0
 16 15  1  0  0  0  0
 17 18  2  0  0  0  0
 19 18  1  0  0  0  0
M  END
>  <minimizedAffinity>
-3.86348939

>  <minimizedRMSD>
1.03885138

$$$$
