
 OpenBabel03242523303D

 19 20  0  0  0  0  0  0  0  0999 V2000
   45.6750   33.1590   46.5080 C   0  0  0  0  0  0  0  0  0  0  0  0
   46.2280   33.5510   47.3720 H   0  0  0  0  0  0  0  0  0  0  0  0
   44.7000   32.7940   46.8730 H   0  0  0  0  0  0  0  0  0  0  0  0
   44.5420   36.0560   44.4770 C   0  0  0  0  0  0  0  0  0  0  0  0
   45.2700   35.8650   43.3110 C   0  0  0  0  0  0  0  0  0  0  0  0
   46.1230   34.7740   43.2280 C   0  0  0  0  0  0  0  0  0  0  0  0
   46.2340   33.9110   44.2830 N   0  0  0  0  0  0  0  0  0  0  0  0
   45.5070   34.1320   45.4040 C   0  0  0  0  0  0  0  0  0  0  0  0
   44.6750   35.1870   45.4990 N   0  0  0  0  0  0  0  0  0  0  0  0
   43.8800   36.8910   44.5580 H   0  0  0  0  0  0  0  0  0  0  0  0
   45.1850   36.5430   42.4760 H   0  0  0  0  0  0  0  0  0  0  0  0
   46.7150   34.5730   42.3470 H   0  0  0  0  0  0  0  0  0  0  0  0
   46.5200   31.7030   45.7910 S   0  0  0  0  0  0  0  0  0  0  0  0
   47.5050   31.0020   47.0590 C   0  0  0  0  0  0  0  0  0  0  0  0
   48.1780   29.8470   47.1940 C   0  0  0  0  0  0  0  0  0  0  0  0
   48.1100   29.1850   46.3360 H   0  0  0  0  0  0  0  0  0  0  0  0
   48.8840   29.5230   48.3000 C   0  0  0  0  0  3  0  0  0  0  0  0
   48.8320   30.5660   49.3260 C   0  0  0  0  0  3  0  0  0  0  0  0
   47.8030   31.8600   48.6080 S   0  0  0  0  0  0  0  0  0  0  0  0
  1  3  1  0  0  0  0
  1  2  1  0  0  0  0
  4 10  1  0  0  0  0
  4  9  1  0  0  0  0
  5  4  2  0  0  0  0
  6  5  1  0  0  0  0
  6  7  2  0  0  0  0
  7  8  1  0  0  0  0
  8  9  2  0  0  0  0
  8  1  1  0  0  0  0
 11  5  1  0  0  0  0
 12  6  1  0  0  0  0
 13  1  1  0  0  0  0
 13 14  1  0  0  0  0
 14 15  2  0  0  0  0
 14 19  1  0  0  0  0
 15 17  1  0  0  0  0
 16 15  1  0  0  0  0
 17 18  2  0  0  0  0
 19 18  1  0  0  0  0
M  END
>  <minimizedAffinity>
-3.87981415

>  <minimizedRMSD>
1.01420557

$$$$
