
 OpenBabel03242523303D

 19 20  0  0  0  0  0  0  0  0999 V2000
   45.7060   33.1780   46.4570 C   0  0  0  0  0  0  0  0  0  0  0  0
   46.2650   33.5760   47.3160 H   0  0  0  0  0  0  0  0  0  0  0  0
   44.7260   32.8340   46.8280 H   0  0  0  0  0  0  0  0  0  0  0  0
   44.5960   36.0400   44.3650 C   0  0  0  0  0  0  0  0  0  0  0  0
   45.3480   35.8370   43.2160 C   0  0  0  0  0  0  0  0  0  0  0  0
   46.2080   34.7500   43.1650 C   0  0  0  0  0  0  0  0  0  0  0  0
   46.3040   33.9030   44.2330 N   0  0  0  0  0  0  0  0  0  0  0  0
   45.5550   34.1340   45.3370 C   0  0  0  0  0  0  0  0  0  0  0  0
   44.7150   35.1860   45.4010 N   0  0  0  0  0  0  0  0  0  0  0  0
   43.9280   36.8730   44.4220 H   0  0  0  0  0  0  0  0  0  0  0  0
   45.2750   36.5040   42.3700 H   0  0  0  0  0  0  0  0  0  0  0  0
   46.8190   34.5400   42.2980 H   0  0  0  0  0  0  0  0  0  0  0  0
   46.5290   31.6970   45.7660 S   0  0  0  0  0  0  0  0  0  0  0  0
   47.5050   31.0030   47.0450 C   0  0  0  0  0  0  0  0  0  0  0  0
   48.1800   29.8500   47.1900 C   0  0  0  0  0  0  0  0  0  0  0  0
   48.1200   29.1840   46.3350 H   0  0  0  0  0  0  0  0  0  0  0  0
   48.8760   29.5330   48.3030 C   0  0  0  0  0  3  0  0  0  0  0  0
   48.8140   30.5810   49.3250 C   0  0  0  0  0  3  0  0  0  0  0  0
   47.7880   31.8700   48.5920 S   0  0  0  0  0  0  0  0  0  0  0  0
  1  3  1  0  0  0  0
  1  2  1  0  0  0  0
  4 10  1  0  0  0  0
  4  9  1  0  0  0  0
  5  4  2  0  0  0  0
  6  5  1  0  0  0  0
  6  7  2  0  0  0  0
  7  8  1  0  0  0  0
  8  9  2  0  0  0  0
  8  1  1  0  0  0  0
 11  5  1  0  0  0  0
 12  6  1  0  0  0  0
 13  1  1  0  0  0  0
 13 14  1  0  0  0  0
 14 15  2  0  0  0  0
 14 19  1  0  0  0  0
 15 17  1  0  0  0  0
 16 15  1  0  0  0  0
 17 18  2  0  0  0  0
 19 18  1  0  0  0  0
M  END
>  <minimizedAffinity>
-3.86363506

>  <minimizedRMSD>
1.08259892

$$$$
