
 OpenBabel03242523303D

 19 20  0  0  0  0  0  0  0  0999 V2000
   46.0300   33.0110   46.0720 C   0  0  0  0  0  0  0  0  0  0  0  0
   46.6590   33.3330   46.9130 H   0  0  0  0  0  0  0  0  0  0  0  0
   45.1250   32.5430   46.4920 H   0  0  0  0  0  0  0  0  0  0  0  0
   44.4920   36.0230   44.5370 C   0  0  0  0  0  0  0  0  0  0  0  0
   45.1250   36.0470   43.3020 C   0  0  0  0  0  0  0  0  0  0  0  0
   46.0510   35.0560   43.0080 C   0  0  0  0  0  0  0  0  0  0  0  0
   46.3250   34.0830   43.9280 N   0  0  0  0  0  0  0  0  0  0  0  0
   45.6870   34.0950   45.1220 C   0  0  0  0  0  0  0  0  0  0  0  0
   44.7850   35.0500   45.4210 N   0  0  0  0  0  0  0  0  0  0  0  0
   43.7750   36.7790   44.7800 H   0  0  0  0  0  0  0  0  0  0  0  0
   44.9110   36.8130   42.5730 H   0  0  0  0  0  0  0  0  0  0  0  0
   46.5760   35.0210   42.0640 H   0  0  0  0  0  0  0  0  0  0  0  0
   46.8610   31.7080   45.0910 S   0  0  0  0  0  0  0  0  0  0  0  0
   47.4180   30.4880   46.2200 C   0  0  0  0  0  0  0  0  0  0  0  0
   48.0540   30.5260   47.4030 C   0  0  0  0  0  0  0  0  0  0  0  0
   48.2850   31.5270   47.7570 H   0  0  0  0  0  0  0  0  0  0  0  0
   48.3860   29.4210   48.1030 C   0  0  0  0  0  3  0  0  0  0  0  0
   47.9760   28.1860   47.4330 C   0  0  0  0  0  3  0  0  0  0  0  0
   47.1800   28.7360   45.9110 S   0  0  0  0  0  0  0  0  0  0  0  0
  1  3  1  0  0  0  0
  1  2  1  0  0  0  0
  4 10  1  0  0  0  0
  4  9  1  0  0  0  0
  5  4  2  0  0  0  0
  6  5  1  0  0  0  0
  6  7  2  0  0  0  0
  7  8  1  0  0  0  0
  8  9  2  0  0  0  0
  8  1  1  0  0  0  0
 11  5  1  0  0  0  0
 12  6  1  0  0  0  0
 13  1  1  0  0  0  0
 13 14  1  0  0  0  0
 14 15  2  0  0  0  0
 15 16  1  0  0  0  0
 15 17  1  0  0  0  0
 18 17  2  0  0  0  0
 19 14  1  0  0  0  0
 19 18  1  0  0  0  0
M  END
>  <minimizedAffinity>
-3.44451714

>  <minimizedRMSD>
0.764857829

$$$$
