
 OpenBabel03242523303D

 19 20  0  0  0  0  0  0  0  0999 V2000
   45.5790   33.2390   46.6190 C   0  0  0  0  0  0  0  0  0  0  0  0
   45.8000   33.7320   47.5760 H   0  0  0  0  0  0  0  0  0  0  0  0
   44.6620   32.6420   46.7550 H   0  0  0  0  0  0  0  0  0  0  0  0
   44.5490   36.0730   44.4510 C   0  0  0  0  0  0  0  0  0  0  0  0
   45.2950   35.8190   43.3070 C   0  0  0  0  0  0  0  0  0  0  0  0
   46.1240   34.7070   43.2860 C   0  0  0  0  0  0  0  0  0  0  0  0
   46.1960   33.8870   44.3760 N   0  0  0  0  0  0  0  0  0  0  0  0
   45.4540   34.1690   45.4740 C   0  0  0  0  0  0  0  0  0  0  0  0
   44.6440   35.2450   45.5090 N   0  0  0  0  0  0  0  0  0  0  0  0
   43.9040   36.9260   44.4850 H   0  0  0  0  0  0  0  0  0  0  0  0
   45.2400   36.4640   42.4440 H   0  0  0  0  0  0  0  0  0  0  0  0
   46.7280   34.4570   42.4250 H   0  0  0  0  0  0  0  0  0  0  0  0
   46.8930   32.0450   46.1750 S   0  0  0  0  0  0  0  0  0  0  0  0
   46.3300   30.4560   46.6570 C   0  0  0  0  0  0  0  0  0  0  0  0
   46.5970   29.2030   46.2510 C   0  0  0  0  0  0  0  0  0  0  0  0
   47.3200   29.1370   45.4440 H   0  0  0  0  0  0  0  0  0  0  0  0
   46.0200   28.1080   46.7940 C   0  0  0  0  0  3  0  0  0  0  0  0
   45.0800   28.4410   47.8650 C   0  0  0  0  0  3  0  0  0  0  0  0
   45.1270   30.2400   47.9730 S   0  0  0  0  0  0  0  0  0  0  0  0
  1  3  1  0  0  0  0
  1  2  1  0  0  0  0
  4 10  1  0  0  0  0
  4  9  1  0  0  0  0
  5  4  2  0  0  0  0
  6  5  1  0  0  0  0
  6  7  2  0  0  0  0
  7  8  1  0  0  0  0
  8  9  2  0  0  0  0
  8  1  1  0  0  0  0
 11  5  1  0  0  0  0
 12  6  1  0  0  0  0
 13  1  1  0  0  0  0
 13 14  1  0  0  0  0
 14 19  1  0  0  0  0
 15 14  2  0  0  0  0
 15 17  1  0  0  0  0
 16 15  1  0  0  0  0
 17 18  2  0  0  0  0
 18 19  1  0  0  0  0
M  END
>  <minimizedAffinity>
-3.65895987

>  <minimizedRMSD>
1.01142216

$$$$
