
 OpenBabel03242519413D

 31 33  0  0  0  0  0  0  0  0999 V2000
   47.9710   32.8640   41.6510 O   0  0  0  0  0  0  0  0  0  0  0  0
   47.1090   34.0880   41.2420 P   0  0  2  0  0  0  0  0  0  0  0  0
   45.5250   33.8760   41.8720 O   0  0  0  0  0  0  0  0  0  0  0  0
   44.3990   35.9130   44.6720 C   0  0  0  0  0  0  0  0  0  0  0  0
   44.6540   35.4920   43.3460 C   0  0  0  0  0  0  0  0  0  0  0  0
   45.2890   34.2530   43.1760 C   0  0  0  0  0  0  0  0  0  0  0  0
   45.6170   33.5380   44.2690 N   0  0  0  0  0  0  0  0  0  0  0  0
   45.3590   33.9680   45.5240 C   0  0  0  0  0  0  0  0  0  0  0  0
   44.7540   35.1480   45.7350 N   0  0  0  0  0  0  0  0  0  0  0  0
   43.9100   36.8680   44.8120 H   0  0  0  0  0  0  0  0  0  0  0  0
   44.3520   36.1360   42.5440 H   0  0  0  0  0  0  0  0  0  0  0  0
   45.6570   33.3290   46.3630 H   0  0  0  0  0  0  0  0  0  0  0  0
   47.0200   34.1590   39.5880 O   0  0  0  0  0  0  0  0  0  0  0  0
   47.0400   33.1620   38.6650 C   0  0  0  0  0  0  0  0  0  0  0  0
   46.6110   33.4600   37.4140 O   0  0  0  0  0  0  0  0  0  0  0  0
   47.3750   31.7410   38.4120 C   0  0  0  0  0  0  0  0  0  0  0  0
   46.3520   30.7990   38.1590 C   0  0  0  0  0  0  0  0  0  0  0  0
   45.3440   31.2590   38.0310 H   0  0  0  0  0  0  0  0  0  0  0  0
   46.3740   29.4340   38.0460 C   0  0  0  0  0  3  0  0  0  0  0  0
   47.6480   28.9550   38.2180 C   0  0  0  0  0  3  0  0  0  0  0  0
   48.7040   29.7970   38.4660 C   0  0  0  0  0  0  0  0  0  0  0  0
   49.9800   29.2910   38.5930 C   0  0  0  0  0  3  0  0  0  0  0  0
   51.1440   30.0030   38.8010 C   0  0  0  0  0  3  0  0  0  0  0  0
   50.9610   31.3900   38.8840 C   0  0  0  0  0  3  0  0  0  0  0  0
   49.7010   31.9200   38.7620 C   0  0  0  0  0  3  0  0  0  0  0  0
   48.5730   31.1790   38.5600 C   0  0  0  0  0  0  0  0  0  0  0  0
   47.7930   35.4170   41.9590 O   0  0  0  0  0  0  0  0  0  0  0  0
   49.0360   35.7280   41.4260 C   0  0  0  0  0  0  0  0  0  0  0  0
   49.4520   37.0030   41.7610 F   0  0  0  0  0  0  0  0  0  0  0  0
   49.9460   34.7720   41.7440 F   0  0  0  0  0  0  0  0  0  0  0  0
   48.8740   35.7240   40.0420 F   0  0  0  0  0  0  0  0  0  0  0  0
  2  1  2  1  0  0  0
  2  3  1  0  0  0  0
  2 27  1  0  0  0  0
  3  6  1  0  0  0  0
  4 10  1  0  0  0  0
  4  9  1  0  0  0  0
  5  4  2  0  0  0  0
  6  5  1  0  0  0  0
  6  7  2  0  0  0  0
  7  8  1  0  0  0  0
  8  9  2  0  0  0  0
  8 12  1  0  0  0  0
 11  5  1  0  0  0  0
 13  2  1  0  0  0  0
 14 13  1  0  0  0  0
 15 14  2  0  0  0  0
 16 26  1  0  0  0  0
 16 14  1  0  0  0  0
 17 16  2  0  0  0  0
 18 17  1  0  0  0  0
 19 17  1  0  0  0  0
 19 20  2  0  0  0  0
 20 21  1  0  0  0  0
 21 26  2  0  0  0  0
 21 22  1  0  0  0  0
 22 23  2  0  0  0  0
 23 24  1  0  0  0  0
 25 24  2  0  0  0  0
 26 25  1  0  0  0  0
 28 30  1  0  0  0  0
 28 29  1  0  0  0  0
 28 27  1  0  0  0  0
 31 28  1  0  0  0  0
M  END
>  <minimizedAffinity>
-5.14847851

>  <minimizedRMSD>
1.27184141

$$$$
