
 OpenBabel03252507553D

 46 50  0  0  1  0  0  0  0  0999 V2000
   48.6370   30.4040   40.0670 C   0  0  2  0  0  0  0  0  0  0  0  0
   48.9450   29.8400   41.3740 C   0  0  0  0  0  0  0  0  0  0  0  0
   50.0010   30.5380   40.5770 C   0  0  1  0  0  0  0  0  0  0  0  0
   48.4800   29.7000   39.2290 H   0  0  0  0  0  0  0  0  0  0  0  0
   48.6430   30.4110   42.2860 H   0  0  0  0  0  0  0  0  0  0  0  0
   49.0940   28.7580   41.5680 H   0  0  0  0  0  0  0  0  0  0  0  0
   50.3370   31.5660   40.7330 H   0  0  0  0  0  0  0  0  0  0  0  0
   45.3820   31.9420   40.1880 C   0  0  2  0  0  0  0  0  0  0  0  0
   45.6600   31.5480   38.7340 C   0  0  0  0  0  0  0  0  0  0  0  0
   47.1550   31.9340   38.7000 C   0  0  0  0  0  0  0  0  0  0  0  0
   47.6740   31.5690   40.0580 C   0  0  1  0  0  0  0  0  0  0  0  0
   46.4760   31.1640   40.8630 C   0  0  0  0  0  0  0  0  0  0  0  0
   45.5500   33.0200   40.3270 H   0  0  0  0  0  0  0  0  0  0  0  0
   45.5460   30.4620   38.6750 H   0  0  0  0  0  0  0  0  0  0  0  0
   45.0880   32.1350   38.0140 H   0  0  0  0  0  0  0  0  0  0  0  0
   47.6540   31.3850   37.8800 H   0  0  0  0  0  0  0  0  0  0  0  0
   47.2380   33.0260   38.5670 H   0  0  0  0  0  0  0  0  0  0  0  0
   48.1650   32.4290   40.5740 H   0  0  0  0  0  0  0  0  0  0  0  0
   46.2870   30.0780   40.7590 H   0  0  0  0  0  0  0  0  0  0  0  0
   46.5730   31.3830   41.9470 H   0  0  0  0  0  0  0  0  0  0  0  0
   41.6620   31.6410   40.6820 C   0  0  0  0  0  0  0  0  0  0  0  0
   42.8640   32.1440   40.2020 C   0  0  0  0  0  0  0  0  0  0  0  0
   44.0270   31.4910   40.6090 C   0  0  0  0  0  0  0  0  0  0  0  0
   43.9560   30.3820   41.4610 N   0  0  0  0  0  0  0  0  0  0  0  0
   42.7470   29.9390   41.8960 C   0  0  0  0  0  0  0  0  0  0  0  0
   41.6070   30.5670   41.5060 N   0  0  0  0  0  0  0  0  0  0  0  0
   40.7500   32.1370   40.3760 H   0  0  0  0  0  0  0  0  0  0  0  0
   42.9490   32.9970   39.5450 H   0  0  0  0  0  0  0  0  0  0  0  0
   42.8100   29.0790   42.5480 H   0  0  0  0  0  0  0  0  0  0  0  0
   51.0000   29.7310   39.9770 O   0  0  0  0  0  0  0  0  0  0  0  0
   51.0160   31.9150   38.5490 O   0  0  0  0  0  0  0  0  0  0  0  0
   51.8090   30.6660   38.8380 P   0  0  1  0  0  0  0  0  0  0  0  0
   53.3350   31.1510   39.4550 O   0  0  0  0  0  0  0  0  0  0  0  0
   53.2550   32.0350   39.8760 H   0  0  0  0  0  0  0  0  0  0  0  0
   52.1020   29.8830   37.4000 O   0  0  0  0  0  0  0  0  0  0  0  0
   51.4370   28.6970   37.1250 C   0  0  0  0  0  0  0  0  0  0  0  0
   50.2090   28.5590   36.5150 C   0  0  0  0  0  0  0  0  0  0  0  0
   49.7200   29.4750   36.2230 H   0  0  0  0  0  0  0  0  0  0  0  0
   49.6450   27.3210   36.2940 C   0  0  0  0  0  3  0  0  0  0  0  0
   50.3030   26.1520   36.6830 C   0  0  0  0  0  3  0  0  0  0  0  0
   51.5330   26.2720   37.2960 C   0  0  0  0  0  0  0  0  0  0  0  0
   52.2050   25.1220   37.6910 C   0  0  0  0  0  3  0  0  0  0  0  0
   53.4500   25.2010   38.3140 C   0  0  0  0  0  3  0  0  0  0  0  0
   54.0140   26.4540   38.5350 C   0  0  0  0  0  3  0  0  0  0  0  0
   53.3070   27.5540   38.1240 C   0  0  0  0  0  3  0  0  0  0  0  0
   52.0770   27.5280   37.5060 C   0  0  0  0  0  0  0  0  0  0  0  0
  1  4  1  6  0  0  0
  1  3  1  0  0  0  0
  1  2  1  0  0  0  0
  2  6  1  0  0  0  0
  2  5  1  0  0  0  0
  3  7  1  1  0  0  0
  3  2  1  0  0  0  0
  8 13  1  1  0  0  0
  8 23  1  0  0  0  0
  8 12  1  0  0  0  0
  9  8  1  0  0  0  0
 10  9  1  0  0  0  0
 10 11  1  0  0  0  0
 11  1  1  0  0  0  0
 11 18  1  1  0  0  0
 11 12  1  0  0  0  0
 12 20  1  0  0  0  0
 14  9  1  0  0  0  0
 15  9  1  0  0  0  0
 16 10  1  0  0  0  0
 17 10  1  0  0  0  0
 19 12  1  0  0  0  0
 21 26  1  0  0  0  0
 22 23  1  0  0  0  0
 22 21  2  0  0  0  0
 23 24  2  0  0  0  0
 24 25  1  0  0  0  0
 25 29  1  0  0  0  0
 26 25  2  0  0  0  0
 27 21  1  0  0  0  0
 28 22  1  0  0  0  0
 30  3  1  0  0  0  0
 32 31  2  6  0  0  0
 32 33  1  0  0  0  0
 32 30  1  0  0  0  0
 33 34  1  0  0  0  0
 35 32  1  0  0  0  0
 36 35  1  0  0  0  0
 36 46  1  0  0  0  0
 37 36  2  0  0  0  0
 38 37  1  0  0  0  0
 39 37  1  0  0  0  0
 39 40  2  0  0  0  0
 40 41  1  0  0  0  0
 41 46  2  0  0  0  0
 41 42  1  0  0  0  0
 42 43  2  0  0  0  0
 43 44  1  0  0  0  0
 45 44  2  0  0  0  0
 46 45  1  0  0  0  0
M  END
>  <minimizedAffinity>
-1.66747868

>  <minimizedRMSD>
4.95982456

$$$$
