
 OpenBabel03252509003D

 47 50  0  0  1  0  0  0  0  0999 V2000
   47.0340   34.2030   43.5090 N   0  0  0  0  0  0  0  0  0  0  0  0
   46.6950   35.2050   42.5650 C   0  0  0  0  0  0  0  0  0  0  0  0
   45.2100   35.4120   42.3590 C   0  0  0  0  0  0  0  0  0  0  0  0
   44.3710   35.1810   43.5930 C   0  0  0  0  0  0  0  0  0  0  0  0
   45.2300   34.8960   44.8020 C   0  0  0  0  0  0  0  0  0  0  0  0
   46.0840   33.6550   44.3530 C   0  0  2  0  0  0  0  0  0  0  0  0
   47.0650   36.1770   42.9810 H   0  0  0  0  0  0  0  0  0  0  0  0
   47.1590   35.1110   41.5840 H   0  0  0  0  0  0  0  0  0  0  0  0
   44.8910   34.8040   41.4830 H   0  0  0  0  0  0  0  0  0  0  0  0
   45.0320   36.4670   42.0500 H   0  0  0  0  0  0  0  0  0  0  0  0
   43.6330   35.9970   43.7770 H   0  0  0  0  0  0  0  0  0  0  0  0
   43.7750   34.2610   43.4140 H   0  0  0  0  0  0  0  0  0  0  0  0
   45.9320   35.6880   45.0550 H   0  0  0  0  0  0  0  0  0  0  0  0
   44.5660   34.5500   45.6010 H   0  0  0  0  0  0  0  0  0  0  0  0
   45.3710   32.9120   43.9140 H   0  0  0  0  0  0  0  0  0  0  0  0
   48.1680   33.4100   43.1360 C   0  0  0  0  0  0  0  0  0  0  0  0
   48.6990   33.0220   44.0490 H   0  0  0  0  0  0  0  0  0  0  0  0
   48.8440   34.0440   42.5420 H   0  0  0  0  0  0  0  0  0  0  0  0
   47.7000   32.2250   42.3600 C   0  0  0  0  0  0  0  0  0  0  0  0
   47.8550   31.2500   42.8440 H   0  0  0  0  0  0  0  0  0  0  0  0
   46.6020   32.2910   42.1670 H   0  0  0  0  0  0  0  0  0  0  0  0
   50.1390   31.5910   39.5760 C   0  0  0  0  0  0  0  0  0  0  0  0
   49.5330   31.5840   40.8460 C   0  0  0  0  0  0  0  0  0  0  0  0
   48.3360   32.2350   41.0170 C   0  0  0  0  0  0  0  0  0  0  0  0
   47.8010   32.8490   39.9510 N   0  0  0  0  0  0  0  0  0  0  0  0
   48.3980   32.8440   38.7400 C   0  0  0  0  0  0  0  0  0  0  0  0
   49.5670   32.2180   38.5440 N   0  0  0  0  0  0  0  0  0  0  0  0
   51.0840   31.0400   39.5730 H   0  0  0  0  0  0  0  0  0  0  0  0
   49.9750   31.0820   41.7090 H   0  0  0  0  0  0  0  0  0  0  0  0
   47.9550   33.3480   37.8800 H   0  0  0  0  0  0  0  0  0  0  0  0
   46.6360   33.2460   45.5580 O   0  0  0  0  0  0  0  0  0  0  0  0
   45.4610   30.9750   44.8280 O   0  0  0  0  0  0  0  0  0  0  0  0
   46.2330   31.6620   45.9570 P   0  0  2  0  0  0  0  0  0  0  0  0
   45.1070   31.7710   47.2430 O   0  0  0  0  0  0  0  0  0  0  0  0
   45.5560   32.3290   47.9170 H   0  0  0  0  0  0  0  0  0  0  0  0
   47.5340   30.7900   46.4910 O   0  0  0  0  0  0  0  0  0  0  0  0
   47.6970   29.4380   46.5620 C   0  0  0  0  0  0  0  0  0  0  0  0
   47.1190   28.5580   47.4650 C   0  0  0  0  0  0  0  0  0  0  0  0
   46.4690   29.0390   48.1810 H   0  0  0  0  0  0  0  0  0  0  0  0
   47.4100   27.2040   47.3750 C   0  0  0  0  0  3  0  0  0  0  0  0
   48.2550   26.7340   46.4120 C   0  0  0  0  0  3  0  0  0  0  0  0
   48.8400   27.5740   45.5070 C   0  0  0  0  0  0  0  0  0  0  0  0
   49.6830   27.0530   44.5580 C   0  0  0  0  0  3  0  0  0  0  0  0
   50.2840   27.8810   43.6380 C   0  0  0  0  0  3  0  0  0  0  0  0
   50.0270   29.2360   43.6830 C   0  0  0  0  0  3  0  0  0  0  0  0
   49.1860   29.7210   44.6390 C   0  0  0  0  0  3  0  0  0  0  0  0
   48.5530   28.9350   45.5920 C   0  0  0  0  0  0  0  0  0  0  0  0
  1  6  1  0  0  0  0
  2  7  1  0  0  0  0
  2  1  1  0  0  0  0
  3  2  1  0  0  0  0
  3  4  1  0  0  0  0
  4 11  1  0  0  0  0
  4  5  1  0  0  0  0
  5 13  1  0  0  0  0
  5 14  1  0  0  0  0
  6 15  1  6  0  0  0
  6  5  1  0  0  0  0
  6 31  1  0  0  0  0
  8  2  1  0  0  0  0
  9  3  1  0  0  0  0
 10  3  1  0  0  0  0
 12  4  1  0  0  0  0
 16  1  1  0  0  0  0
 16 17  1  0  0  0  0
 18 16  1  0  0  0  0
 19 20  1  0  0  0  0
 19 16  1  0  0  0  0
 21 19  1  0  0  0  0
 22 23  1  0  0  0  0
 23 24  2  0  0  0  0
 23 29  1  0  0  0  0
 24 19  1  0  0  0  0
 25 24  1  0  0  0  0
 26 25  2  0  0  0  0
 27 26  1  0  0  0  0
 27 22  2  0  0  0  0
 28 22  1  0  0  0  0
 30 26  1  0  0  0  0
 31 33  1  0  0  0  0
 33 32  2  6  0  0  0
 33 36  1  0  0  0  0
 33 34  1  0  0  0  0
 34 35  1  0  0  0  0
 36 37  1  0  0  0  0
 37 38  1  0  0  0  0
 38 39  1  0  0  0  0
 40 38  2  0  0  0  0
 41 40  1  0  0  0  0
 42 47  1  0  0  0  0
 42 41  2  0  0  0  0
 43 42  1  0  0  0  0
 44 45  1  0  0  0  0
 44 43  2  0  0  0  0
 45 46  2  0  0  0  0
 46 47  1  0  0  0  0
 47 37  2  0  0  0  0
M  END
>  <minimizedAffinity>
-4.222507

>  <minimizedRMSD>
1.19269454

$$$$
