
 OpenBabel03252504583D

 39 42  0  0  1  0  0  0  0  0999 V2000
   48.0230   34.1240   42.0360 N   0  0  0  0  0  0  0  0  0  0  0  0
   48.0180   35.0960   41.0090 C   0  0  0  0  0  0  0  0  0  0  0  0
   49.1500   35.9700   41.3910 C   0  0  0  0  0  0  0  0  0  0  0  0
   49.8020   35.4010   42.6380 C   0  0  0  0  0  0  0  0  0  0  0  0
   49.2900   33.9530   42.6170 C   0  0  2  0  0  0  0  0  0  0  0  0
   47.4970   35.3660   40.1290 H   0  0  0  0  0  0  0  0  0  0  0  0
   49.5520   36.8520   40.9310 H   0  0  0  0  0  0  0  0  0  0  0  0
   49.4700   35.9130   43.5380 H   0  0  0  0  0  0  0  0  0  0  0  0
   50.8910   35.3870   42.4570 H   0  0  0  0  0  0  0  0  0  0  0  0
   49.2630   33.4840   43.5970 H   0  0  0  0  0  0  0  0  0  0  0  0
   46.8530   33.4940   42.3820 C   0  0  0  0  0  0  0  0  0  0  0  0
   47.1070   32.4350   42.6500 H   0  0  0  0  0  0  0  0  0  0  0  0
   46.1300   33.3460   41.5490 H   0  0  0  0  0  0  0  0  0  0  0  0
   44.6060   35.7700   44.4070 C   0  0  0  0  0  0  0  0  0  0  0  0
   45.3250   35.2700   43.2840 C   0  0  0  0  0  0  0  0  0  0  0  0
   46.1000   34.1230   43.4460 C   0  0  0  0  0  0  0  0  0  0  0  0
   46.1150   33.5580   44.6720 N   0  0  0  0  0  0  0  0  0  0  0  0
   45.4140   34.0530   45.7510 C   0  0  0  0  0  0  0  0  0  0  0  0
   44.6680   35.1490   45.6150 N   0  0  0  0  0  0  0  0  0  0  0  0
   44.0110   36.6430   44.3000 H   0  0  0  0  0  0  0  0  0  0  0  0
   45.2860   35.7480   42.3280 H   0  0  0  0  0  0  0  0  0  0  0  0
   45.4920   33.5270   46.7000 H   0  0  0  0  0  0  0  0  0  0  0  0
   50.0750   33.2770   41.6700 O   0  0  0  0  0  0  0  0  0  0  0  0
   49.4420   31.1440   43.1270 O   0  0  0  0  0  0  0  0  0  0  0  0
   50.0950   31.6300   41.8510 P   0  0  2  0  0  0  0  0  0  0  0  0
   51.7150   31.1240   41.8990 O   0  0  0  0  0  0  0  0  0  0  0  0
   52.0600   31.1970   40.9620 H   0  0  0  0  0  0  0  0  0  0  0  0
   49.4090   30.8490   40.4900 O   0  0  0  0  0  0  0  0  0  0  0  0
   48.1050   30.9520   40.0920 C   0  0  0  0  0  0  0  0  0  0  0  0
   46.9960   30.2980   40.5260 C   0  0  0  0  0  0  0  0  0  0  0  0
   47.1840   29.5810   41.3140 H   0  0  0  0  0  0  0  0  0  0  0  0
   45.7360   30.5180   40.0180 C   0  0  0  0  0  3  0  0  0  0  0  0
   45.5470   31.4480   39.0080 C   0  0  0  0  0  3  0  0  0  0  0  0
   46.6640   32.1280   38.5490 C   0  0  0  0  0  0  0  0  0  0  0  0
   46.4050   33.0400   37.5420 C   0  0  0  0  0  3  0  0  0  0  0  0
   47.4480   33.7590   37.0260 C   0  0  0  0  0  3  0  0  0  0  0  0
   48.7010   33.5550   37.5170 C   0  0  0  0  0  3  0  0  0  0  0  0
   48.9670   32.6470   38.5210 C   0  0  0  0  0  3  0  0  0  0  0  0
   47.9300   31.8940   39.0740 C   0  0  0  0  0  0  0  0  0  0  0  0
  1 11  1  0  0  0  0
  1  5  1  0  0  0  0
  2  3  2  0  0  0  0
  2  1  1  0  0  0  0
  3  4  1  0  0  0  0
  4  8  1  0  0  0  0
  5  4  1  0  0  0  0
  5 10  1  1  0  0  0
  6  2  1  0  0  0  0
  7  3  1  0  0  0  0
  9  4  1  0  0  0  0
 11 12  1  0  0  0  0
 11 16  1  0  0  0  0
 13 11  1  0  0  0  0
 14 19  1  0  0  0  0
 15 16  1  0  0  0  0
 15 14  2  0  0  0  0
 16 17  2  0  0  0  0
 17 18  1  0  0  0  0
 18 22  1  0  0  0  0
 19 18  2  0  0  0  0
 20 14  1  0  0  0  0
 21 15  1  0  0  0  0
 23 25  1  0  0  0  0
 23  5  1  0  0  0  0
 25 26  1  0  0  0  0
 25 24  2  1  0  0  0
 27 26  1  0  0  0  0
 28 25  1  0  0  0  0
 29 28  1  0  0  0  0
 29 30  1  0  0  0  0
 30 31  1  0  0  0  0
 32 30  2  0  0  0  0
 33 32  1  0  0  0  0
 34 33  2  0  0  0  0
 34 39  1  0  0  0  0
 35 34  1  0  0  0  0
 36 37  1  0  0  0  0
 36 35  2  0  0  0  0
 37 38  2  0  0  0  0
 38 39  1  0  0  0  0
 39 29  2  0  0  0  0
M  END
>  <minimizedAffinity>
-5.2332716

>  <minimizedRMSD>
1.88909721

$$$$
