
 OpenBabel03252505503D

 24 26  0  0  0  0  0  0  0  0999 V2000
   38.7970   31.4590   41.0060 C   0  0  0  0  0  0  0  0  0  0  0  0
   37.6460   31.8030   40.3130 C   0  0  0  0  0  0  0  0  0  0  0  0
   36.5080   31.0460   40.5630 C   0  0  0  0  0  0  0  0  0  0  0  0
   36.5790   30.0390   41.4440 N   0  0  0  0  0  0  0  0  0  0  0  0
   37.6970   29.7170   42.1070 C   0  0  0  0  0  0  0  0  0  0  0  0
   38.8210   30.4250   41.8920 N   0  0  0  0  0  0  0  0  0  0  0  0
   39.7170   32.0080   40.8560 H   0  0  0  0  0  0  0  0  0  0  0  0
   35.6380   31.3260   40.0240 H   0  0  0  0  0  0  0  0  0  0  0  0
   37.7560   32.9560   39.3750 C   0  0  0  0  0  0  0  0  0  0  0  0
   39.0550   33.3700   39.3960 F   0  0  0  0  0  0  0  0  0  0  0  0
   36.9240   33.9570   39.8600 F   0  0  0  0  0  0  0  0  0  0  0  0
   37.3090   32.5190   38.1350 F   0  0  0  0  0  0  0  0  0  0  0  0
   37.8110   28.6880   43.0220 O   0  0  0  0  0  0  0  0  0  0  0  0
   37.8190   27.3580   42.7720 C   0  0  0  0  0  0  0  0  0  0  0  0
   36.8530   26.4760   42.3390 C   0  0  0  0  0  0  0  0  0  0  0  0
   35.8960   26.9430   42.1640 H   0  0  0  0  0  0  0  0  0  0  0  0
   37.0570   25.1280   42.1390 C   0  0  0  0  0  3  0  0  0  0  0  0
   38.3000   24.5800   42.3780 C   0  0  0  0  0  3  0  0  0  0  0  0
   39.3050   25.4280   42.8160 C   0  0  0  0  0  0  0  0  0  0  0  0
   40.5110   24.8100   43.0310 C   0  0  0  0  0  3  0  0  0  0  0  0
   41.5730   25.5720   43.4680 C   0  0  0  0  0  3  0  0  0  0  0  0
   41.4100   26.9240   43.6800 C   0  0  0  0  0  3  0  0  0  0  0  0
   40.1770   27.4940   43.4480 C   0  0  0  0  0  3  0  0  0  0  0  0
   39.0760   26.7940   43.0120 C   0  0  0  0  0  0  0  0  0  0  0  0
  1  6  1  0  0  0  0
  2  3  1  0  0  0  0
  2  1  2  0  0  0  0
  3  4  2  0  0  0  0
  4  5  1  0  0  0  0
  5 13  1  0  0  0  0
  6  5  2  0  0  0  0
  7  1  1  0  0  0  0
  8  3  1  0  0  0  0
  9 10  1  0  0  0  0
  9 11  1  0  0  0  0
  9  2  1  0  0  0  0
 12  9  1  0  0  0  0
 14 24  1  0  0  0  0
 14 13  1  0  0  0  0
 15 14  2  0  0  0  0
 16 15  1  0  0  0  0
 17 15  1  0  0  0  0
 17 18  2  0  0  0  0
 18 19  1  0  0  0  0
 19 24  2  0  0  0  0
 19 20  1  0  0  0  0
 20 21  2  0  0  0  0
 21 22  1  0  0  0  0
 23 22  2  0  0  0  0
 24 23  1  0  0  0  0
M  END
>  <minimizedAffinity>
-6.17123938

$$$$

 OpenBabel03252505503D

 24 26  0  0  0  0  0  0  0  0999 V2000
   38.9110   31.2940   41.4310 C   0  0  0  0  0  0  0  0  0  0  0  0
   37.8600   31.8320   40.7020 C   0  0  0  0  0  0  0  0  0  0  0  0
   36.6570   31.1380   40.7220 C   0  0  0  0  0  0  0  0  0  0  0  0
   36.5730   30.0040   41.4310 N   0  0  0  0  0  0  0  0  0  0  0  0
   37.5950   29.4950   42.1310 C   0  0  0  0  0  0  0  0  0  0  0  0
   38.7770   30.1370   42.1370 N   0  0  0  0  0  0  0  0  0  0  0  0
   39.8740   31.7850   41.4560 H   0  0  0  0  0  0  0  0  0  0  0  0
   35.8660   31.5660   40.1590 H   0  0  0  0  0  0  0  0  0  0  0  0
   38.1380   33.1040   39.9760 C   0  0  0  0  0  0  0  0  0  0  0  0
   39.0140   32.8110   38.9730 F   0  0  0  0  0  0  0  0  0  0  0  0
   38.7240   33.9730   40.8880 F   0  0  0  0  0  0  0  0  0  0  0  0
   36.9160   33.6070   39.5490 F   0  0  0  0  0  0  0  0  0  0  0  0
   37.5490   28.3310   42.8750 O   0  0  0  0  0  0  0  0  0  0  0  0
   38.5220   27.4000   43.0100 C   0  0  0  0  0  0  0  0  0  0  0  0
   39.7410   27.4000   43.6530 C   0  0  0  0  0  0  0  0  0  0  0  0
   39.9620   28.3320   44.1500 H   0  0  0  0  0  0  0  0  0  0  0  0
   40.6110   26.3320   43.6790 C   0  0  0  0  0  3  0  0  0  0  0  0
   40.2810   25.1620   43.0280 C   0  0  0  0  0  3  0  0  0  0  0  0
   39.0640   25.1140   42.3670 C   0  0  0  0  0  0  0  0  0  0  0  0
   38.8060   23.9190   41.7440 C   0  0  0  0  0  3  0  0  0  0  0  0
   37.6200   23.7760   41.0590 C   0  0  0  0  0  3  0  0  0  0  0  0
   36.7220   24.8210   41.0090 C   0  0  0  0  0  3  0  0  0  0  0  0
   37.0310   25.9990   41.6520 C   0  0  0  0  0  3  0  0  0  0  0  0
   38.1950   26.2110   42.3530 C   0  0  0  0  0  0  0  0  0  0  0  0
  1  7  1  0  0  0  0
  1  6  1  0  0  0  0
  2  3  1  0  0  0  0
  2  1  2  0  0  0  0
  3  4  2  0  0  0  0
  4  5  1  0  0  0  0
  5  6  2  0  0  0  0
  5 13  1  0  0  0  0
  8  3  1  0  0  0  0
  9  2  1  0  0  0  0
  9 11  1  0  0  0  0
 10  9  1  0  0  0  0
 12  9  1  0  0  0  0
 13 14  1  0  0  0  0
 14 15  1  0  0  0  0
 15 17  2  0  0  0  0
 15 16  1  0  0  0  0
 18 17  1  0  0  0  0
 19 18  2  0  0  0  0
 20 19  1  0  0  0  0
 21 20  2  0  0  0  0
 22 21  1  0  0  0  0
 22 23  2  0  0  0  0
 23 24  1  0  0  0  0
 24 19  1  0  0  0  0
 24 14  2  0  0  0  0
M  END
>  <minimizedAffinity>
-6.13600636

$$$$

 OpenBabel03252505503D

 24 26  0  0  0  0  0  0  0  0999 V2000
   41.0530   31.5200   38.6180 C   0  0  0  0  0  0  0  0  0  0  0  0
   41.6380   32.7780   38.6370 C   0  0  0  0  0  0  0  0  0  0  0  0
   41.2390   33.6450   39.6450 C   0  0  0  0  0  0  0  0  0  0  0  0
   40.3250   33.2320   40.5330 N   0  0  0  0  0  0  0  0  0  0  0  0
   39.7670   32.0150   40.5050 C   0  0  0  0  0  0  0  0  0  0  0  0
   40.1270   31.1450   39.5430 N   0  0  0  0  0  0  0  0  0  0  0  0
   41.3200   30.7980   37.8580 H   0  0  0  0  0  0  0  0  0  0  0  0
   41.6990   34.6010   39.6420 H   0  0  0  0  0  0  0  0  0  0  0  0
   42.6390   33.0600   37.5690 C   0  0  0  0  0  0  0  0  0  0  0  0
   42.7780   31.9180   36.8360 F   0  0  0  0  0  0  0  0  0  0  0  0
   43.8350   33.3720   38.2030 F   0  0  0  0  0  0  0  0  0  0  0  0
   42.1750   34.1550   36.8510 F   0  0  0  0  0  0  0  0  0  0  0  0
   38.8230   31.5500   41.4010 O   0  0  0  0  0  0  0  0  0  0  0  0
   37.7370   30.7880   41.1340 C   0  0  0  0  0  0  0  0  0  0  0  0
   36.6370   30.9680   40.3250 C   0  0  0  0  0  0  0  0  0  0  0  0
   36.6440   31.9090   39.7970 H   0  0  0  0  0  0  0  0  0  0  0  0
   35.6140   30.0570   40.1810 C   0  0  0  0  0  3  0  0  0  0  0  0
   35.6510   28.8670   40.8790 C   0  0  0  0  0  3  0  0  0  0  0  0
   36.7390   28.6410   41.7070 C   0  0  0  0  0  0  0  0  0  0  0  0
   36.7060   27.4380   42.3660 C   0  0  0  0  0  3  0  0  0  0  0  0
   37.7460   27.1220   43.2130 C   0  0  0  0  0  3  0  0  0  0  0  0
   38.7890   28.0070   43.3840 C   0  0  0  0  0  3  0  0  0  0  0  0
   38.7720   29.2010   42.6970 C   0  0  0  0  0  3  0  0  0  0  0  0
   37.7680   29.5800   41.8370 C   0  0  0  0  0  0  0  0  0  0  0  0
  1  2  2  0  0  0  0
  1  6  1  0  0  0  0
  2  3  1  0  0  0  0
  3  4  2  0  0  0  0
  5  4  1  0  0  0  0
  5 13  1  0  0  0  0
  6  5  2  0  0  0  0
  7  1  1  0  0  0  0
  8  3  1  0  0  0  0
  9 11  1  0  0  0  0
  9  2  1  0  0  0  0
 10  9  1  0  0  0  0
 12  9  1  0  0  0  0
 14 13  1  0  0  0  0
 14 24  1  0  0  0  0
 15 14  2  0  0  0  0
 16 15  1  0  0  0  0
 17 15  1  0  0  0  0
 17 18  2  0  0  0  0
 18 19  1  0  0  0  0
 19 24  2  0  0  0  0
 19 20  1  0  0  0  0
 20 21  2  0  0  0  0
 21 22  1  0  0  0  0
 23 22  2  0  0  0  0
 24 23  1  0  0  0  0
M  END
>  <minimizedAffinity>
-5.5313158

$$$$

 OpenBabel03252505503D

 24 26  0  0  0  0  0  0  0  0999 V2000
   39.0210   26.6330   42.0030 C   0  0  0  0  0  0  0  0  0  0  0  0
   37.7780   26.0930   42.2960 C   0  0  0  0  0  0  0  0  0  0  0  0
   36.8500   26.9320   42.9000 C   0  0  0  0  0  0  0  0  0  0  0  0
   37.1970   28.1980   43.1660 N   0  0  0  0  0  0  0  0  0  0  0  0
   38.4010   28.7090   42.8790 C   0  0  0  0  0  0  0  0  0  0  0  0
   39.3280   27.9280   42.2930 N   0  0  0  0  0  0  0  0  0  0  0  0
   39.7880   26.0320   41.5330 H   0  0  0  0  0  0  0  0  0  0  0  0
   35.9050   26.5000   43.1140 H   0  0  0  0  0  0  0  0  0  0  0  0
   37.5710   24.6640   41.9240 C   0  0  0  0  0  0  0  0  0  0  0  0
   38.4770   23.9290   42.6300 F   0  0  0  0  0  0  0  0  0  0  0  0
   37.8230   24.5570   40.5610 F   0  0  0  0  0  0  0  0  0  0  0  0
   36.2430   24.3590   42.1930 F   0  0  0  0  0  0  0  0  0  0  0  0
   38.7980   30.0070   43.1360 O   0  0  0  0  0  0  0  0  0  0  0  0
   39.6520   30.7680   42.4120 C   0  0  0  0  0  0  0  0  0  0  0  0
   41.0010   31.0300   42.5190 C   0  0  0  0  0  0  0  0  0  0  0  0
   41.4690   30.5250   43.3500 H   0  0  0  0  0  0  0  0  0  0  0  0
   41.7080   31.8490   41.6670 C   0  0  0  0  0  3  0  0  0  0  0  0
   41.0620   32.4720   40.6200 C   0  0  0  0  0  3  0  0  0  0  0  0
   39.7050   32.2390   40.4710 C   0  0  0  0  0  0  0  0  0  0  0  0
   39.1330   32.8910   39.4080 C   0  0  0  0  0  3  0  0  0  0  0  0
   37.7850   32.7220   39.1780 C   0  0  0  0  0  3  0  0  0  0  0  0
   37.0410   31.9100   40.0080 C   0  0  0  0  0  3  0  0  0  0  0  0
   37.6660   31.2780   41.0610 C   0  0  0  0  0  3  0  0  0  0  0  0
   39.0050   31.4020   41.3480 C   0  0  0  0  0  0  0  0  0  0  0  0
  1  6  2  0  0  0  0
  1  2  1  0  0  0  0
  2  3  2  0  0  0  0
  3  8  1  0  0  0  0
  3  4  1  0  0  0  0
  5 13  1  0  0  0  0
  5  4  2  0  0  0  0
  6  5  1  0  0  0  0
  7  1  1  0  0  0  0
  9 12  1  0  0  0  0
  9  2  1  0  0  0  0
  9 10  1  0  0  0  0
 11  9  1  0  0  0  0
 14 15  1  0  0  0  0
 14 13  1  0  0  0  0
 15 16  1  0  0  0  0
 17 15  2  0  0  0  0
 18 17  1  0  0  0  0
 19 18  2  0  0  0  0
 19 24  1  0  0  0  0
 20 19  1  0  0  0  0
 21 20  2  0  0  0  0
 21 22  1  0  0  0  0
 22 23  2  0  0  0  0
 23 24  1  0  0  0  0
 24 14  2  0  0  0  0
M  END
>  <minimizedAffinity>
-5.45284891

$$$$

 OpenBabel03252505503D

 24 26  0  0  0  0  0  0  0  0999 V2000
   38.6690   26.7510   41.1400 C   0  0  0  0  0  0  0  0  0  0  0  0
   37.6230   26.2530   41.9020 C   0  0  0  0  0  0  0  0  0  0  0  0
   36.9690   27.1480   42.7400 C   0  0  0  0  0  0  0  0  0  0  0  0
   37.3760   28.4240   42.7690 N   0  0  0  0  0  0  0  0  0  0  0  0
   38.3880   28.8930   42.0280 C   0  0  0  0  0  0  0  0  0  0  0  0
   39.0470   28.0580   41.2040 N   0  0  0  0  0  0  0  0  0  0  0  0
   39.2190   26.1050   40.4690 H   0  0  0  0  0  0  0  0  0  0  0  0
   36.1720   26.7480   43.3130 H   0  0  0  0  0  0  0  0  0  0  0  0
   37.3100   24.8050   41.7350 C   0  0  0  0  0  0  0  0  0  0  0  0
   36.2900   24.5120   42.5920 F   0  0  0  0  0  0  0  0  0  0  0  0
   38.4530   24.0980   42.0890 F   0  0  0  0  0  0  0  0  0  0  0  0
   37.0140   24.6020   40.3940 F   0  0  0  0  0  0  0  0  0  0  0  0
   38.8370   30.2000   42.0290 O   0  0  0  0  0  0  0  0  0  0  0  0
   38.4410   31.2090   41.2180 C   0  0  0  0  0  0  0  0  0  0  0  0
   37.2300   31.5400   40.6510 C   0  0  0  0  0  0  0  0  0  0  0  0
   36.4370   30.8550   40.9070 H   0  0  0  0  0  0  0  0  0  0  0  0
   37.0200   32.6310   39.8360 C   0  0  0  0  0  3  0  0  0  0  0  0
   38.0680   33.4770   39.5390 C   0  0  0  0  0  3  0  0  0  0  0  0
   39.3070   33.1850   40.0860 C   0  0  0  0  0  0  0  0  0  0  0  0
   40.2980   34.0710   39.7460 C   0  0  0  0  0  3  0  0  0  0  0  0
   41.5660   33.8630   40.2430 C   0  0  0  0  0  3  0  0  0  0  0  0
   41.8180   32.7830   41.0620 C   0  0  0  0  0  3  0  0  0  0  0  0
   40.7860   31.9250   41.3720 C   0  0  0  0  0  3  0  0  0  0  0  0
   39.4980   32.0710   40.9120 C   0  0  0  0  0  0  0  0  0  0  0  0
  1  6  2  0  0  0  0
  1  2  1  0  0  0  0
  2  3  2  0  0  0  0
  3  4  1  0  0  0  0
  3  8  1  0  0  0  0
  5 13  1  0  0  0  0
  5  4  2  0  0  0  0
  6  5  1  0  0  0  0
  7  1  1  0  0  0  0
  9  2  1  0  0  0  0
  9 11  1  0  0  0  0
  9 10  1  0  0  0  0
 12  9  1  0  0  0  0
 14 13  1  0  0  0  0
 15 16  1  0  0  0  0
 15 14  2  0  0  0  0
 17 15  1  0  0  0  0
 18 17  2  0  0  0  0
 18 19  1  0  0  0  0
 19 24  1  0  0  0  0
 20 19  2  0  0  0  0
 20 21  1  0  0  0  0
 21 22  2  0  0  0  0
 22 23  1  0  0  0  0
 24 14  1  0  0  0  0
 24 23  2  0  0  0  0
M  END
>  <minimizedAffinity>
-5.35184336

$$$$

 OpenBabel03252505503D

 24 26  0  0  0  0  0  0  0  0999 V2000
   38.5920   31.0600   39.1840 C   0  0  0  0  0  0  0  0  0  0  0  0
   37.8100   31.9250   39.9350 C   0  0  0  0  0  0  0  0  0  0  0  0
   36.6580   31.4010   40.5070 C   0  0  0  0  0  0  0  0  0  0  0  0
   36.3650   30.1090   40.3070 N   0  0  0  0  0  0  0  0  0  0  0  0
   37.1280   29.2830   39.5800 C   0  0  0  0  0  0  0  0  0  0  0  0
   38.2520   29.7530   39.0080 N   0  0  0  0  0  0  0  0  0  0  0  0
   39.5010   31.4070   38.7110 H   0  0  0  0  0  0  0  0  0  0  0  0
   36.0750   32.0780   41.0780 H   0  0  0  0  0  0  0  0  0  0  0  0
   38.2960   33.3300   40.0500 C   0  0  0  0  0  0  0  0  0  0  0  0
   39.3960   33.4410   39.2500 F   0  0  0  0  0  0  0  0  0  0  0  0
   38.6460   33.5330   41.3790 F   0  0  0  0  0  0  0  0  0  0  0  0
   37.2400   34.1600   39.6990 F   0  0  0  0  0  0  0  0  0  0  0  0
   36.8620   27.9470   39.3500 O   0  0  0  0  0  0  0  0  0  0  0  0
   36.9120   26.9310   40.2430 C   0  0  0  0  0  0  0  0  0  0  0  0
   37.2750   26.8610   41.5700 C   0  0  0  0  0  0  0  0  0  0  0  0
   37.5820   27.8120   41.9800 H   0  0  0  0  0  0  0  0  0  0  0  0
   37.2590   25.7100   42.3260 C   0  0  0  0  0  3  0  0  0  0  0  0
   36.8590   24.5200   41.7560 C   0  0  0  0  0  3  0  0  0  0  0  0
   36.4840   24.5390   40.4220 C   0  0  0  0  0  0  0  0  0  0  0  0
   36.0990   23.3190   39.9260 C   0  0  0  0  0  3  0  0  0  0  0  0
   35.7080   23.2380   38.6070 C   0  0  0  0  0  3  0  0  0  0  0  0
   35.7100   24.3680   37.8160 C   0  0  0  0  0  3  0  0  0  0  0  0
   36.1060   25.5670   38.3660 C   0  0  0  0  0  3  0  0  0  0  0  0
   36.5080   25.7210   39.6720 C   0  0  0  0  0  0  0  0  0  0  0  0
  1  2  1  0  0  0  0
  2  9  1  0  0  0  0
  2  3  2  0  0  0  0
  3  8  1  0  0  0  0
  4  3  1  0  0  0  0
  5  4  2  0  0  0  0
  6  1  2  0  0  0  0
  6  5  1  0  0  0  0
  7  1  1  0  0  0  0
  9 11  1  0  0  0  0
 10  9  1  0  0  0  0
 12  9  1  0  0  0  0
 13  5  1  0  0  0  0
 13 14  1  0  0  0  0
 14 15  1  0  0  0  0
 15 16  1  0  0  0  0
 15 17  2  0  0  0  0
 18 17  1  0  0  0  0
 19 18  2  0  0  0  0
 20 19  1  0  0  0  0
 21 20  2  0  0  0  0
 22 23  2  0  0  0  0
 22 21  1  0  0  0  0
 23 24  1  0  0  0  0
 24 14  2  0  0  0  0
 24 19  1  0  0  0  0
M  END
>  <minimizedAffinity>
-5.34340525

$$$$

 OpenBabel03252505503D

 24 26  0  0  0  0  0  0  0  0999 V2000
   35.6010   28.1830   36.9880 C   0  0  0  0  0  0  0  0  0  0  0  0
   36.1940   29.3840   36.6280 C   0  0  0  0  0  0  0  0  0  0  0  0
   36.6870   30.1790   37.6550 C   0  0  0  0  0  0  0  0  0  0  0  0
   36.5650   29.7540   38.9200 N   0  0  0  0  0  0  0  0  0  0  0  0
   35.9900   28.5920   39.2550 C   0  0  0  0  0  0  0  0  0  0  0  0
   35.5000   27.7940   38.2890 N   0  0  0  0  0  0  0  0  0  0  0  0
   35.1970   27.5190   36.2360 H   0  0  0  0  0  0  0  0  0  0  0  0
   37.1380   31.0920   37.3580 H   0  0  0  0  0  0  0  0  0  0  0  0
   36.2420   29.6890   35.1700 C   0  0  0  0  0  0  0  0  0  0  0  0
   37.1180   28.8110   34.6030 F   0  0  0  0  0  0  0  0  0  0  0  0
   36.7150   30.9900   35.0410 F   0  0  0  0  0  0  0  0  0  0  0  0
   34.9420   29.6000   34.6890 F   0  0  0  0  0  0  0  0  0  0  0  0
   35.8460   28.1180   40.5450 O   0  0  0  0  0  0  0  0  0  0  0  0
   36.7850   28.0760   41.5190 C   0  0  0  0  0  0  0  0  0  0  0  0
   37.2960   29.0280   42.3740 C   0  0  0  0  0  0  0  0  0  0  0  0
   36.8560   30.0040   42.2390 H   0  0  0  0  0  0  0  0  0  0  0  0
   38.2690   28.7880   43.3190 C   0  0  0  0  0  3  0  0  0  0  0  0
   38.8000   27.5220   43.4510 C   0  0  0  0  0  3  0  0  0  0  0  0
   38.3170   26.5300   42.6120 C   0  0  0  0  0  0  0  0  0  0  0  0
   38.8920   25.2990   42.8040 C   0  0  0  0  0  3  0  0  0  0  0  0
   38.4770   24.2480   42.0150 C   0  0  0  0  0  3  0  0  0  0  0  0
   37.5040   24.4470   41.0580 C   0  0  0  0  0  3  0  0  0  0  0  0
   36.9600   25.7040   40.9080 C   0  0  0  0  0  3  0  0  0  0  0  0
   37.3270   26.7960   41.6590 C   0  0  0  0  0  0  0  0  0  0  0  0
  1  6  1  0  0  0  0
  2  1  2  0  0  0  0
  2  3  1  0  0  0  0
  3  4  2  0  0  0  0
  4  5  1  0  0  0  0
  5 13  1  0  0  0  0
  6  5  2  0  0  0  0
  7  1  1  0  0  0  0
  8  3  1  0  0  0  0
  9  2  1  0  0  0  0
 10  9  1  0  0  0  0
 11  9  1  0  0  0  0
 12  9  1  0  0  0  0
 13 14  1  0  0  0  0
 14 24  2  0  0  0  0
 14 15  1  0  0  0  0
 15 17  2  0  0  0  0
 16 15  1  0  0  0  0
 17 18  1  0  0  0  0
 19 20  1  0  0  0  0
 19 18  2  0  0  0  0
 21 20  2  0  0  0  0
 22 21  1  0  0  0  0
 23 22  2  0  0  0  0
 23 24  1  0  0  0  0
 24 19  1  0  0  0  0
M  END
>  <minimizedAffinity>
-5.33953428

$$$$

 OpenBabel03252505503D

 24 26  0  0  0  0  0  0  0  0999 V2000
   35.9990   27.7940   39.9510 C   0  0  0  0  0  0  0  0  0  0  0  0
   35.3910   28.9230   39.4220 C   0  0  0  0  0  0  0  0  0  0  0  0
   35.6460   30.1330   40.0540 C   0  0  0  0  0  0  0  0  0  0  0  0
   36.4520   30.1490   41.1240 N   0  0  0  0  0  0  0  0  0  0  0  0
   37.0340   29.0530   41.6260 C   0  0  0  0  0  0  0  0  0  0  0  0
   36.8110   27.8600   41.0430 N   0  0  0  0  0  0  0  0  0  0  0  0
   35.8400   26.8210   39.5060 H   0  0  0  0  0  0  0  0  0  0  0  0
   35.1720   30.9840   39.6330 H   0  0  0  0  0  0  0  0  0  0  0  0
   34.5280   28.7120   38.2250 C   0  0  0  0  0  0  0  0  0  0  0  0
   34.7620   27.4440   37.7780 F   0  0  0  0  0  0  0  0  0  0  0  0
   34.9250   29.6390   37.2680 F   0  0  0  0  0  0  0  0  0  0  0  0
   33.2180   28.9550   38.6160 F   0  0  0  0  0  0  0  0  0  0  0  0
   37.8710   29.0270   42.7250 O   0  0  0  0  0  0  0  0  0  0  0  0
   39.1920   29.3190   42.7640 C   0  0  0  0  0  0  0  0  0  0  0  0
   39.9050   30.4800   42.5640 C   0  0  0  0  0  0  0  0  0  0  0  0
   39.2810   31.3300   42.3300 H   0  0  0  0  0  0  0  0  0  0  0  0
   41.2760   30.5810   42.6490 C   0  0  0  0  0  3  0  0  0  0  0  0
   42.0280   29.4650   42.9510 C   0  0  0  0  0  3  0  0  0  0  0  0
   41.3550   28.2720   43.1600 C   0  0  0  0  0  0  0  0  0  0  0  0
   42.1700   27.2080   43.4550 C   0  0  0  0  0  3  0  0  0  0  0  0
   41.5920   25.9780   43.6800 C   0  0  0  0  0  3  0  0  0  0  0  0
   40.2220   25.8350   43.6040 C   0  0  0  0  0  3  0  0  0  0  0  0
   39.4510   26.9370   43.3040 C   0  0  0  0  0  3  0  0  0  0  0  0
   39.9610   28.1930   43.0690 C   0  0  0  0  0  0  0  0  0  0  0  0
  1  6  1  0  0  0  0
  2  1  2  0  0  0  0
  2  3  1  0  0  0  0
  3  4  2  0  0  0  0
  4  5  1  0  0  0  0
  5 13  1  0  0  0  0
  6  5  2  0  0  0  0
  7  1  1  0  0  0  0
  8  3  1  0  0  0  0
  9 12  1  0  0  0  0
  9  2  1  0  0  0  0
 10  9  1  0  0  0  0
 11  9  1  0  0  0  0
 13 14  1  0  0  0  0
 14 24  1  0  0  0  0
 15 17  1  0  0  0  0
 15 14  2  0  0  0  0
 16 15  1  0  0  0  0
 17 18  2  0  0  0  0
 18 19  1  0  0  0  0
 19 20  1  0  0  0  0
 20 21  2  0  0  0  0
 22 21  1  0  0  0  0
 23 22  2  0  0  0  0
 24 19  2  0  0  0  0
 24 23  1  0  0  0  0
M  END
>  <minimizedAffinity>
-5.33165503

$$$$

 OpenBabel03252505503D

 24 26  0  0  0  0  0  0  0  0999 V2000
   36.0410   27.7870   39.9830 C   0  0  0  0  0  0  0  0  0  0  0  0
   35.4270   28.9140   39.4560 C   0  0  0  0  0  0  0  0  0  0  0  0
   35.5960   30.1070   40.1460 C   0  0  0  0  0  0  0  0  0  0  0  0
   36.3310   30.1110   41.2660 N   0  0  0  0  0  0  0  0  0  0  0  0
   36.9200   29.0160   41.7650 C   0  0  0  0  0  0  0  0  0  0  0  0
   36.7790   27.8400   41.1260 N   0  0  0  0  0  0  0  0  0  0  0  0
   35.9470   26.8270   39.4940 H   0  0  0  0  0  0  0  0  0  0  0  0
   35.1190   30.9570   39.7260 H   0  0  0  0  0  0  0  0  0  0  0  0
   34.6500   28.7190   38.1980 C   0  0  0  0  0  0  0  0  0  0  0  0
   34.8320   27.4240   37.8100 F   0  0  0  0  0  0  0  0  0  0  0  0
   35.1850   29.5840   37.2510 F   0  0  0  0  0  0  0  0  0  0  0  0
   33.3330   29.0610   38.4730 F   0  0  0  0  0  0  0  0  0  0  0  0
   37.6860   28.9780   42.9150 O   0  0  0  0  0  0  0  0  0  0  0  0
   38.8100   28.2570   43.1340 C   0  0  0  0  0  0  0  0  0  0  0  0
   39.0310   26.9480   43.5020 C   0  0  0  0  0  0  0  0  0  0  0  0
   38.1220   26.3840   43.6430 H   0  0  0  0  0  0  0  0  0  0  0  0
   40.2760   26.3850   43.6780 C   0  0  0  0  0  3  0  0  0  0  0  0
   41.4080   27.1480   43.4850 C   0  0  0  0  0  3  0  0  0  0  0  0
   41.2360   28.4720   43.1140 C   0  0  0  0  0  0  0  0  0  0  0  0
   42.4070   29.1660   42.9400 C   0  0  0  0  0  3  0  0  0  0  0  0
   42.3380   30.4920   42.5700 C   0  0  0  0  0  3  0  0  0  0  0  0
   41.1110   31.0930   42.3830 C   0  0  0  0  0  3  0  0  0  0  0  0
   39.9670   30.3490   42.5710 C   0  0  0  0  0  3  0  0  0  0  0  0
   39.9620   29.0240   42.9390 C   0  0  0  0  0  0  0  0  0  0  0  0
  1  6  1  0  0  0  0
  2  1  2  0  0  0  0
  2  3  1  0  0  0  0
  3  4  2  0  0  0  0
  4  5  1  0  0  0  0
  5 13  1  0  0  0  0
  6  5  2  0  0  0  0
  7  1  1  0  0  0  0
  8  3  1  0  0  0  0
  9 12  1  0  0  0  0
  9  2  1  0  0  0  0
 10  9  1  0  0  0  0
 11  9  1  0  0  0  0
 13 14  1  0  0  0  0
 14 15  1  0  0  0  0
 15 16  1  0  0  0  0
 15 17  2  0  0  0  0
 18 17  1  0  0  0  0
 19 18  2  0  0  0  0
 20 19  1  0  0  0  0
 21 20  2  0  0  0  0
 22 21  1  0  0  0  0
 22 23  2  0  0  0  0
 23 24  1  0  0  0  0
 24 19  1  0  0  0  0
 24 14  2  0  0  0  0
M  END
>  <minimizedAffinity>
-5.28218317

$$$$
