
 OpenBabel03252507493D

 47 50  0  0  0  0  0  0  0  0999 V2000
   46.8000   34.9820   42.0400 C   0  0  0  0  0  0  0  0  0  0  0  0
   47.2200   34.5070   42.9700 H   0  0  0  0  0  0  0  0  0  0  0  0
   46.9200   36.0830   42.1950 H   0  0  0  0  0  0  0  0  0  0  0  0
   45.3630   34.6460   42.0260 C   0  0  0  0  0  0  0  0  0  0  0  0
   44.3840   35.6690   41.8780 C   0  0  0  0  0  0  0  0  0  0  0  0
   42.7990   34.7640   41.9230 S   0  0  0  0  0  0  0  0  0  0  0  0
   43.7200   33.1080   42.1390 C   0  0  0  0  0  0  0  0  0  0  0  0
   44.8010   33.4850   42.1360 N   0  0  0  0  0  0  0  0  0  0  0  0
   44.5980   36.7650   41.7640 H   0  0  0  0  0  0  0  0  0  0  0  0
   43.0700   31.8890   42.2520 O   0  0  0  0  0  0  0  0  0  0  0  0
   41.0340   30.3050   41.6560 O   0  0  0  0  0  0  0  0  0  0  0  0
   41.5780   31.7270   41.4510 P   0  0  1  0  0  0  0  0  0  0  0  0
   40.4990   32.8250   42.1560 O   0  0  0  0  0  0  0  0  0  0  0  0
   40.4930   32.6900   43.1400 H   0  0  0  0  0  0  0  0  0  0  0  0
   41.7560   32.0940   39.8170 O   0  0  0  0  0  0  0  0  0  0  0  0
   40.6690   32.6240   39.1340 C   0  0  0  0  0  0  0  0  0  0  0  0
   39.4430   31.9980   39.0420 C   0  0  0  0  0  0  0  0  0  0  0  0
   39.3020   31.0390   39.5220 H   0  0  0  0  0  0  0  0  0  0  0  0
   38.4540   32.6500   38.3280 C   0  0  0  0  0  3  0  0  0  0  0  0
   38.6490   33.8790   37.7170 C   0  0  0  0  0  3  0  0  0  0  0  0
   39.8990   34.4660   37.8410 C   0  0  0  0  0  0  0  0  0  0  0  0
   40.1070   35.6970   37.2340 C   0  0  0  0  0  3  0  0  0  0  0  0
   41.3620   36.2950   37.3530 C   0  0  0  0  0  3  0  0  0  0  0  0
   42.4080   35.7150   38.0480 C   0  0  0  0  0  3  0  0  0  0  0  0
   42.1420   34.4920   38.6300 C   0  0  0  0  0  3  0  0  0  0  0  0
   40.9140   33.8590   38.5390 C   0  0  0  0  0  0  0  0  0  0  0  0
   47.5580   34.4890   40.8510 C   0  0  0  0  0  0  0  0  0  0  0  0
   47.8280   35.3910   40.2390 H   0  0  0  0  0  0  0  0  0  0  0  0
   46.8730   33.8640   40.2440 H   0  0  0  0  0  0  0  0  0  0  0  0
   48.8080   33.7890   41.1830 C   0  0  0  0  0  0  0  0  0  0  0  0
   49.1130   32.6590   40.4490 C   0  0  0  0  0  0  0  0  0  0  0  0
   50.2620   31.9390   40.6870 C   0  0  0  0  0  0  0  0  0  0  0  0
   51.0860   32.4080   41.6960 N   0  0  0  0  0  0  0  0  0  0  0  0
   50.7460   33.5290   42.3980 C   0  0  0  0  0  0  0  0  0  0  0  0
   49.6240   34.2010   42.1380 N   0  0  0  0  0  0  0  0  0  0  0  0
   50.5420   31.0510   40.1400 H   0  0  0  0  0  0  0  0  0  0  0  0
   51.4020   33.8870   43.1890 H   0  0  0  0  0  0  0  0  0  0  0  0
   47.9980   32.1100   39.1560 S   0  0  0  0  0  0  0  0  0  0  0  0
   48.8070   32.2540   37.5460 C   0  0  0  0  0  0  0  0  0  0  0  0
   49.8960   32.1280   37.7230 H   0  0  0  0  0  0  0  0  0  0  0  0
   48.5150   31.4060   36.8730 H   0  0  0  0  0  0  0  0  0  0  0  0
   48.4690   33.5990   36.9510 C   0  0  0  0  0  0  0  0  0  0  0  0
   49.3860   34.2220   36.9780 H   0  0  0  0  0  0  0  0  0  0  0  0
   47.6940   34.1280   37.5330 H   0  0  0  0  0  0  0  0  0  0  0  0
   48.0520   33.4090   35.5990 N   0  0  0  0  0  0  0  0  0  0  0  0
   48.8240   33.0070   35.0230 H   0  0  0  0  0  0  0  0  0  0  0  0
   47.6560   34.2700   35.1540 H   0  0  0  0  0  0  0  0  0  0  0  0
  1  3  1  0  0  0  0
  1  2  1  0  0  0  0
  4  1  1  0  0  0  0
  4  8  1  0  0  0  0
  5  6  1  0  0  0  0
  5  4  2  0  0  0  0
  6  7  1  0  0  0  0
  7 10  1  0  0  0  0
  8  7  2  0  0  0  0
  9  5  1  0  0  0  0
 12 11  2  1  0  0  0
 12 13  1  0  0  0  0
 12 10  1  0  0  0  0
 13 14  1  0  0  0  0
 15 12  1  0  0  0  0
 16 15  1  0  0  0  0
 17 16  1  0  0  0  0
 17 18  1  0  0  0  0
 19 17  2  0  0  0  0
 20 21  2  0  0  0  0
 20 19  1  0  0  0  0
 21 26  1  0  0  0  0
 22 23  2  0  0  0  0
 22 21  1  0  0  0  0
 23 24  1  0  0  0  0
 24 25  2  0  0  0  0
 26 25  1  0  0  0  0
 26 16  2  0  0  0  0
 27 30  1  0  0  0  0
 27  1  1  0  0  0  0
 28 27  1  0  0  0  0
 29 27  1  0  0  0  0
 30 35  1  0  0  0  0
 31 32  1  0  0  0  0
 31 30  2  0  0  0  0
 32 33  2  0  0  0  0
 33 34  1  0  0  0  0
 34 37  1  0  0  0  0
 35 34  2  0  0  0  0
 36 32  1  0  0  0  0
 38 31  1  0  0  0  0
 39 40  1  0  0  0  0
 39 38  1  0  0  0  0
 41 39  1  0  0  0  0
 42 43  1  0  0  0  0
 42 44  1  0  0  0  0
 42 39  1  0  0  0  0
 45 42  1  0  0  0  0
 46 45  1  0  0  0  0
 47 45  1  0  0  0  0
M  END
>  <minimizedAffinity>
-6.05896139

>  <minimizedRMSD>
3.46628141

$$$$
