
 OpenBabel03252504303D

 35 37  0  0  0  0  0  0  0  0999 V2000
   45.2270   35.6430   43.2230 C   0  0  0  0  0  0  0  0  0  0  0  0
   45.9780   35.2190   42.5500 H   0  0  0  0  0  0  0  0  0  0  0  0
   45.4690   36.6590   43.5820 H   0  0  0  0  0  0  0  0  0  0  0  0
   43.8130   35.2790   41.1510 C   0  0  0  0  0  3  0  0  0  0  0  0
   43.9440   35.6830   42.4200 C   0  0  0  0  0  3  0  0  0  0  0  0
   42.5520   35.3860   40.5810 O   0  0  0  0  0  0  0  0  0  0  0  0
   41.3610   35.6720   41.2050 C   0  0  0  0  0  0  0  0  0  0  0  0
   41.5350   35.4650   42.3120 H   0  0  0  0  0  0  0  0  0  0  0  0
   41.0100   36.7130   41.1540 H   0  0  0  0  0  0  0  0  0  0  0  0
   40.2940   33.5470   41.6280 C   0  0  0  0  0  0  0  0  0  0  0  0
   40.2700   34.7240   40.8600 C   0  0  0  0  0  0  0  0  0  0  0  0
   39.2860   34.8730   39.9310 C   0  0  0  0  0  0  0  0  0  0  0  0
   38.3980   33.8650   39.8200 N   0  0  0  0  0  0  0  0  0  0  0  0
   38.4100   32.7500   40.5390 C   0  0  0  0  0  0  0  0  0  0  0  0
   39.3870   32.5420   41.4990 N   0  0  0  0  0  0  0  0  0  0  0  0
   41.0250   33.3140   42.3950 H   0  0  0  0  0  0  0  0  0  0  0  0
   39.3230   35.7810   39.3830 H   0  0  0  0  0  0  0  0  0  0  0  0
   37.6620   31.9810   40.3960 H   0  0  0  0  0  0  0  0  0  0  0  0
   45.0310   34.7750   44.2650 O   0  0  0  0  0  0  0  0  0  0  0  0
   45.7200   32.6940   42.7590 O   0  0  0  0  0  0  0  0  0  0  0  0
   45.9600   33.3420   44.0860 P   0  0  1  0  0  0  0  0  0  0  0  0
   47.6150   33.7710   44.1950 O   0  0  0  0  0  0  0  0  0  0  0  0
   47.7090   34.2790   45.0520 H   0  0  0  0  0  0  0  0  0  0  0  0
   45.6310   32.3350   45.3600 O   0  0  0  0  0  0  0  0  0  0  0  0
   46.2090   31.8480   46.4160 C   0  0  0  0  0  0  0  0  0  0  0  0
   45.5820   32.5030   47.5040 C   0  0  0  0  0  0  0  0  0  0  0  0
   44.7850   33.2610   47.5430 H   0  0  0  0  0  0  0  0  0  0  0  0
   45.9090   32.2700   48.8410 C   0  0  0  0  0  3  0  0  0  0  0  0
   46.9120   31.3350   49.0920 C   0  0  0  0  0  3  0  0  0  0  0  0
   47.5660   30.6580   48.0890 C   0  0  0  0  0  0  0  0  0  0  0  0
   48.5640   29.7230   48.2550 C   0  0  0  0  0  3  0  0  0  0  0  0
   49.1740   29.0850   47.1920 C   0  0  0  0  0  3  0  0  0  0  0  0
   48.7470   29.4150   45.9000 C   0  0  0  0  0  3  0  0  0  0  0  0
   47.7530   30.3490   45.7550 C   0  0  0  0  0  3  0  0  0  0  0  0
   47.1670   30.9650   46.8280 C   0  0  0  0  0  0  0  0  0  0  0  0
  1  3  1  0  0  0  0
  1 19  1  0  0  0  0
  2  1  1  0  0  0  0
  4  5  2  0  0  0  0
  5  1  1  0  0  0  0
  6  4  1  0  0  0  0
  6  7  1  0  0  0  0
  7  8  1  0  0  0  0
  9  7  1  0  0  0  0
 10 16  1  0  0  0  0
 11  7  1  0  0  0  0
 11 10  2  0  0  0  0
 12 11  1  0  0  0  0
 13 12  2  0  0  0  0
 13 14  1  0  0  0  0
 14 15  2  0  0  0  0
 15 10  1  0  0  0  0
 17 12  1  0  0  0  0
 18 14  1  0  0  0  0
 21 20  2  6  0  0  0
 21 22  1  0  0  0  0
 21 19  1  0  0  0  0
 21 24  1  0  0  0  0
 22 23  1  0  0  0  0
 24 25  1  0  0  0  0
 25 35  2  0  0  0  0
 25 26  1  0  0  0  0
 26 27  1  0  0  0  0
 26 28  2  0  0  0  0
 28 29  1  0  0  0  0
 30 31  1  0  0  0  0
 30 29  2  0  0  0  0
 32 31  2  0  0  0  0
 33 32  1  0  0  0  0
 34 33  2  0  0  0  0
 34 35  1  0  0  0  0
 35 30  1  0  0  0  0
M  END
>  <minimizedAffinity>
-5.757411

>  <minimizedRMSD>
1.21246493

$$$$
