
 OpenBabel03242510443D

 44 48  0  0  0  0  0  0  0  0999 V2000
   38.4360   29.9140   42.0780 C   0  0  0  0  0  0  0  0  0  0  0  0
   37.5350   29.2980   41.1940 C   0  0  0  0  0  0  0  0  0  0  0  0
   37.2770   30.0330   40.0160 C   0  0  0  0  0  0  0  0  0  0  0  0
   37.9050   31.2300   39.8520 N   0  0  0  0  0  0  0  0  0  0  0  0
   38.7650   31.7630   40.7510 C   0  0  0  0  0  0  0  0  0  0  0  0
   39.0340   31.0900   41.8830 N   0  0  0  0  0  0  0  0  0  0  0  0
   38.7500   29.5270   43.0210 H   0  0  0  0  0  0  0  0  0  0  0  0
   41.6690   31.6250   40.2980 Cl  0  0  0  0  0  0  0  0  0  0  0  0
   40.7310   33.1300   40.2650 C   0  0  0  0  0  0  0  0  0  0  0  0
   39.3840   33.0430   40.4950 C   0  0  0  0  0  0  0  0  0  0  0  0
   38.6670   34.2000   40.4700 C   0  0  0  0  0  0  0  0  0  0  0  0
   39.3420   35.4110   40.2120 C   0  0  0  0  0  0  0  0  0  0  0  0
   40.6940   35.4680   39.9860 C   0  0  0  0  0  0  0  0  0  0  0  0
   41.4360   34.2840   40.0110 C   0  0  0  0  0  0  0  0  0  0  0  0
   37.5910   34.1810   40.6460 H   0  0  0  0  0  0  0  0  0  0  0  0
   38.7190   36.3060   40.2030 H   0  0  0  0  0  0  0  0  0  0  0  0
   41.2040   36.3940   39.7900 H   0  0  0  0  0  0  0  0  0  0  0  0
   43.0570   34.6130   42.1910 F   0  0  0  0  0  0  0  0  0  0  0  0
   43.5950   34.4430   40.9690 C   0  0  0  0  0  0  0  0  0  0  0  0
   42.8800   34.2640   39.7800 C   0  0  0  0  0  0  0  0  0  0  0  0
   43.5430   34.0990   38.5900 C   0  0  0  0  0  0  0  0  0  0  0  0
   44.9140   34.1120   38.5820 C   0  0  0  0  0  0  0  0  0  0  0  0
   45.6580   34.2850   39.7290 C   0  0  0  0  0  0  0  0  0  0  0  0
   44.9910   34.4540   40.9450 C   0  0  0  0  0  0  0  0  0  0  0  0
   42.8750   33.9740   37.7640 H   0  0  0  0  0  0  0  0  0  0  0  0
   45.3630   33.9760   37.6060 H   0  0  0  0  0  0  0  0  0  0  0  0
   46.7210   34.2820   39.6360 H   0  0  0  0  0  0  0  0  0  0  0  0
   45.5810   34.5890   41.8370 H   0  0  0  0  0  0  0  0  0  0  0  0
   36.3460   29.4060   39.0770 C   0  0  0  0  0  0  0  0  0  0  0  0
   35.9390   30.3320   38.1360 F   0  0  0  0  0  0  0  0  0  0  0  0
   35.2190   29.0950   39.8050 F   0  0  0  0  0  0  0  0  0  0  0  0
   36.9150   28.3480   38.3980 F   0  0  0  0  0  0  0  0  0  0  0  0
   36.9390   28.0970   41.4140 O   0  0  0  0  0  0  0  0  0  0  0  0
   37.1700   26.8350   41.1890 C   0  0  0  0  0  0  0  0  0  0  0  0
   36.6890   25.9070   40.3030 C   0  0  0  0  0  0  0  0  0  0  0  0
   35.9400   26.1820   39.6020 H   0  0  0  0  0  0  0  0  0  0  0  0
   37.0240   24.5810   40.1650 C   0  0  0  0  0  3  0  0  0  0  0  0
   37.9800   24.1370   41.0500 C   0  0  0  0  0  3  0  0  0  0  0  0
   38.5450   24.9660   41.9910 C   0  0  0  0  0  0  0  0  0  0  0  0
   39.4910   24.3810   42.7990 C   0  0  0  0  0  3  0  0  0  0  0  0
   40.0990   25.1540   43.7540 C   0  0  0  0  0  3  0  0  0  0  0  0
   39.7580   26.4770   43.8820 C   0  0  0  0  0  3  0  0  0  0  0  0
   38.8030   26.9720   43.0280 C   0  0  0  0  0  3  0  0  0  0  0  0
   38.1350   26.2820   42.0410 C   0  0  0  0  0  0  0  0  0  0  0  0
  1  7  1  0  0  0  0
  2 33  1  0  0  0  0
  2  1  2  0  0  0  0
  3  2  1  0  0  0  0
  4  3  2  0  0  0  0
  4  5  1  0  0  0  0
  5  6  2  0  0  0  0
  6  1  1  0  0  0  0
  9  8  1  0  0  0  0
  9 10  1  0  0  0  0
 10  5  1  0  0  0  0
 11 10  2  0  0  0  0
 11 15  1  0  0  0  0
 12 11  1  0  0  0  0
 13 14  1  0  0  0  0
 13 12  2  0  0  0  0
 14  9  2  0  0  0  0
 16 12  1  0  0  0  0
 17 13  1  0  0  0  0
 19 18  1  0  0  0  0
 20 14  1  0  0  0  0
 20 19  2  0  0  0  0
 21 20  1  0  0  0  0
 22 21  2  0  0  0  0
 22 23  1  0  0  0  0
 23 24  2  0  0  0  0
 24 19  1  0  0  0  0
 24 28  1  0  0  0  0
 25 21  1  0  0  0  0
 26 22  1  0  0  0  0
 27 23  1  0  0  0  0
 29 31  1  0  0  0  0
 29  3  1  0  0  0  0
 30 29  1  0  0  0  0
 32 29  1  0  0  0  0
 34 33  1  0  0  0  0
 34 44  1  0  0  0  0
 35 34  2  0  0  0  0
 36 35  1  0  0  0  0
 37 35  1  0  0  0  0
 37 38  2  0  0  0  0
 38 39  1  0  0  0  0
 39 44  2  0  0  0  0
 39 40  1  0  0  0  0
 40 41  2  0  0  0  0
 41 42  1  0  0  0  0
 43 42  2  0  0  0  0
 44 43  1  0  0  0  0
M  END
>  <minimizedAffinity>
-7.97611141

$$$$

 OpenBabel03242510443D

 44 48  0  0  0  0  0  0  0  0999 V2000
   41.3060   30.9980   41.7600 C   0  0  0  0  0  0  0  0  0  0  0  0
   40.8210   32.1540   41.1240 C   0  0  0  0  0  0  0  0  0  0  0  0
   39.4180   32.1890   40.9660 C   0  0  0  0  0  0  0  0  0  0  0  0
   38.6900   31.1350   41.4290 N   0  0  0  0  0  0  0  0  0  0  0  0
   39.2290   30.0510   42.0340 C   0  0  0  0  0  0  0  0  0  0  0  0
   40.5610   29.9840   42.2010 N   0  0  0  0  0  0  0  0  0  0  0  0
   42.3300   30.7780   41.9610 H   0  0  0  0  0  0  0  0  0  0  0  0
   39.1090   27.7510   40.2030 Cl  0  0  0  0  0  0  0  0  0  0  0  0
   38.2280   27.8410   41.7400 C   0  0  0  0  0  0  0  0  0  0  0  0
   38.3790   28.9760   42.4910 C   0  0  0  0  0  0  0  0  0  0  0  0
   37.7010   29.0420   43.6700 C   0  0  0  0  0  0  0  0  0  0  0  0
   36.8910   27.9510   44.0490 C   0  0  0  0  0  0  0  0  0  0  0  0
   36.7590   26.8270   43.2750 C   0  0  0  0  0  0  0  0  0  0  0  0
   37.4520   26.7530   42.0630 C   0  0  0  0  0  0  0  0  0  0  0  0
   37.7890   29.9250   44.3040 H   0  0  0  0  0  0  0  0  0  0  0  0
   36.3720   28.0580   45.0020 H   0  0  0  0  0  0  0  0  0  0  0  0
   36.1400   25.9980   43.5680 H   0  0  0  0  0  0  0  0  0  0  0  0
   38.9990   24.5850   42.6930 F   0  0  0  0  0  0  0  0  0  0  0  0
   38.1970   24.5510   41.6120 C   0  0  0  0  0  0  0  0  0  0  0  0
   37.3610   25.5870   41.1840 C   0  0  0  0  0  0  0  0  0  0  0  0
   36.5860   25.4340   40.0620 C   0  0  0  0  0  0  0  0  0  0  0  0
   36.6440   24.2540   39.3660 C   0  0  0  0  0  0  0  0  0  0  0  0
   37.4530   23.2070   39.7530 C   0  0  0  0  0  0  0  0  0  0  0  0
   38.2450   23.3550   40.8940 C   0  0  0  0  0  0  0  0  0  0  0  0
   35.9980   26.3020   39.8500 H   0  0  0  0  0  0  0  0  0  0  0  0
   36.0040   24.2100   38.4940 H   0  0  0  0  0  0  0  0  0  0  0  0
   37.4390   22.3230   39.1570 H   0  0  0  0  0  0  0  0  0  0  0  0
   38.8750   22.5320   41.1880 H   0  0  0  0  0  0  0  0  0  0  0  0
   38.8900   33.3870   40.3130 C   0  0  0  0  0  0  0  0  0  0  0  0
   37.5230   33.2660   40.1510 F   0  0  0  0  0  0  0  0  0  0  0  0
   39.4170   33.3940   39.0410 F   0  0  0  0  0  0  0  0  0  0  0  0
   39.1200   34.5330   41.0480 F   0  0  0  0  0  0  0  0  0  0  0  0
   41.6000   33.1760   40.6840 O   0  0  0  0  0  0  0  0  0  0  0  0
   42.7960   33.3560   40.2010 C   0  0  0  0  0  0  0  0  0  0  0  0
   43.4610   32.9300   39.0810 C   0  0  0  0  0  0  0  0  0  0  0  0
   42.9740   32.2890   38.3870 H   0  0  0  0  0  0  0  0  0  0  0  0
   44.7470   33.1990   38.6780 C   0  0  0  0  0  3  0  0  0  0  0  0
   45.4560   34.0130   39.5310 C   0  0  0  0  0  3  0  0  0  0  0  0
   44.9070   34.5090   40.6910 C   0  0  0  0  0  0  0  0  0  0  0  0
   45.7350   35.3140   41.4370 C   0  0  0  0  0  3  0  0  0  0  0  0
   45.2480   35.8480   42.6010 C   0  0  0  0  0  3  0  0  0  0  0  0
   43.9620   35.5740   42.9930 C   0  0  0  0  0  3  0  0  0  0  0  0
   43.2100   34.7610   42.1820 C   0  0  0  0  0  3  0  0  0  0  0  0
   43.6050   34.1760   40.9990 C   0  0  0  0  0  0  0  0  0  0  0  0
  1  7  1  0  0  0  0
  1  6  1  0  0  0  0
  2  1  2  0  0  0  0
  3  2  1  0  0  0  0
  3  4  2  0  0  0  0
  4  5  1  0  0  0  0
  5  6  2  0  0  0  0
  5 10  1  0  0  0  0
  8  9  1  0  0  0  0
  9 14  2  0  0  0  0
  9 10  1  0  0  0  0
 10 11  2  0  0  0  0
 11 12  1  0  0  0  0
 11 15  1  0  0  0  0
 12 16  1  0  0  0  0
 13 17  1  0  0  0  0
 13 12  2  0  0  0  0
 14 13  1  0  0  0  0
 19 18  1  0  0  0  0
 20 19  1  0  0  0  0
 20 14  1  0  0  0  0
 21 20  2  0  0  0  0
 22 23  2  0  0  0  0
 22 21  1  0  0  0  0
 23 24  1  0  0  0  0
 24 28  1  0  0  0  0
 24 19  2  0  0  0  0
 25 21  1  0  0  0  0
 26 22  1  0  0  0  0
 27 23  1  0  0  0  0
 29  3  1  0  0  0  0
 29 32  1  0  0  0  0
 30 29  1  0  0  0  0
 31 29  1  0  0  0  0
 33  2  1  0  0  0  0
 34 33  1  0  0  0  0
 34 44  1  0  0  0  0
 35 34  2  0  0  0  0
 36 35  1  0  0  0  0
 37 35  1  0  0  0  0
 37 38  2  0  0  0  0
 38 39  1  0  0  0  0
 39 44  2  0  0  0  0
 39 40  1  0  0  0  0
 40 41  2  0  0  0  0
 41 42  1  0  0  0  0
 43 42  2  0  0  0  0
 44 43  1  0  0  0  0
M  END
>  <minimizedAffinity>
-7.92802095

$$$$

 OpenBabel03242510443D

 44 48  0  0  0  0  0  0  0  0999 V2000
   41.2770   31.1390   41.9570 C   0  0  0  0  0  0  0  0  0  0  0  0
   40.8020   32.2510   41.2430 C   0  0  0  0  0  0  0  0  0  0  0  0
   39.4130   32.2290   40.9840 C   0  0  0  0  0  0  0  0  0  0  0  0
   38.6900   31.1680   41.4350 N   0  0  0  0  0  0  0  0  0  0  0  0
   39.2190   30.1270   42.1200 C   0  0  0  0  0  0  0  0  0  0  0  0
   40.5370   30.1160   42.3840 N   0  0  0  0  0  0  0  0  0  0  0  0
   42.2910   30.9640   42.2390 H   0  0  0  0  0  0  0  0  0  0  0  0
   39.1040   27.8630   40.2450 Cl  0  0  0  0  0  0  0  0  0  0  0  0
   38.2270   27.9190   41.7860 C   0  0  0  0  0  0  0  0  0  0  0  0
   38.3750   29.0400   42.5580 C   0  0  0  0  0  0  0  0  0  0  0  0
   37.7000   29.0800   43.7410 C   0  0  0  0  0  0  0  0  0  0  0  0
   36.8950   27.9780   44.1000 C   0  0  0  0  0  0  0  0  0  0  0  0
   36.7660   26.8690   43.3040 C   0  0  0  0  0  0  0  0  0  0  0  0
   37.4560   26.8220   42.0900 C   0  0  0  0  0  0  0  0  0  0  0  0
   37.7860   29.9510   44.3910 H   0  0  0  0  0  0  0  0  0  0  0  0
   36.3780   28.0640   45.0560 H   0  0  0  0  0  0  0  0  0  0  0  0
   36.1510   26.0320   43.5830 H   0  0  0  0  0  0  0  0  0  0  0  0
   39.0510   24.6680   42.6450 F   0  0  0  0  0  0  0  0  0  0  0  0
   38.2300   24.6430   41.5790 C   0  0  0  0  0  0  0  0  0  0  0  0
   37.3680   25.6730   41.1880 C   0  0  0  0  0  0  0  0  0  0  0  0
   36.5750   25.5300   40.0770 C   0  0  0  0  0  0  0  0  0  0  0  0
   36.6380   24.3650   39.3560 C   0  0  0  0  0  0  0  0  0  0  0  0
   37.4730   23.3250   39.7060 C   0  0  0  0  0  0  0  0  0  0  0  0
   38.2830   23.4630   40.8350 C   0  0  0  0  0  0  0  0  0  0  0  0
   35.9680   26.3920   39.8950 H   0  0  0  0  0  0  0  0  0  0  0  0
   35.9830   24.3280   38.4960 H   0  0  0  0  0  0  0  0  0  0  0  0
   37.4610   22.4530   39.0920 H   0  0  0  0  0  0  0  0  0  0  0  0
   38.9330   22.6450   41.1000 H   0  0  0  0  0  0  0  0  0  0  0  0
   38.8940   33.3820   40.2480 C   0  0  0  0  0  0  0  0  0  0  0  0
   37.5380   33.2280   40.0360 F   0  0  0  0  0  0  0  0  0  0  0  0
   39.4740   33.3330   39.0000 F   0  0  0  0  0  0  0  0  0  0  0  0
   39.0740   34.5680   40.9310 F   0  0  0  0  0  0  0  0  0  0  0  0
   41.5760   33.2840   40.8180 O   0  0  0  0  0  0  0  0  0  0  0  0
   42.7450   33.7970   41.0710 C   0  0  0  0  0  0  0  0  0  0  0  0
   43.3250   34.3920   42.1620 C   0  0  0  0  0  0  0  0  0  0  0  0
   42.7650   34.5200   43.0560 H   0  0  0  0  0  0  0  0  0  0  0  0
   44.5940   34.8990   42.3040 C   0  0  0  0  0  3  0  0  0  0  0  0
   45.3840   34.7870   41.1820 C   0  0  0  0  0  3  0  0  0  0  0  0
   44.9250   34.2100   40.0210 C   0  0  0  0  0  0  0  0  0  0  0  0
   45.8320   34.1640   38.9880 C   0  0  0  0  0  3  0  0  0  0  0  0
   45.4410   33.5950   37.8040 C   0  0  0  0  0  3  0  0  0  0  0  0
   44.1710   33.0900   37.6740 C   0  0  0  0  0  3  0  0  0  0  0  0
   43.3370   33.1820   38.7610 C   0  0  0  0  0  3  0  0  0  0  0  0
   43.6320   33.7330   39.9880 C   0  0  0  0  0  0  0  0  0  0  0  0
  1  7  1  0  0  0  0
  1  6  1  0  0  0  0
  2  1  2  0  0  0  0
  3  2  1  0  0  0  0
  3  4  2  0  0  0  0
  4  5  1  0  0  0  0
  5  6  2  0  0  0  0
  5 10  1  0  0  0  0
  8  9  1  0  0  0  0
  9 14  2  0  0  0  0
  9 10  1  0  0  0  0
 10 11  2  0  0  0  0
 11 12  1  0  0  0  0
 11 15  1  0  0  0  0
 12 16  1  0  0  0  0
 13 17  1  0  0  0  0
 13 12  2  0  0  0  0
 14 13  1  0  0  0  0
 19 18  1  0  0  0  0
 20 19  1  0  0  0  0
 20 14  1  0  0  0  0
 21 20  2  0  0  0  0
 22 23  2  0  0  0  0
 22 21  1  0  0  0  0
 23 24  1  0  0  0  0
 24 28  1  0  0  0  0
 24 19  2  0  0  0  0
 25 21  1  0  0  0  0
 26 22  1  0  0  0  0
 27 23  1  0  0  0  0
 29 32  1  0  0  0  0
 29  3  1  0  0  0  0
 30 29  1  0  0  0  0
 31 29  1  0  0  0  0
 33 34  1  0  0  0  0
 33  2  1  0  0  0  0
 34 35  1  0  0  0  0
 35 37  2  0  0  0  0
 35 36  1  0  0  0  0
 38 37  1  0  0  0  0
 39 38  2  0  0  0  0
 40 39  1  0  0  0  0
 41 40  2  0  0  0  0
 42 41  1  0  0  0  0
 42 43  2  0  0  0  0
 43 44  1  0  0  0  0
 44 39  1  0  0  0  0
 44 34  2  0  0  0  0
M  END
>  <minimizedAffinity>
-7.66124678

$$$$

 OpenBabel03242510443D

 44 48  0  0  0  0  0  0  0  0999 V2000
   37.3070   30.1120   39.1710 C   0  0  0  0  0  0  0  0  0  0  0  0
   37.2880   29.2880   40.3100 C   0  0  0  0  0  0  0  0  0  0  0  0
   37.9750   29.8180   41.4250 C   0  0  0  0  0  0  0  0  0  0  0  0
   38.5720   31.0350   41.2970 N   0  0  0  0  0  0  0  0  0  0  0  0
   38.5480   31.7740   40.1630 C   0  0  0  0  0  0  0  0  0  0  0  0
   37.9030   31.3010   39.0830 N   0  0  0  0  0  0  0  0  0  0  0  0
   36.8590   29.8870   38.2300 H   0  0  0  0  0  0  0  0  0  0  0  0
   41.4560   31.6060   39.7510 Cl  0  0  0  0  0  0  0  0  0  0  0  0
   40.5670   33.1300   39.9290 C   0  0  0  0  0  0  0  0  0  0  0  0
   39.2130   33.0560   40.1160 C   0  0  0  0  0  0  0  0  0  0  0  0
   38.5330   34.2280   40.2530 C   0  0  0  0  0  0  0  0  0  0  0  0
   39.2530   35.4400   40.1950 C   0  0  0  0  0  0  0  0  0  0  0  0
   40.6100   35.4830   40.0070 C   0  0  0  0  0  0  0  0  0  0  0  0
   41.3140   34.2830   39.8660 C   0  0  0  0  0  0  0  0  0  0  0  0
   37.4530   34.2200   40.4040 H   0  0  0  0  0  0  0  0  0  0  0  0
   38.6580   36.3470   40.3110 H   0  0  0  0  0  0  0  0  0  0  0  0
   41.1540   36.4100   39.9640 H   0  0  0  0  0  0  0  0  0  0  0  0
   42.8950   34.4270   42.0950 F   0  0  0  0  0  0  0  0  0  0  0  0
   43.4550   34.3300   40.8760 C   0  0  0  0  0  0  0  0  0  0  0  0
   42.7620   34.2490   39.6630 C   0  0  0  0  0  0  0  0  0  0  0  0
   43.4470   34.1520   38.4780 C   0  0  0  0  0  0  0  0  0  0  0  0
   44.8180   34.1360   38.4980 C   0  0  0  0  0  0  0  0  0  0  0  0
   45.5400   34.2130   39.6700 C   0  0  0  0  0  0  0  0  0  0  0  0
   44.8510   34.3120   40.8800 C   0  0  0  0  0  0  0  0  0  0  0  0
   42.7940   34.0980   37.6320 H   0  0  0  0  0  0  0  0  0  0  0  0
   45.2850   34.0570   37.5250 H   0  0  0  0  0  0  0  0  0  0  0  0
   46.6040   34.1940   39.5980 H   0  0  0  0  0  0  0  0  0  0  0  0
   45.4240   34.3730   41.7910 H   0  0  0  0  0  0  0  0  0  0  0  0
   37.9610   28.9810   42.6250 C   0  0  0  0  0  0  0  0  0  0  0  0
   38.3560   29.7270   43.7180 F   0  0  0  0  0  0  0  0  0  0  0  0
   38.9470   28.0360   42.4440 F   0  0  0  0  0  0  0  0  0  0  0  0
   36.7080   28.4740   42.9000 F   0  0  0  0  0  0  0  0  0  0  0  0
   36.6720   28.0800   40.3770 O   0  0  0  0  0  0  0  0  0  0  0  0
   36.3290   27.1120   39.5770 C   0  0  0  0  0  0  0  0  0  0  0  0
   35.6770   27.0370   38.3730 C   0  0  0  0  0  0  0  0  0  0  0  0
   35.3200   27.9230   37.9090 H   0  0  0  0  0  0  0  0  0  0  0  0
   35.3740   25.9310   37.6150 C   0  0  0  0  0  3  0  0  0  0  0  0
   35.7890   24.7360   38.1560 C   0  0  0  0  0  3  0  0  0  0  0  0
   36.4540   24.6700   39.3580 C   0  0  0  0  0  0  0  0  0  0  0  0
   36.8120   23.4060   39.7650 C   0  0  0  0  0  3  0  0  0  0  0  0
   37.4840   23.2700   40.9510 C   0  0  0  0  0  3  0  0  0  0  0  0
   37.7830   24.3810   41.6990 C   0  0  0  0  0  3  0  0  0  0  0  0
   37.3860   25.6010   41.2100 C   0  0  0  0  0  3  0  0  0  0  0  0
   36.7080   25.8430   40.0360 C   0  0  0  0  0  0  0  0  0  0  0  0
  1  2  1  0  0  0  0
  2 33  1  0  0  0  0
  2  3  2  0  0  0  0
  3 29  1  0  0  0  0
  4  3  1  0  0  0  0
  5  4  2  0  0  0  0
  6  1  2  0  0  0  0
  6  5  1  0  0  0  0
  7  1  1  0  0  0  0
  8  9  1  0  0  0  0
  9 10  1  0  0  0  0
 10  5  1  0  0  0  0
 10 11  2  0  0  0  0
 11 15  1  0  0  0  0
 12 11  1  0  0  0  0
 12 16  1  0  0  0  0
 13 12  2  0  0  0  0
 14  9  2  0  0  0  0
 14 13  1  0  0  0  0
 17 13  1  0  0  0  0
 19 24  1  0  0  0  0
 19 18  1  0  0  0  0
 20 14  1  0  0  0  0
 20 19  2  0  0  0  0
 21 22  2  0  0  0  0
 21 20  1  0  0  0  0
 22 23  1  0  0  0  0
 23 24  2  0  0  0  0
 24 28  1  0  0  0  0
 25 21  1  0  0  0  0
 26 22  1  0  0  0  0
 27 23  1  0  0  0  0
 29 32  1  0  0  0  0
 29 30  1  0  0  0  0
 31 29  1  0  0  0  0
 34 44  1  0  0  0  0
 34 33  1  0  0  0  0
 35 34  2  0  0  0  0
 36 35  1  0  0  0  0
 37 38  2  0  0  0  0
 37 35  1  0  0  0  0
 38 39  1  0  0  0  0
 39 40  2  0  0  0  0
 39 44  1  0  0  0  0
 40 41  1  0  0  0  0
 41 42  2  0  0  0  0
 43 42  1  0  0  0  0
 44 43  2  0  0  0  0
M  END
>  <minimizedAffinity>
-7.62768841

$$$$

 OpenBabel03242510443D

 44 48  0  0  0  0  0  0  0  0999 V2000
   39.4990   28.6950   39.1990 C   0  0  0  0  0  0  0  0  0  0  0  0
   38.2910   28.8460   39.8990 C   0  0  0  0  0  0  0  0  0  0  0  0
   37.9890   30.1770   40.2630 C   0  0  0  0  0  0  0  0  0  0  0  0
   38.8680   31.1570   39.9130 N   0  0  0  0  0  0  0  0  0  0  0  0
   40.0180   30.9350   39.2350 C   0  0  0  0  0  0  0  0  0  0  0  0
   40.3360   29.6800   38.8720 N   0  0  0  0  0  0  0  0  0  0  0  0
   39.9080   27.7740   38.8480 H   0  0  0  0  0  0  0  0  0  0  0  0
   41.5650   31.9580   41.5180 Cl  0  0  0  0  0  0  0  0  0  0  0  0
   41.6750   32.6120   39.8730 C   0  0  0  0  0  0  0  0  0  0  0  0
   40.8940   32.0360   38.9080 C   0  0  0  0  0  0  0  0  0  0  0  0
   40.9800   32.5420   37.6470 C   0  0  0  0  0  0  0  0  0  0  0  0
   41.8600   33.6180   37.4060 C   0  0  0  0  0  0  0  0  0  0  0  0
   42.6300   34.1750   38.3940 C   0  0  0  0  0  0  0  0  0  0  0  0
   42.5460   33.6610   39.6910 C   0  0  0  0  0  0  0  0  0  0  0  0
   40.3780   32.1160   36.8440 H   0  0  0  0  0  0  0  0  0  0  0  0
   41.8890   33.9820   36.3780 H   0  0  0  0  0  0  0  0  0  0  0  0
   43.2990   34.9960   38.2050 H   0  0  0  0  0  0  0  0  0  0  0  0
   41.4090   35.6530   41.1840 F   0  0  0  0  0  0  0  0  0  0  0  0
   42.6460   35.2120   41.4780 C   0  0  0  0  0  0  0  0  0  0  0  0
   43.3360   34.2040   40.7970 C   0  0  0  0  0  0  0  0  0  0  0  0
   44.5980   33.8380   41.1920 C   0  0  0  0  0  0  0  0  0  0  0  0
   45.1730   34.4730   42.2630 C   0  0  0  0  0  0  0  0  0  0  0  0
   44.5280   35.4700   42.9630 C   0  0  0  0  0  0  0  0  0  0  0  0
   43.2440   35.8490   42.5660 C   0  0  0  0  0  0  0  0  0  0  0  0
   45.0060   33.0580   40.5850 H   0  0  0  0  0  0  0  0  0  0  0  0
   46.1680   34.1280   42.5140 H   0  0  0  0  0  0  0  0  0  0  0  0
   45.0460   35.9130   43.7840 H   0  0  0  0  0  0  0  0  0  0  0  0
   42.7480   36.6310   43.1190 H   0  0  0  0  0  0  0  0  0  0  0  0
   36.7300   30.3590   40.9870 C   0  0  0  0  0  0  0  0  0  0  0  0
   36.4740   31.7080   41.1440 F   0  0  0  0  0  0  0  0  0  0  0  0
   36.9450   29.8700   42.2560 F   0  0  0  0  0  0  0  0  0  0  0  0
   35.6550   29.8080   40.3210 F   0  0  0  0  0  0  0  0  0  0  0  0
   37.4530   27.8260   40.2190 O   0  0  0  0  0  0  0  0  0  0  0  0
   37.5090   26.5420   40.4240 C   0  0  0  0  0  0  0  0  0  0  0  0
   36.9800   25.4390   39.8050 C   0  0  0  0  0  0  0  0  0  0  0  0
   36.3530   25.5590   38.9560 H   0  0  0  0  0  0  0  0  0  0  0  0
   37.1210   24.1100   40.1260 C   0  0  0  0  0  3  0  0  0  0  0  0
   37.9080   23.8680   41.2280 C   0  0  0  0  0  3  0  0  0  0  0  0
   38.5000   24.8850   41.9410 C   0  0  0  0  0  0  0  0  0  0  0  0
   39.2630   24.4860   43.0130 C   0  0  0  0  0  3  0  0  0  0  0  0
   39.8880   25.4490   43.7620 C   0  0  0  0  0  3  0  0  0  0  0  0
   39.7410   26.7730   43.4310 C   0  0  0  0  0  3  0  0  0  0  0  0
   38.9590   27.0740   42.3430 C   0  0  0  0  0  3  0  0  0  0  0  0
   38.2920   26.1840   41.5300 C   0  0  0  0  0  0  0  0  0  0  0  0
  1  2  1  0  0  0  0
  2 33  1  0  0  0  0
  2  3  2  0  0  0  0
  3 29  1  0  0  0  0
  4  3  1  0  0  0  0
  5  4  2  0  0  0  0
  6  1  2  0  0  0  0
  6  5  1  0  0  0  0
  7  1  1  0  0  0  0
  9  8  1  0  0  0  0
 10  5  1  0  0  0  0
 10  9  2  0  0  0  0
 11 10  1  0  0  0  0
 12 11  2  0  0  0  0
 12 13  1  0  0  0  0
 13 14  2  0  0  0  0
 14  9  1  0  0  0  0
 14 20  1  0  0  0  0
 15 11  1  0  0  0  0
 16 12  1  0  0  0  0
 17 13  1  0  0  0  0
 18 19  1  0  0  0  0
 19 24  1  0  0  0  0
 20 21  1  0  0  0  0
 20 19  2  0  0  0  0
 21 22  2  0  0  0  0
 22 26  1  0  0  0  0
 22 23  1  0  0  0  0
 23 27  1  0  0  0  0
 24 23  2  0  0  0  0
 24 28  1  0  0  0  0
 25 21  1  0  0  0  0
 29 30  1  0  0  0  0
 29 31  1  0  0  0  0
 32 29  1  0  0  0  0
 33 34  1  0  0  0  0
 34 44  1  0  0  0  0
 35 37  1  0  0  0  0
 35 34  2  0  0  0  0
 36 35  1  0  0  0  0
 37 38  2  0  0  0  0
 38 39  1  0  0  0  0
 39 40  1  0  0  0  0
 40 41  2  0  0  0  0
 42 41  1  0  0  0  0
 43 42  2  0  0  0  0
 44 39  2  0  0  0  0
 44 43  1  0  0  0  0
M  END
>  <minimizedAffinity>
-7.39310074

$$$$

 OpenBabel03242510443D

 44 48  0  0  0  0  0  0  0  0999 V2000
   38.1350   30.1650   41.3930 C   0  0  0  0  0  0  0  0  0  0  0  0
   37.5210   29.6000   40.2630 C   0  0  0  0  0  0  0  0  0  0  0  0
   37.6490   30.3690   39.0840 C   0  0  0  0  0  0  0  0  0  0  0  0
   38.3320   31.5460   39.1520 N   0  0  0  0  0  0  0  0  0  0  0  0
   38.8990   32.0270   40.2830 C   0  0  0  0  0  0  0  0  0  0  0  0
   38.7970   31.3220   41.4220 N   0  0  0  0  0  0  0  0  0  0  0  0
   38.1400   29.7470   42.3750 H   0  0  0  0  0  0  0  0  0  0  0  0
   41.8230   31.7690   40.0850 Cl  0  0  0  0  0  0  0  0  0  0  0  0
   40.9680   33.3210   40.1730 C   0  0  0  0  0  0  0  0  0  0  0  0
   39.6030   33.2890   40.2630 C   0  0  0  0  0  0  0  0  0  0  0  0
   38.9500   34.4820   40.3300 C   0  0  0  0  0  0  0  0  0  0  0  0
   39.7070   35.6710   40.3040 C   0  0  0  0  0  0  0  0  0  0  0  0
   41.0750   35.6730   40.2140 C   0  0  0  0  0  0  0  0  0  0  0  0
   41.7510   34.4520   40.1450 C   0  0  0  0  0  0  0  0  0  0  0  0
   37.8620   34.5070   40.4020 H   0  0  0  0  0  0  0  0  0  0  0  0
   39.1330   36.5970   40.3600 H   0  0  0  0  0  0  0  0  0  0  0  0
   41.6480   36.5830   40.1950 H   0  0  0  0  0  0  0  0  0  0  0  0
   42.8330   34.2740   37.6370 F   0  0  0  0  0  0  0  0  0  0  0  0
   43.6340   34.2850   38.7180 C   0  0  0  0  0  0  0  0  0  0  0  0
   43.2090   34.3730   40.0480 C   0  0  0  0  0  0  0  0  0  0  0  0
   44.1250   34.3760   41.0700 C   0  0  0  0  0  0  0  0  0  0  0  0
   45.4600   34.2920   40.7710 C   0  0  0  0  0  0  0  0  0  0  0  0
   45.9230   34.2050   39.4750 C   0  0  0  0  0  0  0  0  0  0  0  0
   44.9970   34.2010   38.4290 C   0  0  0  0  0  0  0  0  0  0  0  0
   43.6630   34.4470   42.0330 H   0  0  0  0  0  0  0  0  0  0  0  0
   46.1190   34.3020   41.6300 H   0  0  0  0  0  0  0  0  0  0  0  0
   46.9770   34.1440   39.3290 H   0  0  0  0  0  0  0  0  0  0  0  0
   45.3680   34.1310   37.4190 H   0  0  0  0  0  0  0  0  0  0  0  0
   37.0240   29.7970   37.8910 C   0  0  0  0  0  0  0  0  0  0  0  0
   37.0340   30.7260   36.8690 F   0  0  0  0  0  0  0  0  0  0  0  0
   35.6970   29.6060   38.2080 F   0  0  0  0  0  0  0  0  0  0  0  0
   37.6850   28.6740   37.4370 F   0  0  0  0  0  0  0  0  0  0  0  0
   36.8520   28.4180   40.2570 O   0  0  0  0  0  0  0  0  0  0  0  0
   36.9290   27.2490   40.8240 C   0  0  0  0  0  0  0  0  0  0  0  0
   37.2780   26.8000   42.0720 C   0  0  0  0  0  0  0  0  0  0  0  0
   37.5820   27.4930   42.8180 H   0  0  0  0  0  0  0  0  0  0  0  0
   37.3150   25.5140   42.5540 C   0  0  0  0  0  3  0  0  0  0  0  0
   36.9490   24.5500   41.6430 C   0  0  0  0  0  3  0  0  0  0  0  0
   36.5780   24.8650   40.3570 C   0  0  0  0  0  0  0  0  0  0  0  0
   36.2320   23.7950   39.5650 C   0  0  0  0  0  3  0  0  0  0  0  0
   35.8440   24.0390   38.2730 C   0  0  0  0  0  3  0  0  0  0  0  0
   35.8090   25.3280   37.8030 C   0  0  0  0  0  3  0  0  0  0  0  0
   36.1710   26.3310   38.6680 C   0  0  0  0  0  3  0  0  0  0  0  0
   36.5740   26.1900   39.9770 C   0  0  0  0  0  0  0  0  0  0  0  0
  1  6  1  0  0  0  0
  1  7  1  0  0  0  0
  2  1  2  0  0  0  0
  3  4  2  0  0  0  0
  3  2  1  0  0  0  0
  4  5  1  0  0  0  0
  5  6  2  0  0  0  0
  8  9  1  0  0  0  0
  9 10  1  0  0  0  0
 10  5  1  0  0  0  0
 10 11  2  0  0  0  0
 11 15  1  0  0  0  0
 12 11  1  0  0  0  0
 12 16  1  0  0  0  0
 13 12  2  0  0  0  0
 14  9  2  0  0  0  0
 14 13  1  0  0  0  0
 17 13  1  0  0  0  0
 18 19  1  0  0  0  0
 19 20  1  0  0  0  0
 20 14  1  0  0  0  0
 20 21  2  0  0  0  0
 21 25  1  0  0  0  0
 22 21  1  0  0  0  0
 22 26  1  0  0  0  0
 23 22  2  0  0  0  0
 24 19  2  0  0  0  0
 24 23  1  0  0  0  0
 27 23  1  0  0  0  0
 28 24  1  0  0  0  0
 29 31  1  0  0  0  0
 29  3  1  0  0  0  0
 30 29  1  0  0  0  0
 32 29  1  0  0  0  0
 33  2  1  0  0  0  0
 33 34  1  0  0  0  0
 34 35  1  0  0  0  0
 35 37  2  0  0  0  0
 35 36  1  0  0  0  0
 38 37  1  0  0  0  0
 39 38  2  0  0  0  0
 40 39  1  0  0  0  0
 41 40  2  0  0  0  0
 42 41  1  0  0  0  0
 42 43  2  0  0  0  0
 43 44  1  0  0  0  0
 44 39  1  0  0  0  0
 44 34  2  0  0  0  0
M  END
>  <minimizedAffinity>
-7.38535118

$$$$

 OpenBabel03242510443D

 44 48  0  0  0  0  0  0  0  0999 V2000
   39.6320   29.0520   39.2300 C   0  0  0  0  0  0  0  0  0  0  0  0
   38.3570   29.2800   39.7750 C   0  0  0  0  0  0  0  0  0  0  0  0
   38.0730   30.6370   40.0480 C   0  0  0  0  0  0  0  0  0  0  0  0
   39.0290   31.5660   39.7660 N   0  0  0  0  0  0  0  0  0  0  0  0
   40.2400   31.2690   39.2390 C   0  0  0  0  0  0  0  0  0  0  0  0
   40.5430   29.9890   38.9670 N   0  0  0  0  0  0  0  0  0  0  0  0
   40.0380   28.1010   38.9680 H   0  0  0  0  0  0  0  0  0  0  0  0
   41.7690   32.1230   41.6030 Cl  0  0  0  0  0  0  0  0  0  0  0  0
   41.9780   32.8160   39.9840 C   0  0  0  0  0  0  0  0  0  0  0  0
   41.1950   32.3200   38.9760 C   0  0  0  0  0  0  0  0  0  0  0  0
   41.3580   32.8550   37.7340 C   0  0  0  0  0  0  0  0  0  0  0  0
   42.3120   33.8780   37.5560 C   0  0  0  0  0  0  0  0  0  0  0  0
   43.0820   34.3560   38.5860 C   0  0  0  0  0  0  0  0  0  0  0  0
   42.9190   33.8110   39.8630 C   0  0  0  0  0  0  0  0  0  0  0  0
   40.7570   32.4930   36.8990 H   0  0  0  0  0  0  0  0  0  0  0  0
   42.4000   34.2700   36.5420 H   0  0  0  0  0  0  0  0  0  0  0  0
   43.8080   35.1370   38.4450 H   0  0  0  0  0  0  0  0  0  0  0  0
   41.8440   35.8030   41.4010 F   0  0  0  0  0  0  0  0  0  0  0  0
   43.0470   35.2860   41.7120 C   0  0  0  0  0  0  0  0  0  0  0  0
   43.7040   34.2690   41.0100 C   0  0  0  0  0  0  0  0  0  0  0  0
   44.9330   33.8220   41.4260 C   0  0  0  0  0  0  0  0  0  0  0  0
   45.5080   34.3850   42.5360 C   0  0  0  0  0  0  0  0  0  0  0  0
   44.8960   35.3880   43.2560 C   0  0  0  0  0  0  0  0  0  0  0  0
   43.6450   35.8490   42.8400 C   0  0  0  0  0  0  0  0  0  0  0  0
   45.3180   33.0450   40.7990 H   0  0  0  0  0  0  0  0  0  0  0  0
   46.4760   33.9790   42.8000 H   0  0  0  0  0  0  0  0  0  0  0  0
   45.4110   35.7720   44.1080 H   0  0  0  0  0  0  0  0  0  0  0  0
   43.1740   36.6340   43.4090 H   0  0  0  0  0  0  0  0  0  0  0  0
   36.7470   30.9000   40.6080 C   0  0  0  0  0  0  0  0  0  0  0  0
   35.7750   30.4500   39.7360 F   0  0  0  0  0  0  0  0  0  0  0  0
   36.6110   32.2700   40.6430 F   0  0  0  0  0  0  0  0  0  0  0  0
   36.5490   30.2610   41.8160 F   0  0  0  0  0  0  0  0  0  0  0  0
   37.4430   28.3090   40.0330 O   0  0  0  0  0  0  0  0  0  0  0  0
   37.3570   27.2040   40.7170 C   0  0  0  0  0  0  0  0  0  0  0  0
   37.7100   26.8220   41.9850 C   0  0  0  0  0  0  0  0  0  0  0  0
   38.1810   27.5170   42.6360 H   0  0  0  0  0  0  0  0  0  0  0  0
   37.5600   25.6020   42.5990 C   0  0  0  0  0  3  0  0  0  0  0  0
   36.9700   24.6360   41.8160 C   0  0  0  0  0  3  0  0  0  0  0  0
   36.5690   24.8870   40.5240 C   0  0  0  0  0  0  0  0  0  0  0  0
   35.9900   23.8260   39.8700 C   0  0  0  0  0  3  0  0  0  0  0  0
   35.5600   24.0110   38.5820 C   0  0  0  0  0  3  0  0  0  0  0  0
   35.7140   25.2350   37.9790 C   0  0  0  0  0  3  0  0  0  0  0  0
   36.3030   26.2350   38.7130 C   0  0  0  0  0  3  0  0  0  0  0  0
   36.7670   26.1500   40.0070 C   0  0  0  0  0  0  0  0  0  0  0  0
  1  2  1  0  0  0  0
  2 33  1  0  0  0  0
  2  3  2  0  0  0  0
  3 29  1  0  0  0  0
  4  3  1  0  0  0  0
  5  4  2  0  0  0  0
  6  1  2  0  0  0  0
  6  5  1  0  0  0  0
  7  1  1  0  0  0  0
  9  8  1  0  0  0  0
 10  5  1  0  0  0  0
 10  9  2  0  0  0  0
 11 10  1  0  0  0  0
 12 11  2  0  0  0  0
 12 13  1  0  0  0  0
 13 14  2  0  0  0  0
 14  9  1  0  0  0  0
 14 20  1  0  0  0  0
 15 11  1  0  0  0  0
 16 12  1  0  0  0  0
 17 13  1  0  0  0  0
 18 19  1  0  0  0  0
 19 24  1  0  0  0  0
 20 21  1  0  0  0  0
 20 19  2  0  0  0  0
 21 22  2  0  0  0  0
 22 26  1  0  0  0  0
 22 23  1  0  0  0  0
 23 27  1  0  0  0  0
 24 23  2  0  0  0  0
 24 28  1  0  0  0  0
 25 21  1  0  0  0  0
 29 31  1  0  0  0  0
 29 32  1  0  0  0  0
 30 29  1  0  0  0  0
 33 34  1  0  0  0  0
 34 35  1  0  0  0  0
 35 37  2  0  0  0  0
 35 36  1  0  0  0  0
 38 37  1  0  0  0  0
 39 38  2  0  0  0  0
 40 39  1  0  0  0  0
 41 40  2  0  0  0  0
 42 41  1  0  0  0  0
 42 43  2  0  0  0  0
 43 44  1  0  0  0  0
 44 39  1  0  0  0  0
 44 34  2  0  0  0  0
M  END
>  <minimizedAffinity>
-7.34381247

$$$$

 OpenBabel03242510443D

 44 48  0  0  0  0  0  0  0  0999 V2000
   36.7160   30.9270   38.6510 C   0  0  0  0  0  0  0  0  0  0  0  0
   36.6720   29.9370   39.6460 C   0  0  0  0  0  0  0  0  0  0  0  0
   37.4970   30.1950   40.7640 C   0  0  0  0  0  0  0  0  0  0  0  0
   38.2330   31.3410   40.7720 N   0  0  0  0  0  0  0  0  0  0  0  0
   38.2240   32.2530   39.7720 C   0  0  0  0  0  0  0  0  0  0  0  0
   37.4500   32.0400   38.6940 N   0  0  0  0  0  0  0  0  0  0  0  0
   36.1780   30.9120   37.7300 H   0  0  0  0  0  0  0  0  0  0  0  0
   41.1020   31.7620   39.4190 Cl  0  0  0  0  0  0  0  0  0  0  0  0
   40.4000   33.3620   39.7190 C   0  0  0  0  0  0  0  0  0  0  0  0
   39.0410   33.4410   39.8640 C   0  0  0  0  0  0  0  0  0  0  0  0
   38.5040   34.6710   40.0940 C   0  0  0  0  0  0  0  0  0  0  0  0
   39.3670   35.7840   40.1690 C   0  0  0  0  0  0  0  0  0  0  0  0
   40.7260   35.6740   40.0210 C   0  0  0  0  0  0  0  0  0  0  0  0
   41.2830   34.4140   39.7850 C   0  0  0  0  0  0  0  0  0  0  0  0
   37.4260   34.7840   40.2160 H   0  0  0  0  0  0  0  0  0  0  0  0
   38.8840   36.7440   40.3550 H   0  0  0  0  0  0  0  0  0  0  0  0
   41.3800   36.5260   40.0800 H   0  0  0  0  0  0  0  0  0  0  0  0
   42.2450   34.3290   37.2240 F   0  0  0  0  0  0  0  0  0  0  0  0
   43.0860   34.1930   38.2660 C   0  0  0  0  0  0  0  0  0  0  0  0
   42.7230   34.2180   39.6160 C   0  0  0  0  0  0  0  0  0  0  0  0
   43.6750   34.0690   40.5930 C   0  0  0  0  0  0  0  0  0  0  0  0
   44.9850   33.8930   40.2280 C   0  0  0  0  0  0  0  0  0  0  0  0
   45.3870   33.8620   38.9100 C   0  0  0  0  0  0  0  0  0  0  0  0
   44.4240   34.0140   37.9100 C   0  0  0  0  0  0  0  0  0  0  0  0
   43.2600   34.1080   41.5780 H   0  0  0  0  0  0  0  0  0  0  0  0
   45.6760   33.7830   41.0540 H   0  0  0  0  0  0  0  0  0  0  0  0
   46.4250   33.7210   38.7110 H   0  0  0  0  0  0  0  0  0  0  0  0
   44.7470   33.9870   36.8810 H   0  0  0  0  0  0  0  0  0  0  0  0
   37.4610   29.1800   41.8170 C   0  0  0  0  0  0  0  0  0  0  0  0
   36.1500   28.8360   42.0890 F   0  0  0  0  0  0  0  0  0  0  0  0
   37.9280   29.7950   42.9570 F   0  0  0  0  0  0  0  0  0  0  0  0
   38.1260   28.0250   41.4600 F   0  0  0  0  0  0  0  0  0  0  0  0
   35.9140   28.8110   39.5810 O   0  0  0  0  0  0  0  0  0  0  0  0
   35.8170   27.7390   38.8490 C   0  0  0  0  0  0  0  0  0  0  0  0
   36.5260   26.5700   38.7470 C   0  0  0  0  0  0  0  0  0  0  0  0
   37.3800   26.4140   39.3590 H   0  0  0  0  0  0  0  0  0  0  0  0
   36.3140   25.4940   37.9190 C   0  0  0  0  0  3  0  0  0  0  0  0
   35.2330   25.6240   37.0770 C   0  0  0  0  0  3  0  0  0  0  0  0
   34.4370   26.7460   37.0780 C   0  0  0  0  0  0  0  0  0  0  0  0
   33.3910   26.7260   36.1870 C   0  0  0  0  0  3  0  0  0  0  0  0
   32.5540   27.8110   36.1420 C   0  0  0  0  0  3  0  0  0  0  0  0
   32.7740   28.8790   36.9750 C   0  0  0  0  0  3  0  0  0  0  0  0
   33.8450   28.8070   37.8310 C   0  0  0  0  0  3  0  0  0  0  0  0
   34.7400   27.7680   37.9530 C   0  0  0  0  0  0  0  0  0  0  0  0
  1  6  2  0  0  0  0
  1  2  1  0  0  0  0
  2  3  2  0  0  0  0
  3  4  1  0  0  0  0
  3 29  1  0  0  0  0
  5 10  1  0  0  0  0
  5  4  2  0  0  0  0
  6  5  1  0  0  0  0
  7  1  1  0  0  0  0
  8  9  1  0  0  0  0
  9 14  2  0  0  0  0
  9 10  1  0  0  0  0
 10 11  2  0  0  0  0
 11 12  1  0  0  0  0
 11 15  1  0  0  0  0
 12 16  1  0  0  0  0
 13 17  1  0  0  0  0
 13 12  2  0  0  0  0
 14 13  1  0  0  0  0
 18 19  1  0  0  0  0
 19 20  1  0  0  0  0
 20 14  1  0  0  0  0
 20 21  2  0  0  0  0
 21 25  1  0  0  0  0
 22 21  1  0  0  0  0
 22 26  1  0  0  0  0
 23 22  2  0  0  0  0
 24 19  2  0  0  0  0
 24 23  1  0  0  0  0
 27 23  1  0  0  0  0
 28 24  1  0  0  0  0
 29 30  1  0  0  0  0
 29 31  1  0  0  0  0
 32 29  1  0  0  0  0
 33  2  1  0  0  0  0
 34 33  1  0  0  0  0
 35 34  1  0  0  0  0
 35 36  1  0  0  0  0
 37 35  2  0  0  0  0
 38 39  2  0  0  0  0
 38 37  1  0  0  0  0
 39 44  1  0  0  0  0
 40 39  1  0  0  0  0
 41 40  2  0  0  0  0
 41 42  1  0  0  0  0
 42 43  2  0  0  0  0
 43 44  1  0  0  0  0
 44 34  2  0  0  0  0
M  END
>  <minimizedAffinity>
-7.30244732

$$$$

 OpenBabel03242510443D

 44 48  0  0  0  0  0  0  0  0999 V2000
   37.6350   30.0640   41.3690 C   0  0  0  0  0  0  0  0  0  0  0  0
   37.9090   29.1040   40.3800 C   0  0  0  0  0  0  0  0  0  0  0  0
   38.7700   29.5510   39.3540 C   0  0  0  0  0  0  0  0  0  0  0  0
   39.2400   30.8280   39.4160 N   0  0  0  0  0  0  0  0  0  0  0  0
   38.9320   31.7000   40.4050 C   0  0  0  0  0  0  0  0  0  0  0  0
   38.1150   31.3080   41.3980 N   0  0  0  0  0  0  0  0  0  0  0  0
   37.0020   29.9250   42.2160 H   0  0  0  0  0  0  0  0  0  0  0  0
   41.7830   31.8510   41.1120 Cl  0  0  0  0  0  0  0  0  0  0  0  0
   40.7900   33.2600   40.6960 C   0  0  0  0  0  0  0  0  0  0  0  0
   39.4740   33.0390   40.3890 C   0  0  0  0  0  0  0  0  0  0  0  0
   38.7140   34.1230   40.0700 C   0  0  0  0  0  0  0  0  0  0  0  0
   39.3160   35.3980   40.0750 C   0  0  0  0  0  0  0  0  0  0  0  0
   40.6370   35.5890   40.3890 C   0  0  0  0  0  0  0  0  0  0  0  0
   41.4230   34.4800   40.7160 C   0  0  0  0  0  0  0  0  0  0  0  0
   37.6600   33.9970   39.8170 H   0  0  0  0  0  0  0  0  0  0  0  0
   38.6610   36.2300   39.8130 H   0  0  0  0  0  0  0  0  0  0  0  0
   41.0910   36.5640   40.3910 H   0  0  0  0  0  0  0  0  0  0  0  0
   43.2460   33.8210   38.7860 F   0  0  0  0  0  0  0  0  0  0  0  0
   43.6650   34.2390   39.9950 C   0  0  0  0  0  0  0  0  0  0  0  0
   42.8390   34.6040   41.0620 C   0  0  0  0  0  0  0  0  0  0  0  0
   43.3850   35.0160   42.2520 C   0  0  0  0  0  0  0  0  0  0  0  0
   44.7490   35.0640   42.3800 C   0  0  0  0  0  0  0  0  0  0  0  0
   45.6000   34.7130   41.3540 C   0  0  0  0  0  0  0  0  0  0  0  0
   45.0520   34.2920   40.1400 C   0  0  0  0  0  0  0  0  0  0  0  0
   42.6400   35.2650   42.9790 H   0  0  0  0  0  0  0  0  0  0  0  0
   45.1030   35.3990   43.3470 H   0  0  0  0  0  0  0  0  0  0  0  0
   46.6490   34.7780   41.5350 H   0  0  0  0  0  0  0  0  0  0  0  0
   45.7250   34.0190   39.3430 H   0  0  0  0  0  0  0  0  0  0  0  0
   39.0750   28.5650   38.3170 C   0  0  0  0  0  0  0  0  0  0  0  0
   39.8770   27.5690   38.8410 F   0  0  0  0  0  0  0  0  0  0  0  0
   39.8530   29.2170   37.3860 F   0  0  0  0  0  0  0  0  0  0  0  0
   37.9410   27.9620   37.8130 F   0  0  0  0  0  0  0  0  0  0  0  0
   37.4090   27.8410   40.3720 O   0  0  0  0  0  0  0  0  0  0  0  0
   37.5810   26.7180   41.0090 C   0  0  0  0  0  0  0  0  0  0  0  0
   36.9690   25.4910   40.9880 C   0  0  0  0  0  0  0  0  0  0  0  0
   36.1430   25.3220   40.3410 H   0  0  0  0  0  0  0  0  0  0  0  0
   37.2530   24.3650   41.7230 C   0  0  0  0  0  3  0  0  0  0  0  0
   38.3030   24.5050   42.6020 C   0  0  0  0  0  3  0  0  0  0  0  0
   39.0030   25.6830   42.7220 C   0  0  0  0  0  0  0  0  0  0  0  0
   40.0300   25.6670   43.6360 C   0  0  0  0  0  3  0  0  0  0  0  0
   40.7730   26.8070   43.8000 C   0  0  0  0  0  3  0  0  0  0  0  0
   40.4820   27.9250   43.0590 C   0  0  0  0  0  3  0  0  0  0  0  0
   39.4370   27.8450   42.1710 C   0  0  0  0  0  3  0  0  0  0  0  0
   38.6330   26.7520   41.9330 C   0  0  0  0  0  0  0  0  0  0  0  0
  1  6  1  0  0  0  0
  1  7  1  0  0  0  0
  2  1  2  0  0  0  0
  3  4  2  0  0  0  0
  3  2  1  0  0  0  0
  4  5  1  0  0  0  0
  5  6  2  0  0  0  0
  9 14  1  0  0  0  0
  9  8  1  0  0  0  0
 10  5  1  0  0  0  0
 10  9  2  0  0  0  0
 11 12  2  0  0  0  0
 11 10  1  0  0  0  0
 12 13  1  0  0  0  0
 13 17  1  0  0  0  0
 13 14  2  0  0  0  0
 14 20  1  0  0  0  0
 15 11  1  0  0  0  0
 16 12  1  0  0  0  0
 18 19  1  0  0  0  0
 19 24  2  0  0  0  0
 19 20  1  0  0  0  0
 20 21  2  0  0  0  0
 21 22  1  0  0  0  0
 21 25  1  0  0  0  0
 22 26  1  0  0  0  0
 23 27  1  0  0  0  0
 23 22  2  0  0  0  0
 24 23  1  0  0  0  0
 28 24  1  0  0  0  0
 29 30  1  0  0  0  0
 29  3  1  0  0  0  0
 31 29  1  0  0  0  0
 32 29  1  0  0  0  0
 33  2  1  0  0  0  0
 33 34  1  0  0  0  0
 34 44  1  0  0  0  0
 35 34  2  0  0  0  0
 35 37  1  0  0  0  0
 36 35  1  0  0  0  0
 37 38  2  0  0  0  0
 38 39  1  0  0  0  0
 39 40  1  0  0  0  0
 40 41  2  0  0  0  0
 42 41  1  0  0  0  0
 43 42  2  0  0  0  0
 44 43  1  0  0  0  0
 44 39  2  0  0  0  0
M  END
>  <minimizedAffinity>
-7.30156565

$$$$
