
 OpenBabel03252509003D

 47 50  0  0  1  0  0  0  0  0999 V2000
   47.2250   34.1060   43.0300 N   0  0  0  0  0  0  0  0  0  0  0  0
   46.7450   35.3420   42.5250 C   0  0  0  0  0  0  0  0  0  0  0  0
   45.2690   35.5910   42.7460 C   0  0  0  0  0  0  0  0  0  0  0  0
   44.7210   35.0000   44.0230 C   0  0  0  0  0  0  0  0  0  0  0  0
   45.8120   34.3750   44.8570 C   0  0  0  0  0  0  0  0  0  0  0  0
   46.4590   33.3270   43.8790 C   0  0  2  0  0  0  0  0  0  0  0  0
   47.2620   36.1480   43.1040 H   0  0  0  0  0  0  0  0  0  0  0  0
   46.9670   35.5450   41.4780 H   0  0  0  0  0  0  0  0  0  0  0  0
   44.7200   35.2680   41.8330 H   0  0  0  0  0  0  0  0  0  0  0  0
   45.0930   36.6900   42.8060 H   0  0  0  0  0  0  0  0  0  0  0  0
   44.0980   35.7200   44.6040 H   0  0  0  0  0  0  0  0  0  0  0  0
   44.0400   34.1700   43.7310 H   0  0  0  0  0  0  0  0  0  0  0  0
   46.6030   35.0600   45.1550 H   0  0  0  0  0  0  0  0  0  0  0  0
   45.3270   33.8040   45.6560 H   0  0  0  0  0  0  0  0  0  0  0  0
   45.6180   32.7430   43.4270 H   0  0  0  0  0  0  0  0  0  0  0  0
   48.1900   33.4660   42.1870 C   0  0  0  0  0  0  0  0  0  0  0  0
   48.8320   32.7590   42.7820 H   0  0  0  0  0  0  0  0  0  0  0  0
   48.8110   34.2500   41.7260 H   0  0  0  0  0  0  0  0  0  0  0  0
   47.4760   32.6550   41.1580 C   0  0  0  0  0  0  0  0  0  0  0  0
   47.4840   31.5690   41.3220 H   0  0  0  0  0  0  0  0  0  0  0  0
   46.3980   32.9430   41.1100 H   0  0  0  0  0  0  0  0  0  0  0  0
   49.3540   32.3440   37.9200 C   0  0  0  0  0  0  0  0  0  0  0  0
   48.8310   32.0480   39.1930 C   0  0  0  0  0  0  0  0  0  0  0  0
   48.0260   32.9720   39.8140 C   0  0  0  0  0  0  0  0  0  0  0  0
   47.7790   34.1200   39.1670 N   0  0  0  0  0  0  0  0  0  0  0  0
   48.2900   34.3850   37.9460 C   0  0  0  0  0  0  0  0  0  0  0  0
   49.0790   33.5030   37.3160 N   0  0  0  0  0  0  0  0  0  0  0  0
   49.9770   31.5300   37.5370 H   0  0  0  0  0  0  0  0  0  0  0  0
   49.0370   31.1110   39.7140 H   0  0  0  0  0  0  0  0  0  0  0  0
   48.0840   35.3230   37.4280 H   0  0  0  0  0  0  0  0  0  0  0  0
   47.2430   32.5830   44.7480 O   0  0  0  0  0  0  0  0  0  0  0  0
   47.3340   30.1120   43.7710 O   0  0  0  0  0  0  0  0  0  0  0  0
   46.7370   30.9840   44.8790 P   0  0  2  0  0  0  0  0  0  0  0  0
   45.0550   30.9940   44.5580 O   0  0  0  0  0  0  0  0  0  0  0  0
   44.6880   31.6590   45.1830 H   0  0  0  0  0  0  0  0  0  0  0  0
   46.9620   30.3670   46.3970 O   0  0  0  0  0  0  0  0  0  0  0  0
   47.6680   29.2670   46.7860 C   0  0  0  0  0  0  0  0  0  0  0  0
   49.0460   29.1010   46.7960 C   0  0  0  0  0  0  0  0  0  0  0  0
   49.5870   29.9680   46.4470 H   0  0  0  0  0  0  0  0  0  0  0  0
   49.5820   27.8970   47.2310 C   0  0  0  0  0  3  0  0  0  0  0  0
   48.7700   26.8820   47.6470 C   0  0  0  0  0  3  0  0  0  0  0  0
   47.4120   27.0130   47.6490 C   0  0  0  0  0  0  0  0  0  0  0  0
   46.6380   25.9620   48.0770 C   0  0  0  0  0  3  0  0  0  0  0  0
   45.2660   26.0740   48.0880 C   0  0  0  0  0  3  0  0  0  0  0  0
   44.6820   27.2510   47.6660 C   0  0  0  0  0  3  0  0  0  0  0  0
   45.4780   28.2730   47.2480 C   0  0  0  0  0  3  0  0  0  0  0  0
   46.8660   28.2180   47.2140 C   0  0  0  0  0  0  0  0  0  0  0  0
  1  6  1  0  0  0  0
  2  3  1  0  0  0  0
  2  1  1  0  0  0  0
  2  7  1  0  0  0  0
  3 10  1  0  0  0  0
  3  4  1  0  0  0  0
  4 11  1  0  0  0  0
  4  5  1  0  0  0  0
  5 13  1  0  0  0  0
  5 14  1  0  0  0  0
  6 15  1  6  0  0  0
  6 31  1  0  0  0  0
  6  5  1  0  0  0  0
  8  2  1  0  0  0  0
  9  3  1  0  0  0  0
 12  4  1  0  0  0  0
 16 17  1  0  0  0  0
 16  1  1  0  0  0  0
 18 16  1  0  0  0  0
 19 20  1  0  0  0  0
 19 16  1  0  0  0  0
 21 19  1  0  0  0  0
 22 23  1  0  0  0  0
 23 29  1  0  0  0  0
 23 24  2  0  0  0  0
 24 19  1  0  0  0  0
 25 24  1  0  0  0  0
 26 25  2  0  0  0  0
 27 22  2  0  0  0  0
 27 26  1  0  0  0  0
 28 22  1  0  0  0  0
 30 26  1  0  0  0  0
 31 33  1  0  0  0  0
 33 32  2  6  0  0  0
 33 36  1  0  0  0  0
 34 33  1  0  0  0  0
 34 35  1  0  0  0  0
 36 37  1  0  0  0  0
 37 38  2  0  0  0  0
 37 47  1  0  0  0  0
 38 40  1  0  0  0  0
 39 38  1  0  0  0  0
 40 41  2  0  0  0  0
 41 42  1  0  0  0  0
 42 43  1  0  0  0  0
 43 44  2  0  0  0  0
 45 44  1  0  0  0  0
 46 45  2  0  0  0  0
 47 46  1  0  0  0  0
 47 42  2  0  0  0  0
M  END
>  <minimizedAffinity>
-4.64963722

>  <minimizedRMSD>
1.01063824

$$$$
