
 OpenBabel03242519413D

 31 33  0  0  0  0  0  0  0  0999 V2000
   47.5440   32.6260   41.5220 O   0  0  0  0  0  0  0  0  0  0  0  0
   46.6850   33.8550   41.1210 P   0  0  2  0  0  0  0  0  0  0  0  0
   45.1560   33.7280   41.8930 O   0  0  0  0  0  0  0  0  0  0  0  0
   44.3500   35.9200   44.6880 C   0  0  0  0  0  0  0  0  0  0  0  0
   44.4750   35.4360   43.3640 C   0  0  0  0  0  0  0  0  0  0  0  0
   45.0480   34.1670   43.1950 C   0  0  0  0  0  0  0  0  0  0  0  0
   45.4440   33.4850   44.2860 N   0  0  0  0  0  0  0  0  0  0  0  0
   45.3120   33.9740   45.5390 C   0  0  0  0  0  0  0  0  0  0  0  0
   44.7690   35.1850   45.7490 N   0  0  0  0  0  0  0  0  0  0  0  0
   43.9100   36.8980   44.8270 H   0  0  0  0  0  0  0  0  0  0  0  0
   44.1270   36.0580   42.5640 H   0  0  0  0  0  0  0  0  0  0  0  0
   45.6580   33.3590   46.3770 H   0  0  0  0  0  0  0  0  0  0  0  0
   46.4560   33.8430   39.4790 O   0  0  0  0  0  0  0  0  0  0  0  0
   45.5480   33.1690   38.7250 C   0  0  0  0  0  0  0  0  0  0  0  0
   45.9400   32.7610   37.4930 O   0  0  0  0  0  0  0  0  0  0  0  0
   44.1730   32.6210   38.6730 C   0  0  0  0  0  0  0  0  0  0  0  0
   43.9610   31.2250   38.6110 C   0  0  0  0  0  0  0  0  0  0  0  0
   44.8930   30.6260   38.7540 H   0  0  0  0  0  0  0  0  0  0  0  0
   42.8310   30.4780   38.4080 C   0  0  0  0  0  3  0  0  0  0  0  0
   41.7390   31.2920   38.2390 C   0  0  0  0  0  3  0  0  0  0  0  0
   41.8490   32.6590   38.2860 C   0  0  0  0  0  0  0  0  0  0  0  0
   40.7290   33.4510   38.1570 C   0  0  0  0  0  3  0  0  0  0  0  0
   40.6670   34.8280   38.2200 C   0  0  0  0  0  3  0  0  0  0  0  0
   41.9030   35.4490   38.4430 C   0  0  0  0  0  3  0  0  0  0  0  0
   43.0360   34.6860   38.5750 C   0  0  0  0  0  3  0  0  0  0  0  0
   43.0540   33.3220   38.5020 C   0  0  0  0  0  0  0  0  0  0  0  0
   47.4670   35.1960   41.7040 O   0  0  0  0  0  0  0  0  0  0  0  0
   48.7300   35.3560   41.1530 C   0  0  0  0  0  0  0  0  0  0  0  0
   49.3040   36.5690   41.4890 F   0  0  0  0  0  0  0  0  0  0  0  0
   49.5210   34.2940   41.4510 F   0  0  0  0  0  0  0  0  0  0  0  0
   48.5480   35.3830   39.7720 F   0  0  0  0  0  0  0  0  0  0  0  0
  2  1  2  1  0  0  0
  2 27  1  0  0  0  0
  2  3  1  0  0  0  0
  3  6  1  0  0  0  0
  4 10  1  0  0  0  0
  4  9  1  0  0  0  0
  5  4  2  0  0  0  0
  6  5  1  0  0  0  0
  6  7  2  0  0  0  0
  7  8  1  0  0  0  0
  8  9  2  0  0  0  0
  8 12  1  0  0  0  0
 11  5  1  0  0  0  0
 13  2  1  0  0  0  0
 14 13  1  0  0  0  0
 15 14  2  0  0  0  0
 16 14  1  0  0  0  0
 17 16  1  0  0  0  0
 17 18  1  0  0  0  0
 19 17  2  0  0  0  0
 20 21  2  0  0  0  0
 20 19  1  0  0  0  0
 21 26  1  0  0  0  0
 22 23  2  0  0  0  0
 22 21  1  0  0  0  0
 23 24  1  0  0  0  0
 24 25  2  0  0  0  0
 26 25  1  0  0  0  0
 26 16  2  0  0  0  0
 28 30  1  0  0  0  0
 28 29  1  0  0  0  0
 28 27  1  0  0  0  0
 31 28  1  0  0  0  0
M  END
>  <minimizedAffinity>
-5.86240149

>  <minimizedRMSD>
2.54495883

$$$$
