
 OpenBabel03252504583D

 39 42  0  0  1  0  0  0  0  0999 V2000
   47.9050   34.0450   42.0740 N   0  0  0  0  0  0  0  0  0  0  0  0
   47.9110   34.9530   40.9900 C   0  0  0  0  0  0  0  0  0  0  0  0
   49.0470   35.8410   41.3230 C   0  0  0  0  0  0  0  0  0  0  0  0
   49.6900   35.3460   42.6050 C   0  0  0  0  0  0  0  0  0  0  0  0
   49.1690   33.9020   42.6700 C   0  0  2  0  0  0  0  0  0  0  0  0
   47.3950   35.1720   40.0920 H   0  0  0  0  0  0  0  0  0  0  0  0
   49.4560   36.6910   40.8110 H   0  0  0  0  0  0  0  0  0  0  0  0
   49.3570   35.9140   43.4710 H   0  0  0  0  0  0  0  0  0  0  0  0
   50.7790   35.3140   42.4300 H   0  0  0  0  0  0  0  0  0  0  0  0
   49.1340   33.4940   43.6760 H   0  0  0  0  0  0  0  0  0  0  0  0
   46.7300   33.4450   42.4520 C   0  0  0  0  0  0  0  0  0  0  0  0
   46.9660   32.3840   42.7280 H   0  0  0  0  0  0  0  0  0  0  0  0
   45.9860   33.3030   41.6370 H   0  0  0  0  0  0  0  0  0  0  0  0
   44.5860   35.7990   44.5000 C   0  0  0  0  0  0  0  0  0  0  0  0
   45.2710   35.2720   43.3690 C   0  0  0  0  0  0  0  0  0  0  0  0
   46.0130   34.1020   43.5250 C   0  0  0  0  0  0  0  0  0  0  0  0
   46.0320   33.5440   44.7540 N   0  0  0  0  0  0  0  0  0  0  0  0
   45.3640   34.0660   45.8410 C   0  0  0  0  0  0  0  0  0  0  0  0
   44.6490   35.1820   45.7100 N   0  0  0  0  0  0  0  0  0  0  0  0
   44.0160   36.6890   44.3980 H   0  0  0  0  0  0  0  0  0  0  0  0
   45.2310   35.7450   42.4110 H   0  0  0  0  0  0  0  0  0  0  0  0
   45.4400   33.5420   46.7910 H   0  0  0  0  0  0  0  0  0  0  0  0
   49.9530   33.1650   41.7690 O   0  0  0  0  0  0  0  0  0  0  0  0
   49.2080   31.1200   43.2980 O   0  0  0  0  0  0  0  0  0  0  0  0
   50.0460   31.5470   42.1130 P   0  0  2  0  0  0  0  0  0  0  0  0
   51.6600   31.1790   42.4890 O   0  0  0  0  0  0  0  0  0  0  0  0
   52.1630   31.1990   41.6240 H   0  0  0  0  0  0  0  0  0  0  0  0
   49.6680   30.5990   40.7370 O   0  0  0  0  0  0  0  0  0  0  0  0
   49.8350   30.9900   39.4370 C   0  0  0  0  0  0  0  0  0  0  0  0
   50.9490   31.0190   38.6610 C   0  0  0  0  0  0  0  0  0  0  0  0
   51.8460   30.6760   39.1590 H   0  0  0  0  0  0  0  0  0  0  0  0
   50.9520   31.4470   37.3530 C   0  0  0  0  0  3  0  0  0  0  0  0
   49.7770   31.8770   36.7590 C   0  0  0  0  0  3  0  0  0  0  0  0
   48.6270   31.8570   37.5320 C   0  0  0  0  0  0  0  0  0  0  0  0
   47.4910   32.2990   36.8790 C   0  0  0  0  0  3  0  0  0  0  0  0
   46.3070   32.3140   37.5640 C   0  0  0  0  0  3  0  0  0  0  0  0
   46.2840   31.8960   38.8580 C   0  0  0  0  0  3  0  0  0  0  0  0
   47.4130   31.4530   39.5160 C   0  0  0  0  0  3  0  0  0  0  0  0
   48.6390   31.4230   38.8520 C   0  0  0  0  0  0  0  0  0  0  0  0
  1 11  1  0  0  0  0
  1  5  1  0  0  0  0
  2  3  2  0  0  0  0
  2  1  1  0  0  0  0
  3  4  1  0  0  0  0
  4  5  1  0  0  0  0
  4  8  1  0  0  0  0
  5 10  1  1  0  0  0
  6  2  1  0  0  0  0
  7  3  1  0  0  0  0
  9  4  1  0  0  0  0
 11 12  1  0  0  0  0
 11 16  1  0  0  0  0
 13 11  1  0  0  0  0
 14 19  1  0  0  0  0
 15 16  1  0  0  0  0
 15 14  2  0  0  0  0
 16 17  2  0  0  0  0
 17 18  1  0  0  0  0
 18 22  1  0  0  0  0
 19 18  2  0  0  0  0
 20 14  1  0  0  0  0
 21 15  1  0  0  0  0
 23 25  1  0  0  0  0
 23  5  1  0  0  0  0
 25 26  1  0  0  0  0
 25 24  2  1  0  0  0
 27 26  1  0  0  0  0
 28 25  1  0  0  0  0
 29 28  1  0  0  0  0
 30 31  1  0  0  0  0
 30 29  2  0  0  0  0
 32 30  1  0  0  0  0
 33 32  2  0  0  0  0
 33 34  1  0  0  0  0
 34 39  1  0  0  0  0
 35 34  2  0  0  0  0
 35 36  1  0  0  0  0
 36 37  2  0  0  0  0
 37 38  1  0  0  0  0
 39 29  1  0  0  0  0
 39 38  2  0  0  0  0
M  END
>  <minimizedAffinity>
-5.33384562

>  <minimizedRMSD>
3.37838006

$$$$
