
 OpenBabel03252508033D

 44 48  0  0  1  0  0  0  0  0999 V2000
   42.6860   33.2210   41.1240 C   0  0  0  0  0  0  0  0  0  0  0  0
   43.2840   34.4070   41.4280 C   0  0  0  0  0  0  0  0  0  0  0  0
   42.5230   35.5870   41.3510 C   0  0  0  0  0  0  0  0  0  0  0  0
   41.2020   35.6020   40.9840 C   0  0  0  0  0  0  0  0  0  0  0  0
   40.5970   34.4110   40.6780 C   0  0  0  0  0  0  0  0  0  0  0  0
   41.3360   33.2710   40.7530 C   0  0  0  0  0  0  0  0  0  0  0  0
   42.9250   36.5660   41.5650 H   0  0  0  0  0  0  0  0  0  0  0  0
   40.6270   36.4950   40.9260 H   0  0  0  0  0  0  0  0  0  0  0  0
   39.5650   34.3300   40.3810 H   0  0  0  0  0  0  0  0  0  0  0  0
   40.8440   32.3170   40.5060 H   0  0  0  0  0  0  0  0  0  0  0  0
   43.4460   31.7280   41.2960 S   0  0  0  0  0  0  0  0  0  0  0  0
   42.5010   30.8610   40.3980 O   0  0  0  0  0  0  0  0  0  0  0  0
   43.3250   31.1560   42.6460 O   0  0  0  0  0  0  0  0  0  0  0  0
   44.7310   31.0630   40.4150 C   0  0  0  0  0  0  0  0  0  0  0  0
   45.6500   30.0410   40.7620 C   0  0  0  0  0  0  0  0  0  0  0  0
   45.4040   29.6280   41.7680 H   0  0  0  0  0  0  0  0  0  0  0  0
   46.7640   29.5250   40.1240 C   0  0  0  0  0  3  0  0  0  0  0  0
   46.9420   30.1770   38.9550 C   0  0  0  0  0  3  0  0  0  0  0  0
   46.1510   31.1880   38.4680 C   0  0  0  0  0  0  0  0  0  0  0  0
   46.5590   31.6930   37.2300 C   0  0  0  0  0  3  0  0  0  0  0  0
   45.8370   32.7090   36.6500 C   0  0  0  0  0  3  0  0  0  0  0  0
   44.7320   33.1870   37.3180 C   0  0  0  0  0  3  0  0  0  0  0  0
   44.4060   32.6310   38.5290 C   0  0  0  0  0  3  0  0  0  0  0  0
   45.0680   31.6190   39.1850 C   0  0  0  0  0  0  0  0  0  0  0  0
   44.6880   34.4900   41.8240 C   0  0  0  0  0  0  0  0  0  0  0  0
   45.6600   34.5770   41.0150 O   0  0  0  0  0  0  0  0  0  0  0  0
   44.8780   34.4690   43.2490 C   0  0  0  0  0  0  0  0  0  0  0  0
   44.4170   35.6330   43.9590 C   0  0  0  0  0  0  0  0  0  0  0  0
   44.5730   35.6300   45.3360 C   0  0  0  0  0  0  0  0  0  0  0  0
   45.1420   34.5430   45.9210 N   0  0  0  0  0  0  0  0  0  0  0  0
   45.5620   33.4590   45.1940 C   0  0  0  0  0  0  0  0  0  0  0  0
   45.4220   33.4570   43.9160 N   0  0  0  0  0  0  0  0  0  0  0  0
   43.9660   36.5220   43.5810 H   0  0  0  0  0  0  0  0  0  0  0  0
   44.2730   36.4350   45.9800 H   0  0  0  0  0  0  0  0  0  0  0  0
   46.1590   32.3120   45.9180 C   0  0  1  0  0  0  0  0  0  0  0  0
   47.0400   32.5780   47.1180 C   0  0  0  0  0  0  0  0  0  0  0  0
   45.6350   32.0940   47.2850 C   0  0  1  0  0  0  0  0  0  0  0  0
   46.3540   31.4200   45.3050 H   0  0  0  0  0  0  0  0  0  0  0  0
   47.3190   33.6290   47.3330 H   0  0  0  0  0  0  0  0  0  0  0  0
   47.8180   31.8320   47.3640 H   0  0  0  0  0  0  0  0  0  0  0  0
   45.4350   31.0820   47.6880 H   0  0  0  0  0  0  0  0  0  0  0  0
   44.7810   33.1020   47.9050 N   0  0  0  0  0  0  0  0  0  0  0  0
   43.8020   32.8480   47.6010 H   0  0  0  0  0  0  0  0  0  0  0  0
   44.8480   32.9440   48.9300 H   0  0  0  0  0  0  0  0  0  0  0  0
  1 11  1  0  0  0  0
  1  2  1  0  0  0  0
  2 25  1  0  0  0  0
  3  2  2  0  0  0  0
  3  7  1  0  0  0  0
  4  3  1  0  0  0  0
  5  6  1  0  0  0  0
  5  4  2  0  0  0  0
  6  1  2  0  0  0  0
  8  4  1  0  0  0  0
  9  5  1  0  0  0  0
 10  6  1  0  0  0  0
 11 13  2  0  0  0  0
 12 11  2  0  0  0  0
 14 15  1  0  0  0  0
 14 11  1  0  0  0  0
 15 16  1  0  0  0  0
 17 15  2  0  0  0  0
 18 17  1  0  0  0  0
 19 18  2  0  0  0  0
 19 24  1  0  0  0  0
 20 19  1  0  0  0  0
 21 20  2  0  0  0  0
 21 22  1  0  0  0  0
 22 23  2  0  0  0  0
 23 24  1  0  0  0  0
 24 14  2  0  0  0  0
 25 27  1  0  0  0  0
 26 25  2  0  0  0  0
 27 32  2  0  0  0  0
 27 28  1  0  0  0  0
 28 29  2  0  0  0  0
 29 30  1  0  0  0  0
 29 34  1  0  0  0  0
 31 35  1  0  0  0  0
 31 30  2  0  0  0  0
 32 31  1  0  0  0  0
 33 28  1  0  0  0  0
 35 38  1  6  0  0  0
 35 36  1  0  0  0  0
 35 37  1  0  0  0  0
 36 37  1  0  0  0  0
 36 39  1  0  0  0  0
 36 40  1  0  0  0  0
 37 41  1  1  0  0  0
 37 42  1  0  0  0  0
 42 44  1  0  0  0  0
 43 42  1  0  0  0  0
M  END
>  <minimizedAffinity>
-6.15376472

>  <minimizedRMSD>
1.62163019

$$$$
