
 OpenBabel03252503333D

 43 46  0  0  1  0  0  0  0  0999 V2000
   42.2280   32.2980   42.2500 C   0  0  0  0  0  0  0  0  0  0  0  0
   42.9100   33.4730   41.7920 C   0  0  0  0  0  0  0  0  0  0  0  0
   44.2500   33.5950   42.2030 C   0  0  0  0  0  0  0  0  0  0  0  0
   44.7740   32.6180   42.9770 N   0  0  0  0  0  0  0  0  0  0  0  0
   44.0780   31.5320   43.3770 C   0  0  0  0  0  0  0  0  0  0  0  0
   42.7950   31.3860   42.9990 N   0  0  0  0  0  0  0  0  0  0  0  0
   40.7300   31.6950   40.5400 C   0  0  0  0  0  0  0  0  0  0  0  0
   41.7860   31.6040   39.8290 O   0  0  0  0  0  0  0  0  0  0  0  0
   40.8630   32.0930   41.8780 N   0  0  0  0  0  0  0  0  0  0  0  0
   39.4990   31.3840   39.9220 N   0  0  0  0  0  0  0  0  0  0  0  0
   39.4280   31.2910   38.4510 C   0  0  0  0  0  0  0  0  0  0  0  0
   38.0230   31.7240   38.1710 C   0  0  0  0  0  0  0  0  0  0  0  0
   37.3780   31.9400   39.5100 C   0  0  0  0  0  0  0  0  0  0  0  0
   38.2000   31.0910   40.4500 C   0  0  1  0  0  0  0  0  0  0  0  0
   42.3840   34.1960   41.1690 H   0  0  0  0  0  0  0  0  0  0  0  0
   44.5630   30.7880   43.9980 H   0  0  0  0  0  0  0  0  0  0  0  0
   40.0060   32.1980   42.4440 H   0  0  0  0  0  0  0  0  0  0  0  0
   40.1180   32.0090   37.9670 H   0  0  0  0  0  0  0  0  0  0  0  0
   39.6600   30.2710   38.1020 H   0  0  0  0  0  0  0  0  0  0  0  0
   37.5110   30.8380   37.7110 H   0  0  0  0  0  0  0  0  0  0  0  0
   37.9470   32.5840   37.4800 H   0  0  0  0  0  0  0  0  0  0  0  0
   36.3520   32.0710   39.5950 H   0  0  0  0  0  0  0  0  0  0  0  0
   37.7850   32.9770   39.7820 H   0  0  0  0  0  0  0  0  0  0  0  0
   37.9920   31.4080   41.4780 H   0  0  0  0  0  0  0  0  0  0  0  0
   37.2140   28.8950   41.3570 C   0  0  0  0  0  0  0  0  0  0  0  0
   36.6000   29.6730   42.1240 O   0  0  0  0  0  0  0  0  0  0  0  0
   37.9490   29.6610   40.3650 N   0  0  0  0  0  0  0  0  0  0  0  0
   38.3460   29.1720   39.5020 H   0  0  0  0  0  0  0  0  0  0  0  0
   37.3820   27.4360   41.2050 C   0  0  0  0  0  0  0  0  0  0  0  0
   36.6390   26.8410   40.2060 C   0  0  0  0  0  0  0  0  0  0  0  0
   35.9740   27.4070   39.5660 H   0  0  0  0  0  0  0  0  0  0  0  0
   36.7930   25.4560   40.0670 C   0  0  0  0  0  3  0  0  0  0  0  0
   37.6550   24.7330   40.9000 C   0  0  0  0  0  3  0  0  0  0  0  0
   38.3560   25.4370   41.8740 C   0  0  0  0  0  0  0  0  0  0  0  0
   39.1930   24.6780   42.6740 C   0  0  0  0  0  3  0  0  0  0  0  0
   39.9370   25.3020   43.6800 C   0  0  0  0  0  3  0  0  0  0  0  0
   39.7890   26.6560   43.8200 C   0  0  0  0  0  3  0  0  0  0  0  0
   38.9600   27.4640   43.0430 C   0  0  0  0  0  3  0  0  0  0  0  0
   38.2450   26.7950   42.0590 C   0  0  0  0  0  0  0  0  0  0  0  0
   44.9240   34.8010   41.7230 C   0  0  0  0  0  0  0  0  0  0  0  0
   45.9480   35.1180   42.6200 F   0  0  0  0  0  0  0  0  0  0  0  0
   44.0180   35.8490   41.8290 F   0  0  0  0  0  0  0  0  0  0  0  0
   45.4720   34.6690   40.4840 F   0  0  0  0  0  0  0  0  0  0  0  0
  1  6  1  0  0  0  0
  2  3  1  0  0  0  0
  2  1  2  0  0  0  0
  3  4  2  0  0  0  0
  4  5  1  0  0  0  0
  5 16  1  0  0  0  0
  6  5  2  0  0  0  0
  7  9  1  0  0  0  0
  8  7  2  0  0  0  0
  9  1  1  0  0  0  0
  9 17  1  0  0  0  0
 10 14  1  0  0  0  0
 10  7  1  0  0  0  0
 11 10  1  0  0  0  0
 12 11  1  0  0  0  0
 12 13  1  0  0  0  0
 13 22  1  0  0  0  0
 13 23  1  0  0  0  0
 13 14  1  0  0  0  0
 14 24  1  1  0  0  0
 15  2  1  0  0  0  0
 18 11  1  0  0  0  0
 19 11  1  0  0  0  0
 20 12  1  0  0  0  0
 21 12  1  0  0  0  0
 25 26  2  0  0  0  0
 27 14  1  0  0  0  0
 27 25  1  0  0  0  0
 28 27  1  0  0  0  0
 29 25  1  0  0  0  0
 29 39  1  0  0  0  0
 30 29  2  0  0  0  0
 31 30  1  0  0  0  0
 32 30  1  0  0  0  0
 32 33  2  0  0  0  0
 33 34  1  0  0  0  0
 34 39  2  0  0  0  0
 34 35  1  0  0  0  0
 35 36  2  0  0  0  0
 36 37  1  0  0  0  0
 38 37  2  0  0  0  0
 39 38  1  0  0  0  0
 40 42  1  0  0  0  0
 40  3  1  0  0  0  0
 40 41  1  0  0  0  0
 43 40  1  0  0  0  0
M  END
>  <minimizedAffinity>
-7.132586

$$$$

 OpenBabel03252503333D

 43 46  0  0  1  0  0  0  0  0999 V2000
   40.2490   32.0000   39.6000 C   0  0  0  0  0  0  0  0  0  0  0  0
   40.7730   32.9450   38.6590 C   0  0  0  0  0  0  0  0  0  0  0  0
   41.9330   33.6270   39.0690 C   0  0  0  0  0  0  0  0  0  0  0  0
   42.4470   33.3420   40.2860 N   0  0  0  0  0  0  0  0  0  0  0  0
   41.9050   32.4390   41.1300 C   0  0  0  0  0  0  0  0  0  0  0  0
   40.7960   31.7690   40.7670 N   0  0  0  0  0  0  0  0  0  0  0  0
   39.3280   30.2450   38.3320 C   0  0  0  0  0  0  0  0  0  0  0  0
   40.5160   30.1280   37.8790 O   0  0  0  0  0  0  0  0  0  0  0  0
   39.0710   31.2600   39.2660 N   0  0  0  0  0  0  0  0  0  0  0  0
   38.3560   29.3370   37.8580 N   0  0  0  0  0  0  0  0  0  0  0  0
   38.6430   28.5290   36.6570 C   0  0  0  0  0  0  0  0  0  0  0  0
   37.2810   28.3500   36.0600 C   0  0  0  0  0  0  0  0  0  0  0  0
   36.3190   28.9920   37.0170 C   0  0  0  0  0  0  0  0  0  0  0  0
   37.0540   28.9800   38.3360 C   0  0  1  0  0  0  0  0  0  0  0  0
   40.2730   33.0910   37.7030 H   0  0  0  0  0  0  0  0  0  0  0  0
   42.3710   32.2620   42.0920 H   0  0  0  0  0  0  0  0  0  0  0  0
   38.1040   31.3760   39.6080 H   0  0  0  0  0  0  0  0  0  0  0  0
   39.2700   29.0860   35.9350 H   0  0  0  0  0  0  0  0  0  0  0  0
   39.1430   27.5820   36.9220 H   0  0  0  0  0  0  0  0  0  0  0  0
   37.0710   27.2480   36.0900 H   0  0  0  0  0  0  0  0  0  0  0  0
   37.1990   28.7060   35.0160 H   0  0  0  0  0  0  0  0  0  0  0  0
   35.2950   28.8490   36.9230 H   0  0  0  0  0  0  0  0  0  0  0  0
   36.4420   30.0980   36.7390 H   0  0  0  0  0  0  0  0  0  0  0  0
   36.5590   29.6800   39.0180 H   0  0  0  0  0  0  0  0  0  0  0  0
   36.7460   27.4470   40.3790 C   0  0  0  0  0  0  0  0  0  0  0  0
   36.1140   28.4330   40.8240 O   0  0  0  0  0  0  0  0  0  0  0  0
   37.1130   27.6840   38.9930 N   0  0  0  0  0  0  0  0  0  0  0  0
   37.4570   26.8730   38.3880 H   0  0  0  0  0  0  0  0  0  0  0  0
   37.2030   26.1370   40.8850 C   0  0  0  0  0  0  0  0  0  0  0  0
   36.6040   25.0280   40.3250 C   0  0  0  0  0  0  0  0  0  0  0  0
   35.8460   25.1070   39.5560 H   0  0  0  0  0  0  0  0  0  0  0  0
   37.0330   23.7860   40.8110 C   0  0  0  0  0  3  0  0  0  0  0  0
   38.0130   23.6940   41.8060 C   0  0  0  0  0  3  0  0  0  0  0  0
   38.5490   24.8800   42.2990 C   0  0  0  0  0  0  0  0  0  0  0  0
   39.5130   24.7370   43.2820 C   0  0  0  0  0  3  0  0  0  0  0  0
   40.1070   25.8750   43.8360 C   0  0  0  0  0  3  0  0  0  0  0  0
   39.6900   27.0910   43.3640 C   0  0  0  0  0  3  0  0  0  0  0  0
   38.7240   27.2890   42.3780 C   0  0  0  0  0  3  0  0  0  0  0  0
   38.1680   26.1270   41.8620 C   0  0  0  0  0  0  0  0  0  0  0  0
   42.4500   34.5850   38.0910 C   0  0  0  0  0  0  0  0  0  0  0  0
   42.2140   34.0740   36.8110 F   0  0  0  0  0  0  0  0  0  0  0  0
   43.8320   34.6020   38.2210 F   0  0  0  0  0  0  0  0  0  0  0  0
   41.8730   35.8150   38.1680 F   0  0  0  0  0  0  0  0  0  0  0  0
  1  6  1  0  0  0  0
  2  3  1  0  0  0  0
  2  1  2  0  0  0  0
  3  4  2  0  0  0  0
  4  5  1  0  0  0  0
  5 16  1  0  0  0  0
  6  5  2  0  0  0  0
  7  9  1  0  0  0  0
  8  7  2  0  0  0  0
  9  1  1  0  0  0  0
  9 17  1  0  0  0  0
 10  7  1  0  0  0  0
 10 14  1  0  0  0  0
 11 19  1  0  0  0  0
 11 10  1  0  0  0  0
 12 20  1  0  0  0  0
 12 11  1  0  0  0  0
 12 13  1  0  0  0  0
 13 14  1  0  0  0  0
 14 27  1  0  0  0  0
 14 24  1  1  0  0  0
 15  2  1  0  0  0  0
 18 11  1  0  0  0  0
 21 12  1  0  0  0  0
 22 13  1  0  0  0  0
 23 13  1  0  0  0  0
 25 26  2  0  0  0  0
 25 29  1  0  0  0  0
 27 25  1  0  0  0  0
 28 27  1  0  0  0  0
 29 39  1  0  0  0  0
 30 32  1  0  0  0  0
 30 29  2  0  0  0  0
 31 30  1  0  0  0  0
 32 33  2  0  0  0  0
 33 34  1  0  0  0  0
 34 35  1  0  0  0  0
 35 36  2  0  0  0  0
 37 36  1  0  0  0  0
 38 37  2  0  0  0  0
 39 34  2  0  0  0  0
 39 38  1  0  0  0  0
 40 43  1  0  0  0  0
 40 42  1  0  0  0  0
 40  3  1  0  0  0  0
 41 40  1  0  0  0  0
M  END
>  <minimizedAffinity>
-7.05466843

$$$$

 OpenBabel03252503333D

 43 46  0  0  1  0  0  0  0  0999 V2000
   40.3570   31.0990   39.8350 C   0  0  0  0  0  0  0  0  0  0  0  0
   40.4390   32.3860   40.4600 C   0  0  0  0  0  0  0  0  0  0  0  0
   40.6200   33.4730   39.5860 C   0  0  0  0  0  0  0  0  0  0  0  0
   40.6990   33.2230   38.2600 N   0  0  0  0  0  0  0  0  0  0  0  0
   40.6150   31.9840   37.7300 C   0  0  0  0  0  0  0  0  0  0  0  0
   40.4400   30.9240   38.5390 N   0  0  0  0  0  0  0  0  0  0  0  0
   38.8580   29.8290   41.1300 C   0  0  0  0  0  0  0  0  0  0  0  0
   38.0300   30.7540   40.8360 O   0  0  0  0  0  0  0  0  0  0  0  0
   40.1720   29.9370   40.6480 N   0  0  0  0  0  0  0  0  0  0  0  0
   38.3890   28.7590   41.9220 N   0  0  0  0  0  0  0  0  0  0  0  0
   37.1050   28.8950   42.6380 C   0  0  0  0  0  0  0  0  0  0  0  0
   37.3240   28.0420   43.8490 C   0  0  0  0  0  0  0  0  0  0  0  0
   38.6790   27.4170   43.6800 C   0  0  0  0  0  0  0  0  0  0  0  0
   38.9120   27.4520   42.1890 C   0  0  1  0  0  0  0  0  0  0  0  0
   40.3620   32.4670   41.5430 H   0  0  0  0  0  0  0  0  0  0  0  0
   40.6870   31.8580   36.6570 H   0  0  0  0  0  0  0  0  0  0  0  0
   40.8510   29.2060   40.9120 H   0  0  0  0  0  0  0  0  0  0  0  0
   36.9370   29.9360   42.9700 H   0  0  0  0  0  0  0  0  0  0  0  0
   36.2590   28.5700   42.0090 H   0  0  0  0  0  0  0  0  0  0  0  0
   36.5780   27.2070   43.7800 H   0  0  0  0  0  0  0  0  0  0  0  0
   37.1800   28.5780   44.8060 H   0  0  0  0  0  0  0  0  0  0  0  0
   38.9920   26.6430   44.2970 H   0  0  0  0  0  0  0  0  0  0  0  0
   39.3590   28.2830   44.0020 H   0  0  0  0  0  0  0  0  0  0  0  0
   39.9790   27.2900   41.9990 H   0  0  0  0  0  0  0  0  0  0  0  0
   38.5290   26.0080   40.0950 C   0  0  0  0  0  0  0  0  0  0  0  0
   39.6990   26.3670   39.8270 O   0  0  0  0  0  0  0  0  0  0  0  0
   38.1680   26.4620   41.4270 N   0  0  0  0  0  0  0  0  0  0  0  0
   37.3010   26.0640   41.9080 H   0  0  0  0  0  0  0  0  0  0  0  0
   37.4470   25.2610   39.4230 C   0  0  0  0  0  0  0  0  0  0  0  0
   36.5020   26.0230   38.7660 C   0  0  0  0  0  0  0  0  0  0  0  0
   36.5490   27.1040   38.7390 H   0  0  0  0  0  0  0  0  0  0  0  0
   35.4710   25.3140   38.1350 C   0  0  0  0  0  3  0  0  0  0  0  0
   35.4190   23.9160   38.1770 C   0  0  0  0  0  3  0  0  0  0  0  0
   36.4260   23.2500   38.8680 C   0  0  0  0  0  0  0  0  0  0  0  0
   36.3300   21.8700   38.8830 C   0  0  0  0  0  3  0  0  0  0  0  0
   37.2990   21.1180   39.5550 C   0  0  0  0  0  3  0  0  0  0  0  0
   38.3080   21.8070   40.1740 C   0  0  0  0  0  3  0  0  0  0  0  0
   38.4490   23.1940   40.1900 C   0  0  0  0  0  3  0  0  0  0  0  0
   37.4620   23.8910   39.5080 C   0  0  0  0  0  0  0  0  0  0  0  0
   40.7010   34.7760   40.2480 C   0  0  0  0  0  0  0  0  0  0  0  0
   40.9670   35.7450   39.2760 F   0  0  0  0  0  0  0  0  0  0  0  0
   41.8310   34.7580   41.0550 F   0  0  0  0  0  0  0  0  0  0  0  0
   39.5610   35.1330   40.9010 F   0  0  0  0  0  0  0  0  0  0  0  0
  1  2  1  0  0  0  0
  1  9  1  0  0  0  0
  2 15  1  0  0  0  0
  3 40  1  0  0  0  0
  3  2  2  0  0  0  0
  4  3  1  0  0  0  0
  5  4  2  0  0  0  0
  5  6  1  0  0  0  0
  6  1  2  0  0  0  0
  7 10  1  0  0  0  0
  8  7  2  0  0  0  0
  9 17  1  0  0  0  0
  9  7  1  0  0  0  0
 10 14  1  0  0  0  0
 10 11  1  0  0  0  0
 11 18  1  0  0  0  0
 11 12  1  0  0  0  0
 12 21  1  0  0  0  0
 13 12  1  0  0  0  0
 13 23  1  0  0  0  0
 13 22  1  0  0  0  0
 14 24  1  6  0  0  0
 14 13  1  0  0  0  0
 16  5  1  0  0  0  0
 19 11  1  0  0  0  0
 20 12  1  0  0  0  0
 25 27  1  0  0  0  0
 26 25  2  0  0  0  0
 27 28  1  0  0  0  0
 27 14  1  0  0  0  0
 29 39  1  0  0  0  0
 29 25  1  0  0  0  0
 30 29  2  0  0  0  0
 31 30  1  0  0  0  0
 32 33  2  0  0  0  0
 32 30  1  0  0  0  0
 33 34  1  0  0  0  0
 34 35  2  0  0  0  0
 34 39  1  0  0  0  0
 35 36  1  0  0  0  0
 36 37  2  0  0  0  0
 37 38  1  0  0  0  0
 39 38  2  0  0  0  0
 40 43  1  0  0  0  0
 40 42  1  0  0  0  0
 41 40  1  0  0  0  0
M  END
>  <minimizedAffinity>
-6.74383879

$$$$

 OpenBabel03252503333D

 43 46  0  0  1  0  0  0  0  0999 V2000
   40.2200   31.0510   39.8660 C   0  0  0  0  0  0  0  0  0  0  0  0
   40.2990   32.3340   40.5000 C   0  0  0  0  0  0  0  0  0  0  0  0
   40.4870   33.4260   39.6330 C   0  0  0  0  0  0  0  0  0  0  0  0
   40.5740   33.1830   38.3060 N   0  0  0  0  0  0  0  0  0  0  0  0
   40.4920   31.9480   37.7690 C   0  0  0  0  0  0  0  0  0  0  0  0
   40.3110   30.8830   38.5710 N   0  0  0  0  0  0  0  0  0  0  0  0
   38.7130   29.7750   41.1450 C   0  0  0  0  0  0  0  0  0  0  0  0
   37.8860   30.7020   40.8510 O   0  0  0  0  0  0  0  0  0  0  0  0
   40.0290   29.8850   40.6720 N   0  0  0  0  0  0  0  0  0  0  0  0
   38.2370   28.7000   41.9280 N   0  0  0  0  0  0  0  0  0  0  0  0
   36.9490   28.8330   42.6370 C   0  0  0  0  0  0  0  0  0  0  0  0
   37.1600   27.9740   43.8440 C   0  0  0  0  0  0  0  0  0  0  0  0
   38.5150   27.3480   43.6800 C   0  0  0  0  0  0  0  0  0  0  0  0
   38.7580   27.3920   42.1900 C   0  0  1  0  0  0  0  0  0  0  0  0
   40.2150   32.4090   41.5830 H   0  0  0  0  0  0  0  0  0  0  0  0
   40.5710   31.8270   36.6950 H   0  0  0  0  0  0  0  0  0  0  0  0
   40.7060   29.1510   40.9360 H   0  0  0  0  0  0  0  0  0  0  0  0
   36.7790   29.8730   42.9730 H   0  0  0  0  0  0  0  0  0  0  0  0
   36.1070   28.5120   42.0000 H   0  0  0  0  0  0  0  0  0  0  0  0
   36.4140   27.1390   43.7650 H   0  0  0  0  0  0  0  0  0  0  0  0
   37.0100   28.5040   44.8030 H   0  0  0  0  0  0  0  0  0  0  0  0
   38.8230   26.5700   44.2950 H   0  0  0  0  0  0  0  0  0  0  0  0
   39.1940   28.2120   44.0110 H   0  0  0  0  0  0  0  0  0  0  0  0
   39.8260   27.2300   42.0070 H   0  0  0  0  0  0  0  0  0  0  0  0
   38.3100   26.0550   40.0390 C   0  0  0  0  0  0  0  0  0  0  0  0
   39.4370   26.4980   39.7180 O   0  0  0  0  0  0  0  0  0  0  0  0
   38.0180   26.4070   41.4180 N   0  0  0  0  0  0  0  0  0  0  0  0
   37.2100   25.9290   41.9300 H   0  0  0  0  0  0  0  0  0  0  0  0
   37.2260   25.2870   39.3940 C   0  0  0  0  0  0  0  0  0  0  0  0
   37.2510   23.9220   39.5910 C   0  0  0  0  0  0  0  0  0  0  0  0
   38.0150   23.4370   40.1860 H   0  0  0  0  0  0  0  0  0  0  0  0
   36.2270   23.1930   38.9720 C   0  0  0  0  0  3  0  0  0  0  0  0
   35.2440   23.8280   38.2050 C   0  0  0  0  0  3  0  0  0  0  0  0
   35.3160   25.2110   38.0740 C   0  0  0  0  0  0  0  0  0  0  0  0
   34.3240   25.7920   37.3050 C   0  0  0  0  0  3  0  0  0  0  0  0
   34.3180   27.1780   37.1190 C   0  0  0  0  0  3  0  0  0  0  0  0
   35.3180   27.8940   37.7210 C   0  0  0  0  0  3  0  0  0  0  0  0
   36.3400   27.3580   38.5030 C   0  0  0  0  0  3  0  0  0  0  0  0
   36.2980   25.9790   38.6560 C   0  0  0  0  0  0  0  0  0  0  0  0
   40.5640   34.7250   40.3020 C   0  0  0  0  0  0  0  0  0  0  0  0
   40.7570   35.7090   39.3280 F   0  0  0  0  0  0  0  0  0  0  0  0
   41.7310   34.7310   41.0550 F   0  0  0  0  0  0  0  0  0  0  0  0
   39.4480   35.0450   41.0120 F   0  0  0  0  0  0  0  0  0  0  0  0
  1  2  1  0  0  0  0
  1  9  1  0  0  0  0
  2 15  1  0  0  0  0
  3 40  1  0  0  0  0
  3  2  2  0  0  0  0
  4  3  1  0  0  0  0
  5  4  2  0  0  0  0
  5  6  1  0  0  0  0
  6  1  2  0  0  0  0
  7 10  1  0  0  0  0
  8  7  2  0  0  0  0
  9 17  1  0  0  0  0
  9  7  1  0  0  0  0
 10 14  1  0  0  0  0
 10 11  1  0  0  0  0
 11 18  1  0  0  0  0
 11 12  1  0  0  0  0
 12 21  1  0  0  0  0
 13 12  1  0  0  0  0
 13 23  1  0  0  0  0
 13 22  1  0  0  0  0
 14 24  1  6  0  0  0
 14 13  1  0  0  0  0
 16  5  1  0  0  0  0
 19 11  1  0  0  0  0
 20 12  1  0  0  0  0
 25 27  1  0  0  0  0
 26 25  2  0  0  0  0
 27 28  1  0  0  0  0
 27 14  1  0  0  0  0
 29 30  1  0  0  0  0
 29 25  1  0  0  0  0
 30 31  1  0  0  0  0
 32 30  2  0  0  0  0
 33 32  1  0  0  0  0
 34 33  2  0  0  0  0
 34 39  1  0  0  0  0
 35 34  1  0  0  0  0
 36 35  2  0  0  0  0
 36 37  1  0  0  0  0
 37 38  2  0  0  0  0
 38 39  1  0  0  0  0
 39 29  2  0  0  0  0
 40 43  1  0  0  0  0
 40 42  1  0  0  0  0
 41 40  1  0  0  0  0
M  END
>  <minimizedAffinity>
-6.72811079

$$$$

 OpenBabel03252503333D

 43 46  0  0  1  0  0  0  0  0999 V2000
   39.5400   31.6690   41.1280 C   0  0  0  0  0  0  0  0  0  0  0  0
   39.5070   32.9820   40.5540 C   0  0  0  0  0  0  0  0  0  0  0  0
   40.7330   33.6740   40.5520 C   0  0  0  0  0  0  0  0  0  0  0  0
   41.8160   33.0580   41.0780 N   0  0  0  0  0  0  0  0  0  0  0  0
   41.7830   31.8160   41.6050 C   0  0  0  0  0  0  0  0  0  0  0  0
   40.6270   31.1290   41.6210 N   0  0  0  0  0  0  0  0  0  0  0  0
   37.9940   30.3780   39.9130 C   0  0  0  0  0  0  0  0  0  0  0  0
   38.7330   30.6760   38.9150 O   0  0  0  0  0  0  0  0  0  0  0  0
   38.3390   30.8950   41.1710 N   0  0  0  0  0  0  0  0  0  0  0  0
   36.8800   29.5440   39.6740 N   0  0  0  0  0  0  0  0  0  0  0  0
   36.4230   29.3210   38.2890 C   0  0  0  0  0  0  0  0  0  0  0  0
   34.9510   29.1170   38.4670 C   0  0  0  0  0  0  0  0  0  0  0  0
   34.7020   29.1480   39.9480 C   0  0  0  0  0  0  0  0  0  0  0  0
   36.0380   28.7840   40.5500 C   0  0  1  0  0  0  0  0  0  0  0  0
   38.5720   33.3770   40.1600 H   0  0  0  0  0  0  0  0  0  0  0  0
   42.6910   31.3850   42.0090 H   0  0  0  0  0  0  0  0  0  0  0  0
   37.7240   30.6810   41.9720 H   0  0  0  0  0  0  0  0  0  0  0  0
   36.5780   30.2200   37.6630 H   0  0  0  0  0  0  0  0  0  0  0  0
   36.9420   28.4620   37.8300 H   0  0  0  0  0  0  0  0  0  0  0  0
   34.7410   28.0660   38.1320 H   0  0  0  0  0  0  0  0  0  0  0  0
   34.3270   29.8160   37.8800 H   0  0  0  0  0  0  0  0  0  0  0  0
   33.7880   28.8530   40.3430 H   0  0  0  0  0  0  0  0  0  0  0  0
   34.7040   30.2790   40.1440 H   0  0  0  0  0  0  0  0  0  0  0  0
   36.0310   29.0640   41.6090 H   0  0  0  0  0  0  0  0  0  0  0  0
   37.3540   26.7140   41.3220 C   0  0  0  0  0  0  0  0  0  0  0  0
   37.6170   27.4440   42.3050 O   0  0  0  0  0  0  0  0  0  0  0  0
   36.3870   27.3750   40.4630 N   0  0  0  0  0  0  0  0  0  0  0  0
   35.8810   26.8190   39.7040 H   0  0  0  0  0  0  0  0  0  0  0  0
   37.7620   25.3850   40.8210 C   0  0  0  0  0  0  0  0  0  0  0  0
   36.9530   24.3270   41.1810 C   0  0  0  0  0  0  0  0  0  0  0  0
   36.0680   24.4580   41.7900 H   0  0  0  0  0  0  0  0  0  0  0  0
   37.3460   23.0670   40.7120 C   0  0  0  0  0  3  0  0  0  0  0  0
   38.4930   22.9080   39.9250 C   0  0  0  0  0  3  0  0  0  0  0  0
   39.2340   24.0470   39.6230 C   0  0  0  0  0  0  0  0  0  0  0  0
   40.3590   23.8380   38.8460 C   0  0  0  0  0  3  0  0  0  0  0  0
   41.1640   24.9260   38.4930 C   0  0  0  0  0  3  0  0  0  0  0  0
   40.7850   26.1600   38.9500 C   0  0  0  0  0  3  0  0  0  0  0  0
   39.6640   26.4220   39.7360 C   0  0  0  0  0  3  0  0  0  0  0  0
   38.9000   25.3090   40.0560 C   0  0  0  0  0  0  0  0  0  0  0  0
   40.6730   35.0110   39.9610 C   0  0  0  0  0  0  0  0  0  0  0  0
   41.3380   34.9760   38.7320 F   0  0  0  0  0  0  0  0  0  0  0  0
   41.4400   35.8490   40.7600 F   0  0  0  0  0  0  0  0  0  0  0  0
   39.4070   35.4610   39.7450 F   0  0  0  0  0  0  0  0  0  0  0  0
  1  9  1  0  0  0  0
  1  6  1  0  0  0  0
  2  1  2  0  0  0  0
  3  2  1  0  0  0  0
  3  4  2  0  0  0  0
  4  5  1  0  0  0  0
  5  6  2  0  0  0  0
  5 16  1  0  0  0  0
  7  9  1  0  0  0  0
  8  7  2  0  0  0  0
  9 17  1  0  0  0  0
 10  7  1  0  0  0  0
 10 14  1  0  0  0  0
 11 12  1  0  0  0  0
 11 10  1  0  0  0  0
 12 13  1  0  0  0  0
 13 23  1  0  0  0  0
 13 22  1  0  0  0  0
 13 14  1  0  0  0  0
 14 24  1  1  0  0  0
 15  2  1  0  0  0  0
 18 11  1  0  0  0  0
 19 11  1  0  0  0  0
 20 12  1  0  0  0  0
 21 12  1  0  0  0  0
 25 26  2  0  0  0  0
 27 14  1  0  0  0  0
 27 25  1  0  0  0  0
 28 27  1  0  0  0  0
 29 30  1  0  0  0  0
 29 25  1  0  0  0  0
 30 31  1  0  0  0  0
 32 30  2  0  0  0  0
 33 32  1  0  0  0  0
 34 33  2  0  0  0  0
 34 39  1  0  0  0  0
 35 34  1  0  0  0  0
 36 35  2  0  0  0  0
 36 37  1  0  0  0  0
 37 38  2  0  0  0  0
 38 39  1  0  0  0  0
 39 29  2  0  0  0  0
 40  3  1  0  0  0  0
 40 42  1  0  0  0  0
 41 40  1  0  0  0  0
 43 40  1  0  0  0  0
M  END
>  <minimizedAffinity>
-6.69329309

$$$$

 OpenBabel03252503333D

 43 46  0  0  1  0  0  0  0  0999 V2000
   39.9480   31.2280   40.3980 C   0  0  0  0  0  0  0  0  0  0  0  0
   39.4260   32.5060   40.7810 C   0  0  0  0  0  0  0  0  0  0  0  0
   39.6580   33.5530   39.8690 C   0  0  0  0  0  0  0  0  0  0  0  0
   40.3370   33.2740   38.7330 N   0  0  0  0  0  0  0  0  0  0  0  0
   40.8050   32.0450   38.4290 C   0  0  0  0  0  0  0  0  0  0  0  0
   40.5990   31.0240   39.2800 N   0  0  0  0  0  0  0  0  0  0  0  0
   38.4420   29.6230   41.2280 C   0  0  0  0  0  0  0  0  0  0  0  0
   37.5960   30.2320   40.4910 O   0  0  0  0  0  0  0  0  0  0  0  0
   39.7580   30.1070   41.2660 N   0  0  0  0  0  0  0  0  0  0  0  0
   37.9870   28.5000   41.9530 N   0  0  0  0  0  0  0  0  0  0  0  0
   36.5370   28.2680   42.0980 C   0  0  0  0  0  0  0  0  0  0  0  0
   36.4540   27.5860   43.4280 C   0  0  0  0  0  0  0  0  0  0  0  0
   37.8710   27.4010   43.8900 C   0  0  0  0  0  0  0  0  0  0  0  0
   38.6780   27.4340   42.6150 C   0  0  1  0  0  0  0  0  0  0  0  0
   38.8920   32.6130   41.7240 H   0  0  0  0  0  0  0  0  0  0  0  0
   41.3430   31.8950   37.5000 H   0  0  0  0  0  0  0  0  0  0  0  0
   40.4340   29.6350   41.8870 H   0  0  0  0  0  0  0  0  0  0  0  0
   35.9800   29.2220   42.1600 H   0  0  0  0  0  0  0  0  0  0  0  0
   36.1410   27.6680   41.2610 H   0  0  0  0  0  0  0  0  0  0  0  0
   36.0500   26.5580   43.2250 H   0  0  0  0  0  0  0  0  0  0  0  0
   35.7950   28.0970   44.1540 H   0  0  0  0  0  0  0  0  0  0  0  0
   38.0930   26.7920   44.7020 H   0  0  0  0  0  0  0  0  0  0  0  0
   38.1050   28.4490   44.2930 H   0  0  0  0  0  0  0  0  0  0  0  0
   39.7290   27.5990   42.8720 H   0  0  0  0  0  0  0  0  0  0  0  0
   39.6240   25.1960   41.7700 C   0  0  0  0  0  0  0  0  0  0  0  0
   40.4210   25.3550   42.7230 O   0  0  0  0  0  0  0  0  0  0  0  0
   38.6000   26.2260   41.8080 N   0  0  0  0  0  0  0  0  0  0  0  0
   37.7180   26.1220   41.2150 H   0  0  0  0  0  0  0  0  0  0  0  0
   39.4590   24.2550   40.6430 C   0  0  0  0  0  0  0  0  0  0  0  0
   38.4780   23.2970   40.7930 C   0  0  0  0  0  0  0  0  0  0  0  0
   37.8600   23.2360   41.6790 H   0  0  0  0  0  0  0  0  0  0  0  0
   38.3280   22.4000   39.7270 C   0  0  0  0  0  3  0  0  0  0  0  0
   39.1320   22.4860   38.5850 C   0  0  0  0  0  3  0  0  0  0  0  0
   40.0910   23.4940   38.5420 C   0  0  0  0  0  0  0  0  0  0  0  0
   40.8620   23.5370   37.3940 C   0  0  0  0  0  3  0  0  0  0  0  0
   41.8500   24.5180   37.2650 C   0  0  0  0  0  3  0  0  0  0  0  0
   42.0020   25.3960   38.3040 C   0  0  0  0  0  3  0  0  0  0  0  0
   41.2530   25.3940   39.4800 C   0  0  0  0  0  3  0  0  0  0  0  0
   40.2860   24.4020   39.5570 C   0  0  0  0  0  0  0  0  0  0  0  0
   39.1150   34.8470   40.2810 C   0  0  0  0  0  0  0  0  0  0  0  0
   37.9260   35.0660   39.5780 F   0  0  0  0  0  0  0  0  0  0  0  0
   39.9870   35.8250   39.8220 F   0  0  0  0  0  0  0  0  0  0  0  0
   38.8410   34.9310   41.6120 F   0  0  0  0  0  0  0  0  0  0  0  0
  1  2  1  0  0  0  0
  1  9  1  0  0  0  0
  2 15  1  0  0  0  0
  3 40  1  0  0  0  0
  3  2  2  0  0  0  0
  4  3  1  0  0  0  0
  5  4  2  0  0  0  0
  5  6  1  0  0  0  0
  6  1  2  0  0  0  0
  7  9  1  0  0  0  0
  7 10  1  0  0  0  0
  8  7  2  0  0  0  0
  9 17  1  0  0  0  0
 10 11  1  0  0  0  0
 10 14  1  0  0  0  0
 11 18  1  0  0  0  0
 11 12  1  0  0  0  0
 12 13  1  0  0  0  0
 12 21  1  0  0  0  0
 13 23  1  0  0  0  0
 13 22  1  0  0  0  0
 14 24  1  1  0  0  0
 14 13  1  0  0  0  0
 16  5  1  0  0  0  0
 19 11  1  0  0  0  0
 20 12  1  0  0  0  0
 25 27  1  0  0  0  0
 25 26  2  0  0  0  0
 27 14  1  0  0  0  0
 28 27  1  0  0  0  0
 29 30  1  0  0  0  0
 29 25  1  0  0  0  0
 30 31  1  0  0  0  0
 32 30  2  0  0  0  0
 33 32  1  0  0  0  0
 34 33  2  0  0  0  0
 34 39  1  0  0  0  0
 35 34  1  0  0  0  0
 36 35  2  0  0  0  0
 36 37  1  0  0  0  0
 37 38  2  0  0  0  0
 38 39  1  0  0  0  0
 39 29  2  0  0  0  0
 40 43  1  0  0  0  0
 41 40  1  0  0  0  0
 42 40  1  0  0  0  0
M  END
>  <minimizedAffinity>
-6.6672101

$$$$

 OpenBabel03252503333D

 43 46  0  0  1  0  0  0  0  0999 V2000
   37.9010   31.9930   38.8540 C   0  0  0  0  0  0  0  0  0  0  0  0
   39.1700   31.5440   39.3460 C   0  0  0  0  0  0  0  0  0  0  0  0
   39.8510   32.4510   40.1790 C   0  0  0  0  0  0  0  0  0  0  0  0
   39.2680   33.6410   40.4420 N   0  0  0  0  0  0  0  0  0  0  0  0
   38.0670   34.0070   39.9470 C   0  0  0  0  0  0  0  0  0  0  0  0
   37.3900   33.1630   39.1480 N   0  0  0  0  0  0  0  0  0  0  0  0
   36.5360   30.0830   38.7060 C   0  0  0  0  0  0  0  0  0  0  0  0
   36.7570   29.9910   39.9600 O   0  0  0  0  0  0  0  0  0  0  0  0
   37.1390   31.1350   38.0010 N   0  0  0  0  0  0  0  0  0  0  0  0
   35.6940   29.1130   38.1200 N   0  0  0  0  0  0  0  0  0  0  0  0
   35.3760   27.8800   38.8670 C   0  0  0  0  0  0  0  0  0  0  0  0
   35.1940   26.8790   37.7690 C   0  0  0  0  0  0  0  0  0  0  0  0
   35.3330   27.6420   36.4820 C   0  0  0  0  0  0  0  0  0  0  0  0
   35.0040   29.0650   36.8650 C   0  0  1  0  0  0  0  0  0  0  0  0
   39.5410   30.5590   39.0660 H   0  0  0  0  0  0  0  0  0  0  0  0
   37.6600   34.9790   40.2000 H   0  0  0  0  0  0  0  0  0  0  0  0
   36.9860   31.1900   36.9810 H   0  0  0  0  0  0  0  0  0  0  0  0
   36.2270   27.5580   39.4960 H   0  0  0  0  0  0  0  0  0  0  0  0
   34.4830   28.0160   39.5010 H   0  0  0  0  0  0  0  0  0  0  0  0
   34.1240   26.5460   37.8260 H   0  0  0  0  0  0  0  0  0  0  0  0
   35.8540   25.9960   37.8540 H   0  0  0  0  0  0  0  0  0  0  0  0
   35.0720   27.2100   35.5740 H   0  0  0  0  0  0  0  0  0  0  0  0
   36.4740   27.7230   36.4010 H   0  0  0  0  0  0  0  0  0  0  0  0
   35.3590   29.7300   36.0700 H   0  0  0  0  0  0  0  0  0  0  0  0
   32.6510   29.6600   36.0160 C   0  0  0  0  0  0  0  0  0  0  0  0
   33.1590   29.3990   34.9010 O   0  0  0  0  0  0  0  0  0  0  0  0
   33.5900   29.3330   37.0740 N   0  0  0  0  0  0  0  0  0  0  0  0
   33.2540   29.2790   38.0870 H   0  0  0  0  0  0  0  0  0  0  0  0
   31.3730   30.2030   36.5210 C   0  0  0  0  0  0  0  0  0  0  0  0
   30.9880   29.7780   37.7760 C   0  0  0  0  0  0  0  0  0  0  0  0
   31.5850   29.0900   38.3620 H   0  0  0  0  0  0  0  0  0  0  0  0
   29.7720   30.2870   38.2510 C   0  0  0  0  0  3  0  0  0  0  0  0
   29.0070   31.1740   37.4860 C   0  0  0  0  0  3  0  0  0  0  0  0
   29.4930   31.5360   36.2330 C   0  0  0  0  0  0  0  0  0  0  0  0
   28.7000   32.4130   35.5150 C   0  0  0  0  0  3  0  0  0  0  0  0
   29.1100   32.8300   34.2450 C   0  0  0  0  0  3  0  0  0  0  0  0
   30.2980   32.3350   33.7760 C   0  0  0  0  0  3  0  0  0  0  0  0
   31.1310   31.4500   34.4580 C   0  0  0  0  0  3  0  0  0  0  0  0
   30.6770   31.0680   35.7130 C   0  0  0  0  0  0  0  0  0  0  0  0
   41.1430   31.9690   40.6690 C   0  0  0  0  0  0  0  0  0  0  0  0
   42.0840   32.1250   39.6470 F   0  0  0  0  0  0  0  0  0  0  0  0
   41.0310   30.5960   40.8450 F   0  0  0  0  0  0  0  0  0  0  0  0
   41.5970   32.6320   41.7670 F   0  0  0  0  0  0  0  0  0  0  0  0
  1  6  2  0  0  0  0
  1  2  1  0  0  0  0
  2  3  2  0  0  0  0
  3  4  1  0  0  0  0
  3 40  1  0  0  0  0
  5 16  1  0  0  0  0
  5  4  2  0  0  0  0
  6  5  1  0  0  0  0
  7  8  2  0  0  0  0
  9  7  1  0  0  0  0
  9  1  1  0  0  0  0
 10  7  1  0  0  0  0
 10 11  1  0  0  0  0
 11 18  1  0  0  0  0
 11 19  1  0  0  0  0
 12 20  1  0  0  0  0
 12 21  1  0  0  0  0
 12 11  1  0  0  0  0
 13 14  1  0  0  0  0
 13 12  1  0  0  0  0
 14 24  1  6  0  0  0
 14 27  1  0  0  0  0
 14 10  1  0  0  0  0
 15  2  1  0  0  0  0
 17  9  1  0  0  0  0
 22 13  1  0  0  0  0
 23 13  1  0  0  0  0
 25 29  1  0  0  0  0
 25 27  1  0  0  0  0
 26 25  2  0  0  0  0
 27 28  1  0  0  0  0
 29 30  1  0  0  0  0
 30 32  2  0  0  0  0
 30 31  1  0  0  0  0
 33 32  1  0  0  0  0
 34 33  2  0  0  0  0
 35 34  1  0  0  0  0
 36 35  2  0  0  0  0
 37 36  1  0  0  0  0
 37 38  2  0  0  0  0
 38 39  1  0  0  0  0
 39 34  1  0  0  0  0
 39 29  2  0  0  0  0
 40 42  1  0  0  0  0
 40 43  1  0  0  0  0
 41 40  1  0  0  0  0
M  END
>  <minimizedAffinity>
-6.64685297

$$$$

 OpenBabel03252503333D

 43 46  0  0  1  0  0  0  0  0999 V2000
   35.7190   28.5430   38.4290 C   0  0  0  0  0  0  0  0  0  0  0  0
   35.6360   27.1190   38.2830 C   0  0  0  0  0  0  0  0  0  0  0  0
   35.0800   26.6650   37.0730 C   0  0  0  0  0  0  0  0  0  0  0  0
   34.6800   27.5860   36.1670 N   0  0  0  0  0  0  0  0  0  0  0  0
   34.7840   28.9170   36.3630 C   0  0  0  0  0  0  0  0  0  0  0  0
   35.3120   29.3830   37.5100 N   0  0  0  0  0  0  0  0  0  0  0  0
   37.6680   28.9680   39.6750 C   0  0  0  0  0  0  0  0  0  0  0  0
   38.2540   28.3730   38.7100 O   0  0  0  0  0  0  0  0  0  0  0  0
   36.2710   29.0920   39.6280 N   0  0  0  0  0  0  0  0  0  0  0  0
   38.4740   29.4610   40.7240 N   0  0  0  0  0  0  0  0  0  0  0  0
   39.8730   29.0050   40.8410 C   0  0  0  0  0  0  0  0  0  0  0  0
   40.1060   29.0660   42.3180 C   0  0  0  0  0  0  0  0  0  0  0  0
   38.8530   29.6400   42.9150 C   0  0  0  0  0  0  0  0  0  0  0  0
   38.2220   30.4020   41.7750 C   0  0  1  0  0  0  0  0  0  0  0  0
   35.9920   26.4720   39.0830 H   0  0  0  0  0  0  0  0  0  0  0  0
   34.4420   29.5970   35.5920 H   0  0  0  0  0  0  0  0  0  0  0  0
   35.7930   29.5440   40.4240 H   0  0  0  0  0  0  0  0  0  0  0  0
   39.9830   27.9540   40.5130 H   0  0  0  0  0  0  0  0  0  0  0  0
   40.5530   29.6450   40.2530 H   0  0  0  0  0  0  0  0  0  0  0  0
   40.9110   29.8330   42.4740 H   0  0  0  0  0  0  0  0  0  0  0  0
   40.4300   28.1060   42.7610 H   0  0  0  0  0  0  0  0  0  0  0  0
   38.8260   29.9500   43.9060 H   0  0  0  0  0  0  0  0  0  0  0  0
   38.1750   28.7140   42.9260 H   0  0  0  0  0  0  0  0  0  0  0  0
   37.1760   30.6050   42.0280 H   0  0  0  0  0  0  0  0  0  0  0  0
   38.3520   32.6250   40.4870 C   0  0  0  0  0  0  0  0  0  0  0  0
   37.1700   32.3370   40.1870 O   0  0  0  0  0  0  0  0  0  0  0  0
   38.8590   31.6700   41.4580 N   0  0  0  0  0  0  0  0  0  0  0  0
   39.7600   31.8820   41.9920 H   0  0  0  0  0  0  0  0  0  0  0  0
   39.3400   33.6590   40.1180 C   0  0  0  0  0  0  0  0  0  0  0  0
   39.2290   34.8660   40.7770 C   0  0  0  0  0  0  0  0  0  0  0  0
   38.4670   35.0490   41.5240 H   0  0  0  0  0  0  0  0  0  0  0  0
   40.1620   35.8480   40.4210 C   0  0  0  0  0  3  0  0  0  0  0  0
   41.1420   35.6030   39.4530 C   0  0  0  0  0  3  0  0  0  0  0  0
   41.1610   34.3480   38.8530 C   0  0  0  0  0  0  0  0  0  0  0  0
   42.1480   34.1540   37.9020 C   0  0  0  0  0  3  0  0  0  0  0  0
   42.2410   32.9230   37.2470 C   0  0  0  0  0  3  0  0  0  0  0  0
   41.3310   31.9590   37.5920 C   0  0  0  0  0  3  0  0  0  0  0  0
   40.3200   32.1040   38.5400 C   0  0  0  0  0  3  0  0  0  0  0  0
   40.2720   33.3450   39.1600 C   0  0  0  0  0  0  0  0  0  0  0  0
   35.0080   25.2100   36.9480 C   0  0  0  0  0  0  0  0  0  0  0  0
   33.6700   24.8530   36.7550 F   0  0  0  0  0  0  0  0  0  0  0  0
   35.3470   24.6730   38.1830 F   0  0  0  0  0  0  0  0  0  0  0  0
   35.7330   24.7090   35.9110 F   0  0  0  0  0  0  0  0  0  0  0  0
  1  9  1  0  0  0  0
  2  1  1  0  0  0  0
  2 15  1  0  0  0  0
  3  2  2  0  0  0  0
  4  5  2  0  0  0  0
  4  3  1  0  0  0  0
  5  6  1  0  0  0  0
  6  1  2  0  0  0  0
  7 10  1  0  0  0  0
  8  7  2  0  0  0  0
  9  7  1  0  0  0  0
  9 17  1  0  0  0  0
 10 11  1  0  0  0  0
 10 14  1  0  0  0  0
 11 12  1  0  0  0  0
 12 20  1  0  0  0  0
 12 21  1  0  0  0  0
 12 13  1  0  0  0  0
 13 23  1  0  0  0  0
 13 22  1  0  0  0  0
 14 24  1  1  0  0  0
 14 13  1  0  0  0  0
 16  5  1  0  0  0  0
 18 11  1  0  0  0  0
 19 11  1  0  0  0  0
 25 27  1  0  0  0  0
 26 25  2  0  0  0  0
 27 14  1  0  0  0  0
 27 28  1  0  0  0  0
 29 25  1  0  0  0  0
 29 30  1  0  0  0  0
 30 31  1  0  0  0  0
 32 30  2  0  0  0  0
 33 32  1  0  0  0  0
 34 39  1  0  0  0  0
 34 33  2  0  0  0  0
 35 34  1  0  0  0  0
 36 37  1  0  0  0  0
 36 35  2  0  0  0  0
 37 38  2  0  0  0  0
 38 39  1  0  0  0  0
 39 29  2  0  0  0  0
 40  3  1  0  0  0  0
 40 42  1  0  0  0  0
 41 40  1  0  0  0  0
 43 40  1  0  0  0  0
M  END
>  <minimizedAffinity>
-6.44020081

$$$$

 OpenBabel03252503333D

 43 46  0  0  1  0  0  0  0  0999 V2000
   40.2360   31.5260   40.7880 C   0  0  0  0  0  0  0  0  0  0  0  0
   39.9890   32.9230   40.5900 C   0  0  0  0  0  0  0  0  0  0  0  0
   41.1300   33.7120   40.3550 C   0  0  0  0  0  0  0  0  0  0  0  0
   42.3370   33.1030   40.3360 N   0  0  0  0  0  0  0  0  0  0  0  0
   42.5050   31.7790   40.5310 C   0  0  0  0  0  0  0  0  0  0  0  0
   41.4340   30.9970   40.7570 N   0  0  0  0  0  0  0  0  0  0  0  0
   38.3910   30.3910   39.8700 C   0  0  0  0  0  0  0  0  0  0  0  0
   38.7430   30.9710   38.7880 O   0  0  0  0  0  0  0  0  0  0  0  0
   39.1330   30.6490   41.0320 N   0  0  0  0  0  0  0  0  0  0  0  0
   37.2760   29.5270   39.8140 N   0  0  0  0  0  0  0  0  0  0  0  0
   36.3810   29.5710   38.6420 C   0  0  0  0  0  0  0  0  0  0  0  0
   35.0600   29.1930   39.2340 C   0  0  0  0  0  0  0  0  0  0  0  0
   35.3260   28.8730   40.6770 C   0  0  0  0  0  0  0  0  0  0  0  0
   36.7920   28.5160   40.7070 C   0  0  1  0  0  0  0  0  0  0  0  0
   38.9690   33.3030   40.6270 H   0  0  0  0  0  0  0  0  0  0  0  0
   43.5030   31.3580   40.5030 H   0  0  0  0  0  0  0  0  0  0  0  0
   38.8290   30.2060   41.9140 H   0  0  0  0  0  0  0  0  0  0  0  0
   36.3000   30.5970   38.2350 H   0  0  0  0  0  0  0  0  0  0  0  0
   36.7280   28.8890   37.8470 H   0  0  0  0  0  0  0  0  0  0  0  0
   34.7650   28.2260   38.7450 H   0  0  0  0  0  0  0  0  0  0  0  0
   34.2620   29.9400   39.0680 H   0  0  0  0  0  0  0  0  0  0  0  0
   34.6050   28.4110   41.2650 H   0  0  0  0  0  0  0  0  0  0  0  0
   35.3760   29.9280   41.1270 H   0  0  0  0  0  0  0  0  0  0  0  0
   37.1400   28.5540   41.7450 H   0  0  0  0  0  0  0  0  0  0  0  0
   37.4130   26.0360   40.9910 C   0  0  0  0  0  0  0  0  0  0  0  0
   37.0770   26.2520   42.1780 O   0  0  0  0  0  0  0  0  0  0  0  0
   37.1150   27.2010   40.1760 N   0  0  0  0  0  0  0  0  0  0  0  0
   37.1250   27.1210   39.1100 H   0  0  0  0  0  0  0  0  0  0  0  0
   38.0200   24.9300   40.2230 C   0  0  0  0  0  0  0  0  0  0  0  0
   39.3810   25.0130   40.0150 C   0  0  0  0  0  0  0  0  0  0  0  0
   39.9750   25.8350   40.3930 H   0  0  0  0  0  0  0  0  0  0  0  0
   39.9550   23.9670   39.2790 C   0  0  0  0  0  3  0  0  0  0  0  0
   39.1790   22.9080   38.7940 C   0  0  0  0  0  3  0  0  0  0  0  0
   37.8150   22.9280   39.0650 C   0  0  0  0  0  0  0  0  0  0  0  0
   37.0900   21.8610   38.5620 C   0  0  0  0  0  3  0  0  0  0  0  0
   35.7120   21.7980   38.7860 C   0  0  0  0  0  3  0  0  0  0  0  0
   35.1460   22.8190   39.5030 C   0  0  0  0  0  3  0  0  0  0  0  0
   35.8300   23.9140   40.0290 C   0  0  0  0  0  3  0  0  0  0  0  0
   37.1950   23.9270   39.7790 C   0  0  0  0  0  0  0  0  0  0  0  0
   40.8520   35.1340   40.1540 C   0  0  0  0  0  0  0  0  0  0  0  0
   41.4480   35.8490   41.1980 F   0  0  0  0  0  0  0  0  0  0  0  0
   39.4870   35.3160   40.3300 F   0  0  0  0  0  0  0  0  0  0  0  0
   41.3270   35.6280   38.9780 F   0  0  0  0  0  0  0  0  0  0  0  0
  1  9  1  0  0  0  0
  2 15  1  0  0  0  0
  2  1  2  0  0  0  0
  3  2  1  0  0  0  0
  4  3  2  0  0  0  0
  4  5  1  0  0  0  0
  5  6  2  0  0  0  0
  6  1  1  0  0  0  0
  7  9  1  0  0  0  0
  8  7  2  0  0  0  0
  9 17  1  0  0  0  0
 10  7  1  0  0  0  0
 10 14  1  0  0  0  0
 11 12  1  0  0  0  0
 11 10  1  0  0  0  0
 12 13  1  0  0  0  0
 13 14  1  0  0  0  0
 13 23  1  0  0  0  0
 13 22  1  0  0  0  0
 14 24  1  1  0  0  0
 16  5  1  0  0  0  0
 18 11  1  0  0  0  0
 19 11  1  0  0  0  0
 20 12  1  0  0  0  0
 21 12  1  0  0  0  0
 25 26  2  0  0  0  0
 27 14  1  0  0  0  0
 27 25  1  0  0  0  0
 28 27  1  0  0  0  0
 29 25  1  0  0  0  0
 30 29  1  0  0  0  0
 30 31  1  0  0  0  0
 32 30  2  0  0  0  0
 33 34  2  0  0  0  0
 33 32  1  0  0  0  0
 34 39  1  0  0  0  0
 35 36  2  0  0  0  0
 35 34  1  0  0  0  0
 36 37  1  0  0  0  0
 37 38  2  0  0  0  0
 39 38  1  0  0  0  0
 39 29  2  0  0  0  0
 40 42  1  0  0  0  0
 40  3  1  0  0  0  0
 40 41  1  0  0  0  0
 43 40  1  0  0  0  0
M  END
>  <minimizedAffinity>
-6.39377642

$$$$
