
 OpenBabel03252509273D

 32 35  0  0  1  0  0  0  0  0999 V2000
   46.4730   30.7750   43.0000 C   0  0  1  0  0  0  0  0  0  0  0  0
   47.8030   30.3170   42.4010 C   0  0  0  0  0  0  0  0  0  0  0  0
   46.5030   30.6380   41.5970 C   0  0  2  0  0  0  0  0  0  0  0  0
   46.5650   31.7180   43.5330 H   0  0  0  0  0  0  0  0  0  0  0  0
   48.6060   31.0820   42.2750 H   0  0  0  0  0  0  0  0  0  0  0  0
   48.1200   29.2850   42.5020 H   0  0  0  0  0  0  0  0  0  0  0  0
   46.1600   29.6800   41.0860 H   0  0  0  0  0  0  0  0  0  0  0  0
   44.7520   28.8980   45.7460 C   0  0  0  0  0  0  0  0  0  0  0  0
   45.3900   29.9700   45.0640 C   0  0  0  0  0  0  0  0  0  0  0  0
   45.8370   29.6680   43.8100 C   0  0  0  0  0  0  0  0  0  0  0  0
   45.6770   28.4150   43.2630 N   0  0  0  0  0  0  0  0  0  0  0  0
   45.0680   27.4320   43.9430 C   0  0  0  0  0  0  0  0  0  0  0  0
   44.6020   27.6760   45.1970 N   0  0  0  0  0  0  0  0  0  0  0  0
   44.3600   29.0450   46.7410 H   0  0  0  0  0  0  0  0  0  0  0  0
   44.9520   26.4490   43.4990 H   0  0  0  0  0  0  0  0  0  0  0  0
   45.5610   31.2340   45.6570 N   0  0  0  0  0  0  0  0  0  0  0  0
   46.5900   31.3750   45.7980 H   0  0  0  0  0  0  0  0  0  0  0  0
   44.7720   31.9070   45.9090 H   0  0  0  0  0  0  0  0  0  0  0  0
   46.5450   31.8090   40.6510 C   0  0  0  0  0  0  0  0  0  0  0  0
   46.5320   31.4010   39.6020 H   0  0  0  0  0  0  0  0  0  0  0  0
   47.5180   32.2780   40.8520 H   0  0  0  0  0  0  0  0  0  0  0  0
   45.3780   32.6820   40.7880 C   0  0  0  0  0  0  0  0  0  0  0  0
   44.2180   32.1830   40.1780 C   0  0  0  0  0  0  0  0  0  0  0  0
   44.1890   31.2940   39.5580 H   0  0  0  0  0  0  0  0  0  0  0  0
   43.0000   32.8310   40.3510 C   0  0  0  0  0  3  0  0  0  0  0  0
   42.8650   33.9740   41.1120 C   0  0  0  0  0  3  0  0  0  0  0  0
   43.9830   34.4680   41.7030 C   0  0  0  0  0  0  0  0  0  0  0  0
   43.9160   35.6470   42.4430 C   0  0  0  0  0  3  0  0  0  0  0  0
   45.0850   36.1390   42.9850 C   0  0  0  0  0  3  0  0  0  0  0  0
   46.2950   35.4940   42.8110 C   0  0  0  0  0  3  0  0  0  0  0  0
   46.3330   34.3280   42.0770 C   0  0  0  0  0  3  0  0  0  0  0  0
   45.1540   33.8240   41.5240 C   0  0  0  0  0  0  0  0  0  0  0  0
  1  4  1  1  0  0  0
  1 10  1  0  0  0  0
  2  6  1  0  0  0  0
  2  1  1  0  0  0  0
  3  7  1  6  0  0  0
  3  2  1  0  0  0  0
  3  1  1  0  0  0  0
  5  2  1  0  0  0  0
  8 14  1  0  0  0  0
  9 16  1  0  0  0  0
  9  8  2  0  0  0  0
 10  9  1  0  0  0  0
 11 10  2  0  0  0  0
 11 12  1  0  0  0  0
 12 13  2  0  0  0  0
 13  8  1  0  0  0  0
 15 12  1  0  0  0  0
 16 17  1  0  0  0  0
 16 18  1  0  0  0  0
 19 22  1  0  0  0  0
 19 21  1  0  0  0  0
 19  3  1  0  0  0  0
 20 19  1  0  0  0  0
 22 32  1  0  0  0  0
 23 25  1  0  0  0  0
 23 22  2  0  0  0  0
 24 23  1  0  0  0  0
 25 26  2  0  0  0  0
 26 27  1  0  0  0  0
 27 28  1  0  0  0  0
 28 29  2  0  0  0  0
 30 29  1  0  0  0  0
 31 30  2  0  0  0  0
 32 27  2  0  0  0  0
 32 31  1  0  0  0  0
M  END
>  <minimizedAffinity>
-3.46412992

>  <minimizedRMSD>
4.88606739

$$$$
