
 OpenBabel03252509003D

 47 50  0  0  1  0  0  0  0  0999 V2000
   46.7890   34.4020   43.5560 N   0  0  0  0  0  0  0  0  0  0  0  0
   46.3870   35.4360   42.6720 C   0  0  0  0  0  0  0  0  0  0  0  0
   44.8910   35.6530   42.5820 C   0  0  0  0  0  0  0  0  0  0  0  0
   44.1440   35.3840   43.8660 C   0  0  0  0  0  0  0  0  0  0  0  0
   45.0870   35.0570   44.9990 C   0  0  0  0  0  0  0  0  0  0  0  0
   45.9000   33.8290   44.4480 C   0  0  2  0  0  0  0  0  0  0  0  0
   46.7910   36.3920   43.0920 H   0  0  0  0  0  0  0  0  0  0  0  0
   46.7780   35.3730   41.6580 H   0  0  0  0  0  0  0  0  0  0  0  0
   44.5070   35.0740   41.7120 H   0  0  0  0  0  0  0  0  0  0  0  0
   44.6960   36.7180   42.3210 H   0  0  0  0  0  0  0  0  0  0  0  0
   43.4250   36.1950   44.1290 H   0  0  0  0  0  0  0  0  0  0  0  0
   43.5310   34.4710   43.7000 H   0  0  0  0  0  0  0  0  0  0  0  0
   45.8090   35.8390   45.2260 H   0  0  0  0  0  0  0  0  0  0  0  0
   44.4820   34.6870   45.8330 H   0  0  0  0  0  0  0  0  0  0  0  0
   45.1540   33.1020   44.0390 H   0  0  0  0  0  0  0  0  0  0  0  0
   47.8890   33.6190   43.0760 C   0  0  0  0  0  0  0  0  0  0  0  0
   48.4400   33.1410   43.9320 H   0  0  0  0  0  0  0  0  0  0  0  0
   48.5600   34.2870   42.5140 H   0  0  0  0  0  0  0  0  0  0  0  0
   47.3640   32.5170   42.2180 C   0  0  0  0  0  0  0  0  0  0  0  0
   47.5100   31.5010   42.6110 H   0  0  0  0  0  0  0  0  0  0  0  0
   46.2620   32.6250   42.0710 H   0  0  0  0  0  0  0  0  0  0  0  0
   49.5350   31.8780   39.2210 C   0  0  0  0  0  0  0  0  0  0  0  0
   48.9730   31.7760   40.5070 C   0  0  0  0  0  0  0  0  0  0  0  0
   47.9550   32.6280   40.8590 C   0  0  0  0  0  0  0  0  0  0  0  0
   47.5460   33.5240   39.9480 N   0  0  0  0  0  0  0  0  0  0  0  0
   48.0990   33.6060   38.7190 C   0  0  0  0  0  0  0  0  0  0  0  0
   49.0930   32.7870   38.3470 N   0  0  0  0  0  0  0  0  0  0  0  0
   50.3330   31.1460   39.0660 H   0  0  0  0  0  0  0  0  0  0  0  0
   49.3110   31.0450   41.2440 H   0  0  0  0  0  0  0  0  0  0  0  0
   47.7600   34.3390   37.9850 H   0  0  0  0  0  0  0  0  0  0  0  0
   46.5360   33.3800   45.5960 O   0  0  0  0  0  0  0  0  0  0  0  0
   45.4400   31.0930   44.7950 O   0  0  0  0  0  0  0  0  0  0  0  0
   46.2030   31.7670   45.9390 P   0  0  2  0  0  0  0  0  0  0  0  0
   45.0940   31.7810   47.2440 O   0  0  0  0  0  0  0  0  0  0  0  0
   45.5300   32.3300   47.9330 H   0  0  0  0  0  0  0  0  0  0  0  0
   47.5450   30.9280   46.4210 O   0  0  0  0  0  0  0  0  0  0  0  0
   47.7530   29.5800   46.4610 C   0  0  0  0  0  0  0  0  0  0  0  0
   47.3170   28.6810   47.4230 C   0  0  0  0  0  0  0  0  0  0  0  0
   46.7490   29.1410   48.2180 H   0  0  0  0  0  0  0  0  0  0  0  0
   47.6320   27.3360   47.2880 C   0  0  0  0  0  3  0  0  0  0  0  0
   48.3620   26.8940   46.2240 C   0  0  0  0  0  3  0  0  0  0  0  0
   48.8060   27.7530   45.2580 C   0  0  0  0  0  0  0  0  0  0  0  0
   49.5370   27.2590   44.2080 C   0  0  0  0  0  3  0  0  0  0  0  0
   49.9940   28.1080   43.2250 C   0  0  0  0  0  3  0  0  0  0  0  0
   49.7080   29.4540   43.3120 C   0  0  0  0  0  3  0  0  0  0  0  0
   48.9810   29.9120   44.3680 C   0  0  0  0  0  3  0  0  0  0  0  0
   48.4940   29.1040   45.3870 C   0  0  0  0  0  0  0  0  0  0  0  0
  1  6  1  0  0  0  0
  2  7  1  0  0  0  0
  2  1  1  0  0  0  0
  3  2  1  0  0  0  0
  3  4  1  0  0  0  0
  4 11  1  0  0  0  0
  4  5  1  0  0  0  0
  5 13  1  0  0  0  0
  5 14  1  0  0  0  0
  6 15  1  6  0  0  0
  6  5  1  0  0  0  0
  6 31  1  0  0  0  0
  8  2  1  0  0  0  0
  9  3  1  0  0  0  0
 10  3  1  0  0  0  0
 12  4  1  0  0  0  0
 16  1  1  0  0  0  0
 16 17  1  0  0  0  0
 18 16  1  0  0  0  0
 19 20  1  0  0  0  0
 19 16  1  0  0  0  0
 21 19  1  0  0  0  0
 22 23  1  0  0  0  0
 23 24  2  0  0  0  0
 23 29  1  0  0  0  0
 24 19  1  0  0  0  0
 25 24  1  0  0  0  0
 26 25  2  0  0  0  0
 27 26  1  0  0  0  0
 27 22  2  0  0  0  0
 28 22  1  0  0  0  0
 30 26  1  0  0  0  0
 31 33  1  0  0  0  0
 33 32  2  6  0  0  0
 33 36  1  0  0  0  0
 33 34  1  0  0  0  0
 34 35  1  0  0  0  0
 36 37  1  0  0  0  0
 37 38  1  0  0  0  0
 38 39  1  0  0  0  0
 40 38  2  0  0  0  0
 41 40  1  0  0  0  0
 42 47  1  0  0  0  0
 42 41  2  0  0  0  0
 43 42  1  0  0  0  0
 44 45  1  0  0  0  0
 44 43  2  0  0  0  0
 45 46  2  0  0  0  0
 46 47  1  0  0  0  0
 47 37  2  0  0  0  0
M  END
>  <minimizedAffinity>
-4.31155348

>  <minimizedRMSD>
1.14347994

$$$$
