
 OpenBabel03252504583D

 39 42  0  0  1  0  0  0  0  0999 V2000
   48.0420   34.1130   42.0350 N   0  0  0  0  0  0  0  0  0  0  0  0
   48.0280   35.0610   40.9860 C   0  0  0  0  0  0  0  0  0  0  0  0
   49.1430   35.9620   41.3540 C   0  0  0  0  0  0  0  0  0  0  0  0
   49.7960   35.4330   42.6180 C   0  0  0  0  0  0  0  0  0  0  0  0
   49.3090   33.9760   42.6270 C   0  0  2  0  0  0  0  0  0  0  0  0
   47.5080   35.3020   40.0960 H   0  0  0  0  0  0  0  0  0  0  0  0
   49.5330   36.8400   40.8760 H   0  0  0  0  0  0  0  0  0  0  0  0
   49.4500   35.9590   43.5040 H   0  0  0  0  0  0  0  0  0  0  0  0
   50.8860   35.4330   42.4430 H   0  0  0  0  0  0  0  0  0  0  0  0
   49.2830   33.5290   43.6170 H   0  0  0  0  0  0  0  0  0  0  0  0
   46.8810   33.4710   42.3880 C   0  0  0  0  0  0  0  0  0  0  0  0
   47.1490   32.4190   42.6660 H   0  0  0  0  0  0  0  0  0  0  0  0
   46.1590   33.3060   41.5570 H   0  0  0  0  0  0  0  0  0  0  0  0
   44.6200   35.7490   44.3970 C   0  0  0  0  0  0  0  0  0  0  0  0
   45.3470   35.2480   43.2790 C   0  0  0  0  0  0  0  0  0  0  0  0
   46.1210   34.1010   43.4470 C   0  0  0  0  0  0  0  0  0  0  0  0
   46.1290   33.5370   44.6730 N   0  0  0  0  0  0  0  0  0  0  0  0
   45.4210   34.0330   45.7480 C   0  0  0  0  0  0  0  0  0  0  0  0
   44.6750   35.1280   45.6050 N   0  0  0  0  0  0  0  0  0  0  0  0
   44.0260   36.6210   44.2860 H   0  0  0  0  0  0  0  0  0  0  0  0
   45.3140   35.7250   42.3220 H   0  0  0  0  0  0  0  0  0  0  0  0
   45.4920   33.5080   46.6970 H   0  0  0  0  0  0  0  0  0  0  0  0
   50.1110   33.2920   41.7000 O   0  0  0  0  0  0  0  0  0  0  0  0
   49.4190   31.1630   43.1360 O   0  0  0  0  0  0  0  0  0  0  0  0
   50.0960   31.6440   41.8720 P   0  0  2  0  0  0  0  0  0  0  0  0
   51.7060   31.1070   41.9360 O   0  0  0  0  0  0  0  0  0  0  0  0
   52.0640   31.1790   41.0040 H   0  0  0  0  0  0  0  0  0  0  0  0
   49.4130   30.8840   40.4970 O   0  0  0  0  0  0  0  0  0  0  0  0
   48.6900   31.5140   39.5230 C   0  0  0  0  0  0  0  0  0  0  0  0
   49.0820   32.3870   38.5570 C   0  0  0  0  0  0  0  0  0  0  0  0
   50.1400   32.6130   38.5680 H   0  0  0  0  0  0  0  0  0  0  0  0
   48.2200   32.9410   37.6380 C   0  0  0  0  0  3  0  0  0  0  0  0
   46.8730   32.6180   37.6660 C   0  0  0  0  0  3  0  0  0  0  0  0
   46.4490   31.7310   38.6430 C   0  0  0  0  0  0  0  0  0  0  0  0
   45.0950   31.4530   38.6150 C   0  0  0  0  0  3  0  0  0  0  0  0
   44.5860   30.5860   39.5430 C   0  0  0  0  0  3  0  0  0  0  0  0
   45.4220   30.0280   40.4590 C   0  0  0  0  0  3  0  0  0  0  0  0
   46.7740   30.3020   40.4930 C   0  0  0  0  0  3  0  0  0  0  0  0
   47.3320   31.1790   39.5640 C   0  0  0  0  0  0  0  0  0  0  0  0
  1 11  1  0  0  0  0
  1  5  1  0  0  0  0
  2  3  2  0  0  0  0
  2  1  1  0  0  0  0
  3  4  1  0  0  0  0
  4  5  1  0  0  0  0
  4  8  1  0  0  0  0
  5 10  1  1  0  0  0
  6  2  1  0  0  0  0
  7  3  1  0  0  0  0
  9  4  1  0  0  0  0
 11 12  1  0  0  0  0
 11 16  1  0  0  0  0
 13 11  1  0  0  0  0
 14 19  1  0  0  0  0
 15 16  1  0  0  0  0
 15 14  2  0  0  0  0
 16 17  2  0  0  0  0
 17 18  1  0  0  0  0
 18 22  1  0  0  0  0
 19 18  2  0  0  0  0
 20 14  1  0  0  0  0
 21 15  1  0  0  0  0
 23 25  1  0  0  0  0
 23  5  1  0  0  0  0
 25 26  1  0  0  0  0
 25 24  2  1  0  0  0
 27 26  1  0  0  0  0
 28 25  1  0  0  0  0
 29 39  1  0  0  0  0
 29 28  1  0  0  0  0
 30 31  1  0  0  0  0
 30 29  2  0  0  0  0
 32 33  2  0  0  0  0
 32 30  1  0  0  0  0
 33 34  1  0  0  0  0
 34 39  1  0  0  0  0
 35 34  2  0  0  0  0
 35 36  1  0  0  0  0
 36 37  2  0  0  0  0
 37 38  1  0  0  0  0
 39 38  2  0  0  0  0
M  END
>  <minimizedAffinity>
-4.92052031

>  <minimizedRMSD>
3.02368784

$$$$
