
 OpenBabel03252508033D

 44 48  0  0  1  0  0  0  0  0999 V2000
   42.1740   33.2850   41.0950 C   0  0  0  0  0  0  0  0  0  0  0  0
   42.8440   34.4400   41.3650 C   0  0  0  0  0  0  0  0  0  0  0  0
   42.1240   35.6470   41.3980 C   0  0  0  0  0  0  0  0  0  0  0  0
   40.7750   35.7200   41.1710 C   0  0  0  0  0  0  0  0  0  0  0  0
   40.0960   34.5600   40.8990 C   0  0  0  0  0  0  0  0  0  0  0  0
   40.7950   33.3940   40.8680 C   0  0  0  0  0  0  0  0  0  0  0  0
   42.5840   36.6050   41.5950 H   0  0  0  0  0  0  0  0  0  0  0  0
   40.2300   36.6340   41.1960 H   0  0  0  0  0  0  0  0  0  0  0  0
   39.0370   34.5240   40.7090 H   0  0  0  0  0  0  0  0  0  0  0  0
   40.2450   32.4650   40.6480 H   0  0  0  0  0  0  0  0  0  0  0  0
   42.8900   31.7620   41.1480 S   0  0  0  0  0  0  0  0  0  0  0  0
   41.7490   30.9250   40.4770 O   0  0  0  0  0  0  0  0  0  0  0  0
   43.0180   31.2170   42.5090 O   0  0  0  0  0  0  0  0  0  0  0  0
   43.9440   31.0250   40.0460 C   0  0  0  0  0  0  0  0  0  0  0  0
   43.6950   30.4820   38.7590 C   0  0  0  0  0  0  0  0  0  0  0  0
   42.6270   30.6360   38.4780 H   0  0  0  0  0  0  0  0  0  0  0  0
   44.4920   29.7950   37.8600 C   0  0  0  0  0  3  0  0  0  0  0  0
   45.7270   29.6560   38.3870 C   0  0  0  0  0  3  0  0  0  0  0  0
   46.1370   30.1160   39.6140 C   0  0  0  0  0  0  0  0  0  0  0  0
   47.4720   29.8340   39.9180 C   0  0  0  0  0  3  0  0  0  0  0  0
   47.9870   30.2520   41.1220 C   0  0  0  0  0  3  0  0  0  0  0  0
   47.1610   30.9380   41.9830 C   0  0  0  0  0  3  0  0  0  0  0  0
   45.8630   31.1700   41.6010 C   0  0  0  0  0  3  0  0  0  0  0  0
   45.2620   30.7890   40.4230 C   0  0  0  0  0  0  0  0  0  0  0  0
   44.2840   34.4620   41.6160 C   0  0  0  0  0  0  0  0  0  0  0  0
   45.1710   34.4370   40.7110 O   0  0  0  0  0  0  0  0  0  0  0  0
   44.6160   34.5200   43.0130 C   0  0  0  0  0  0  0  0  0  0  0  0
   44.3030   35.7580   43.6800 C   0  0  0  0  0  0  0  0  0  0  0  0
   44.5980   35.8330   45.0310 C   0  0  0  0  0  0  0  0  0  0  0  0
   45.1550   34.7500   45.6350 N   0  0  0  0  0  0  0  0  0  0  0  0
   45.4310   33.5940   44.9500 C   0  0  0  0  0  0  0  0  0  0  0  0
   45.1610   33.5190   43.6950 N   0  0  0  0  0  0  0  0  0  0  0  0
   43.8720   36.6480   43.2850 H   0  0  0  0  0  0  0  0  0  0  0  0
   44.4150   36.6970   45.6420 H   0  0  0  0  0  0  0  0  0  0  0  0
   46.0260   32.4590   45.6930 C   0  0  1  0  0  0  0  0  0  0  0  0
   46.9690   32.7440   46.8400 C   0  0  0  0  0  0  0  0  0  0  0  0
   45.5600   32.3120   47.0900 C   0  0  1  0  0  0  0  0  0  0  0  0
   46.1650   31.5370   45.1090 H   0  0  0  0  0  0  0  0  0  0  0  0
   47.2900   33.7920   46.9980 H   0  0  0  0  0  0  0  0  0  0  0  0
   47.7350   31.9830   47.0810 H   0  0  0  0  0  0  0  0  0  0  0  0
   45.3480   31.3240   47.5430 H   0  0  0  0  0  0  0  0  0  0  0  0
   44.7660   33.3710   47.7060 N   0  0  0  0  0  0  0  0  0  0  0  0
   43.7670   33.1360   47.4570 H   0  0  0  0  0  0  0  0  0  0  0  0
   44.8760   33.2520   48.7320 H   0  0  0  0  0  0  0  0  0  0  0  0
  1 11  1  0  0  0  0
  1  2  1  0  0  0  0
  2  3  2  0  0  0  0
  2 25  1  0  0  0  0
  3  7  1  0  0  0  0
  4  8  1  0  0  0  0
  4  3  1  0  0  0  0
  5  4  2  0  0  0  0
  6  5  1  0  0  0  0
  6  1  2  0  0  0  0
  9  5  1  0  0  0  0
 10  6  1  0  0  0  0
 11 13  2  0  0  0  0
 12 11  2  0  0  0  0
 14 24  1  0  0  0  0
 14 11  1  0  0  0  0
 15 14  2  0  0  0  0
 16 15  1  0  0  0  0
 17 18  2  0  0  0  0
 17 15  1  0  0  0  0
 18 19  1  0  0  0  0
 19 20  2  0  0  0  0
 19 24  1  0  0  0  0
 20 21  1  0  0  0  0
 21 22  2  0  0  0  0
 23 22  1  0  0  0  0
 24 23  2  0  0  0  0
 25 27  1  0  0  0  0
 26 25  2  0  0  0  0
 27 28  2  0  0  0  0
 27 32  1  0  0  0  0
 28 29  1  0  0  0  0
 29 30  2  0  0  0  0
 29 34  1  0  0  0  0
 31 30  1  0  0  0  0
 31 35  1  0  0  0  0
 32 31  2  0  0  0  0
 33 28  1  0  0  0  0
 35 38  1  6  0  0  0
 35 36  1  0  0  0  0
 35 37  1  0  0  0  0
 36 39  1  0  0  0  0
 36 40  1  0  0  0  0
 36 37  1  0  0  0  0
 37 41  1  1  0  0  0
 37 42  1  0  0  0  0
 42 44  1  0  0  0  0
 43 42  1  0  0  0  0
M  END
>  <minimizedAffinity>
-5.88833714

>  <minimizedRMSD>
2.03736663

$$$$
