
 OpenBabel03252509003D

 47 50  0  0  1  0  0  0  0  0999 V2000
   46.8820   34.3290   43.5270 N   0  0  0  0  0  0  0  0  0  0  0  0
   46.5400   35.0510   42.3550 C   0  0  0  0  0  0  0  0  0  0  0  0
   45.0620   35.0690   42.0260 C   0  0  0  0  0  0  0  0  0  0  0  0
   44.1550   35.0540   43.2320 C   0  0  0  0  0  0  0  0  0  0  0  0
   44.9400   35.1340   44.5180 C   0  0  0  0  0  0  0  0  0  0  0  0
   45.9170   33.9060   44.4220 C   0  0  2  0  0  0  0  0  0  0  0  0
   46.8030   36.1220   42.5500 H   0  0  0  0  0  0  0  0  0  0  0  0
   47.0820   34.7770   41.4510 H   0  0  0  0  0  0  0  0  0  0  0  0
   44.8570   34.2480   41.3020 H   0  0  0  0  0  0  0  0  0  0  0  0
   44.8290   36.0040   41.4660 H   0  0  0  0  0  0  0  0  0  0  0  0
   43.3450   35.8190   43.1770 H   0  0  0  0  0  0  0  0  0  0  0  0
   43.6440   34.0660   43.2420 H   0  0  0  0  0  0  0  0  0  0  0  0
   45.5590   36.0240   44.6150 H   0  0  0  0  0  0  0  0  0  0  0  0
   44.2460   34.9240   45.3390 H   0  0  0  0  0  0  0  0  0  0  0  0
   45.2960   33.0200   44.1330 H   0  0  0  0  0  0  0  0  0  0  0  0
   48.0980   33.5780   43.4140 C   0  0  0  0  0  0  0  0  0  0  0  0
   48.5210   33.3530   44.4310 H   0  0  0  0  0  0  0  0  0  0  0  0
   48.8120   34.1750   42.8260 H   0  0  0  0  0  0  0  0  0  0  0  0
   47.8030   32.2700   42.7590 C   0  0  0  0  0  0  0  0  0  0  0  0
   47.8430   31.3910   43.4170 H   0  0  0  0  0  0  0  0  0  0  0  0
   46.7740   32.2720   42.3240 H   0  0  0  0  0  0  0  0  0  0  0  0
   50.9330   31.7740   40.7440 C   0  0  0  0  0  0  0  0  0  0  0  0
   50.0650   31.9510   41.8370 C   0  0  0  0  0  0  0  0  0  0  0  0
   48.7180   32.0830   41.6020 C   0  0  0  0  0  0  0  0  0  0  0  0
   48.2970   32.0360   40.3290 N   0  0  0  0  0  0  0  0  0  0  0  0
   49.1470   31.8660   39.2940 C   0  0  0  0  0  0  0  0  0  0  0  0
   50.4670   31.7330   39.4930 N   0  0  0  0  0  0  0  0  0  0  0  0
   51.9760   31.6820   41.0640 H   0  0  0  0  0  0  0  0  0  0  0  0
   50.4140   31.9880   42.8700 H   0  0  0  0  0  0  0  0  0  0  0  0
   48.7950   31.8290   38.2620 H   0  0  0  0  0  0  0  0  0  0  0  0
   46.4060   33.8390   45.7180 O   0  0  0  0  0  0  0  0  0  0  0  0
   45.7170   31.2900   45.3970 O   0  0  0  0  0  0  0  0  0  0  0  0
   46.1840   32.3270   46.4220 P   0  0  2  0  0  0  0  0  0  0  0  0
   44.8590   32.4960   47.4950 O   0  0  0  0  0  0  0  0  0  0  0  0
   45.1040   33.2550   48.0710 H   0  0  0  0  0  0  0  0  0  0  0  0
   47.4950   31.8370   47.3050 O   0  0  0  0  0  0  0  0  0  0  0  0
   47.9670   30.5760   47.5230 C   0  0  0  0  0  0  0  0  0  0  0  0
   47.6300   29.4130   46.8440 C   0  0  0  0  0  0  0  0  0  0  0  0
   46.9040   29.5670   46.0590 H   0  0  0  0  0  0  0  0  0  0  0  0
   48.2240   28.2150   47.2150 C   0  0  0  0  0  3  0  0  0  0  0  0
   49.1310   28.1710   48.2340 C   0  0  0  0  0  3  0  0  0  0  0  0
   49.4840   29.2970   48.9210 C   0  0  0  0  0  0  0  0  0  0  0  0
   50.4020   29.2010   49.9380 C   0  0  0  0  0  3  0  0  0  0  0  0
   50.7710   30.3230   50.6430 C   0  0  0  0  0  3  0  0  0  0  0  0
   50.2100   31.5410   50.3140 C   0  0  0  0  0  3  0  0  0  0  0  0
   49.3040   31.6010   49.3000 C   0  0  0  0  0  3  0  0  0  0  0  0
   48.8930   30.5040   48.5540 C   0  0  0  0  0  0  0  0  0  0  0  0
  1  6  1  0  0  0  0
  2  7  1  0  0  0  0
  2  1  1  0  0  0  0
  3  2  1  0  0  0  0
  3  4  1  0  0  0  0
  4 12  1  0  0  0  0
  4  5  1  0  0  0  0
  5 13  1  0  0  0  0
  5 14  1  0  0  0  0
  6 15  1  6  0  0  0
  6  5  1  0  0  0  0
  6 31  1  0  0  0  0
  8  2  1  0  0  0  0
  9  3  1  0  0  0  0
 10  3  1  0  0  0  0
 11  4  1  0  0  0  0
 16  1  1  0  0  0  0
 16 17  1  0  0  0  0
 18 16  1  0  0  0  0
 19 16  1  0  0  0  0
 19 20  1  0  0  0  0
 21 19  1  0  0  0  0
 22 28  1  0  0  0  0
 22 23  1  0  0  0  0
 23 29  1  0  0  0  0
 24 23  2  0  0  0  0
 24 19  1  0  0  0  0
 25 24  1  0  0  0  0
 26 27  1  0  0  0  0
 26 25  2  0  0  0  0
 27 22  2  0  0  0  0
 30 26  1  0  0  0  0
 31 33  1  0  0  0  0
 33 32  2  6  0  0  0
 33 36  1  0  0  0  0
 33 34  1  0  0  0  0
 34 35  1  0  0  0  0
 36 37  1  0  0  0  0
 37 47  1  0  0  0  0
 38 40  1  0  0  0  0
 38 37  2  0  0  0  0
 39 38  1  0  0  0  0
 40 41  2  0  0  0  0
 41 42  1  0  0  0  0
 42 43  1  0  0  0  0
 43 44  2  0  0  0  0
 45 44  1  0  0  0  0
 46 45  2  0  0  0  0
 47 42  2  0  0  0  0
 47 46  1  0  0  0  0
M  END
>  <minimizedAffinity>
-5.53742075

>  <minimizedRMSD>
2.37143612

$$$$
