
 OpenBabel03252502373D

 26 28  0  0  1  0  0  0  0  0999 V2000
   38.0890   28.1550   43.5770 C   0  0  1  0  0  0  0  0  0  0  0  0
   38.3210   28.5160   44.6070 H   0  0  0  0  0  0  0  0  0  0  0  0
   38.8840   26.9590   43.2220 C   0  0  0  0  0  0  0  0  0  0  0  0
   40.2090   26.8940   43.6800 C   0  0  0  0  0  0  0  0  0  0  0  0
   40.6110   27.7270   44.2660 H   0  0  0  0  0  0  0  0  0  0  0  0
   41.0750   25.8540   43.4570 C   0  0  0  0  0  3  0  0  0  0  0  0
   40.6170   24.7810   42.7240 C   0  0  0  0  0  3  0  0  0  0  0  0
   39.3270   24.7830   42.2440 C   0  0  0  0  0  0  0  0  0  0  0  0
   38.8560   23.7330   41.5090 C   0  0  0  0  0  3  0  0  0  0  0  0
   37.5630   23.7530   41.0290 C   0  0  0  0  0  3  0  0  0  0  0  0
   36.7250   24.8200   41.2760 C   0  0  0  0  0  3  0  0  0  0  0  0
   37.2180   25.8700   42.0200 C   0  0  0  0  0  3  0  0  0  0  0  0
   38.4980   25.8530   42.4960 C   0  0  0  0  0  0  0  0  0  0  0  0
   37.1890   29.5560   41.7320 C   0  0  0  0  0  0  0  0  0  0  0  0
   38.1800   29.2690   42.6610 C   0  0  0  0  0  0  0  0  0  0  0  0
   39.2880   30.1430   42.6560 C   0  0  0  0  0  0  0  0  0  0  0  0
   39.3260   31.1840   41.7750 N   0  0  0  0  0  0  0  0  0  0  0  0
   38.3140   31.3950   40.9000 C   0  0  0  0  0  0  0  0  0  0  0  0
   37.2410   30.5750   40.8810 N   0  0  0  0  0  0  0  0  0  0  0  0
   36.2930   28.9600   41.6360 H   0  0  0  0  0  0  0  0  0  0  0  0
   40.1200   29.9990   43.3510 H   0  0  0  0  0  0  0  0  0  0  0  0
   38.5530   32.2760   40.2960 H   0  0  0  0  0  0  0  0  0  0  0  0
   36.6330   27.7300   43.6790 C   0  0  0  0  0  0  0  0  0  0  0  0
   36.1230   27.7210   42.7100 H   0  0  0  0  0  0  0  0  0  0  0  0
   36.0780   28.4660   44.3290 H   0  0  0  0  0  0  0  0  0  0  0  0
   36.5550   26.7560   44.2140 H   0  0  0  0  0  0  0  0  0  0  0  0
  1 23  1  0  0  0  0
  1  2  1  1  0  0  0
  3  1  1  0  0  0  0
  3  4  1  0  0  0  0
  4  5  1  0  0  0  0
  6  4  2  0  0  0  0
  7  6  1  0  0  0  0
  8 13  1  0  0  0  0
  8  7  2  0  0  0  0
  9  8  1  0  0  0  0
 10 11  1  0  0  0  0
 10  9  2  0  0  0  0
 11 12  2  0  0  0  0
 12 13  1  0  0  0  0
 13  3  2  0  0  0  0
 14 15  1  0  0  0  0
 15  1  1  0  0  0  0
 16 15  2  0  0  0  0
 16 21  1  0  0  0  0
 17 16  1  0  0  0  0
 18 17  2  0  0  0  0
 19 18  1  0  0  0  0
 19 14  2  0  0  0  0
 20 14  1  0  0  0  0
 22 18  1  0  0  0  0
 23 26  1  0  0  0  0
 23 25  1  0  0  0  0
 24 23  1  0  0  0  0
M  END
>  <minimizedAffinity>
-5.79903078

$$$$

 OpenBabel03252502373D

 26 28  0  0  1  0  0  0  0  0999 V2000
   35.4910   29.3490   40.3230 C   0  0  1  0  0  0  0  0  0  0  0  0
   34.9890   29.6480   41.2740 H   0  0  0  0  0  0  0  0  0  0  0  0
   36.2350   28.0790   40.4690 C   0  0  0  0  0  0  0  0  0  0  0  0
   36.1640   27.1540   39.4170 C   0  0  0  0  0  0  0  0  0  0  0  0
   35.5550   27.3930   38.5380 H   0  0  0  0  0  0  0  0  0  0  0  0
   36.8040   25.9420   39.3820 C   0  0  0  0  0  3  0  0  0  0  0  0
   37.5830   25.5940   40.4650 C   0  0  0  0  0  3  0  0  0  0  0  0
   37.6940   26.4570   41.5310 C   0  0  0  0  0  0  0  0  0  0  0  0
   38.4550   26.1290   42.6160 C   0  0  0  0  0  3  0  0  0  0  0  0
   38.5500   27.0020   43.6800 C   0  0  0  0  0  3  0  0  0  0  0  0
   37.8880   28.2120   43.6740 C   0  0  0  0  0  3  0  0  0  0  0  0
   37.1260   28.5250   42.5690 C   0  0  0  0  0  3  0  0  0  0  0  0
   37.0290   27.6630   41.5150 C   0  0  0  0  0  0  0  0  0  0  0  0
   36.6620   31.5180   40.6430 C   0  0  0  0  0  0  0  0  0  0  0  0
   36.2520   30.4730   39.8260 C   0  0  0  0  0  0  0  0  0  0  0  0
   36.6310   30.5780   38.4700 C   0  0  0  0  0  0  0  0  0  0  0  0
   37.3530   31.6560   38.0500 N   0  0  0  0  0  0  0  0  0  0  0  0
   37.7150   32.6340   38.9150 C   0  0  0  0  0  0  0  0  0  0  0  0
   37.3660   32.5610   40.2180 N   0  0  0  0  0  0  0  0  0  0  0  0
   36.4320   31.5540   41.6980 H   0  0  0  0  0  0  0  0  0  0  0  0
   36.3540   29.8050   37.7490 H   0  0  0  0  0  0  0  0  0  0  0  0
   38.2820   33.3920   38.3660 H   0  0  0  0  0  0  0  0  0  0  0  0
   34.3250   29.0990   39.3800 C   0  0  0  0  0  0  0  0  0  0  0  0
   34.6050   29.1820   38.3250 H   0  0  0  0  0  0  0  0  0  0  0  0
   33.5270   29.8760   39.5640 H   0  0  0  0  0  0  0  0  0  0  0  0
   33.8410   28.1260   39.6200 H   0  0  0  0  0  0  0  0  0  0  0  0
  1  3  1  0  0  0  0
  1  2  1  1  0  0  0
  3 13  1  0  0  0  0
  4  3  2  0  0  0  0
  5  4  1  0  0  0  0
  6  4  1  0  0  0  0
  6  7  2  0  0  0  0
  7  8  1  0  0  0  0
  8  9  1  0  0  0  0
  9 10  2  0  0  0  0
 11 10  1  0  0  0  0
 12 11  2  0  0  0  0
 13  8  2  0  0  0  0
 13 12  1  0  0  0  0
 14 20  1  0  0  0  0
 15  1  1  0  0  0  0
 15 14  2  0  0  0  0
 16 15  1  0  0  0  0
 17 16  2  0  0  0  0
 17 18  1  0  0  0  0
 18 19  2  0  0  0  0
 19 14  1  0  0  0  0
 21 16  1  0  0  0  0
 22 18  1  0  0  0  0
 23 25  1  0  0  0  0
 23 26  1  0  0  0  0
 23  1  1  0  0  0  0
 24 23  1  0  0  0  0
M  END
>  <minimizedAffinity>
-5.59807348

$$$$

 OpenBabel03252502373D

 26 28  0  0  1  0  0  0  0  0999 V2000
   37.1260   28.4420   42.9100 C   0  0  1  0  0  0  0  0  0  0  0  0
   36.8500   29.3990   43.4140 H   0  0  0  0  0  0  0  0  0  0  0  0
   38.5610   28.1270   43.0780 C   0  0  0  0  0  0  0  0  0  0  0  0
   38.9050   26.8200   43.4570 C   0  0  0  0  0  0  0  0  0  0  0  0
   38.1080   26.0890   43.6280 H   0  0  0  0  0  0  0  0  0  0  0  0
   40.1830   26.3580   43.6380 C   0  0  0  0  0  3  0  0  0  0  0  0
   41.2230   27.2400   43.4350 C   0  0  0  0  0  3  0  0  0  0  0  0
   40.9530   28.5370   43.0640 C   0  0  0  0  0  0  0  0  0  0  0  0
   41.9680   29.4290   42.8650 C   0  0  0  0  0  3  0  0  0  0  0  0
   41.6810   30.7280   42.4990 C   0  0  0  0  0  3  0  0  0  0  0  0
   40.3800   31.1530   42.3280 C   0  0  0  0  0  3  0  0  0  0  0  0
   39.3700   30.2380   42.5330 C   0  0  0  0  0  3  0  0  0  0  0  0
   39.6510   28.9520   42.8950 C   0  0  0  0  0  0  0  0  0  0  0  0
   36.0960   29.6200   40.9790 C   0  0  0  0  0  0  0  0  0  0  0  0
   36.6430   28.4780   41.5480 C   0  0  0  0  0  0  0  0  0  0  0  0
   36.7020   27.3490   40.7040 C   0  0  0  0  0  0  0  0  0  0  0  0
   36.2370   27.4330   39.4250 N   0  0  0  0  0  0  0  0  0  0  0  0
   35.7180   28.5890   38.9460 C   0  0  0  0  0  0  0  0  0  0  0  0
   35.6480   29.6870   39.7300 N   0  0  0  0  0  0  0  0  0  0  0  0
   35.9930   30.5480   41.5230 H   0  0  0  0  0  0  0  0  0  0  0  0
   37.1170   26.4020   41.0610 H   0  0  0  0  0  0  0  0  0  0  0  0
   35.4110   28.4290   37.9080 H   0  0  0  0  0  0  0  0  0  0  0  0
   36.3290   27.4020   43.6790 C   0  0  0  0  0  0  0  0  0  0  0  0
   36.1590   26.4850   43.1050 H   0  0  0  0  0  0  0  0  0  0  0  0
   35.3110   27.8220   43.9230 H   0  0  0  0  0  0  0  0  0  0  0  0
   36.8050   27.2080   44.6660 H   0  0  0  0  0  0  0  0  0  0  0  0
  1  3  1  0  0  0  0
  1  2  1  1  0  0  0
  1 23  1  0  0  0  0
  3  4  1  0  0  0  0
  4  5  1  0  0  0  0
  4  6  2  0  0  0  0
  7  6  1  0  0  0  0
  8  7  2  0  0  0  0
  9  8  1  0  0  0  0
 10  9  2  0  0  0  0
 11 10  1  0  0  0  0
 11 12  2  0  0  0  0
 12 13  1  0  0  0  0
 13  8  1  0  0  0  0
 13  3  2  0  0  0  0
 14 20  1  0  0  0  0
 14 15  1  0  0  0  0
 15  1  1  0  0  0  0
 16 21  1  0  0  0  0
 16 15  2  0  0  0  0
 17 16  1  0  0  0  0
 18 17  2  0  0  0  0
 18 19  1  0  0  0  0
 19 14  2  0  0  0  0
 22 18  1  0  0  0  0
 23 25  1  0  0  0  0
 23 26  1  0  0  0  0
 24 23  1  0  0  0  0
M  END
>  <minimizedAffinity>
-5.38187551

$$$$

 OpenBabel03252502373D

 26 28  0  0  1  0  0  0  0  0999 V2000
   37.7680   26.8550   43.1880 C   0  0  1  0  0  0  0  0  0  0  0  0
   38.1240   26.2910   44.0830 H   0  0  0  0  0  0  0  0  0  0  0  0
   37.4750   25.9550   42.0520 C   0  0  0  0  0  0  0  0  0  0  0  0
   37.7650   24.5910   42.2040 C   0  0  0  0  0  0  0  0  0  0  0  0
   38.2080   24.2430   43.1440 H   0  0  0  0  0  0  0  0  0  0  0  0
   37.5390   23.6220   41.2610 C   0  0  0  0  0  3  0  0  0  0  0  0
   36.9810   24.0090   40.0610 C   0  0  0  0  0  3  0  0  0  0  0  0
   36.6740   25.3330   39.8470 C   0  0  0  0  0  0  0  0  0  0  0  0
   36.1290   25.7380   38.6630 C   0  0  0  0  0  3  0  0  0  0  0  0
   35.8320   27.0700   38.4610 C   0  0  0  0  0  3  0  0  0  0  0  0
   36.0770   28.0130   39.4370 C   0  0  0  0  0  3  0  0  0  0  0  0
   36.6280   27.5850   40.6250 C   0  0  0  0  0  3  0  0  0  0  0  0
   36.9220   26.2670   40.8280 C   0  0  0  0  0  0  0  0  0  0  0  0
   39.9850   27.7080   42.4570 C   0  0  0  0  0  0  0  0  0  0  0  0
   38.6950   27.9310   42.9180 C   0  0  0  0  0  0  0  0  0  0  0  0
   38.3440   29.2850   43.1040 C   0  0  0  0  0  0  0  0  0  0  0  0
   39.2520   30.2650   42.8310 N   0  0  0  0  0  0  0  0  0  0  0  0
   40.4930   29.9610   42.3820 C   0  0  0  0  0  0  0  0  0  0  0  0
   40.8590   28.6740   42.1950 N   0  0  0  0  0  0  0  0  0  0  0  0
   40.3740   26.7160   42.2780 H   0  0  0  0  0  0  0  0  0  0  0  0
   37.3490   29.5620   43.4640 H   0  0  0  0  0  0  0  0  0  0  0  0
   41.0470   30.8930   42.2310 H   0  0  0  0  0  0  0  0  0  0  0  0
   36.4530   27.4550   43.6580 C   0  0  0  0  0  0  0  0  0  0  0  0
   36.1580   28.3380   43.0800 H   0  0  0  0  0  0  0  0  0  0  0  0
   36.5620   27.7930   44.7290 H   0  0  0  0  0  0  0  0  0  0  0  0
   35.6620   26.6730   43.6800 H   0  0  0  0  0  0  0  0  0  0  0  0
  1 23  1  0  0  0  0
  1  2  1  1  0  0  0
  3  4  1  0  0  0  0
  3  1  1  0  0  0  0
  4  5  1  0  0  0  0
  6  4  2  0  0  0  0
  7  6  1  0  0  0  0
  8  7  2  0  0  0  0
  8 13  1  0  0  0  0
  9  8  1  0  0  0  0
 10  9  2  0  0  0  0
 10 11  1  0  0  0  0
 11 12  2  0  0  0  0
 12 13  1  0  0  0  0
 13  3  2  0  0  0  0
 14 15  1  0  0  0  0
 15 16  2  0  0  0  0
 15  1  1  0  0  0  0
 16 21  1  0  0  0  0
 17 16  1  0  0  0  0
 18 17  2  0  0  0  0
 19 18  1  0  0  0  0
 19 14  2  0  0  0  0
 20 14  1  0  0  0  0
 22 18  1  0  0  0  0
 23 26  1  0  0  0  0
 23 25  1  0  0  0  0
 24 23  1  0  0  0  0
M  END
>  <minimizedAffinity>
-5.32155943

$$$$

 OpenBabel03252502373D

 26 28  0  0  1  0  0  0  0  0999 V2000
   36.7920   27.7120   42.2240 C   0  0  1  0  0  0  0  0  0  0  0  0
   35.8250   28.1310   41.8550 H   0  0  0  0  0  0  0  0  0  0  0  0
   37.8740   28.7200   42.1960 C   0  0  0  0  0  0  0  0  0  0  0  0
   39.0890   28.3940   42.8170 C   0  0  0  0  0  0  0  0  0  0  0  0
   39.1910   27.4210   43.3090 H   0  0  0  0  0  0  0  0  0  0  0  0
   40.1960   29.2020   42.8660 C   0  0  0  0  0  3  0  0  0  0  0  0
   40.1190   30.4380   42.2610 C   0  0  0  0  0  3  0  0  0  0  0  0
   38.9540   30.8200   41.6360 C   0  0  0  0  0  0  0  0  0  0  0  0
   38.8540   32.0430   41.0360 C   0  0  0  0  0  3  0  0  0  0  0  0
   37.6770   32.4130   40.4190 C   0  0  0  0  0  3  0  0  0  0  0  0
   36.5860   31.5690   40.3930 C   0  0  0  0  0  3  0  0  0  0  0  0
   36.7070   30.3390   41.0030 C   0  0  0  0  0  3  0  0  0  0  0  0
   37.8700   29.9700   41.6140 C   0  0  0  0  0  0  0  0  0  0  0  0
   37.0080   25.2380   42.1470 C   0  0  0  0  0  0  0  0  0  0  0  0
   37.0610   26.4770   41.5240 C   0  0  0  0  0  0  0  0  0  0  0  0
   37.3930   26.4520   40.1530 C   0  0  0  0  0  0  0  0  0  0  0  0
   37.6340   25.2610   39.5350 N   0  0  0  0  0  0  0  0  0  0  0  0
   37.5600   24.0930   40.2180 C   0  0  0  0  0  0  0  0  0  0  0  0
   37.2450   24.0850   41.5310 N   0  0  0  0  0  0  0  0  0  0  0  0
   36.7680   25.1240   43.1950 H   0  0  0  0  0  0  0  0  0  0  0  0
   37.4590   27.3780   39.5740 H   0  0  0  0  0  0  0  0  0  0  0  0
   37.7900   23.2720   39.5310 H   0  0  0  0  0  0  0  0  0  0  0  0
   36.4960   27.3900   43.6800 C   0  0  0  0  0  0  0  0  0  0  0  0
   37.1670   26.6290   44.0920 H   0  0  0  0  0  0  0  0  0  0  0  0
   35.4500   26.9740   43.7610 H   0  0  0  0  0  0  0  0  0  0  0  0
   36.4830   28.3240   44.2840 H   0  0  0  0  0  0  0  0  0  0  0  0
  1  2  1  6  0  0  0
  1 23  1  0  0  0  0
  3  1  1  0  0  0  0
  3  4  1  0  0  0  0
  4  6  2  0  0  0  0
  4  5  1  0  0  0  0
  7  6  1  0  0  0  0
  8  7  2  0  0  0  0
  9  8  1  0  0  0  0
 10  9  2  0  0  0  0
 11 10  1  0  0  0  0
 11 12  2  0  0  0  0
 12 13  1  0  0  0  0
 13  8  1  0  0  0  0
 13  3  2  0  0  0  0
 14 20  1  0  0  0  0
 15 14  2  0  0  0  0
 15  1  1  0  0  0  0
 16 15  1  0  0  0  0
 17 16  2  0  0  0  0
 17 18  1  0  0  0  0
 18 19  2  0  0  0  0
 19 14  1  0  0  0  0
 21 16  1  0  0  0  0
 22 18  1  0  0  0  0
 23 25  1  0  0  0  0
 23 24  1  0  0  0  0
 23 26  1  0  0  0  0
M  END
>  <minimizedAffinity>
-5.26886988

$$$$

 OpenBabel03252502373D

 26 28  0  0  1  0  0  0  0  0999 V2000
   36.2490   29.7350   40.7530 C   0  0  1  0  0  0  0  0  0  0  0  0
   35.9690   30.5840   41.4220 H   0  0  0  0  0  0  0  0  0  0  0  0
   36.7460   28.5730   41.5210 C   0  0  0  0  0  0  0  0  0  0  0  0
   37.2070   28.7980   42.8270 C   0  0  0  0  0  0  0  0  0  0  0  0
   37.1980   29.8180   43.2250 H   0  0  0  0  0  0  0  0  0  0  0  0
   37.6820   27.8340   43.6770 C   0  0  0  0  0  3  0  0  0  0  0  0
   37.7140   26.5330   43.2230 C   0  0  0  0  0  3  0  0  0  0  0  0
   37.2760   26.2440   41.9510 C   0  0  0  0  0  0  0  0  0  0  0  0
   37.3060   24.9630   41.4790 C   0  0  0  0  0  3  0  0  0  0  0  0
   36.8700   24.6910   40.1990 C   0  0  0  0  0  3  0  0  0  0  0  0
   36.4000   25.6920   39.3740 C   0  0  0  0  0  3  0  0  0  0  0  0
   36.3780   26.9780   39.8690 C   0  0  0  0  0  3  0  0  0  0  0  0
   36.8090   27.2500   41.1360 C   0  0  0  0  0  0  0  0  0  0  0  0
   36.6650   30.9660   38.6350 C   0  0  0  0  0  0  0  0  0  0  0  0
   37.1270   30.2300   39.7170 C   0  0  0  0  0  0  0  0  0  0  0  0
   38.5180   29.9970   39.7420 C   0  0  0  0  0  0  0  0  0  0  0  0
   39.3060   30.4880   38.7440 N   0  0  0  0  0  0  0  0  0  0  0  0
   38.7740   31.2000   37.7210 C   0  0  0  0  0  0  0  0  0  0  0  0
   37.4460   31.4380   37.6690 N   0  0  0  0  0  0  0  0  0  0  0  0
   35.6200   31.2080   38.5000 H   0  0  0  0  0  0  0  0  0  0  0  0
   38.9770   29.4270   40.5550 H   0  0  0  0  0  0  0  0  0  0  0  0
   39.5820   31.4910   37.0420 H   0  0  0  0  0  0  0  0  0  0  0  0
   34.9250   29.3420   40.1200 C   0  0  0  0  0  0  0  0  0  0  0  0
   35.0490   28.8110   39.1690 H   0  0  0  0  0  0  0  0  0  0  0  0
   34.3310   30.2740   39.8930 H   0  0  0  0  0  0  0  0  0  0  0  0
   34.3050   28.7750   40.8500 H   0  0  0  0  0  0  0  0  0  0  0  0
  1  2  1  1  0  0  0
  1  3  1  0  0  0  0
  3  4  1  0  0  0  0
  4  5  1  0  0  0  0
  4  6  2  0  0  0  0
  7  6  1  0  0  0  0
  8  7  2  0  0  0  0
  9  8  1  0  0  0  0
 10  9  2  0  0  0  0
 11 12  2  0  0  0  0
 11 10  1  0  0  0  0
 12 13  1  0  0  0  0
 13  3  2  0  0  0  0
 13  8  1  0  0  0  0
 14 15  1  0  0  0  0
 15 16  2  0  0  0  0
 15  1  1  0  0  0  0
 16 21  1  0  0  0  0
 17 16  1  0  0  0  0
 18 17  2  0  0  0  0
 19 18  1  0  0  0  0
 19 14  2  0  0  0  0
 20 14  1  0  0  0  0
 22 18  1  0  0  0  0
 23  1  1  0  0  0  0
 23 26  1  0  0  0  0
 24 23  1  0  0  0  0
 25 23  1  0  0  0  0
M  END
>  <minimizedAffinity>
-5.22967672

$$$$

 OpenBabel03252502373D

 26 28  0  0  1  0  0  0  0  0999 V2000
   38.6460   31.6660   40.5080 C   0  0  1  0  0  0  0  0  0  0  0  0
   39.1930   31.8090   41.4700 H   0  0  0  0  0  0  0  0  0  0  0  0
   37.5900   30.6370   40.6240 C   0  0  0  0  0  0  0  0  0  0  0  0
   36.5480   30.6570   39.6840 C   0  0  0  0  0  0  0  0  0  0  0  0
   36.5430   31.4340   38.9130 H   0  0  0  0  0  0  0  0  0  0  0  0
   35.5050   29.7690   39.6370 C   0  0  0  0  0  3  0  0  0  0  0  0
   35.4660   28.7700   40.5870 C   0  0  0  0  0  3  0  0  0  0  0  0
   36.4570   28.6950   41.5380 C   0  0  0  0  0  0  0  0  0  0  0  0
   36.4330   27.7180   42.4920 C   0  0  0  0  0  3  0  0  0  0  0  0
   37.4310   27.6600   43.4440 C   0  0  0  0  0  3  0  0  0  0  0  0
   38.4630   28.5750   43.4550 C   0  0  0  0  0  3  0  0  0  0  0  0
   38.4690   29.5530   42.4840 C   0  0  0  0  0  3  0  0  0  0  0  0
   37.4840   29.6130   41.5410 C   0  0  0  0  0  0  0  0  0  0  0  0
   39.6890   32.2990   38.3430 C   0  0  0  0  0  0  0  0  0  0  0  0
   39.6100   31.4650   39.4490 C   0  0  0  0  0  0  0  0  0  0  0  0
   40.5400   30.4040   39.4770 C   0  0  0  0  0  0  0  0  0  0  0  0
   41.4330   30.2580   38.4570 N   0  0  0  0  0  0  0  0  0  0  0  0
   41.4440   31.1200   37.4110 C   0  0  0  0  0  0  0  0  0  0  0  0
   40.5660   32.1450   37.3570 N   0  0  0  0  0  0  0  0  0  0  0  0
   39.0310   33.1450   38.2050 H   0  0  0  0  0  0  0  0  0  0  0  0
   40.5560   29.6930   40.3080 H   0  0  0  0  0  0  0  0  0  0  0  0
   42.2350   30.8150   36.7180 H   0  0  0  0  0  0  0  0  0  0  0  0
   37.9640   33.0080   40.2940 C   0  0  0  0  0  0  0  0  0  0  0  0
   37.7140   33.1960   39.2440 H   0  0  0  0  0  0  0  0  0  0  0  0
   38.6650   33.8330   40.6100 H   0  0  0  0  0  0  0  0  0  0  0  0
   37.0840   33.1020   40.9680 H   0  0  0  0  0  0  0  0  0  0  0  0
  1  3  1  0  0  0  0
  1  2  1  1  0  0  0
  3 13  1  0  0  0  0
  4  3  2  0  0  0  0
  5  4  1  0  0  0  0
  6  4  1  0  0  0  0
  6  7  2  0  0  0  0
  7  8  1  0  0  0  0
  8 13  2  0  0  0  0
  8  9  1  0  0  0  0
  9 10  2  0  0  0  0
 10 11  1  0  0  0  0
 12 11  2  0  0  0  0
 13 12  1  0  0  0  0
 14 15  1  0  0  0  0
 15 16  2  0  0  0  0
 15  1  1  0  0  0  0
 16 21  1  0  0  0  0
 17 16  1  0  0  0  0
 18 17  2  0  0  0  0
 19 18  1  0  0  0  0
 19 14  2  0  0  0  0
 20 14  1  0  0  0  0
 22 18  1  0  0  0  0
 23  1  1  0  0  0  0
 23 25  1  0  0  0  0
 23 26  1  0  0  0  0
 24 23  1  0  0  0  0
M  END
>  <minimizedAffinity>
-5.16120768

$$$$

 OpenBabel03252502373D

 26 28  0  0  1  0  0  0  0  0999 V2000
   36.5740   27.4190   42.1900 C   0  0  1  0  0  0  0  0  0  0  0  0
   35.5110   27.0800   42.1500 H   0  0  0  0  0  0  0  0  0  0  0  0
   36.7520   28.7460   41.5610 C   0  0  0  0  0  0  0  0  0  0  0  0
   35.7210   29.2250   40.7390 C   0  0  0  0  0  0  0  0  0  0  0  0
   34.8350   28.6010   40.5790 H   0  0  0  0  0  0  0  0  0  0  0  0
   35.7170   30.4360   40.0970 C   0  0  0  0  0  3  0  0  0  0  0  0
   36.8110   31.2590   40.2660 C   0  0  0  0  0  3  0  0  0  0  0  0
   37.8570   30.8470   41.0590 C   0  0  0  0  0  0  0  0  0  0  0  0
   38.9520   31.6430   41.2340 C   0  0  0  0  0  3  0  0  0  0  0  0
   39.9960   31.2140   42.0270 C   0  0  0  0  0  3  0  0  0  0  0  0
   39.9600   29.9860   42.6550 C   0  0  0  0  0  3  0  0  0  0  0  0
   38.8460   29.1980   42.4660 C   0  0  0  0  0  3  0  0  0  0  0  0
   37.8110   29.6200   41.6820 C   0  0  0  0  0  0  0  0  0  0  0  0
   38.2160   25.5800   42.5070 C   0  0  0  0  0  0  0  0  0  0  0  0
   37.4180   26.3610   41.6820 C   0  0  0  0  0  0  0  0  0  0  0  0
   37.4810   26.0500   40.3070 C   0  0  0  0  0  0  0  0  0  0  0  0
   38.2900   25.0400   39.8760 N   0  0  0  0  0  0  0  0  0  0  0  0
   39.0380   24.3240   40.7500 C   0  0  0  0  0  0  0  0  0  0  0  0
   38.9980   24.5990   42.0720 N   0  0  0  0  0  0  0  0  0  0  0  0
   38.2580   25.7220   43.5780 H   0  0  0  0  0  0  0  0  0  0  0  0
   36.8890   26.6090   39.5780 H   0  0  0  0  0  0  0  0  0  0  0  0
   39.6040   23.5730   40.1910 H   0  0  0  0  0  0  0  0  0  0  0  0
   36.8330   27.5720   43.6800 C   0  0  0  0  0  0  0  0  0  0  0  0
   37.8970   27.5120   43.9350 H   0  0  0  0  0  0  0  0  0  0  0  0
   36.3210   26.7330   44.2330 H   0  0  0  0  0  0  0  0  0  0  0  0
   36.3530   28.5030   44.0580 H   0  0  0  0  0  0  0  0  0  0  0  0
  1  2  1  6  0  0  0
  1 23  1  0  0  0  0
  3 13  1  0  0  0  0
  3  1  1  0  0  0  0
  4  3  2  0  0  0  0
  5  4  1  0  0  0  0
  6  7  2  0  0  0  0
  6  4  1  0  0  0  0
  7  8  1  0  0  0  0
  8  9  2  0  0  0  0
  8 13  1  0  0  0  0
  9 10  1  0  0  0  0
 10 11  2  0  0  0  0
 12 11  1  0  0  0  0
 13 12  2  0  0  0  0
 14 20  1  0  0  0  0
 15  1  1  0  0  0  0
 15 14  2  0  0  0  0
 16 15  1  0  0  0  0
 17 16  2  0  0  0  0
 17 18  1  0  0  0  0
 18 19  2  0  0  0  0
 19 14  1  0  0  0  0
 21 16  1  0  0  0  0
 22 18  1  0  0  0  0
 23 24  1  0  0  0  0
 23 26  1  0  0  0  0
 23 25  1  0  0  0  0
M  END
>  <minimizedAffinity>
-5.14664602

$$$$

 OpenBabel03252502373D

 26 28  0  0  1  0  0  0  0  0999 V2000
   37.7460   26.7660   43.0210 C   0  0  1  0  0  0  0  0  0  0  0  0
   37.5510   25.8690   43.6560 H   0  0  0  0  0  0  0  0  0  0  0  0
   37.2440   26.5810   41.6410 C   0  0  0  0  0  0  0  0  0  0  0  0
   36.7660   27.7120   40.9610 C   0  0  0  0  0  0  0  0  0  0  0  0
   36.7660   28.6800   41.4730 H   0  0  0  0  0  0  0  0  0  0  0  0
   36.2850   27.7200   39.6770 C   0  0  0  0  0  3  0  0  0  0  0  0
   36.2650   26.5250   38.9890 C   0  0  0  0  0  3  0  0  0  0  0  0
   36.7180   25.3790   39.6000 C   0  0  0  0  0  0  0  0  0  0  0  0
   36.7000   24.1840   38.9390 C   0  0  0  0  0  3  0  0  0  0  0  0
   37.1520   23.0420   39.5680 C   0  0  0  0  0  3  0  0  0  0  0  0
   37.6280   23.0780   40.8620 C   0  0  0  0  0  3  0  0  0  0  0  0
   37.6390   24.2930   41.5120 C   0  0  0  0  0  3  0  0  0  0  0  0
   37.1920   25.4250   40.8930 C   0  0  0  0  0  0  0  0  0  0  0  0
   40.1120   26.2280   43.5570 C   0  0  0  0  0  0  0  0  0  0  0  0
   39.1400   27.1280   43.1430 C   0  0  0  0  0  0  0  0  0  0  0  0
   39.6040   28.4270   42.8430 C   0  0  0  0  0  0  0  0  0  0  0  0
   40.9300   28.7190   42.9690 N   0  0  0  0  0  0  0  0  0  0  0  0
   41.8150   27.7790   43.3790 C   0  0  0  0  0  0  0  0  0  0  0  0
   41.4010   26.5280   43.6740 N   0  0  0  0  0  0  0  0  0  0  0  0
   39.8830   25.2050   43.8170 H   0  0  0  0  0  0  0  0  0  0  0  0
   38.9130   29.2060   42.5080 H   0  0  0  0  0  0  0  0  0  0  0  0
   42.8130   28.2300   43.4080 H   0  0  0  0  0  0  0  0  0  0  0  0
   36.9050   27.8470   43.6800 C   0  0  0  0  0  0  0  0  0  0  0  0
   37.2590   28.8590   43.4530 H   0  0  0  0  0  0  0  0  0  0  0  0
   36.9630   27.7290   44.8000 H   0  0  0  0  0  0  0  0  0  0  0  0
   35.8300   27.7020   43.4290 H   0  0  0  0  0  0  0  0  0  0  0  0
  1 15  1  0  0  0  0
  1  2  1  1  0  0  0
  1 23  1  0  0  0  0
  3  1  1  0  0  0  0
  4  5  1  0  0  0  0
  4  3  1  0  0  0  0
  6  4  2  0  0  0  0
  7  8  2  0  0  0  0
  7  6  1  0  0  0  0
  8 13  1  0  0  0  0
  9 10  2  0  0  0  0
  9  8  1  0  0  0  0
 10 11  1  0  0  0  0
 11 12  2  0  0  0  0
 13 12  1  0  0  0  0
 13  3  2  0  0  0  0
 14 19  1  0  0  0  0
 14 20  1  0  0  0  0
 15 14  2  0  0  0  0
 16 17  2  0  0  0  0
 16 15  1  0  0  0  0
 17 18  1  0  0  0  0
 18 22  1  0  0  0  0
 18 19  2  0  0  0  0
 21 16  1  0  0  0  0
 23 25  1  0  0  0  0
 24 23  1  0  0  0  0
 26 23  1  0  0  0  0
M  END
>  <minimizedAffinity>
-5.08478785

$$$$
