
 OpenBabel03242519543D

 42 45  0  0  1  0  0  0  0  0999 V2000
   47.2610   34.0440   42.4910 C   0  0  2  0  0  0  0  0  0  0  0  0
   48.6050   34.6060   42.6050 C   0  0  0  0  0  0  0  0  0  0  0  0
   48.8910   35.6640   41.5840 C   0  0  0  0  0  0  0  0  0  0  0  0
   48.6660   35.1860   40.1710 C   0  0  0  0  0  0  0  0  0  0  0  0
   47.4700   34.2750   39.9910 C   0  0  2  0  0  0  0  0  0  0  0  0
   46.5650   34.3540   41.2040 C   0  0  0  0  0  0  0  0  0  0  0  0
   47.3700   32.9150   42.5560 H   0  0  0  0  0  0  0  0  0  0  0  0
   48.7630   35.0680   43.6040 H   0  0  0  0  0  0  0  0  0  0  0  0
   49.4180   33.8430   42.4960 H   0  0  0  0  0  0  0  0  0  0  0  0
   49.9900   35.8760   41.6640 H   0  0  0  0  0  0  0  0  0  0  0  0
   48.3790   36.6030   41.8250 H   0  0  0  0  0  0  0  0  0  0  0  0
   49.5800   34.7680   39.7010 H   0  0  0  0  0  0  0  0  0  0  0  0
   48.4460   36.1190   39.5860 H   0  0  0  0  0  0  0  0  0  0  0  0
   46.8660   34.5940   39.1190 H   0  0  0  0  0  0  0  0  0  0  0  0
   46.0330   35.2930   41.1210 H   0  0  0  0  0  0  0  0  0  0  0  0
   45.7970   33.5540   41.1010 H   0  0  0  0  0  0  0  0  0  0  0  0
   46.3670   34.3960   43.6000 C   0  0  0  0  0  0  0  0  0  0  0  0
   45.5560   35.5060   43.3720 C   0  0  0  0  0  0  0  0  0  0  0  0
   44.6550   35.9150   44.3550 C   0  0  0  0  0  0  0  0  0  0  0  0
   44.6250   35.1820   45.5140 N   0  0  0  0  0  0  0  0  0  0  0  0
   45.4190   34.1160   45.7140 C   0  0  0  0  0  0  0  0  0  0  0  0
   46.2600   33.7570   44.7570 N   0  0  0  0  0  0  0  0  0  0  0  0
   45.4070   36.2260   42.5800 H   0  0  0  0  0  0  0  0  0  0  0  0
   43.9520   36.7120   44.3960 H   0  0  0  0  0  0  0  0  0  0  0  0
   45.4080   33.5340   46.6190 H   0  0  0  0  0  0  0  0  0  0  0  0
   47.9650   32.8930   39.7520 C   0  0  0  0  0  0  0  0  0  0  0  0
   48.9040   33.0080   39.1310 H   0  0  0  0  0  0  0  0  0  0  0  0
   48.3420   32.4810   40.7130 H   0  0  0  0  0  0  0  0  0  0  0  0
   47.0810   31.9610   39.0460 C   0  0  0  0  0  0  0  0  0  0  0  0
   46.0060   32.2200   39.3230 H   0  0  0  0  0  0  0  0  0  0  0  0
   47.1930   30.9260   39.4370 H   0  0  0  0  0  0  0  0  0  0  0  0
   47.1270   31.9420   37.5880 C   0  0  0  0  0  0  0  0  0  0  0  0
   48.4200   32.3390   37.1680 C   0  0  0  0  0  0  0  0  0  0  0  0
   49.2760   32.5580   37.8210 H   0  0  0  0  0  0  0  0  0  0  0  0
   48.8270   32.5170   35.8400 C   0  0  0  0  0  0  0  0  0  0  0  0
   47.9200   32.2960   34.8330 C   0  0  0  0  0  0  0  0  0  0  0  0
   46.6530   31.9090   35.1870 C   0  0  0  0  0  0  0  0  0  0  0  0
   45.6570   31.6340   34.2880 C   0  0  0  0  0  0  0  0  0  0  0  0
   44.3870   31.2190   34.6670 C   0  0  0  0  0  0  0  0  0  0  0  0
   44.0670   31.0640   36.0020 C   0  0  0  0  0  0  0  0  0  0  0  0
   45.0700   31.3420   36.8960 C   0  0  0  0  0  0  0  0  0  0  0  0
   46.3180   31.7520   36.4990 C   0  0  0  0  0  0  0  0  0  0  0  0
  1  7  1  1  0  0  0
  1  2  1  0  0  0  0
  1 17  1  0  0  0  0
  2  8  1  0  0  0  0
  3 10  1  0  0  0  0
  3 11  1  0  0  0  0
  3  2  1  0  0  0  0
  4  3  1  0  0  0  0
  5 14  1  6  0  0  0
  5  4  1  0  0  0  0
  5  6  1  0  0  0  0
  6  1  1  0  0  0  0
  9  2  1  0  0  0  0
 12  4  1  0  0  0  0
 13  4  1  0  0  0  0
 15  6  1  0  0  0  0
 16  6  1  0  0  0  0
 17 22  1  0  0  0  0
 18 17  2  0  0  0  0
 18 19  1  0  0  0  0
 19 24  1  0  0  0  0
 19 20  2  0  0  0  0
 20 21  1  0  0  0  0
 21 25  1  0  0  0  0
 22 21  2  0  0  0  0
 23 18  1  0  0  0  0
 26  5  1  0  0  0  0
 26 28  1  0  0  0  0
 27 26  1  0  0  0  0
 29 30  1  0  0  0  0
 29 31  1  0  0  0  0
 29 26  1  0  0  0  0
 32 29  1  0  0  0  0
 33 32  1  0  0  0  0
 33 34  1  0  0  0  0
 35 33  2  0  0  0  0
 36 37  2  0  0  0  0
 36 35  1  0  0  0  0
 37 42  1  0  0  0  0
 38 39  2  0  0  0  0
 38 37  1  0  0  0  0
 39 40  1  0  0  0  0
 40 41  2  0  0  0  0
 42 41  1  0  0  0  0
 42 32  2  0  0  0  0
M  END
>  <minimizedAffinity>
-6.06302977

>  <minimizedRMSD>
1.09424305

$$$$
