
 OpenBabel03252501033D

 33 36  0  0  1  0  0  0  0  0999 V2000
   47.8520   34.1660   40.0930 O   0  0  0  0  0  0  0  0  0  0  0  0
   48.2040   35.5910   42.0090 C   0  0  1  0  0  0  0  0  0  0  0  0
   49.4740   34.8320   41.8940 C   0  0  0  0  0  0  0  0  0  0  0  0
   48.6010   35.1120   40.6780 C   0  0  1  0  0  0  0  0  0  0  0  0
   48.1890   36.6840   42.1540 H   0  0  0  0  0  0  0  0  0  0  0  0
   50.4130   35.4490   42.0080 H   0  0  0  0  0  0  0  0  0  0  0  0
   49.5780   33.7640   42.0820 H   0  0  0  0  0  0  0  0  0  0  0  0
   49.0660   35.8410   39.9860 H   0  0  0  0  0  0  0  0  0  0  0  0
   46.2970   33.0850   44.1060 C   0  0  0  0  0  0  0  0  0  0  0  0
   47.3720   33.7450   43.5080 C   0  0  0  0  0  0  0  0  0  0  0  0
   47.0940   34.8440   42.6850 C   0  0  0  0  0  0  0  0  0  0  0  0
   45.7990   35.2250   42.4980 N   0  0  0  0  0  0  0  0  0  0  0  0
   44.7720   34.5680   43.0900 C   0  0  0  0  0  0  0  0  0  0  0  0
   45.0300   33.4990   43.8920 N   0  0  0  0  0  0  0  0  0  0  0  0
   46.5020   32.2470   44.7350 H   0  0  0  0  0  0  0  0  0  0  0  0
   48.3520   33.3950   43.7000 H   0  0  0  0  0  0  0  0  0  0  0  0
   43.7670   34.9220   42.9000 H   0  0  0  0  0  0  0  0  0  0  0  0
   48.8980   32.4540   38.3580 O   0  0  0  0  0  0  0  0  0  0  0  0
   48.1520   33.7580   38.5310 P   0  0  2  0  0  0  0  0  0  0  0  0
   49.0260   34.9210   37.6700 O   0  0  0  0  0  0  0  0  0  0  0  0
   49.9080   35.0230   38.1390 H   0  0  0  0  0  0  0  0  0  0  0  0
   46.6890   33.5400   37.7150 O   0  0  0  0  0  0  0  0  0  0  0  0
   46.5610   32.7660   36.5710 C   0  0  0  0  0  0  0  0  0  0  0  0
   47.5130   32.6370   35.5870 C   0  0  0  0  0  0  0  0  0  0  0  0
   48.4360   33.1780   35.7050 H   0  0  0  0  0  0  0  0  0  0  0  0
   47.2650   31.8300   34.4870 C   0  0  0  0  0  0  0  0  0  0  0  0
   46.0600   31.1570   34.3850 C   0  0  0  0  0  0  0  0  0  0  0  0
   45.1080   31.2920   35.3810 C   0  0  0  0  0  0  0  0  0  0  0  0
   43.9240   30.5920   35.2200 C   0  0  0  0  0  0  0  0  0  0  0  0
   42.9400   30.7060   36.2050 C   0  0  0  0  0  0  0  0  0  0  0  0
   43.1570   31.5060   37.3170 C   0  0  0  0  0  0  0  0  0  0  0  0
   44.3500   32.1970   37.4600 C   0  0  0  0  0  0  0  0  0  0  0  0
   45.3410   32.0950   36.4840 C   0  0  0  0  0  0  0  0  0  0  0  0
  1  4  1  0  0  0  0
  2  5  1  1  0  0  0
  2 11  1  0  0  0  0
  3  6  1  0  0  0  0
  3  2  1  0  0  0  0
  3  7  1  0  0  0  0
  4  8  1  6  0  0  0
  4  3  1  0  0  0  0
  4  2  1  0  0  0  0
  9 15  1  0  0  0  0
 10 16  1  0  0  0  0
 10  9  2  0  0  0  0
 11 10  1  0  0  0  0
 12 11  2  0  0  0  0
 12 13  1  0  0  0  0
 13 14  2  0  0  0  0
 14  9  1  0  0  0  0
 17 13  1  0  0  0  0
 19 18  2  6  0  0  0
 19  1  1  0  0  0  0
 20 21  1  0  0  0  0
 20 19  1  0  0  0  0
 22 19  1  0  0  0  0
 23 22  1  0  0  0  0
 24 25  1  0  0  0  0
 24 23  2  0  0  0  0
 26 24  1  0  0  0  0
 27 26  2  0  0  0  0
 27 28  1  0  0  0  0
 28 33  1  0  0  0  0
 29 28  2  0  0  0  0
 29 30  1  0  0  0  0
 30 31  2  0  0  0  0
 31 32  1  0  0  0  0
 33 23  1  0  0  0  0
 33 32  2  0  0  0  0
M  END
>  <minimizedAffinity>
-5.10521841

>  <minimizedRMSD>
1.00441146

$$$$
