
 OpenBabel03242513283D

 32 35  0  0  0  0  0  0  0  0999 V2000
   37.1910   29.7330   40.7940 C   0  0  0  0  0  0  0  0  0  0  0  0
   37.1900   30.5640   39.6920 C   0  0  0  0  0  0  0  0  0  0  0  0
   36.4190   30.1950   38.6350 C   0  0  0  0  0  0  0  0  0  0  0  0
   35.6620   29.0330   38.6560 C   0  0  0  0  0  0  0  0  0  0  0  0
   35.6700   28.2160   39.7510 C   0  0  0  0  0  0  0  0  0  0  0  0
   36.4440   28.5570   40.8510 C   0  0  0  0  0  0  0  0  0  0  0  0
   36.4190   30.8500   37.7680 H   0  0  0  0  0  0  0  0  0  0  0  0
   35.0720   28.7970   37.7880 H   0  0  0  0  0  0  0  0  0  0  0  0
   35.0810   27.3150   39.7650 H   0  0  0  0  0  0  0  0  0  0  0  0
   38.2680   34.1610   40.0200 C   0  0  0  0  0  0  0  0  0  0  0  0
   37.4610   33.0260   39.9770 C   0  0  0  0  0  0  0  0  0  0  0  0
   38.0030   31.7590   39.7410 C   0  0  0  0  0  0  0  0  0  0  0  0
   39.3370   31.7260   39.5630 N   0  0  0  0  0  0  0  0  0  0  0  0
   40.1270   32.8130   39.6020 C   0  0  0  0  0  0  0  0  0  0  0  0
   39.6000   34.0400   39.8310 N   0  0  0  0  0  0  0  0  0  0  0  0
   37.8300   35.1360   40.2050 H   0  0  0  0  0  0  0  0  0  0  0  0
   36.3880   33.1110   40.1280 H   0  0  0  0  0  0  0  0  0  0  0  0
   41.1740   32.6110   39.4380 H   0  0  0  0  0  0  0  0  0  0  0  0
   37.9720   30.0700   41.9140 O   0  0  0  0  0  0  0  0  0  0  0  0
   38.9550   30.2350   41.8680 H   0  0  0  0  0  0  0  0  0  0  0  0
   36.5020   27.7870   41.9910 O   0  0  0  0  0  0  0  0  0  0  0  0
   37.5570   27.0490   42.4410 C   0  0  0  0  0  0  0  0  0  0  0  0
   38.5520   27.3500   43.3310 C   0  0  0  0  0  0  0  0  0  0  0  0
   38.4920   28.3360   43.7420 H   0  0  0  0  0  0  0  0  0  0  0  0
   39.5490   26.4860   43.6790 C   0  0  0  0  0  3  0  0  0  0  0  0
   39.6030   25.2170   43.1250 C   0  0  0  0  0  3  0  0  0  0  0  0
   38.6000   24.8810   42.2120 C   0  0  0  0  0  0  0  0  0  0  0  0
   38.7230   23.6040   41.7050 C   0  0  0  0  0  3  0  0  0  0  0  0
   37.7820   23.1810   40.7980 C   0  0  0  0  0  3  0  0  0  0  0  0
   36.7630   24.0330   40.4290 C   0  0  0  0  0  3  0  0  0  0  0  0
   36.6860   25.2970   40.9630 C   0  0  0  0  0  3  0  0  0  0  0  0
   37.5980   25.7700   41.8720 C   0  0  0  0  0  0  0  0  0  0  0  0
  1  6  1  0  0  0  0
  1 19  1  0  0  0  0
  2 12  1  0  0  0  0
  2  1  2  0  0  0  0
  3  4  2  0  0  0  0
  3  2  1  0  0  0  0
  4  5  1  0  0  0  0
  5  9  1  0  0  0  0
  5  6  2  0  0  0  0
  6 21  1  0  0  0  0
  7  3  1  0  0  0  0
  8  4  1  0  0  0  0
 10 16  1  0  0  0  0
 11 10  1  0  0  0  0
 11 17  1  0  0  0  0
 12 11  2  0  0  0  0
 13 14  2  0  0  0  0
 13 12  1  0  0  0  0
 14 15  1  0  0  0  0
 15 10  2  0  0  0  0
 18 14  1  0  0  0  0
 20 19  1  0  0  0  0
 21 22  1  0  0  0  0
 22 23  1  0  0  0  0
 23 25  2  0  0  0  0
 23 24  1  0  0  0  0
 26 25  1  0  0  0  0
 27 26  2  0  0  0  0
 28 27  1  0  0  0  0
 29 28  2  0  0  0  0
 30 29  1  0  0  0  0
 30 31  2  0  0  0  0
 31 32  1  0  0  0  0
 32 27  1  0  0  0  0
 32 22  2  0  0  0  0
M  END
>  <minimizedAffinity>
-6.55818844

$$$$

 OpenBabel03242513283D

 32 35  0  0  0  0  0  0  0  0999 V2000
   37.3090   29.6320   40.4060 C   0  0  0  0  0  0  0  0  0  0  0  0
   37.3320   30.6150   39.4360 C   0  0  0  0  0  0  0  0  0  0  0  0
   36.5790   30.4070   38.3240 C   0  0  0  0  0  0  0  0  0  0  0  0
   35.8170   29.2600   38.1620 C   0  0  0  0  0  0  0  0  0  0  0  0
   35.8020   28.2920   39.1270 C   0  0  0  0  0  0  0  0  0  0  0  0
   36.5570   28.4650   40.2780 C   0  0  0  0  0  0  0  0  0  0  0  0
   36.5970   31.1810   37.5620 H   0  0  0  0  0  0  0  0  0  0  0  0
   35.2440   29.1560   37.2580 H   0  0  0  0  0  0  0  0  0  0  0  0
   35.2100   27.4020   38.9980 H   0  0  0  0  0  0  0  0  0  0  0  0
   38.4090   34.1610   40.1190 C   0  0  0  0  0  0  0  0  0  0  0  0
   37.5980   33.0510   39.8910 C   0  0  0  0  0  0  0  0  0  0  0  0
   38.1480   31.7850   39.6740 C   0  0  0  0  0  0  0  0  0  0  0  0
   39.4930   31.7260   39.7000 N   0  0  0  0  0  0  0  0  0  0  0  0
   40.2860   32.7900   39.9180 C   0  0  0  0  0  0  0  0  0  0  0  0
   39.7510   34.0160   40.1290 N   0  0  0  0  0  0  0  0  0  0  0  0
   37.9650   35.1370   40.2850 H   0  0  0  0  0  0  0  0  0  0  0  0
   36.5160   33.1550   39.8800 H   0  0  0  0  0  0  0  0  0  0  0  0
   41.3420   32.5700   39.9070 H   0  0  0  0  0  0  0  0  0  0  0  0
   38.0710   29.7970   41.5770 O   0  0  0  0  0  0  0  0  0  0  0  0
   39.0540   29.9620   41.5730 H   0  0  0  0  0  0  0  0  0  0  0  0
   36.5910   27.5370   41.2950 O   0  0  0  0  0  0  0  0  0  0  0  0
   37.0400   26.2500   41.2290 C   0  0  0  0  0  0  0  0  0  0  0  0
   36.5940   25.1770   40.5080 C   0  0  0  0  0  0  0  0  0  0  0  0
   35.7450   25.3820   39.8900 H   0  0  0  0  0  0  0  0  0  0  0  0
   37.1650   23.9370   40.5560 C   0  0  0  0  0  3  0  0  0  0  0  0
   38.2600   23.7010   41.3710 C   0  0  0  0  0  3  0  0  0  0  0  0
   38.7380   24.7780   42.1200 C   0  0  0  0  0  0  0  0  0  0  0  0
   39.8280   24.4640   42.9040 C   0  0  0  0  0  3  0  0  0  0  0  0
   40.3690   25.4600   43.6790 C   0  0  0  0  0  3  0  0  0  0  0  0
   39.8150   26.7210   43.6490 C   0  0  0  0  0  3  0  0  0  0  0  0
   38.7270   26.9840   42.8510 C   0  0  0  0  0  3  0  0  0  0  0  0
   38.1470   26.0260   42.0570 C   0  0  0  0  0  0  0  0  0  0  0  0
  1 19  1  0  0  0  0
  2 12  1  0  0  0  0
  2  1  2  0  0  0  0
  3  2  1  0  0  0  0
  4  3  2  0  0  0  0
  4  5  1  0  0  0  0
  5  6  2  0  0  0  0
  6  1  1  0  0  0  0
  6 21  1  0  0  0  0
  7  3  1  0  0  0  0
  8  4  1  0  0  0  0
  9  5  1  0  0  0  0
 10 15  1  0  0  0  0
 10 16  1  0  0  0  0
 11 10  2  0  0  0  0
 12 13  2  0  0  0  0
 12 11  1  0  0  0  0
 13 14  1  0  0  0  0
 14 15  2  0  0  0  0
 17 11  1  0  0  0  0
 18 14  1  0  0  0  0
 20 19  1  0  0  0  0
 22 21  1  0  0  0  0
 22 32  1  0  0  0  0
 23 25  1  0  0  0  0
 23 22  2  0  0  0  0
 24 23  1  0  0  0  0
 25 26  2  0  0  0  0
 26 27  1  0  0  0  0
 27 28  1  0  0  0  0
 28 29  2  0  0  0  0
 30 29  1  0  0  0  0
 31 30  2  0  0  0  0
 32 27  2  0  0  0  0
 32 31  1  0  0  0  0
M  END
>  <minimizedAffinity>
-6.43365288

$$$$

 OpenBabel03242513283D

 32 35  0  0  0  0  0  0  0  0999 V2000
   39.3240   31.3530   39.8880 C   0  0  0  0  0  0  0  0  0  0  0  0
   39.5840   32.6960   39.7020 C   0  0  0  0  0  0  0  0  0  0  0  0
   38.5140   33.5240   39.5660 C   0  0  0  0  0  0  0  0  0  0  0  0
   37.2130   33.0470   39.6100 C   0  0  0  0  0  0  0  0  0  0  0  0
   36.9650   31.7150   39.7930 C   0  0  0  0  0  0  0  0  0  0  0  0
   38.0290   30.8370   39.9360 C   0  0  0  0  0  0  0  0  0  0  0  0
   38.7200   34.5800   39.4200 H   0  0  0  0  0  0  0  0  0  0  0  0
   36.4100   33.7530   39.4950 H   0  0  0  0  0  0  0  0  0  0  0  0
   35.9540   31.3480   39.8260 H   0  0  0  0  0  0  0  0  0  0  0  0
   42.8710   34.1280   38.5420 C   0  0  0  0  0  0  0  0  0  0  0  0
   41.5370   33.7270   38.5460 C   0  0  0  0  0  0  0  0  0  0  0  0
   40.9660   33.1220   39.6690 C   0  0  0  0  0  0  0  0  0  0  0  0
   41.7900   32.9610   40.7210 N   0  0  0  0  0  0  0  0  0  0  0  0
   43.0790   33.3440   40.7290 C   0  0  0  0  0  0  0  0  0  0  0  0
   43.6310   33.9300   39.6410 N   0  0  0  0  0  0  0  0  0  0  0  0
   43.2980   34.5960   37.6610 H   0  0  0  0  0  0  0  0  0  0  0  0
   40.9160   33.8810   37.6670 H   0  0  0  0  0  0  0  0  0  0  0  0
   43.5990   33.1420   41.6530 H   0  0  0  0  0  0  0  0  0  0  0  0
   40.3950   30.4540   40.0340 O   0  0  0  0  0  0  0  0  0  0  0  0
   41.1280   30.3590   39.3640 H   0  0  0  0  0  0  0  0  0  0  0  0
   37.8600   29.4840   40.1270 O   0  0  0  0  0  0  0  0  0  0  0  0
   37.6350   28.8330   41.3050 C   0  0  0  0  0  0  0  0  0  0  0  0
   37.6160   29.2870   42.5950 C   0  0  0  0  0  0  0  0  0  0  0  0
   37.8150   30.3340   42.6970 H   0  0  0  0  0  0  0  0  0  0  0  0
   37.3700   28.4940   43.6780 C   0  0  0  0  0  3  0  0  0  0  0  0
   37.1210   27.1400   43.5140 C   0  0  0  0  0  3  0  0  0  0  0  0
   37.1340   26.6470   42.2070 C   0  0  0  0  0  0  0  0  0  0  0  0
   36.8780   25.2940   42.1260 C   0  0  0  0  0  3  0  0  0  0  0  0
   36.8700   24.7160   40.8800 C   0  0  0  0  0  3  0  0  0  0  0  0
   37.1140   25.4940   39.7690 C   0  0  0  0  0  3  0  0  0  0  0  0
   37.3640   26.8390   39.9030 C   0  0  0  0  0  3  0  0  0  0  0  0
   37.3850   27.4670   41.1230 C   0  0  0  0  0  0  0  0  0  0  0  0
  1  6  1  0  0  0  0
  1 19  1  0  0  0  0
  2  1  2  0  0  0  0
  3  4  2  0  0  0  0
  3  2  1  0  0  0  0
  4  5  1  0  0  0  0
  5  9  1  0  0  0  0
  5  6  2  0  0  0  0
  6 21  1  0  0  0  0
  7  3  1  0  0  0  0
  8  4  1  0  0  0  0
 10 11  2  0  0  0  0
 10 15  1  0  0  0  0
 11 12  1  0  0  0  0
 12  2  1  0  0  0  0
 12 13  2  0  0  0  0
 13 14  1  0  0  0  0
 14 18  1  0  0  0  0
 15 14  2  0  0  0  0
 16 10  1  0  0  0  0
 17 11  1  0  0  0  0
 20 19  1  0  0  0  0
 21 22  1  0  0  0  0
 22 23  1  0  0  0  0
 23 24  1  0  0  0  0
 23 25  2  0  0  0  0
 26 25  1  0  0  0  0
 27 26  2  0  0  0  0
 28 27  1  0  0  0  0
 29 28  2  0  0  0  0
 30 31  2  0  0  0  0
 30 29  1  0  0  0  0
 31 32  1  0  0  0  0
 32 22  2  0  0  0  0
 32 27  1  0  0  0  0
M  END
>  <minimizedAffinity>
-6.25670338

$$$$

 OpenBabel03242513283D

 32 35  0  0  0  0  0  0  0  0999 V2000
   36.5770   30.0500   39.5610 C   0  0  0  0  0  0  0  0  0  0  0  0
   36.6810   30.5320   38.2710 C   0  0  0  0  0  0  0  0  0  0  0  0
   37.1760   31.7890   38.1160 C   0  0  0  0  0  0  0  0  0  0  0  0
   37.5640   32.5590   39.2010 C   0  0  0  0  0  0  0  0  0  0  0  0
   37.4560   32.0730   40.4740 C   0  0  0  0  0  0  0  0  0  0  0  0
   36.9550   30.7960   40.6760 C   0  0  0  0  0  0  0  0  0  0  0  0
   37.2580   32.1670   37.1010 H   0  0  0  0  0  0  0  0  0  0  0  0
   37.9480   33.5460   39.0110 H   0  0  0  0  0  0  0  0  0  0  0  0
   37.7580   32.6740   41.3150 H   0  0  0  0  0  0  0  0  0  0  0  0
   36.6940   28.4370   35.1390 C   0  0  0  0  0  0  0  0  0  0  0  0
   37.1270   29.2670   36.1710 C   0  0  0  0  0  0  0  0  0  0  0  0
   36.2590   29.6720   37.1880 C   0  0  0  0  0  0  0  0  0  0  0  0
   34.9990   29.2080   37.0920 N   0  0  0  0  0  0  0  0  0  0  0  0
   34.5680   28.4060   36.1010 C   0  0  0  0  0  0  0  0  0  0  0  0
   35.4110   28.0140   35.1160 N   0  0  0  0  0  0  0  0  0  0  0  0
   37.3810   28.1320   34.3570 H   0  0  0  0  0  0  0  0  0  0  0  0
   38.1570   29.6140   36.1980 H   0  0  0  0  0  0  0  0  0  0  0  0
   33.5290   28.1250   36.1740 H   0  0  0  0  0  0  0  0  0  0  0  0
   36.0710   28.7560   39.7760 O   0  0  0  0  0  0  0  0  0  0  0  0
   35.1800   28.4530   39.4460 H   0  0  0  0  0  0  0  0  0  0  0  0
   36.8200   30.2360   41.9270 O   0  0  0  0  0  0  0  0  0  0  0  0
   37.3500   29.0600   42.3720 C   0  0  0  0  0  0  0  0  0  0  0  0
   36.7610   27.8600   42.6620 C   0  0  0  0  0  0  0  0  0  0  0  0
   35.7010   27.8420   42.5160 H   0  0  0  0  0  0  0  0  0  0  0  0
   37.4440   26.7630   43.1030 C   0  0  0  0  0  3  0  0  0  0  0  0
   38.8170   26.8200   43.2870 C   0  0  0  0  0  3  0  0  0  0  0  0
   39.4460   28.0330   42.9990 C   0  0  0  0  0  0  0  0  0  0  0  0
   40.8090   28.0090   43.2070 C   0  0  0  0  0  3  0  0  0  0  0  0
   41.5170   29.1590   42.9520 C   0  0  0  0  0  3  0  0  0  0  0  0
   40.8530   30.2800   42.5040 C   0  0  0  0  0  3  0  0  0  0  0  0
   39.4920   30.2530   42.3140 C   0  0  0  0  0  3  0  0  0  0  0  0
   38.7370   29.1320   42.5530 C   0  0  0  0  0  0  0  0  0  0  0  0
  1 19  1  0  0  0  0
  1  6  1  0  0  0  0
  2  1  2  0  0  0  0
  3  2  1  0  0  0  0
  3  4  2  0  0  0  0
  4  5  1  0  0  0  0
  5  6  2  0  0  0  0
  5  9  1  0  0  0  0
  6 21  1  0  0  0  0
  7  3  1  0  0  0  0
  8  4  1  0  0  0  0
 10 11  1  0  0  0  0
 11 17  1  0  0  0  0
 11 12  2  0  0  0  0
 12  2  1  0  0  0  0
 13 12  1  0  0  0  0
 14 18  1  0  0  0  0
 14 13  2  0  0  0  0
 15 10  2  0  0  0  0
 15 14  1  0  0  0  0
 16 10  1  0  0  0  0
 20 19  1  0  0  0  0
 21 22  1  0  0  0  0
 22 32  2  0  0  0  0
 22 23  1  0  0  0  0
 23 25  2  0  0  0  0
 24 23  1  0  0  0  0
 25 26  1  0  0  0  0
 27 28  1  0  0  0  0
 27 26  2  0  0  0  0
 29 28  2  0  0  0  0
 30 29  1  0  0  0  0
 31 30  2  0  0  0  0
 31 32  1  0  0  0  0
 32 27  1  0  0  0  0
M  END
>  <minimizedAffinity>
-6.19934416

$$$$

 OpenBabel03242513283D

 32 35  0  0  0  0  0  0  0  0999 V2000
   34.3340   28.9690   37.6900 C   0  0  0  0  0  0  0  0  0  0  0  0
   35.6870   28.9060   37.9590 C   0  0  0  0  0  0  0  0  0  0  0  0
   36.5310   28.8680   36.8940 C   0  0  0  0  0  0  0  0  0  0  0  0
   36.0620   28.8940   35.5900 C   0  0  0  0  0  0  0  0  0  0  0  0
   34.7210   28.9560   35.3330 C   0  0  0  0  0  0  0  0  0  0  0  0
   33.8250   28.9950   36.3910 C   0  0  0  0  0  0  0  0  0  0  0  0
   37.5950   28.8190   37.1070 H   0  0  0  0  0  0  0  0  0  0  0  0
   36.7820   28.8620   34.7910 H   0  0  0  0  0  0  0  0  0  0  0  0
   34.3600   28.9760   34.3190 H   0  0  0  0  0  0  0  0  0  0  0  0
   36.8820   27.7160   41.3290 C   0  0  0  0  0  0  0  0  0  0  0  0
   36.4840   27.7070   39.9940 C   0  0  0  0  0  0  0  0  0  0  0  0
   36.1040   28.8840   39.3430 C   0  0  0  0  0  0  0  0  0  0  0  0
   36.1510   30.0010   40.0940 N   0  0  0  0  0  0  0  0  0  0  0  0
   36.5330   30.0230   41.3830 C   0  0  0  0  0  0  0  0  0  0  0  0
   36.9020   28.8820   42.0120 N   0  0  0  0  0  0  0  0  0  0  0  0
   37.1750   26.7940   41.8180 H   0  0  0  0  0  0  0  0  0  0  0  0
   36.4640   26.7760   39.4350 H   0  0  0  0  0  0  0  0  0  0  0  0
   36.5140   31.0010   41.8380 H   0  0  0  0  0  0  0  0  0  0  0  0
   33.4180   29.0100   38.7550 O   0  0  0  0  0  0  0  0  0  0  0  0
   33.3800   28.3190   39.4740 H   0  0  0  0  0  0  0  0  0  0  0  0
   32.4610   29.0610   36.2130 O   0  0  0  0  0  0  0  0  0  0  0  0
   31.7290   30.1360   35.8010 C   0  0  0  0  0  0  0  0  0  0  0  0
   31.8020   30.8920   34.6630 C   0  0  0  0  0  0  0  0  0  0  0  0
   32.5680   30.5880   33.9800 H   0  0  0  0  0  0  0  0  0  0  0  0
   30.9820   31.9500   34.3980 C   0  0  0  0  0  3  0  0  0  0  0  0
   30.0030   32.3230   35.3050 C   0  0  0  0  0  3  0  0  0  0  0  0
   29.9050   31.5700   36.4770 C   0  0  0  0  0  0  0  0  0  0  0  0
   28.9090   32.0030   37.3280 C   0  0  0  0  0  3  0  0  0  0  0  0
   28.7350   31.3230   38.5090 C   0  0  0  0  0  3  0  0  0  0  0  0
   29.5480   30.2500   38.8020 C   0  0  0  0  0  3  0  0  0  0  0  0
   30.5270   29.8590   37.9210 C   0  0  0  0  0  3  0  0  0  0  0  0
   30.7450   30.5010   36.7270 C   0  0  0  0  0  0  0  0  0  0  0  0
  1  2  1  0  0  0  0
  1 19  1  0  0  0  0
  2 12  1  0  0  0  0
  3  7  1  0  0  0  0
  3  2  2  0  0  0  0
  4  3  1  0  0  0  0
  5  4  2  0  0  0  0
  5  6  1  0  0  0  0
  6  1  2  0  0  0  0
  8  4  1  0  0  0  0
  9  5  1  0  0  0  0
 10 16  1  0  0  0  0
 10 15  1  0  0  0  0
 11 10  2  0  0  0  0
 12 11  1  0  0  0  0
 12 13  2  0  0  0  0
 13 14  1  0  0  0  0
 14 18  1  0  0  0  0
 14 15  2  0  0  0  0
 17 11  1  0  0  0  0
 19 20  1  0  0  0  0
 21  6  1  0  0  0  0
 22 21  1  0  0  0  0
 22 32  1  0  0  0  0
 23 22  2  0  0  0  0
 24 23  1  0  0  0  0
 25 23  1  0  0  0  0
 25 26  2  0  0  0  0
 26 27  1  0  0  0  0
 27 32  2  0  0  0  0
 27 28  1  0  0  0  0
 28 29  2  0  0  0  0
 29 30  1  0  0  0  0
 31 30  2  0  0  0  0
 32 31  1  0  0  0  0
M  END
>  <minimizedAffinity>
-6.07552767

$$$$

 OpenBabel03242513283D

 32 35  0  0  0  0  0  0  0  0999 V2000
   36.6970   29.3780   39.6530 C   0  0  0  0  0  0  0  0  0  0  0  0
   36.5680   30.2630   38.6020 C   0  0  0  0  0  0  0  0  0  0  0  0
   36.9000   31.5600   38.8370 C   0  0  0  0  0  0  0  0  0  0  0  0
   37.3510   31.9840   40.0780 C   0  0  0  0  0  0  0  0  0  0  0  0
   37.4740   31.1000   41.1130 C   0  0  0  0  0  0  0  0  0  0  0  0
   37.1460   29.7680   40.9150 C   0  0  0  0  0  0  0  0  0  0  0  0
   36.7990   32.2560   38.0090 H   0  0  0  0  0  0  0  0  0  0  0  0
   37.5970   33.0240   40.2000 H   0  0  0  0  0  0  0  0  0  0  0  0
   37.8240   31.4320   42.0760 H   0  0  0  0  0  0  0  0  0  0  0  0
   36.3860   29.2870   34.9660 C   0  0  0  0  0  0  0  0  0  0  0  0
   36.8690   29.7900   36.1730 C   0  0  0  0  0  0  0  0  0  0  0  0
   36.0940   29.7500   37.3360 C   0  0  0  0  0  0  0  0  0  0  0  0
   34.8730   29.2000   37.1980 N   0  0  0  0  0  0  0  0  0  0  0  0
   34.3960   28.7120   36.0400 C   0  0  0  0  0  0  0  0  0  0  0  0
   35.1480   28.7510   34.9140 N   0  0  0  0  0  0  0  0  0  0  0  0
   37.0010   29.3260   34.0740 H   0  0  0  0  0  0  0  0  0  0  0  0
   37.8630   30.2240   36.2270 H   0  0  0  0  0  0  0  0  0  0  0  0
   33.3980   28.3060   36.1030 H   0  0  0  0  0  0  0  0  0  0  0  0
   36.3670   28.0240   39.4630 O   0  0  0  0  0  0  0  0  0  0  0  0
   35.4760   27.7170   39.1350 H   0  0  0  0  0  0  0  0  0  0  0  0
   37.2460   28.8180   41.9070 O   0  0  0  0  0  0  0  0  0  0  0  0
   38.3780   28.2020   42.3550 C   0  0  0  0  0  0  0  0  0  0  0  0
   39.5680   28.7150   42.7940 C   0  0  0  0  0  0  0  0  0  0  0  0
   39.6190   29.7840   42.7820 H   0  0  0  0  0  0  0  0  0  0  0  0
   40.6170   27.9500   43.2160 C   0  0  0  0  0  3  0  0  0  0  0  0
   40.5220   26.5680   43.2160 C   0  0  0  0  0  3  0  0  0  0  0  0
   39.3180   26.0150   42.7720 C   0  0  0  0  0  0  0  0  0  0  0  0
   39.3020   24.6360   42.8010 C   0  0  0  0  0  3  0  0  0  0  0  0
   38.1590   23.9990   42.3820 C   0  0  0  0  0  3  0  0  0  0  0  0
   37.0840   24.7470   41.9530 C   0  0  0  0  0  3  0  0  0  0  0  0
   37.1510   26.1190   41.9420 C   0  0  0  0  0  3  0  0  0  0  0  0
   38.2670   26.8060   42.3490 C   0  0  0  0  0  0  0  0  0  0  0  0
  1  6  1  0  0  0  0
  2  3  1  0  0  0  0
  2  1  2  0  0  0  0
  3  4  2  0  0  0  0
  4  8  1  0  0  0  0
  4  5  1  0  0  0  0
  5  9  1  0  0  0  0
  6  5  2  0  0  0  0
  6 21  1  0  0  0  0
  7  3  1  0  0  0  0
 10 11  1  0  0  0  0
 11 17  1  0  0  0  0
 11 12  2  0  0  0  0
 12  2  1  0  0  0  0
 13 12  1  0  0  0  0
 14 18  1  0  0  0  0
 14 13  2  0  0  0  0
 15 10  2  0  0  0  0
 15 14  1  0  0  0  0
 16 10  1  0  0  0  0
 19  1  1  0  0  0  0
 20 19  1  0  0  0  0
 21 22  1  0  0  0  0
 22 23  1  0  0  0  0
 23 25  2  0  0  0  0
 24 23  1  0  0  0  0
 25 26  1  0  0  0  0
 27 28  1  0  0  0  0
 27 26  2  0  0  0  0
 29 28  2  0  0  0  0
 30 29  1  0  0  0  0
 31 30  2  0  0  0  0
 31 32  1  0  0  0  0
 32 22  2  0  0  0  0
 32 27  1  0  0  0  0
M  END
>  <minimizedAffinity>
-6.04515409

$$$$

 OpenBabel03242513283D

 32 35  0  0  0  0  0  0  0  0999 V2000
   38.1690   27.5040   41.2410 C   0  0  0  0  0  0  0  0  0  0  0  0
   37.4640   26.4360   41.7600 C   0  0  0  0  0  0  0  0  0  0  0  0
   36.8890   26.6050   42.9800 C   0  0  0  0  0  0  0  0  0  0  0  0
   37.0000   27.7970   43.6800 C   0  0  0  0  0  0  0  0  0  0  0  0
   37.7000   28.8480   43.1570 C   0  0  0  0  0  0  0  0  0  0  0  0
   38.3030   28.7170   41.9150 C   0  0  0  0  0  0  0  0  0  0  0  0
   36.3340   25.7650   43.3870 H   0  0  0  0  0  0  0  0  0  0  0  0
   36.5210   27.8680   44.6400 H   0  0  0  0  0  0  0  0  0  0  0  0
   37.7850   29.7730   43.7030 H   0  0  0  0  0  0  0  0  0  0  0  0
   37.7680   22.8420   40.6670 C   0  0  0  0  0  0  0  0  0  0  0  0
   37.8540   23.9940   41.4460 C   0  0  0  0  0  0  0  0  0  0  0  0
   37.3890   25.2240   40.9740 C   0  0  0  0  0  0  0  0  0  0  0  0
   36.8640   25.2070   39.7340 N   0  0  0  0  0  0  0  0  0  0  0  0
   36.7760   24.1030   38.9720 C   0  0  0  0  0  0  0  0  0  0  0  0
   37.2260   22.9110   39.4310 N   0  0  0  0  0  0  0  0  0  0  0  0
   38.1340   21.8960   41.0490 H   0  0  0  0  0  0  0  0  0  0  0  0
   38.2880   23.9510   42.4410 H   0  0  0  0  0  0  0  0  0  0  0  0
   36.3280   24.2630   38.0040 H   0  0  0  0  0  0  0  0  0  0  0  0
   38.7840   27.3800   39.9820 O   0  0  0  0  0  0  0  0  0  0  0  0
   39.4400   26.6630   39.7600 H   0  0  0  0  0  0  0  0  0  0  0  0
   39.0220   29.7300   41.3230 O   0  0  0  0  0  0  0  0  0  0  0  0
   38.5360   30.8730   40.7570 C   0  0  0  0  0  0  0  0  0  0  0  0
   37.2920   31.1810   40.2780 C   0  0  0  0  0  0  0  0  0  0  0  0
   36.5790   30.3870   40.3580 H   0  0  0  0  0  0  0  0  0  0  0  0
   36.9630   32.3890   39.7350 C   0  0  0  0  0  3  0  0  0  0  0  0
   37.9100   33.3960   39.6390 C   0  0  0  0  0  3  0  0  0  0  0  0
   39.1900   33.1110   40.1210 C   0  0  0  0  0  0  0  0  0  0  0  0
   40.0740   34.1610   39.9900 C   0  0  0  0  0  3  0  0  0  0  0  0
   41.3610   33.9760   40.4360 C   0  0  0  0  0  3  0  0  0  0  0  0
   41.7200   32.7660   40.9900 C   0  0  0  0  0  3  0  0  0  0  0  0
   40.8010   31.7500   41.0960 C   0  0  0  0  0  3  0  0  0  0  0  0
   39.5040   31.8810   40.6680 C   0  0  0  0  0  0  0  0  0  0  0  0
  1  2  2  0  0  0  0
  1  6  1  0  0  0  0
  2  3  1  0  0  0  0
  3  7  1  0  0  0  0
  3  4  2  0  0  0  0
  4  8  1  0  0  0  0
  5  4  1  0  0  0  0
  5  9  1  0  0  0  0
  6  5  2  0  0  0  0
 10 16  1  0  0  0  0
 10 11  1  0  0  0  0
 11 17  1  0  0  0  0
 12 11  2  0  0  0  0
 12  2  1  0  0  0  0
 13 12  1  0  0  0  0
 14 15  1  0  0  0  0
 14 13  2  0  0  0  0
 15 10  2  0  0  0  0
 18 14  1  0  0  0  0
 19  1  1  0  0  0  0
 20 19  1  0  0  0  0
 21  6  1  0  0  0  0
 22 21  1  0  0  0  0
 23 24  1  0  0  0  0
 23 22  2  0  0  0  0
 25 23  1  0  0  0  0
 26 25  2  0  0  0  0
 26 27  1  0  0  0  0
 27 32  1  0  0  0  0
 28 27  2  0  0  0  0
 28 29  1  0  0  0  0
 29 30  2  0  0  0  0
 30 31  1  0  0  0  0
 32 22  1  0  0  0  0
 32 31  2  0  0  0  0
M  END
>  <minimizedAffinity>
-6.02918005

$$$$

 OpenBabel03242513283D

 32 35  0  0  0  0  0  0  0  0999 V2000
   39.3600   31.1180   40.3430 C   0  0  0  0  0  0  0  0  0  0  0  0
   39.2250   32.0910   39.3720 C   0  0  0  0  0  0  0  0  0  0  0  0
   37.9820   32.6040   39.1750 C   0  0  0  0  0  0  0  0  0  0  0  0
   36.8900   32.1740   39.9140 C   0  0  0  0  0  0  0  0  0  0  0  0
   37.0330   31.2100   40.8720 C   0  0  0  0  0  0  0  0  0  0  0  0
   38.2850   30.6600   41.1050 C   0  0  0  0  0  0  0  0  0  0  0  0
   37.8770   33.3700   38.4120 H   0  0  0  0  0  0  0  0  0  0  0  0
   35.9320   32.6200   39.7100 H   0  0  0  0  0  0  0  0  0  0  0  0
   36.1840   30.8780   41.4440 H   0  0  0  0  0  0  0  0  0  0  0  0
   42.1130   34.1210   38.0530 C   0  0  0  0  0  0  0  0  0  0  0  0
   40.9720   33.7630   38.7690 C   0  0  0  0  0  0  0  0  0  0  0  0
   40.4070   32.4910   38.6420 C   0  0  0  0  0  0  0  0  0  0  0  0
   41.0390   31.6590   37.7930 N   0  0  0  0  0  0  0  0  0  0  0  0
   42.1400   31.9930   37.0970 C   0  0  0  0  0  0  0  0  0  0  0  0
   42.6870   33.2260   37.2200 N   0  0  0  0  0  0  0  0  0  0  0  0
   42.5380   35.1130   38.1630 H   0  0  0  0  0  0  0  0  0  0  0  0
   40.5010   34.4750   39.4410 H   0  0  0  0  0  0  0  0  0  0  0  0
   42.5210   31.2090   36.4610 H   0  0  0  0  0  0  0  0  0  0  0  0
   40.6250   30.5550   40.5870 O   0  0  0  0  0  0  0  0  0  0  0  0
   41.1770   30.1180   39.8800 H   0  0  0  0  0  0  0  0  0  0  0  0
   38.5090   29.6880   42.0540 O   0  0  0  0  0  0  0  0  0  0  0  0
   38.1810   28.3660   41.9810 C   0  0  0  0  0  0  0  0  0  0  0  0
   37.0850   27.7380   41.4550 C   0  0  0  0  0  0  0  0  0  0  0  0
   36.3600   28.4000   41.0300 H   0  0  0  0  0  0  0  0  0  0  0  0
   36.9060   26.3850   41.4620 C   0  0  0  0  0  3  0  0  0  0  0  0
   37.8610   25.5540   42.0260 C   0  0  0  0  0  3  0  0  0  0  0  0
   38.9920   26.1670   42.5710 C   0  0  0  0  0  0  0  0  0  0  0  0
   39.8940   25.2750   43.1120 C   0  0  0  0  0  3  0  0  0  0  0  0
   41.0400   25.7840   43.6740 C   0  0  0  0  0  3  0  0  0  0  0  0
   41.2470   27.1460   43.6800 C   0  0  0  0  0  3  0  0  0  0  0  0
   40.3160   27.9930   43.1280 C   0  0  0  0  0  3  0  0  0  0  0  0
   39.1550   27.5390   42.5540 C   0  0  0  0  0  0  0  0  0  0  0  0
  1 19  1  0  0  0  0
  1  6  1  0  0  0  0
  2  1  2  0  0  0  0
  3  2  1  0  0  0  0
  3  4  2  0  0  0  0
  4  5  1  0  0  0  0
  5  6  2  0  0  0  0
  5  9  1  0  0  0  0
  6 21  1  0  0  0  0
  7  3  1  0  0  0  0
  8  4  1  0  0  0  0
 10 16  1  0  0  0  0
 10 11  1  0  0  0  0
 11 17  1  0  0  0  0
 12 11  2  0  0  0  0
 12  2  1  0  0  0  0
 13 12  1  0  0  0  0
 14 15  1  0  0  0  0
 14 13  2  0  0  0  0
 15 10  2  0  0  0  0
 18 14  1  0  0  0  0
 20 19  1  0  0  0  0
 22 21  1  0  0  0  0
 22 32  1  0  0  0  0
 23 25  1  0  0  0  0
 23 22  2  0  0  0  0
 24 23  1  0  0  0  0
 25 26  2  0  0  0  0
 26 27  1  0  0  0  0
 27 28  1  0  0  0  0
 28 29  2  0  0  0  0
 29 30  1  0  0  0  0
 31 30  2  0  0  0  0
 32 27  2  0  0  0  0
 32 31  1  0  0  0  0
M  END
>  <minimizedAffinity>
-5.94236183

$$$$

 OpenBabel03242513283D

 32 35  0  0  0  0  0  0  0  0999 V2000
   38.9800   30.5920   40.5760 C   0  0  0  0  0  0  0  0  0  0  0  0
   38.8100   31.2000   39.3470 C   0  0  0  0  0  0  0  0  0  0  0  0
   37.6960   30.8720   38.6400 C   0  0  0  0  0  0  0  0  0  0  0  0
   36.7650   29.9670   39.1250 C   0  0  0  0  0  0  0  0  0  0  0  0
   36.9420   29.3700   40.3420 C   0  0  0  0  0  0  0  0  0  0  0  0
   38.0650   29.6760   41.0950 C   0  0  0  0  0  0  0  0  0  0  0  0
   37.5630   31.3510   37.6740 H   0  0  0  0  0  0  0  0  0  0  0  0
   35.9040   29.7500   38.5170 H   0  0  0  0  0  0  0  0  0  0  0  0
   36.2170   28.6670   40.7160 H   0  0  0  0  0  0  0  0  0  0  0  0
   41.5510   32.8460   37.3510 C   0  0  0  0  0  0  0  0  0  0  0  0
   40.5830   31.9270   37.7530 C   0  0  0  0  0  0  0  0  0  0  0  0
   39.8210   32.1350   38.9060 C   0  0  0  0  0  0  0  0  0  0  0  0
   40.0920   33.2670   39.5820 N   0  0  0  0  0  0  0  0  0  0  0  0
   41.0230   34.1610   39.2050 C   0  0  0  0  0  0  0  0  0  0  0  0
   41.7610   33.9590   38.0870 N   0  0  0  0  0  0  0  0  0  0  0  0
   42.1330   32.6680   36.4540 H   0  0  0  0  0  0  0  0  0  0  0  0
   40.4060   31.0280   37.1700 H   0  0  0  0  0  0  0  0  0  0  0  0
   41.1140   35.0150   39.8580 H   0  0  0  0  0  0  0  0  0  0  0  0
   40.1150   30.8970   41.3470 O   0  0  0  0  0  0  0  0  0  0  0  0
   41.0490   30.7920   41.0140 H   0  0  0  0  0  0  0  0  0  0  0  0
   38.3120   29.1190   42.3300 O   0  0  0  0  0  0  0  0  0  0  0  0
   39.2310   28.1590   42.6380 C   0  0  0  0  0  0  0  0  0  0  0  0
   40.5360   28.2570   43.0350 C   0  0  0  0  0  0  0  0  0  0  0  0
   40.8990   29.2610   43.1160 H   0  0  0  0  0  0  0  0  0  0  0  0
   41.3320   27.1820   43.3100 C   0  0  0  0  0  3  0  0  0  0  0  0
   40.8340   25.8940   43.1920 C   0  0  0  0  0  3  0  0  0  0  0  0
   39.5040   25.7620   42.7870 C   0  0  0  0  0  0  0  0  0  0  0  0
   39.0840   24.4510   42.6930 C   0  0  0  0  0  3  0  0  0  0  0  0
   37.7880   24.2200   42.3020 C   0  0  0  0  0  3  0  0  0  0  0  0
   36.9630   25.2860   42.0190 C   0  0  0  0  0  3  0  0  0  0  0  0
   37.4300   26.5740   42.1270 C   0  0  0  0  0  3  0  0  0  0  0  0
   38.7150   26.8630   42.5140 C   0  0  0  0  0  0  0  0  0  0  0  0
  1  6  1  0  0  0  0
  1 19  1  0  0  0  0
  2  1  2  0  0  0  0
  3  4  2  0  0  0  0
  3  2  1  0  0  0  0
  4  5  1  0  0  0  0
  5  9  1  0  0  0  0
  5  6  2  0  0  0  0
  6 21  1  0  0  0  0
  7  3  1  0  0  0  0
  8  4  1  0  0  0  0
 10 11  2  0  0  0  0
 10 15  1  0  0  0  0
 11 12  1  0  0  0  0
 12  2  1  0  0  0  0
 12 13  2  0  0  0  0
 14 13  1  0  0  0  0
 14 18  1  0  0  0  0
 15 14  2  0  0  0  0
 16 10  1  0  0  0  0
 17 11  1  0  0  0  0
 20 19  1  0  0  0  0
 21 22  1  0  0  0  0
 22 23  1  0  0  0  0
 23 24  1  0  0  0  0
 23 25  2  0  0  0  0
 26 25  1  0  0  0  0
 27 26  2  0  0  0  0
 28 27  1  0  0  0  0
 29 28  2  0  0  0  0
 30 31  2  0  0  0  0
 30 29  1  0  0  0  0
 31 32  1  0  0  0  0
 32 22  2  0  0  0  0
 32 27  1  0  0  0  0
M  END
>  <minimizedAffinity>
-5.90236998

$$$$
