
 OpenBabel03252503293D

 27 29  0  0  0  0  0  0  0  0999 V2000
   36.7060   28.9300   36.8530 C   0  0  0  0  0  0  0  0  0  0  0  0
   36.8960   29.9270   35.8820 C   0  0  0  0  0  0  0  0  0  0  0  0
   35.9960   29.9350   34.7960 C   0  0  0  0  0  0  0  0  0  0  0  0
   35.0280   29.0010   34.7650 N   0  0  0  0  0  0  0  0  0  0  0  0
   34.8810   28.0590   35.7210 C   0  0  0  0  0  0  0  0  0  0  0  0
   35.7300   28.0330   36.7640 N   0  0  0  0  0  0  0  0  0  0  0  0
   37.2550   29.8620   38.9470 C   0  0  0  0  0  0  0  0  0  0  0  0
   36.3170   30.6790   38.6720 O   0  0  0  0  0  0  0  0  0  0  0  0
   37.5720   28.8530   37.9810 N   0  0  0  0  0  0  0  0  0  0  0  0
   37.7290   30.6020   36.0650 H   0  0  0  0  0  0  0  0  0  0  0  0
   34.0630   27.3350   35.6130 H   0  0  0  0  0  0  0  0  0  0  0  0
   38.3550   28.2010   38.1810 H   0  0  0  0  0  0  0  0  0  0  0  0
   37.9290   30.0140   40.2120 C   0  0  0  0  0  0  0  0  0  0  0  0
   38.9530   30.9490   40.2960 C   0  0  0  0  0  0  0  0  0  0  0  0
   39.2320   31.5510   39.4180 H   0  0  0  0  0  0  0  0  0  0  0  0
   39.6400   31.1430   41.4770 C   0  0  0  0  0  3  0  0  0  0  0  0
   39.3300   30.4090   42.6240 C   0  0  0  0  0  3  0  0  0  0  0  0
   38.3140   29.4730   42.5600 C   0  0  0  0  0  0  0  0  0  0  0  0
   37.9680   28.7130   43.6800 C   0  0  0  0  0  3  0  0  0  0  0  0
   36.9500   27.7860   43.5860 C   0  0  0  0  0  3  0  0  0  0  0  0
   36.2620   27.5970   42.3930 C   0  0  0  0  0  3  0  0  0  0  0  0
   36.6350   28.3690   41.3070 C   0  0  0  0  0  3  0  0  0  0  0  0
   37.6480   29.3050   41.3620 C   0  0  0  0  0  0  0  0  0  0  0  0
   36.2290   30.9880   33.8090 C   0  0  0  0  0  0  0  0  0  0  0  0
   36.9490   32.0180   34.4150 F   0  0  0  0  0  0  0  0  0  0  0  0
   34.9980   31.5420   33.5010 F   0  0  0  0  0  0  0  0  0  0  0  0
   36.9180   30.5790   32.7050 F   0  0  0  0  0  0  0  0  0  0  0  0
  1  9  1  0  0  0  0
  2 10  1  0  0  0  0
  2  1  2  0  0  0  0
  3  2  1  0  0  0  0
  4  3  2  0  0  0  0
  4  5  1  0  0  0  0
  5  6  2  0  0  0  0
  6  1  1  0  0  0  0
  7 13  1  0  0  0  0
  8  7  2  0  0  0  0
  9 12  1  0  0  0  0
  9  7  1  0  0  0  0
 11  5  1  0  0  0  0
 13 14  2  0  0  0  0
 13 23  1  0  0  0  0
 14 16  1  0  0  0  0
 15 14  1  0  0  0  0
 16 17  2  0  0  0  0
 18 17  1  0  0  0  0
 18 19  1  0  0  0  0
 20 19  2  0  0  0  0
 21 20  1  0  0  0  0
 22 23  1  0  0  0  0
 22 21  2  0  0  0  0
 23 18  2  0  0  0  0
 24 25  1  0  0  0  0
 24  3  1  0  0  0  0
 26 24  1  0  0  0  0
 27 24  1  0  0  0  0
M  END
>  <minimizedAffinity>
-6.06276894

$$$$

 OpenBabel03252503293D

 27 29  0  0  0  0  0  0  0  0999 V2000
   38.1650   29.6350   38.6290 C   0  0  0  0  0  0  0  0  0  0  0  0
   38.2560   30.7790   39.4390 C   0  0  0  0  0  0  0  0  0  0  0  0
   37.8460   31.9990   38.8620 C   0  0  0  0  0  0  0  0  0  0  0  0
   37.4010   31.9840   37.5930 N   0  0  0  0  0  0  0  0  0  0  0  0
   37.3290   30.8600   36.8490 C   0  0  0  0  0  0  0  0  0  0  0  0
   37.7170   29.6860   37.3800 N   0  0  0  0  0  0  0  0  0  0  0  0
   37.5640   27.8270   40.0180 C   0  0  0  0  0  0  0  0  0  0  0  0
   36.5300   28.5330   40.2520 O   0  0  0  0  0  0  0  0  0  0  0  0
   38.5590   28.3640   39.1370 N   0  0  0  0  0  0  0  0  0  0  0  0
   38.6390   30.6100   40.4430 H   0  0  0  0  0  0  0  0  0  0  0  0
   36.9540   30.9420   35.8210 H   0  0  0  0  0  0  0  0  0  0  0  0
   39.4200   27.8110   38.9640 H   0  0  0  0  0  0  0  0  0  0  0  0
   37.6570   26.5380   40.6570 C   0  0  0  0  0  0  0  0  0  0  0  0
   36.7870   25.5400   40.2360 C   0  0  0  0  0  0  0  0  0  0  0  0
   36.0540   25.7370   39.4410 H   0  0  0  0  0  0  0  0  0  0  0  0
   36.8230   24.2840   40.8070 C   0  0  0  0  0  3  0  0  0  0  0  0
   37.7320   23.9750   41.8220 C   0  0  0  0  0  3  0  0  0  0  0  0
   38.6060   24.9560   42.2530 C   0  0  0  0  0  0  0  0  0  0  0  0
   39.5330   24.6960   43.2650 C   0  0  0  0  0  3  0  0  0  0  0  0
   40.3920   25.6940   43.6750 C   0  0  0  0  0  3  0  0  0  0  0  0
   40.3510   26.9570   43.0950 C   0  0  0  0  0  3  0  0  0  0  0  0
   39.4180   27.1740   42.0960 C   0  0  0  0  0  3  0  0  0  0  0  0
   38.5430   26.2010   41.6600 C   0  0  0  0  0  0  0  0  0  0  0  0
   37.9570   33.1650   39.7380 C   0  0  0  0  0  0  0  0  0  0  0  0
   39.2040   33.7580   39.5370 F   0  0  0  0  0  0  0  0  0  0  0  0
   37.9850   32.6990   41.0410 F   0  0  0  0  0  0  0  0  0  0  0  0
   36.9970   34.1130   39.5350 F   0  0  0  0  0  0  0  0  0  0  0  0
  1  9  1  0  0  0  0
  1  2  1  0  0  0  0
  2 10  1  0  0  0  0
  3  2  2  0  0  0  0
  3 24  1  0  0  0  0
  4  3  1  0  0  0  0
  5  6  1  0  0  0  0
  5  4  2  0  0  0  0
  6  1  2  0  0  0  0
  7  8  2  0  0  0  0
  7 13  1  0  0  0  0
  9  7  1  0  0  0  0
 11  5  1  0  0  0  0
 12  9  1  0  0  0  0
 13 23  1  0  0  0  0
 14 13  2  0  0  0  0
 14 16  1  0  0  0  0
 15 14  1  0  0  0  0
 16 17  2  0  0  0  0
 17 18  1  0  0  0  0
 18 19  1  0  0  0  0
 19 20  2  0  0  0  0
 21 20  1  0  0  0  0
 22 21  2  0  0  0  0
 23 22  1  0  0  0  0
 23 18  2  0  0  0  0
 24 26  1  0  0  0  0
 25 24  1  0  0  0  0
 27 24  1  0  0  0  0
M  END
>  <minimizedAffinity>
-5.98511267

$$$$

 OpenBabel03252503293D

 27 29  0  0  0  0  0  0  0  0999 V2000
   36.7970   28.3450   36.1040 C   0  0  0  0  0  0  0  0  0  0  0  0
   36.8080   29.6460   35.5720 C   0  0  0  0  0  0  0  0  0  0  0  0
   36.2640   29.8080   34.2810 C   0  0  0  0  0  0  0  0  0  0  0  0
   35.7770   28.7210   33.6550 N   0  0  0  0  0  0  0  0  0  0  0  0
   35.7860   27.4870   34.2030 C   0  0  0  0  0  0  0  0  0  0  0  0
   36.3020   27.3110   35.4330 N   0  0  0  0  0  0  0  0  0  0  0  0
   36.4200   28.5290   38.4230 C   0  0  0  0  0  0  0  0  0  0  0  0
   35.3320   29.0840   38.0610 O   0  0  0  0  0  0  0  0  0  0  0  0
   37.3270   28.0970   37.4020 N   0  0  0  0  0  0  0  0  0  0  0  0
   37.2410   30.4080   36.2160 H   0  0  0  0  0  0  0  0  0  0  0  0
   35.3680   26.6570   33.6190 H   0  0  0  0  0  0  0  0  0  0  0  0
   38.2300   27.6710   37.6870 H   0  0  0  0  0  0  0  0  0  0  0  0
   36.6570   28.3740   39.8370 C   0  0  0  0  0  0  0  0  0  0  0  0
   36.8110   29.5260   40.6000 C   0  0  0  0  0  0  0  0  0  0  0  0
   36.7510   30.5180   40.1300 H   0  0  0  0  0  0  0  0  0  0  0  0
   37.0420   29.4490   41.9580 C   0  0  0  0  0  3  0  0  0  0  0  0
   37.1290   28.2150   42.6090 C   0  0  0  0  0  3  0  0  0  0  0  0
   36.9780   27.0590   41.8670 C   0  0  0  0  0  0  0  0  0  0  0  0
   37.0580   25.8030   42.4720 C   0  0  0  0  0  3  0  0  0  0  0  0
   36.9040   24.6660   41.7050 C   0  0  0  0  0  3  0  0  0  0  0  0
   36.6700   24.7520   40.3380 C   0  0  0  0  0  3  0  0  0  0  0  0
   36.5990   26.0140   39.7760 C   0  0  0  0  0  3  0  0  0  0  0  0
   36.7480   27.1740   40.5100 C   0  0  0  0  0  0  0  0  0  0  0  0
   36.2950   31.1760   33.7650 C   0  0  0  0  0  0  0  0  0  0  0  0
   37.1100   31.2080   32.6330 F   0  0  0  0  0  0  0  0  0  0  0  0
   36.9500   31.9540   34.7030 F   0  0  0  0  0  0  0  0  0  0  0  0
   35.0710   31.6740   33.4230 F   0  0  0  0  0  0  0  0  0  0  0  0
  1  9  1  0  0  0  0
  2  1  1  0  0  0  0
  2 10  1  0  0  0  0
  3  2  2  0  0  0  0
  4  5  2  0  0  0  0
  4  3  1  0  0  0  0
  5  6  1  0  0  0  0
  6  1  2  0  0  0  0
  7 13  1  0  0  0  0
  8  7  2  0  0  0  0
  9 12  1  0  0  0  0
  9  7  1  0  0  0  0
 11  5  1  0  0  0  0
 13 23  2  0  0  0  0
 13 14  1  0  0  0  0
 14 16  2  0  0  0  0
 15 14  1  0  0  0  0
 16 17  1  0  0  0  0
 18 19  1  0  0  0  0
 18 17  2  0  0  0  0
 20 19  2  0  0  0  0
 21 20  1  0  0  0  0
 22 21  2  0  0  0  0
 22 23  1  0  0  0  0
 23 18  1  0  0  0  0
 24  3  1  0  0  0  0
 24 26  1  0  0  0  0
 25 24  1  0  0  0  0
 27 24  1  0  0  0  0
M  END
>  <minimizedAffinity>
-5.94522858

$$$$

 OpenBabel03252503293D

 27 29  0  0  0  0  0  0  0  0999 V2000
   38.2150   29.7690   41.7780 C   0  0  0  0  0  0  0  0  0  0  0  0
   37.8460   30.7130   40.8050 C   0  0  0  0  0  0  0  0  0  0  0  0
   38.5860   31.9140   40.7730 C   0  0  0  0  0  0  0  0  0  0  0  0
   39.5820   32.0710   41.6640 N   0  0  0  0  0  0  0  0  0  0  0  0
   39.9040   31.1360   42.5840 C   0  0  0  0  0  0  0  0  0  0  0  0
   39.2090   29.9850   42.6320 N   0  0  0  0  0  0  0  0  0  0  0  0
   37.9180   27.6280   40.8390 C   0  0  0  0  0  0  0  0  0  0  0  0
   38.7700   28.0370   39.9860 O   0  0  0  0  0  0  0  0  0  0  0  0
   37.5170   28.5320   41.8760 N   0  0  0  0  0  0  0  0  0  0  0  0
   37.0160   30.4230   40.1650 H   0  0  0  0  0  0  0  0  0  0  0  0
   40.7310   31.3500   43.2730 H   0  0  0  0  0  0  0  0  0  0  0  0
   36.8010   28.2190   42.5590 H   0  0  0  0  0  0  0  0  0  0  0  0
   37.4190   26.2820   40.6990 C   0  0  0  0  0  0  0  0  0  0  0  0
   37.7960   25.3460   41.6540 C   0  0  0  0  0  0  0  0  0  0  0  0
   38.4540   25.6330   42.4870 H   0  0  0  0  0  0  0  0  0  0  0  0
   37.3540   24.0410   41.5780 C   0  0  0  0  0  3  0  0  0  0  0  0
   36.5160   23.6190   40.5430 C   0  0  0  0  0  3  0  0  0  0  0  0
   36.1310   24.5360   39.5830 C   0  0  0  0  0  0  0  0  0  0  0  0
   35.2950   24.1620   38.5280 C   0  0  0  0  0  3  0  0  0  0  0  0
   34.9270   25.1000   37.5850 C   0  0  0  0  0  3  0  0  0  0  0  0
   35.3750   26.4130   37.6690 C   0  0  0  0  0  3  0  0  0  0  0  0
   36.2020   26.7440   38.7290 C   0  0  0  0  0  3  0  0  0  0  0  0
   36.5910   25.8340   39.6900 C   0  0  0  0  0  0  0  0  0  0  0  0
   38.1710   32.8680   39.7460 C   0  0  0  0  0  0  0  0  0  0  0  0
   39.2240   33.0460   38.8480 F   0  0  0  0  0  0  0  0  0  0  0  0
   38.0150   34.0960   40.3660 F   0  0  0  0  0  0  0  0  0  0  0  0
   37.0680   32.4870   39.0390 F   0  0  0  0  0  0  0  0  0  0  0  0
  1  9  1  0  0  0  0
  1  6  1  0  0  0  0
  2  1  2  0  0  0  0
  3  2  1  0  0  0  0
  3  4  2  0  0  0  0
  4  5  1  0  0  0  0
  5  6  2  0  0  0  0
  5 11  1  0  0  0  0
  7  9  1  0  0  0  0
  8  7  2  0  0  0  0
  9 12  1  0  0  0  0
 10  2  1  0  0  0  0
 13  7  1  0  0  0  0
 13 14  1  0  0  0  0
 14 15  1  0  0  0  0
 16 14  2  0  0  0  0
 17 16  1  0  0  0  0
 18 23  1  0  0  0  0
 18 17  2  0  0  0  0
 19 18  1  0  0  0  0
 20 21  1  0  0  0  0
 20 19  2  0  0  0  0
 21 22  2  0  0  0  0
 22 23  1  0  0  0  0
 23 13  2  0  0  0  0
 24 26  1  0  0  0  0
 24  3  1  0  0  0  0
 25 24  1  0  0  0  0
 27 24  1  0  0  0  0
M  END
>  <minimizedAffinity>
-5.75799513

$$$$

 OpenBabel03252503293D

 27 29  0  0  0  0  0  0  0  0999 V2000
   40.3920   32.4040   38.5550 C   0  0  0  0  0  0  0  0  0  0  0  0
   41.3830   31.6920   37.8590 C   0  0  0  0  0  0  0  0  0  0  0  0
   42.6500   32.3030   37.7580 C   0  0  0  0  0  0  0  0  0  0  0  0
   42.8220   33.5090   38.3290 N   0  0  0  0  0  0  0  0  0  0  0  0
   41.8400   34.1590   38.9910 C   0  0  0  0  0  0  0  0  0  0  0  0
   40.6240   33.5940   39.0960 N   0  0  0  0  0  0  0  0  0  0  0  0
   39.0630   30.8310   39.7040 C   0  0  0  0  0  0  0  0  0  0  0  0
   40.1600   30.5310   40.2760 O   0  0  0  0  0  0  0  0  0  0  0  0
   39.0860   31.8560   38.7020 N   0  0  0  0  0  0  0  0  0  0  0  0
   41.0710   30.7290   37.4600 H   0  0  0  0  0  0  0  0  0  0  0  0
   42.0700   35.1410   39.4240 H   0  0  0  0  0  0  0  0  0  0  0  0
   38.2030   32.0870   38.2080 H   0  0  0  0  0  0  0  0  0  0  0  0
   37.8770   30.1180   40.1070 C   0  0  0  0  0  0  0  0  0  0  0  0
   36.7420   30.2440   39.3160 C   0  0  0  0  0  0  0  0  0  0  0  0
   36.7590   30.8700   38.4120 H   0  0  0  0  0  0  0  0  0  0  0  0
   35.5730   29.5890   39.6460 C   0  0  0  0  0  3  0  0  0  0  0  0
   35.4920   28.7800   40.7820 C   0  0  0  0  0  3  0  0  0  0  0  0
   36.6110   28.6430   41.5820 C   0  0  0  0  0  0  0  0  0  0  0  0
   36.5800   27.8470   42.7290 C   0  0  0  0  0  3  0  0  0  0  0  0
   37.7120   27.7290   43.5090 C   0  0  0  0  0  3  0  0  0  0  0  0
   38.8860   28.3910   43.1690 C   0  0  0  0  0  3  0  0  0  0  0  0
   38.8770   29.1710   42.0250 C   0  0  0  0  0  3  0  0  0  0  0  0
   37.7640   29.3130   41.2220 C   0  0  0  0  0  0  0  0  0  0  0  0
   43.6520   31.5300   37.0260 C   0  0  0  0  0  0  0  0  0  0  0  0
   43.0500   30.9730   35.8970 F   0  0  0  0  0  0  0  0  0  0  0  0
   43.9990   30.4500   37.8190 F   0  0  0  0  0  0  0  0  0  0  0  0
   44.7320   32.2570   36.6170 F   0  0  0  0  0  0  0  0  0  0  0  0
  1  9  1  0  0  0  0
  1  6  1  0  0  0  0
  2  1  2  0  0  0  0
  3  2  1  0  0  0  0
  3  4  2  0  0  0  0
  4  5  1  0  0  0  0
  5  6  2  0  0  0  0
  5 11  1  0  0  0  0
  7 13  1  0  0  0  0
  7  8  2  0  0  0  0
  9  7  1  0  0  0  0
 10  2  1  0  0  0  0
 12  9  1  0  0  0  0
 13 23  1  0  0  0  0
 14 16  1  0  0  0  0
 14 13  2  0  0  0  0
 15 14  1  0  0  0  0
 16 17  2  0  0  0  0
 17 18  1  0  0  0  0
 18 19  1  0  0  0  0
 19 20  2  0  0  0  0
 21 20  1  0  0  0  0
 22 21  2  0  0  0  0
 23 18  2  0  0  0  0
 23 22  1  0  0  0  0
 24  3  1  0  0  0  0
 24 26  1  0  0  0  0
 25 24  1  0  0  0  0
 27 24  1  0  0  0  0
M  END
>  <minimizedAffinity>
-5.75257254

$$$$

 OpenBabel03252503293D

 27 29  0  0  0  0  0  0  0  0999 V2000
   35.6560   28.8110   37.2260 C   0  0  0  0  0  0  0  0  0  0  0  0
   34.2630   28.9630   37.1110 C   0  0  0  0  0  0  0  0  0  0  0  0
   33.7610   29.2490   35.8240 C   0  0  0  0  0  0  0  0  0  0  0  0
   34.6360   29.3550   34.8080 N   0  0  0  0  0  0  0  0  0  0  0  0
   35.9690   29.2010   34.9630 C   0  0  0  0  0  0  0  0  0  0  0  0
   36.4680   28.9290   36.1830 N   0  0  0  0  0  0  0  0  0  0  0  0
   36.0570   27.1450   38.8440 C   0  0  0  0  0  0  0  0  0  0  0  0
   35.3940   26.4070   38.0450 O   0  0  0  0  0  0  0  0  0  0  0  0
   36.2420   28.5210   38.4900 N   0  0  0  0  0  0  0  0  0  0  0  0
   33.7040   28.8450   38.0360 H   0  0  0  0  0  0  0  0  0  0  0  0
   36.6090   29.3060   34.0780 H   0  0  0  0  0  0  0  0  0  0  0  0
   36.7550   29.1380   39.1490 H   0  0  0  0  0  0  0  0  0  0  0  0
   36.5740   26.5400   40.0470 C   0  0  0  0  0  0  0  0  0  0  0  0
   36.6870   25.1560   40.0810 C   0  0  0  0  0  0  0  0  0  0  0  0
   36.3900   24.5500   39.2130 H   0  0  0  0  0  0  0  0  0  0  0  0
   37.1730   24.5130   41.2020 C   0  0  0  0  0  3  0  0  0  0  0  0
   37.5660   25.2310   42.3350 C   0  0  0  0  0  3  0  0  0  0  0  0
   37.4600   26.6090   42.3190 C   0  0  0  0  0  0  0  0  0  0  0  0
   37.8380   27.3700   43.4270 C   0  0  0  0  0  3  0  0  0  0  0  0
   37.7210   28.7440   43.3820 C   0  0  0  0  0  3  0  0  0  0  0  0
   37.2320   29.3840   42.2500 C   0  0  0  0  0  3  0  0  0  0  0  0
   36.8670   28.5950   41.1730 C   0  0  0  0  0  3  0  0  0  0  0  0
   36.9700   27.2190   41.1800 C   0  0  0  0  0  0  0  0  0  0  0  0
   32.3080   29.4000   35.7480 C   0  0  0  0  0  0  0  0  0  0  0  0
   31.7120   28.2460   36.2570 F   0  0  0  0  0  0  0  0  0  0  0  0
   31.9670   29.4200   34.4070 F   0  0  0  0  0  0  0  0  0  0  0  0
   31.8190   30.4720   36.4370 F   0  0  0  0  0  0  0  0  0  0  0  0
  1  9  1  0  0  0  0
  2  1  1  0  0  0  0
  2 10  1  0  0  0  0
  3  2  2  0  0  0  0
  4  5  2  0  0  0  0
  4  3  1  0  0  0  0
  5  6  1  0  0  0  0
  6  1  2  0  0  0  0
  7 13  1  0  0  0  0
  8  7  2  0  0  0  0
  9  7  1  0  0  0  0
  9 12  1  0  0  0  0
 11  5  1  0  0  0  0
 13 14  2  0  0  0  0
 13 23  1  0  0  0  0
 14 16  1  0  0  0  0
 15 14  1  0  0  0  0
 16 17  2  0  0  0  0
 18 17  1  0  0  0  0
 18 19  1  0  0  0  0
 20 19  2  0  0  0  0
 21 20  1  0  0  0  0
 22 23  1  0  0  0  0
 22 21  2  0  0  0  0
 23 18  2  0  0  0  0
 24  3  1  0  0  0  0
 24 25  1  0  0  0  0
 24 27  1  0  0  0  0
 26 24  1  0  0  0  0
M  END
>  <minimizedAffinity>
-5.7313633

$$$$

 OpenBabel03252503293D

 27 29  0  0  0  0  0  0  0  0999 V2000
   37.6140   30.6680   40.8890 C   0  0  0  0  0  0  0  0  0  0  0  0
   37.8730   29.6270   41.7960 C   0  0  0  0  0  0  0  0  0  0  0  0
   36.8980   28.6120   41.8930 C   0  0  0  0  0  0  0  0  0  0  0  0
   35.8010   28.7090   41.1200 N   0  0  0  0  0  0  0  0  0  0  0  0
   35.5910   29.7290   40.2600 C   0  0  0  0  0  0  0  0  0  0  0  0
   36.5090   30.7070   40.1540 N   0  0  0  0  0  0  0  0  0  0  0  0
   39.6740   31.3180   39.9460 C   0  0  0  0  0  0  0  0  0  0  0  0
   39.7110   30.1110   39.5440 O   0  0  0  0  0  0  0  0  0  0  0  0
   38.5490   31.7300   40.7320 N   0  0  0  0  0  0  0  0  0  0  0  0
   38.8110   29.7070   42.3410 H   0  0  0  0  0  0  0  0  0  0  0  0
   34.6660   29.7270   39.6700 H   0  0  0  0  0  0  0  0  0  0  0  0
   38.5230   32.7040   41.0900 H   0  0  0  0  0  0  0  0  0  0  0  0
   40.7680   32.1830   39.5790 C   0  0  0  0  0  0  0  0  0  0  0  0
   40.7530   32.7480   38.3100 C   0  0  0  0  0  0  0  0  0  0  0  0
   39.9280   32.5350   37.6140 H   0  0  0  0  0  0  0  0  0  0  0  0
   41.7700   33.5840   37.8960 C   0  0  0  0  0  3  0  0  0  0  0  0
   42.8430   33.8900   38.7360 C   0  0  0  0  0  3  0  0  0  0  0  0
   42.8750   33.3380   40.0030 C   0  0  0  0  0  0  0  0  0  0  0  0
   43.9280   33.6130   40.8790 C   0  0  0  0  0  3  0  0  0  0  0  0
   43.9330   33.0460   42.1370 C   0  0  0  0  0  3  0  0  0  0  0  0
   42.9050   32.2060   42.5470 C   0  0  0  0  0  3  0  0  0  0  0  0
   41.8800   31.9580   41.6500 C   0  0  0  0  0  3  0  0  0  0  0  0
   41.8410   32.5050   40.3840 C   0  0  0  0  0  0  0  0  0  0  0  0
   37.2060   27.5490   42.8480 C   0  0  0  0  0  0  0  0  0  0  0  0
   36.1010   27.3600   43.6790 F   0  0  0  0  0  0  0  0  0  0  0  0
   38.2070   28.0210   43.6800 F   0  0  0  0  0  0  0  0  0  0  0  0
   37.5150   26.3510   42.2720 F   0  0  0  0  0  0  0  0  0  0  0  0
  1  2  1  0  0  0  0
  2  3  2  0  0  0  0
  2 10  1  0  0  0  0
  3 24  1  0  0  0  0
  4  3  1  0  0  0  0
  5  4  2  0  0  0  0
  6  5  1  0  0  0  0
  6  1  2  0  0  0  0
  7  9  1  0  0  0  0
  8  7  2  0  0  0  0
  9  1  1  0  0  0  0
  9 12  1  0  0  0  0
 11  5  1  0  0  0  0
 13  7  1  0  0  0  0
 13 23  1  0  0  0  0
 14 13  2  0  0  0  0
 15 14  1  0  0  0  0
 16 14  1  0  0  0  0
 16 17  2  0  0  0  0
 17 18  1  0  0  0  0
 18 23  2  0  0  0  0
 18 19  1  0  0  0  0
 19 20  2  0  0  0  0
 20 21  1  0  0  0  0
 22 21  2  0  0  0  0
 23 22  1  0  0  0  0
 24 25  1  0  0  0  0
 24 26  1  0  0  0  0
 27 24  1  0  0  0  0
M  END
>  <minimizedAffinity>
-5.72479296

$$$$

 OpenBabel03252503293D

 27 29  0  0  0  0  0  0  0  0999 V2000
   41.0680   32.4260   37.5800 C   0  0  0  0  0  0  0  0  0  0  0  0
   41.8360   31.4730   36.8900 C   0  0  0  0  0  0  0  0  0  0  0  0
   43.2170   31.7360   36.7710 C   0  0  0  0  0  0  0  0  0  0  0  0
   43.6980   32.8670   37.3190 N   0  0  0  0  0  0  0  0  0  0  0  0
   42.9230   33.7570   37.9750 C   0  0  0  0  0  0  0  0  0  0  0  0
   41.6040   33.5250   38.0980 N   0  0  0  0  0  0  0  0  0  0  0  0
   39.3930   31.2660   38.7640 C   0  0  0  0  0  0  0  0  0  0  0  0
   40.3820   30.7030   39.3350 O   0  0  0  0  0  0  0  0  0  0  0  0
   39.6670   32.2340   37.7440 N   0  0  0  0  0  0  0  0  0  0  0  0
   41.2840   30.6160   36.5100 H   0  0  0  0  0  0  0  0  0  0  0  0
   43.4010   34.6540   38.3890 H   0  0  0  0  0  0  0  0  0  0  0  0
   38.8680   32.6760   37.2510 H   0  0  0  0  0  0  0  0  0  0  0  0
   38.0670   30.8870   39.1880 C   0  0  0  0  0  0  0  0  0  0  0  0
   37.6620   31.2590   40.4630 C   0  0  0  0  0  0  0  0  0  0  0  0
   38.3380   31.8240   41.1210 H   0  0  0  0  0  0  0  0  0  0  0  0
   36.4060   30.9280   40.9310 C   0  0  0  0  0  3  0  0  0  0  0  0
   35.5050   30.2110   40.1410 C   0  0  0  0  0  3  0  0  0  0  0  0
   35.8910   29.8320   38.8680 C   0  0  0  0  0  0  0  0  0  0  0  0
   35.0260   29.1130   38.0410 C   0  0  0  0  0  3  0  0  0  0  0  0
   35.4390   28.7480   36.7760 C   0  0  0  0  0  3  0  0  0  0  0  0
   36.7040   29.0860   36.3110 C   0  0  0  0  0  3  0  0  0  0  0  0
   37.5320   29.7990   37.1620 C   0  0  0  0  0  3  0  0  0  0  0  0
   37.1540   30.1800   38.4330 C   0  0  0  0  0  0  0  0  0  0  0  0
   43.9790   30.7210   36.0460 C   0  0  0  0  0  0  0  0  0  0  0  0
   43.1410   30.1180   35.1070 F   0  0  0  0  0  0  0  0  0  0  0  0
   44.2890   29.7180   36.9490 F   0  0  0  0  0  0  0  0  0  0  0  0
   45.0750   31.2030   35.3920 F   0  0  0  0  0  0  0  0  0  0  0  0
  1  9  1  0  0  0  0
  1  6  1  0  0  0  0
  2  1  2  0  0  0  0
  3  2  1  0  0  0  0
  3  4  2  0  0  0  0
  4  5  1  0  0  0  0
  5  6  2  0  0  0  0
  5 11  1  0  0  0  0
  7 13  1  0  0  0  0
  7  8  2  0  0  0  0
  9  7  1  0  0  0  0
 10  2  1  0  0  0  0
 12  9  1  0  0  0  0
 13 14  1  0  0  0  0
 14 16  2  0  0  0  0
 14 15  1  0  0  0  0
 17 16  1  0  0  0  0
 18 17  2  0  0  0  0
 19 18  1  0  0  0  0
 20 19  2  0  0  0  0
 21 20  1  0  0  0  0
 21 22  2  0  0  0  0
 22 23  1  0  0  0  0
 23 18  1  0  0  0  0
 23 13  2  0  0  0  0
 24  3  1  0  0  0  0
 24 26  1  0  0  0  0
 25 24  1  0  0  0  0
 27 24  1  0  0  0  0
M  END
>  <minimizedAffinity>
-5.67469645

$$$$

 OpenBabel03252503293D

 27 29  0  0  0  0  0  0  0  0999 V2000
   39.8020   30.3390   38.4030 C   0  0  0  0  0  0  0  0  0  0  0  0
   40.7670   29.5870   37.7120 C   0  0  0  0  0  0  0  0  0  0  0  0
   41.7360   30.3110   36.9870 C   0  0  0  0  0  0  0  0  0  0  0  0
   41.6730   31.6550   37.0070 N   0  0  0  0  0  0  0  0  0  0  0  0
   40.7270   32.3400   37.6860 C   0  0  0  0  0  0  0  0  0  0  0  0
   39.7920   31.6670   38.3820 N   0  0  0  0  0  0  0  0  0  0  0  0
   39.3050   29.1940   40.4020 C   0  0  0  0  0  0  0  0  0  0  0  0
   40.5440   29.3620   40.6420 O   0  0  0  0  0  0  0  0  0  0  0  0
   38.7880   29.6840   39.1580 N   0  0  0  0  0  0  0  0  0  0  0  0
   40.6690   28.5080   37.8040 H   0  0  0  0  0  0  0  0  0  0  0  0
   40.7510   33.4360   37.6450 H   0  0  0  0  0  0  0  0  0  0  0  0
   37.7860   29.5250   38.9390 H   0  0  0  0  0  0  0  0  0  0  0  0
   38.5110   28.5210   41.4000 C   0  0  0  0  0  0  0  0  0  0  0  0
   38.1330   29.2440   42.5250 C   0  0  0  0  0  0  0  0  0  0  0  0
   38.4340   30.2950   42.6400 H   0  0  0  0  0  0  0  0  0  0  0  0
   37.3740   28.6600   43.5190 C   0  0  0  0  0  3  0  0  0  0  0  0
   36.9620   27.3280   43.4280 C   0  0  0  0  0  3  0  0  0  0  0  0
   37.3290   26.5930   42.3160 C   0  0  0  0  0  0  0  0  0  0  0  0
   36.9430   25.2580   42.1800 C   0  0  0  0  0  3  0  0  0  0  0  0
   37.3240   24.5490   41.0590 C   0  0  0  0  0  3  0  0  0  0  0  0
   38.0880   25.1440   40.0620 C   0  0  0  0  0  3  0  0  0  0  0  0
   38.4510   26.4690   40.2340 C   0  0  0  0  0  3  0  0  0  0  0  0
   38.0890   27.2100   41.3410 C   0  0  0  0  0  0  0  0  0  0  0  0
   42.7210   29.4910   36.2830 C   0  0  0  0  0  0  0  0  0  0  0  0
   42.2110   28.1990   36.1480 F   0  0  0  0  0  0  0  0  0  0  0  0
   43.8180   29.3600   37.1170 F   0  0  0  0  0  0  0  0  0  0  0  0
   43.0500   29.9520   35.0420 F   0  0  0  0  0  0  0  0  0  0  0  0
  1  9  1  0  0  0  0
  2 10  1  0  0  0  0
  2  1  2  0  0  0  0
  3  4  2  0  0  0  0
  3  2  1  0  0  0  0
  4  5  1  0  0  0  0
  5  6  2  0  0  0  0
  6  1  1  0  0  0  0
  7  8  2  0  0  0  0
  7 13  1  0  0  0  0
  9  7  1  0  0  0  0
 11  5  1  0  0  0  0
 12  9  1  0  0  0  0
 13 14  1  0  0  0  0
 14 15  1  0  0  0  0
 14 16  2  0  0  0  0
 17 16  1  0  0  0  0
 18 17  2  0  0  0  0
 19 18  1  0  0  0  0
 20 19  2  0  0  0  0
 21 22  2  0  0  0  0
 21 20  1  0  0  0  0
 22 23  1  0  0  0  0
 23 13  2  0  0  0  0
 23 18  1  0  0  0  0
 24  3  1  0  0  0  0
 24 26  1  0  0  0  0
 25 24  1  0  0  0  0
 27 24  1  0  0  0  0
M  END
>  <minimizedAffinity>
-5.66613626

$$$$
