
 OpenBabel03252503593D

 36 40  0  0  1  0  0  0  0  0999 V2000
   47.3640   34.8460   42.6410 C   0  0  0  0  0  0  0  0  0  0  0  0
   46.2940   35.5960   42.1740 C   0  0  0  0  0  0  0  0  0  0  0  0
   45.0720   35.4280   42.8040 C   0  0  0  0  0  0  0  0  0  0  0  0
   44.9820   34.5510   43.8330 N   0  0  0  0  0  0  0  0  0  0  0  0
   46.0620   33.8310   44.2620 C   0  0  0  0  0  0  0  0  0  0  0  0
   47.2500   33.9820   43.6630 N   0  0  0  0  0  0  0  0  0  0  0  0
   46.3200   36.3020   41.3620 H   0  0  0  0  0  0  0  0  0  0  0  0
   44.1980   35.9860   42.4850 H   0  0  0  0  0  0  0  0  0  0  0  0
   46.0900   31.5420   45.0760 C   0  0  0  0  0  0  0  0  0  0  0  0
   45.9340   32.8940   45.3720 C   0  0  0  0  0  0  0  0  0  0  0  0
   45.6720   33.2730   46.6640 C   0  0  0  0  0  0  0  0  0  0  0  0
   45.5690   32.3130   47.6410 C   0  0  0  0  0  0  0  0  0  0  0  0
   45.3250   32.3880   48.9660 N   0  0  0  0  0  0  0  0  0  0  0  0
   45.3190   31.1680   49.5160 C   0  0  0  0  0  0  0  0  0  0  0  0
   45.5660   30.2460   48.5350 C   0  0  0  0  0  0  0  0  0  0  0  0
   45.7230   30.9630   47.3550 C   0  0  0  0  0  0  0  0  0  0  0  0
   45.9860   30.5750   46.0560 C   0  0  0  0  0  0  0  0  0  0  0  0
   46.2990   31.1360   44.0800 H   0  0  0  0  0  0  0  0  0  0  0  0
   45.5540   34.3260   46.8770 H   0  0  0  0  0  0  0  0  0  0  0  0
   45.1610   33.2760   49.5050 H   0  0  0  0  0  0  0  0  0  0  0  0
   45.1480   30.9320   50.5680 H   0  0  0  0  0  0  0  0  0  0  0  0
   45.6380   29.1530   48.5970 H   0  0  0  0  0  0  0  0  0  0  0  0
   46.1020   29.5150   45.8610 H   0  0  0  0  0  0  0  0  0  0  0  0
   48.6260   35.0590   41.9410 C   0  0  2  0  0  3  0  0  0  0  0  0
   49.2120   36.2010   41.8720 O   0  0  0  0  0  1  0  0  0  0  0  0
   49.0840   33.8010   41.3590 C   0  0  0  0  0  0  0  0  0  0  0  0
   49.8860   32.9130   42.0830 C   0  0  0  0  0  0  0  0  0  0  0  0
   50.1780   33.1730   43.1110 H   0  0  0  0  0  0  0  0  0  0  0  0
   50.3520   31.7070   41.6040 C   0  0  0  0  0  3  0  0  0  0  0  0
   50.0130   31.3360   40.3240 C   0  0  0  0  0  3  0  0  0  0  0  0
   49.2240   32.1710   39.5600 C   0  0  0  0  0  0  0  0  0  0  0  0
   48.9000   31.7740   38.2800 C   0  0  0  0  0  3  0  0  0  0  0  0
   48.1150   32.5690   37.4670 C   0  0  0  0  0  3  0  0  0  0  0  0
   47.6850   33.7600   38.0090 C   0  0  0  0  0  3  0  0  0  0  0  0
   48.0100   34.1540   39.2900 C   0  0  0  0  0  3  0  0  0  0  0  0
   48.7920   33.3630   40.1000 C   0  0  0  0  0  0  0  0  0  0  0  0
  1  6  1  0  0  0  0
  2  1  2  0  0  0  0
  2  3  1  0  0  0  0
  3  4  2  0  0  0  0
  4  5  1  0  0  0  0
  5 10  1  0  0  0  0
  6  5  2  0  0  0  0
  7  2  1  0  0  0  0
  8  3  1  0  0  0  0
  9 10  2  0  0  0  0
  9 17  1  0  0  0  0
 10 11  1  0  0  0  0
 11 19  1  0  0  0  0
 11 12  2  0  0  0  0
 12 13  1  0  0  0  0
 13 20  1  0  0  0  0
 13 14  1  0  0  0  0
 14 21  1  0  0  0  0
 15 22  1  0  0  0  0
 15 14  2  0  0  0  0
 16 12  1  0  0  0  0
 16 15  1  0  0  0  0
 17 16  2  0  0  0  0
 18  9  1  0  0  0  0
 23 17  1  0  0  0  0
 24 25  1  6  0  0  0
 24  1  1  0  0  0  0
 26 24  1  0  0  0  0
 26 27  1  0  0  0  0
 27 28  1  0  0  0  0
 29 27  2  0  0  0  0
 30 29  1  0  0  0  0
 31 36  1  0  0  0  0
 31 30  2  0  0  0  0
 32 31  1  0  0  0  0
 33 34  1  0  0  0  0
 33 32  2  0  0  0  0
 34 35  2  0  0  0  0
 35 36  1  0  0  0  0
 36 26  2  0  0  0  0
M  END
>  <minimizedAffinity>
-6.88704681

>  <minimizedRMSD>
1.45250964

$$$$
