
 OpenBabel03252502563D

 39 42  0  0  0  0  0  0  0  0999 V2000
   45.6680   30.0130   44.7030 Br  0  0  0  0  0  0  0  0  0  0  0  0
   45.6690   30.6120   46.5290 C   0  0  0  0  0  0  0  0  0  0  0  0
   46.3290   31.7820   46.7730 C   0  0  0  0  0  0  0  0  0  0  0  0
   46.3150   32.1980   48.1060 C   0  0  0  0  0  0  0  0  0  0  0  0
   45.6880   31.4970   49.1160 C   0  0  0  0  0  0  0  0  0  0  0  0
   45.0440   30.3280   48.7920 C   0  0  0  0  0  0  0  0  0  0  0  0
   45.0230   29.8660   47.4970 C   0  0  0  0  0  0  0  0  0  0  0  0
   46.8200   33.1230   48.3860 H   0  0  0  0  0  0  0  0  0  0  0  0
   45.6920   31.8390   50.1390 H   0  0  0  0  0  0  0  0  0  0  0  0
   44.5290   29.7170   49.5260 H   0  0  0  0  0  0  0  0  0  0  0  0
   47.0320   32.6250   45.8130 C   0  0  0  0  0  0  0  0  0  0  0  0
   47.4410   31.9750   44.9990 H   0  0  0  0  0  0  0  0  0  0  0  0
   47.9370   33.0640   46.3150 H   0  0  0  0  0  0  0  0  0  0  0  0
   44.5250   35.3420   45.3710 C   0  0  0  0  0  0  0  0  0  0  0  0
   44.7390   35.7280   44.0370 C   0  0  0  0  0  0  0  0  0  0  0  0
   45.7380   35.0480   43.3280 C   0  0  0  0  0  0  0  0  0  0  0  0
   46.4390   34.0740   43.9260 N   0  0  0  0  0  0  0  0  0  0  0  0
   46.2130   33.7100   45.2320 C   0  0  0  0  0  0  0  0  0  0  0  0
   45.2560   34.3690   45.8990 N   0  0  0  0  0  0  0  0  0  0  0  0
   43.7840   35.7890   46.0220 H   0  0  0  0  0  0  0  0  0  0  0  0
   44.1160   36.5260   43.6560 H   0  0  0  0  0  0  0  0  0  0  0  0
   45.8930   35.3490   42.3190 H   0  0  0  0  0  0  0  0  0  0  0  0
   44.3690   28.6820   47.1730 O   0  0  0  0  0  0  0  0  0  0  0  0
   44.0650   26.1270   46.8890 O   0  0  0  0  0  0  0  0  0  0  0  0
   44.9930   27.1440   47.5540 P   0  0  2  0  0  0  0  0  0  0  0  0
   44.9530   26.9700   49.2200 O   0  0  0  0  0  0  0  0  0  0  0  0
   44.3390   26.2490   49.4860 H   0  0  0  0  0  0  0  0  0  0  0  0
   46.5430   26.9330   46.9330 O   0  0  0  0  0  0  0  0  0  0  0  0
   47.6910   27.3070   47.6220 C   0  0  0  0  0  0  0  0  0  0  0  0
   48.2340   28.5750   47.6440 C   0  0  0  0  0  0  0  0  0  0  0  0
   47.7310   29.3390   47.0840 H   0  0  0  0  0  0  0  0  0  0  0  0
   49.3860   28.8520   48.3620 C   0  0  0  0  0  0  0  0  0  0  0  0
   49.9760   27.8120   49.0600 C   0  0  0  0  0  0  0  0  0  0  0  0
   49.4600   26.5140   49.0660 C   0  0  0  0  0  0  0  0  0  0  0  0
   50.1000   25.5180   49.7850 C   0  0  0  0  0  0  0  0  0  0  0  0
   49.5660   24.2310   49.7750 C   0  0  0  0  0  0  0  0  0  0  0  0
   48.4090   23.9730   49.0470 C   0  0  0  0  0  0  0  0  0  0  0  0
   47.8220   25.0090   48.3530 C   0  0  0  0  0  0  0  0  0  0  0  0
   48.3040   26.2870   48.3300 C   0  0  0  0  0  0  0  0  0  0  0  0
  1  2  1  0  0  0  0
  2  3  2  0  0  0  0
  2  7  1  0  0  0  0
  3  4  1  0  0  0  0
  4  8  1  0  0  0  0
  4  5  2  0  0  0  0
  5  9  1  0  0  0  0
  6  5  1  0  0  0  0
  6 10  1  0  0  0  0
  7  6  2  0  0  0  0
 11 13  1  0  0  0  0
 11  3  1  0  0  0  0
 12 11  1  0  0  0  0
 14 19  1  0  0  0  0
 14 20  1  0  0  0  0
 15 14  2  0  0  0  0
 16 17  2  0  0  0  0
 16 15  1  0  0  0  0
 17 18  1  0  0  0  0
 18 11  1  0  0  0  0
 18 19  2  0  0  0  0
 21 15  1  0  0  0  0
 22 16  1  0  0  0  0
 23  7  1  0  0  0  0
 23 25  1  0  0  0  0
 25 24  2  6  0  0  0
 25 26  1  0  0  0  0
 26 27  1  0  0  0  0
 28 25  1  0  0  0  0
 28 29  1  0  0  0  0
 29 30  2  0  0  0  0
 29 39  1  0  0  0  0
 30 32  1  0  0  0  0
 31 30  1  0  0  0  0
 32 33  2  0  0  0  0
 33 34  1  0  0  0  0
 34 35  1  0  0  0  0
 36 35  2  0  0  0  0
 37 36  1  0  0  0  0
 38 37  2  0  0  0  0
 39 38  1  0  0  0  0
 39 34  2  0  0  0  0
M  END
>  <minimizedAffinity>
-5.76313448

>  <minimizedRMSD>
2.18991947

$$$$
