
 OpenBabel03252509273D

 32 35  0  0  1  0  0  0  0  0999 V2000
   47.0880   35.2430   41.7900 C   0  0  1  0  0  0  0  0  0  0  0  0
   48.5790   35.5710   41.8720 C   0  0  0  0  0  0  0  0  0  0  0  0
   47.9470   34.3890   41.0690 C   0  0  2  0  0  0  0  0  0  0  0  0
   46.5110   36.0550   41.3550 H   0  0  0  0  0  0  0  0  0  0  0  0
   48.9650   36.3950   41.2250 H   0  0  0  0  0  0  0  0  0  0  0  0
   49.1360   35.3560   42.7770 H   0  0  0  0  0  0  0  0  0  0  0  0
   48.3310   33.4160   41.5160 H   0  0  0  0  0  0  0  0  0  0  0  0
   44.9870   34.8330   44.8640 C   0  0  0  0  0  0  0  0  0  0  0  0
   45.4540   35.3710   43.6330 C   0  0  0  0  0  0  0  0  0  0  0  0
   46.5680   34.7650   43.1270 C   0  0  0  0  0  0  0  0  0  0  0  0
   47.1810   33.7150   43.7730 N   0  0  0  0  0  0  0  0  0  0  0  0
   46.7060   33.2390   44.9330 C   0  0  0  0  0  0  0  0  0  0  0  0
   45.5990   33.8050   45.4840 N   0  0  0  0  0  0  0  0  0  0  0  0
   44.1080   35.2450   45.3370 H   0  0  0  0  0  0  0  0  0  0  0  0
   47.2030   32.4130   45.4310 H   0  0  0  0  0  0  0  0  0  0  0  0
   44.8210   36.4600   43.0070 N   0  0  0  0  0  0  0  0  0  0  0  0
   45.4900   37.2670   43.0350 H   0  0  0  0  0  0  0  0  0  0  0  0
   43.8390   36.4440   42.5890 H   0  0  0  0  0  0  0  0  0  0  0  0
   48.0800   34.4220   39.5690 C   0  0  0  0  0  0  0  0  0  0  0  0
   49.0480   34.9420   39.3230 H   0  0  0  0  0  0  0  0  0  0  0  0
   47.2340   35.0440   39.2420 H   0  0  0  0  0  0  0  0  0  0  0  0
   48.1500   33.0830   38.9830 C   0  0  0  0  0  0  0  0  0  0  0  0
   49.0900   32.2410   39.5950 C   0  0  0  0  0  0  0  0  0  0  0  0
   49.7920   32.5640   40.3560 H   0  0  0  0  0  0  0  0  0  0  0  0
   49.1630   30.8980   39.2420 C   0  0  0  0  0  3  0  0  0  0  0  0
   48.3390   30.3300   38.2930 C   0  0  0  0  0  3  0  0  0  0  0  0
   47.4290   31.1380   37.6910 C   0  0  0  0  0  0  0  0  0  0  0  0
   46.6030   30.6300   36.6910 C   0  0  0  0  0  3  0  0  0  0  0  0
   45.7270   31.4980   36.0720 C   0  0  0  0  0  3  0  0  0  0  0  0
   45.6560   32.8320   36.4220 C   0  0  0  0  0  3  0  0  0  0  0  0
   46.4820   33.3080   37.4180 C   0  0  0  0  0  3  0  0  0  0  0  0
   47.3720   32.4370   38.0480 C   0  0  0  0  0  0  0  0  0  0  0  0
  1  4  1  6  0  0  0
  1  2  1  0  0  0  0
  1 10  1  0  0  0  0
  2  6  1  0  0  0  0
  3  7  1  1  0  0  0
  3  1  1  0  0  0  0
  3  2  1  0  0  0  0
  5  2  1  0  0  0  0
  8 14  1  0  0  0  0
  8 13  1  0  0  0  0
  9  8  2  0  0  0  0
 10  9  1  0  0  0  0
 10 11  2  0  0  0  0
 11 12  1  0  0  0  0
 12 15  1  0  0  0  0
 12 13  2  0  0  0  0
 16 17  1  0  0  0  0
 16  9  1  0  0  0  0
 18 16  1  0  0  0  0
 19  3  1  0  0  0  0
 20 19  1  0  0  0  0
 21 19  1  0  0  0  0
 22 19  1  0  0  0  0
 22 23  1  0  0  0  0
 23 24  1  0  0  0  0
 25 23  2  0  0  0  0
 26 25  1  0  0  0  0
 27 32  1  0  0  0  0
 27 26  2  0  0  0  0
 28 27  1  0  0  0  0
 29 30  1  0  0  0  0
 29 28  2  0  0  0  0
 30 31  2  0  0  0  0
 31 32  1  0  0  0  0
 32 22  2  0  0  0  0
M  END
>  <minimizedAffinity>
-5.21720314

>  <minimizedRMSD>
3.39720273

$$$$
