
 OpenBabel03242516363D

 46 50  0  0  1  0  0  0  0  0999 V2000
   37.9450   32.2070   39.9020 C   0  0  1  0  0  0  0  0  0  0  0  0
   39.0960   33.0170   40.6780 C   0  0  1  0  0  0  0  0  0  0  0  0
   39.3370   32.1150   41.6430 O   0  0  0  0  0  0  0  0  0  0  0  0
   39.7220   31.0030   40.8590 C   0  0  0  0  0  0  0  0  0  0  0  0
   38.4660   30.7920   40.0130 C   0  0  1  0  0  0  0  0  0  0  0  0
   37.8450   32.6010   38.9050 H   0  0  0  0  0  0  0  0  0  0  0  0
   38.5890   33.9710   40.8090 H   0  0  0  0  0  0  0  0  0  0  0  0
   40.5960   31.2090   40.2430 H   0  0  0  0  0  0  0  0  0  0  0  0
   39.8970   30.1660   41.5470 H   0  0  0  0  0  0  0  0  0  0  0  0
   38.8560   30.4550   39.0250 H   0  0  0  0  0  0  0  0  0  0  0  0
   36.8250   32.2990   40.7240 O   0  0  0  0  0  0  0  0  0  0  0  0
   37.0200   32.7000   41.5990 H   0  0  0  0  0  0  0  0  0  0  0  0
   40.1550   33.0210   39.7680 O   0  0  0  0  0  0  0  0  0  0  0  0
   42.5170   33.1470   39.7670 C   0  0  2  0  0  0  0  0  0  0  0  0
   42.3870   33.2850   38.2280 C   0  0  1  0  0  0  0  0  0  0  0  0
   42.2760   34.6410   38.1390 O   0  0  0  0  0  0  0  0  0  0  0  0
   41.2630   34.9650   39.0650 C   0  0  0  0  0  0  0  0  0  0  0  0
   41.2080   33.8220   40.1010 C   0  0  1  0  0  0  0  0  0  0  0  0
   42.5750   32.0990   40.0650 H   0  0  0  0  0  0  0  0  0  0  0  0
   41.4110   32.8120   37.9340 H   0  0  0  0  0  0  0  0  0  0  0  0
   41.5940   35.8570   39.6190 H   0  0  0  0  0  0  0  0  0  0  0  0
   40.2780   35.0670   38.5870 H   0  0  0  0  0  0  0  0  0  0  0  0
   41.1970   34.1870   41.1400 H   0  0  0  0  0  0  0  0  0  0  0  0
   44.8580   31.1580   36.2750 C   0  0  0  0  0  0  0  0  0  0  0  0
   43.6580   31.4950   36.8900 C   0  0  0  0  0  0  0  0  0  0  0  0
   43.5410   32.7010   37.5430 C   0  0  0  0  0  0  0  0  0  0  0  0
   44.6370   33.5170   37.5470 N   0  0  0  0  0  0  0  0  0  0  0  0
   45.7920   33.1790   36.9460 C   0  0  0  0  0  0  0  0  0  0  0  0
   45.9050   32.0040   36.3120 N   0  0  0  0  0  0  0  0  0  0  0  0
   44.8800   30.1950   35.7810 H   0  0  0  0  0  0  0  0  0  0  0  0
   42.7630   30.9020   36.9240 H   0  0  0  0  0  0  0  0  0  0  0  0
   46.6600   33.8140   36.9450 H   0  0  0  0  0  0  0  0  0  0  0  0
   43.5110   33.9660   40.2410 O   0  0  0  0  0  0  0  0  0  0  0  0
   43.5450   34.7690   39.6650 H   0  0  0  0  0  0  0  0  0  0  0  0
   37.6120   29.9700   40.6420 O   0  0  0  0  0  0  0  0  0  0  0  0
   37.4430   28.9030   41.3010 C   0  0  0  0  0  0  0  0  0  0  0  0
   37.4800   29.3020   42.6600 C   0  0  0  0  0  0  0  0  0  0  0  0
   37.6180   30.2850   43.1350 H   0  0  0  0  0  0  0  0  0  0  0  0
   37.3310   28.4110   43.7400 C   0  0  0  0  0  3  0  0  0  0  0  0
   37.1400   27.0770   43.4260 C   0  0  0  0  0  3  0  0  0  0  0  0
   37.0900   26.5940   42.1380 C   0  0  0  0  0  0  0  0  0  0  0  0
   36.9010   25.2790   41.7680 C   0  0  0  0  0  3  0  0  0  0  0  0
   36.8650   24.8870   40.4420 C   0  0  0  0  0  3  0  0  0  0  0  0
   37.0260   25.8740   39.4630 C   0  0  0  0  0  3  0  0  0  0  0  0
   37.2120   27.1760   39.8580 C   0  0  0  0  0  3  0  0  0  0  0  0
   37.2480   27.5600   41.1720 C   0  0  0  0  0  0  0  0  0  0  0  0
  1  6  1  6  0  0  0
  1  5  1  0  0  0  0
  1  2  1  0  0  0  0
  1 11  1  0  0  0  0
  2  7  1  1  0  0  0
  2  3  1  0  0  0  0
  4  9  1  0  0  0  0
  4  3  1  0  0  0  0
  5 10  1  6  0  0  0
  5 35  1  0  0  0  0
  5  4  1  0  0  0  0
  8  4  1  0  0  0  0
 11 12  1  0  0  0  0
 13 18  1  0  0  0  0
 13  2  1  0  0  0  0
 14 19  1  1  0  0  0
 14 18  1  0  0  0  0
 14 33  1  0  0  0  0
 15 20  1  6  0  0  0
 15 14  1  0  0  0  0
 16 15  1  0  0  0  0
 16 17  1  0  0  0  0
 17 21  1  0  0  0  0
 17 18  1  0  0  0  0
 18 23  1  1  0  0  0
 22 17  1  0  0  0  0
 24 29  2  0  0  0  0
 24 25  1  0  0  0  0
 25 31  1  0  0  0  0
 25 26  2  0  0  0  0
 26 27  1  0  0  0  0
 26 15  1  0  0  0  0
 28 27  2  0  0  0  0
 29 28  1  0  0  0  0
 30 24  1  0  0  0  0
 32 28  1  0  0  0  0
 34 33  1  0  0  0  0
 35 36  1  0  0  0  0
 36 37  1  0  0  0  0
 37 38  1  0  0  0  0
 37 39  2  0  0  0  0
 40 39  1  0  0  0  0
 41 40  2  0  0  0  0
 42 41  1  0  0  0  0
 43 42  2  0  0  0  0
 44 45  2  0  0  0  0
 44 43  1  0  0  0  0
 45 46  1  0  0  0  0
 46 36  2  0  0  0  0
 46 41  1  0  0  0  0
M  END
>  <minimizedAffinity>
-7.04456186

$$$$

 OpenBabel03242516363D

 46 50  0  0  1  0  0  0  0  0999 V2000
   36.5370   31.1680   40.5620 C   0  0  1  0  0  0  0  0  0  0  0  0
   37.9740   31.3780   41.2490 C   0  0  1  0  0  0  0  0  0  0  0  0
   38.4380   30.1280   41.0900 O   0  0  0  0  0  0  0  0  0  0  0  0
   38.3860   30.0160   39.6820 C   0  0  0  0  0  0  0  0  0  0  0  0
   36.8950   30.2380   39.4250 C   0  0  1  0  0  0  0  0  0  0  0  0
   36.1330   32.1260   40.2840 H   0  0  0  0  0  0  0  0  0  0  0  0
   37.6610   31.8280   42.1890 H   0  0  0  0  0  0  0  0  0  0  0  0
   39.0000   30.7620   39.1800 H   0  0  0  0  0  0  0  0  0  0  0  0
   38.6970   28.9950   39.4260 H   0  0  0  0  0  0  0  0  0  0  0  0
   36.8640   30.7930   38.4590 H   0  0  0  0  0  0  0  0  0  0  0  0
   35.8020   30.4260   41.4840 O   0  0  0  0  0  0  0  0  0  0  0  0
   36.3430   30.1070   42.2410 H   0  0  0  0  0  0  0  0  0  0  0  0
   38.6300   32.2350   40.3630 O   0  0  0  0  0  0  0  0  0  0  0  0
   40.9070   32.8060   40.6550 C   0  0  2  0  0  0  0  0  0  0  0  0
   40.8740   33.1980   39.1550 C   0  0  1  0  0  0  0  0  0  0  0  0
   40.4910   34.5010   39.2790 O   0  0  0  0  0  0  0  0  0  0  0  0
   39.3630   34.4500   40.1220 C   0  0  0  0  0  0  0  0  0  0  0  0
   39.4650   33.1460   40.9420 C   0  0  1  0  0  0  0  0  0  0  0  0
   41.1580   31.7510   40.7800 H   0  0  0  0  0  0  0  0  0  0  0  0
   40.0440   32.6110   38.6770 H   0  0  0  0  0  0  0  0  0  0  0  0
   39.4570   35.2710   40.8510 H   0  0  0  0  0  0  0  0  0  0  0  0
   38.4200   34.4490   39.5580 H   0  0  0  0  0  0  0  0  0  0  0  0
   39.2960   33.3040   42.0200 H   0  0  0  0  0  0  0  0  0  0  0  0
   43.8730   31.9920   37.1560 C   0  0  0  0  0  0  0  0  0  0  0  0
   42.5820   31.9770   37.6710 C   0  0  0  0  0  0  0  0  0  0  0  0
   42.1750   32.9810   38.5190 C   0  0  0  0  0  0  0  0  0  0  0  0
   43.0840   33.9580   38.8120 N   0  0  0  0  0  0  0  0  0  0  0  0
   44.3300   33.9600   38.3060 C   0  0  0  0  0  0  0  0  0  0  0  0
   44.7260   32.9820   37.4810 N   0  0  0  0  0  0  0  0  0  0  0  0
   44.1260   31.1710   36.4960 H   0  0  0  0  0  0  0  0  0  0  0  0
   41.8210   31.2420   37.4830 H   0  0  0  0  0  0  0  0  0  0  0  0
   45.0530   34.7240   38.5310 H   0  0  0  0  0  0  0  0  0  0  0  0
   41.6680   33.6970   41.3680 O   0  0  0  0  0  0  0  0  0  0  0  0
   41.5810   34.5840   40.9390 H   0  0  0  0  0  0  0  0  0  0  0  0
   36.2330   29.0710   39.4770 O   0  0  0  0  0  0  0  0  0  0  0  0
   36.2870   27.8080   39.4300 C   0  0  0  0  0  0  0  0  0  0  0  0
   35.9360   27.4770   38.0970 C   0  0  0  0  0  0  0  0  0  0  0  0
   35.6640   28.1000   37.2310 H   0  0  0  0  0  0  0  0  0  0  0  0
   35.8720   26.1580   37.6110 C   0  0  0  0  0  3  0  0  0  0  0  0
   36.1720   25.1470   38.5080 C   0  0  0  0  0  3  0  0  0  0  0  0
   36.5220   25.3690   39.8200 C   0  0  0  0  0  0  0  0  0  0  0  0
   36.8320   24.4040   40.7550 C   0  0  0  0  0  3  0  0  0  0  0  0
   37.1740   24.7240   42.0560 C   0  0  0  0  0  3  0  0  0  0  0  0
   37.2010   26.0770   42.4120 C   0  0  0  0  0  3  0  0  0  0  0  0
   36.8890   27.0190   41.4620 C   0  0  0  0  0  3  0  0  0  0  0  0
   36.5500   26.6970   40.1750 C   0  0  0  0  0  0  0  0  0  0  0  0
  1  6  1  6  0  0  0
  1  2  1  0  0  0  0
  1 11  1  0  0  0  0
  2  7  1  1  0  0  0
  3  2  1  0  0  0  0
  4  3  1  0  0  0  0
  5 10  1  6  0  0  0
  5 35  1  0  0  0  0
  5  4  1  0  0  0  0
  5  1  1  0  0  0  0
  8  4  1  0  0  0  0
  9  4  1  0  0  0  0
 11 12  1  0  0  0  0
 13 18  1  0  0  0  0
 13  2  1  0  0  0  0
 14 19  1  1  0  0  0
 14 18  1  0  0  0  0
 14 33  1  0  0  0  0
 15 20  1  6  0  0  0
 15 16  1  0  0  0  0
 15 14  1  0  0  0  0
 16 17  1  0  0  0  0
 17 21  1  0  0  0  0
 17 18  1  0  0  0  0
 18 23  1  1  0  0  0
 22 17  1  0  0  0  0
 24 29  2  0  0  0  0
 24 25  1  0  0  0  0
 25 26  2  0  0  0  0
 26 27  1  0  0  0  0
 26 15  1  0  0  0  0
 28 32  1  0  0  0  0
 28 27  2  0  0  0  0
 29 28  1  0  0  0  0
 30 24  1  0  0  0  0
 31 25  1  0  0  0  0
 34 33  1  0  0  0  0
 36 35  1  0  0  0  0
 36 46  1  0  0  0  0
 37 36  2  0  0  0  0
 38 37  1  0  0  0  0
 39 37  1  0  0  0  0
 39 40  2  0  0  0  0
 40 41  1  0  0  0  0
 41 46  2  0  0  0  0
 41 42  1  0  0  0  0
 42 43  2  0  0  0  0
 43 44  1  0  0  0  0
 45 44  2  0  0  0  0
 46 45  1  0  0  0  0
M  END
>  <minimizedAffinity>
-6.74995613

$$$$

 OpenBabel03242516363D

 46 50  0  0  1  0  0  0  0  0999 V2000
   37.4610   32.4950   39.9010 C   0  0  1  0  0  0  0  0  0  0  0  0
   38.7010   32.8880   40.8440 C   0  0  1  0  0  0  0  0  0  0  0  0
   39.0260   31.6490   41.2460 O   0  0  0  0  0  0  0  0  0  0  0  0
   39.3080   31.0440   39.9990 C   0  0  0  0  0  0  0  0  0  0  0  0
   37.9660   31.2100   39.2840 C   0  0  1  0  0  0  0  0  0  0  0  0
   37.2640   33.3040   39.2190 H   0  0  0  0  0  0  0  0  0  0  0  0
   38.2270   33.6520   41.4560 H   0  0  0  0  0  0  0  0  0  0  0  0
   40.1160   31.5430   39.4660 H   0  0  0  0  0  0  0  0  0  0  0  0
   39.5400   29.9890   40.1940 H   0  0  0  0  0  0  0  0  0  0  0  0
   38.2440   31.3850   38.2190 H   0  0  0  0  0  0  0  0  0  0  0  0
   36.4350   32.1540   40.7780 O   0  0  0  0  0  0  0  0  0  0  0  0
   36.7280   32.1070   41.7150 H   0  0  0  0  0  0  0  0  0  0  0  0
   39.6580   33.3510   39.9400 O   0  0  0  0  0  0  0  0  0  0  0  0
   41.9400   33.5880   40.5140 C   0  0  2  0  0  0  0  0  0  0  0  0
   42.1980   33.6010   38.9860 C   0  0  1  0  0  0  0  0  0  0  0  0
   42.0770   34.9400   38.7550 O   0  0  0  0  0  0  0  0  0  0  0  0
   40.8560   35.2860   39.3690 C   0  0  0  0  0  0  0  0  0  0  0  0
   40.5730   34.2240   40.4540 C   0  0  1  0  0  0  0  0  0  0  0  0
   41.9500   32.5690   40.9060 H   0  0  0  0  0  0  0  0  0  0  0  0
   41.3400   33.0610   38.5000 H   0  0  0  0  0  0  0  0  0  0  0  0
   41.0130   36.2320   39.9100 H   0  0  0  0  0  0  0  0  0  0  0  0
   40.0200   35.3040   38.6550 H   0  0  0  0  0  0  0  0  0  0  0  0
   40.2920   34.6670   41.4230 H   0  0  0  0  0  0  0  0  0  0  0  0
   45.5280   32.5710   37.4720 C   0  0  0  0  0  0  0  0  0  0  0  0
   44.2960   33.2100   37.5530 C   0  0  0  0  0  0  0  0  0  0  0  0
   43.5020   33.0210   38.6600 C   0  0  0  0  0  0  0  0  0  0  0  0
   43.9820   32.1980   39.6400 N   0  0  0  0  0  0  0  0  0  0  0  0
   45.1770   31.5870   39.5480 C   0  0  0  0  0  0  0  0  0  0  0  0
   45.9490   31.7710   38.4690 N   0  0  0  0  0  0  0  0  0  0  0  0
   46.1000   32.7640   36.5720 H   0  0  0  0  0  0  0  0  0  0  0  0
   43.8610   33.8660   36.8210 H   0  0  0  0  0  0  0  0  0  0  0  0
   45.5630   30.9370   40.3130 H   0  0  0  0  0  0  0  0  0  0  0  0
   42.7610   34.4870   41.1480 O   0  0  0  0  0  0  0  0  0  0  0  0
   42.9180   35.2430   40.5310 H   0  0  0  0  0  0  0  0  0  0  0  0
   37.1690   30.1600   39.5380 O   0  0  0  0  0  0  0  0  0  0  0  0
   37.0620   28.9820   39.9880 C   0  0  0  0  0  0  0  0  0  0  0  0
   36.8770   28.1690   38.8420 C   0  0  0  0  0  0  0  0  0  0  0  0
   36.8240   28.4090   37.7700 H   0  0  0  0  0  0  0  0  0  0  0  0
   36.7130   26.7720   38.8950 C   0  0  0  0  0  3  0  0  0  0  0  0
   36.7370   26.1870   40.1490 C   0  0  0  0  0  3  0  0  0  0  0  0
   36.9110   26.8940   41.3180 C   0  0  0  0  0  0  0  0  0  0  0  0
   36.9450   26.3650   42.5910 C   0  0  0  0  0  3  0  0  0  0  0  0
   37.1250   27.1570   43.7110 C   0  0  0  0  0  3  0  0  0  0  0  0
   37.2760   28.5350   43.5210 C   0  0  0  0  0  3  0  0  0  0  0  0
   37.2390   29.0360   42.2430 C   0  0  0  0  0  3  0  0  0  0  0  0
   37.0600   28.2480   41.1370 C   0  0  0  0  0  0  0  0  0  0  0  0
  1  6  1  6  0  0  0
  1 11  1  0  0  0  0
  1  2  1  0  0  0  0
  2  3  1  0  0  0  0
  2  7  1  1  0  0  0
  4  9  1  0  0  0  0
  4  3  1  0  0  0  0
  5 10  1  6  0  0  0
  5 35  1  0  0  0  0
  5  1  1  0  0  0  0
  5  4  1  0  0  0  0
  8  4  1  0  0  0  0
 11 12  1  0  0  0  0
 13 18  1  0  0  0  0
 13  2  1  0  0  0  0
 14 19  1  1  0  0  0
 14 33  1  0  0  0  0
 15 20  1  6  0  0  0
 15 14  1  0  0  0  0
 16 15  1  0  0  0  0
 16 17  1  0  0  0  0
 17 21  1  0  0  0  0
 17 18  1  0  0  0  0
 18 14  1  0  0  0  0
 18 23  1  1  0  0  0
 22 17  1  0  0  0  0
 24 25  2  0  0  0  0
 24 29  1  0  0  0  0
 25 26  1  0  0  0  0
 26 15  1  0  0  0  0
 26 27  2  0  0  0  0
 28 27  1  0  0  0  0
 28 32  1  0  0  0  0
 29 28  2  0  0  0  0
 30 24  1  0  0  0  0
 31 25  1  0  0  0  0
 34 33  1  0  0  0  0
 35 36  1  0  0  0  0
 36 46  1  0  0  0  0
 37 39  1  0  0  0  0
 37 36  2  0  0  0  0
 38 37  1  0  0  0  0
 39 40  2  0  0  0  0
 40 41  1  0  0  0  0
 41 42  1  0  0  0  0
 42 43  2  0  0  0  0
 44 43  1  0  0  0  0
 45 44  2  0  0  0  0
 46 41  2  0  0  0  0
 46 45  1  0  0  0  0
M  END
>  <minimizedAffinity>
-6.53196812

$$$$

 OpenBabel03242516363D

 46 50  0  0  1  0  0  0  0  0999 V2000
   36.6730   31.0170   40.4600 C   0  0  1  0  0  0  0  0  0  0  0  0
   37.0940   29.4730   40.6060 C   0  0  1  0  0  0  0  0  0  0  0  0
   38.3710   29.5930   40.2130 O   0  0  0  0  0  0  0  0  0  0  0  0
   38.8500   30.5040   41.1820 C   0  0  0  0  0  0  0  0  0  0  0  0
   37.9350   31.7040   40.9330 C   0  0  1  0  0  0  0  0  0  0  0  0
   35.7860   31.2000   41.0410 H   0  0  0  0  0  0  0  0  0  0  0  0
   36.2910   29.0130   40.0340 H   0  0  0  0  0  0  0  0  0  0  0  0
   38.7530   30.1240   42.1980 H   0  0  0  0  0  0  0  0  0  0  0  0
   39.8950   30.7280   40.9290 H   0  0  0  0  0  0  0  0  0  0  0  0
   37.7720   32.1390   41.9460 H   0  0  0  0  0  0  0  0  0  0  0  0
   36.5760   31.2360   39.0880 O   0  0  0  0  0  0  0  0  0  0  0  0
   36.8960   30.4760   38.5530 H   0  0  0  0  0  0  0  0  0  0  0  0
   37.0480   29.2580   41.9850 O   0  0  0  0  0  0  0  0  0  0  0  0
   37.8500   27.0340   42.0740 C   0  0  2  0  0  0  0  0  0  0  0  0
   38.7950   27.5500   43.1890 C   0  0  1  0  0  0  0  0  0  0  0  0
   37.9890   27.3440   44.2710 O   0  0  0  0  0  0  0  0  0  0  0  0
   36.7680   27.9460   43.9090 C   0  0  0  0  0  0  0  0  0  0  0  0
   36.7180   27.9900   42.3670 C   0  0  1  0  0  0  0  0  0  0  0  0
   38.3020   27.1550   41.0880 H   0  0  0  0  0  0  0  0  0  0  0  0
   38.9260   28.6540   43.0290 H   0  0  0  0  0  0  0  0  0  0  0  0
   35.9590   27.2650   44.2160 H   0  0  0  0  0  0  0  0  0  0  0  0
   36.6740   28.9680   44.3020 H   0  0  0  0  0  0  0  0  0  0  0  0
   35.7640   27.6200   41.9590 H   0  0  0  0  0  0  0  0  0  0  0  0
   42.1680   25.9740   43.9560 C   0  0  0  0  0  0  0  0  0  0  0  0
   41.0530   26.7820   44.1490 C   0  0  0  0  0  0  0  0  0  0  0  0
   40.0610   26.8140   43.1970 C   0  0  0  0  0  0  0  0  0  0  0  0
   40.2310   26.0290   42.0910 N   0  0  0  0  0  0  0  0  0  0  0  0
   41.3150   25.2520   41.9180 C   0  0  0  0  0  0  0  0  0  0  0  0
   42.2810   25.2220   42.8440 N   0  0  0  0  0  0  0  0  0  0  0  0
   42.9100   25.9990   44.7440 H   0  0  0  0  0  0  0  0  0  0  0  0
   40.8580   27.4210   44.9910 H   0  0  0  0  0  0  0  0  0  0  0  0
   41.4590   24.6310   41.0510 H   0  0  0  0  0  0  0  0  0  0  0  0
   37.3880   25.7780   42.3770 O   0  0  0  0  0  0  0  0  0  0  0  0
   37.3160   25.7090   43.3610 H   0  0  0  0  0  0  0  0  0  0  0  0
   38.4680   32.5130   40.0030 O   0  0  0  0  0  0  0  0  0  0  0  0
   39.5080   33.0500   39.5220 C   0  0  0  0  0  0  0  0  0  0  0  0
   39.5520   34.3430   40.0990 C   0  0  0  0  0  0  0  0  0  0  0  0
   38.8870   34.8550   40.8110 H   0  0  0  0  0  0  0  0  0  0  0  0
   40.5630   35.2850   39.8290 C   0  0  0  0  0  3  0  0  0  0  0  0
   41.5550   34.8990   38.9450 C   0  0  0  0  0  3  0  0  0  0  0  0
   41.5960   33.6660   38.3340 C   0  0  0  0  0  0  0  0  0  0  0  0
   42.5590   33.2280   37.4480 C   0  0  0  0  0  3  0  0  0  0  0  0
   42.5180   31.9660   36.8830 C   0  0  0  0  0  3  0  0  0  0  0  0
   41.4570   31.1250   37.2370 C   0  0  0  0  0  3  0  0  0  0  0  0
   40.5120   31.5850   38.1210 C   0  0  0  0  0  3  0  0  0  0  0  0
   40.5560   32.8350   38.6780 C   0  0  0  0  0  0  0  0  0  0  0  0
  1  2  1  0  0  0  0
  1  5  1  0  0  0  0
  1  6  1  1  0  0  0
  2  7  1  6  0  0  0
  2 13  1  0  0  0  0
  3  2  1  0  0  0  0
  3  4  1  0  0  0  0
  4  8  1  0  0  0  0
  5  4  1  0  0  0  0
  5 10  1  1  0  0  0
  9  4  1  0  0  0  0
 11  1  1  0  0  0  0
 12 11  1  0  0  0  0
 13 18  1  0  0  0  0
 14 19  1  6  0  0  0
 14 18  1  0  0  0  0
 14 33  1  0  0  0  0
 14 15  1  0  0  0  0
 15 20  1  6  0  0  0
 15 26  1  0  0  0  0
 15 16  1  0  0  0  0
 17 21  1  0  0  0  0
 17 16  1  0  0  0  0
 17 22  1  0  0  0  0
 18 23  1  6  0  0  0
 18 17  1  0  0  0  0
 24 25  1  0  0  0  0
 24 30  1  0  0  0  0
 25 31  1  0  0  0  0
 26 25  2  0  0  0  0
 27 26  1  0  0  0  0
 28 27  2  0  0  0  0
 28 29  1  0  0  0  0
 29 24  2  0  0  0  0
 32 28  1  0  0  0  0
 33 34  1  0  0  0  0
 35  5  1  0  0  0  0
 36 35  1  0  0  0  0
 36 37  1  0  0  0  0
 37 38  1  0  0  0  0
 39 37  2  0  0  0  0
 40 39  1  0  0  0  0
 41 46  1  0  0  0  0
 41 40  2  0  0  0  0
 42 41  1  0  0  0  0
 43 44  1  0  0  0  0
 43 42  2  0  0  0  0
 44 45  2  0  0  0  0
 45 46  1  0  0  0  0
 46 36  2  0  0  0  0
M  END
>  <minimizedAffinity>
-6.49235392

$$$$

 OpenBabel03242516363D

 46 50  0  0  1  0  0  0  0  0999 V2000
   37.1550   30.1100   39.4980 C   0  0  1  0  0  0  0  0  0  0  0  0
   36.4980   31.2310   40.4440 C   0  0  1  0  0  0  0  0  0  0  0  0
   36.1690   30.4330   41.4710 O   0  0  0  0  0  0  0  0  0  0  0  0
   37.4440   29.9340   41.8230 C   0  0  0  0  0  0  0  0  0  0  0  0
   37.8590   29.2480   40.5210 C   0  0  1  0  0  0  0  0  0  0  0  0
   37.7830   30.5880   38.7650 H   0  0  0  0  0  0  0  0  0  0  0  0
   35.8030   31.6790   39.7360 H   0  0  0  0  0  0  0  0  0  0  0  0
   38.1390   30.7240   42.1050 H   0  0  0  0  0  0  0  0  0  0  0  0
   37.2970   29.2120   42.6370 H   0  0  0  0  0  0  0  0  0  0  0  0
   38.9600   29.4140   40.4630 H   0  0  0  0  0  0  0  0  0  0  0  0
   36.0790   29.3740   39.0100 O   0  0  0  0  0  0  0  0  0  0  0  0
   35.2250   29.6110   39.4360 H   0  0  0  0  0  0  0  0  0  0  0  0
   37.5870   32.0280   40.8010 O   0  0  0  0  0  0  0  0  0  0  0  0
   39.0890   33.8090   40.3940 C   0  0  2  0  0  0  0  0  0  0  0  0
   40.0780   32.7080   39.9310 C   0  0  1  0  0  0  0  0  0  0  0  0
   39.7330   32.6460   38.6130 O   0  0  0  0  0  0  0  0  0  0  0  0
   38.3300   32.5130   38.6300 C   0  0  0  0  0  0  0  0  0  0  0  0
   37.8330   33.0850   39.9750 C   0  0  1  0  0  0  0  0  0  0  0  0
   39.1730   33.9870   41.4680 H   0  0  0  0  0  0  0  0  0  0  0  0
   39.7730   31.7540   40.4400 H   0  0  0  0  0  0  0  0  0  0  0  0
   37.9250   33.1790   37.8520 H   0  0  0  0  0  0  0  0  0  0  0  0
   38.0100   31.4650   38.5430 H   0  0  0  0  0  0  0  0  0  0  0  0
   36.9870   33.7820   39.8560 H   0  0  0  0  0  0  0  0  0  0  0  0
   43.5400   33.3410   41.3650 C   0  0  0  0  0  0  0  0  0  0  0  0
   42.2140   32.9250   41.3450 C   0  0  0  0  0  0  0  0  0  0  0  0
   41.4650   33.0900   40.2030 C   0  0  0  0  0  0  0  0  0  0  0  0
   42.0830   33.6650   39.1280 N   0  0  0  0  0  0  0  0  0  0  0  0
   43.3670   34.0620   39.1620 C   0  0  0  0  0  0  0  0  0  0  0  0
   44.0960   33.9030   40.2750 N   0  0  0  0  0  0  0  0  0  0  0  0
   44.0700   33.1820   42.2960 H   0  0  0  0  0  0  0  0  0  0  0  0
   41.6700   32.4680   42.1520 H   0  0  0  0  0  0  0  0  0  0  0  0
   43.8630   34.5160   38.3220 H   0  0  0  0  0  0  0  0  0  0  0  0
   39.1900   34.9160   39.5890 O   0  0  0  0  0  0  0  0  0  0  0  0
   39.4280   34.6100   38.6800 H   0  0  0  0  0  0  0  0  0  0  0  0
   37.4360   27.9740   40.5090 O   0  0  0  0  0  0  0  0  0  0  0  0
   37.6230   26.7810   40.8870 C   0  0  0  0  0  0  0  0  0  0  0  0
   36.6970   26.0120   40.1400 C   0  0  0  0  0  0  0  0  0  0  0  0
   35.9480   26.2910   39.3830 H   0  0  0  0  0  0  0  0  0  0  0  0
   36.5700   24.6140   40.2550 C   0  0  0  0  0  3  0  0  0  0  0  0
   37.4100   23.9840   41.1570 C   0  0  0  0  0  3  0  0  0  0  0  0
   38.3400   24.6460   41.9260 C   0  0  0  0  0  0  0  0  0  0  0  0
   39.2000   24.0700   42.8370 C   0  0  0  0  0  3  0  0  0  0  0  0
   40.1050   24.8190   43.5680 C   0  0  0  0  0  3  0  0  0  0  0  0
   40.1300   26.2020   43.3580 C   0  0  0  0  0  3  0  0  0  0  0  0
   39.2630   26.7500   42.4450 C   0  0  0  0  0  3  0  0  0  0  0  0
   38.3680   26.0050   41.7240 C   0  0  0  0  0  0  0  0  0  0  0  0
  1  6  1  6  0  0  0
  1  2  1  0  0  0  0
  1  5  1  0  0  0  0
  2  7  1  6  0  0  0
  2 13  1  0  0  0  0
  2  3  1  0  0  0  0
  3  4  1  0  0  0  0
  4  8  1  0  0  0  0
  4  9  1  0  0  0  0
  5 10  1  6  0  0  0
  5  4  1  0  0  0  0
 11 12  1  0  0  0  0
 11  1  1  0  0  0  0
 14 19  1  1  0  0  0
 15 26  1  0  0  0  0
 15 14  1  0  0  0  0
 15 20  1  1  0  0  0
 16 17  1  0  0  0  0
 16 15  1  0  0  0  0
 17 18  1  0  0  0  0
 18 23  1  6  0  0  0
 18 14  1  0  0  0  0
 18 13  1  0  0  0  0
 21 17  1  0  0  0  0
 22 17  1  0  0  0  0
 24 30  1  0  0  0  0
 25 24  1  0  0  0  0
 25 31  1  0  0  0  0
 26 25  2  0  0  0  0
 27 28  2  0  0  0  0
 27 26  1  0  0  0  0
 28 29  1  0  0  0  0
 29 24  2  0  0  0  0
 32 28  1  0  0  0  0
 33 14  1  0  0  0  0
 34 33  1  0  0  0  0
 35  5  1  0  0  0  0
 35 36  1  0  0  0  0
 36 46  1  0  0  0  0
 37 39  1  0  0  0  0
 37 36  2  0  0  0  0
 38 37  1  0  0  0  0
 39 40  2  0  0  0  0
 40 41  1  0  0  0  0
 41 42  1  0  0  0  0
 42 43  2  0  0  0  0
 44 43  1  0  0  0  0
 45 44  2  0  0  0  0
 46 41  2  0  0  0  0
 46 45  1  0  0  0  0
M  END
>  <minimizedAffinity>
-6.48043203

$$$$

 OpenBabel03242516363D

 46 50  0  0  1  0  0  0  0  0999 V2000
   36.0050   29.7590   40.0990 C   0  0  1  0  0  0  0  0  0  0  0  0
   36.7880   30.7760   41.0660 C   0  0  1  0  0  0  0  0  0  0  0  0
   37.3680   29.8630   41.8610 O   0  0  0  0  0  0  0  0  0  0  0  0
   38.1230   29.1410   40.9090 C   0  0  0  0  0  0  0  0  0  0  0  0
   37.0180   28.6430   39.9760 C   0  0  1  0  0  0  0  0  0  0  0  0
   35.7440   30.2670   39.1870 H   0  0  0  0  0  0  0  0  0  0  0  0
   35.9650   31.4310   41.3430 H   0  0  0  0  0  0  0  0  0  0  0  0
   38.8440   29.7670   40.3850 H   0  0  0  0  0  0  0  0  0  0  0  0
   38.6130   28.3150   41.4410 H   0  0  0  0  0  0  0  0  0  0  0  0
   37.4840   28.6650   38.9640 H   0  0  0  0  0  0  0  0  0  0  0  0
   34.9500   29.2730   40.8670 O   0  0  0  0  0  0  0  0  0  0  0  0
   35.0000   29.5470   41.8090 H   0  0  0  0  0  0  0  0  0  0  0  0
   37.7490   31.3410   40.2260 O   0  0  0  0  0  0  0  0  0  0  0  0
   38.9280   33.1060   41.2710 C   0  0  2  0  0  0  0  0  0  0  0  0
   40.1280   32.6580   40.3980 C   0  0  1  0  0  0  0  0  0  0  0  0
   39.8890   33.4200   39.2920 O   0  0  0  0  0  0  0  0  0  0  0  0
   38.5360   33.1720   38.9880 C   0  0  0  0  0  0  0  0  0  0  0  0
   37.8540   32.7000   40.2910 C   0  0  1  0  0  0  0  0  0  0  0  0
   38.9060   32.5630   42.2180 H   0  0  0  0  0  0  0  0  0  0  0  0
   39.9680   31.5750   40.1440 H   0  0  0  0  0  0  0  0  0  0  0  0
   38.0690   34.1380   38.7380 H   0  0  0  0  0  0  0  0  0  0  0  0
   38.4160   32.3970   38.2170 H   0  0  0  0  0  0  0  0  0  0  0  0
   36.9060   33.2260   40.4920 H   0  0  0  0  0  0  0  0  0  0  0  0
   43.3930   32.5110   42.3360 C   0  0  0  0  0  0  0  0  0  0  0  0
   42.1910   32.0550   41.8070 C   0  0  0  0  0  0  0  0  0  0  0  0
   41.4020   32.9100   41.0740 C   0  0  0  0  0  0  0  0  0  0  0  0
   41.8560   34.1870   40.9020 N   0  0  0  0  0  0  0  0  0  0  0  0
   43.0220   34.6140   41.4200 C   0  0  0  0  0  0  0  0  0  0  0  0
   43.7900   33.7820   42.1350 N   0  0  0  0  0  0  0  0  0  0  0  0
   43.9640   31.7850   42.9030 H   0  0  0  0  0  0  0  0  0  0  0  0
   41.7780   31.0680   41.9040 H   0  0  0  0  0  0  0  0  0  0  0  0
   43.3880   35.6180   41.2910 H   0  0  0  0  0  0  0  0  0  0  0  0
   38.8810   34.4750   41.3580 O   0  0  0  0  0  0  0  0  0  0  0  0
   39.2300   34.8460   40.5110 H   0  0  0  0  0  0  0  0  0  0  0  0
   36.5460   27.4600   40.4020 O   0  0  0  0  0  0  0  0  0  0  0  0
   36.6890   26.2040   40.4440 C   0  0  0  0  0  0  0  0  0  0  0  0
   37.2870   25.9460   41.7030 C   0  0  0  0  0  0  0  0  0  0  0  0
   37.5950   26.6130   42.5230 H   0  0  0  0  0  0  0  0  0  0  0  0
   37.6220   24.6570   42.1590 C   0  0  0  0  0  3  0  0  0  0  0  0
   37.3390   23.6020   41.3090 C   0  0  0  0  0  3  0  0  0  0  0  0
   36.7600   23.7530   40.0690 C   0  0  0  0  0  0  0  0  0  0  0  0
   36.4560   22.7400   39.1840 C   0  0  0  0  0  3  0  0  0  0  0  0
   35.8720   22.9890   37.9560 C   0  0  0  0  0  3  0  0  0  0  0  0
   35.5890   24.3180   37.6230 C   0  0  0  0  0  3  0  0  0  0  0  0
   35.9020   25.3080   38.5220 C   0  0  0  0  0  3  0  0  0  0  0  0
   36.4800   25.0570   39.7380 C   0  0  0  0  0  0  0  0  0  0  0  0
  1  6  1  6  0  0  0
  1 11  1  0  0  0  0
  1  2  1  0  0  0  0
  2  7  1  1  0  0  0
  2  3  1  0  0  0  0
  4  9  1  0  0  0  0
  4  3  1  0  0  0  0
  5 10  1  6  0  0  0
  5  1  1  0  0  0  0
  5 35  1  0  0  0  0
  5  4  1  0  0  0  0
  8  4  1  0  0  0  0
 11 12  1  0  0  0  0
 13 18  1  0  0  0  0
 13  2  1  0  0  0  0
 14 33  1  0  0  0  0
 14 19  1  1  0  0  0
 15 20  1  6  0  0  0
 15 26  1  0  0  0  0
 15 14  1  0  0  0  0
 16 15  1  0  0  0  0
 17 16  1  0  0  0  0
 17 18  1  0  0  0  0
 18 23  1  1  0  0  0
 18 14  1  0  0  0  0
 21 17  1  0  0  0  0
 22 17  1  0  0  0  0
 24 30  1  0  0  0  0
 25 31  1  0  0  0  0
 25 24  2  0  0  0  0
 26 25  1  0  0  0  0
 27 26  2  0  0  0  0
 27 28  1  0  0  0  0
 28 29  2  0  0  0  0
 29 24  1  0  0  0  0
 32 28  1  0  0  0  0
 34 33  1  0  0  0  0
 35 36  1  0  0  0  0
 36 37  1  0  0  0  0
 37 39  2  0  0  0  0
 37 38  1  0  0  0  0
 40 39  1  0  0  0  0
 41 40  2  0  0  0  0
 42 41  1  0  0  0  0
 43 42  2  0  0  0  0
 44 43  1  0  0  0  0
 44 45  2  0  0  0  0
 45 46  1  0  0  0  0
 46 41  1  0  0  0  0
 46 36  2  0  0  0  0
M  END
>  <minimizedAffinity>
-6.34099865

$$$$

 OpenBabel03242516363D

 46 50  0  0  1  0  0  0  0  0999 V2000
   38.5080   30.3730   37.5840 C   0  0  1  0  0  0  0  0  0  0  0  0
   38.7650   31.7620   38.3510 C   0  0  1  0  0  0  0  0  0  0  0  0
   38.2190   31.4250   39.5290 O   0  0  0  0  0  0  0  0  0  0  0  0
   39.0270   30.3180   39.8760 C   0  0  0  0  0  0  0  0  0  0  0  0
   38.7600   29.3810   38.6960 C   0  0  1  0  0  0  0  0  0  0  0  0
   39.1640   30.3110   36.7330 H   0  0  0  0  0  0  0  0  0  0  0  0
   38.3390   32.4510   37.6240 H   0  0  0  0  0  0  0  0  0  0  0  0
   40.0810   30.5780   39.9560 H   0  0  0  0  0  0  0  0  0  0  0  0
   38.6350   29.9120   40.8170 H   0  0  0  0  0  0  0  0  0  0  0  0
   39.7340   28.8660   38.5300 H   0  0  0  0  0  0  0  0  0  0  0  0
   37.1410   30.3560   37.3200 O   0  0  0  0  0  0  0  0  0  0  0  0
   36.6550   31.0920   37.7540 H   0  0  0  0  0  0  0  0  0  0  0  0
   40.1550   31.8060   38.4760 O   0  0  0  0  0  0  0  0  0  0  0  0
   41.7240   33.4920   37.9350 C   0  0  2  0  0  0  0  0  0  0  0  0
   42.7720   32.5550   38.5910 C   0  0  1  0  0  0  0  0  0  0  0  0
   43.1240   31.8220   37.4970 O   0  0  0  0  0  0  0  0  0  0  0  0
   41.8940   31.3990   36.9550 C   0  0  0  0  0  0  0  0  0  0  0  0
   40.8160   32.3940   37.4370 C   0  0  1  0  0  0  0  0  0  0  0  0
   41.2710   34.1540   38.6750 H   0  0  0  0  0  0  0  0  0  0  0  0
   42.2210   31.8980   39.3170 H   0  0  0  0  0  0  0  0  0  0  0  0
   41.9510   31.5250   35.8620 H   0  0  0  0  0  0  0  0  0  0  0  0
   41.6200   30.3850   37.2810 H   0  0  0  0  0  0  0  0  0  0  0  0
   40.1660   32.7490   36.6200 H   0  0  0  0  0  0  0  0  0  0  0  0
   45.9380   34.4680   39.4650 C   0  0  0  0  0  0  0  0  0  0  0  0
   45.0670   33.7080   38.6920 C   0  0  0  0  0  0  0  0  0  0  0  0
   43.8540   33.3200   39.2130 C   0  0  0  0  0  0  0  0  0  0  0  0
   43.5680   33.7140   40.4890 N   0  0  0  0  0  0  0  0  0  0  0  0
   44.4200   34.4500   41.2260 C   0  0  0  0  0  0  0  0  0  0  0  0
   45.6010   34.8270   40.7190 N   0  0  0  0  0  0  0  0  0  0  0  0
   46.8740   34.7370   38.9930 H   0  0  0  0  0  0  0  0  0  0  0  0
   45.2300   33.3660   37.6860 H   0  0  0  0  0  0  0  0  0  0  0  0
   44.2040   34.7650   42.2320 H   0  0  0  0  0  0  0  0  0  0  0  0
   42.2510   34.0980   36.8230 O   0  0  0  0  0  0  0  0  0  0  0  0
   42.8970   33.4730   36.4130 H   0  0  0  0  0  0  0  0  0  0  0  0
   37.6960   28.6010   38.9510 O   0  0  0  0  0  0  0  0  0  0  0  0
   37.2450   27.4330   39.1310 C   0  0  0  0  0  0  0  0  0  0  0  0
   36.6730   27.0680   37.8870 C   0  0  0  0  0  0  0  0  0  0  0  0
   36.5900   27.6020   36.9290 H   0  0  0  0  0  0  0  0  0  0  0  0
   36.0510   25.8270   37.6480 C   0  0  0  0  0  3  0  0  0  0  0  0
   36.0100   24.9360   38.7060 C   0  0  0  0  0  3  0  0  0  0  0  0
   36.5370   25.2010   39.9500 C   0  0  0  0  0  0  0  0  0  0  0  0
   36.5260   24.3520   41.0360 C   0  0  0  0  0  3  0  0  0  0  0  0
   37.0840   24.7070   42.2510 C   0  0  0  0  0  3  0  0  0  0  0  0
   37.6730   25.9720   42.3560 C   0  0  0  0  0  3  0  0  0  0  0  0
   37.6710   26.7980   41.2590 C   0  0  0  0  0  3  0  0  0  0  0  0
   37.1170   26.4430   40.0580 C   0  0  0  0  0  0  0  0  0  0  0  0
  1  6  1  6  0  0  0
  1  2  1  0  0  0  0
  1  5  1  0  0  0  0
  2  7  1  6  0  0  0
  2 13  1  0  0  0  0
  2  3  1  0  0  0  0
  3  4  1  0  0  0  0
  4  8  1  0  0  0  0
  4  9  1  0  0  0  0
  5 10  1  6  0  0  0
  5 35  1  0  0  0  0
  5  4  1  0  0  0  0
 11  1  1  0  0  0  0
 11 12  1  0  0  0  0
 14 15  1  0  0  0  0
 14 19  1  1  0  0  0
 15 26  1  0  0  0  0
 15 20  1  1  0  0  0
 16 15  1  0  0  0  0
 17 22  1  0  0  0  0
 17 18  1  0  0  0  0
 17 16  1  0  0  0  0
 18 23  1  6  0  0  0
 18 14  1  0  0  0  0
 18 13  1  0  0  0  0
 21 17  1  0  0  0  0
 24 29  1  0  0  0  0
 25 26  1  0  0  0  0
 25 24  2  0  0  0  0
 26 27  2  0  0  0  0
 27 28  1  0  0  0  0
 28 32  1  0  0  0  0
 29 28  2  0  0  0  0
 30 24  1  0  0  0  0
 31 25  1  0  0  0  0
 33 14  1  0  0  0  0
 34 33  1  0  0  0  0
 35 36  1  0  0  0  0
 36 46  1  0  0  0  0
 37 36  2  0  0  0  0
 38 37  1  0  0  0  0
 39 37  1  0  0  0  0
 39 40  2  0  0  0  0
 40 41  1  0  0  0  0
 41 46  2  0  0  0  0
 41 42  1  0  0  0  0
 42 43  2  0  0  0  0
 43 44  1  0  0  0  0
 45 44  2  0  0  0  0
 46 45  1  0  0  0  0
M  END
>  <minimizedAffinity>
-6.34058523

$$$$

 OpenBabel03242516363D

 46 50  0  0  1  0  0  0  0  0999 V2000
   38.9650   29.6870   37.9090 C   0  0  1  0  0  0  0  0  0  0  0  0
   38.9100   31.2900   38.0100 C   0  0  1  0  0  0  0  0  0  0  0  0
   38.1670   31.3770   39.1250 O   0  0  0  0  0  0  0  0  0  0  0  0
   38.9960   30.6840   40.0370 C   0  0  0  0  0  0  0  0  0  0  0  0
   39.0810   29.3110   39.3680 C   0  0  1  0  0  0  0  0  0  0  0  0
   39.7880   29.4000   37.2760 H   0  0  0  0  0  0  0  0  0  0  0  0
   38.5760   31.5240   37.0010 H   0  0  0  0  0  0  0  0  0  0  0  0
   39.9770   31.1440   40.1440 H   0  0  0  0  0  0  0  0  0  0  0  0
   38.4600   30.6400   40.9940 H   0  0  0  0  0  0  0  0  0  0  0  0
   40.1170   28.9630   39.5880 H   0  0  0  0  0  0  0  0  0  0  0  0
   37.6930   29.3090   37.4860 O   0  0  0  0  0  0  0  0  0  0  0  0
   37.0530   30.0560   37.4750 H   0  0  0  0  0  0  0  0  0  0  0  0
   40.2310   31.6380   38.3010 O   0  0  0  0  0  0  0  0  0  0  0  0
   41.7390   33.3950   37.8180 C   0  0  2  0  0  0  0  0  0  0  0  0
   42.8000   32.5150   38.5280 C   0  0  1  0  0  0  0  0  0  0  0  0
   43.2370   31.7930   37.4560 O   0  0  0  0  0  0  0  0  0  0  0  0
   42.0540   31.3080   36.8630 C   0  0  0  0  0  0  0  0  0  0  0  0
   40.9090   32.2510   37.2880 C   0  0  1  0  0  0  0  0  0  0  0  0
   41.2220   34.0390   38.5320 H   0  0  0  0  0  0  0  0  0  0  0  0
   42.2490   31.8350   39.2340 H   0  0  0  0  0  0  0  0  0  0  0  0
   42.1560   31.4300   35.7730 H   0  0  0  0  0  0  0  0  0  0  0  0
   41.8160   30.2830   37.1850 H   0  0  0  0  0  0  0  0  0  0  0  0
   40.2810   32.5700   36.4400 H   0  0  0  0  0  0  0  0  0  0  0  0
   45.0000   34.4760   40.9280 C   0  0  0  0  0  0  0  0  0  0  0  0
   43.9170   33.7110   40.5110 C   0  0  0  0  0  0  0  0  0  0  0  0
   43.8150   33.3350   39.1910 C   0  0  0  0  0  0  0  0  0  0  0  0
   44.8090   33.7440   38.3470 N   0  0  0  0  0  0  0  0  0  0  0  0
   45.8520   34.4840   38.7650 C   0  0  0  0  0  0  0  0  0  0  0  0
   45.9490   34.8510   40.0500 N   0  0  0  0  0  0  0  0  0  0  0  0
   45.0150   34.7360   41.9790 H   0  0  0  0  0  0  0  0  0  0  0  0
   43.1040   33.3580   41.1200 H   0  0  0  0  0  0  0  0  0  0  0  0
   46.6390   34.8110   38.1090 H   0  0  0  0  0  0  0  0  0  0  0  0
   42.2860   34.0200   36.7260 O   0  0  0  0  0  0  0  0  0  0  0  0
   42.9800   33.4250   36.3500 H   0  0  0  0  0  0  0  0  0  0  0  0
   38.0750   28.5250   39.7860 O   0  0  0  0  0  0  0  0  0  0  0  0
   37.7210   27.4430   40.3380 C   0  0  0  0  0  0  0  0  0  0  0  0
   38.1060   27.5820   41.6940 C   0  0  0  0  0  0  0  0  0  0  0  0
   38.6020   28.3990   42.2390 H   0  0  0  0  0  0  0  0  0  0  0  0
   37.8940   26.5910   42.6720 C   0  0  0  0  0  3  0  0  0  0  0  0
   37.2730   25.4270   42.2540 C   0  0  0  0  0  3  0  0  0  0  0  0
   36.8640   25.2000   40.9600 C   0  0  0  0  0  0  0  0  0  0  0  0
   36.2410   24.0630   40.4900 C   0  0  0  0  0  3  0  0  0  0  0  0
   35.8640   23.9250   39.1660 C   0  0  0  0  0  3  0  0  0  0  0  0
   36.1330   24.9870   38.2950 C   0  0  0  0  0  3  0  0  0  0  0  0
   36.7540   26.1090   38.7880 C   0  0  0  0  0  3  0  0  0  0  0  0
   37.1250   26.2400   40.1000 C   0  0  0  0  0  0  0  0  0  0  0  0
  1  6  1  6  0  0  0
  1  2  1  0  0  0  0
  1  5  1  0  0  0  0
  2  7  1  6  0  0  0
  2 13  1  0  0  0  0
  2  3  1  0  0  0  0
  3  4  1  0  0  0  0
  4  8  1  0  0  0  0
  4  9  1  0  0  0  0
  5 10  1  1  0  0  0
  5 35  1  0  0  0  0
  5  4  1  0  0  0  0
 11  1  1  0  0  0  0
 12 11  1  0  0  0  0
 14 15  1  0  0  0  0
 14 19  1  1  0  0  0
 15 26  1  0  0  0  0
 15 20  1  1  0  0  0
 16 15  1  0  0  0  0
 17 22  1  0  0  0  0
 17 18  1  0  0  0  0
 17 16  1  0  0  0  0
 18 23  1  6  0  0  0
 18 14  1  0  0  0  0
 18 13  1  0  0  0  0
 21 17  1  0  0  0  0
 24 30  1  0  0  0  0
 25 24  1  0  0  0  0
 25 31  1  0  0  0  0
 26 25  2  0  0  0  0
 27 28  2  0  0  0  0
 27 26  1  0  0  0  0
 28 29  1  0  0  0  0
 29 24  2  0  0  0  0
 32 28  1  0  0  0  0
 33 14  1  0  0  0  0
 34 33  1  0  0  0  0
 35 36  1  0  0  0  0
 36 37  1  0  0  0  0
 37 38  1  0  0  0  0
 37 39  2  0  0  0  0
 40 39  1  0  0  0  0
 41 40  2  0  0  0  0
 42 41  1  0  0  0  0
 43 42  2  0  0  0  0
 44 45  2  0  0  0  0
 44 43  1  0  0  0  0
 45 46  1  0  0  0  0
 46 36  2  0  0  0  0
 46 41  1  0  0  0  0
M  END
>  <minimizedAffinity>
-6.32657051

$$$$

 OpenBabel03242516363D

 46 50  0  0  1  0  0  0  0  0999 V2000
   37.3980   30.1840   41.5930 C   0  0  1  0  0  0  0  0  0  0  0  0
   38.9490   30.4580   41.9130 C   0  0  1  0  0  0  0  0  0  0  0  0
   39.3850   29.1930   41.8050 O   0  0  0  0  0  0  0  0  0  0  0  0
   39.0240   28.9150   40.4660 C   0  0  0  0  0  0  0  0  0  0  0  0
   37.5100   29.1220   40.5220 C   0  0  1  0  0  0  0  0  0  0  0  0
   36.9280   31.1070   41.3000 H   0  0  0  0  0  0  0  0  0  0  0  0
   38.8450   31.0200   42.8400 H   0  0  0  0  0  0  0  0  0  0  0  0
   39.5000   29.5900   39.7560 H   0  0  0  0  0  0  0  0  0  0  0  0
   39.2870   27.8680   40.2700 H   0  0  0  0  0  0  0  0  0  0  0  0
   37.2570   29.5580   39.5290 H   0  0  0  0  0  0  0  0  0  0  0  0
   36.8980   29.5650   42.7360 O   0  0  0  0  0  0  0  0  0  0  0  0
   37.5990   29.3320   43.3850 H   0  0  0  0  0  0  0  0  0  0  0  0
   39.3790   31.1970   40.8090 O   0  0  0  0  0  0  0  0  0  0  0  0
   41.2960   32.5810   40.8720 C   0  0  2  0  0  0  0  0  0  0  0  0
   41.2500   32.5070   39.3240 C   0  0  1  0  0  0  0  0  0  0  0  0
   40.4380   33.5760   39.0800 O   0  0  0  0  0  0  0  0  0  0  0  0
   39.3330   33.3700   39.9290 C   0  0  0  0  0  0  0  0  0  0  0  0
   39.8060   32.4630   41.0840 C   0  0  1  0  0  0  0  0  0  0  0  0
   41.8800   31.7570   41.2870 H   0  0  0  0  0  0  0  0  0  0  0  0
   40.7080   31.5600   39.0530 H   0  0  0  0  0  0  0  0  0  0  0  0
   39.0840   34.3390   40.3900 H   0  0  0  0  0  0  0  0  0  0  0  0
   38.4920   32.8860   39.4100 H   0  0  0  0  0  0  0  0  0  0  0  0
   39.5100   32.8430   42.0760 H   0  0  0  0  0  0  0  0  0  0  0  0
   44.5650   31.9660   37.5470 C   0  0  0  0  0  0  0  0  0  0  0  0
   43.3010   31.6510   38.0320 C   0  0  0  0  0  0  0  0  0  0  0  0
   42.5920   32.5900   38.7460 C   0  0  0  0  0  0  0  0  0  0  0  0
   43.1850   33.8050   38.9410 N   0  0  0  0  0  0  0  0  0  0  0  0
   44.4090   34.0950   38.4650 C   0  0  0  0  0  0  0  0  0  0  0  0
   45.0990   33.1810   37.7700 N   0  0  0  0  0  0  0  0  0  0  0  0
   45.0650   31.1800   36.9940 H   0  0  0  0  0  0  0  0  0  0  0  0
   42.7790   30.7190   37.9150 H   0  0  0  0  0  0  0  0  0  0  0  0
   44.8850   35.0490   38.6130 H   0  0  0  0  0  0  0  0  0  0  0  0
   41.6510   33.8410   41.2830 O   0  0  0  0  0  0  0  0  0  0  0  0
   41.3020   34.4860   40.6220 H   0  0  0  0  0  0  0  0  0  0  0  0
   36.8950   27.9760   40.8580 O   0  0  0  0  0  0  0  0  0  0  0  0
   36.7760   26.7310   40.6690 C   0  0  0  0  0  0  0  0  0  0  0  0
   37.1400   26.1390   41.9050 C   0  0  0  0  0  0  0  0  0  0  0  0
   37.4640   26.5730   42.8620 H   0  0  0  0  0  0  0  0  0  0  0  0
   37.1470   24.7490   42.1320 C   0  0  0  0  0  3  0  0  0  0  0  0
   36.7740   23.9420   41.0720 C   0  0  0  0  0  3  0  0  0  0  0  0
   36.4050   24.4240   39.8360 C   0  0  0  0  0  0  0  0  0  0  0  0
   36.0240   23.6680   38.7480 C   0  0  0  0  0  3  0  0  0  0  0  0
   35.6690   24.2440   37.5410 C   0  0  0  0  0  3  0  0  0  0  0  0
   35.7040   25.6400   37.4470 C   0  0  0  0  0  3  0  0  0  0  0  0
   36.0870   26.3690   38.5460 C   0  0  0  0  0  3  0  0  0  0  0  0
   36.4380   25.7950   39.7380 C   0  0  0  0  0  0  0  0  0  0  0  0
  1  6  1  6  0  0  0
  1  2  1  0  0  0  0
  1 11  1  0  0  0  0
  2  7  1  1  0  0  0
  3  2  1  0  0  0  0
  4  5  1  0  0  0  0
  4  3  1  0  0  0  0
  5 10  1  6  0  0  0
  5 35  1  0  0  0  0
  5  1  1  0  0  0  0
  8  4  1  0  0  0  0
  9  4  1  0  0  0  0
 11 12  1  0  0  0  0
 13 18  1  0  0  0  0
 13  2  1  0  0  0  0
 14 18  1  0  0  0  0
 14 33  1  0  0  0  0
 14 19  1  1  0  0  0
 15 20  1  6  0  0  0
 15 14  1  0  0  0  0
 16 15  1  0  0  0  0
 16 17  1  0  0  0  0
 17 21  1  0  0  0  0
 17 18  1  0  0  0  0
 18 23  1  1  0  0  0
 22 17  1  0  0  0  0
 24 29  2  0  0  0  0
 24 25  1  0  0  0  0
 25 26  2  0  0  0  0
 26 27  1  0  0  0  0
 26 15  1  0  0  0  0
 28 32  1  0  0  0  0
 28 27  2  0  0  0  0
 29 28  1  0  0  0  0
 30 24  1  0  0  0  0
 31 25  1  0  0  0  0
 34 33  1  0  0  0  0
 36 35  1  0  0  0  0
 36 37  1  0  0  0  0
 37 39  2  0  0  0  0
 37 38  1  0  0  0  0
 40 39  1  0  0  0  0
 41 40  2  0  0  0  0
 42 41  1  0  0  0  0
 43 42  2  0  0  0  0
 44 43  1  0  0  0  0
 44 45  2  0  0  0  0
 45 46  1  0  0  0  0
 46 41  1  0  0  0  0
 46 36  2  0  0  0  0
M  END
>  <minimizedAffinity>
-6.32022858

$$$$
