
 OpenBabel03242516233D

 31 34  0  0  0  0  0  0  0  0999 V2000
   46.2240   32.6600   47.0450 C   0  0  0  0  0  0  0  0  0  0  0  0
   47.4380   32.0370   47.3090 C   0  0  0  0  0  0  0  0  0  0  0  0
   47.6280   31.2700   48.4410 C   0  0  0  0  0  0  0  0  0  0  0  0
   46.5800   31.1150   49.3470 C   0  0  0  0  0  0  0  0  0  0  0  0
   45.3840   31.7230   49.0980 C   0  0  0  0  0  0  0  0  0  0  0  0
   45.2290   32.4810   47.9560 C   0  0  0  0  0  0  0  0  0  0  0  0
   48.2670   32.1440   46.6180 H   0  0  0  0  0  0  0  0  0  0  0  0
   46.7210   30.5110   50.2470 H   0  0  0  0  0  0  0  0  0  0  0  0
   44.5390   31.6320   49.7720 H   0  0  0  0  0  0  0  0  0  0  0  0
   44.2870   32.9550   47.7700 H   0  0  0  0  0  0  0  0  0  0  0  0
   44.8840   35.1800   44.7640 C   0  0  0  0  0  0  0  0  0  0  0  0
   45.6860   35.0460   43.6170 C   0  0  0  0  0  0  0  0  0  0  0  0
   46.6880   34.0900   43.6220 C   0  0  0  0  0  0  0  0  0  0  0  0
   46.8630   33.3130   44.7360 N   0  0  0  0  0  0  0  0  0  0  0  0
   46.0730   33.4660   45.8280 C   0  0  0  0  0  0  0  0  0  0  0  0
   45.0740   34.4060   45.8490 N   0  0  0  0  0  0  0  0  0  0  0  0
   44.1120   35.9480   44.7050 H   0  0  0  0  0  0  0  0  0  0  0  0
   45.5600   35.6510   42.7290 H   0  0  0  0  0  0  0  0  0  0  0  0
   47.3640   33.8980   42.7970 H   0  0  0  0  0  0  0  0  0  0  0  0
   49.2010   30.5070   48.7210 S   0  0  0  0  0  0  0  0  0  0  0  0
   50.1770   31.5570   49.7880 C   0  0  0  0  0  0  0  0  0  0  0  0
   50.4790   32.8850   49.5420 C   0  0  0  0  0  0  0  0  0  0  0  0
   50.0830   33.3020   48.6250 H   0  0  0  0  0  0  0  0  0  0  0  0
   51.2520   33.5970   50.4540 C   0  0  0  0  0  0  0  0  0  0  0  0
   51.7150   32.9910   51.5950 C   0  0  0  0  0  0  0  0  0  0  0  0
   51.4080   31.6800   51.8220 C   0  0  0  0  0  0  0  0  0  0  0  0
   51.8880   31.1000   52.9770 C   0  0  0  0  0  0  0  0  0  0  0  0
   51.5940   29.7680   53.2390 C   0  0  0  0  0  0  0  0  0  0  0  0
   50.8380   28.9960   52.3890 C   0  0  0  0  0  0  0  0  0  0  0  0
   50.3810   29.6250   51.2470 C   0  0  0  0  0  0  0  0  0  0  0  0
   50.6450   30.9470   50.9400 C   0  0  0  0  0  0  0  0  0  0  0  0
  1  2  2  0  0  0  0
  1  6  1  0  0  0  0
  2  3  1  0  0  0  0
  3 20  1  0  0  0  0
  3  4  2  0  0  0  0
  4  8  1  0  0  0  0
  5  4  1  0  0  0  0
  5  9  1  0  0  0  0
  6  5  2  0  0  0  0
  7  2  1  0  0  0  0
 10  6  1  0  0  0  0
 11 16  1  0  0  0  0
 12 13  1  0  0  0  0
 12 11  2  0  0  0  0
 13 14  2  0  0  0  0
 14 15  1  0  0  0  0
 15 16  2  0  0  0  0
 15  1  1  0  0  0  0
 17 11  1  0  0  0  0
 18 12  1  0  0  0  0
 19 13  1  0  0  0  0
 20 21  1  0  0  0  0
 21 31  1  0  0  0  0
 22 21  2  0  0  0  0
 22 24  1  0  0  0  0
 23 22  1  0  0  0  0
 24 25  2  0  0  0  0
 25 26  1  0  0  0  0
 26 27  1  0  0  0  0
 27 28  2  0  0  0  0
 29 28  1  0  0  0  0
 30 29  2  0  0  0  0
 31 30  1  0  0  0  0
 31 26  2  0  0  0  0
M  END
>  <minimizedAffinity>
-6.70423603

>  <minimizedRMSD>
1.07001758

$$$$
