
 OpenBabel03252503593D

 36 40  0  0  1  0  0  0  0  0999 V2000
   46.5790   34.8690   42.5880 C   0  0  0  0  0  0  0  0  0  0  0  0
   45.7660   35.9910   42.6430 C   0  0  0  0  0  0  0  0  0  0  0  0
   44.9170   36.1140   43.7300 C   0  0  0  0  0  0  0  0  0  0  0  0
   44.9220   35.1440   44.6760 N   0  0  0  0  0  0  0  0  0  0  0  0
   45.7390   34.0520   44.5840 C   0  0  0  0  0  0  0  0  0  0  0  0
   46.5660   33.9200   43.5380 N   0  0  0  0  0  0  0  0  0  0  0  0
   45.7290   36.7850   41.9160 H   0  0  0  0  0  0  0  0  0  0  0  0
   44.2570   36.9690   43.8300 H   0  0  0  0  0  0  0  0  0  0  0  0
   46.0010   31.7200   45.2130 C   0  0  0  0  0  0  0  0  0  0  0  0
   45.7220   33.0240   45.6180 C   0  0  0  0  0  0  0  0  0  0  0  0
   45.4500   33.2740   46.9380 C   0  0  0  0  0  0  0  0  0  0  0  0
   45.4570   32.2350   47.8370 C   0  0  0  0  0  0  0  0  0  0  0  0
   45.2310   32.1840   49.1670 N   0  0  0  0  0  0  0  0  0  0  0  0
   45.3520   30.9290   49.6180 C   0  0  0  0  0  0  0  0  0  0  0  0
   45.6670   30.1150   48.5650 C   0  0  0  0  0  0  0  0  0  0  0  0
   45.7340   30.9330   47.4430 C   0  0  0  0  0  0  0  0  0  0  0  0
   46.0080   30.6750   46.1150 C   0  0  0  0  0  0  0  0  0  0  0  0
   46.2290   31.4140   44.1860 H   0  0  0  0  0  0  0  0  0  0  0  0
   45.2350   34.2910   47.2350 H   0  0  0  0  0  0  0  0  0  0  0  0
   44.9940   33.0070   49.7760 H   0  0  0  0  0  0  0  0  0  0  0  0
   45.2230   30.5970   50.6500 H   0  0  0  0  0  0  0  0  0  0  0  0
   45.8440   29.0320   48.5400 H   0  0  0  0  0  0  0  0  0  0  0  0
   46.2210   29.6490   45.8360 H   0  0  0  0  0  0  0  0  0  0  0  0
   47.4510   34.7880   41.4220 C   0  0  2  0  0  3  0  0  0  0  0  0
   48.5270   35.4800   41.2950 O   0  0  0  0  0  1  0  0  0  0  0  0
   46.9080   33.8250   40.4670 C   0  0  0  0  0  0  0  0  0  0  0  0
   45.8980   32.9310   40.8290 C   0  0  0  0  0  0  0  0  0  0  0  0
   45.5080   32.9520   41.8580 H   0  0  0  0  0  0  0  0  0  0  0  0
   45.3330   32.0000   39.9840 C   0  0  0  0  0  3  0  0  0  0  0  0
   45.7870   31.9330   38.6880 C   0  0  0  0  0  3  0  0  0  0  0  0
   46.7830   32.7890   38.2710 C   0  0  0  0  0  0  0  0  0  0  0  0
   47.2200   32.7000   36.9650 C   0  0  0  0  0  3  0  0  0  0  0  0
   48.2170   33.5310   36.4910 C   0  0  0  0  0  3  0  0  0  0  0  0
   48.7360   34.4360   37.3890 C   0  0  0  0  0  3  0  0  0  0  0  0
   48.2980   34.5250   38.6940 C   0  0  0  0  0  3  0  0  0  0  0  0
   47.3050   33.6980   39.1680 C   0  0  0  0  0  0  0  0  0  0  0  0
  1  2  2  0  0  0  0
  1  6  1  0  0  0  0
  2  3  1  0  0  0  0
  3  8  1  0  0  0  0
  3  4  2  0  0  0  0
  5  4  1  0  0  0  0
  5 10  1  0  0  0  0
  6  5  2  0  0  0  0
  7  2  1  0  0  0  0
  9 10  2  0  0  0  0
  9 17  1  0  0  0  0
 10 11  1  0  0  0  0
 11 19  1  0  0  0  0
 11 12  2  0  0  0  0
 12 13  1  0  0  0  0
 13 14  1  0  0  0  0
 13 20  1  0  0  0  0
 14 21  1  0  0  0  0
 15 14  2  0  0  0  0
 16 12  1  0  0  0  0
 16 15  1  0  0  0  0
 17 16  2  0  0  0  0
 18  9  1  0  0  0  0
 22 15  1  0  0  0  0
 23 17  1  0  0  0  0
 24 25  1  6  0  0  0
 24  1  1  0  0  0  0
 26 27  1  0  0  0  0
 26 24  1  0  0  0  0
 27 28  1  0  0  0  0
 29 27  2  0  0  0  0
 30 29  1  0  0  0  0
 31 30  2  0  0  0  0
 31 36  1  0  0  0  0
 32 31  1  0  0  0  0
 33 32  2  0  0  0  0
 33 34  1  0  0  0  0
 34 35  2  0  0  0  0
 35 36  1  0  0  0  0
 36 26  2  0  0  0  0
M  END
>  <minimizedAffinity>
-6.8819418

>  <minimizedRMSD>
0.985301197

$$$$
