
 OpenBabel03242516523D

 47 51  0  0  1  0  0  0  0  0999 V2000
   47.7500   32.7230   41.6250 C   0  0  1  0  0  0  0  0  0  0  0  0
   47.3880   32.1630   40.3200 C   0  0  0  0  0  0  0  0  0  0  0  0
   48.4050   32.7040   39.3190 C   0  0  0  0  0  0  0  0  0  0  0  0
   48.1100   34.1840   39.1620 C   0  0  0  0  0  0  0  0  0  0  0  0
   48.0900   34.9380   40.4610 C   0  0  0  0  0  0  0  0  0  0  0  0
   47.5930   34.2470   41.6560 C   0  0  1  0  0  0  0  0  0  0  0  0
   48.8650   32.5950   41.7740 H   0  0  0  0  0  0  0  0  0  0  0  0
   47.5230   31.0590   40.3480 H   0  0  0  0  0  0  0  0  0  0  0  0
   46.3810   32.4230   39.9570 H   0  0  0  0  0  0  0  0  0  0  0  0
   48.2930   32.2460   38.3330 H   0  0  0  0  0  0  0  0  0  0  0  0
   49.4200   32.5890   39.7570 H   0  0  0  0  0  0  0  0  0  0  0  0
   47.0960   34.2860   38.7070 H   0  0  0  0  0  0  0  0  0  0  0  0
   48.8840   34.6050   38.4920 H   0  0  0  0  0  0  0  0  0  0  0  0
   49.1350   35.3210   40.6200 H   0  0  0  0  0  0  0  0  0  0  0  0
   47.4730   35.8580   40.2850 H   0  0  0  0  0  0  0  0  0  0  0  0
   48.2160   34.5730   42.5410 H   0  0  0  0  0  0  0  0  0  0  0  0
   45.2360   30.8170   43.7150 C   0  0  0  0  0  0  0  0  0  0  0  0
   45.9200   31.4000   42.6450 C   0  0  0  0  0  0  0  0  0  0  0  0
   47.0980   32.1400   42.7790 C   0  0  0  0  0  0  0  0  0  0  0  0
   47.5590   32.2710   44.0310 N   0  0  0  0  0  0  0  0  0  0  0  0
   46.9040   31.7090   45.0850 C   0  0  0  0  0  0  0  0  0  0  0  0
   45.7840   31.0070   44.9450 N   0  0  0  0  0  0  0  0  0  0  0  0
   44.3380   30.2680   43.5010 H   0  0  0  0  0  0  0  0  0  0  0  0
   45.5330   31.2840   41.6410 H   0  0  0  0  0  0  0  0  0  0  0  0
   47.2580   31.8010   46.1030 H   0  0  0  0  0  0  0  0  0  0  0  0
   46.2290   34.6430   42.0100 C   0  0  0  0  0  0  0  0  0  0  0  0
   45.8100   35.1500   43.2410 C   0  0  0  0  0  0  0  0  0  0  0  0
   44.4600   35.4760   43.3460 C   0  0  0  0  0  0  0  0  0  0  0  0
   43.6560   35.2760   42.2430 C   0  0  0  0  0  0  0  0  0  0  0  0
   44.0880   34.7710   41.0260 C   0  0  0  0  0  0  0  0  0  0  0  0
   45.4070   34.4580   40.9420 N   0  0  0  0  0  0  0  0  0  0  0  0
   46.5480   35.2430   43.9880 H   0  0  0  0  0  0  0  0  0  0  0  0
   44.1240   35.8620   44.2740 H   0  0  0  0  0  0  0  0  0  0  0  0
   42.6060   35.5350   42.3400 H   0  0  0  0  0  0  0  0  0  0  0  0
   43.1530   34.5960   39.9230 C   0  0  0  0  0  0  0  0  0  0  0  0
   42.7660   35.6060   39.3010 O   0  0  0  0  0  0  0  0  0  0  0  0
   42.5160   33.4340   39.3300 C   0  0  0  0  0  0  0  0  0  0  0  0
   43.1320   32.6030   38.4190 C   0  0  0  0  0  0  0  0  0  0  0  0
   44.1430   32.7850   38.1280 H   0  0  0  0  0  0  0  0  0  0  0  0
   42.5510   31.5150   37.8020 C   0  0  0  0  0  3  0  0  0  0  0  0
   41.2400   31.2230   38.1170 C   0  0  0  0  0  3  0  0  0  0  0  0
   40.5610   32.0120   39.0200 C   0  0  0  0  0  0  0  0  0  0  0  0
   39.2710   31.6680   39.2940 C   0  0  0  0  0  3  0  0  0  0  0  0
   38.5310   32.4060   40.1960 C   0  0  0  0  0  3  0  0  0  0  0  0
   39.1420   33.5030   40.8090 C   0  0  0  0  0  3  0  0  0  0  0  0
   40.4440   33.7960   40.4880 C   0  0  0  0  0  3  0  0  0  0  0  0
   41.2090   33.0830   39.5940 C   0  0  0  0  0  0  0  0  0  0  0  0
  1  6  1  0  0  0  0
  1  7  1  1  0  0  0
  1 19  1  0  0  0  0
  2  8  1  0  0  0  0
  2  1  1  0  0  0  0
  3 11  1  0  0  0  0
  3  2  1  0  0  0  0
  4  3  1  0  0  0  0
  4  5  1  0  0  0  0
  5 14  1  0  0  0  0
  5  6  1  0  0  0  0
  6 26  1  0  0  0  0
  6 16  1  1  0  0  0
  9  2  1  0  0  0  0
 10  3  1  0  0  0  0
 12  4  1  0  0  0  0
 13  4  1  0  0  0  0
 15  5  1  0  0  0  0
 17 22  1  0  0  0  0
 18 19  1  0  0  0  0
 18 17  2  0  0  0  0
 19 20  2  0  0  0  0
 20 21  1  0  0  0  0
 21 25  1  0  0  0  0
 22 21  2  0  0  0  0
 23 17  1  0  0  0  0
 24 18  1  0  0  0  0
 26 27  1  0  0  0  0
 27 28  2  0  0  0  0
 27 32  1  0  0  0  0
 28 33  1  0  0  0  0
 29 34  1  0  0  0  0
 29 28  1  0  0  0  0
 30 29  2  0  0  0  0
 31 30  1  0  0  0  0
 31 26  2  0  0  0  0
 35 30  1  0  0  0  0
 36 35  2  0  0  0  0
 37 47  1  0  0  0  0
 37 35  1  0  0  0  0
 38 37  2  0  0  0  0
 39 38  1  0  0  0  0
 40 41  2  0  0  0  0
 40 38  1  0  0  0  0
 41 42  1  0  0  0  0
 42 43  2  0  0  0  0
 42 47  1  0  0  0  0
 43 44  1  0  0  0  0
 44 45  2  0  0  0  0
 46 45  1  0  0  0  0
 47 46  2  0  0  0  0
M  END
>  <minimizedAffinity>
-6.32003117

>  <minimizedRMSD>
1.26476789

$$$$
