
 OpenBabel03252500263D

 39 42  0  0  1  0  0  0  0  0999 V2000
   37.4580   29.5650   38.7010 C   0  0  2  0  0  0  0  0  0  0  0  0
   37.9980   30.9390   38.7950 C   0  0  2  0  0  0  0  0  0  0  0  0
   38.2090   31.3280   37.3760 C   0  0  0  0  0  0  0  0  0  0  0  0
   37.2710   30.6550   36.6160 O   0  0  0  0  0  0  0  0  0  0  0  0
   36.6520   29.7320   37.3950 C   0  0  0  0  0  0  0  0  0  0  0  0
   38.0090   28.6920   38.5190 H   0  0  0  0  0  0  0  0  0  0  0  0
   37.2110   31.5280   39.3370 H   0  0  0  0  0  0  0  0  0  0  0  0
   39.2190   31.3670   37.0110 H   0  0  0  0  0  0  0  0  0  0  0  0
   37.8610   32.4060   37.3210 H   0  0  0  0  0  0  0  0  0  0  0  0
   35.6400   30.1610   37.6550 H   0  0  0  0  0  0  0  0  0  0  0  0
   36.4460   28.7840   36.9030 H   0  0  0  0  0  0  0  0  0  0  0  0
   39.1410   31.0530   39.5540 O   0  0  0  0  0  0  0  0  0  0  0  0
   37.5410   32.6410   40.7950 O   0  0  0  0  0  0  0  0  0  0  0  0
   39.0040   32.3630   40.5750 P   0  0  1  0  0  0  0  0  0  0  0  0
   39.7170   31.9880   42.0660 O   0  0  0  0  0  0  0  0  0  0  0  0
   40.5590   32.4480   42.2170 H   0  0  0  0  0  0  0  0  0  0  0  0
   39.7140   33.7730   39.9150 O   0  0  0  0  0  0  0  0  0  0  0  0
   42.5940   34.1920   37.8450 C   0  0  0  0  0  0  0  0  0  0  0  0
   43.6900   33.9730   38.7280 C   0  0  0  0  0  0  0  0  0  0  0  0
   43.3680   33.6750   40.0670 C   0  0  0  0  0  0  0  0  0  0  0  0
   42.0660   33.6180   40.4220 N   0  0  0  0  0  0  0  0  0  0  0  0
   41.0640   33.8310   39.5570 C   0  0  0  0  0  0  0  0  0  0  0  0
   41.3320   34.1180   38.2690 N   0  0  0  0  0  0  0  0  0  0  0  0
   44.7160   34.0200   38.4390 H   0  0  0  0  0  0  0  0  0  0  0  0
   44.1770   33.5060   40.7500 H   0  0  0  0  0  0  0  0  0  0  0  0
   42.9050   34.4790   36.5520 O   0  0  0  0  0  0  0  0  0  0  0  0
   42.3880   34.1080   35.7410 H   0  0  0  0  0  0  0  0  0  0  0  0
   36.6500   29.2300   39.7730 O   0  0  0  0  0  0  0  0  0  0  0  0
   36.9490   28.7240   40.9970 C   0  0  0  0  0  0  0  0  0  0  0  0
   37.2810   29.3240   42.1960 C   0  0  0  0  0  0  0  0  0  0  0  0
   37.2940   30.4220   42.0960 H   0  0  0  0  0  0  0  0  0  0  0  0
   37.5540   28.6250   43.3440 C   0  0  0  0  0  3  0  0  0  0  0  0
   37.5060   27.2470   43.3450 C   0  0  0  0  0  3  0  0  0  0  0  0
   37.1780   26.6090   42.1680 C   0  0  0  0  0  0  0  0  0  0  0  0
   37.1500   25.2320   42.2500 C   0  0  0  0  0  3  0  0  0  0  0  0
   36.8310   24.5170   41.1150 C   0  0  0  0  0  3  0  0  0  0  0  0
   36.5520   25.1780   39.9510 C   0  0  0  0  0  3  0  0  0  0  0  0
   36.5930   26.5380   39.9220 C   0  0  0  0  0  3  0  0  0  0  0  0
   36.9030   27.3230   41.0130 C   0  0  0  0  0  0  0  0  0  0  0  0
  1  6  1  6  0  0  0
  1  2  1  0  0  0  0
  1 28  1  0  0  0  0
  2  7  1  1  0  0  0
  2 12  1  0  0  0  0
  3  2  1  0  0  0  0
  4  3  1  0  0  0  0
  4  5  1  0  0  0  0
  5 10  1  0  0  0  0
  5  1  1  0  0  0  0
  8  3  1  0  0  0  0
  9  3  1  0  0  0  0
 11  5  1  0  0  0  0
 12 14  1  0  0  0  0
 14 13  2  1  0  0  0
 14 15  1  0  0  0  0
 15 16  1  0  0  0  0
 17 14  1  0  0  0  0
 18 23  2  0  0  0  0
 18 19  1  0  0  0  0
 19 20  2  0  0  0  0
 20 21  1  0  0  0  0
 20 25  1  0  0  0  0
 22 17  1  0  0  0  0
 22 21  2  0  0  0  0
 23 22  1  0  0  0  0
 24 19  1  0  0  0  0
 26 18  1  0  0  0  0
 27 26  1  0  0  0  0
 28 29  1  0  0  0  0
 29 39  2  0  0  0  0
 29 30  1  0  0  0  0
 30 32  2  0  0  0  0
 31 30  1  0  0  0  0
 32 33  1  0  0  0  0
 34 35  1  0  0  0  0
 34 33  2  0  0  0  0
 36 35  2  0  0  0  0
 37 36  1  0  0  0  0
 38 37  2  0  0  0  0
 38 39  1  0  0  0  0
 39 34  1  0  0  0  0
M  END
>  <minimizedAffinity>
-6.98040152

$$$$

 OpenBabel03252500263D

 39 42  0  0  1  0  0  0  0  0999 V2000
   38.2880   30.3680   39.5890 C   0  0  2  0  0  0  0  0  0  0  0  0
   38.0900   31.7530   39.1100 C   0  0  2  0  0  0  0  0  0  0  0  0
   37.6010   31.5740   37.7180 C   0  0  0  0  0  0  0  0  0  0  0  0
   36.9160   30.3740   37.6700 O   0  0  0  0  0  0  0  0  0  0  0  0
   37.1220   29.7020   38.8300 C   0  0  0  0  0  0  0  0  0  0  0  0
   39.0970   29.7410   39.3600 H   0  0  0  0  0  0  0  0  0  0  0  0
   37.3480   32.2070   39.8200 H   0  0  0  0  0  0  0  0  0  0  0  0
   38.2770   31.8010   36.9150 H   0  0  0  0  0  0  0  0  0  0  0  0
   36.7780   32.3470   37.6040 H   0  0  0  0  0  0  0  0  0  0  0  0
   36.1810   29.8280   39.4430 H   0  0  0  0  0  0  0  0  0  0  0  0
   37.2510   28.6280   38.7160 H   0  0  0  0  0  0  0  0  0  0  0  0
   39.2120   32.5490   39.1820 O   0  0  0  0  0  0  0  0  0  0  0  0
   37.7100   34.5230   39.8620 O   0  0  0  0  0  0  0  0  0  0  0  0
   38.9530   33.7810   40.2730 P   0  0  1  0  0  0  0  0  0  0  0  0
   38.7100   33.1230   41.8160 O   0  0  0  0  0  0  0  0  0  0  0  0
   39.4580   33.2660   42.4190 H   0  0  0  0  0  0  0  0  0  0  0  0
   40.2480   34.9000   40.3030 O   0  0  0  0  0  0  0  0  0  0  0  0
   42.8140   34.4270   37.8640 C   0  0  0  0  0  0  0  0  0  0  0  0
   43.9470   34.0220   38.6270 C   0  0  0  0  0  0  0  0  0  0  0  0
   43.7630   33.9240   40.0200 C   0  0  0  0  0  0  0  0  0  0  0  0
   42.5490   34.2170   40.5350 N   0  0  0  0  0  0  0  0  0  0  0  0
   41.5090   34.5960   39.7790 C   0  0  0  0  0  0  0  0  0  0  0  0
   41.6450   34.7000   38.4440 N   0  0  0  0  0  0  0  0  0  0  0  0
   44.9030   33.7930   38.2110 H   0  0  0  0  0  0  0  0  0  0  0  0
   44.6010   33.6200   40.6150 H   0  0  0  0  0  0  0  0  0  0  0  0
   42.9910   34.5210   36.5180 O   0  0  0  0  0  0  0  0  0  0  0  0
   42.2900   34.2210   35.8240 H   0  0  0  0  0  0  0  0  0  0  0  0
   38.1530   30.2480   40.9610 O   0  0  0  0  0  0  0  0  0  0  0  0
   37.8880   29.1710   41.7440 C   0  0  0  0  0  0  0  0  0  0  0  0
   36.7160   28.5040   42.0430 C   0  0  0  0  0  0  0  0  0  0  0  0
   35.8580   28.9640   41.5270 H   0  0  0  0  0  0  0  0  0  0  0  0
   36.6550   27.4140   42.8750 C   0  0  0  0  0  3  0  0  0  0  0  0
   37.8010   26.9260   43.4650 C   0  0  0  0  0  3  0  0  0  0  0  0
   38.9920   27.5640   43.1930 C   0  0  0  0  0  0  0  0  0  0  0  0
   40.0930   27.0180   43.8210 C   0  0  0  0  0  3  0  0  0  0  0  0
   41.3250   27.5980   43.6010 C   0  0  0  0  0  3  0  0  0  0  0  0
   41.4270   28.6860   42.7790 C   0  0  0  0  0  3  0  0  0  0  0  0
   40.3100   29.1880   42.1830 C   0  0  0  0  0  3  0  0  0  0  0  0
   39.0460   28.6640   42.3520 C   0  0  0  0  0  0  0  0  0  0  0  0
  1  6  1  6  0  0  0
  1 28  1  0  0  0  0
  2 12  1  0  0  0  0
  2  1  1  0  0  0  0
  2  7  1  1  0  0  0
  3  2  1  0  0  0  0
  4  3  1  0  0  0  0
  4  5  1  0  0  0  0
  5 10  1  0  0  0  0
  5  1  1  0  0  0  0
  8  3  1  0  0  0  0
  9  3  1  0  0  0  0
 11  5  1  0  0  0  0
 12 14  1  0  0  0  0
 14 13  2  6  0  0  0
 14 17  1  0  0  0  0
 14 15  1  0  0  0  0
 15 16  1  0  0  0  0
 18 23  2  0  0  0  0
 18 19  1  0  0  0  0
 19 20  2  0  0  0  0
 20 21  1  0  0  0  0
 20 25  1  0  0  0  0
 22 17  1  0  0  0  0
 22 21  2  0  0  0  0
 23 22  1  0  0  0  0
 24 19  1  0  0  0  0
 26 18  1  0  0  0  0
 27 26  1  0  0  0  0
 28 29  1  0  0  0  0
 29 30  2  0  0  0  0
 29 39  1  0  0  0  0
 30 32  1  0  0  0  0
 31 30  1  0  0  0  0
 32 33  2  0  0  0  0
 34 33  1  0  0  0  0
 34 35  1  0  0  0  0
 36 35  2  0  0  0  0
 37 36  1  0  0  0  0
 38 39  1  0  0  0  0
 38 37  2  0  0  0  0
 39 34  2  0  0  0  0
M  END
>  <minimizedAffinity>
-6.94205666

$$$$

 OpenBabel03252500263D

 39 42  0  0  1  0  0  0  0  0999 V2000
   37.3110   31.4580   39.3540 C   0  0  2  0  0  0  0  0  0  0  0  0
   37.0320   30.2060   40.0880 C   0  0  2  0  0  0  0  0  0  0  0  0
   35.8830   29.6180   39.3500 C   0  0  0  0  0  0  0  0  0  0  0  0
   35.9860   30.0210   38.0320 O   0  0  0  0  0  0  0  0  0  0  0  0
   36.9530   30.9680   37.9350 C   0  0  0  0  0  0  0  0  0  0  0  0
   36.7730   32.3560   39.4280 H   0  0  0  0  0  0  0  0  0  0  0  0
   37.9840   29.6140   40.0350 H   0  0  0  0  0  0  0  0  0  0  0  0
   34.9160   29.6550   39.8150 H   0  0  0  0  0  0  0  0  0  0  0  0
   36.1150   28.5080   39.3000 H   0  0  0  0  0  0  0  0  0  0  0  0
   37.8590   30.4550   37.4970 H   0  0  0  0  0  0  0  0  0  0  0  0
   36.7240   31.7830   37.2520 H   0  0  0  0  0  0  0  0  0  0  0  0
   36.7710   30.3750   41.4300 O   0  0  0  0  0  0  0  0  0  0  0  0
   39.0830   29.8610   42.4330 O   0  0  0  0  0  0  0  0  0  0  0  0
   37.6900   29.3050   42.3170 P   0  0  1  0  0  0  0  0  0  0  0  0
   37.0310   29.1550   43.8710 O   0  0  0  0  0  0  0  0  0  0  0  0
   36.5900   28.3030   44.0220 H   0  0  0  0  0  0  0  0  0  0  0  0
   37.7970   27.7700   41.5670 O   0  0  0  0  0  0  0  0  0  0  0  0
   38.7910   24.3930   42.1660 C   0  0  0  0  0  0  0  0  0  0  0  0
   39.7010   24.4880   43.2570 C   0  0  0  0  0  0  0  0  0  0  0  0
   39.9420   25.7800   43.7640 C   0  0  0  0  0  0  0  0  0  0  0  0
   39.3070   26.8270   43.1920 N   0  0  0  0  0  0  0  0  0  0  0  0
   38.4580   26.6920   42.1640 C   0  0  0  0  0  0  0  0  0  0  0  0
   38.2020   25.4730   41.6530 N   0  0  0  0  0  0  0  0  0  0  0  0
   40.1970   23.6540   43.7030 H   0  0  0  0  0  0  0  0  0  0  0  0
   40.6220   25.8770   44.5860 H   0  0  0  0  0  0  0  0  0  0  0  0
   38.5580   23.1440   41.6770 O   0  0  0  0  0  0  0  0  0  0  0  0
   37.6300   22.8080   41.3780 H   0  0  0  0  0  0  0  0  0  0  0  0
   38.6330   31.8550   39.4490 O   0  0  0  0  0  0  0  0  0  0  0  0
   39.1880   33.0700   39.6940 C   0  0  0  0  0  0  0  0  0  0  0  0
   38.8330   34.1020   40.5390 C   0  0  0  0  0  0  0  0  0  0  0  0
   37.9200   33.8520   41.1040 H   0  0  0  0  0  0  0  0  0  0  0  0
   39.5380   35.2750   40.6440 C   0  0  0  0  0  3  0  0  0  0  0  0
   40.6700   35.4730   39.8820 C   0  0  0  0  0  3  0  0  0  0  0  0
   41.0600   34.4670   39.0250 C   0  0  0  0  0  0  0  0  0  0  0  0
   42.2000   34.7410   38.2980 C   0  0  0  0  0  3  0  0  0  0  0  0
   42.6570   33.7840   37.4160 C   0  0  0  0  0  3  0  0  0  0  0  0
   41.9820   32.6030   37.2830 C   0  0  0  0  0  3  0  0  0  0  0  0
   40.8610   32.3810   38.0240 C   0  0  0  0  0  3  0  0  0  0  0  0
   40.3420   33.2860   38.9260 C   0  0  0  0  0  0  0  0  0  0  0  0
  1  6  1  1  0  0  0
  1 28  1  0  0  0  0
  1  2  1  0  0  0  0
  2  7  1  6  0  0  0
  2 12  1  0  0  0  0
  3  8  1  0  0  0  0
  3  2  1  0  0  0  0
  4  3  1  0  0  0  0
  5  4  1  0  0  0  0
  5  1  1  0  0  0  0
  9  3  1  0  0  0  0
 10  5  1  0  0  0  0
 11  5  1  0  0  0  0
 12 14  1  0  0  0  0
 14 13  2  1  0  0  0
 14 15  1  0  0  0  0
 15 16  1  0  0  0  0
 17 22  1  0  0  0  0
 17 14  1  0  0  0  0
 18 19  1  0  0  0  0
 19 24  1  0  0  0  0
 19 20  2  0  0  0  0
 20 25  1  0  0  0  0
 21 20  1  0  0  0  0
 22 21  2  0  0  0  0
 23 22  1  0  0  0  0
 23 18  2  0  0  0  0
 26 18  1  0  0  0  0
 27 26  1  0  0  0  0
 28 29  1  0  0  0  0
 29 30  1  0  0  0  0
 30 32  2  0  0  0  0
 30 31  1  0  0  0  0
 33 32  1  0  0  0  0
 34 33  2  0  0  0  0
 35 34  1  0  0  0  0
 36 35  2  0  0  0  0
 37 36  1  0  0  0  0
 37 38  2  0  0  0  0
 38 39  1  0  0  0  0
 39 34  1  0  0  0  0
 39 29  2  0  0  0  0
M  END
>  <minimizedAffinity>
-6.79129648

$$$$

 OpenBabel03252500263D

 39 42  0  0  1  0  0  0  0  0999 V2000
   38.2900   28.7660   41.9180 C   0  0  2  0  0  0  0  0  0  0  0  0
   38.5850   30.1010   41.3550 C   0  0  2  0  0  0  0  0  0  0  0  0
   39.6210   30.6440   42.2720 C   0  0  0  0  0  0  0  0  0  0  0  0
   40.3360   29.5720   42.7740 O   0  0  0  0  0  0  0  0  0  0  0  0
   39.7050   28.4220   42.4280 C   0  0  0  0  0  0  0  0  0  0  0  0
   37.6900   28.5630   42.7540 H   0  0  0  0  0  0  0  0  0  0  0  0
   38.9340   29.9080   40.3050 H   0  0  0  0  0  0  0  0  0  0  0  0
   39.3300   31.4200   42.9550 H   0  0  0  0  0  0  0  0  0  0  0  0
   40.3680   31.1560   41.5880 H   0  0  0  0  0  0  0  0  0  0  0  0
   40.2940   27.9810   41.5700 H   0  0  0  0  0  0  0  0  0  0  0  0
   39.7010   27.6550   43.2000 H   0  0  0  0  0  0  0  0  0  0  0  0
   37.4910   30.9280   41.2390 O   0  0  0  0  0  0  0  0  0  0  0  0
   36.5390   31.0110   38.8510 O   0  0  0  0  0  0  0  0  0  0  0  0
   37.5240   31.6950   39.7600 P   0  0  1  0  0  0  0  0  0  0  0  0
   37.0530   33.3110   39.9560 O   0  0  0  0  0  0  0  0  0  0  0  0
   37.7870   33.9410   39.8650 H   0  0  0  0  0  0  0  0  0  0  0  0
   39.0660   31.6110   39.0240 O   0  0  0  0  0  0  0  0  0  0  0  0
   41.5990   33.8440   37.8610 C   0  0  0  0  0  0  0  0  0  0  0  0
   41.7490   34.7810   38.9230 C   0  0  0  0  0  0  0  0  0  0  0  0
   40.9280   34.5890   40.0510 C   0  0  0  0  0  0  0  0  0  0  0  0
   40.0650   33.5490   40.0530 N   0  0  0  0  0  0  0  0  0  0  0  0
   39.9560   32.6910   39.0300 C   0  0  0  0  0  0  0  0  0  0  0  0
   40.7250   32.8410   37.9350 N   0  0  0  0  0  0  0  0  0  0  0  0
   42.4340   35.6000   38.9120 H   0  0  0  0  0  0  0  0  0  0  0  0
   41.0230   35.2820   40.8630 H   0  0  0  0  0  0  0  0  0  0  0  0
   42.3940   34.0290   36.7720 O   0  0  0  0  0  0  0  0  0  0  0  0
   42.8470   33.2610   36.2540 H   0  0  0  0  0  0  0  0  0  0  0  0
   37.8470   27.8660   40.9640 O   0  0  0  0  0  0  0  0  0  0  0  0
   37.4410   26.5750   41.0720 C   0  0  0  0  0  0  0  0  0  0  0  0
   37.5370   25.6510   42.0930 C   0  0  0  0  0  0  0  0  0  0  0  0
   38.0460   26.0850   42.9700 H   0  0  0  0  0  0  0  0  0  0  0  0
   37.0550   24.3690   42.0060 C   0  0  0  0  0  3  0  0  0  0  0  0
   36.4330   23.9400   40.8520 C   0  0  0  0  0  3  0  0  0  0  0  0
   36.3170   24.8310   39.8080 C   0  0  0  0  0  0  0  0  0  0  0  0
   35.6850   24.3270   38.6900 C   0  0  0  0  0  3  0  0  0  0  0  0
   35.5280   25.1560   37.5990 C   0  0  0  0  0  3  0  0  0  0  0  0
   35.9950   26.4400   37.6480 C   0  0  0  0  0  3  0  0  0  0  0  0
   36.6120   26.8910   38.7750 C   0  0  0  0  0  3  0  0  0  0  0  0
   36.8060   26.1240   39.9050 C   0  0  0  0  0  0  0  0  0  0  0  0
  1  5  1  0  0  0  0
  1  6  1  1  0  0  0
  2  7  1  6  0  0  0
  2  1  1  0  0  0  0
  2  3  1  0  0  0  0
  3  4  1  0  0  0  0
  3  8  1  0  0  0  0
  5  4  1  0  0  0  0
  5 11  1  0  0  0  0
  9  3  1  0  0  0  0
 10  5  1  0  0  0  0
 12  2  1  0  0  0  0
 14 13  2  6  0  0  0
 14 15  1  0  0  0  0
 14 12  1  0  0  0  0
 16 15  1  0  0  0  0
 17 22  1  0  0  0  0
 17 14  1  0  0  0  0
 18 23  2  0  0  0  0
 18 19  1  0  0  0  0
 19 20  2  0  0  0  0
 20 21  1  0  0  0  0
 20 25  1  0  0  0  0
 22 21  2  0  0  0  0
 23 22  1  0  0  0  0
 24 19  1  0  0  0  0
 26 18  1  0  0  0  0
 27 26  1  0  0  0  0
 28 29  1  0  0  0  0
 28  1  1  0  0  0  0
 29 30  1  0  0  0  0
 30 31  1  0  0  0  0
 32 30  2  0  0  0  0
 33 32  1  0  0  0  0
 34 39  1  0  0  0  0
 34 33  2  0  0  0  0
 35 34  1  0  0  0  0
 36 37  1  0  0  0  0
 36 35  2  0  0  0  0
 37 38  2  0  0  0  0
 38 39  1  0  0  0  0
 39 29  2  0  0  0  0
M  END
>  <minimizedAffinity>
-6.63740921

$$$$

 OpenBabel03252500263D

 39 42  0  0  1  0  0  0  0  0999 V2000
   38.5040   32.2120   39.0540 C   0  0  2  0  0  0  0  0  0  0  0  0
   39.2380   32.5300   40.2980 C   0  0  2  0  0  0  0  0  0  0  0  0
   38.9270   33.9650   40.5280 C   0  0  0  0  0  0  0  0  0  0  0  0
   37.6750   34.2100   39.9970 O   0  0  0  0  0  0  0  0  0  0  0  0
   37.2830   33.1290   39.2760 C   0  0  0  0  0  0  0  0  0  0  0  0
   38.7990   32.4570   38.0780 H   0  0  0  0  0  0  0  0  0  0  0  0
   38.8290   31.8250   41.0700 H   0  0  0  0  0  0  0  0  0  0  0  0
   39.7030   34.6830   40.3410 H   0  0  0  0  0  0  0  0  0  0  0  0
   38.7530   34.0430   41.6470 H   0  0  0  0  0  0  0  0  0  0  0  0
   36.5330   32.5750   39.9150 H   0  0  0  0  0  0  0  0  0  0  0  0
   36.7580   33.3640   38.3530 H   0  0  0  0  0  0  0  0  0  0  0  0
   40.5910   32.2800   40.2430 O   0  0  0  0  0  0  0  0  0  0  0  0
   42.4980   31.1180   41.5190 O   0  0  0  0  0  0  0  0  0  0  0  0
   40.9980   31.1520   41.3990 P   0  0  1  0  0  0  0  0  0  0  0  0
   40.3420   31.6160   42.8910 O   0  0  0  0  0  0  0  0  0  0  0  0
   39.5930   31.0650   43.1720 H   0  0  0  0  0  0  0  0  0  0  0  0
   40.4680   29.5790   40.9810 O   0  0  0  0  0  0  0  0  0  0  0  0
   38.0110   28.6260   43.3920 C   0  0  0  0  0  0  0  0  0  0  0  0
   38.3100   27.2610   43.6700 C   0  0  0  0  0  0  0  0  0  0  0  0
   39.4030   26.7040   42.9770 C   0  0  0  0  0  0  0  0  0  0  0  0
   40.0840   27.4830   42.1090 N   0  0  0  0  0  0  0  0  0  0  0  0
   39.7680   28.7650   41.8770 C   0  0  0  0  0  0  0  0  0  0  0  0
   38.7310   29.3330   42.5200 N   0  0  0  0  0  0  0  0  0  0  0  0
   37.7650   26.6530   44.3580 H   0  0  0  0  0  0  0  0  0  0  0  0
   39.6470   25.6780   43.1710 H   0  0  0  0  0  0  0  0  0  0  0  0
   36.9560   29.1650   44.0620 O   0  0  0  0  0  0  0  0  0  0  0  0
   36.9470   30.1220   44.4450 H   0  0  0  0  0  0  0  0  0  0  0  0
   38.1440   30.8790   38.9670 O   0  0  0  0  0  0  0  0  0  0  0  0
   36.9440   30.2620   39.1220 C   0  0  0  0  0  0  0  0  0  0  0  0
   36.1980   29.9460   40.2390 C   0  0  0  0  0  0  0  0  0  0  0  0
   36.7080   30.2750   41.1590 H   0  0  0  0  0  0  0  0  0  0  0  0
   34.9840   29.3080   40.1860 C   0  0  0  0  0  3  0  0  0  0  0  0
   34.4440   28.9450   38.9700 C   0  0  0  0  0  3  0  0  0  0  0  0
   35.1580   29.2420   37.8290 C   0  0  0  0  0  0  0  0  0  0  0  0
   34.5540   28.8470   36.6540 C   0  0  0  0  0  3  0  0  0  0  0  0
   35.2030   29.1070   35.4660 C   0  0  0  0  0  3  0  0  0  0  0  0
   36.4140   29.7410   35.4780 C   0  0  0  0  0  3  0  0  0  0  0  0
   36.9700   30.1110   36.6640 C   0  0  0  0  0  3  0  0  0  0  0  0
   36.3830   29.8870   37.8920 C   0  0  0  0  0  0  0  0  0  0  0  0
  1  6  1  6  0  0  0
  1  5  1  0  0  0  0
  1  2  1  0  0  0  0
  2  3  1  0  0  0  0
  2  7  1  1  0  0  0
  3  9  1  0  0  0  0
  4  3  1  0  0  0  0
  5 10  1  0  0  0  0
  5  4  1  0  0  0  0
  8  3  1  0  0  0  0
 11  5  1  0  0  0  0
 12  2  1  0  0  0  0
 12 14  1  0  0  0  0
 14 13  2  1  0  0  0
 14 15  1  0  0  0  0
 15 16  1  0  0  0  0
 17 14  1  0  0  0  0
 17 22  1  0  0  0  0
 18 19  1  0  0  0  0
 18 26  1  0  0  0  0
 19 24  1  0  0  0  0
 20 25  1  0  0  0  0
 20 19  2  0  0  0  0
 21 20  1  0  0  0  0
 22 21  2  0  0  0  0
 22 23  1  0  0  0  0
 23 18  2  0  0  0  0
 26 27  1  0  0  0  0
 28  1  1  0  0  0  0
 28 29  1  0  0  0  0
 29 30  1  0  0  0  0
 30 31  1  0  0  0  0
 32 30  2  0  0  0  0
 33 32  1  0  0  0  0
 34 39  1  0  0  0  0
 34 33  2  0  0  0  0
 35 34  1  0  0  0  0
 36 37  1  0  0  0  0
 36 35  2  0  0  0  0
 37 38  2  0  0  0  0
 38 39  1  0  0  0  0
 39 29  2  0  0  0  0
M  END
>  <minimizedAffinity>
-6.49249744

$$$$

 OpenBabel03252500263D

 39 42  0  0  1  0  0  0  0  0999 V2000
   37.8210   28.6280   39.1540 C   0  0  2  0  0  0  0  0  0  0  0  0
   38.0290   30.0900   39.2380 C   0  0  2  0  0  0  0  0  0  0  0  0
   37.8340   30.5500   37.8380 C   0  0  0  0  0  0  0  0  0  0  0  0
   36.9410   29.6830   37.2360 O   0  0  0  0  0  0  0  0  0  0  0  0
   36.7390   28.6200   38.0550 C   0  0  0  0  0  0  0  0  0  0  0  0
   38.5110   27.9220   38.8010 H   0  0  0  0  0  0  0  0  0  0  0  0
   37.2590   30.4550   39.9700 H   0  0  0  0  0  0  0  0  0  0  0  0
   38.7030   30.8450   37.2810 H   0  0  0  0  0  0  0  0  0  0  0  0
   37.2370   31.5110   37.9340 H   0  0  0  0  0  0  0  0  0  0  0  0
   35.7340   28.7810   38.5440 H   0  0  0  0  0  0  0  0  0  0  0  0
   36.6620   27.6620   37.5450 H   0  0  0  0  0  0  0  0  0  0  0  0
   39.2470   30.4660   39.7570 O   0  0  0  0  0  0  0  0  0  0  0  0
   37.6220   32.0820   40.9240 O   0  0  0  0  0  0  0  0  0  0  0  0
   39.0790   31.8940   40.5990 P   0  0  1  0  0  0  0  0  0  0  0  0
   39.9530   31.7970   42.0480 O   0  0  0  0  0  0  0  0  0  0  0  0
   40.7580   32.3400   42.0500 H   0  0  0  0  0  0  0  0  0  0  0  0
   39.5920   33.2470   39.6850 O   0  0  0  0  0  0  0  0  0  0  0  0
   42.5210   34.0940   37.8250 C   0  0  0  0  0  0  0  0  0  0  0  0
   43.5720   34.0260   38.7830 C   0  0  0  0  0  0  0  0  0  0  0  0
   43.2040   33.6710   40.0960 C   0  0  0  0  0  0  0  0  0  0  0  0
   41.9010   33.4240   40.3570 N   0  0  0  0  0  0  0  0  0  0  0  0
   40.9430   33.5010   39.4230 C   0  0  0  0  0  0  0  0  0  0  0  0
   41.2560   33.8360   38.1580 N   0  0  0  0  0  0  0  0  0  0  0  0
   44.5990   34.2220   38.5670 H   0  0  0  0  0  0  0  0  0  0  0  0
   43.9780   33.6130   40.8340 H   0  0  0  0  0  0  0  0  0  0  0  0
   42.8770   34.4360   36.5560 O   0  0  0  0  0  0  0  0  0  0  0  0
   42.4770   34.0030   35.7110 H   0  0  0  0  0  0  0  0  0  0  0  0
   37.3630   28.0810   40.3400 O   0  0  0  0  0  0  0  0  0  0  0  0
   37.5040   26.8370   40.8660 C   0  0  0  0  0  0  0  0  0  0  0  0
   36.8810   25.6350   40.5920 C   0  0  0  0  0  0  0  0  0  0  0  0
   36.1370   25.7520   39.7870 H   0  0  0  0  0  0  0  0  0  0  0  0
   37.1690   24.4640   41.2470 C   0  0  0  0  0  3  0  0  0  0  0  0
   38.1250   24.4430   42.2410 C   0  0  0  0  0  3  0  0  0  0  0  0
   38.7700   25.6220   42.5460 C   0  0  0  0  0  0  0  0  0  0  0  0
   39.7110   25.5200   43.5490 C   0  0  0  0  0  3  0  0  0  0  0  0
   40.4020   26.6560   43.9160 C   0  0  0  0  0  3  0  0  0  0  0  0
   40.1440   27.8410   43.2850 C   0  0  0  0  0  3  0  0  0  0  0  0
   39.2050   27.8910   42.3010 C   0  0  0  0  0  3  0  0  0  0  0  0
   38.4740   26.8000   41.8790 C   0  0  0  0  0  0  0  0  0  0  0  0
  1  6  1  6  0  0  0
  1  2  1  0  0  0  0
  1 28  1  0  0  0  0
  2 12  1  0  0  0  0
  2  7  1  1  0  0  0
  3  9  1  0  0  0  0
  3  2  1  0  0  0  0
  4  3  1  0  0  0  0
  4  5  1  0  0  0  0
  5 10  1  0  0  0  0
  5  1  1  0  0  0  0
  8  3  1  0  0  0  0
 11  5  1  0  0  0  0
 12 14  1  0  0  0  0
 14 13  2  1  0  0  0
 14 15  1  0  0  0  0
 15 16  1  0  0  0  0
 17 14  1  0  0  0  0
 18 23  2  0  0  0  0
 18 19  1  0  0  0  0
 19 20  2  0  0  0  0
 20 21  1  0  0  0  0
 20 25  1  0  0  0  0
 22 17  1  0  0  0  0
 22 21  2  0  0  0  0
 23 22  1  0  0  0  0
 24 19  1  0  0  0  0
 26 18  1  0  0  0  0
 27 26  1  0  0  0  0
 28 29  1  0  0  0  0
 29 39  1  0  0  0  0
 30 29  2  0  0  0  0
 30 32  1  0  0  0  0
 31 30  1  0  0  0  0
 32 33  2  0  0  0  0
 33 34  1  0  0  0  0
 34 35  1  0  0  0  0
 35 36  2  0  0  0  0
 37 36  1  0  0  0  0
 38 37  2  0  0  0  0
 39 38  1  0  0  0  0
 39 34  2  0  0  0  0
M  END
>  <minimizedAffinity>
-6.48646164

$$$$

 OpenBabel03252500263D

 39 42  0  0  1  0  0  0  0  0999 V2000
   37.4500   26.5040   41.9840 C   0  0  2  0  0  0  0  0  0  0  0  0
   37.1410   27.9490   42.0200 C   0  0  2  0  0  0  0  0  0  0  0  0
   37.5160   28.3510   43.4010 C   0  0  0  0  0  0  0  0  0  0  0  0
   38.5410   27.5210   43.8130 O   0  0  0  0  0  0  0  0  0  0  0  0
   38.6840   26.5160   42.9110 C   0  0  0  0  0  0  0  0  0  0  0  0
   36.8660   25.7330   42.3920 H   0  0  0  0  0  0  0  0  0  0  0  0
   37.7670   28.4040   41.2070 H   0  0  0  0  0  0  0  0  0  0  0  0
   36.7230   28.5550   44.0970 H   0  0  0  0  0  0  0  0  0  0  0  0
   38.0300   29.3550   43.2770 H   0  0  0  0  0  0  0  0  0  0  0  0
   39.5920   26.7730   42.2900 H   0  0  0  0  0  0  0  0  0  0  0  0
   38.8960   25.5420   43.3450 H   0  0  0  0  0  0  0  0  0  0  0  0
   35.8370   28.2630   41.7090 O   0  0  0  0  0  0  0  0  0  0  0  0
   34.6060   29.2710   39.6880 O   0  0  0  0  0  0  0  0  0  0  0  0
   35.8130   29.4740   40.5640 P   0  0  1  0  0  0  0  0  0  0  0  0
   35.6790   30.9750   41.3380 O   0  0  0  0  0  0  0  0  0  0  0  0
   36.4970   31.4970   41.3120 H   0  0  0  0  0  0  0  0  0  0  0  0
   37.2000   29.4440   39.5630 O   0  0  0  0  0  0  0  0  0  0  0  0
   39.2590   31.9210   38.0210 C   0  0  0  0  0  0  0  0  0  0  0  0
   39.7730   32.6750   39.1150 C   0  0  0  0  0  0  0  0  0  0  0  0
   39.3650   32.2720   40.4020 C   0  0  0  0  0  0  0  0  0  0  0  0
   38.5270   31.2180   40.5140 N   0  0  0  0  0  0  0  0  0  0  0  0
   38.0670   30.5370   39.4560 C   0  0  0  0  0  0  0  0  0  0  0  0
   38.4350   30.8910   38.2110 N   0  0  0  0  0  0  0  0  0  0  0  0
   40.4350   33.5070   39.0160 H   0  0  0  0  0  0  0  0  0  0  0  0
   39.7390   32.8240   41.2410 H   0  0  0  0  0  0  0  0  0  0  0  0
   39.6540   32.3100   36.7780 O   0  0  0  0  0  0  0  0  0  0  0  0
   39.8930   31.6530   36.0190 H   0  0  0  0  0  0  0  0  0  0  0  0
   37.7580   26.0500   40.7140 O   0  0  0  0  0  0  0  0  0  0  0  0
   36.9760   25.5220   39.7370 C   0  0  0  0  0  0  0  0  0  0  0  0
   36.0990   26.0930   38.8360 C   0  0  0  0  0  0  0  0  0  0  0  0
   36.0560   27.1870   38.9690 H   0  0  0  0  0  0  0  0  0  0  0  0
   35.3880   25.3740   37.9090 C   0  0  0  0  0  3  0  0  0  0  0  0
   35.5270   24.0030   37.8390 C   0  0  0  0  0  3  0  0  0  0  0  0
   36.3920   23.3940   38.7210 C   0  0  0  0  0  0  0  0  0  0  0  0
   36.4760   22.0230   38.5890 C   0  0  0  0  0  3  0  0  0  0  0  0
   37.3210   21.3360   39.4350 C   0  0  0  0  0  3  0  0  0  0  0  0
   38.0460   22.0170   40.3720 C   0  0  0  0  0  3  0  0  0  0  0  0
   37.9280   23.3710   40.4630 C   0  0  0  0  0  3  0  0  0  0  0  0
   37.1070   24.1280   39.6540 C   0  0  0  0  0  0  0  0  0  0  0  0
  1  2  1  0  0  0  0
  1  6  1  1  0  0  0
  1  5  1  0  0  0  0
  2  7  1  6  0  0  0
  2  3  1  0  0  0  0
  3  4  1  0  0  0  0
  3  8  1  0  0  0  0
  5 11  1  0  0  0  0
  5  4  1  0  0  0  0
  9  3  1  0  0  0  0
 10  5  1  0  0  0  0
 12  2  1  0  0  0  0
 14 13  2  6  0  0  0
 14 15  1  0  0  0  0
 14 12  1  0  0  0  0
 16 15  1  0  0  0  0
 17 14  1  0  0  0  0
 18 23  2  0  0  0  0
 18 19  1  0  0  0  0
 19 20  2  0  0  0  0
 20 21  1  0  0  0  0
 20 25  1  0  0  0  0
 22 17  1  0  0  0  0
 22 21  2  0  0  0  0
 23 22  1  0  0  0  0
 24 19  1  0  0  0  0
 26 18  1  0  0  0  0
 27 26  1  0  0  0  0
 28  1  1  0  0  0  0
 29 28  1  0  0  0  0
 30 31  1  0  0  0  0
 30 29  2  0  0  0  0
 32 30  1  0  0  0  0
 33 32  2  0  0  0  0
 33 34  1  0  0  0  0
 34 39  1  0  0  0  0
 35 34  2  0  0  0  0
 35 36  1  0  0  0  0
 36 37  2  0  0  0  0
 37 38  1  0  0  0  0
 39 29  1  0  0  0  0
 39 38  2  0  0  0  0
M  END
>  <minimizedAffinity>
-6.41080236

$$$$

 OpenBabel03252500263D

 39 42  0  0  1  0  0  0  0  0999 V2000
   36.9960   28.9350   39.9280 C   0  0  2  0  0  0  0  0  0  0  0  0
   37.6720   30.2200   39.6470 C   0  0  2  0  0  0  0  0  0  0  0  0
   36.7370   31.2340   40.2020 C   0  0  0  0  0  0  0  0  0  0  0  0
   36.0690   30.6480   41.2610 O   0  0  0  0  0  0  0  0  0  0  0  0
   36.3410   29.3180   41.2720 C   0  0  0  0  0  0  0  0  0  0  0  0
   36.1940   28.5240   39.3920 H   0  0  0  0  0  0  0  0  0  0  0  0
   38.6630   30.1520   40.1690 H   0  0  0  0  0  0  0  0  0  0  0  0
   36.1650   31.8220   39.5090 H   0  0  0  0  0  0  0  0  0  0  0  0
   37.4090   31.9940   40.7090 H   0  0  0  0  0  0  0  0  0  0  0  0
   37.0960   29.1540   42.0960 H   0  0  0  0  0  0  0  0  0  0  0  0
   35.4950   28.6830   41.5250 H   0  0  0  0  0  0  0  0  0  0  0  0
   37.9620   30.4350   38.3180 O   0  0  0  0  0  0  0  0  0  0  0  0
   40.2710   30.1610   39.4190 O   0  0  0  0  0  0  0  0  0  0  0  0
   39.6130   30.5230   38.1140 P   0  0  1  0  0  0  0  0  0  0  0  0
   40.0930   29.4070   36.9330 O   0  0  0  0  0  0  0  0  0  0  0  0
   40.3560   29.8210   36.0950 H   0  0  0  0  0  0  0  0  0  0  0  0
   40.1270   32.0980   37.6860 O   0  0  0  0  0  0  0  0  0  0  0  0
   39.7200   34.2920   40.4750 C   0  0  0  0  0  0  0  0  0  0  0  0
   40.9760   34.9540   40.5810 C   0  0  0  0  0  0  0  0  0  0  0  0
   41.9580   34.5950   39.6360 C   0  0  0  0  0  0  0  0  0  0  0  0
   41.6500   33.6630   38.7080 N   0  0  0  0  0  0  0  0  0  0  0  0
   40.4540   33.0640   38.6440 C   0  0  0  0  0  0  0  0  0  0  0  0
   39.4900   33.3810   39.5290 N   0  0  0  0  0  0  0  0  0  0  0  0
   41.2100   35.6900   41.3190 H   0  0  0  0  0  0  0  0  0  0  0  0
   42.9110   35.0810   39.6960 H   0  0  0  0  0  0  0  0  0  0  0  0
   38.7720   34.6390   41.3870 O   0  0  0  0  0  0  0  0  0  0  0  0
   37.7720   34.7560   41.1620 H   0  0  0  0  0  0  0  0  0  0  0  0
   37.8810   27.8800   40.0630 O   0  0  0  0  0  0  0  0  0  0  0  0
   37.7500   26.6720   40.6690 C   0  0  0  0  0  0  0  0  0  0  0  0
   36.8760   25.6210   40.4690 C   0  0  0  0  0  0  0  0  0  0  0  0
   36.1690   25.8470   39.6530 H   0  0  0  0  0  0  0  0  0  0  0  0
   36.9050   24.4600   41.2000 C   0  0  0  0  0  3  0  0  0  0  0  0
   37.8410   24.2930   42.1990 C   0  0  0  0  0  3  0  0  0  0  0  0
   38.7310   25.3190   42.4320 C   0  0  0  0  0  0  0  0  0  0  0  0
   39.6340   25.0770   43.4460 C   0  0  0  0  0  3  0  0  0  0  0  0
   40.5610   26.0540   43.7420 C   0  0  0  0  0  3  0  0  0  0  0  0
   40.5640   27.2240   43.0360 C   0  0  0  0  0  3  0  0  0  0  0  0
   39.6510   27.4160   42.0440 C   0  0  0  0  0  3  0  0  0  0  0  0
   38.6950   26.4870   41.6880 C   0  0  0  0  0  0  0  0  0  0  0  0
  1  6  1  6  0  0  0
  1 28  1  0  0  0  0
  1  5  1  0  0  0  0
  2  1  1  0  0  0  0
  2  7  1  1  0  0  0
  2  3  1  0  0  0  0
  3  9  1  0  0  0  0
  3  4  1  0  0  0  0
  4  5  1  0  0  0  0
  5 11  1  0  0  0  0
  5 10  1  0  0  0  0
  8  3  1  0  0  0  0
 12  2  1  0  0  0  0
 14 12  1  0  0  0  0
 14 13  2  1  0  0  0
 15 14  1  0  0  0  0
 16 15  1  0  0  0  0
 17 14  1  0  0  0  0
 17 22  1  0  0  0  0
 18 19  1  0  0  0  0
 18 26  1  0  0  0  0
 19 24  1  0  0  0  0
 20 25  1  0  0  0  0
 20 19  2  0  0  0  0
 21 20  1  0  0  0  0
 22 21  2  0  0  0  0
 22 23  1  0  0  0  0
 23 18  2  0  0  0  0
 27 26  1  0  0  0  0
 28 29  1  0  0  0  0
 29 39  1  0  0  0  0
 30 29  2  0  0  0  0
 30 32  1  0  0  0  0
 31 30  1  0  0  0  0
 32 33  2  0  0  0  0
 33 34  1  0  0  0  0
 34 35  1  0  0  0  0
 35 36  2  0  0  0  0
 37 36  1  0  0  0  0
 38 37  2  0  0  0  0
 39 38  1  0  0  0  0
 39 34  2  0  0  0  0
M  END
>  <minimizedAffinity>
-6.4000411

$$$$

 OpenBabel03252500263D

 39 42  0  0  1  0  0  0  0  0999 V2000
   37.5820   26.6060   42.0580 C   0  0  2  0  0  0  0  0  0  0  0  0
   37.2390   28.0400   41.9450 C   0  0  2  0  0  0  0  0  0  0  0  0
   37.7030   28.6120   43.2360 C   0  0  0  0  0  0  0  0  0  0  0  0
   38.7780   27.8550   43.6640 O   0  0  0  0  0  0  0  0  0  0  0  0
   38.8800   26.7520   42.8790 C   0  0  0  0  0  0  0  0  0  0  0  0
   37.0510   25.8800   42.5970 H   0  0  0  0  0  0  0  0  0  0  0  0
   37.7910   28.4050   41.0380 H   0  0  0  0  0  0  0  0  0  0  0  0
   36.9590   28.8850   43.9610 H   0  0  0  0  0  0  0  0  0  0  0  0
   38.1800   29.6020   42.9550 H   0  0  0  0  0  0  0  0  0  0  0  0
   39.7330   26.9480   42.1650 H   0  0  0  0  0  0  0  0  0  0  0  0
   39.1500   25.8410   43.4090 H   0  0  0  0  0  0  0  0  0  0  0  0
   35.9080   28.2920   41.7000 O   0  0  0  0  0  0  0  0  0  0  0  0
   34.5090   29.2340   39.7570 O   0  0  0  0  0  0  0  0  0  0  0  0
   35.7690   29.4820   40.5420 P   0  0  1  0  0  0  0  0  0  0  0  0
   35.6490   30.9920   41.3020 O   0  0  0  0  0  0  0  0  0  0  0  0
   36.4490   31.5350   41.2100 H   0  0  0  0  0  0  0  0  0  0  0  0
   37.0830   29.4730   39.4450 O   0  0  0  0  0  0  0  0  0  0  0  0
   39.2380   31.9040   37.9630 C   0  0  0  0  0  0  0  0  0  0  0  0
   39.7910   32.6010   39.0750 C   0  0  0  0  0  0  0  0  0  0  0  0
   39.3730   32.1780   40.3520 C   0  0  0  0  0  0  0  0  0  0  0  0
   38.4910   31.1580   40.4390 N   0  0  0  0  0  0  0  0  0  0  0  0
   37.9950   30.5300   39.3640 C   0  0  0  0  0  0  0  0  0  0  0  0
   38.3710   30.9050   38.1280 N   0  0  0  0  0  0  0  0  0  0  0  0
   40.4870   33.4060   38.9960 H   0  0  0  0  0  0  0  0  0  0  0  0
   39.7760   32.6880   41.2050 H   0  0  0  0  0  0  0  0  0  0  0  0
   39.6420   32.3120   36.7290 O   0  0  0  0  0  0  0  0  0  0  0  0
   39.8470   31.6690   35.9500 H   0  0  0  0  0  0  0  0  0  0  0  0
   37.8070   26.0090   40.8300 O   0  0  0  0  0  0  0  0  0  0  0  0
   37.4700   24.7820   40.3560 C   0  0  0  0  0  0  0  0  0  0  0  0
   37.8310   23.5050   40.7380 C   0  0  0  0  0  0  0  0  0  0  0  0
   38.5250   23.5320   41.5950 H   0  0  0  0  0  0  0  0  0  0  0  0
   37.3740   22.3690   40.1190 C   0  0  0  0  0  3  0  0  0  0  0  0
   36.5050   22.4630   39.0520 C   0  0  0  0  0  3  0  0  0  0  0  0
   36.1200   23.7200   38.6390 C   0  0  0  0  0  0  0  0  0  0  0  0
   35.2510   23.7310   37.5670 C   0  0  0  0  0  3  0  0  0  0  0  0
   34.8160   24.9500   37.0910 C   0  0  0  0  0  3  0  0  0  0  0  0
   35.2500   26.1040   37.6820 C   0  0  0  0  0  3  0  0  0  0  0  0
   36.1090   26.0410   38.7370 C   0  0  0  0  0  3  0  0  0  0  0  0
   36.5860   24.8620   39.2700 C   0  0  0  0  0  0  0  0  0  0  0  0
  1  6  1  1  0  0  0
  1  5  1  0  0  0  0
  2  7  1  6  0  0  0
  2  1  1  0  0  0  0
  2  3  1  0  0  0  0
  3  4  1  0  0  0  0
  3  8  1  0  0  0  0
  5 11  1  0  0  0  0
  5  4  1  0  0  0  0
  9  3  1  0  0  0  0
 10  5  1  0  0  0  0
 12  2  1  0  0  0  0
 14 13  2  6  0  0  0
 14 15  1  0  0  0  0
 14 12  1  0  0  0  0
 16 15  1  0  0  0  0
 17 14  1  0  0  0  0
 18 23  2  0  0  0  0
 18 19  1  0  0  0  0
 19 20  2  0  0  0  0
 20 21  1  0  0  0  0
 20 25  1  0  0  0  0
 22 17  1  0  0  0  0
 22 21  2  0  0  0  0
 23 22  1  0  0  0  0
 24 19  1  0  0  0  0
 26 18  1  0  0  0  0
 27 26  1  0  0  0  0
 28  1  1  0  0  0  0
 29 30  1  0  0  0  0
 29 28  1  0  0  0  0
 30 31  1  0  0  0  0
 32 30  2  0  0  0  0
 33 32  1  0  0  0  0
 34 33  2  0  0  0  0
 34 39  1  0  0  0  0
 35 34  1  0  0  0  0
 36 35  2  0  0  0  0
 36 37  1  0  0  0  0
 37 38  2  0  0  0  0
 38 39  1  0  0  0  0
 39 29  2  0  0  0  0
M  END
>  <minimizedAffinity>
-6.37692595

$$$$
