
 OpenBabel03252501123D

 22 24  0  0  0  0  0  0  0  0999 V2000
   36.9000   27.8940   42.6970 C   0  0  0  0  0  0  0  0  0  0  0  0
   36.2400   27.4210   43.6790 O   0  0  0  0  0  0  0  0  0  0  0  0
   38.2720   28.4310   42.7380 C   0  0  0  0  0  0  0  0  0  0  0  0
   38.5420   29.7780   42.4780 C   0  0  0  0  0  0  0  0  0  0  0  0
   37.7230   30.4560   42.2440 H   0  0  0  0  0  0  0  0  0  0  0  0
   39.7940   30.3340   42.4950 C   0  0  0  0  0  3  0  0  0  0  0  0
   40.8680   29.5200   42.7860 C   0  0  0  0  0  3  0  0  0  0  0  0
   40.6590   28.1880   43.0490 C   0  0  0  0  0  0  0  0  0  0  0  0
   41.7430   27.3610   43.3450 C   0  0  0  0  0  3  0  0  0  0  0  0
   41.5770   26.0170   43.6170 C   0  0  0  0  0  3  0  0  0  0  0  0
   40.2880   25.5100   43.5870 C   0  0  0  0  0  3  0  0  0  0  0  0
   39.2500   26.3580   43.2900 C   0  0  0  0  0  3  0  0  0  0  0  0
   39.3710   27.6930   43.0150 C   0  0  0  0  0  0  0  0  0  0  0  0
   36.4120   27.1100   39.1240 C   0  0  0  0  0  0  0  0  0  0  0  0
   36.8890   27.0470   40.4530 C   0  0  0  0  0  0  0  0  0  0  0  0
   36.4000   27.9840   41.3490 C   0  0  0  0  0  0  0  0  0  0  0  0
   35.5040   28.9110   40.9430 N   0  0  0  0  0  0  0  0  0  0  0  0
   35.0620   28.9480   39.6560 C   0  0  0  0  0  0  0  0  0  0  0  0
   35.5160   28.0430   38.7380 N   0  0  0  0  0  0  0  0  0  0  0  0
   36.7440   26.4180   38.3670 H   0  0  0  0  0  0  0  0  0  0  0  0
   37.6070   26.2760   40.7050 H   0  0  0  0  0  0  0  0  0  0  0  0
   34.3440   29.6980   39.3510 H   0  0  0  0  0  0  0  0  0  0  0  0
  1  3  1  0  0  0  0
  1  2  2  0  0  0  0
  3 13  1  0  0  0  0
  4  6  1  0  0  0  0
  4  3  2  0  0  0  0
  5  4  1  0  0  0  0
  6  7  2  0  0  0  0
  7  8  1  0  0  0  0
  8  9  1  0  0  0  0
  9 10  2  0  0  0  0
 11 10  1  0  0  0  0
 12 11  2  0  0  0  0
 13  8  2  0  0  0  0
 13 12  1  0  0  0  0
 14 15  1  0  0  0  0
 15 21  1  0  0  0  0
 15 16  2  0  0  0  0
 16  1  1  0  0  0  0
 17 16  1  0  0  0  0
 18 17  2  0  0  0  0
 19 14  2  0  0  0  0
 19 18  1  0  0  0  0
 20 14  1  0  0  0  0
 22 18  1  0  0  0  0
M  END
>  <minimizedAffinity>
-5.26159763

$$$$

 OpenBabel03252501123D

 22 24  0  0  0  0  0  0  0  0999 V2000
   36.2520   29.6440   40.5030 C   0  0  0  0  0  0  0  0  0  0  0  0
   35.0470   29.6340   40.0890 O   0  0  0  0  0  0  0  0  0  0  0  0
   36.8500   28.7270   41.4900 C   0  0  0  0  0  0  0  0  0  0  0  0
   37.3260   29.1820   42.7230 C   0  0  0  0  0  0  0  0  0  0  0  0
   37.2520   30.2390   42.9720 H   0  0  0  0  0  0  0  0  0  0  0  0
   37.8960   28.3800   43.6770 C   0  0  0  0  0  3  0  0  0  0  0  0
   38.0150   27.0320   43.4130 C   0  0  0  0  0  3  0  0  0  0  0  0
   37.5640   26.5320   42.2160 C   0  0  0  0  0  0  0  0  0  0  0  0
   37.6800   25.1680   41.9460 C   0  0  0  0  0  3  0  0  0  0  0  0
   37.2380   24.6230   40.7560 C   0  0  0  0  0  3  0  0  0  0  0  0
   36.6700   25.4820   39.8300 C   0  0  0  0  0  3  0  0  0  0  0  0
   36.5750   26.8170   40.1350 C   0  0  0  0  0  3  0  0  0  0  0  0
   36.9990   27.3950   41.2990 C   0  0  0  0  0  0  0  0  0  0  0  0
   37.9390   32.8590   39.8370 C   0  0  0  0  0  0  0  0  0  0  0  0
   36.9680   31.9200   40.2570 C   0  0  0  0  0  0  0  0  0  0  0  0
   37.2560   30.5790   40.0620 C   0  0  0  0  0  0  0  0  0  0  0  0
   38.4240   30.2090   39.4920 N   0  0  0  0  0  0  0  0  0  0  0  0
   39.3400   31.1360   39.0970 C   0  0  0  0  0  0  0  0  0  0  0  0
   39.0990   32.4710   39.2700 N   0  0  0  0  0  0  0  0  0  0  0  0
   37.7900   33.9210   39.9530 H   0  0  0  0  0  0  0  0  0  0  0  0
   36.0550   32.2910   40.7060 H   0  0  0  0  0  0  0  0  0  0  0  0
   40.2700   30.8200   38.6420 H   0  0  0  0  0  0  0  0  0  0  0  0
  1  3  1  0  0  0  0
  2  1  2  0  0  0  0
  3  4  1  0  0  0  0
  4  5  1  0  0  0  0
  4  6  2  0  0  0  0
  7  6  1  0  0  0  0
  8  7  2  0  0  0  0
  9  8  1  0  0  0  0
 10  9  2  0  0  0  0
 11 12  2  0  0  0  0
 11 10  1  0  0  0  0
 12 13  1  0  0  0  0
 13  3  2  0  0  0  0
 13  8  1  0  0  0  0
 14 20  1  0  0  0  0
 14 15  1  0  0  0  0
 15 21  1  0  0  0  0
 16 15  2  0  0  0  0
 16  1  1  0  0  0  0
 17 16  1  0  0  0  0
 18 19  1  0  0  0  0
 18 17  2  0  0  0  0
 19 14  2  0  0  0  0
 22 18  1  0  0  0  0
M  END
>  <minimizedAffinity>
-5.24686813

$$$$

 OpenBabel03252501123D

 22 24  0  0  0  0  0  0  0  0999 V2000
   38.5680   32.9840   40.0490 C   0  0  0  0  0  0  0  0  0  0  0  0
   37.7110   33.9260   40.0820 O   0  0  0  0  0  0  0  0  0  0  0  0
   38.6140   31.8070   40.9360 C   0  0  0  0  0  0  0  0  0  0  0  0
   39.6570   31.6130   41.8460 C   0  0  0  0  0  0  0  0  0  0  0  0
   40.4580   32.3470   41.9130 H   0  0  0  0  0  0  0  0  0  0  0  0
   39.7580   30.5380   42.6910 C   0  0  0  0  0  3  0  0  0  0  0  0
   38.7710   29.5770   42.6480 C   0  0  0  0  0  3  0  0  0  0  0  0
   37.7220   29.7190   41.7710 C   0  0  0  0  0  0  0  0  0  0  0  0
   36.7200   28.7490   41.7260 C   0  0  0  0  0  3  0  0  0  0  0  0
   35.6480   28.8540   40.8620 C   0  0  0  0  0  3  0  0  0  0  0  0
   35.5980   29.9620   40.0320 C   0  0  0  0  0  3  0  0  0  0  0  0
   36.6060   30.8920   40.1080 C   0  0  0  0  0  3  0  0  0  0  0  0
   37.6820   30.8260   40.9490 C   0  0  0  0  0  0  0  0  0  0  0  0
   41.7170   33.8480   38.3280 C   0  0  0  0  0  0  0  0  0  0  0  0
   40.6280   33.8980   39.2290 C   0  0  0  0  0  0  0  0  0  0  0  0
   39.6630   32.9110   39.1160 C   0  0  0  0  0  0  0  0  0  0  0  0
   39.7790   31.9510   38.1720 N   0  0  0  0  0  0  0  0  0  0  0  0
   40.8390   31.9280   37.3170 C   0  0  0  0  0  0  0  0  0  0  0  0
   41.8160   32.8810   37.3930 N   0  0  0  0  0  0  0  0  0  0  0  0
   42.5090   34.5790   38.3520 H   0  0  0  0  0  0  0  0  0  0  0  0
   40.6020   34.6980   39.9600 H   0  0  0  0  0  0  0  0  0  0  0  0
   40.9140   31.1500   36.5680 H   0  0  0  0  0  0  0  0  0  0  0  0
  1  2  2  0  0  0  0
  1  3  1  0  0  0  0
  3 13  2  0  0  0  0
  3  4  1  0  0  0  0
  4  5  1  0  0  0  0
  4  6  2  0  0  0  0
  7  6  1  0  0  0  0
  8  7  2  0  0  0  0
  9  8  1  0  0  0  0
 10  9  2  0  0  0  0
 11 12  2  0  0  0  0
 11 10  1  0  0  0  0
 12 13  1  0  0  0  0
 13  8  1  0  0  0  0
 14 20  1  0  0  0  0
 14 15  1  0  0  0  0
 15 21  1  0  0  0  0
 16 15  2  0  0  0  0
 16  1  1  0  0  0  0
 17 16  1  0  0  0  0
 18 19  1  0  0  0  0
 18 17  2  0  0  0  0
 19 14  2  0  0  0  0
 22 18  1  0  0  0  0
M  END
>  <minimizedAffinity>
-5.20328951

$$$$

 OpenBabel03252501123D

 22 24  0  0  0  0  0  0  0  0999 V2000
   37.3390   28.4810   42.6620 C   0  0  0  0  0  0  0  0  0  0  0  0
   37.3470   29.2480   43.6800 O   0  0  0  0  0  0  0  0  0  0  0  0
   37.8020   27.0820   42.6130 C   0  0  0  0  0  0  0  0  0  0  0  0
   36.9510   26.0380   42.2390 C   0  0  0  0  0  0  0  0  0  0  0  0
   35.9190   26.2540   41.9710 H   0  0  0  0  0  0  0  0  0  0  0  0
   37.3220   24.7200   42.1800 C   0  0  0  0  0  3  0  0  0  0  0  0
   38.6180   24.3890   42.5110 C   0  0  0  0  0  3  0  0  0  0  0  0
   39.4970   25.3770   42.8850 C   0  0  0  0  0  0  0  0  0  0  0  0
   40.8110   25.0460   43.2190 C   0  0  0  0  0  3  0  0  0  0  0  0
   41.7270   26.0080   43.5990 C   0  0  0  0  0  3  0  0  0  0  0  0
   41.2960   27.3240   43.6400 C   0  0  0  0  0  3  0  0  0  0  0  0
   39.9940   27.6060   43.3050 C   0  0  0  0  0  3  0  0  0  0  0  0
   39.0580   26.6840   42.9240 C   0  0  0  0  0  0  0  0  0  0  0  0
   37.3950   29.5580   39.1330 C   0  0  0  0  0  0  0  0  0  0  0  0
   37.8350   29.1830   40.4240 C   0  0  0  0  0  0  0  0  0  0  0  0
   36.8630   28.8640   41.3580 C   0  0  0  0  0  0  0  0  0  0  0  0
   35.5540   28.9180   41.0250 N   0  0  0  0  0  0  0  0  0  0  0  0
   35.1600   29.2840   39.7730 C   0  0  0  0  0  0  0  0  0  0  0  0
   36.0840   29.6060   38.8190 N   0  0  0  0  0  0  0  0  0  0  0  0
   38.0890   29.8210   38.3510 H   0  0  0  0  0  0  0  0  0  0  0  0
   38.9000   29.1620   40.6180 H   0  0  0  0  0  0  0  0  0  0  0  0
   34.1070   29.3210   39.5260 H   0  0  0  0  0  0  0  0  0  0  0  0
  1  2  2  0  0  0  0
  3  1  1  0  0  0  0
  3 13  1  0  0  0  0
  4  3  2  0  0  0  0
  5  4  1  0  0  0  0
  6  4  1  0  0  0  0
  6  7  2  0  0  0  0
  7  8  1  0  0  0  0
  8 13  2  0  0  0  0
  8  9  1  0  0  0  0
  9 10  2  0  0  0  0
 10 11  1  0  0  0  0
 12 11  2  0  0  0  0
 13 12  1  0  0  0  0
 14 15  1  0  0  0  0
 15 21  1  0  0  0  0
 15 16  2  0  0  0  0
 16  1  1  0  0  0  0
 17 16  1  0  0  0  0
 18 17  2  0  0  0  0
 19 14  2  0  0  0  0
 19 18  1  0  0  0  0
 20 14  1  0  0  0  0
 22 18  1  0  0  0  0
M  END
>  <minimizedAffinity>
-5.13232756

$$$$

 OpenBabel03252501123D

 22 24  0  0  0  0  0  0  0  0999 V2000
   37.0020   27.3580   42.9380 C   0  0  0  0  0  0  0  0  0  0  0  0
   35.9660   27.3200   43.6790 O   0  0  0  0  0  0  0  0  0  0  0  0
   37.6160   28.5600   42.3460 C   0  0  0  0  0  0  0  0  0  0  0  0
   38.6820   29.2200   42.9630 C   0  0  0  0  0  0  0  0  0  0  0  0
   39.0810   28.8410   43.9020 H   0  0  0  0  0  0  0  0  0  0  0  0
   39.2900   30.3440   42.4640 C   0  0  0  0  0  3  0  0  0  0  0  0
   38.8250   30.8680   41.2770 C   0  0  0  0  0  3  0  0  0  0  0  0
   37.7780   30.2570   40.6300 C   0  0  0  0  0  0  0  0  0  0  0  0
   37.3050   30.7830   39.4260 C   0  0  0  0  0  3  0  0  0  0  0  0
   36.2570   30.2000   38.7420 C   0  0  0  0  0  3  0  0  0  0  0  0
   35.6820   29.0660   39.2930 C   0  0  0  0  0  3  0  0  0  0  0  0
   36.1770   28.5820   40.4790 C   0  0  0  0  0  3  0  0  0  0  0  0
   37.2120   29.1290   41.1860 C   0  0  0  0  0  0  0  0  0  0  0  0
   37.8530   24.1630   41.2990 C   0  0  0  0  0  0  0  0  0  0  0  0
   37.1260   25.3060   41.7030 C   0  0  0  0  0  0  0  0  0  0  0  0
   37.7640   26.2000   42.5460 C   0  0  0  0  0  0  0  0  0  0  0  0
   39.0310   25.9650   42.9540 N   0  0  0  0  0  0  0  0  0  0  0  0
   39.7080   24.8550   42.5480 C   0  0  0  0  0  0  0  0  0  0  0  0
   39.1180   23.9460   41.7150 N   0  0  0  0  0  0  0  0  0  0  0  0
   37.4270   23.4200   40.6430 H   0  0  0  0  0  0  0  0  0  0  0  0
   36.1140   25.4270   41.3350 H   0  0  0  0  0  0  0  0  0  0  0  0
   40.7220   24.6850   42.8860 H   0  0  0  0  0  0  0  0  0  0  0  0
  1  2  2  0  0  0  0
  3  1  1  0  0  0  0
  3  4  1  0  0  0  0
  4  5  1  0  0  0  0
  6  4  2  0  0  0  0
  7  6  1  0  0  0  0
  8 13  1  0  0  0  0
  8  7  2  0  0  0  0
  9  8  1  0  0  0  0
 10 11  1  0  0  0  0
 10  9  2  0  0  0  0
 11 12  2  0  0  0  0
 12 13  1  0  0  0  0
 13  3  2  0  0  0  0
 14 15  2  0  0  0  0
 14 19  1  0  0  0  0
 15 16  1  0  0  0  0
 16  1  1  0  0  0  0
 16 17  2  0  0  0  0
 18 22  1  0  0  0  0
 18 17  1  0  0  0  0
 19 18  2  0  0  0  0
 20 14  1  0  0  0  0
 21 15  1  0  0  0  0
M  END
>  <minimizedAffinity>
-5.10875654

$$$$

 OpenBabel03252501123D

 22 24  0  0  0  0  0  0  0  0999 V2000
   38.7300   31.6370   40.5450 C   0  0  0  0  0  0  0  0  0  0  0  0
   38.9000   32.6140   41.3450 O   0  0  0  0  0  0  0  0  0  0  0  0
   37.6310   30.6550   40.5770 C   0  0  0  0  0  0  0  0  0  0  0  0
   36.5870   30.6890   39.6480 C   0  0  0  0  0  0  0  0  0  0  0  0
   36.5800   31.4530   38.8730 H   0  0  0  0  0  0  0  0  0  0  0  0
   35.5370   29.8090   39.6310 C   0  0  0  0  0  3  0  0  0  0  0  0
   35.4950   28.8210   40.5910 C   0  0  0  0  0  3  0  0  0  0  0  0
   36.4950   28.7420   41.5290 C   0  0  0  0  0  0  0  0  0  0  0  0
   36.4580   27.7420   42.5010 C   0  0  0  0  0  3  0  0  0  0  0  0
   37.4440   27.6260   43.4610 C   0  0  0  0  0  3  0  0  0  0  0  0
   38.4820   28.5430   43.4290 C   0  0  0  0  0  3  0  0  0  0  0  0
   38.4800   29.5110   42.4560 C   0  0  0  0  0  3  0  0  0  0  0  0
   37.5250   29.6600   41.4890 C   0  0  0  0  0  0  0  0  0  0  0  0
   40.7370   32.0720   37.4780 C   0  0  0  0  0  0  0  0  0  0  0  0
   39.8740   32.3530   38.5620 C   0  0  0  0  0  0  0  0  0  0  0  0
   39.6090   31.3220   39.4480 C   0  0  0  0  0  0  0  0  0  0  0  0
   40.1640   30.1040   39.2600 N   0  0  0  0  0  0  0  0  0  0  0  0
   40.9920   29.8620   38.2060 C   0  0  0  0  0  0  0  0  0  0  0  0
   41.2830   30.8500   37.3080 N   0  0  0  0  0  0  0  0  0  0  0  0
   40.9930   32.8210   36.7460 H   0  0  0  0  0  0  0  0  0  0  0  0
   39.4660   33.3530   38.6480 H   0  0  0  0  0  0  0  0  0  0  0  0
   41.4270   28.8800   38.0730 H   0  0  0  0  0  0  0  0  0  0  0  0
  1  3  1  0  0  0  0
  1  2  2  0  0  0  0
  3 13  1  0  0  0  0
  4  3  2  0  0  0  0
  5  4  1  0  0  0  0
  6  4  1  0  0  0  0
  6  7  2  0  0  0  0
  7  8  1  0  0  0  0
  8  9  1  0  0  0  0
  9 10  2  0  0  0  0
 11 10  1  0  0  0  0
 12 11  2  0  0  0  0
 13  8  2  0  0  0  0
 13 12  1  0  0  0  0
 14 15  1  0  0  0  0
 15 21  1  0  0  0  0
 15 16  2  0  0  0  0
 16  1  1  0  0  0  0
 17 16  1  0  0  0  0
 18 17  2  0  0  0  0
 19 14  2  0  0  0  0
 19 18  1  0  0  0  0
 20 14  1  0  0  0  0
 22 18  1  0  0  0  0
M  END
>  <minimizedAffinity>
-5.04786348

$$$$

 OpenBabel03252501123D

 22 24  0  0  0  0  0  0  0  0999 V2000
   40.5320   28.1300   42.9040 C   0  0  0  0  0  0  0  0  0  0  0  0
   41.5210   27.6180   43.5230 O   0  0  0  0  0  0  0  0  0  0  0  0
   39.1250   27.6970   42.9830 C   0  0  0  0  0  0  0  0  0  0  0  0
   38.1420   28.4980   43.5710 C   0  0  0  0  0  0  0  0  0  0  0  0
   38.4110   29.4700   43.9790 H   0  0  0  0  0  0  0  0  0  0  0  0
   36.8210   28.1480   43.6800 C   0  0  0  0  0  3  0  0  0  0  0  0
   36.4250   26.9260   43.1800 C   0  0  0  0  0  3  0  0  0  0  0  0
   37.3510   26.1000   42.5920 C   0  0  0  0  0  0  0  0  0  0  0  0
   36.9540   24.8630   42.0830 C   0  0  0  0  0  3  0  0  0  0  0  0
   37.8520   24.0020   41.4820 C   0  0  0  0  0  3  0  0  0  0  0  0
   39.1740   24.4100   41.4000 C   0  0  0  0  0  3  0  0  0  0  0  0
   39.5230   25.6340   41.9140 C   0  0  0  0  0  3  0  0  0  0  0  0
   38.6650   26.5140   42.5150 C   0  0  0  0  0  0  0  0  0  0  0  0
   41.2270   31.5380   41.6670 C   0  0  0  0  0  0  0  0  0  0  0  0
   41.1170   30.4270   42.5350 C   0  0  0  0  0  0  0  0  0  0  0  0
   40.6290   29.2470   41.9980 C   0  0  0  0  0  0  0  0  0  0  0  0
   40.2780   29.1860   40.6950 N   0  0  0  0  0  0  0  0  0  0  0  0
   40.3950   30.2730   39.8820 C   0  0  0  0  0  0  0  0  0  0  0  0
   40.8720   31.4570   40.3680 N   0  0  0  0  0  0  0  0  0  0  0  0
   41.5970   32.4910   42.0080 H   0  0  0  0  0  0  0  0  0  0  0  0
   41.4180   30.5510   43.5690 H   0  0  0  0  0  0  0  0  0  0  0  0
   40.1080   30.2030   38.8400 H   0  0  0  0  0  0  0  0  0  0  0  0
  1  3  1  0  0  0  0
  1  2  2  0  0  0  0
  3  4  1  0  0  0  0
  4  6  2  0  0  0  0
  4  5  1  0  0  0  0
  7  6  1  0  0  0  0
  8  7  2  0  0  0  0
  9  8  1  0  0  0  0
 10  9  2  0  0  0  0
 11 10  1  0  0  0  0
 11 12  2  0  0  0  0
 12 13  1  0  0  0  0
 13  8  1  0  0  0  0
 13  3  2  0  0  0  0
 14 20  1  0  0  0  0
 14 15  1  0  0  0  0
 15 21  1  0  0  0  0
 16 15  2  0  0  0  0
 16  1  1  0  0  0  0
 17 16  1  0  0  0  0
 18 19  1  0  0  0  0
 18 17  2  0  0  0  0
 19 14  2  0  0  0  0
 22 18  1  0  0  0  0
M  END
>  <minimizedAffinity>
-4.93290138

$$$$

 OpenBabel03252501123D

 22 24  0  0  0  0  0  0  0  0999 V2000
   38.1290   30.2850   38.5270 C   0  0  0  0  0  0  0  0  0  0  0  0
   39.1110   29.6990   37.9650 O   0  0  0  0  0  0  0  0  0  0  0  0
   36.7320   29.8140   38.5710 C   0  0  0  0  0  0  0  0  0  0  0  0
   36.0770   29.5690   39.7810 C   0  0  0  0  0  0  0  0  0  0  0  0
   36.6020   29.7320   40.7210 H   0  0  0  0  0  0  0  0  0  0  0  0
   34.7850   29.1250   39.8850 C   0  0  0  0  0  3  0  0  0  0  0  0
   34.0740   28.9010   38.7260 C   0  0  0  0  0  3  0  0  0  0  0  0
   34.6700   29.1260   37.5090 C   0  0  0  0  0  0  0  0  0  0  0  0
   33.9530   28.9020   36.3330 C   0  0  0  0  0  3  0  0  0  0  0  0
   34.5140   29.1170   35.0900 C   0  0  0  0  0  3  0  0  0  0  0  0
   35.8240   29.5670   35.0450 C   0  0  0  0  0  3  0  0  0  0  0  0
   36.4930   29.7740   36.2260 C   0  0  0  0  0  3  0  0  0  0  0  0
   35.9750   29.5730   37.4750 C   0  0  0  0  0  0  0  0  0  0  0  0
   37.4160   33.7730   39.5030 C   0  0  0  0  0  0  0  0  0  0  0  0
   37.3470   32.5330   38.8260 C   0  0  0  0  0  0  0  0  0  0  0  0
   38.2230   31.5390   39.2300 C   0  0  0  0  0  0  0  0  0  0  0  0
   39.1000   31.7700   40.2330 N   0  0  0  0  0  0  0  0  0  0  0  0
   39.1430   32.9750   40.8670 C   0  0  0  0  0  0  0  0  0  0  0  0
   38.2970   33.9840   40.5030 N   0  0  0  0  0  0  0  0  0  0  0  0
   36.7680   34.5960   39.2480 H   0  0  0  0  0  0  0  0  0  0  0  0
   36.6190   32.4210   38.0320 H   0  0  0  0  0  0  0  0  0  0  0  0
   39.8520   33.1400   41.6680 H   0  0  0  0  0  0  0  0  0  0  0  0
  1  3  1  0  0  0  0
  1 16  1  0  0  0  0
  2  1  2  0  0  0  0
  3  4  1  0  0  0  0
  4  6  2  0  0  0  0
  4  5  1  0  0  0  0
  7  6  1  0  0  0  0
  8  7  2  0  0  0  0
  9  8  1  0  0  0  0
 10  9  2  0  0  0  0
 11 10  1  0  0  0  0
 11 12  2  0  0  0  0
 12 13  1  0  0  0  0
 13  8  1  0  0  0  0
 13  3  2  0  0  0  0
 14 19  1  0  0  0  0
 15 16  1  0  0  0  0
 15 14  2  0  0  0  0
 16 17  2  0  0  0  0
 17 18  1  0  0  0  0
 18 22  1  0  0  0  0
 19 18  2  0  0  0  0
 20 14  1  0  0  0  0
 21 15  1  0  0  0  0
M  END
>  <minimizedAffinity>
-4.89785814

$$$$

 OpenBabel03252501123D

 22 24  0  0  0  0  0  0  0  0999 V2000
   39.4100   29.2620   40.5960 C   0  0  0  0  0  0  0  0  0  0  0  0
   40.5950   28.9440   40.2500 O   0  0  0  0  0  0  0  0  0  0  0  0
   38.5560   28.5480   41.5630 C   0  0  0  0  0  0  0  0  0  0  0  0
   38.1150   29.1550   42.7420 C   0  0  0  0  0  0  0  0  0  0  0  0
   38.4000   30.1830   42.9590 H   0  0  0  0  0  0  0  0  0  0  0  0
   37.3250   28.5420   43.6800 C   0  0  0  0  0  3  0  0  0  0  0  0
   36.9350   27.2390   43.4560 C   0  0  0  0  0  3  0  0  0  0  0  0
   37.3410   26.5950   42.3120 C   0  0  0  0  0  0  0  0  0  0  0  0
   36.9460   25.2770   42.0810 C   0  0  0  0  0  3  0  0  0  0  0  0
   37.3300   24.5930   40.9450 C   0  0  0  0  0  3  0  0  0  0  0  0
   38.1270   25.2640   40.0310 C   0  0  0  0  0  3  0  0  0  0  0  0
   38.4930   26.5600   40.2970 C   0  0  0  0  0  3  0  0  0  0  0  0
   38.1350   27.2710   41.4090 C   0  0  0  0  0  0  0  0  0  0  0  0
   36.9490   31.2280   38.6730 C   0  0  0  0  0  0  0  0  0  0  0  0
   37.6740   30.1280   39.1870 C   0  0  0  0  0  0  0  0  0  0  0  0
   38.6920   30.4010   40.0860 C   0  0  0  0  0  0  0  0  0  0  0  0
   38.9620   31.6770   40.4410 N   0  0  0  0  0  0  0  0  0  0  0  0
   38.2460   32.7170   39.9290 C   0  0  0  0  0  0  0  0  0  0  0  0
   37.2320   32.4950   39.0410 N   0  0  0  0  0  0  0  0  0  0  0  0
   36.1420   31.0990   37.9700 H   0  0  0  0  0  0  0  0  0  0  0  0
   37.4000   29.1330   38.8560 H   0  0  0  0  0  0  0  0  0  0  0  0
   38.4780   33.7320   40.2270 H   0  0  0  0  0  0  0  0  0  0  0  0
  1  3  1  0  0  0  0
  2  1  2  0  0  0  0
  3  4  1  0  0  0  0
  4  5  1  0  0  0  0
  4  6  2  0  0  0  0
  7  6  1  0  0  0  0
  8  7  2  0  0  0  0
  9  8  1  0  0  0  0
 10  9  2  0  0  0  0
 11 12  2  0  0  0  0
 11 10  1  0  0  0  0
 12 13  1  0  0  0  0
 13  3  2  0  0  0  0
 13  8  1  0  0  0  0
 14 19  2  0  0  0  0
 14 15  1  0  0  0  0
 15 16  2  0  0  0  0
 16 17  1  0  0  0  0
 16  1  1  0  0  0  0
 18 22  1  0  0  0  0
 18 17  2  0  0  0  0
 19 18  1  0  0  0  0
 20 14  1  0  0  0  0
 21 15  1  0  0  0  0
M  END
>  <minimizedAffinity>
-4.87221527

$$$$
