
 OpenBabel03242513123D

 22 24  0  0  0  0  0  0  0  0999 V2000
   39.0700   30.5570   42.0690 C   0  0  0  0  0  0  0  0  0  0  0  0
   39.8020   31.3530   42.7470 O   0  0  0  0  0  0  0  0  0  0  0  0
   38.6610   29.2060   42.5130 C   0  0  0  0  0  0  0  0  0  0  0  0
   37.2860   28.9380   42.5270 C   0  0  0  0  0  0  0  0  0  0  0  0
   36.5780   29.7190   42.2200 H   0  0  0  0  0  0  0  0  0  0  0  0
   36.7200   27.7610   42.8960 C   0  0  0  0  0  3  0  0  0  0  0  0
   37.5570   26.7380   43.2930 C   0  0  0  0  0  3  0  0  0  0  0  0
   38.9160   26.9720   43.2900 C   0  0  0  0  0  0  0  0  0  0  0  0
   39.8220   25.9910   43.6780 C   0  0  0  0  0  3  0  0  0  0  0  0
   41.1900   26.2200   43.6780 C   0  0  0  0  0  3  0  0  0  0  0  0
   41.7010   27.4590   43.2850 C   0  0  0  0  0  3  0  0  0  0  0  0
   40.8140   28.4350   42.9000 C   0  0  0  0  0  3  0  0  0  0  0  0
   39.4630   28.1750   42.9100 C   0  0  0  0  0  0  0  0  0  0  0  0
   37.2180   32.3600   39.5300 C   0  0  0  0  0  0  0  0  0  0  0  0
   37.5310   31.6710   38.3290 C   0  0  0  0  0  0  0  0  0  0  0  0
   38.3920   30.5710   38.4060 C   0  0  0  0  0  0  0  0  0  0  0  0
   38.8740   30.2320   39.6260 N   0  0  0  0  0  0  0  0  0  0  0  0
   38.5510   30.9170   40.7550 C   0  0  0  0  0  0  0  0  0  0  0  0
   37.7310   31.9740   40.7150 N   0  0  0  0  0  0  0  0  0  0  0  0
   36.5450   33.2070   39.4070 H   0  0  0  0  0  0  0  0  0  0  0  0
   37.1140   31.9930   37.3940 H   0  0  0  0  0  0  0  0  0  0  0  0
   38.6370   30.0430   37.5150 H   0  0  0  0  0  0  0  0  0  0  0  0
  1  3  1  0  0  0  0
  1  2  2  0  0  0  0
  3  4  2  0  0  0  0
  3 13  1  0  0  0  0
  4  6  1  0  0  0  0
  5  4  1  0  0  0  0
  6  7  2  0  0  0  0
  8  7  1  0  0  0  0
  8  9  1  0  0  0  0
 10  9  2  0  0  0  0
 11 10  1  0  0  0  0
 12 13  1  0  0  0  0
 12 11  2  0  0  0  0
 13  8  2  0  0  0  0
 14 19  1  0  0  0  0
 15 16  1  0  0  0  0
 15 14  2  0  0  0  0
 16 17  2  0  0  0  0
 17 18  1  0  0  0  0
 18  1  1  0  0  0  0
 19 18  2  0  0  0  0
 20 14  1  0  0  0  0
 21 15  1  0  0  0  0
 22 16  1  0  0  0  0
M  END
>  <minimizedAffinity>
-5.31214809

$$$$

 OpenBabel03242513123D

 22 24  0  0  0  0  0  0  0  0999 V2000
   35.4390   28.9950   39.6160 C   0  0  0  0  0  0  0  0  0  0  0  0
   34.1990   29.1930   39.8470 O   0  0  0  0  0  0  0  0  0  0  0  0
   36.2030   27.8160   40.0790 C   0  0  0  0  0  0  0  0  0  0  0  0
   36.2450   26.7150   39.2130 C   0  0  0  0  0  0  0  0  0  0  0  0
   35.7210   26.7620   38.2500 H   0  0  0  0  0  0  0  0  0  0  0  0
   36.8970   25.5500   39.4580 C   0  0  0  0  0  3  0  0  0  0  0  0
   37.5750   25.4280   40.6530 C   0  0  0  0  0  3  0  0  0  0  0  0
   37.5520   26.4950   41.5260 C   0  0  0  0  0  0  0  0  0  0  0  0
   38.2120   26.4460   42.7500 C   0  0  0  0  0  3  0  0  0  0  0  0
   38.1910   27.5150   43.6320 C   0  0  0  0  0  3  0  0  0  0  0  0
   37.4980   28.6850   43.3120 C   0  0  0  0  0  3  0  0  0  0  0  0
   36.8440   28.7430   42.1050 C   0  0  0  0  0  3  0  0  0  0  0  0
   36.8840   27.6650   41.2520 C   0  0  0  0  0  0  0  0  0  0  0  0
   37.2170   30.4430   36.8110 C   0  0  0  0  0  0  0  0  0  0  0  0
   37.7340   31.6590   37.3300 C   0  0  0  0  0  0  0  0  0  0  0  0
   37.4630   31.9740   38.6650 C   0  0  0  0  0  0  0  0  0  0  0  0
   36.7200   31.0970   39.3820 N   0  0  0  0  0  0  0  0  0  0  0  0
   36.2410   29.9410   38.8500 C   0  0  0  0  0  0  0  0  0  0  0  0
   36.4830   29.6100   37.5750 N   0  0  0  0  0  0  0  0  0  0  0  0
   37.4610   30.2520   35.7680 H   0  0  0  0  0  0  0  0  0  0  0  0
   38.3170   32.3110   36.7070 H   0  0  0  0  0  0  0  0  0  0  0  0
   37.8430   32.8830   39.0700 H   0  0  0  0  0  0  0  0  0  0  0  0
  1  2  2  0  0  0  0
  1  3  1  0  0  0  0
  3 13  1  0  0  0  0
  4  6  1  0  0  0  0
  4  3  2  0  0  0  0
  5  4  1  0  0  0  0
  6  7  2  0  0  0  0
  7  8  1  0  0  0  0
  8  9  1  0  0  0  0
  9 10  2  0  0  0  0
 11 10  1  0  0  0  0
 12 11  2  0  0  0  0
 13  8  2  0  0  0  0
 13 12  1  0  0  0  0
 14 15  2  0  0  0  0
 14 19  1  0  0  0  0
 15 16  1  0  0  0  0
 16 22  1  0  0  0  0
 16 17  2  0  0  0  0
 18 17  1  0  0  0  0
 18  1  1  0  0  0  0
 19 18  2  0  0  0  0
 20 14  1  0  0  0  0
 21 15  1  0  0  0  0
M  END
>  <minimizedAffinity>
-5.28322744

$$$$

 OpenBabel03242513123D

 22 24  0  0  0  0  0  0  0  0999 V2000
   35.9360   29.1900   40.3510 C   0  0  0  0  0  0  0  0  0  0  0  0
   34.6650   29.1380   40.2450 O   0  0  0  0  0  0  0  0  0  0  0  0
   36.7260   28.4510   41.3610 C   0  0  0  0  0  0  0  0  0  0  0  0
   37.1880   29.1870   42.4600 C   0  0  0  0  0  0  0  0  0  0  0  0
   36.9590   30.2590   42.5300 H   0  0  0  0  0  0  0  0  0  0  0  0
   37.9210   28.6870   43.4870 C   0  0  0  0  0  3  0  0  0  0  0  0
   38.2420   27.3450   43.4570 C   0  0  0  0  0  3  0  0  0  0  0  0
   37.8020   26.5950   42.3890 C   0  0  0  0  0  0  0  0  0  0  0  0
   38.0870   25.2370   42.2880 C   0  0  0  0  0  3  0  0  0  0  0  0
   37.6480   24.4760   41.2160 C   0  0  0  0  0  3  0  0  0  0  0  0
   36.8980   25.0600   40.1930 C   0  0  0  0  0  3  0  0  0  0  0  0
   36.6090   26.4010   40.2830 C   0  0  0  0  0  3  0  0  0  0  0  0
   37.0600   27.1270   41.3610 C   0  0  0  0  0  0  0  0  0  0  0  0
   37.3300   32.1400   38.7770 C   0  0  0  0  0  0  0  0  0  0  0  0
   38.2450   31.6160   37.8270 C   0  0  0  0  0  0  0  0  0  0  0  0
   38.3750   30.2260   37.7340 C   0  0  0  0  0  0  0  0  0  0  0  0
   37.6180   29.4650   38.5600 N   0  0  0  0  0  0  0  0  0  0  0  0
   36.7520   30.0040   39.4590 C   0  0  0  0  0  0  0  0  0  0  0  0
   36.6040   31.3300   39.5720 N   0  0  0  0  0  0  0  0  0  0  0  0
   37.2730   33.2260   38.8030 H   0  0  0  0  0  0  0  0  0  0  0  0
   38.8170   32.2760   37.2010 H   0  0  0  0  0  0  0  0  0  0  0  0
   39.0580   29.8160   37.0270 H   0  0  0  0  0  0  0  0  0  0  0  0
  1  3  1  0  0  0  0
  2  1  2  0  0  0  0
  3  4  1  0  0  0  0
  4  5  1  0  0  0  0
  4  6  2  0  0  0  0
  7  6  1  0  0  0  0
  8  7  2  0  0  0  0
  9  8  1  0  0  0  0
 10  9  2  0  0  0  0
 11 12  2  0  0  0  0
 11 10  1  0  0  0  0
 12 13  1  0  0  0  0
 13  3  2  0  0  0  0
 13  8  1  0  0  0  0
 14 20  1  0  0  0  0
 14 19  1  0  0  0  0
 15 14  2  0  0  0  0
 16 15  1  0  0  0  0
 16 17  2  0  0  0  0
 17 18  1  0  0  0  0
 18 19  2  0  0  0  0
 18  1  1  0  0  0  0
 21 15  1  0  0  0  0
 22 16  1  0  0  0  0
M  END
>  <minimizedAffinity>
-5.25909042

$$$$

 OpenBabel03242513123D

 22 24  0  0  0  0  0  0  0  0999 V2000
   36.4890   29.8670   40.4240 C   0  0  0  0  0  0  0  0  0  0  0  0
   35.3280   29.9440   39.8980 O   0  0  0  0  0  0  0  0  0  0  0  0
   36.9050   28.8330   41.3960 C   0  0  0  0  0  0  0  0  0  0  0  0
   37.3140   29.2830   42.6580 C   0  0  0  0  0  0  0  0  0  0  0  0
   37.3160   30.3600   42.8750 H   0  0  0  0  0  0  0  0  0  0  0  0
   37.7240   28.4890   43.6790 C   0  0  0  0  0  3  0  0  0  0  0  0
   37.7450   27.1260   43.4690 C   0  0  0  0  0  3  0  0  0  0  0  0
   37.3480   26.6520   42.2370 C   0  0  0  0  0  0  0  0  0  0  0  0
   37.3420   25.2910   41.9500 C   0  0  0  0  0  3  0  0  0  0  0  0
   36.9450   24.8080   40.7130 C   0  0  0  0  0  3  0  0  0  0  0  0
   36.5350   25.6860   39.7080 C   0  0  0  0  0  3  0  0  0  0  0  0
   36.5360   27.0330   39.9810 C   0  0  0  0  0  3  0  0  0  0  0  0
   36.9360   27.4790   41.2200 C   0  0  0  0  0  0  0  0  0  0  0  0
   38.2400   33.0280   40.1650 C   0  0  0  0  0  0  0  0  0  0  0  0
   39.4700   32.6840   39.5450 C   0  0  0  0  0  0  0  0  0  0  0  0
   39.6880   31.3420   39.2150 C   0  0  0  0  0  0  0  0  0  0  0  0
   38.7100   30.4530   39.5090 N   0  0  0  0  0  0  0  0  0  0  0  0
   37.5440   30.8210   40.1040 C   0  0  0  0  0  0  0  0  0  0  0  0
   37.3040   32.0970   40.4320 N   0  0  0  0  0  0  0  0  0  0  0  0
   38.1280   34.0860   40.3980 H   0  0  0  0  0  0  0  0  0  0  0  0
   40.2050   33.4390   39.3400 H   0  0  0  0  0  0  0  0  0  0  0  0
   40.6060   31.0670   38.7500 H   0  0  0  0  0  0  0  0  0  0  0  0
  1  3  1  0  0  0  0
  2  1  2  0  0  0  0
  3  4  1  0  0  0  0
  4  5  1  0  0  0  0
  4  6  2  0  0  0  0
  7  6  1  0  0  0  0
  8  7  2  0  0  0  0
  9  8  1  0  0  0  0
 10  9  2  0  0  0  0
 11 12  2  0  0  0  0
 11 10  1  0  0  0  0
 12 13  1  0  0  0  0
 13  3  2  0  0  0  0
 13  8  1  0  0  0  0
 14 20  1  0  0  0  0
 14 19  1  0  0  0  0
 15 14  2  0  0  0  0
 16 17  2  0  0  0  0
 16 15  1  0  0  0  0
 17 18  1  0  0  0  0
 18  1  1  0  0  0  0
 18 19  2  0  0  0  0
 21 15  1  0  0  0  0
 22 16  1  0  0  0  0
M  END
>  <minimizedAffinity>
-5.21980715

$$$$

 OpenBabel03242513123D

 22 24  0  0  0  0  0  0  0  0999 V2000
   38.7550   31.6070   40.6010 C   0  0  0  0  0  0  0  0  0  0  0  0
   38.9140   32.6060   41.3800 O   0  0  0  0  0  0  0  0  0  0  0  0
   37.6680   30.6110   40.7240 C   0  0  0  0  0  0  0  0  0  0  0  0
   36.5910   30.7430   39.8380 C   0  0  0  0  0  0  0  0  0  0  0  0
   36.5870   31.5620   39.1060 H   0  0  0  0  0  0  0  0  0  0  0  0
   35.5070   29.9270   39.7930 C   0  0  0  0  0  3  0  0  0  0  0  0
   35.4520   28.8780   40.6880 C   0  0  0  0  0  3  0  0  0  0  0  0
   36.4970   28.7220   41.5720 C   0  0  0  0  0  0  0  0  0  0  0  0
   36.5120   27.6890   42.5050 C   0  0  0  0  0  3  0  0  0  0  0  0
   37.5600   27.5270   43.3970 C   0  0  0  0  0  3  0  0  0  0  0  0
   38.6440   28.4080   43.3860 C   0  0  0  0  0  3  0  0  0  0  0  0
   38.6390   29.4310   42.4680 C   0  0  0  0  0  3  0  0  0  0  0  0
   37.5840   29.5640   41.5960 C   0  0  0  0  0  0  0  0  0  0  0  0
   40.5290   32.1230   37.4850 C   0  0  0  0  0  0  0  0  0  0  0  0
   41.3230   30.9540   37.3500 C   0  0  0  0  0  0  0  0  0  0  0  0
   41.2370   29.9810   38.3500 C   0  0  0  0  0  0  0  0  0  0  0  0
   40.4000   30.2160   39.3890 N   0  0  0  0  0  0  0  0  0  0  0  0
   39.6550   31.3490   39.4840 C   0  0  0  0  0  0  0  0  0  0  0  0
   39.7140   32.3000   38.5430 N   0  0  0  0  0  0  0  0  0  0  0  0
   40.6380   32.8440   36.6770 H   0  0  0  0  0  0  0  0  0  0  0  0
   41.9670   30.8300   36.5000 H   0  0  0  0  0  0  0  0  0  0  0  0
   41.8260   29.0980   38.2650 H   0  0  0  0  0  0  0  0  0  0  0  0
  1  3  1  0  0  0  0
  1  2  2  0  0  0  0
  3 13  1  0  0  0  0
  4  3  2  0  0  0  0
  5  4  1  0  0  0  0
  6  4  1  0  0  0  0
  6  7  2  0  0  0  0
  7  8  1  0  0  0  0
  8 13  2  0  0  0  0
  8  9  1  0  0  0  0
  9 10  2  0  0  0  0
 11 10  1  0  0  0  0
 12 11  2  0  0  0  0
 13 12  1  0  0  0  0
 14 19  1  0  0  0  0
 15 14  2  0  0  0  0
 15 16  1  0  0  0  0
 16 17  2  0  0  0  0
 17 18  1  0  0  0  0
 18  1  1  0  0  0  0
 19 18  2  0  0  0  0
 20 14  1  0  0  0  0
 21 15  1  0  0  0  0
 22 16  1  0  0  0  0
M  END
>  <minimizedAffinity>
-5.05031157

$$$$

 OpenBabel03242513123D

 22 24  0  0  0  0  0  0  0  0999 V2000
   37.6550   28.6250   42.5940 C   0  0  0  0  0  0  0  0  0  0  0  0
   37.5360   29.2860   43.6800 O   0  0  0  0  0  0  0  0  0  0  0  0
   37.9850   27.1850   42.5190 C   0  0  0  0  0  0  0  0  0  0  0  0
   36.9510   26.3220   42.1340 C   0  0  0  0  0  0  0  0  0  0  0  0
   35.9570   26.7310   41.9130 H   0  0  0  0  0  0  0  0  0  0  0  0
   37.0620   24.9760   42.0030 C   0  0  0  0  0  3  0  0  0  0  0  0
   38.2870   24.3990   42.2670 C   0  0  0  0  0  3  0  0  0  0  0  0
   39.3240   25.2230   42.6480 C   0  0  0  0  0  0  0  0  0  0  0  0
   40.5880   24.7150   42.9320 C   0  0  0  0  0  3  0  0  0  0  0  0
   41.6350   25.5380   43.3160 C   0  0  0  0  0  3  0  0  0  0  0  0
   41.4480   26.9170   43.4310 C   0  0  0  0  0  3  0  0  0  0  0  0
   40.2030   27.4290   43.1520 C   0  0  0  0  0  3  0  0  0  0  0  0
   39.1850   26.5850   42.7720 C   0  0  0  0  0  0  0  0  0  0  0  0
   36.0310   30.3860   39.8760 C   0  0  0  0  0  0  0  0  0  0  0  0
   37.0270   30.4420   38.8670 C   0  0  0  0  0  0  0  0  0  0  0  0
   38.2710   29.8620   39.1350 C   0  0  0  0  0  0  0  0  0  0  0  0
   38.4480   29.2810   40.3460 N   0  0  0  0  0  0  0  0  0  0  0  0
   37.4690   29.2470   41.2890 C   0  0  0  0  0  0  0  0  0  0  0  0
   36.2670   29.7930   41.0630 N   0  0  0  0  0  0  0  0  0  0  0  0
   35.0850   30.8540   39.6100 H   0  0  0  0  0  0  0  0  0  0  0  0
   36.8210   30.9190   37.9270 H   0  0  0  0  0  0  0  0  0  0  0  0
   39.0290   29.8950   38.3880 H   0  0  0  0  0  0  0  0  0  0  0  0
  1  2  2  0  0  0  0
  3  1  1  0  0  0  0
  3 13  1  0  0  0  0
  4  3  2  0  0  0  0
  5  4  1  0  0  0  0
  6  4  1  0  0  0  0
  6  7  2  0  0  0  0
  7  8  1  0  0  0  0
  8 13  2  0  0  0  0
  8  9  1  0  0  0  0
  9 10  2  0  0  0  0
 10 11  1  0  0  0  0
 12 11  2  0  0  0  0
 13 12  1  0  0  0  0
 14 19  1  0  0  0  0
 15 16  1  0  0  0  0
 15 14  2  0  0  0  0
 16 17  2  0  0  0  0
 17 18  1  0  0  0  0
 18  1  1  0  0  0  0
 19 18  2  0  0  0  0
 20 14  1  0  0  0  0
 21 15  1  0  0  0  0
 22 16  1  0  0  0  0
M  END
>  <minimizedAffinity>
-4.98436594

$$$$

 OpenBabel03242513123D

 22 24  0  0  0  0  0  0  0  0999 V2000
   39.2980   29.0280   40.5250 C   0  0  0  0  0  0  0  0  0  0  0  0
   40.5060   28.7250   40.2460 O   0  0  0  0  0  0  0  0  0  0  0  0
   38.4540   28.3070   41.5030 C   0  0  0  0  0  0  0  0  0  0  0  0
   38.1140   29.0000   42.6720 C   0  0  0  0  0  0  0  0  0  0  0  0
   38.4780   30.0250   42.8200 H   0  0  0  0  0  0  0  0  0  0  0  0
   37.3480   28.5100   43.6790 C   0  0  0  0  0  3  0  0  0  0  0  0
   36.8580   27.2260   43.5530 C   0  0  0  0  0  3  0  0  0  0  0  0
   37.1760   26.5190   42.4130 C   0  0  0  0  0  0  0  0  0  0  0  0
   36.7210   25.2190   42.2150 C   0  0  0  0  0  3  0  0  0  0  0  0
   37.0390   24.5020   41.0720 C   0  0  0  0  0  3  0  0  0  0  0  0
   37.8340   25.0710   40.0760 C   0  0  0  0  0  3  0  0  0  0  0  0
   38.2890   26.3550   40.2620 C   0  0  0  0  0  3  0  0  0  0  0  0
   37.9550   27.0400   41.4070 C   0  0  0  0  0  0  0  0  0  0  0  0
   36.9280   30.8220   38.4540 C   0  0  0  0  0  0  0  0  0  0  0  0
   37.2750   32.1850   38.6450 C   0  0  0  0  0  0  0  0  0  0  0  0
   38.3420   32.4790   39.5010 C   0  0  0  0  0  0  0  0  0  0  0  0
   38.9780   31.4420   40.0940 N   0  0  0  0  0  0  0  0  0  0  0  0
   38.6170   30.1480   39.8860 C   0  0  0  0  0  0  0  0  0  0  0  0
   37.6000   29.8330   39.0730 N   0  0  0  0  0  0  0  0  0  0  0  0
   36.0910   30.6560   37.7780 H   0  0  0  0  0  0  0  0  0  0  0  0
   36.7280   32.9610   38.1430 H   0  0  0  0  0  0  0  0  0  0  0  0
   38.6150   33.4970   39.6560 H   0  0  0  0  0  0  0  0  0  0  0  0
  1  3  1  0  0  0  0
  2  1  2  0  0  0  0
  3  4  1  0  0  0  0
  4  5  1  0  0  0  0
  4  6  2  0  0  0  0
  7  6  1  0  0  0  0
  8  7  2  0  0  0  0
  9  8  1  0  0  0  0
 10  9  2  0  0  0  0
 11 12  2  0  0  0  0
 11 10  1  0  0  0  0
 12 13  1  0  0  0  0
 13  3  2  0  0  0  0
 13  8  1  0  0  0  0
 14 15  2  0  0  0  0
 14 19  1  0  0  0  0
 15 16  1  0  0  0  0
 16 22  1  0  0  0  0
 16 17  2  0  0  0  0
 18 17  1  0  0  0  0
 18  1  1  0  0  0  0
 19 18  2  0  0  0  0
 20 14  1  0  0  0  0
 21 15  1  0  0  0  0
M  END
>  <minimizedAffinity>
-4.95841932

$$$$

 OpenBabel03242513123D

 22 24  0  0  0  0  0  0  0  0999 V2000
   37.7880   32.8070   40.0180 C   0  0  0  0  0  0  0  0  0  0  0  0
   37.3550   33.9900   39.8110 O   0  0  0  0  0  0  0  0  0  0  0  0
   37.0140   31.5720   39.7650 C   0  0  0  0  0  0  0  0  0  0  0  0
   36.3700   30.9960   40.8670 C   0  0  0  0  0  0  0  0  0  0  0  0
   36.4630   31.4640   41.8560 H   0  0  0  0  0  0  0  0  0  0  0  0
   35.6120   29.8700   40.8330 C   0  0  0  0  0  3  0  0  0  0  0  0
   35.4570   29.2330   39.6190 C   0  0  0  0  0  3  0  0  0  0  0  0
   36.0780   29.7760   38.5160 C   0  0  0  0  0  0  0  0  0  0  0  0
   35.9690   29.1900   37.2590 C   0  0  0  0  0  3  0  0  0  0  0  0
   36.5920   29.7310   36.1450 C   0  0  0  0  0  3  0  0  0  0  0  0
   37.3580   30.8930   36.2560 C   0  0  0  0  0  3  0  0  0  0  0  0
   37.4720   31.4810   37.4930 C   0  0  0  0  0  3  0  0  0  0  0  0
   36.8400   30.9190   38.5780 C   0  0  0  0  0  0  0  0  0  0  0  0
   41.3500   33.2000   40.5440 C   0  0  0  0  0  0  0  0  0  0  0  0
   41.6740   32.1660   41.4600 C   0  0  0  0  0  0  0  0  0  0  0  0
   40.6430   31.3260   41.8960 C   0  0  0  0  0  0  0  0  0  0  0  0
   39.3980   31.5540   41.4150 N   0  0  0  0  0  0  0  0  0  0  0  0
   39.1270   32.5560   40.5370 C   0  0  0  0  0  0  0  0  0  0  0  0
   40.0900   33.3770   40.1010 N   0  0  0  0  0  0  0  0  0  0  0  0
   42.1920   33.8210   40.2420 H   0  0  0  0  0  0  0  0  0  0  0  0
   42.6830   32.0390   41.8030 H   0  0  0  0  0  0  0  0  0  0  0  0
   40.8690   30.5450   42.5840 H   0  0  0  0  0  0  0  0  0  0  0  0
  1 18  1  0  0  0  0
  2  1  2  0  0  0  0
  3  1  1  0  0  0  0
  3  4  1  0  0  0  0
  4  5  1  0  0  0  0
  6  4  2  0  0  0  0
  7  6  1  0  0  0  0
  8 13  1  0  0  0  0
  8  7  2  0  0  0  0
  9  8  1  0  0  0  0
 10 11  1  0  0  0  0
 10  9  2  0  0  0  0
 11 12  2  0  0  0  0
 12 13  1  0  0  0  0
 13  3  2  0  0  0  0
 14 15  1  0  0  0  0
 15 21  1  0  0  0  0
 15 16  2  0  0  0  0
 16 22  1  0  0  0  0
 17 16  1  0  0  0  0
 18 17  2  0  0  0  0
 19 18  1  0  0  0  0
 19 14  2  0  0  0  0
 20 14  1  0  0  0  0
M  END
>  <minimizedAffinity>
-4.94385433

$$$$

 OpenBabel03242513123D

 22 24  0  0  0  0  0  0  0  0999 V2000
   36.3820   29.9690   40.9190 C   0  0  0  0  0  0  0  0  0  0  0  0
   36.0800   31.1490   41.2980 O   0  0  0  0  0  0  0  0  0  0  0  0
   37.1630   29.0010   41.7220 C   0  0  0  0  0  0  0  0  0  0  0  0
   36.4680   27.8910   42.2190 C   0  0  0  0  0  0  0  0  0  0  0  0
   35.3960   27.7810   42.0050 H   0  0  0  0  0  0  0  0  0  0  0  0
   37.0100   26.8980   42.9680 C   0  0  0  0  0  3  0  0  0  0  0  0
   38.3540   26.9770   43.2710 C   0  0  0  0  0  3  0  0  0  0  0  0
   39.0640   28.0580   42.7960 C   0  0  0  0  0  0  0  0  0  0  0  0
   40.4220   28.2080   43.0610 C   0  0  0  0  0  3  0  0  0  0  0  0
   41.1420   29.2940   42.5870 C   0  0  0  0  0  3  0  0  0  0  0  0
   40.5160   30.2800   41.8220 C   0  0  0  0  0  3  0  0  0  0  0  0
   39.1750   30.1410   41.5540 C   0  0  0  0  0  3  0  0  0  0  0  0
   38.4900   29.0510   42.0380 C   0  0  0  0  0  0  0  0  0  0  0  0
   34.2190   28.7260   38.2920 C   0  0  0  0  0  0  0  0  0  0  0  0
   35.1070   28.4710   37.2150 C   0  0  0  0  0  0  0  0  0  0  0  0
   36.4680   28.7330   37.4060 C   0  0  0  0  0  0  0  0  0  0  0  0
   36.8540   29.2150   38.6120 N   0  0  0  0  0  0  0  0  0  0  0  0
   35.9730   29.4470   39.6210 C   0  0  0  0  0  0  0  0  0  0  0  0
   34.6640   29.2070   39.4690 N   0  0  0  0  0  0  0  0  0  0  0  0
   33.1740   28.5040   38.0830 H   0  0  0  0  0  0  0  0  0  0  0  0
   34.7360   28.0880   36.2830 H   0  0  0  0  0  0  0  0  0  0  0  0
   37.1480   28.5470   36.6080 H   0  0  0  0  0  0  0  0  0  0  0  0
  1  2  2  0  0  0  0
  1  3  1  0  0  0  0
  3 13  2  0  0  0  0
  3  4  1  0  0  0  0
  4  6  2  0  0  0  0
  5  4  1  0  0  0  0
  6  7  1  0  0  0  0
  8  9  1  0  0  0  0
  8  7  2  0  0  0  0
 10  9  2  0  0  0  0
 11 10  1  0  0  0  0
 12 11  2  0  0  0  0
 12 13  1  0  0  0  0
 13  8  1  0  0  0  0
 14 19  1  0  0  0  0
 15 16  1  0  0  0  0
 15 14  2  0  0  0  0
 16 17  2  0  0  0  0
 17 18  1  0  0  0  0
 18  1  1  0  0  0  0
 19 18  2  0  0  0  0
 20 14  1  0  0  0  0
 21 15  1  0  0  0  0
 22 16  1  0  0  0  0
M  END
>  <minimizedAffinity>
-4.89515448

$$$$
