
 OpenBabel03242519413D

 31 33  0  0  0  0  0  0  0  0999 V2000
   48.0040   32.8500   41.9470 O   0  0  0  0  0  0  0  0  0  0  0  0
   47.0980   33.9750   41.3790 P   0  0  2  0  0  0  0  0  0  0  0  0
   45.5140   33.7740   42.0120 O   0  0  0  0  0  0  0  0  0  0  0  0
   44.3930   35.9450   44.7130 C   0  0  0  0  0  0  0  0  0  0  0  0
   44.6570   35.4660   43.4090 C   0  0  0  0  0  0  0  0  0  0  0  0
   45.2700   34.2090   43.2970 C   0  0  0  0  0  0  0  0  0  0  0  0
   45.5690   33.5330   44.4230 N   0  0  0  0  0  0  0  0  0  0  0  0
   45.3040   34.0170   45.6560 C   0  0  0  0  0  0  0  0  0  0  0  0
   44.7190   35.2170   45.8110 N   0  0  0  0  0  0  0  0  0  0  0  0
   43.9210   36.9140   44.8080 H   0  0  0  0  0  0  0  0  0  0  0  0
   44.3770   36.0830   42.5780 H   0  0  0  0  0  0  0  0  0  0  0  0
   45.5790   33.4080   46.5240 H   0  0  0  0  0  0  0  0  0  0  0  0
   47.0330   33.8360   39.7270 O   0  0  0  0  0  0  0  0  0  0  0  0
   46.0660   33.3120   38.9300 C   0  0  0  0  0  0  0  0  0  0  0  0
   46.3280   33.2330   37.6020 O   0  0  0  0  0  0  0  0  0  0  0  0
   44.7090   32.7190   38.8860 C   0  0  0  0  0  0  0  0  0  0  0  0
   43.6120   33.4760   38.4160 C   0  0  0  0  0  0  0  0  0  0  0  0
   43.9060   34.4560   37.9700 H   0  0  0  0  0  0  0  0  0  0  0  0
   42.2650   33.2300   38.4110 C   0  0  0  0  0  3  0  0  0  0  0  0
   41.9950   32.0090   38.9770 C   0  0  0  0  0  3  0  0  0  0  0  0
   42.9980   31.2030   39.4580 C   0  0  0  0  0  0  0  0  0  0  0  0
   42.7030   29.9640   39.9840 C   0  0  0  0  0  3  0  0  0  0  0  0
   43.5920   29.0270   40.4670 C   0  0  0  0  0  3  0  0  0  0  0  0
   44.9360   29.4210   40.3960 C   0  0  0  0  0  3  0  0  0  0  0  0
   45.2600   30.6500   39.8790 C   0  0  0  0  0  3  0  0  0  0  0  0
   44.3460   31.5520   39.4130 C   0  0  0  0  0  0  0  0  0  0  0  0
   47.7140   35.4120   41.9310 O   0  0  0  0  0  0  0  0  0  0  0  0
   48.9660   35.6920   41.4010 C   0  0  0  0  0  0  0  0  0  0  0  0
   49.4180   36.9520   41.7490 F   0  0  0  0  0  0  0  0  0  0  0  0
   49.8480   34.7070   41.7090 F   0  0  0  0  0  0  0  0  0  0  0  0
   48.8040   35.7070   40.0170 F   0  0  0  0  0  0  0  0  0  0  0  0
  2 27  1  0  0  0  0
  2  1  2  1  0  0  0
  2  3  1  0  0  0  0
  3  6  1  0  0  0  0
  4 10  1  0  0  0  0
  4  9  1  0  0  0  0
  5  4  2  0  0  0  0
  6  5  1  0  0  0  0
  6  7  2  0  0  0  0
  7  8  1  0  0  0  0
  8  9  2  0  0  0  0
  8 12  1  0  0  0  0
 11  5  1  0  0  0  0
 13  2  1  0  0  0  0
 14 13  1  0  0  0  0
 15 14  2  0  0  0  0
 16 14  1  0  0  0  0
 16 26  1  0  0  0  0
 17 16  2  0  0  0  0
 18 17  1  0  0  0  0
 19 17  1  0  0  0  0
 19 20  2  0  0  0  0
 20 21  1  0  0  0  0
 21 22  1  0  0  0  0
 22 23  2  0  0  0  0
 24 23  1  0  0  0  0
 25 24  2  0  0  0  0
 26 21  2  0  0  0  0
 26 25  1  0  0  0  0
 28 30  1  0  0  0  0
 28 29  1  0  0  0  0
 28 27  1  0  0  0  0
 31 28  1  0  0  0  0
M  END
>  <minimizedAffinity>
-5.20881367

>  <minimizedRMSD>
2.06704855

$$$$
