
 OpenBabel03242517103D

 49 53  0  0  1  0  0  0  0  0999 V2000
   46.2440   33.5280   43.5000 C   0  0  2  0  0  0  0  0  0  0  0  0
   45.4020   34.6690   43.0520 C   0  0  2  0  0  0  0  0  0  0  0  0
   45.2830   35.7390   44.0730 C   0  0  0  0  0  0  0  0  0  0  0  0
   44.8620   35.2620   45.4360 C   0  0  0  0  0  0  0  0  0  0  0  0
   45.3980   33.8990   45.8010 C   0  0  0  0  0  0  0  0  0  0  0  0
   46.6050   33.5360   44.9600 C   0  0  0  0  0  0  0  0  0  0  0  0
   45.6730   32.5690   43.3080 H   0  0  0  0  0  0  0  0  0  0  0  0
   45.8750   35.1220   42.1580 H   0  0  0  0  0  0  0  0  0  0  0  0
   44.5310   36.4870   43.7520 H   0  0  0  0  0  0  0  0  0  0  0  0
   46.2640   36.2650   44.1760 H   0  0  0  0  0  0  0  0  0  0  0  0
   45.2890   35.9700   46.1910 H   0  0  0  0  0  0  0  0  0  0  0  0
   43.7520   35.3120   45.5530 H   0  0  0  0  0  0  0  0  0  0  0  0
   45.6770   33.8530   46.8650 H   0  0  0  0  0  0  0  0  0  0  0  0
   44.6320   33.1210   45.6040 H   0  0  0  0  0  0  0  0  0  0  0  0
   46.8620   32.4830   45.2330 H   0  0  0  0  0  0  0  0  0  0  0  0
   47.4050   34.1980   45.2630 H   0  0  0  0  0  0  0  0  0  0  0  0
   43.1540   35.2230   42.0420 C   0  0  1  0  0  0  0  0  0  0  0  0
   44.0370   34.1700   42.6280 C   0  0  1  0  0  0  0  0  0  0  0  0
   44.2190   33.1600   41.6890 O   0  0  0  0  0  0  0  0  0  0  0  0
   43.8990   33.6740   40.4360 C   0  0  0  0  0  0  0  0  0  0  0  0
   42.6700   34.5100   40.7660 C   0  0  2  0  0  0  0  0  0  0  0  0
   43.7170   36.1220   41.7940 H   0  0  0  0  0  0  0  0  0  0  0  0
   43.4930   33.7070   43.4790 H   0  0  0  0  0  0  0  0  0  0  0  0
   43.5800   32.8070   39.8140 H   0  0  0  0  0  0  0  0  0  0  0  0
   44.6950   34.2600   39.9690 H   0  0  0  0  0  0  0  0  0  0  0  0
   41.8300   33.8490   40.9810 H   0  0  0  0  0  0  0  0  0  0  0  0
   42.0450   35.5030   42.8190 O   0  0  0  0  0  0  0  0  0  0  0  0
   42.1860   35.3440   43.7880 H   0  0  0  0  0  0  0  0  0  0  0  0
   42.3920   35.4270   39.7860 O   0  0  0  0  0  0  0  0  0  0  0  0
   41.3490   35.2680   38.9050 C   0  0  0  0  0  0  0  0  0  0  0  0
   41.1040   35.7570   37.6410 C   0  0  0  0  0  0  0  0  0  0  0  0
   41.8920   36.3920   37.2740 H   0  0  0  0  0  0  0  0  0  0  0  0
   39.9670   35.4620   36.9240 C   0  0  0  0  0  3  0  0  0  0  0  0
   39.0080   34.6480   37.4550 C   0  0  0  0  0  3  0  0  0  0  0  0
   39.2100   34.1310   38.7220 C   0  0  0  0  0  0  0  0  0  0  0  0
   38.1940   33.3230   39.1770 C   0  0  0  0  0  3  0  0  0  0  0  0
   38.3190   32.7670   40.4330 C   0  0  0  0  0  3  0  0  0  0  0  0
   39.4370   33.0280   41.1960 C   0  0  0  0  0  3  0  0  0  0  0  0
   40.4230   33.8460   40.6920 C   0  0  0  0  0  3  0  0  0  0  0  0
   40.3660   34.4340   39.4480 C   0  0  0  0  0  0  0  0  0  0  0  0
   47.4870   33.3990   42.7130 C   0  0  0  0  0  0  0  0  0  0  0  0
   48.5120   34.2660   43.0880 C   0  0  0  0  0  0  0  0  0  0  0  0
   49.7470   34.2390   42.4210 C   0  0  0  0  0  0  0  0  0  0  0  0
   49.8500   33.3080   41.3940 N   0  0  0  0  0  0  0  0  0  0  0  0
   48.8270   32.4850   41.0610 C   0  0  0  0  0  0  0  0  0  0  0  0
   47.6440   32.5260   41.7170 N   0  0  0  0  0  0  0  0  0  0  0  0
   48.5750   35.0340   43.8440 H   0  0  0  0  0  0  0  0  0  0  0  0
   50.6080   34.8570   42.6210 H   0  0  0  0  0  0  0  0  0  0  0  0
   49.0140   31.7930   40.2400 H   0  0  0  0  0  0  0  0  0  0  0  0
  1  7  1  6  0  0  0
  1  6  1  0  0  0  0
  2  8  1  6  0  0  0
  2  1  1  0  0  0  0
  2  3  1  0  0  0  0
  3 10  1  0  0  0  0
  3  4  1  0  0  0  0
  4 12  1  0  0  0  0
  4  5  1  0  0  0  0
  4 11  1  0  0  0  0
  5 13  1  0  0  0  0
  6 15  1  0  0  0  0
  6 16  1  0  0  0  0
  6  5  1  0  0  0  0
  9  3  1  0  0  0  0
 14  5  1  0  0  0  0
 17 22  1  6  0  0  0
 17 18  1  0  0  0  0
 17 27  1  0  0  0  0
 18  2  1  0  0  0  0
 18 23  1  1  0  0  0
 19 18  1  0  0  0  0
 20 21  1  0  0  0  0
 20 19  1  0  0  0  0
 21 26  1  1  0  0  0
 21 17  1  0  0  0  0
 24 20  1  0  0  0  0
 25 20  1  0  0  0  0
 27 28  1  0  0  0  0
 29 21  1  0  0  0  0
 30 40  1  0  0  0  0
 30 29  1  0  0  0  0
 31 30  2  0  0  0  0
 32 31  1  0  0  0  0
 33 34  2  0  0  0  0
 33 31  1  0  0  0  0
 34 35  1  0  0  0  0
 35 36  2  0  0  0  0
 35 40  1  0  0  0  0
 36 37  1  0  0  0  0
 37 38  2  0  0  0  0
 39 38  1  0  0  0  0
 40 39  2  0  0  0  0
 41 42  1  0  0  0  0
 41  1  1  0  0  0  0
 42 47  1  0  0  0  0
 43 48  1  0  0  0  0
 43 42  2  0  0  0  0
 44 43  1  0  0  0  0
 45 44  2  0  0  0  0
 45 46  1  0  0  0  0
 46 41  2  0  0  0  0
 49 45  1  0  0  0  0
M  END
>  <minimizedAffinity>
-7.203197

>  <minimizedRMSD>
0.91886723

$$$$
