
 OpenBabel03252508003D

 31 34  0  0  1  0  0  0  0  0999 V2000
   46.1650   34.6570   43.3040 C   0  0  0  0  0  0  0  0  0  0  0  0
   45.2860   35.7320   43.6330 C   0  0  0  0  0  0  0  0  0  0  0  0
   44.6640   35.6500   44.8740 C   0  0  0  0  0  0  0  0  0  0  0  0
   44.9210   34.5880   45.6730 N   0  0  0  0  0  0  0  0  0  0  0  0
   45.7820   33.5870   45.2900 C   0  0  0  0  0  0  0  0  0  0  0  0
   46.4030   33.6060   44.1270 N   0  0  0  0  0  0  0  0  0  0  0  0
   45.1430   36.5390   42.9280 H   0  0  0  0  0  0  0  0  0  0  0  0
   43.9880   36.4420   45.1660 H   0  0  0  0  0  0  0  0  0  0  0  0
   46.0210   32.4600   46.2380 C   0  0  1  0  0  0  0  0  0  0  0  0
   46.8420   32.7090   47.4820 C   0  0  0  0  0  0  0  0  0  0  0  0
   45.3420   32.6060   47.5430 C   0  0  1  0  0  0  0  0  0  0  0  0
   46.0690   31.4510   45.7860 H   0  0  0  0  0  0  0  0  0  0  0  0
   47.3410   33.6870   47.5050 H   0  0  0  0  0  0  0  0  0  0  0  0
   47.4000   31.8250   47.8430 H   0  0  0  0  0  0  0  0  0  0  0  0
   44.9280   31.7260   48.0940 H   0  0  0  0  0  0  0  0  0  0  0  0
   44.7190   33.8600   47.9000 N   0  0  0  0  0  0  0  0  0  0  0  0
   43.7290   33.9540   47.7260 H   0  0  0  0  0  0  0  0  0  0  0  0
   45.3200   34.6670   47.9900 H   0  0  0  0  0  0  0  0  0  0  0  0
   46.8140   34.7620   42.0130 C   0  0  0  0  0  0  0  0  0  0  0  0
   47.7230   35.6280   41.7590 O   0  0  0  0  0  0  0  0  0  0  0  0
   46.2650   33.7530   41.1130 C   0  0  0  0  0  0  0  0  0  0  0  0
   46.9580   32.6020   40.7720 C   0  0  0  0  0  0  0  0  0  0  0  0
   47.9490   32.4460   41.1970 H   0  0  0  0  0  0  0  0  0  0  0  0
   46.4860   31.6230   39.9240 C   0  0  0  0  0  3  0  0  0  0  0  0
   45.2480   31.7740   39.3650 C   0  0  0  0  0  3  0  0  0  0  0  0
   44.5000   32.8960   39.6600 C   0  0  0  0  0  0  0  0  0  0  0  0
   43.2310   33.0770   39.1050 C   0  0  0  0  0  3  0  0  0  0  0  0
   42.4680   34.1800   39.3820 C   0  0  0  0  0  3  0  0  0  0  0  0
   42.9740   35.1550   40.2460 C   0  0  0  0  0  3  0  0  0  0  0  0
   44.2330   34.9370   40.7740 C   0  0  0  0  0  3  0  0  0  0  0  0
   45.0260   33.8410   40.5160 C   0  0  0  0  0  0  0  0  0  0  0  0
  1  2  2  0  0  0  0
  1  6  1  0  0  0  0
  2  3  1  0  0  0  0
  3  8  1  0  0  0  0
  3  4  2  0  0  0  0
  5  4  1  0  0  0  0
  5  9  1  0  0  0  0
  6  5  2  0  0  0  0
  7  2  1  0  0  0  0
  9 12  1  6  0  0  0
  9 10  1  0  0  0  0
  9 11  1  0  0  0  0
 10 13  1  0  0  0  0
 10 11  1  0  0  0  0
 10 14  1  0  0  0  0
 11 16  1  0  0  0  0
 11 15  1  1  0  0  0
 16 18  1  0  0  0  0
 17 16  1  0  0  0  0
 19  1  1  0  0  0  0
 20 19  2  0  0  0  0
 21 19  1  0  0  0  0
 22 21  1  0  0  0  0
 22 23  1  0  0  0  0
 24 22  2  0  0  0  0
 25 26  2  0  0  0  0
 25 24  1  0  0  0  0
 26 31  1  0  0  0  0
 27 28  2  0  0  0  0
 27 26  1  0  0  0  0
 28 29  1  0  0  0  0
 29 30  2  0  0  0  0
 31 30  1  0  0  0  0
 31 21  2  0  0  0  0
M  END
>  <minimizedAffinity>
-6.03094244

>  <minimizedRMSD>
1.04587555

$$$$
