
 OpenBabel03242512013D

 49 53  0  0  1  0  0  0  0  0999 V2000
   47.1750   34.1170   42.4640 C   0  0  2  0  0  0  0  0  0  0  0  0
   48.5690   34.6350   42.6430 C   0  0  0  0  0  0  0  0  0  0  0  0
   48.9280   35.6480   41.6230 C   0  0  0  0  0  0  0  0  0  0  0  0
   48.7580   35.1270   40.2180 C   0  0  0  0  0  0  0  0  0  0  0  0
   47.5010   34.3350   40.0130 C   0  0  0  0  0  0  0  0  0  0  0  0
   46.5370   34.4370   41.1660 C   0  0  1  0  0  0  0  0  0  0  0  0
   47.2740   32.9900   42.5340 H   0  0  0  0  0  0  0  0  0  0  0  0
   48.6030   35.1340   43.6440 H   0  0  0  0  0  0  0  0  0  0  0  0
   49.3340   33.8340   42.6970 H   0  0  0  0  0  0  0  0  0  0  0  0
   48.4110   36.6140   41.7760 H   0  0  0  0  0  0  0  0  0  0  0  0
   50.0120   35.8760   41.7360 H   0  0  0  0  0  0  0  0  0  0  0  0
   49.6200   34.4600   39.9530 H   0  0  0  0  0  0  0  0  0  0  0  0
   48.8510   36.0110   39.5470 H   0  0  0  0  0  0  0  0  0  0  0  0
   47.0000   34.7820   39.1290 H   0  0  0  0  0  0  0  0  0  0  0  0
   47.6930   33.2790   39.7330 H   0  0  0  0  0  0  0  0  0  0  0  0
   46.0610   35.4230   41.0690 H   0  0  0  0  0  0  0  0  0  0  0  0
   46.2830   34.4810   43.5840 C   0  0  0  0  0  0  0  0  0  0  0  0
   45.5600   35.6370   43.3480 C   0  0  0  0  0  0  0  0  0  0  0  0
   44.6610   36.1050   44.3220 C   0  0  0  0  0  0  0  0  0  0  0  0
   44.5770   35.3320   45.4860 N   0  0  0  0  0  0  0  0  0  0  0  0
   45.3040   34.2170   45.6670 C   0  0  0  0  0  0  0  0  0  0  0  0
   46.1530   33.8030   44.7060 N   0  0  0  0  0  0  0  0  0  0  0  0
   45.4840   36.3630   42.5530 H   0  0  0  0  0  0  0  0  0  0  0  0
   44.0240   36.9510   44.3360 H   0  0  0  0  0  0  0  0  0  0  0  0
   45.2190   33.6470   46.5650 H   0  0  0  0  0  0  0  0  0  0  0  0
   45.4360   33.4280   40.9360 C   0  0  2  0  0  0  0  0  0  0  0  0
   45.0550   33.1330   39.4980 C   0  0  0  0  0  0  0  0  0  0  0  0
   44.1300   33.8640   40.3720 C   0  0  1  0  0  0  0  0  0  0  0  0
   45.5090   32.5070   41.5550 H   0  0  0  0  0  0  0  0  0  0  0  0
   45.5340   33.7380   38.6790 H   0  0  0  0  0  0  0  0  0  0  0  0
   44.7590   32.1250   39.1850 H   0  0  0  0  0  0  0  0  0  0  0  0
   44.0350   34.9740   40.2410 H   0  0  0  0  0  0  0  0  0  0  0  0
   42.9480   33.2570   41.0760 C   0  0  0  0  0  0  0  0  0  0  0  0
   42.6610   32.3420   40.5330 H   0  0  0  0  0  0  0  0  0  0  0  0
   43.3000   32.8990   42.0840 H   0  0  0  0  0  0  0  0  0  0  0  0
   41.7980   34.1860   41.2490 C   0  0  0  0  0  0  0  0  0  0  0  0
   42.1690   35.1170   41.7530 H   0  0  0  0  0  0  0  0  0  0  0  0
   41.0440   33.7330   41.9040 H   0  0  0  0  0  0  0  0  0  0  0  0
   41.2620   34.5910   39.9260 C   0  0  0  0  0  0  0  0  0  0  0  0
   41.8780   35.6060   39.2030 C   0  0  0  0  0  0  0  0  0  0  0  0
   42.7330   36.1420   39.5720 H   0  0  0  0  0  0  0  0  0  0  0  0
   41.4430   36.0100   37.9460 C   0  0  0  0  0  0  0  0  0  0  0  0
   40.3620   35.3830   37.3940 C   0  0  0  0  0  0  0  0  0  0  0  0
   39.7030   34.3630   38.0670 C   0  0  0  0  0  0  0  0  0  0  0  0
   38.6090   33.7560   37.4920 C   0  0  0  0  0  0  0  0  0  0  0  0
   37.9640   32.7580   38.1730 C   0  0  0  0  0  0  0  0  0  0  0  0
   38.3990   32.3620   39.4220 C   0  0  0  0  0  0  0  0  0  0  0  0
   39.5080   33.0140   39.9460 C   0  0  0  0  0  0  0  0  0  0  0  0
   40.1820   34.0170   39.2960 C   0  0  0  0  0  0  0  0  0  0  0  0
  1  7  1  1  0  0  0
  1  2  1  0  0  0  0
  1 17  1  0  0  0  0
  2  9  1  0  0  0  0
  2  8  1  0  0  0  0
  3 11  1  0  0  0  0
  3 10  1  0  0  0  0
  3  2  1  0  0  0  0
  4  3  1  0  0  0  0
  5  4  1  0  0  0  0
  5  6  1  0  0  0  0
  6 16  1  1  0  0  0
  6  1  1  0  0  0  0
 12  4  1  0  0  0  0
 13  4  1  0  0  0  0
 14  5  1  0  0  0  0
 15  5  1  0  0  0  0
 17 22  1  0  0  0  0
 18 17  2  0  0  0  0
 18 19  1  0  0  0  0
 19 24  1  0  0  0  0
 19 20  2  0  0  0  0
 20 21  1  0  0  0  0
 21 25  1  0  0  0  0
 22 21  2  0  0  0  0
 23 18  1  0  0  0  0
 26  6  1  0  0  0  0
 26 29  1  1  0  0  0
 27 28  1  0  0  0  0
 27 26  1  0  0  0  0
 28 32  1  6  0  0  0
 28 26  1  0  0  0  0
 28 33  1  0  0  0  0
 30 27  1  0  0  0  0
 31 27  1  0  0  0  0
 33 36  1  0  0  0  0
 33 35  1  0  0  0  0
 34 33  1  0  0  0  0
 36 37  1  0  0  0  0
 36 38  1  0  0  0  0
 39 36  1  0  0  0  0
 40 41  1  0  0  0  0
 40 39  2  0  0  0  0
 42 40  1  0  0  0  0
 43 42  2  0  0  0  0
 43 44  1  0  0  0  0
 44 49  1  0  0  0  0
 45 44  2  0  0  0  0
 45 46  1  0  0  0  0
 46 47  2  0  0  0  0
 47 48  1  0  0  0  0
 49 39  1  0  0  0  0
 49 48  2  0  0  0  0
M  END
>  <minimizedAffinity>
-7.93536615

>  <minimizedRMSD>
2.22392917

$$$$
