
 OpenBabel03242517103D

 49 53  0  0  1  0  0  0  0  0999 V2000
   46.2440   33.5270   43.5000 C   0  0  2  0  0  0  0  0  0  0  0  0
   45.4020   34.6680   43.0530 C   0  0  2  0  0  0  0  0  0  0  0  0
   45.2830   35.7390   44.0740 C   0  0  0  0  0  0  0  0  0  0  0  0
   44.8630   35.2620   45.4370 C   0  0  0  0  0  0  0  0  0  0  0  0
   45.3990   33.8990   45.8020 C   0  0  0  0  0  0  0  0  0  0  0  0
   46.6050   33.5360   44.9610 C   0  0  0  0  0  0  0  0  0  0  0  0
   45.6730   32.5690   43.3090 H   0  0  0  0  0  0  0  0  0  0  0  0
   45.8750   35.1220   42.1590 H   0  0  0  0  0  0  0  0  0  0  0  0
   44.5310   36.4870   43.7530 H   0  0  0  0  0  0  0  0  0  0  0  0
   46.2640   36.2640   44.1770 H   0  0  0  0  0  0  0  0  0  0  0  0
   45.2890   35.9690   46.1920 H   0  0  0  0  0  0  0  0  0  0  0  0
   43.7530   35.3110   45.5540 H   0  0  0  0  0  0  0  0  0  0  0  0
   45.6780   33.8520   46.8660 H   0  0  0  0  0  0  0  0  0  0  0  0
   44.6320   33.1200   45.6050 H   0  0  0  0  0  0  0  0  0  0  0  0
   46.8620   32.4820   45.2340 H   0  0  0  0  0  0  0  0  0  0  0  0
   47.4050   34.1970   45.2630 H   0  0  0  0  0  0  0  0  0  0  0  0
   43.1550   35.2220   42.0420 C   0  0  1  0  0  0  0  0  0  0  0  0
   44.0370   34.1690   42.6290 C   0  0  1  0  0  0  0  0  0  0  0  0
   44.2190   33.1590   41.6910 O   0  0  0  0  0  0  0  0  0  0  0  0
   43.8990   33.6710   40.4370 C   0  0  0  0  0  0  0  0  0  0  0  0
   42.6700   34.5080   40.7660 C   0  0  2  0  0  0  0  0  0  0  0  0
   43.7180   36.1200   41.7930 H   0  0  0  0  0  0  0  0  0  0  0  0
   43.4920   33.7080   43.4800 H   0  0  0  0  0  0  0  0  0  0  0  0
   43.5800   32.8040   39.8160 H   0  0  0  0  0  0  0  0  0  0  0  0
   44.6960   34.2560   39.9700 H   0  0  0  0  0  0  0  0  0  0  0  0
   41.8310   33.8470   40.9820 H   0  0  0  0  0  0  0  0  0  0  0  0
   42.0460   35.5030   42.8180 O   0  0  0  0  0  0  0  0  0  0  0  0
   42.1860   35.3450   43.7870 H   0  0  0  0  0  0  0  0  0  0  0  0
   42.3930   35.4240   39.7850 O   0  0  0  0  0  0  0  0  0  0  0  0
   41.3490   35.2660   38.9050 C   0  0  0  0  0  0  0  0  0  0  0  0
   41.1020   35.7540   37.6420 C   0  0  0  0  0  0  0  0  0  0  0  0
   41.8900   36.3900   37.2740 H   0  0  0  0  0  0  0  0  0  0  0  0
   39.9640   35.4590   36.9260 C   0  0  0  0  0  3  0  0  0  0  0  0
   39.0060   34.6450   37.4580 C   0  0  0  0  0  3  0  0  0  0  0  0
   39.2090   34.1290   38.7250 C   0  0  0  0  0  0  0  0  0  0  0  0
   38.1940   33.3200   39.1810 C   0  0  0  0  0  3  0  0  0  0  0  0
   38.3190   32.7650   40.4370 C   0  0  0  0  0  3  0  0  0  0  0  0
   39.4390   33.0250   41.1990 C   0  0  0  0  0  3  0  0  0  0  0  0
   40.4250   33.8430   40.6930 C   0  0  0  0  0  3  0  0  0  0  0  0
   40.3670   34.4300   39.4490 C   0  0  0  0  0  0  0  0  0  0  0  0
   47.4870   33.3980   42.7130 C   0  0  0  0  0  0  0  0  0  0  0  0
   48.5120   34.2660   43.0890 C   0  0  0  0  0  0  0  0  0  0  0  0
   49.7470   34.2380   42.4220 C   0  0  0  0  0  0  0  0  0  0  0  0
   49.8500   33.3070   41.3940 N   0  0  0  0  0  0  0  0  0  0  0  0
   48.8260   32.4850   41.0610 C   0  0  0  0  0  0  0  0  0  0  0  0
   47.6440   32.5250   41.7180 N   0  0  0  0  0  0  0  0  0  0  0  0
   48.5750   35.0330   43.8450 H   0  0  0  0  0  0  0  0  0  0  0  0
   50.6080   34.8550   42.6220 H   0  0  0  0  0  0  0  0  0  0  0  0
   49.0130   31.7930   40.2400 H   0  0  0  0  0  0  0  0  0  0  0  0
  1  7  1  6  0  0  0
  1  6  1  0  0  0  0
  2  8  1  6  0  0  0
  2  1  1  0  0  0  0
  2  3  1  0  0  0  0
  3 10  1  0  0  0  0
  3  4  1  0  0  0  0
  4 12  1  0  0  0  0
  4  5  1  0  0  0  0
  4 11  1  0  0  0  0
  5 13  1  0  0  0  0
  6 15  1  0  0  0  0
  6 16  1  0  0  0  0
  6  5  1  0  0  0  0
  9  3  1  0  0  0  0
 14  5  1  0  0  0  0
 17 22  1  6  0  0  0
 17 18  1  0  0  0  0
 17 27  1  0  0  0  0
 18  2  1  0  0  0  0
 18 23  1  1  0  0  0
 19 18  1  0  0  0  0
 20 21  1  0  0  0  0
 20 19  1  0  0  0  0
 21 26  1  1  0  0  0
 21 17  1  0  0  0  0
 24 20  1  0  0  0  0
 25 20  1  0  0  0  0
 27 28  1  0  0  0  0
 29 21  1  0  0  0  0
 30 40  1  0  0  0  0
 30 29  1  0  0  0  0
 31 30  2  0  0  0  0
 32 31  1  0  0  0  0
 33 34  2  0  0  0  0
 33 31  1  0  0  0  0
 34 35  1  0  0  0  0
 35 36  2  0  0  0  0
 35 40  1  0  0  0  0
 36 37  1  0  0  0  0
 37 38  2  0  0  0  0
 39 38  1  0  0  0  0
 40 39  2  0  0  0  0
 41 42  1  0  0  0  0
 41  1  1  0  0  0  0
 42 47  1  0  0  0  0
 43 48  1  0  0  0  0
 43 42  2  0  0  0  0
 44 43  1  0  0  0  0
 45 44  2  0  0  0  0
 45 46  1  0  0  0  0
 46 41  2  0  0  0  0
 49 45  1  0  0  0  0
M  END
>  <minimizedAffinity>
-7.20900917

>  <minimizedRMSD>
0.75783962

$$$$
