
 OpenBabel03242516233D

 31 34  0  0  0  0  0  0  0  0999 V2000
   37.6080   30.8260   40.7890 C   0  0  0  0  0  0  0  0  0  0  0  0
   37.6920   29.9280   41.8470 C   0  0  0  0  0  0  0  0  0  0  0  0
   36.7760   28.9080   42.0060 C   0  0  0  0  0  0  0  0  0  0  0  0
   35.7370   28.7710   41.0880 C   0  0  0  0  0  0  0  0  0  0  0  0
   35.6450   29.6470   40.0450 C   0  0  0  0  0  0  0  0  0  0  0  0
   36.5790   30.6540   39.9160 C   0  0  0  0  0  0  0  0  0  0  0  0
   38.4920   30.0160   42.5740 H   0  0  0  0  0  0  0  0  0  0  0  0
   35.0060   27.9670   41.2050 H   0  0  0  0  0  0  0  0  0  0  0  0
   34.8550   29.5810   39.3040 H   0  0  0  0  0  0  0  0  0  0  0  0
   36.4980   31.3360   39.0950 H   0  0  0  0  0  0  0  0  0  0  0  0
   38.9850   34.1600   40.2150 C   0  0  0  0  0  0  0  0  0  0  0  0
   40.3670   33.9850   40.4070 C   0  0  0  0  0  0  0  0  0  0  0  0
   40.8310   32.7200   40.7330 C   0  0  0  0  0  0  0  0  0  0  0  0
   39.9340   31.6920   40.8560 N   0  0  0  0  0  0  0  0  0  0  0  0
   38.6070   31.8940   40.6650 C   0  0  0  0  0  0  0  0  0  0  0  0
   38.1220   33.1360   40.3430 N   0  0  0  0  0  0  0  0  0  0  0  0
   38.6770   35.1760   39.9610 H   0  0  0  0  0  0  0  0  0  0  0  0
   41.0880   34.7850   40.3120 H   0  0  0  0  0  0  0  0  0  0  0  0
   41.8710   32.4680   40.9020 H   0  0  0  0  0  0  0  0  0  0  0  0
   36.9360   27.8010   43.3800 S   0  0  0  0  0  0  0  0  0  0  0  0
   38.3670   26.7610   43.1270 C   0  0  0  0  0  0  0  0  0  0  0  0
   39.6360   27.0190   43.6130 C   0  0  0  0  0  0  0  0  0  0  0  0
   39.7510   27.9280   44.1890 H   0  0  0  0  0  0  0  0  0  0  0  0
   40.6720   26.1280   43.3470 C   0  0  0  0  0  3  0  0  0  0  0  0
   40.4400   24.9960   42.6060 C   0  0  0  0  0  3  0  0  0  0  0  0
   39.1810   24.7570   42.1350 C   0  0  0  0  0  0  0  0  0  0  0  0
   38.9810   23.6110   41.3950 C   0  0  0  0  0  3  0  0  0  0  0  0
   37.7120   23.3370   40.8990 C   0  0  0  0  0  3  0  0  0  0  0  0
   36.6380   24.1660   41.1180 C   0  0  0  0  0  3  0  0  0  0  0  0
   36.8920   25.3000   41.8660 C   0  0  0  0  0  3  0  0  0  0  0  0
   38.1350   25.6180   42.3810 C   0  0  0  0  0  0  0  0  0  0  0  0
  1  2  1  0  0  0  0
  2  3  2  0  0  0  0
  2  7  1  0  0  0  0
  3 20  1  0  0  0  0
  4  8  1  0  0  0  0
  4  3  1  0  0  0  0
  5  4  2  0  0  0  0
  6  5  1  0  0  0  0
  6  1  2  0  0  0  0
  9  5  1  0  0  0  0
 10  6  1  0  0  0  0
 11 16  2  0  0  0  0
 11 12  1  0  0  0  0
 12 13  2  0  0  0  0
 13 14  1  0  0  0  0
 13 19  1  0  0  0  0
 15  1  1  0  0  0  0
 15 14  2  0  0  0  0
 16 15  1  0  0  0  0
 17 11  1  0  0  0  0
 18 12  1  0  0  0  0
 21 20  1  0  0  0  0
 21 22  1  0  0  0  0
 22 23  1  0  0  0  0
 24 22  2  0  0  0  0
 25 24  1  0  0  0  0
 26 31  1  0  0  0  0
 26 25  2  0  0  0  0
 27 26  1  0  0  0  0
 28 29  1  0  0  0  0
 28 27  2  0  0  0  0
 29 30  2  0  0  0  0
 30 31  1  0  0  0  0
 31 21  2  0  0  0  0
M  END
>  <minimizedAffinity>
-6.51133013

$$$$

 OpenBabel03242516233D

 31 34  0  0  0  0  0  0  0  0999 V2000
   37.4930   30.8080   40.6110 C   0  0  0  0  0  0  0  0  0  0  0  0
   37.5600   29.9050   41.6650 C   0  0  0  0  0  0  0  0  0  0  0  0
   36.6520   28.8750   41.7970 C   0  0  0  0  0  0  0  0  0  0  0  0
   35.6380   28.7310   40.8510 C   0  0  0  0  0  0  0  0  0  0  0  0
   35.5620   29.6120   39.8110 C   0  0  0  0  0  0  0  0  0  0  0  0
   36.4870   30.6290   39.7110 C   0  0  0  0  0  0  0  0  0  0  0  0
   38.3400   29.9980   42.4130 H   0  0  0  0  0  0  0  0  0  0  0  0
   34.9130   27.9180   40.9470 H   0  0  0  0  0  0  0  0  0  0  0  0
   34.7920   29.5410   39.0500 H   0  0  0  0  0  0  0  0  0  0  0  0
   36.4190   31.3150   38.8920 H   0  0  0  0  0  0  0  0  0  0  0  0
   38.8460   34.1610   40.0930 C   0  0  0  0  0  0  0  0  0  0  0  0
   40.2260   33.9990   40.3140 C   0  0  0  0  0  0  0  0  0  0  0  0
   40.6950   32.7360   40.6390 C   0  0  0  0  0  0  0  0  0  0  0  0
   39.8080   31.6980   40.7350 N   0  0  0  0  0  0  0  0  0  0  0  0
   38.4820   31.8880   40.5170 C   0  0  0  0  0  0  0  0  0  0  0  0
   37.9910   33.1270   40.1940 N   0  0  0  0  0  0  0  0  0  0  0  0
   38.5330   35.1750   39.8410 H   0  0  0  0  0  0  0  0  0  0  0  0
   40.9390   34.8080   40.2410 H   0  0  0  0  0  0  0  0  0  0  0  0
   41.7340   32.4940   40.8300 H   0  0  0  0  0  0  0  0  0  0  0  0
   36.7900   27.7620   43.1680 S   0  0  0  0  0  0  0  0  0  0  0  0
   37.5930   26.2620   42.6240 C   0  0  0  0  0  0  0  0  0  0  0  0
   36.9590   25.1910   42.0190 C   0  0  0  0  0  0  0  0  0  0  0  0
   35.8910   25.2890   41.8740 H   0  0  0  0  0  0  0  0  0  0  0  0
   37.7000   24.0750   41.6400 C   0  0  0  0  0  3  0  0  0  0  0  0
   39.0540   24.0330   41.8620 C   0  0  0  0  0  3  0  0  0  0  0  0
   39.6630   25.0980   42.4590 C   0  0  0  0  0  0  0  0  0  0  0  0
   41.0240   25.0240   42.6670 C   0  0  0  0  0  3  0  0  0  0  0  0
   41.6760   26.0910   43.2730 C   0  0  0  0  0  3  0  0  0  0  0  0
   41.0170   27.2280   43.6760 C   0  0  0  0  0  3  0  0  0  0  0  0
   39.6550   27.2510   43.4450 C   0  0  0  0  0  3  0  0  0  0  0  0
   38.9600   26.2170   42.8460 C   0  0  0  0  0  0  0  0  0  0  0  0
  1  2  1  0  0  0  0
  2  3  2  0  0  0  0
  2  7  1  0  0  0  0
  3 20  1  0  0  0  0
  4  8  1  0  0  0  0
  4  3  1  0  0  0  0
  5  4  2  0  0  0  0
  6  5  1  0  0  0  0
  6  1  2  0  0  0  0
  9  5  1  0  0  0  0
 10  6  1  0  0  0  0
 11 16  2  0  0  0  0
 11 12  1  0  0  0  0
 12 13  2  0  0  0  0
 13 14  1  0  0  0  0
 13 19  1  0  0  0  0
 15  1  1  0  0  0  0
 15 14  2  0  0  0  0
 16 15  1  0  0  0  0
 17 11  1  0  0  0  0
 18 12  1  0  0  0  0
 21 31  1  0  0  0  0
 21 20  1  0  0  0  0
 22 21  2  0  0  0  0
 23 22  1  0  0  0  0
 24 25  2  0  0  0  0
 24 22  1  0  0  0  0
 25 26  1  0  0  0  0
 26 27  2  0  0  0  0
 26 31  1  0  0  0  0
 27 28  1  0  0  0  0
 28 29  2  0  0  0  0
 30 29  1  0  0  0  0
 31 30  2  0  0  0  0
M  END
>  <minimizedAffinity>
-6.47160673

$$$$

 OpenBabel03242516233D

 31 34  0  0  0  0  0  0  0  0999 V2000
   38.0180   31.3180   38.5990 C   0  0  0  0  0  0  0  0  0  0  0  0
   37.3360   30.6590   39.6150 C   0  0  0  0  0  0  0  0  0  0  0  0
   36.3740   29.7070   39.3430 C   0  0  0  0  0  0  0  0  0  0  0  0
   36.0750   29.3940   38.0180 C   0  0  0  0  0  0  0  0  0  0  0  0
   36.7390   30.0350   37.0130 C   0  0  0  0  0  0  0  0  0  0  0  0
   37.6950   30.9810   37.3200 C   0  0  0  0  0  0  0  0  0  0  0  0
   37.5520   30.8860   40.6530 H   0  0  0  0  0  0  0  0  0  0  0  0
   35.3140   28.6430   37.7920 H   0  0  0  0  0  0  0  0  0  0  0  0
   36.5420   29.8270   35.9660 H   0  0  0  0  0  0  0  0  0  0  0  0
   38.2100   31.4780   36.5250 H   0  0  0  0  0  0  0  0  0  0  0  0
   41.1490   33.1930   38.4540 C   0  0  0  0  0  0  0  0  0  0  0  0
   41.0060   34.1550   39.4710 C   0  0  0  0  0  0  0  0  0  0  0  0
   39.8340   34.1610   40.2100 C   0  0  0  0  0  0  0  0  0  0  0  0
   38.8630   33.2380   39.9280 N   0  0  0  0  0  0  0  0  0  0  0  0
   39.0310   32.3230   38.9400 C   0  0  0  0  0  0  0  0  0  0  0  0
   40.1810   32.2960   38.1930 N   0  0  0  0  0  0  0  0  0  0  0  0
   42.0910   33.2360   37.9040 H   0  0  0  0  0  0  0  0  0  0  0  0
   41.7640   34.8890   39.7060 H   0  0  0  0  0  0  0  0  0  0  0  0
   39.6150   34.8520   41.0150 H   0  0  0  0  0  0  0  0  0  0  0  0
   35.5360   28.9090   40.6840 S   0  0  0  0  0  0  0  0  0  0  0  0
   36.7480   28.2330   41.8090 C   0  0  0  0  0  0  0  0  0  0  0  0
   37.3150   28.9110   42.8730 C   0  0  0  0  0  0  0  0  0  0  0  0
   36.9850   29.9320   43.0180 H   0  0  0  0  0  0  0  0  0  0  0  0
   38.2520   28.2710   43.6800 C   0  0  0  0  0  3  0  0  0  0  0  0
   38.6140   26.9720   43.4250 C   0  0  0  0  0  3  0  0  0  0  0  0
   38.0450   26.3180   42.3720 C   0  0  0  0  0  0  0  0  0  0  0  0
   38.4300   25.0130   42.1440 C   0  0  0  0  0  3  0  0  0  0  0  0
   37.8700   24.3170   41.0790 C   0  0  0  0  0  3  0  0  0  0  0  0
   36.9390   24.8780   40.2370 C   0  0  0  0  0  3  0  0  0  0  0  0
   36.5880   26.1860   40.5090 C   0  0  0  0  0  3  0  0  0  0  0  0
   37.1150   26.9220   41.5550 C   0  0  0  0  0  0  0  0  0  0  0  0
  1 15  1  0  0  0  0
  1  2  1  0  0  0  0
  2  7  1  0  0  0  0
  3  2  2  0  0  0  0
  3 20  1  0  0  0  0
  4  3  1  0  0  0  0
  5  6  1  0  0  0  0
  5  4  2  0  0  0  0
  6  1  2  0  0  0  0
  8  4  1  0  0  0  0
  9  5  1  0  0  0  0
 10  6  1  0  0  0  0
 11 12  1  0  0  0  0
 12 18  1  0  0  0  0
 12 13  2  0  0  0  0
 13 19  1  0  0  0  0
 14 13  1  0  0  0  0
 15 14  2  0  0  0  0
 16 11  2  0  0  0  0
 16 15  1  0  0  0  0
 17 11  1  0  0  0  0
 20 21  1  0  0  0  0
 21 22  1  0  0  0  0
 22 23  1  0  0  0  0
 22 24  2  0  0  0  0
 25 24  1  0  0  0  0
 26 25  2  0  0  0  0
 27 26  1  0  0  0  0
 28 27  2  0  0  0  0
 29 30  2  0  0  0  0
 29 28  1  0  0  0  0
 30 31  1  0  0  0  0
 31 21  2  0  0  0  0
 31 26  1  0  0  0  0
M  END
>  <minimizedAffinity>
-6.16913795

$$$$

 OpenBabel03242516233D

 31 34  0  0  0  0  0  0  0  0999 V2000
   35.9210   29.3380   37.7230 C   0  0  0  0  0  0  0  0  0  0  0  0
   34.6340   29.0730   37.2700 C   0  0  0  0  0  0  0  0  0  0  0  0
   34.3330   29.0350   35.9240 C   0  0  0  0  0  0  0  0  0  0  0  0
   35.3400   29.2690   34.9900 C   0  0  0  0  0  0  0  0  0  0  0  0
   36.6070   29.5300   35.4230 C   0  0  0  0  0  0  0  0  0  0  0  0
   36.8730   29.5600   36.7760 C   0  0  0  0  0  0  0  0  0  0  0  0
   33.8340   28.8880   37.9790 H   0  0  0  0  0  0  0  0  0  0  0  0
   35.1120   29.2420   33.9210 H   0  0  0  0  0  0  0  0  0  0  0  0
   37.4260   29.7190   34.7360 H   0  0  0  0  0  0  0  0  0  0  0  0
   37.8700   29.7660   37.1070 H   0  0  0  0  0  0  0  0  0  0  0  0
   36.4380   28.1120   41.1250 C   0  0  0  0  0  0  0  0  0  0  0  0
   36.6840   29.2830   41.8640 C   0  0  0  0  0  0  0  0  0  0  0  0
   36.6720   30.4970   41.1970 C   0  0  0  0  0  0  0  0  0  0  0  0
   36.4230   30.5160   39.8500 N   0  0  0  0  0  0  0  0  0  0  0  0
   36.1890   29.3690   39.1650 C   0  0  0  0  0  0  0  0  0  0  0  0
   36.1960   28.1540   39.8020 N   0  0  0  0  0  0  0  0  0  0  0  0
   36.4610   27.1860   41.7010 H   0  0  0  0  0  0  0  0  0  0  0  0
   36.8820   29.2850   42.9270 H   0  0  0  0  0  0  0  0  0  0  0  0
   36.8470   31.4600   41.6620 H   0  0  0  0  0  0  0  0  0  0  0  0
   32.6710   28.6970   35.4120 S   0  0  0  0  0  0  0  0  0  0  0  0
   31.7690   30.2360   35.3060 C   0  0  0  0  0  0  0  0  0  0  0  0
   31.7890   31.0990   34.2250 C   0  0  0  0  0  0  0  0  0  0  0  0
   32.4070   30.8010   33.3880 H   0  0  0  0  0  0  0  0  0  0  0  0
   31.0400   32.2720   34.2650 C   0  0  0  0  0  3  0  0  0  0  0  0
   30.2820   32.5740   35.3680 C   0  0  0  0  0  3  0  0  0  0  0  0
   30.2730   31.7110   36.4250 C   0  0  0  0  0  0  0  0  0  0  0  0
   29.5010   32.0440   37.5180 C   0  0  0  0  0  3  0  0  0  0  0  0
   29.4700   31.1880   38.6120 C   0  0  0  0  0  3  0  0  0  0  0  0
   30.1810   30.0110   38.6510 C   0  0  0  0  0  3  0  0  0  0  0  0
   30.9370   29.7250   37.5310 C   0  0  0  0  0  3  0  0  0  0  0  0
   31.0030   30.5430   36.4180 C   0  0  0  0  0  0  0  0  0  0  0  0
  1 15  1  0  0  0  0
  2  1  1  0  0  0  0
  2  7  1  0  0  0  0
  3  2  2  0  0  0  0
  4  5  2  0  0  0  0
  4  3  1  0  0  0  0
  5  6  1  0  0  0  0
  6 10  1  0  0  0  0
  6  1  2  0  0  0  0
  8  4  1  0  0  0  0
  9  5  1  0  0  0  0
 11 17  1  0  0  0  0
 11 12  1  0  0  0  0
 12 18  1  0  0  0  0
 13 19  1  0  0  0  0
 13 12  2  0  0  0  0
 14 13  1  0  0  0  0
 15 16  1  0  0  0  0
 15 14  2  0  0  0  0
 16 11  2  0  0  0  0
 20  3  1  0  0  0  0
 21 20  1  0  0  0  0
 21 31  1  0  0  0  0
 22 24  1  0  0  0  0
 22 21  2  0  0  0  0
 23 22  1  0  0  0  0
 24 25  2  0  0  0  0
 25 26  1  0  0  0  0
 26 27  1  0  0  0  0
 27 28  2  0  0  0  0
 28 29  1  0  0  0  0
 30 29  2  0  0  0  0
 31 26  2  0  0  0  0
 31 30  1  0  0  0  0
M  END
>  <minimizedAffinity>
-6.15241051

$$$$

 OpenBabel03242516233D

 31 34  0  0  0  0  0  0  0  0999 V2000
   38.2480   24.6650   41.8770 C   0  0  0  0  0  0  0  0  0  0  0  0
   37.6470   25.8630   42.2450 C   0  0  0  0  0  0  0  0  0  0  0  0
   38.2480   26.7330   43.1320 C   0  0  0  0  0  0  0  0  0  0  0  0
   39.4890   26.4070   43.6770 C   0  0  0  0  0  0  0  0  0  0  0  0
   40.0880   25.2320   43.3230 C   0  0  0  0  0  0  0  0  0  0  0  0
   39.4580   24.3870   42.4330 C   0  0  0  0  0  0  0  0  0  0  0  0
   36.6820   26.1370   41.8340 H   0  0  0  0  0  0  0  0  0  0  0  0
   39.9730   27.0880   44.3810 H   0  0  0  0  0  0  0  0  0  0  0  0
   41.0530   24.9340   43.7190 H   0  0  0  0  0  0  0  0  0  0  0  0
   39.9360   23.4680   42.1620 H   0  0  0  0  0  0  0  0  0  0  0  0
   37.6900   21.7910   39.6930 C   0  0  0  0  0  0  0  0  0  0  0  0
   36.4040   22.0160   39.1710 C   0  0  0  0  0  0  0  0  0  0  0  0
   35.7250   23.1580   39.5670 C   0  0  0  0  0  0  0  0  0  0  0  0
   36.3240   24.0200   40.4460 N   0  0  0  0  0  0  0  0  0  0  0  0
   37.5660   23.7730   40.9310 C   0  0  0  0  0  0  0  0  0  0  0  0
   38.2600   22.6510   40.5560 N   0  0  0  0  0  0  0  0  0  0  0  0
   38.1770   20.8770   39.3470 H   0  0  0  0  0  0  0  0  0  0  0  0
   35.9180   21.3460   38.4750 H   0  0  0  0  0  0  0  0  0  0  0  0
   34.7320   23.4340   39.2300 H   0  0  0  0  0  0  0  0  0  0  0  0
   37.4270   28.2410   43.5640 S   0  0  0  0  0  0  0  0  0  0  0  0
   37.1210   29.1850   42.0780 C   0  0  0  0  0  0  0  0  0  0  0  0
   36.0130   29.0500   41.2610 C   0  0  0  0  0  0  0  0  0  0  0  0
   35.2850   28.3080   41.5630 H   0  0  0  0  0  0  0  0  0  0  0  0
   35.8910   29.8480   40.1260 C   0  0  0  0  0  3  0  0  0  0  0  0
   36.8620   30.7670   39.8160 C   0  0  0  0  0  3  0  0  0  0  0  0
   37.9480   30.8870   40.6330 C   0  0  0  0  0  0  0  0  0  0  0  0
   38.9060   31.8190   40.2930 C   0  0  0  0  0  3  0  0  0  0  0  0
   40.0250   31.9670   41.1030 C   0  0  0  0  0  3  0  0  0  0  0  0
   40.2200   31.2180   42.2400 C   0  0  0  0  0  3  0  0  0  0  0  0
   39.2310   30.3000   42.5350 C   0  0  0  0  0  3  0  0  0  0  0  0
   38.1000   30.1130   41.7630 C   0  0  0  0  0  0  0  0  0  0  0  0
  1  2  2  0  0  0  0
  1  6  1  0  0  0  0
  2  3  1  0  0  0  0
  3 20  1  0  0  0  0
  3  4  2  0  0  0  0
  4  8  1  0  0  0  0
  5  4  1  0  0  0  0
  5  9  1  0  0  0  0
  6  5  2  0  0  0  0
  7  2  1  0  0  0  0
 10  6  1  0  0  0  0
 11 16  1  0  0  0  0
 12 13  1  0  0  0  0
 12 11  2  0  0  0  0
 13 14  2  0  0  0  0
 14 15  1  0  0  0  0
 15  1  1  0  0  0  0
 16 15  2  0  0  0  0
 17 11  1  0  0  0  0
 18 12  1  0  0  0  0
 19 13  1  0  0  0  0
 21 20  1  0  0  0  0
 22 23  1  0  0  0  0
 22 21  2  0  0  0  0
 24 22  1  0  0  0  0
 25 24  2  0  0  0  0
 25 26  1  0  0  0  0
 26 31  1  0  0  0  0
 27 26  2  0  0  0  0
 27 28  1  0  0  0  0
 28 29  2  0  0  0  0
 29 30  1  0  0  0  0
 31 21  1  0  0  0  0
 31 30  2  0  0  0  0
M  END
>  <minimizedAffinity>
-6.11972332

$$$$

 OpenBabel03242516233D

 31 34  0  0  0  0  0  0  0  0999 V2000
   36.0400   29.5360   39.4990 C   0  0  0  0  0  0  0  0  0  0  0  0
   35.9890   28.6550   40.5730 C   0  0  0  0  0  0  0  0  0  0  0  0
   36.7190   28.8730   41.7240 C   0  0  0  0  0  0  0  0  0  0  0  0
   37.5310   30.0020   41.8170 C   0  0  0  0  0  0  0  0  0  0  0  0
   37.5880   30.8730   40.7680 C   0  0  0  0  0  0  0  0  0  0  0  0
   36.8440   30.6250   39.6340 C   0  0  0  0  0  0  0  0  0  0  0  0
   35.3650   27.7700   40.5230 H   0  0  0  0  0  0  0  0  0  0  0  0
   38.1140   30.1830   42.7240 H   0  0  0  0  0  0  0  0  0  0  0  0
   38.2050   31.7660   40.7930 H   0  0  0  0  0  0  0  0  0  0  0  0
   36.8960   31.3150   38.8160 H   0  0  0  0  0  0  0  0  0  0  0  0
   35.2350   29.1270   35.9600 C   0  0  0  0  0  0  0  0  0  0  0  0
   33.8770   28.7620   35.9690 C   0  0  0  0  0  0  0  0  0  0  0  0
   33.2330   28.6560   37.1920 C   0  0  0  0  0  0  0  0  0  0  0  0
   33.9350   28.9090   38.3400 N   0  0  0  0  0  0  0  0  0  0  0  0
   35.2450   29.2590   38.2970 C   0  0  0  0  0  0  0  0  0  0  0  0
   35.9060   29.3690   37.1010 N   0  0  0  0  0  0  0  0  0  0  0  0
   35.6900   29.1930   34.9710 H   0  0  0  0  0  0  0  0  0  0  0  0
   33.3080   28.5600   35.0720 H   0  0  0  0  0  0  0  0  0  0  0  0
   32.1920   28.3840   37.3210 H   0  0  0  0  0  0  0  0  0  0  0  0
   36.6150   27.7080   43.0540 S   0  0  0  0  0  0  0  0  0  0  0  0
   38.0560   26.6520   43.0200 C   0  0  0  0  0  0  0  0  0  0  0  0
   39.2460   26.9050   43.6790 C   0  0  0  0  0  0  0  0  0  0  0  0
   39.2870   27.8210   44.2560 H   0  0  0  0  0  0  0  0  0  0  0  0
   40.3000   26.0010   43.5730 C   0  0  0  0  0  3  0  0  0  0  0  0
   40.1630   24.8620   42.8200 C   0  0  0  0  0  3  0  0  0  0  0  0
   38.9830   24.6280   42.1770 C   0  0  0  0  0  0  0  0  0  0  0  0
   38.8780   23.4750   41.4290 C   0  0  0  0  0  3  0  0  0  0  0  0
   37.6900   23.2060   40.7600 C   0  0  0  0  0  3  0  0  0  0  0  0
   36.6040   24.0470   40.8150 C   0  0  0  0  0  3  0  0  0  0  0  0
   36.7610   25.1880   41.5780 C   0  0  0  0  0  3  0  0  0  0  0  0
   37.9210   25.5020   42.2610 C   0  0  0  0  0  0  0  0  0  0  0  0
  1  6  2  0  0  0  0
  1  2  1  0  0  0  0
  2  3  2  0  0  0  0
  3  4  1  0  0  0  0
  3 20  1  0  0  0  0
  4  8  1  0  0  0  0
  5  9  1  0  0  0  0
  5  4  2  0  0  0  0
  6  5  1  0  0  0  0
  7  2  1  0  0  0  0
 10  6  1  0  0  0  0
 11 12  2  0  0  0  0
 11 16  1  0  0  0  0
 12 13  1  0  0  0  0
 13 19  1  0  0  0  0
 13 14  2  0  0  0  0
 15 14  1  0  0  0  0
 15  1  1  0  0  0  0
 16 15  2  0  0  0  0
 17 11  1  0  0  0  0
 18 12  1  0  0  0  0
 21 20  1  0  0  0  0
 21 22  1  0  0  0  0
 22 23  1  0  0  0  0
 24 22  2  0  0  0  0
 25 24  1  0  0  0  0
 26 31  1  0  0  0  0
 26 25  2  0  0  0  0
 27 26  1  0  0  0  0
 28 29  1  0  0  0  0
 28 27  2  0  0  0  0
 29 30  2  0  0  0  0
 30 31  1  0  0  0  0
 31 21  2  0  0  0  0
M  END
>  <minimizedAffinity>
-6.04640198

$$$$

 OpenBabel03242516233D

 31 34  0  0  0  0  0  0  0  0999 V2000
   37.3950   26.4720   41.6590 C   0  0  0  0  0  0  0  0  0  0  0  0
   36.8190   27.6180   41.1230 C   0  0  0  0  0  0  0  0  0  0  0  0
   36.9240   28.8430   41.7510 C   0  0  0  0  0  0  0  0  0  0  0  0
   37.6210   28.9390   42.9530 C   0  0  0  0  0  0  0  0  0  0  0  0
   38.1900   27.8200   43.4890 C   0  0  0  0  0  0  0  0  0  0  0  0
   38.0670   26.6130   42.8340 C   0  0  0  0  0  0  0  0  0  0  0  0
   36.2710   27.5660   40.1890 H   0  0  0  0  0  0  0  0  0  0  0  0
   37.7090   29.9050   43.4580 H   0  0  0  0  0  0  0  0  0  0  0  0
   38.7440   27.8440   44.4220 H   0  0  0  0  0  0  0  0  0  0  0  0
   38.5170   25.7400   43.2630 H   0  0  0  0  0  0  0  0  0  0  0  0
   36.3180   24.0730   39.1240 C   0  0  0  0  0  0  0  0  0  0  0  0
   36.9130   22.8670   39.5350 C   0  0  0  0  0  0  0  0  0  0  0  0
   37.6860   22.8740   40.6860 C   0  0  0  0  0  0  0  0  0  0  0  0
   37.8420   24.0460   41.3780 N   0  0  0  0  0  0  0  0  0  0  0  0
   37.2540   25.1920   40.9540 C   0  0  0  0  0  0  0  0  0  0  0  0
   36.4850   25.2130   39.8190 N   0  0  0  0  0  0  0  0  0  0  0  0
   35.7210   24.0090   38.2130 H   0  0  0  0  0  0  0  0  0  0  0  0
   36.7990   21.9340   39.0010 H   0  0  0  0  0  0  0  0  0  0  0  0
   38.1910   22.0080   41.0970 H   0  0  0  0  0  0  0  0  0  0  0  0
   36.1620   30.2640   41.0170 S   0  0  0  0  0  0  0  0  0  0  0  0
   36.6770   30.3870   39.3110 C   0  0  0  0  0  0  0  0  0  0  0  0
   37.8010   31.0580   38.8630 C   0  0  0  0  0  0  0  0  0  0  0  0
   38.4030   31.5400   39.6220 H   0  0  0  0  0  0  0  0  0  0  0  0
   38.0950   31.0800   37.5020 C   0  0  0  0  0  3  0  0  0  0  0  0
   37.2770   30.4410   36.6050 C   0  0  0  0  0  3  0  0  0  0  0  0
   36.1720   29.7850   37.0640 C   0  0  0  0  0  0  0  0  0  0  0  0
   35.3710   29.1520   36.1370 C   0  0  0  0  0  3  0  0  0  0  0  0
   34.2380   28.4740   36.5700 C   0  0  0  0  0  3  0  0  0  0  0  0
   33.8790   28.4050   37.8950 C   0  0  0  0  0  3  0  0  0  0  0  0
   34.7150   29.0540   38.7830 C   0  0  0  0  0  3  0  0  0  0  0  0
   35.8530   29.7420   38.4030 C   0  0  0  0  0  0  0  0  0  0  0  0
  1  6  1  0  0  0  0
  2  1  2  0  0  0  0
  2  3  1  0  0  0  0
  3  4  2  0  0  0  0
  4  8  1  0  0  0  0
  4  5  1  0  0  0  0
  5  9  1  0  0  0  0
  6 10  1  0  0  0  0
  6  5  2  0  0  0  0
  7  2  1  0  0  0  0
 11 12  2  0  0  0  0
 11 16  1  0  0  0  0
 12 13  1  0  0  0  0
 13 19  1  0  0  0  0
 13 14  2  0  0  0  0
 15 14  1  0  0  0  0
 15  1  1  0  0  0  0
 16 15  2  0  0  0  0
 17 11  1  0  0  0  0
 18 12  1  0  0  0  0
 20  3  1  0  0  0  0
 21 20  1  0  0  0  0
 22 21  1  0  0  0  0
 22 23  1  0  0  0  0
 24 22  2  0  0  0  0
 25 26  2  0  0  0  0
 25 24  1  0  0  0  0
 26 31  1  0  0  0  0
 27 28  2  0  0  0  0
 27 26  1  0  0  0  0
 28 29  1  0  0  0  0
 29 30  2  0  0  0  0
 31 30  1  0  0  0  0
 31 21  2  0  0  0  0
M  END
>  <minimizedAffinity>
-6.00594044

$$$$

 OpenBabel03242516233D

 31 34  0  0  0  0  0  0  0  0999 V2000
   39.7460   31.3600   38.4710 C   0  0  0  0  0  0  0  0  0  0  0  0
   38.7280   30.4670   38.7800 C   0  0  0  0  0  0  0  0  0  0  0  0
   37.6260   30.8510   39.5170 C   0  0  0  0  0  0  0  0  0  0  0  0
   37.5270   32.1670   39.9660 C   0  0  0  0  0  0  0  0  0  0  0  0
   38.5220   33.0530   39.6680 C   0  0  0  0  0  0  0  0  0  0  0  0
   39.6080   32.6340   38.9290 C   0  0  0  0  0  0  0  0  0  0  0  0
   38.7830   29.4380   38.4420 H   0  0  0  0  0  0  0  0  0  0  0  0
   36.6580   32.4810   40.5510 H   0  0  0  0  0  0  0  0  0  0  0  0
   38.4900   34.0870   39.9950 H   0  0  0  0  0  0  0  0  0  0  0  0
   40.3840   33.3370   38.7010 H   0  0  0  0  0  0  0  0  0  0  0  0
   42.9340   31.4920   36.6930 C   0  0  0  0  0  0  0  0  0  0  0  0
   43.1090   30.1750   36.2290 C   0  0  0  0  0  0  0  0  0  0  0  0
   42.1310   29.2390   36.5250 C   0  0  0  0  0  0  0  0  0  0  0  0
   41.0370   29.6240   37.2530 N   0  0  0  0  0  0  0  0  0  0  0  0
   40.8980   30.9020   37.6860 C   0  0  0  0  0  0  0  0  0  0  0  0
   41.8510   31.8470   37.4080 N   0  0  0  0  0  0  0  0  0  0  0  0
   43.7350   32.1860   36.4320 H   0  0  0  0  0  0  0  0  0  0  0  0
   43.9660   29.8560   35.6530 H   0  0  0  0  0  0  0  0  0  0  0  0
   42.1590   28.1990   36.2200 H   0  0  0  0  0  0  0  0  0  0  0  0
   36.3650   29.6620   39.8830 S   0  0  0  0  0  0  0  0  0  0  0  0
   36.8390   28.7360   41.3340 C   0  0  0  0  0  0  0  0  0  0  0  0
   37.1820   29.2870   42.5570 C   0  0  0  0  0  0  0  0  0  0  0  0
   37.1540   30.3670   42.6170 H   0  0  0  0  0  0  0  0  0  0  0  0
   37.5350   28.4550   43.6150 C   0  0  0  0  0  3  0  0  0  0  0  0
   37.5440   27.0920   43.4530 C   0  0  0  0  0  3  0  0  0  0  0  0
   37.2040   26.5650   42.2400 C   0  0  0  0  0  0  0  0  0  0  0  0
   37.2230   25.1920   42.1100 C   0  0  0  0  0  3  0  0  0  0  0  0
   36.8820   24.6220   40.8900 C   0  0  0  0  0  3  0  0  0  0  0  0
   36.5220   25.3750   39.7970 C   0  0  0  0  0  3  0  0  0  0  0  0
   36.5190   26.7440   39.9800 C   0  0  0  0  0  3  0  0  0  0  0  0
   36.8490   27.3600   41.1740 C   0  0  0  0  0  0  0  0  0  0  0  0
  1  2  2  0  0  0  0
  1  6  1  0  0  0  0
  2  3  1  0  0  0  0
  3 20  1  0  0  0  0
  3  4  2  0  0  0  0
  4  8  1  0  0  0  0
  5  4  1  0  0  0  0
  5  9  1  0  0  0  0
  6  5  2  0  0  0  0
  7  2  1  0  0  0  0
 10  6  1  0  0  0  0
 11 16  1  0  0  0  0
 12 13  1  0  0  0  0
 12 11  2  0  0  0  0
 13 14  2  0  0  0  0
 14 15  1  0  0  0  0
 15  1  1  0  0  0  0
 16 15  2  0  0  0  0
 17 11  1  0  0  0  0
 18 12  1  0  0  0  0
 19 13  1  0  0  0  0
 20 21  1  0  0  0  0
 21 22  1  0  0  0  0
 22 23  1  0  0  0  0
 22 24  2  0  0  0  0
 25 24  1  0  0  0  0
 26 25  2  0  0  0  0
 27 26  1  0  0  0  0
 28 27  2  0  0  0  0
 29 30  2  0  0  0  0
 29 28  1  0  0  0  0
 30 31  1  0  0  0  0
 31 21  2  0  0  0  0
 31 26  1  0  0  0  0
M  END
>  <minimizedAffinity>
-5.93212652

$$$$

 OpenBabel03242516233D

 31 34  0  0  0  0  0  0  0  0999 V2000
   36.2760   29.5800   39.2280 C   0  0  0  0  0  0  0  0  0  0  0  0
   36.1610   28.7030   40.3010 C   0  0  0  0  0  0  0  0  0  0  0  0
   36.8060   28.9350   41.4990 C   0  0  0  0  0  0  0  0  0  0  0  0
   37.5940   30.0750   41.6430 C   0  0  0  0  0  0  0  0  0  0  0  0
   37.7140   30.9430   40.5960 C   0  0  0  0  0  0  0  0  0  0  0  0
   37.0560   30.6800   39.4130 C   0  0  0  0  0  0  0  0  0  0  0  0
   35.5540   27.8090   40.2110 H   0  0  0  0  0  0  0  0  0  0  0  0
   38.1100   30.2680   42.5870 H   0  0  0  0  0  0  0  0  0  0  0  0
   38.3160   31.8440   40.6590 H   0  0  0  0  0  0  0  0  0  0  0  0
   37.1560   31.3660   38.5980 H   0  0  0  0  0  0  0  0  0  0  0  0
   33.5550   28.6300   36.9840 C   0  0  0  0  0  0  0  0  0  0  0  0
   34.1360   28.7160   35.7060 C   0  0  0  0  0  0  0  0  0  0  0  0
   35.4640   29.0990   35.6110 C   0  0  0  0  0  0  0  0  0  0  0  0
   36.1610   29.3790   36.7560 N   0  0  0  0  0  0  0  0  0  0  0  0
   35.5720   29.2870   37.9740 C   0  0  0  0  0  0  0  0  0  0  0  0
   34.2590   28.9110   38.0960 N   0  0  0  0  0  0  0  0  0  0  0  0
   32.5080   28.3250   36.9980 H   0  0  0  0  0  0  0  0  0  0  0  0
   33.5990   28.4970   34.7920 H   0  0  0  0  0  0  0  0  0  0  0  0
   36.0140   29.1980   34.6820 H   0  0  0  0  0  0  0  0  0  0  0  0
   36.6230   27.7750   42.8250 S   0  0  0  0  0  0  0  0  0  0  0  0
   37.4520   26.2540   42.3890 C   0  0  0  0  0  0  0  0  0  0  0  0
   36.8570   25.1710   41.7660 C   0  0  0  0  0  0  0  0  0  0  0  0
   35.8050   25.2730   41.5350 H   0  0  0  0  0  0  0  0  0  0  0  0
   37.6140   24.0390   41.4790 C   0  0  0  0  0  3  0  0  0  0  0  0
   38.9460   23.9930   41.8070 C   0  0  0  0  0  3  0  0  0  0  0  0
   39.5170   25.0700   42.4210 C   0  0  0  0  0  0  0  0  0  0  0  0
   40.8570   24.9920   42.7370 C   0  0  0  0  0  3  0  0  0  0  0  0
   41.4700   26.0710   43.3620 C   0  0  0  0  0  3  0  0  0  0  0  0
   40.7920   27.2240   43.6800 C   0  0  0  0  0  3  0  0  0  0  0  0
   39.4530   27.2510   43.3410 C   0  0  0  0  0  3  0  0  0  0  0  0
   38.7960   26.2050   42.7190 C   0  0  0  0  0  0  0  0  0  0  0  0
  1  6  2  0  0  0  0
  1  2  1  0  0  0  0
  2  3  2  0  0  0  0
  3  4  1  0  0  0  0
  3 20  1  0  0  0  0
  4  8  1  0  0  0  0
  5  9  1  0  0  0  0
  5  4  2  0  0  0  0
  6  5  1  0  0  0  0
  7  2  1  0  0  0  0
 10  6  1  0  0  0  0
 11 17  1  0  0  0  0
 11 16  1  0  0  0  0
 12 11  2  0  0  0  0
 13 12  1  0  0  0  0
 13 14  2  0  0  0  0
 14 15  1  0  0  0  0
 15 16  2  0  0  0  0
 15  1  1  0  0  0  0
 18 12  1  0  0  0  0
 19 13  1  0  0  0  0
 21 31  1  0  0  0  0
 21 20  1  0  0  0  0
 22 21  2  0  0  0  0
 23 22  1  0  0  0  0
 24 22  1  0  0  0  0
 24 25  2  0  0  0  0
 25 26  1  0  0  0  0
 26 31  2  0  0  0  0
 26 27  1  0  0  0  0
 27 28  2  0  0  0  0
 28 29  1  0  0  0  0
 30 29  2  0  0  0  0
 31 30  1  0  0  0  0
M  END
>  <minimizedAffinity>
-5.84132957

$$$$
