
 OpenBabel03242513113D

 22 24  0  0  0  0  0  0  0  0999 V2000
   45.6910   32.7650   46.7640 C   0  0  0  0  0  0  0  0  0  0  0  0
   44.9860   33.2980   47.6860 O   0  0  0  0  0  0  0  0  0  0  0  0
   46.2980   31.4180   46.8420 C   0  0  0  0  0  0  0  0  0  0  0  0
   45.7200   30.4210   46.0470 C   0  0  0  0  0  0  0  0  0  0  0  0
   44.8560   30.6640   45.4140 H   0  0  0  0  0  0  0  0  0  0  0  0
   46.1380   29.1310   45.9790 C   0  0  0  0  0  0  0  0  0  0  0  0
   47.2200   28.7620   46.7510 C   0  0  0  0  0  0  0  0  0  0  0  0
   47.8110   29.7220   47.5450 C   0  0  0  0  0  0  0  0  0  0  0  0
   48.9050   29.4250   48.3510 C   0  0  0  0  0  0  0  0  0  0  0  0
   49.5030   30.3860   49.1520 C   0  0  0  0  0  0  0  0  0  0  0  0
   49.0170   31.6950   49.1710 C   0  0  0  0  0  0  0  0  0  0  0  0
   47.9360   31.9990   48.3770 C   0  0  0  0  0  0  0  0  0  0  0  0
   47.3670   31.0220   47.5940 C   0  0  0  0  0  0  0  0  0  0  0  0
   45.2890   35.0730   44.0010 C   0  0  0  0  0  0  0  0  0  0  0  0
   46.4110   34.8100   43.1740 C   0  0  0  0  0  0  0  0  0  0  0  0
   47.3130   33.8210   43.5820 C   0  0  0  0  0  0  0  0  0  0  0  0
   47.0560   33.1750   44.7450 N   0  0  0  0  0  0  0  0  0  0  0  0
   45.9690   33.4560   45.5110 C   0  0  0  0  0  0  0  0  0  0  0  0
   45.0880   34.3960   45.1490 N   0  0  0  0  0  0  0  0  0  0  0  0
   44.6240   35.8520   43.6320 H   0  0  0  0  0  0  0  0  0  0  0  0
   46.5560   35.3590   42.2630 H   0  0  0  0  0  0  0  0  0  0  0  0
   48.1610   33.6110   42.9730 H   0  0  0  0  0  0  0  0  0  0  0  0
  1  3  1  0  0  0  0
  1  2  2  0  0  0  0
  3 13  1  0  0  0  0
  4  3  2  0  0  0  0
  5  4  1  0  0  0  0
  6  4  1  0  0  0  0
  6  7  2  0  0  0  0
  7  8  1  0  0  0  0
  8 13  2  0  0  0  0
  8  9  1  0  0  0  0
  9 10  2  0  0  0  0
 10 11  1  0  0  0  0
 12 11  2  0  0  0  0
 13 12  1  0  0  0  0
 14 19  1  0  0  0  0
 15 16  1  0  0  0  0
 15 14  2  0  0  0  0
 16 17  2  0  0  0  0
 17 18  1  0  0  0  0
 18  1  1  0  0  0  0
 19 18  2  0  0  0  0
 20 14  1  0  0  0  0
 21 15  1  0  0  0  0
 22 16  1  0  0  0  0
M  END
>  <minimizedAffinity>
-4.90822792

>  <minimizedRMSD>
2.18940306

$$$$
