
 OpenBabel03252509003D

 47 50  0  0  1  0  0  0  0  0999 V2000
   46.6040   34.5740   43.5640 N   0  0  0  0  0  0  0  0  0  0  0  0
   46.1490   35.6020   42.7000 C   0  0  0  0  0  0  0  0  0  0  0  0
   44.6460   35.7820   42.6580 C   0  0  0  0  0  0  0  0  0  0  0  0
   43.9470   35.4860   43.9630 C   0  0  0  0  0  0  0  0  0  0  0  0
   44.9320   35.1770   45.0630 C   0  0  0  0  0  0  0  0  0  0  0  0
   45.7590   33.9730   44.4800 C   0  0  2  0  0  0  0  0  0  0  0  0
   46.5410   36.5660   43.1130 H   0  0  0  0  0  0  0  0  0  0  0  0
   46.5090   35.5560   41.6730 H   0  0  0  0  0  0  0  0  0  0  0  0
   44.2500   35.1980   41.7970 H   0  0  0  0  0  0  0  0  0  0  0  0
   44.4160   36.8430   42.4100 H   0  0  0  0  0  0  0  0  0  0  0  0
   43.2160   36.2770   44.2540 H   0  0  0  0  0  0  0  0  0  0  0  0
   43.3520   34.5590   43.8100 H   0  0  0  0  0  0  0  0  0  0  0  0
   45.6420   35.9750   45.2730 H   0  0  0  0  0  0  0  0  0  0  0  0
   44.3630   34.7870   45.9130 H   0  0  0  0  0  0  0  0  0  0  0  0
   45.0190   33.2300   44.0890 H   0  0  0  0  0  0  0  0  0  0  0  0
   47.7080   33.8220   43.0440 C   0  0  0  0  0  0  0  0  0  0  0  0
   48.2780   33.3260   43.8780 H   0  0  0  0  0  0  0  0  0  0  0  0
   48.3630   34.5170   42.4950 H   0  0  0  0  0  0  0  0  0  0  0  0
   47.1870   32.7400   42.1590 C   0  0  0  0  0  0  0  0  0  0  0  0
   47.3410   31.7150   42.5240 H   0  0  0  0  0  0  0  0  0  0  0  0
   46.0840   32.8450   42.0190 H   0  0  0  0  0  0  0  0  0  0  0  0
   49.2270   32.0940   39.0730 C   0  0  0  0  0  0  0  0  0  0  0  0
   48.6710   31.9530   40.3580 C   0  0  0  0  0  0  0  0  0  0  0  0
   47.7720   32.8920   40.8010 C   0  0  0  0  0  0  0  0  0  0  0  0
   47.4670   33.9040   39.9760 N   0  0  0  0  0  0  0  0  0  0  0  0
   48.0110   34.0210   38.7460 C   0  0  0  0  0  0  0  0  0  0  0  0
   48.8920   33.1200   38.2870 N   0  0  0  0  0  0  0  0  0  0  0  0
   49.9260   31.2850   38.8420 H   0  0  0  0  0  0  0  0  0  0  0  0
   48.9240   31.1270   41.0250 H   0  0  0  0  0  0  0  0  0  0  0  0
   47.7570   34.8480   38.0810 H   0  0  0  0  0  0  0  0  0  0  0  0
   46.4420   33.5340   45.6040 O   0  0  0  0  0  0  0  0  0  0  0  0
   45.4400   31.2100   44.7870 O   0  0  0  0  0  0  0  0  0  0  0  0
   46.1760   31.9060   45.9350 P   0  0  2  0  0  0  0  0  0  0  0  0
   45.0690   31.8650   47.2420 O   0  0  0  0  0  0  0  0  0  0  0  0
   45.4840   32.4270   47.9340 H   0  0  0  0  0  0  0  0  0  0  0  0
   47.5530   31.1200   46.4090 O   0  0  0  0  0  0  0  0  0  0  0  0
   47.8170   29.7820   46.4360 C   0  0  0  0  0  0  0  0  0  0  0  0
   47.4650   28.8640   47.4150 C   0  0  0  0  0  0  0  0  0  0  0  0
   46.9180   29.3010   48.2380 H   0  0  0  0  0  0  0  0  0  0  0  0
   47.8280   27.5350   47.2620 C   0  0  0  0  0  3  0  0  0  0  0  0
   48.5230   27.1230   46.1610 C   0  0  0  0  0  3  0  0  0  0  0  0
   48.8840   28.0000   45.1790 C   0  0  0  0  0  0  0  0  0  0  0  0
   49.5830   27.5370   44.0930 C   0  0  0  0  0  3  0  0  0  0  0  0
   49.9570   28.4040   43.0920 C   0  0  0  0  0  3  0  0  0  0  0  0
   49.6210   29.7380   43.1950 C   0  0  0  0  0  3  0  0  0  0  0  0
   48.9280   30.1650   44.2870 C   0  0  0  0  0  3  0  0  0  0  0  0
   48.5240   29.3370   45.3270 C   0  0  0  0  0  0  0  0  0  0  0  0
  1  6  1  0  0  0  0
  2  7  1  0  0  0  0
  2  1  1  0  0  0  0
  3  2  1  0  0  0  0
  3  4  1  0  0  0  0
  4 11  1  0  0  0  0
  4  5  1  0  0  0  0
  5 13  1  0  0  0  0
  5 14  1  0  0  0  0
  6 15  1  6  0  0  0
  6  5  1  0  0  0  0
  6 31  1  0  0  0  0
  8  2  1  0  0  0  0
  9  3  1  0  0  0  0
 10  3  1  0  0  0  0
 12  4  1  0  0  0  0
 16  1  1  0  0  0  0
 16 17  1  0  0  0  0
 18 16  1  0  0  0  0
 19 20  1  0  0  0  0
 19 16  1  0  0  0  0
 21 19  1  0  0  0  0
 22 23  1  0  0  0  0
 23 24  2  0  0  0  0
 23 29  1  0  0  0  0
 24 19  1  0  0  0  0
 25 24  1  0  0  0  0
 26 25  2  0  0  0  0
 27 26  1  0  0  0  0
 27 22  2  0  0  0  0
 28 22  1  0  0  0  0
 30 26  1  0  0  0  0
 31 33  1  0  0  0  0
 33 32  2  6  0  0  0
 33 36  1  0  0  0  0
 33 34  1  0  0  0  0
 34 35  1  0  0  0  0
 36 37  1  0  0  0  0
 37 38  1  0  0  0  0
 38 39  1  0  0  0  0
 40 38  2  0  0  0  0
 41 40  1  0  0  0  0
 42 47  1  0  0  0  0
 42 41  2  0  0  0  0
 43 42  1  0  0  0  0
 44 45  1  0  0  0  0
 44 43  2  0  0  0  0
 45 46  2  0  0  0  0
 46 47  1  0  0  0  0
 47 37  2  0  0  0  0
M  END
>  <minimizedAffinity>
-4.36957932

>  <minimizedRMSD>
1.3381412

$$$$
