
 OpenBabel03252507463D

 39 42  0  0  0  0  0  0  0  0999 V2000
   48.6710   31.4830   41.3110 C   0  0  0  0  0  0  0  0  0  0  0  0
   49.1330   30.3070   41.8770 C   0  0  0  0  0  0  0  0  0  0  0  0
   50.4360   29.8790   41.6590 C   0  0  0  0  0  0  0  0  0  0  0  0
   51.2260   30.6830   40.8610 N   0  0  0  0  0  0  0  0  0  0  0  0
   50.7370   31.8220   40.3290 C   0  0  0  0  0  0  0  0  0  0  0  0
   49.4880   32.2080   40.5520 N   0  0  0  0  0  0  0  0  0  0  0  0
   50.8080   28.9620   42.0970 H   0  0  0  0  0  0  0  0  0  0  0  0
   51.4530   32.3710   39.7180 H   0  0  0  0  0  0  0  0  0  0  0  0
   47.2720   31.8520   41.5990 C   0  0  0  0  0  0  0  0  0  0  0  0
   46.6590   31.8120   40.6540 H   0  0  0  0  0  0  0  0  0  0  0  0
   46.7890   31.1360   42.2810 H   0  0  0  0  0  0  0  0  0  0  0  0
   47.1260   33.2060   42.2170 C   0  0  0  0  0  0  0  0  0  0  0  0
   47.9340   33.8530   41.8740 H   0  0  0  0  0  0  0  0  0  0  0  0
   47.2350   33.1220   43.3360 H   0  0  0  0  0  0  0  0  0  0  0  0
   45.8250   33.8590   41.9260 C   0  0  0  0  0  0  0  0  0  0  0  0
   45.5730   35.1840   42.4230 C   0  0  0  0  0  0  0  0  0  0  0  0
   43.8730   35.5230   41.8050 S   0  0  0  0  0  0  0  0  0  0  0  0
   43.7940   33.8160   40.9800 C   0  0  0  0  0  0  0  0  0  0  0  0
   44.8160   33.3890   41.2470 N   0  0  0  0  0  0  0  0  0  0  0  0
   46.2460   35.7940   43.0120 H   0  0  0  0  0  0  0  0  0  0  0  0
   42.6840   33.3780   40.2700 O   0  0  0  0  0  0  0  0  0  0  0  0
   41.2720   33.3230   38.0210 O   0  0  0  0  0  0  0  0  0  0  0  0
   42.6260   33.7440   38.6000 P   0  0  0  0  0  0  0  0  0  0  0  0
   42.8020   35.4230   38.4350 O   0  0  0  0  0  0  0  0  0  0  0  0
   41.9020   35.8220   38.4610 H   0  0  0  0  0  0  0  0  0  0  0  0
   43.8990   32.9700   37.8020 O   0  0  0  0  0  0  0  0  0  0  0  0
   44.5750   33.5940   37.4600 H   0  0  0  0  0  0  0  0  0  0  0  0
   48.0570   29.3090   42.9070 S   0  0  0  0  0  0  0  0  0  0  0  0
   48.6110   29.2290   44.5790 C   0  0  0  0  0  0  0  0  0  0  0  0
   49.6600   28.4250   44.9760 C   0  0  0  0  0  0  0  0  0  0  0  0
   50.1600   27.8200   44.2280 H   0  0  0  0  0  0  0  0  0  0  0  0
   50.0470   28.4010   46.2820 C   0  0  0  0  0  3  0  0  0  0  0  0
   49.3980   29.1840   47.2360 C   0  0  0  0  0  3  0  0  0  0  0  0
   48.3420   29.9880   46.8160 C   0  0  0  0  0  0  0  0  0  0  0  0
   47.6900   30.7710   47.7590 C   0  0  0  0  0  3  0  0  0  0  0  0
   46.6400   31.5850   47.3960 C   0  0  0  0  0  3  0  0  0  0  0  0
   46.2220   31.6280   46.0630 C   0  0  0  0  0  3  0  0  0  0  0  0
   46.8870   30.8370   45.1290 C   0  0  0  0  0  3  0  0  0  0  0  0
   47.9350   30.0230   45.4800 C   0  0  0  0  0  0  0  0  0  0  0  0
  1  9  1  0  0  0  0
  1  2  1  0  0  0  0
  2 28  1  0  0  0  0
  3  2  2  0  0  0  0
  3  7  1  0  0  0  0
  4  3  1  0  0  0  0
  5  6  1  0  0  0  0
  5  4  2  0  0  0  0
  6  1  2  0  0  0  0
  8  5  1  0  0  0  0
  9 12  1  0  0  0  0
  9 11  1  0  0  0  0
 10  9  1  0  0  0  0
 12 14  1  0  0  0  0
 13 12  1  0  0  0  0
 15 12  1  0  0  0  0
 15 16  2  0  0  0  0
 16 20  1  0  0  0  0
 17 16  1  0  0  0  0
 18 19  2  0  0  0  0
 18 17  1  0  0  0  0
 19 15  1  0  0  0  0
 21 18  1  0  0  0  0
 22 23  2  0  0  0  0
 23 21  1  0  0  0  0
 24 25  1  0  0  0  0
 24 23  1  0  0  0  0
 26 23  1  0  0  0  0
 27 26  1  0  0  0  0
 28 29  1  0  0  0  0
 29 30  2  0  0  0  0
 29 39  1  0  0  0  0
 30 32  1  0  0  0  0
 31 30  1  0  0  0  0
 32 33  2  0  0  0  0
 34 33  1  0  0  0  0
 34 35  1  0  0  0  0
 36 35  2  0  0  0  0
 37 36  1  0  0  0  0
 38 39  1  0  0  0  0
 38 37  2  0  0  0  0
 39 34  2  0  0  0  0
M  END
>  <minimizedAffinity>
-4.11055803

>  <minimizedRMSD>
6.25841522

$$$$
