
 OpenBabel03252509273D

 32 35  0  0  1  0  0  0  0  0999 V2000
   46.6160   35.0590   41.9910 C   0  0  1  0  0  0  0  0  0  0  0  0
   48.0970   35.4360   42.0410 C   0  0  0  0  0  0  0  0  0  0  0  0
   47.5160   34.0880   41.5060 C   0  0  2  0  0  0  0  0  0  0  0  0
   46.0400   35.7380   41.3650 H   0  0  0  0  0  0  0  0  0  0  0  0
   48.4900   36.1030   41.2370 H   0  0  0  0  0  0  0  0  0  0  0  0
   48.6250   35.4450   42.9870 H   0  0  0  0  0  0  0  0  0  0  0  0
   47.9020   33.2510   42.1740 H   0  0  0  0  0  0  0  0  0  0  0  0
   44.5790   35.4960   45.1030 C   0  0  0  0  0  0  0  0  0  0  0  0
   45.1000   35.7580   43.8060 C   0  0  0  0  0  0  0  0  0  0  0  0
   46.0570   34.8810   43.3840 C   0  0  0  0  0  0  0  0  0  0  0  0
   46.4770   33.8300   44.1680 N   0  0  0  0  0  0  0  0  0  0  0  0
   45.9580   33.6200   45.3870 C   0  0  0  0  0  0  0  0  0  0  0  0
   45.0000   34.4630   45.8590 N   0  0  0  0  0  0  0  0  0  0  0  0
   43.8120   36.1340   45.5180 H   0  0  0  0  0  0  0  0  0  0  0  0
   46.3010   32.7900   45.9930 H   0  0  0  0  0  0  0  0  0  0  0  0
   44.6690   36.8530   43.0360 N   0  0  0  0  0  0  0  0  0  0  0  0
   45.4820   37.5100   42.9460 H   0  0  0  0  0  0  0  0  0  0  0  0
   43.6890   36.9730   42.6310 H   0  0  0  0  0  0  0  0  0  0  0  0
   47.7000   33.7860   40.0430 C   0  0  0  0  0  0  0  0  0  0  0  0
   48.5020   34.4730   39.6510 H   0  0  0  0  0  0  0  0  0  0  0  0
   46.7340   34.0540   39.5920 H   0  0  0  0  0  0  0  0  0  0  0  0
   48.1550   32.4150   39.8070 C   0  0  0  0  0  0  0  0  0  0  0  0
   47.3010   31.6650   38.9860 C   0  0  0  0  0  0  0  0  0  0  0  0
   46.3320   32.0060   38.6410 H   0  0  0  0  0  0  0  0  0  0  0  0
   47.6750   30.3960   38.5560 C   0  0  0  0  0  3  0  0  0  0  0  0
   48.8780   29.8170   38.9050 C   0  0  0  0  0  3  0  0  0  0  0  0
   49.7110   30.5330   39.7030 C   0  0  0  0  0  0  0  0  0  0  0  0
   50.9160   29.9780   40.1270 C   0  0  0  0  0  3  0  0  0  0  0  0
   51.7070   30.7230   40.9780 C   0  0  0  0  0  3  0  0  0  0  0  0
   51.3330   31.9820   41.4050 C   0  0  0  0  0  3  0  0  0  0  0  0
   50.1360   32.5080   40.9670 C   0  0  0  0  0  3  0  0  0  0  0  0
   49.3290   31.7620   40.1080 C   0  0  0  0  0  0  0  0  0  0  0  0
  1  4  1  6  0  0  0
  1  2  1  0  0  0  0
  1 10  1  0  0  0  0
  2  6  1  0  0  0  0
  3  1  1  0  0  0  0
  3  2  1  0  0  0  0
  3  7  1  1  0  0  0
  5  2  1  0  0  0  0
  8 14  1  0  0  0  0
  8 13  1  0  0  0  0
  9  8  2  0  0  0  0
 10  9  1  0  0  0  0
 10 11  2  0  0  0  0
 11 12  1  0  0  0  0
 12 13  2  0  0  0  0
 12 15  1  0  0  0  0
 16  9  1  0  0  0  0
 17 16  1  0  0  0  0
 18 16  1  0  0  0  0
 19  3  1  0  0  0  0
 20 19  1  0  0  0  0
 21 19  1  0  0  0  0
 22 19  1  0  0  0  0
 22 32  1  0  0  0  0
 23 22  2  0  0  0  0
 24 23  1  0  0  0  0
 25 26  2  0  0  0  0
 25 23  1  0  0  0  0
 26 27  1  0  0  0  0
 27 32  2  0  0  0  0
 27 28  1  0  0  0  0
 28 29  2  0  0  0  0
 29 30  1  0  0  0  0
 31 30  2  0  0  0  0
 32 31  1  0  0  0  0
M  END
>  <minimizedAffinity>
-4.99925613

>  <minimizedRMSD>
4.4565258

$$$$
