
 OpenBabel03252504283D

 24 26  0  0  0  0  0  0  0  0999 V2000
   38.1230   30.0290   39.5620 C   0  0  0  0  0  0  0  0  0  0  0  0
   38.1980   29.7480   38.4990 H   0  0  0  0  0  0  0  0  0  0  0  0
   39.0880   29.6760   40.0200 H   0  0  0  0  0  0  0  0  0  0  0  0
   39.2040   32.0230   40.3980 C   0  0  0  0  0  0  0  0  0  0  0  0
   38.1010   31.4950   39.7260 C   0  0  0  0  0  0  0  0  0  0  0  0
   37.1190   32.3640   39.2900 C   0  0  0  0  0  0  0  0  0  0  0  0
   37.3050   33.6780   39.5510 N   0  0  0  0  0  0  0  0  0  0  0  0
   38.3740   34.1610   40.1980 C   0  0  0  0  0  0  0  0  0  0  0  0
   39.3820   33.3420   40.6550 N   0  0  0  0  0  0  0  0  0  0  0  0
   40.0240   31.4040   40.7750 H   0  0  0  0  0  0  0  0  0  0  0  0
   36.2970   31.9230   38.7840 H   0  0  0  0  0  0  0  0  0  0  0  0
   38.4320   35.2410   40.3590 H   0  0  0  0  0  0  0  0  0  0  0  0
   37.0150   29.3950   40.1190 O   0  0  0  0  0  0  0  0  0  0  0  0
   37.1560   28.7040   41.3140 C   0  0  0  0  0  0  0  0  0  0  0  0
   37.4210   29.3310   42.5120 C   0  0  0  0  0  0  0  0  0  0  0  0
   37.5200   30.3930   42.5210 H   0  0  0  0  0  0  0  0  0  0  0  0
   37.5360   28.5270   43.6160 C   0  0  0  0  0  3  0  0  0  0  0  0
   37.4070   27.1500   43.6090 C   0  0  0  0  0  3  0  0  0  0  0  0
   37.1410   26.5660   42.3670 C   0  0  0  0  0  0  0  0  0  0  0  0
   37.0010   25.1970   42.2880 C   0  0  0  0  0  3  0  0  0  0  0  0
   36.7340   24.5260   41.0930 C   0  0  0  0  0  3  0  0  0  0  0  0
   36.6170   25.3340   39.9790 C   0  0  0  0  0  3  0  0  0  0  0  0
   36.7460   26.7080   39.9960 C   0  0  0  0  0  3  0  0  0  0  0  0
   37.0130   27.3250   41.2190 C   0  0  0  0  0  0  0  0  0  0  0  0
  1  5  1  0  0  0  0
  1  3  1  0  0  0  0
  1 13  1  0  0  0  0
  2  1  1  0  0  0  0
  4  9  1  0  0  0  0
  4 10  1  0  0  0  0
  5  4  2  0  0  0  0
  6  7  2  0  0  0  0
  6  5  1  0  0  0  0
  7  8  1  0  0  0  0
  8 12  1  0  0  0  0
  8  9  2  0  0  0  0
 11  6  1  0  0  0  0
 13 14  1  0  0  0  0
 14 15  1  0  0  0  0
 15 16  1  0  0  0  0
 15 17  2  0  0  0  0
 18 17  1  0  0  0  0
 19 18  2  0  0  0  0
 20 19  1  0  0  0  0
 21 20  2  0  0  0  0
 22 23  2  0  0  0  0
 22 21  1  0  0  0  0
 23 24  1  0  0  0  0
 24 14  2  0  0  0  0
 24 19  1  0  0  0  0
M  END
>  <minimizedAffinity>
-5.37122917

$$$$

 OpenBabel03252504283D

 24 26  0  0  0  0  0  0  0  0999 V2000
   38.5920   32.9100   40.5780 C   0  0  0  0  0  0  0  0  0  0  0  0
   38.5610   33.6870   41.3600 H   0  0  0  0  0  0  0  0  0  0  0  0
   37.6400   33.0520   39.9960 H   0  0  0  0  0  0  0  0  0  0  0  0
   39.7220   32.2870   38.5340 C   0  0  0  0  0  0  0  0  0  0  0  0
   39.6960   33.1510   39.6300 C   0  0  0  0  0  0  0  0  0  0  0  0
   40.6740   34.1220   39.7250 C   0  0  0  0  0  0  0  0  0  0  0  0
   41.5950   34.1610   38.7350 N   0  0  0  0  0  0  0  0  0  0  0  0
   41.5990   33.3200   37.6930 C   0  0  0  0  0  0  0  0  0  0  0  0
   40.6490   32.3350   37.5470 N   0  0  0  0  0  0  0  0  0  0  0  0
   38.9840   31.4920   38.3860 H   0  0  0  0  0  0  0  0  0  0  0  0
   40.6200   34.7580   40.5720 H   0  0  0  0  0  0  0  0  0  0  0  0
   42.3870   33.4350   36.9430 H   0  0  0  0  0  0  0  0  0  0  0  0
   38.6520   31.6590   41.1890 O   0  0  0  0  0  0  0  0  0  0  0  0
   37.5990   30.7720   41.0260 C   0  0  0  0  0  0  0  0  0  0  0  0
   36.5440   31.0130   40.1730 C   0  0  0  0  0  0  0  0  0  0  0  0
   36.5370   31.9220   39.6140 H   0  0  0  0  0  0  0  0  0  0  0  0
   35.5700   30.0510   40.1090 C   0  0  0  0  0  3  0  0  0  0  0  0
   35.5740   28.8720   40.8330 C   0  0  0  0  0  3  0  0  0  0  0  0
   36.6660   28.6780   41.6830 C   0  0  0  0  0  0  0  0  0  0  0  0
   36.7340   27.5240   42.4330 C   0  0  0  0  0  3  0  0  0  0  0  0
   37.7860   27.2440   43.3080 C   0  0  0  0  0  3  0  0  0  0  0  0
   38.7680   28.2130   43.3740 C   0  0  0  0  0  3  0  0  0  0  0  0
   38.7560   29.3860   42.6470 C   0  0  0  0  0  3  0  0  0  0  0  0
   37.6800   29.6130   41.7890 C   0  0  0  0  0  0  0  0  0  0  0  0
  1 13  1  0  0  0  0
  1  2  1  0  0  0  0
  3  1  1  0  0  0  0
  4  5  1  0  0  0  0
  5  6  2  0  0  0  0
  5  1  1  0  0  0  0
  6 11  1  0  0  0  0
  7  6  1  0  0  0  0
  8  7  2  0  0  0  0
  9  8  1  0  0  0  0
  9  4  2  0  0  0  0
 10  4  1  0  0  0  0
 12  8  1  0  0  0  0
 14 13  1  0  0  0  0
 14 24  1  0  0  0  0
 15 14  2  0  0  0  0
 16 15  1  0  0  0  0
 17 15  1  0  0  0  0
 17 18  2  0  0  0  0
 18 19  1  0  0  0  0
 19 24  2  0  0  0  0
 19 20  1  0  0  0  0
 20 21  2  0  0  0  0
 21 22  1  0  0  0  0
 23 22  2  0  0  0  0
 24 23  1  0  0  0  0
M  END
>  <minimizedAffinity>
-5.35074902

$$$$

 OpenBabel03252504283D

 24 26  0  0  0  0  0  0  0  0999 V2000
   35.8140   30.0700   40.6750 C   0  0  0  0  0  0  0  0  0  0  0  0
   34.8980   30.6520   40.8670 H   0  0  0  0  0  0  0  0  0  0  0  0
   35.4550   29.0170   40.5090 H   0  0  0  0  0  0  0  0  0  0  0  0
   36.9970   31.7750   39.4350 C   0  0  0  0  0  0  0  0  0  0  0  0
   36.4590   30.4880   39.4160 C   0  0  0  0  0  0  0  0  0  0  0  0
   36.5750   29.7440   38.2560 C   0  0  0  0  0  0  0  0  0  0  0  0
   37.2090   30.3300   37.2150 N   0  0  0  0  0  0  0  0  0  0  0  0
   37.7170   31.5680   37.2580 C   0  0  0  0  0  0  0  0  0  0  0  0
   37.6320   32.3530   38.3870 N   0  0  0  0  0  0  0  0  0  0  0  0
   36.9480   32.4270   40.3130 H   0  0  0  0  0  0  0  0  0  0  0  0
   36.1530   28.7710   38.2820 H   0  0  0  0  0  0  0  0  0  0  0  0
   38.2140   31.9520   36.3620 H   0  0  0  0  0  0  0  0  0  0  0  0
   36.6520   30.1700   41.7840 O   0  0  0  0  0  0  0  0  0  0  0  0
   37.3190   29.0410   42.2360 C   0  0  0  0  0  0  0  0  0  0  0  0
   36.6810   27.8450   42.4830 C   0  0  0  0  0  0  0  0  0  0  0  0
   35.6290   27.7850   42.3180 H   0  0  0  0  0  0  0  0  0  0  0  0
   37.4630   26.8100   42.9260 C   0  0  0  0  0  3  0  0  0  0  0  0
   38.8280   26.8840   43.1400 C   0  0  0  0  0  3  0  0  0  0  0  0
   39.4230   28.1200   42.8750 C   0  0  0  0  0  0  0  0  0  0  0  0
   40.7800   28.2630   43.0680 C   0  0  0  0  0  3  0  0  0  0  0  0
   41.4620   29.4590   42.8290 C   0  0  0  0  0  3  0  0  0  0  0  0
   40.6770   30.5030   42.3820 C   0  0  0  0  0  3  0  0  0  0  0  0
   39.3160   30.4200   42.1700 C   0  0  0  0  0  3  0  0  0  0  0  0
   38.6870   29.2010   42.4260 C   0  0  0  0  0  0  0  0  0  0  0  0
  1  2  1  0  0  0  0
  1 13  1  0  0  0  0
  3  1  1  0  0  0  0
  4 10  1  0  0  0  0
  5  4  1  0  0  0  0
  5  1  1  0  0  0  0
  6 11  1  0  0  0  0
  6  5  2  0  0  0  0
  7  8  2  0  0  0  0
  7  6  1  0  0  0  0
  8  9  1  0  0  0  0
  9  4  2  0  0  0  0
 12  8  1  0  0  0  0
 13 14  1  0  0  0  0
 14 24  2  0  0  0  0
 14 15  1  0  0  0  0
 15 17  2  0  0  0  0
 16 15  1  0  0  0  0
 17 18  1  0  0  0  0
 19 20  1  0  0  0  0
 19 18  2  0  0  0  0
 21 20  2  0  0  0  0
 22 21  1  0  0  0  0
 23 22  2  0  0  0  0
 23 24  1  0  0  0  0
 24 19  1  0  0  0  0
M  END
>  <minimizedAffinity>
-5.12160444

$$$$

 OpenBabel03252504283D

 24 26  0  0  0  0  0  0  0  0999 V2000
   36.7530   28.8370   41.8530 C   0  0  0  0  0  0  0  0  0  0  0  0
   35.7160   28.9940   42.1920 H   0  0  0  0  0  0  0  0  0  0  0  0
   36.6580   28.2180   40.9190 H   0  0  0  0  0  0  0  0  0  0  0  0
   36.5810   30.9140   40.6300 C   0  0  0  0  0  0  0  0  0  0  0  0
   37.3780   30.1080   41.4430 C   0  0  0  0  0  0  0  0  0  0  0  0
   38.6410   30.5590   41.7800 C   0  0  0  0  0  0  0  0  0  0  0  0
   39.0120   31.7620   41.2880 N   0  0  0  0  0  0  0  0  0  0  0  0
   38.2290   32.5180   40.5080 C   0  0  0  0  0  0  0  0  0  0  0  0
   36.9620   32.1200   40.1420 N   0  0  0  0  0  0  0  0  0  0  0  0
   35.5710   30.6310   40.3180 H   0  0  0  0  0  0  0  0  0  0  0  0
   39.2150   29.9170   42.3990 H   0  0  0  0  0  0  0  0  0  0  0  0
   38.6210   33.4790   40.1620 H   0  0  0  0  0  0  0  0  0  0  0  0
   37.4590   28.1720   42.8540 O   0  0  0  0  0  0  0  0  0  0  0  0
   37.8330   26.8520   42.6590 C   0  0  0  0  0  0  0  0  0  0  0  0
   36.9580   25.8840   42.2140 C   0  0  0  0  0  0  0  0  0  0  0  0
   35.9490   26.1640   42.0100 H   0  0  0  0  0  0  0  0  0  0  0  0
   37.4620   24.6180   42.0650 C   0  0  0  0  0  3  0  0  0  0  0  0
   38.7700   24.2510   42.3270 C   0  0  0  0  0  3  0  0  0  0  0  0
   39.6140   25.2710   42.7770 C   0  0  0  0  0  0  0  0  0  0  0  0
   40.9300   24.9740   43.0580 C   0  0  0  0  0  3  0  0  0  0  0  0
   41.8470   25.9260   43.5110 C   0  0  0  0  0  3  0  0  0  0  0  0
   41.3410   27.2020   43.6610 C   0  0  0  0  0  3  0  0  0  0  0  0
   40.0350   27.5590   43.3960 C   0  0  0  0  0  3  0  0  0  0  0  0
   39.1630   26.5670   42.9460 C   0  0  0  0  0  0  0  0  0  0  0  0
  1  2  1  0  0  0  0
  1 13  1  0  0  0  0
  3  1  1  0  0  0  0
  4  5  1  0  0  0  0
  5  6  2  0  0  0  0
  5  1  1  0  0  0  0
  6 11  1  0  0  0  0
  7  6  1  0  0  0  0
  8  7  2  0  0  0  0
  9  8  1  0  0  0  0
  9  4  2  0  0  0  0
 10  4  1  0  0  0  0
 12  8  1  0  0  0  0
 14 13  1  0  0  0  0
 14 24  1  0  0  0  0
 15 14  2  0  0  0  0
 16 15  1  0  0  0  0
 17 15  1  0  0  0  0
 17 18  2  0  0  0  0
 18 19  1  0  0  0  0
 19 24  2  0  0  0  0
 19 20  1  0  0  0  0
 20 21  2  0  0  0  0
 21 22  1  0  0  0  0
 23 22  2  0  0  0  0
 24 23  1  0  0  0  0
M  END
>  <minimizedAffinity>
-5.10278988

$$$$

 OpenBabel03252504283D

 24 26  0  0  0  0  0  0  0  0999 V2000
   36.8890   31.2850   38.8100 C   0  0  0  0  0  0  0  0  0  0  0  0
   36.0530   31.8330   38.3450 H   0  0  0  0  0  0  0  0  0  0  0  0
   37.2510   30.5830   38.0100 H   0  0  0  0  0  0  0  0  0  0  0  0
   37.7170   33.2230   39.9940 C   0  0  0  0  0  0  0  0  0  0  0  0
   38.0170   32.1870   39.1100 C   0  0  0  0  0  0  0  0  0  0  0  0
   39.3030   32.1010   38.6090 C   0  0  0  0  0  0  0  0  0  0  0  0
   40.1830   33.0420   39.0210 N   0  0  0  0  0  0  0  0  0  0  0  0
   39.8710   34.0270   39.8710 C   0  0  0  0  0  0  0  0  0  0  0  0
   38.6070   34.1610   40.4010 N   0  0  0  0  0  0  0  0  0  0  0  0
   36.7250   33.3610   40.4340 H   0  0  0  0  0  0  0  0  0  0  0  0
   39.4910   31.2990   37.9400 H   0  0  0  0  0  0  0  0  0  0  0  0
   40.6560   34.7390   40.1440 H   0  0  0  0  0  0  0  0  0  0  0  0
   36.4140   30.6050   39.9300 O   0  0  0  0  0  0  0  0  0  0  0  0
   36.4770   29.2200   39.9610 C   0  0  0  0  0  0  0  0  0  0  0  0
   36.1230   28.4320   38.8880 C   0  0  0  0  0  0  0  0  0  0  0  0
   35.7870   28.9070   37.9950 H   0  0  0  0  0  0  0  0  0  0  0  0
   36.2350   27.0760   39.0560 C   0  0  0  0  0  3  0  0  0  0  0  0
   36.6710   26.4550   40.2130 C   0  0  0  0  0  3  0  0  0  0  0  0
   37.0160   27.3020   41.2700 C   0  0  0  0  0  0  0  0  0  0  0  0
   37.4590   26.7490   42.4530 C   0  0  0  0  0  3  0  0  0  0  0  0
   37.8260   27.5150   43.5620 C   0  0  0  0  0  3  0  0  0  0  0  0
   37.7140   28.8810   43.3940 C   0  0  0  0  0  3  0  0  0  0  0  0
   37.2790   29.4920   42.2360 C   0  0  0  0  0  3  0  0  0  0  0  0
   36.9250   28.6770   41.1600 C   0  0  0  0  0  0  0  0  0  0  0  0
  1  5  1  0  0  0  0
  1 13  1  0  0  0  0
  2  1  1  0  0  0  0
  3  1  1  0  0  0  0
  4  9  1  0  0  0  0
  4 10  1  0  0  0  0
  5  4  2  0  0  0  0
  6  7  2  0  0  0  0
  6  5  1  0  0  0  0
  7  8  1  0  0  0  0
  8 12  1  0  0  0  0
  8  9  2  0  0  0  0
 11  6  1  0  0  0  0
 13 14  1  0  0  0  0
 14 24  1  0  0  0  0
 15 17  1  0  0  0  0
 15 14  2  0  0  0  0
 16 15  1  0  0  0  0
 17 18  2  0  0  0  0
 18 19  1  0  0  0  0
 19 20  1  0  0  0  0
 20 21  2  0  0  0  0
 22 21  1  0  0  0  0
 23 22  2  0  0  0  0
 24 19  2  0  0  0  0
 24 23  1  0  0  0  0
M  END
>  <minimizedAffinity>
-5.09371424

$$$$

 OpenBabel03252504283D

 24 26  0  0  0  0  0  0  0  0999 V2000
   39.3430   29.9010   42.7110 C   0  0  0  0  0  0  0  0  0  0  0  0
   40.3670   29.6980   42.3540 H   0  0  0  0  0  0  0  0  0  0  0  0
   39.4640   30.7100   43.4820 H   0  0  0  0  0  0  0  0  0  0  0  0
   37.1570   30.1370   41.7080 C   0  0  0  0  0  0  0  0  0  0  0  0
   38.5080   30.4750   41.6390 C   0  0  0  0  0  0  0  0  0  0  0  0
   38.9290   31.2910   40.6060 C   0  0  0  0  0  0  0  0  0  0  0  0
   37.9860   31.7040   39.7290 N   0  0  0  0  0  0  0  0  0  0  0  0
   36.6930   31.3650   39.8170 C   0  0  0  0  0  0  0  0  0  0  0  0
   36.2180   30.5560   40.8250 N   0  0  0  0  0  0  0  0  0  0  0  0
   36.7430   29.4970   42.4930 H   0  0  0  0  0  0  0  0  0  0  0  0
   39.9640   31.5250   40.5880 H   0  0  0  0  0  0  0  0  0  0  0  0
   36.0080   31.7530   39.0580 H   0  0  0  0  0  0  0  0  0  0  0  0
   38.8160   28.7320   43.2550 O   0  0  0  0  0  0  0  0  0  0  0  0
   39.5680   27.5670   43.2220 C   0  0  0  0  0  0  0  0  0  0  0  0
   40.8930   27.5220   43.5980 C   0  0  0  0  0  0  0  0  0  0  0  0
   41.3600   28.4230   43.9290 H   0  0  0  0  0  0  0  0  0  0  0  0
   41.5170   26.3040   43.5160 C   0  0  0  0  0  3  0  0  0  0  0  0
   40.9150   25.1350   43.0870 C   0  0  0  0  0  3  0  0  0  0  0  0
   39.5710   25.2370   42.7160 C   0  0  0  0  0  0  0  0  0  0  0  0
   38.9100   24.1100   42.2790 C   0  0  0  0  0  3  0  0  0  0  0  0
   37.5690   24.1150   41.8890 C   0  0  0  0  0  3  0  0  0  0  0  0
   36.9390   25.3410   41.9710 C   0  0  0  0  0  3  0  0  0  0  0  0
   37.5470   26.5030   42.4020 C   0  0  0  0  0  3  0  0  0  0  0  0
   38.8890   26.4380   42.7780 C   0  0  0  0  0  0  0  0  0  0  0  0
  1 13  1  0  0  0  0
  1  3  1  0  0  0  0
  2  1  1  0  0  0  0
  4 10  1  0  0  0  0
  5  4  1  0  0  0  0
  5  1  1  0  0  0  0
  6  5  2  0  0  0  0
  7  8  2  0  0  0  0
  7  6  1  0  0  0  0
  8  9  1  0  0  0  0
  9  4  2  0  0  0  0
 11  6  1  0  0  0  0
 12  8  1  0  0  0  0
 14 13  1  0  0  0  0
 14 15  1  0  0  0  0
 15 16  1  0  0  0  0
 17 15  2  0  0  0  0
 18 17  1  0  0  0  0
 19 24  1  0  0  0  0
 19 18  2  0  0  0  0
 20 19  1  0  0  0  0
 21 22  1  0  0  0  0
 21 20  2  0  0  0  0
 22 23  2  0  0  0  0
 23 24  1  0  0  0  0
 24 14  2  0  0  0  0
M  END
>  <minimizedAffinity>
-4.98730564

$$$$

 OpenBabel03252504283D

 24 26  0  0  0  0  0  0  0  0999 V2000
   35.4530   29.2160   40.6580 C   0  0  0  0  0  0  0  0  0  0  0  0
   35.8730   30.1770   40.9970 H   0  0  0  0  0  0  0  0  0  0  0  0
   34.3400   29.3760   40.6520 H   0  0  0  0  0  0  0  0  0  0  0  0
   36.2810   30.0360   38.5400 C   0  0  0  0  0  0  0  0  0  0  0  0
   35.8350   28.9290   39.2630 C   0  0  0  0  0  0  0  0  0  0  0  0
   35.7930   27.7020   38.6260 C   0  0  0  0  0  0  0  0  0  0  0  0
   36.1920   27.6700   37.3340 N   0  0  0  0  0  0  0  0  0  0  0  0
   36.6160   28.7470   36.6620 C   0  0  0  0  0  0  0  0  0  0  0  0
   36.6790   29.9930   37.2460 N   0  0  0  0  0  0  0  0  0  0  0  0
   36.3440   31.0400   38.9700 H   0  0  0  0  0  0  0  0  0  0  0  0
   35.4480   26.8860   39.2090 H   0  0  0  0  0  0  0  0  0  0  0  0
   36.9190   28.6160   35.6200 H   0  0  0  0  0  0  0  0  0  0  0  0
   35.8350   28.2170   41.5520 O   0  0  0  0  0  0  0  0  0  0  0  0
   37.1170   28.2320   42.0800 C   0  0  0  0  0  0  0  0  0  0  0  0
   37.7760   29.3970   42.4100 C   0  0  0  0  0  0  0  0  0  0  0  0
   37.2780   30.3270   42.2530 H   0  0  0  0  0  0  0  0  0  0  0  0
   39.0410   29.2660   42.9230 C   0  0  0  0  0  3  0  0  0  0  0  0
   39.6900   28.0620   43.1290 C   0  0  0  0  0  3  0  0  0  0  0  0
   38.9770   26.9120   42.7760 C   0  0  0  0  0  0  0  0  0  0  0  0
   39.5660   25.6790   42.9540 C   0  0  0  0  0  3  0  0  0  0  0  0
   38.9310   24.4780   42.6310 C   0  0  0  0  0  3  0  0  0  0  0  0
   37.6570   24.6070   42.1140 C   0  0  0  0  0  3  0  0  0  0  0  0
   37.0160   25.8130   41.9140 C   0  0  0  0  0  3  0  0  0  0  0  0
   37.6990   26.9810   42.2540 C   0  0  0  0  0  0  0  0  0  0  0  0
  1  2  1  0  0  0  0
  1 13  1  0  0  0  0
  3  1  1  0  0  0  0
  4 10  1  0  0  0  0
  4  5  1  0  0  0  0
  5  1  1  0  0  0  0
  6 11  1  0  0  0  0
  6  5  2  0  0  0  0
  7  6  1  0  0  0  0
  8  9  1  0  0  0  0
  8  7  2  0  0  0  0
  9  4  2  0  0  0  0
 12  8  1  0  0  0  0
 13 14  1  0  0  0  0
 14 24  2  0  0  0  0
 14 15  1  0  0  0  0
 15 17  2  0  0  0  0
 16 15  1  0  0  0  0
 17 18  1  0  0  0  0
 19 20  1  0  0  0  0
 19 18  2  0  0  0  0
 21 20  2  0  0  0  0
 22 21  1  0  0  0  0
 23 22  2  0  0  0  0
 23 24  1  0  0  0  0
 24 19  1  0  0  0  0
M  END
>  <minimizedAffinity>
-4.8852396

$$$$

 OpenBabel03252504283D

 24 26  0  0  0  0  0  0  0  0999 V2000
   36.9660   30.0830   39.4230 C   0  0  0  0  0  0  0  0  0  0  0  0
   37.5660   30.9340   39.0620 H   0  0  0  0  0  0  0  0  0  0  0  0
   36.3340   30.5080   40.2500 H   0  0  0  0  0  0  0  0  0  0  0  0
   34.8140   29.1290   38.8750 C   0  0  0  0  0  0  0  0  0  0  0  0
   36.0260   29.6150   38.3860 C   0  0  0  0  0  0  0  0  0  0  0  0
   36.2310   29.6150   37.0190 C   0  0  0  0  0  0  0  0  0  0  0  0
   35.2270   29.1360   36.2500 N   0  0  0  0  0  0  0  0  0  0  0  0
   34.0710   28.6740   36.7440 C   0  0  0  0  0  0  0  0  0  0  0  0
   33.8120   28.6510   38.0960 N   0  0  0  0  0  0  0  0  0  0  0  0
   34.5730   29.0950   39.9420 H   0  0  0  0  0  0  0  0  0  0  0  0
   37.1660   29.9920   36.6870 H   0  0  0  0  0  0  0  0  0  0  0  0
   33.3200   28.3090   36.0380 H   0  0  0  0  0  0  0  0  0  0  0  0
   37.8260   29.0860   39.8780 O   0  0  0  0  0  0  0  0  0  0  0  0
   37.6360   28.5500   41.1420 C   0  0  0  0  0  0  0  0  0  0  0  0
   37.7240   29.3020   42.2940 C   0  0  0  0  0  0  0  0  0  0  0  0
   37.9480   30.3410   42.2080 H   0  0  0  0  0  0  0  0  0  0  0  0
   37.5130   28.6440   43.4780 C   0  0  0  0  0  3  0  0  0  0  0  0
   37.2230   27.2960   43.5930 C   0  0  0  0  0  3  0  0  0  0  0  0
   37.1470   26.5800   42.3950 C   0  0  0  0  0  0  0  0  0  0  0  0
   36.8610   25.2330   42.4370 C   0  0  0  0  0  3  0  0  0  0  0  0
   36.7640   24.4380   41.2930 C   0  0  0  0  0  3  0  0  0  0  0  0
   36.9760   25.0990   40.0990 C   0  0  0  0  0  3  0  0  0  0  0  0
   37.2640   26.4440   39.9940 C   0  0  0  0  0  3  0  0  0  0  0  0
   37.3490   27.1900   41.1700 C   0  0  0  0  0  0  0  0  0  0  0  0
  1 13  1  0  0  0  0
  1  3  1  0  0  0  0
  2  1  1  0  0  0  0
  4 10  1  0  0  0  0
  5  4  1  0  0  0  0
  5  1  1  0  0  0  0
  6  5  2  0  0  0  0
  7  8  2  0  0  0  0
  7  6  1  0  0  0  0
  8  9  1  0  0  0  0
  9  4  2  0  0  0  0
 11  6  1  0  0  0  0
 12  8  1  0  0  0  0
 13 14  1  0  0  0  0
 14 24  2  0  0  0  0
 14 15  1  0  0  0  0
 15 17  2  0  0  0  0
 16 15  1  0  0  0  0
 17 18  1  0  0  0  0
 19 20  1  0  0  0  0
 19 18  2  0  0  0  0
 21 20  2  0  0  0  0
 22 21  1  0  0  0  0
 23 22  2  0  0  0  0
 23 24  1  0  0  0  0
 24 19  1  0  0  0  0
M  END
>  <minimizedAffinity>
-4.85372448

$$$$

 OpenBabel03252504283D

 24 26  0  0  0  0  0  0  0  0999 V2000
   38.4380   28.3930   43.3690 C   0  0  0  0  0  0  0  0  0  0  0  0
   37.3510   28.5770   43.3420 H   0  0  0  0  0  0  0  0  0  0  0  0
   38.7410   28.6190   44.4290 H   0  0  0  0  0  0  0  0  0  0  0  0
   37.8490   26.3020   42.3090 C   0  0  0  0  0  0  0  0  0  0  0  0
   38.7430   26.9670   43.1480 C   0  0  0  0  0  0  0  0  0  0  0  0
   39.8010   26.2530   43.6800 C   0  0  0  0  0  0  0  0  0  0  0  0
   39.8880   24.9460   43.3410 N   0  0  0  0  0  0  0  0  0  0  0  0
   39.0160   24.3300   42.5330 C   0  0  0  0  0  0  0  0  0  0  0  0
   37.9450   24.9920   41.9750 N   0  0  0  0  0  0  0  0  0  0  0  0
   36.9870   26.7950   41.8480 H   0  0  0  0  0  0  0  0  0  0  0  0
   40.4580   26.7940   44.3130 H   0  0  0  0  0  0  0  0  0  0  0  0
   39.1750   23.2700   42.3180 H   0  0  0  0  0  0  0  0  0  0  0  0
   39.0610   29.2390   42.4540 O   0  0  0  0  0  0  0  0  0  0  0  0
   38.2940   30.1400   41.7300 C   0  0  0  0  0  0  0  0  0  0  0  0
   36.9420   29.9740   41.5240 C   0  0  0  0  0  0  0  0  0  0  0  0
   36.4640   29.1150   41.9410 H   0  0  0  0  0  0  0  0  0  0  0  0
   36.3060   30.9410   40.7890 C   0  0  0  0  0  3  0  0  0  0  0  0
   36.9220   32.0550   40.2480 C   0  0  0  0  0  3  0  0  0  0  0  0
   38.2940   32.1740   40.4860 C   0  0  0  0  0  0  0  0  0  0  0  0
   38.9700   33.2600   39.9750 C   0  0  0  0  0  3  0  0  0  0  0  0
   40.3400   33.4630   40.1610 C   0  0  0  0  0  3  0  0  0  0  0  0
   40.9810   32.4900   40.9010 C   0  0  0  0  0  3  0  0  0  0  0  0
   40.3590   31.3820   41.4390 C   0  0  0  0  0  3  0  0  0  0  0  0
   38.9890   31.2310   41.2200 C   0  0  0  0  0  0  0  0  0  0  0  0
  1  3  1  0  0  0  0
  2  1  1  0  0  0  0
  4  5  1  0  0  0  0
  5  1  1  0  0  0  0
  5  6  2  0  0  0  0
  6 11  1  0  0  0  0
  7  6  1  0  0  0  0
  8  7  2  0  0  0  0
  9  4  2  0  0  0  0
  9  8  1  0  0  0  0
 10  4  1  0  0  0  0
 12  8  1  0  0  0  0
 13  1  1  0  0  0  0
 14 13  1  0  0  0  0
 15 14  1  0  0  0  0
 15 16  1  0  0  0  0
 17 15  2  0  0  0  0
 18 19  2  0  0  0  0
 18 17  1  0  0  0  0
 19 24  1  0  0  0  0
 20 21  2  0  0  0  0
 20 19  1  0  0  0  0
 21 22  1  0  0  0  0
 22 23  2  0  0  0  0
 24 23  1  0  0  0  0
 24 14  2  0  0  0  0
M  END
>  <minimizedAffinity>
-4.80458307

$$$$
