
 OpenBabel03252504583D

 39 42  0  0  1  0  0  0  0  0999 V2000
   47.9690   34.0580   42.0200 N   0  0  0  0  0  0  0  0  0  0  0  0
   47.9670   35.0280   40.9910 C   0  0  0  0  0  0  0  0  0  0  0  0
   49.1180   35.8840   41.3550 C   0  0  0  0  0  0  0  0  0  0  0  0
   49.7770   35.3070   42.5950 C   0  0  0  0  0  0  0  0  0  0  0  0
   49.2420   33.8670   42.5840 C   0  0  2  0  0  0  0  0  0  0  0  0
   47.4380   35.3040   40.1170 H   0  0  0  0  0  0  0  0  0  0  0  0
   49.5280   36.7580   40.8870 H   0  0  0  0  0  0  0  0  0  0  0  0
   49.4660   35.8260   43.4980 H   0  0  0  0  0  0  0  0  0  0  0  0
   50.8630   35.2750   42.3980 H   0  0  0  0  0  0  0  0  0  0  0  0
   49.2190   33.4020   43.5650 H   0  0  0  0  0  0  0  0  0  0  0  0
   46.7940   33.4480   42.3830 C   0  0  0  0  0  0  0  0  0  0  0  0
   47.0350   32.3880   42.6570 H   0  0  0  0  0  0  0  0  0  0  0  0
   46.0600   33.3040   41.5590 H   0  0  0  0  0  0  0  0  0  0  0  0
   44.5980   35.7720   44.4110 C   0  0  0  0  0  0  0  0  0  0  0  0
   45.2980   35.2520   43.2850 C   0  0  0  0  0  0  0  0  0  0  0  0
   46.0610   34.0970   43.4500 C   0  0  0  0  0  0  0  0  0  0  0  0
   46.0850   33.5450   44.6810 N   0  0  0  0  0  0  0  0  0  0  0  0
   45.4030   34.0590   45.7630 C   0  0  0  0  0  0  0  0  0  0  0  0
   44.6680   35.1620   45.6240 N   0  0  0  0  0  0  0  0  0  0  0  0
   44.0120   36.6500   44.3030 H   0  0  0  0  0  0  0  0  0  0  0  0
   45.2530   35.7200   42.3240 H   0  0  0  0  0  0  0  0  0  0  0  0
   45.4860   33.5420   46.7160 H   0  0  0  0  0  0  0  0  0  0  0  0
   50.0020   33.1770   41.6280 O   0  0  0  0  0  0  0  0  0  0  0  0
   49.3310   31.0580   43.0880 O   0  0  0  0  0  0  0  0  0  0  0  0
   50.1670   31.5560   41.9300 P   0  0  2  0  0  0  0  0  0  0  0  0
   51.7910   31.2560   42.3260 O   0  0  0  0  0  0  0  0  0  0  0  0
   52.3070   31.3240   41.4700 H   0  0  0  0  0  0  0  0  0  0  0  0
   49.8590   30.6290   40.5230 O   0  0  0  0  0  0  0  0  0  0  0  0
   49.1110   31.0390   39.4540 C   0  0  0  0  0  0  0  0  0  0  0  0
   47.8380   31.5150   39.3990 C   0  0  0  0  0  0  0  0  0  0  0  0
   47.3460   31.5760   40.3590 H   0  0  0  0  0  0  0  0  0  0  0  0
   47.2190   31.8900   38.2280 C   0  0  0  0  0  3  0  0  0  0  0  0
   47.8940   31.7920   37.0220 C   0  0  0  0  0  3  0  0  0  0  0  0
   49.1920   31.3080   37.0550 C   0  0  0  0  0  0  0  0  0  0  0  0
   49.8060   31.2370   35.8180 C   0  0  0  0  0  3  0  0  0  0  0  0
   51.0910   30.7710   35.7520 C   0  0  0  0  0  3  0  0  0  0  0  0
   51.7200   30.3950   36.8980 C   0  0  0  0  0  3  0  0  0  0  0  0
   51.1130   30.4650   38.1350 C   0  0  0  0  0  3  0  0  0  0  0  0
   49.8040   30.9330   38.2450 C   0  0  0  0  0  0  0  0  0  0  0  0
  1 11  1  0  0  0  0
  1  5  1  0  0  0  0
  2  3  2  0  0  0  0
  2  1  1  0  0  0  0
  3  4  1  0  0  0  0
  4  8  1  0  0  0  0
  5  4  1  0  0  0  0
  5 10  1  1  0  0  0
  6  2  1  0  0  0  0
  7  3  1  0  0  0  0
  9  4  1  0  0  0  0
 11 12  1  0  0  0  0
 11 16  1  0  0  0  0
 13 11  1  0  0  0  0
 14 19  1  0  0  0  0
 15 16  1  0  0  0  0
 15 14  2  0  0  0  0
 16 17  2  0  0  0  0
 17 18  1  0  0  0  0
 18 22  1  0  0  0  0
 19 18  2  0  0  0  0
 20 14  1  0  0  0  0
 21 15  1  0  0  0  0
 23 25  1  0  0  0  0
 23  5  1  0  0  0  0
 25 26  1  0  0  0  0
 25 24  2  1  0  0  0
 27 26  1  0  0  0  0
 28 25  1  0  0  0  0
 29 28  1  0  0  0  0
 30 29  1  0  0  0  0
 30 31  1  0  0  0  0
 32 30  2  0  0  0  0
 33 34  2  0  0  0  0
 33 32  1  0  0  0  0
 34 39  1  0  0  0  0
 35 34  1  0  0  0  0
 36 35  2  0  0  0  0
 36 37  1  0  0  0  0
 37 38  2  0  0  0  0
 38 39  1  0  0  0  0
 39 29  2  0  0  0  0
M  END
>  <minimizedAffinity>
-5.27055359

>  <minimizedRMSD>
1.84314179

$$$$
