
 OpenBabel03242517563D

 45 48  0  0  0  0  0  0  0  0999 V2000
   45.4030   30.2850   47.1740 C   0  0  0  0  0  0  0  0  0  0  0  0
   46.2010   31.2960   46.7380 C   0  0  0  0  0  0  0  0  0  0  0  0
   46.4990   32.3330   47.5970 C   0  0  0  0  0  0  0  0  0  0  0  0
   46.0220   32.3900   48.8920 C   0  0  0  0  0  0  0  0  0  0  0  0
   45.2110   31.3620   49.3410 C   0  0  0  0  0  0  0  0  0  0  0  0
   44.9120   30.3180   48.4730 C   0  0  0  0  0  0  0  0  0  0  0  0
   47.1230   33.1770   47.3350 H   0  0  0  0  0  0  0  0  0  0  0  0
   46.2210   33.1680   49.6000 H   0  0  0  0  0  0  0  0  0  0  0  0
   44.7710   31.2830   50.3320 H   0  0  0  0  0  0  0  0  0  0  0  0
   44.2880   29.4830   48.7470 H   0  0  0  0  0  0  0  0  0  0  0  0
   44.9970   29.0570   46.0250 S   0  0  0  0  0  0  0  0  0  0  0  0
   44.9190   29.5980   44.6230 O   0  0  0  0  0  0  0  0  0  0  0  0
   43.5610   28.6230   46.3670 O   0  0  0  0  0  0  0  0  0  0  0  0
   45.9020   27.5930   46.1240 C   0  0  0  0  0  0  0  0  0  0  0  0
   46.8490   27.2140   45.1640 C   0  0  0  0  0  0  0  0  0  0  0  0
   47.0280   27.9400   44.3600 H   0  0  0  0  0  0  0  0  0  0  0  0
   47.5720   26.0420   45.1240 C   0  0  0  0  0  0  0  0  0  0  0  0
   47.3400   25.1380   46.1390 C   0  0  0  0  0  0  0  0  0  0  0  0
   46.4280   25.4160   47.1360 C   0  0  0  0  0  0  0  0  0  0  0  0
   46.2540   24.5030   48.1550 C   0  0  0  0  0  0  0  0  0  0  0  0
   45.3720   24.7700   49.1990 C   0  0  0  0  0  0  0  0  0  0  0  0
   44.6540   25.9730   49.2170 C   0  0  0  0  0  0  0  0  0  0  0  0
   44.8740   26.8290   48.1770 C   0  0  0  0  0  0  0  0  0  0  0  0
   45.7460   26.6160   47.1000 C   0  0  0  0  0  0  0  0  0  0  0  0
   46.7890   31.4330   45.4940 O   0  0  0  0  0  0  0  0  0  0  0  0
   45.4400   34.2380   43.8150 C   0  0  0  0  0  0  0  0  0  0  0  0
   46.5550   34.7330   43.1210 C   0  0  0  0  0  0  0  0  0  0  0  0
   47.7580   34.0940   43.2400 C   0  0  0  0  0  0  0  0  0  0  0  0
   47.7780   33.0180   44.0290 N   0  0  0  0  0  0  0  0  0  0  0  0
   46.7530   32.5410   44.6850 C   0  0  0  0  0  0  0  0  0  0  0  0
   45.5590   33.1600   44.5780 N   0  0  0  0  0  0  0  0  0  0  0  0
   44.4790   34.7450   43.7230 H   0  0  0  0  0  0  0  0  0  0  0  0
   46.3970   35.6010   42.5230 H   0  0  0  0  0  0  0  0  0  0  0  0
   48.9730   34.5350   42.5490 C   0  0  0  0  0  0  0  0  0  0  0  0
   49.7540   34.7860   43.2910 H   0  0  0  0  0  0  0  0  0  0  0  0
   49.3700   33.6940   41.9410 H   0  0  0  0  0  0  0  0  0  0  0  0
   48.7590   35.6930   41.6210 C   0  0  0  0  0  0  0  0  0  0  0  0
   48.0300   36.4320   41.9080 H   0  0  0  0  0  0  0  0  0  0  0  0
   49.7430   36.2590   41.6410 H   0  0  0  0  0  0  0  0  0  0  0  0
   48.6090   35.3010   40.2160 C   0  0  0  0  0  0  0  0  0  0  0  0
   48.0860   34.3550   39.4500 C   0  0  0  0  0  0  0  0  0  0  0  0
   48.2420   34.2260   37.9440 C   0  0  0  0  0  0  0  0  0  0  0  0
   48.6870   33.2520   37.6760 H   0  0  0  0  0  0  0  0  0  0  0  0
   47.2480   34.4090   37.5070 H   0  0  0  0  0  0  0  0  0  0  0  0
   48.9850   35.0040   37.6600 H   0  0  0  0  0  0  0  0  0  0  0  0
  1  6  1  0  0  0  0
  2  1  2  0  0  0  0
  2  3  1  0  0  0  0
  3  4  2  0  0  0  0
  4  5  1  0  0  0  0
  4  8  1  0  0  0  0
  5  9  1  0  0  0  0
  6 10  1  0  0  0  0
  6  5  2  0  0  0  0
  7  3  1  0  0  0  0
 11 14  1  0  0  0  0
 11 13  2  0  0  0  0
 11  1  1  0  0  0  0
 12 11  2  0  0  0  0
 14 24  1  0  0  0  0
 15 14  2  0  0  0  0
 16 15  1  0  0  0  0
 17 15  1  0  0  0  0
 17 18  2  0  0  0  0
 18 19  1  0  0  0  0
 19 20  1  0  0  0  0
 20 21  2  0  0  0  0
 21 22  1  0  0  0  0
 23 22  2  0  0  0  0
 24 19  2  0  0  0  0
 24 23  1  0  0  0  0
 25  2  1  0  0  0  0
 26 31  1  0  0  0  0
 27 28  1  0  0  0  0
 27 26  2  0  0  0  0
 28 29  2  0  0  0  0
 29 30  1  0  0  0  0
 30 25  1  0  0  0  0
 31 30  2  0  0  0  0
 32 26  1  0  0  0  0
 33 27  1  0  0  0  0
 34 28  1  0  0  0  0
 34 35  1  0  0  0  0
 36 34  1  0  0  0  0
 37 39  1  0  0  0  0
 37 38  1  0  0  0  0
 37 34  1  0  0  0  0
 40 37  1  0  0  0  0
 41 40  2  0  0  0  0
 42 41  1  0  0  0  0
 43 42  1  0  0  0  0
 44 42  1  0  0  0  0
 45 42  1  0  0  0  0
M  END
>  <minimizedAffinity>
-6.27421188

>  <minimizedRMSD>
3.22204328

$$$$
