
 OpenBabel03252503093D

 29 32  0  0  0  0  0  0  0  0999 V2000
   45.3770   36.1040   43.3180 C   0  0  0  0  0  0  0  0  0  0  0  0
   45.9670   34.8370   43.0820 C   0  0  0  0  0  0  0  0  0  0  0  0
   45.8210   33.9130   44.0670 C   0  0  0  0  0  0  0  0  0  0  0  0
   45.1490   34.1770   45.2180 N   0  0  0  0  0  0  0  0  0  0  0  0
   44.5920   35.4160   45.4040 C   0  0  0  0  0  0  0  0  0  0  0  0
   44.7040   36.3670   44.4740 N   0  0  0  0  0  0  0  0  0  0  0  0
   45.4300   36.9120   42.6100 H   0  0  0  0  0  0  0  0  0  0  0  0
   44.0830   35.5370   46.3240 H   0  0  0  0  0  0  0  0  0  0  0  0
   46.3940   32.6560   43.9070 C   0  0  0  0  0  0  0  0  0  0  0  0
   47.6600   32.1760   44.1390 C   0  0  0  0  0  0  0  0  0  0  0  0
   47.9780   30.9070   43.9120 C   0  0  0  0  0  0  0  0  0  0  0  0
   46.9530   30.0600   43.4130 C   0  0  0  0  0  0  0  0  0  0  0  0
   45.4620   31.2110   43.2840 S   0  0  0  0  0  0  0  0  0  0  0  0
   48.5660   32.5270   44.4290 H   0  0  0  0  0  0  0  0  0  0  0  0
   48.7170   30.1410   43.9290 H   0  0  0  0  0  0  0  0  0  0  0  0
   46.5960   29.0680   43.0670 H   0  0  0  0  0  0  0  0  0  0  0  0
   46.5840   34.6730   41.8370 C   0  0  0  0  0  0  0  0  0  0  0  0
   47.7290   35.2160   41.6690 O   0  0  0  0  0  0  0  0  0  0  0  0
   46.5440   34.1480   40.4990 C   0  0  0  0  0  0  0  0  0  0  0  0
   47.8350   34.3080   39.9670 C   0  0  0  0  0  0  0  0  0  0  0  0
   48.7380   34.7350   40.4090 H   0  0  0  0  0  0  0  0  0  0  0  0
   48.1720   33.9000   38.6720 C   0  0  0  0  0  3  0  0  0  0  0  0
   47.1850   33.3110   37.8750 C   0  0  0  0  0  3  0  0  0  0  0  0
   45.9300   33.1660   38.4170 C   0  0  0  0  0  0  0  0  0  0  0  0
   44.8640   32.6000   37.7490 C   0  0  0  0  0  3  0  0  0  0  0  0
   43.5990   32.4420   38.2750 C   0  0  0  0  0  3  0  0  0  0  0  0
   43.3540   32.8810   39.5810 C   0  0  0  0  0  3  0  0  0  0  0  0
   44.3840   33.4510   40.2880 C   0  0  0  0  0  3  0  0  0  0  0  0
   45.6200   33.5750   39.6980 C   0  0  0  0  0  0  0  0  0  0  0  0
  1  6  1  0  0  0  0
  2  1  2  0  0  0  0
  2  3  1  0  0  0  0
  3  4  2  0  0  0  0
  4  5  1  0  0  0  0
  5  8  1  0  0  0  0
  6  5  2  0  0  0  0
  7  1  1  0  0  0  0
  9  3  1  0  0  0  0
  9 10  2  0  0  0  0
 10 14  1  0  0  0  0
 11 15  1  0  0  0  0
 11 10  1  0  0  0  0
 12 11  2  0  0  0  0
 13 12  1  0  0  0  0
 13  9  1  0  0  0  0
 16 12  1  0  0  0  0
 17  2  1  0  0  0  0
 18 17  2  0  0  0  0
 19 17  1  0  0  0  0
 20 21  1  0  0  0  0
 20 19  1  0  0  0  0
 22 20  2  0  0  0  0
 23 24  2  0  0  0  0
 23 22  1  0  0  0  0
 24 29  1  0  0  0  0
 25 26  2  0  0  0  0
 25 24  1  0  0  0  0
 26 27  1  0  0  0  0
 27 28  2  0  0  0  0
 29 28  1  0  0  0  0
 29 19  2  0  0  0  0
M  END
>  <minimizedAffinity>
-5.32132053

>  <minimizedRMSD>
1.03584182

$$$$
