
 OpenBabel03252503093D

 29 32  0  0  0  0  0  0  0  0999 V2000
   45.3360   36.0580   43.3520 C   0  0  0  0  0  0  0  0  0  0  0  0
   46.0750   34.8630   43.1650 C   0  0  0  0  0  0  0  0  0  0  0  0
   46.0300   33.9620   44.1800 C   0  0  0  0  0  0  0  0  0  0  0  0
   45.3190   34.1830   45.3170 N   0  0  0  0  0  0  0  0  0  0  0  0
   44.6160   35.3520   45.4560 C   0  0  0  0  0  0  0  0  0  0  0  0
   44.6230   36.2770   44.4930 N   0  0  0  0  0  0  0  0  0  0  0  0
   45.3000   36.8430   42.6170 H   0  0  0  0  0  0  0  0  0  0  0  0
   44.0860   35.4420   46.3670 H   0  0  0  0  0  0  0  0  0  0  0  0
   46.7510   32.7790   44.0670 C   0  0  0  0  0  0  0  0  0  0  0  0
   47.3900   32.1770   43.0100 C   0  0  0  0  0  0  0  0  0  0  0  0
   48.0340   31.0240   43.1480 C   0  0  0  0  0  0  0  0  0  0  0  0
   48.0340   30.4310   44.4380 C   0  0  0  0  0  0  0  0  0  0  0  0
   47.0340   31.6490   45.4780 S   0  0  0  0  0  0  0  0  0  0  0  0
   47.5170   32.3230   42.0160 H   0  0  0  0  0  0  0  0  0  0  0  0
   48.6130   30.2510   42.7010 H   0  0  0  0  0  0  0  0  0  0  0  0
   48.3270   29.6170   45.1330 H   0  0  0  0  0  0  0  0  0  0  0  0
   46.7210   34.7320   41.9300 C   0  0  0  0  0  0  0  0  0  0  0  0
   47.8620   35.2930   41.7980 O   0  0  0  0  0  0  0  0  0  0  0  0
   46.7160   34.2350   40.5810 C   0  0  0  0  0  0  0  0  0  0  0  0
   48.0010   34.4710   40.0620 C   0  0  0  0  0  0  0  0  0  0  0  0
   48.8780   34.9350   40.5190 H   0  0  0  0  0  0  0  0  0  0  0  0
   48.3660   34.1080   38.7610 C   0  0  0  0  0  3  0  0  0  0  0  0
   47.4160   33.4880   37.9450 C   0  0  0  0  0  3  0  0  0  0  0  0
   46.1660   33.2670   38.4740 C   0  0  0  0  0  0  0  0  0  0  0  0
   45.1350   32.6640   37.7870 C   0  0  0  0  0  3  0  0  0  0  0  0
   43.8760   32.4310   38.2990 C   0  0  0  0  0  3  0  0  0  0  0  0
   43.6010   32.8280   39.6120 C   0  0  0  0  0  3  0  0  0  0  0  0
   44.5950   33.4350   40.3380 C   0  0  0  0  0  3  0  0  0  0  0  0
   45.8270   33.6330   39.7610 C   0  0  0  0  0  0  0  0  0  0  0  0
  1  6  1  0  0  0  0
  2  1  2  0  0  0  0
  2  3  1  0  0  0  0
  3  4  2  0  0  0  0
  4  5  1  0  0  0  0
  5  8  1  0  0  0  0
  6  5  2  0  0  0  0
  7  1  1  0  0  0  0
  9  3  1  0  0  0  0
  9 13  1  0  0  0  0
 10 11  1  0  0  0  0
 10  9  2  0  0  0  0
 11 12  2  0  0  0  0
 12 16  1  0  0  0  0
 12 13  1  0  0  0  0
 14 10  1  0  0  0  0
 15 11  1  0  0  0  0
 17  2  1  0  0  0  0
 18 17  2  0  0  0  0
 19 17  1  0  0  0  0
 20 21  1  0  0  0  0
 20 19  1  0  0  0  0
 22 20  2  0  0  0  0
 23 24  2  0  0  0  0
 23 22  1  0  0  0  0
 24 29  1  0  0  0  0
 25 26  2  0  0  0  0
 25 24  1  0  0  0  0
 26 27  1  0  0  0  0
 27 28  2  0  0  0  0
 29 28  1  0  0  0  0
 29 19  2  0  0  0  0
M  END
>  <minimizedAffinity>
-5.6201849

>  <minimizedRMSD>
0.919789493

$$$$
