
 OpenBabel03252508003D

 31 34  0  0  1  0  0  0  0  0999 V2000
   46.8930   34.7810   43.0270 C   0  0  0  0  0  0  0  0  0  0  0  0
   45.7400   35.6240   43.0370 C   0  0  0  0  0  0  0  0  0  0  0  0
   44.7830   35.3310   44.0030 C   0  0  0  0  0  0  0  0  0  0  0  0
   44.9940   34.2960   44.8500 N   0  0  0  0  0  0  0  0  0  0  0  0
   46.1300   33.5260   44.7800 C   0  0  0  0  0  0  0  0  0  0  0  0
   47.0750   33.7510   43.8890 N   0  0  0  0  0  0  0  0  0  0  0  0
   45.6610   36.4270   42.3190 H   0  0  0  0  0  0  0  0  0  0  0  0
   43.8920   35.9420   44.0490 H   0  0  0  0  0  0  0  0  0  0  0  0
   46.2910   32.4130   45.7620 C   0  0  1  0  0  0  0  0  0  0  0  0
   47.0290   32.6760   47.0550 C   0  0  0  0  0  0  0  0  0  0  0  0
   45.5270   32.5920   47.0160 C   0  0  1  0  0  0  0  0  0  0  0  0
   46.3560   31.3960   45.3330 H   0  0  0  0  0  0  0  0  0  0  0  0
   47.5380   33.6480   47.0940 H   0  0  0  0  0  0  0  0  0  0  0  0
   47.5500   31.7920   47.4680 H   0  0  0  0  0  0  0  0  0  0  0  0
   45.0660   31.7270   47.5530 H   0  0  0  0  0  0  0  0  0  0  0  0
   44.8980   33.8600   47.3080 N   0  0  0  0  0  0  0  0  0  0  0  0
   43.9230   33.9620   47.0660 H   0  0  0  0  0  0  0  0  0  0  0  0
   45.5030   34.6610   47.4230 H   0  0  0  0  0  0  0  0  0  0  0  0
   47.8850   35.1060   42.0230 C   0  0  0  0  0  0  0  0  0  0  0  0
   48.5890   36.1750   42.0590 O   0  0  0  0  0  0  0  0  0  0  0  0
   47.9260   34.0440   41.0230 C   0  0  0  0  0  0  0  0  0  0  0  0
   46.9140   33.8520   40.0970 C   0  0  0  0  0  0  0  0  0  0  0  0
   46.0570   34.5250   40.1160 H   0  0  0  0  0  0  0  0  0  0  0  0
   46.9030   32.8620   39.1370 C   0  0  0  0  0  3  0  0  0  0  0  0
   47.9560   31.9920   39.0740 C   0  0  0  0  0  3  0  0  0  0  0  0
   49.0010   32.1240   39.9650 C   0  0  0  0  0  0  0  0  0  0  0  0
   50.0920   31.2510   39.9240 C   0  0  0  0  0  3  0  0  0  0  0  0
   51.1430   31.3600   40.7940 C   0  0  0  0  0  3  0  0  0  0  0  0
   51.1250   32.3740   41.7550 C   0  0  0  0  0  3  0  0  0  0  0  0
   50.0270   33.2160   41.7620 C   0  0  0  0  0  3  0  0  0  0  0  0
   48.9550   33.1350   40.9010 C   0  0  0  0  0  0  0  0  0  0  0  0
  1  2  2  0  0  0  0
  1  6  1  0  0  0  0
  2  3  1  0  0  0  0
  3  8  1  0  0  0  0
  3  4  2  0  0  0  0
  5  4  1  0  0  0  0
  5  9  1  0  0  0  0
  6  5  2  0  0  0  0
  7  2  1  0  0  0  0
  9 12  1  6  0  0  0
  9 11  1  0  0  0  0
  9 10  1  0  0  0  0
 10 13  1  0  0  0  0
 10 14  1  0  0  0  0
 11 10  1  0  0  0  0
 11 16  1  0  0  0  0
 11 15  1  1  0  0  0
 16 18  1  0  0  0  0
 17 16  1  0  0  0  0
 19 20  2  0  0  0  0
 19  1  1  0  0  0  0
 21 19  1  0  0  0  0
 22 23  1  0  0  0  0
 22 21  2  0  0  0  0
 24 22  1  0  0  0  0
 25 24  2  0  0  0  0
 25 26  1  0  0  0  0
 26 31  1  0  0  0  0
 27 26  2  0  0  0  0
 27 28  1  0  0  0  0
 28 29  2  0  0  0  0
 29 30  1  0  0  0  0
 31 21  1  0  0  0  0
 31 30  2  0  0  0  0
M  END
>  <minimizedAffinity>
-5.81342983

>  <minimizedRMSD>
3.08482218

$$$$
