
 OpenBabel03242521083D

 42 46  0  0  1  0  0  0  0  0999 V2000
   45.7380   31.9600   38.5290 C   0  0  2  0  0  0  0  0  0  0  0  0
   46.5890   30.9270   37.8930 C   0  0  0  0  0  0  0  0  0  0  0  0
   45.8550   32.0020   37.0840 C   0  0  1  0  0  0  0  0  0  0  0  0
   44.7390   31.5830   38.9110 H   0  0  0  0  0  0  0  0  0  0  0  0
   46.1810   29.9070   37.7590 H   0  0  0  0  0  0  0  0  0  0  0  0
   47.6650   30.9720   38.0440 H   0  0  0  0  0  0  0  0  0  0  0  0
   46.6260   32.6040   36.5660 H   0  0  0  0  0  0  0  0  0  0  0  0
   46.4260   34.2420   41.3380 C   0  0  0  0  0  0  0  0  0  0  0  0
   47.5930   34.8050   40.8320 C   0  0  0  0  0  0  0  0  0  0  0  0
   48.1710   34.4790   39.6250 C   0  0  0  0  0  0  0  0  0  0  0  0
   47.5470   33.5180   38.8530 C   0  0  0  0  0  0  0  0  0  0  0  0
   46.4000   32.9780   39.3680 C   0  0  0  0  0  0  0  0  0  0  0  0
   45.8830   33.3250   40.5350 N   0  0  0  0  0  0  0  0  0  0  0  0
   48.1050   35.5650   41.4220 H   0  0  0  0  0  0  0  0  0  0  0  0
   49.0760   34.9430   39.2780 H   0  0  0  0  0  0  0  0  0  0  0  0
   47.9870   33.2500   37.9020 H   0  0  0  0  0  0  0  0  0  0  0  0
   44.7070   36.0080   44.1850 C   0  0  0  0  0  0  0  0  0  0  0  0
   45.1930   35.8110   42.8750 C   0  0  0  0  0  0  0  0  0  0  0  0
   45.8560   34.6220   42.6290 C   0  0  0  0  0  0  0  0  0  0  0  0
   46.0060   33.7230   43.6280 N   0  0  0  0  0  0  0  0  0  0  0  0
   45.5180   33.9580   44.8820 C   0  0  0  0  0  0  0  0  0  0  0  0
   44.8790   35.0970   45.1340 N   0  0  0  0  0  0  0  0  0  0  0  0
   44.2010   36.9650   44.2930 H   0  0  0  0  0  0  0  0  0  0  0  0
   45.0920   36.5060   42.0520 H   0  0  0  0  0  0  0  0  0  0  0  0
   45.6740   33.2030   45.6220 H   0  0  0  0  0  0  0  0  0  0  0  0
   44.8100   31.5340   36.2690 O   0  0  0  0  0  0  0  0  0  0  0  0
   44.1720   30.6200   33.9740 O   0  0  0  0  0  0  0  0  0  0  0  0
   45.2090   31.5400   34.6260 P   0  0  1  0  0  0  0  0  0  0  0  0
   44.9680   33.0690   33.9760 O   0  0  0  0  0  0  0  0  0  0  0  0
   45.8110   33.4960   33.6810 H   0  0  0  0  0  0  0  0  0  0  0  0
   46.7040   30.8860   34.2730 O   0  0  0  0  0  0  0  0  0  0  0  0
   47.1460   30.3840   33.0720 C   0  0  0  0  0  0  0  0  0  0  0  0
   46.9440   29.1920   32.4160 C   0  0  0  0  0  0  0  0  0  0  0  0
   46.3060   28.5220   32.9720 H   0  0  0  0  0  0  0  0  0  0  0  0
   47.5020   28.9040   31.1910 C   0  0  0  0  0  0  0  0  0  0  0  0
   48.3070   29.8110   30.5440 C   0  0  0  0  0  0  0  0  0  0  0  0
   48.5300   31.0210   31.1810 C   0  0  0  0  0  0  0  0  0  0  0  0
   49.3460   31.8870   30.4810 C   0  0  0  0  0  0  0  0  0  0  0  0
   49.6240   33.1180   31.0350 C   0  0  0  0  0  0  0  0  0  0  0  0
   49.0940   33.4570   32.2540 C   0  0  0  0  0  0  0  0  0  0  0  0
   48.2960   32.5650   32.8980 C   0  0  0  0  0  0  0  0  0  0  0  0
   47.9620   31.3120   32.4240 C   0  0  0  0  0  0  0  0  0  0  0  0
  1  4  1  1  0  0  0
  1 12  1  0  0  0  0
  2  6  1  0  0  0  0
  2  1  1  0  0  0  0
  3  7  1  6  0  0  0
  3  2  1  0  0  0  0
  3  1  1  0  0  0  0
  5  2  1  0  0  0  0
  8 19  1  0  0  0  0
  9  8  1  0  0  0  0
  9 14  1  0  0  0  0
 10  9  2  0  0  0  0
 11 12  2  0  0  0  0
 11 10  1  0  0  0  0
 12 13  1  0  0  0  0
 13  8  2  0  0  0  0
 15 10  1  0  0  0  0
 16 11  1  0  0  0  0
 17 23  1  0  0  0  0
 17 22  1  0  0  0  0
 18 17  2  0  0  0  0
 19 18  1  0  0  0  0
 19 20  2  0  0  0  0
 20 21  1  0  0  0  0
 21 22  2  0  0  0  0
 21 25  1  0  0  0  0
 24 18  1  0  0  0  0
 26  3  1  0  0  0  0
 28 27  2  6  0  0  0
 28 26  1  0  0  0  0
 29 28  1  0  0  0  0
 30 29  1  0  0  0  0
 31 28  1  0  0  0  0
 32 31  1  0  0  0  0
 33 34  1  0  0  0  0
 33 32  2  0  0  0  0
 35 33  1  0  0  0  0
 36 37  1  0  0  0  0
 36 35  2  0  0  0  0
 37 42  1  0  0  0  0
 38 39  1  0  0  0  0
 38 37  2  0  0  0  0
 39 40  2  0  0  0  0
 40 41  1  0  0  0  0
 42 41  2  0  0  0  0
 42 32  1  0  0  0  0
M  END
>  <minimizedAffinity>
-7.44512224

>  <minimizedRMSD>
2.55529356

$$$$
