
 OpenBabel03242516523D

 47 51  0  0  1  0  0  0  0  0999 V2000
   47.7340   32.6900   41.6030 C   0  0  1  0  0  0  0  0  0  0  0  0
   47.3430   32.1600   40.2930 C   0  0  0  0  0  0  0  0  0  0  0  0
   48.3510   32.7080   39.2850 C   0  0  0  0  0  0  0  0  0  0  0  0
   48.0730   34.1940   39.1620 C   0  0  0  0  0  0  0  0  0  0  0  0
   48.0830   34.9230   40.4770 C   0  0  0  0  0  0  0  0  0  0  0  0
   47.5970   34.2140   41.6660 C   0  0  1  0  0  0  0  0  0  0  0  0
   48.8500   32.5450   41.7300 H   0  0  0  0  0  0  0  0  0  0  0  0
   47.4640   31.0540   40.2970 H   0  0  0  0  0  0  0  0  0  0  0  0
   46.3340   32.4390   39.9520 H   0  0  0  0  0  0  0  0  0  0  0  0
   48.2160   32.2700   38.2930 H   0  0  0  0  0  0  0  0  0  0  0  0
   49.3710   32.5710   39.7050 H   0  0  0  0  0  0  0  0  0  0  0  0
   47.0520   34.3180   38.7270 H   0  0  0  0  0  0  0  0  0  0  0  0
   48.8400   34.6180   38.4880 H   0  0  0  0  0  0  0  0  0  0  0  0
   49.1350   35.2890   40.6250 H   0  0  0  0  0  0  0  0  0  0  0  0
   47.4750   35.8540   40.3290 H   0  0  0  0  0  0  0  0  0  0  0  0
   48.2380   34.5150   42.5470 H   0  0  0  0  0  0  0  0  0  0  0  0
   45.2180   30.7940   43.7000 C   0  0  0  0  0  0  0  0  0  0  0  0
   45.8920   31.3890   42.6300 C   0  0  0  0  0  0  0  0  0  0  0  0
   47.0940   32.0920   42.7560 C   0  0  0  0  0  0  0  0  0  0  0  0
   47.5880   32.1750   43.9990 N   0  0  0  0  0  0  0  0  0  0  0  0
   46.9430   31.6010   45.0530 C   0  0  0  0  0  0  0  0  0  0  0  0
   45.8010   30.9350   44.9210 N   0  0  0  0  0  0  0  0  0  0  0  0
   44.3000   30.2760   43.4930 H   0  0  0  0  0  0  0  0  0  0  0  0
   45.4780   31.3120   41.6330 H   0  0  0  0  0  0  0  0  0  0  0  0
   47.3230   31.6550   46.0640 H   0  0  0  0  0  0  0  0  0  0  0  0
   46.2450   34.6200   42.0510 C   0  0  0  0  0  0  0  0  0  0  0  0
   45.8410   35.0540   43.3140 C   0  0  0  0  0  0  0  0  0  0  0  0
   44.5000   35.4070   43.4450 C   0  0  0  0  0  0  0  0  0  0  0  0
   43.6890   35.3020   42.3340 C   0  0  0  0  0  0  0  0  0  0  0  0
   44.1060   34.8690   41.0850 C   0  0  0  0  0  0  0  0  0  0  0  0
   45.4160   34.5280   40.9750 N   0  0  0  0  0  0  0  0  0  0  0  0
   46.5830   35.0780   44.0630 H   0  0  0  0  0  0  0  0  0  0  0  0
   44.1760   35.7390   44.3990 H   0  0  0  0  0  0  0  0  0  0  0  0
   42.6460   35.5810   42.4520 H   0  0  0  0  0  0  0  0  0  0  0  0
   43.1650   34.7920   39.9750 C   0  0  0  0  0  0  0  0  0  0  0  0
   42.7570   35.8540   39.4620 O   0  0  0  0  0  0  0  0  0  0  0  0
   42.5400   33.6870   39.2710 C   0  0  0  0  0  0  0  0  0  0  0  0
   43.2440   32.6960   38.6230 C   0  0  0  0  0  0  0  0  0  0  0  0
   44.3120   32.7000   38.6380 H   0  0  0  0  0  0  0  0  0  0  0  0
   42.6920   31.6510   37.9100 C   0  0  0  0  0  3  0  0  0  0  0  0
   41.3170   31.5840   37.8320 C   0  0  0  0  0  3  0  0  0  0  0  0
   40.5480   32.5420   38.4570 C   0  0  0  0  0  0  0  0  0  0  0  0
   39.1960   32.4180   38.3500 C   0  0  0  0  0  3  0  0  0  0  0  0
   38.3610   33.3340   38.9570 C   0  0  0  0  0  3  0  0  0  0  0  0
   38.9440   34.3820   39.6760 C   0  0  0  0  0  3  0  0  0  0  0  0
   40.3150   34.4510   39.7430 C   0  0  0  0  0  3  0  0  0  0  0  0
   41.1730   33.5560   39.1500 C   0  0  0  0  0  0  0  0  0  0  0  0
  1  6  1  0  0  0  0
  1  7  1  1  0  0  0
  1 19  1  0  0  0  0
  2  8  1  0  0  0  0
  2  1  1  0  0  0  0
  3 11  1  0  0  0  0
  3  2  1  0  0  0  0
  4  3  1  0  0  0  0
  4  5  1  0  0  0  0
  5 14  1  0  0  0  0
  5  6  1  0  0  0  0
  6 26  1  0  0  0  0
  6 16  1  1  0  0  0
  9  2  1  0  0  0  0
 10  3  1  0  0  0  0
 12  4  1  0  0  0  0
 13  4  1  0  0  0  0
 15  5  1  0  0  0  0
 17 22  1  0  0  0  0
 18 19  1  0  0  0  0
 18 17  2  0  0  0  0
 19 20  2  0  0  0  0
 20 21  1  0  0  0  0
 21 25  1  0  0  0  0
 22 21  2  0  0  0  0
 23 17  1  0  0  0  0
 24 18  1  0  0  0  0
 26 27  1  0  0  0  0
 27 28  2  0  0  0  0
 27 32  1  0  0  0  0
 28 33  1  0  0  0  0
 29 34  1  0  0  0  0
 29 28  1  0  0  0  0
 30 29  2  0  0  0  0
 31 30  1  0  0  0  0
 31 26  2  0  0  0  0
 35 30  1  0  0  0  0
 36 35  2  0  0  0  0
 37 35  1  0  0  0  0
 38 39  1  0  0  0  0
 38 37  2  0  0  0  0
 40 38  1  0  0  0  0
 41 40  2  0  0  0  0
 41 42  1  0  0  0  0
 42 47  1  0  0  0  0
 43 42  2  0  0  0  0
 43 44  1  0  0  0  0
 44 45  2  0  0  0  0
 45 46  1  0  0  0  0
 47 37  1  0  0  0  0
 47 46  2  0  0  0  0
M  END
>  <minimizedAffinity>
-6.56950092

>  <minimizedRMSD>
1.26061428

$$$$
