
 OpenBabel03252509273D

 32 35  0  0  1  0  0  0  0  0999 V2000
   46.9750   34.7770   41.9470 C   0  0  1  0  0  0  0  0  0  0  0  0
   48.2860   35.5590   42.0270 C   0  0  0  0  0  0  0  0  0  0  0  0
   48.1530   34.0260   41.7550 C   0  0  2  0  0  0  0  0  0  0  0  0
   46.3300   35.1350   41.1470 H   0  0  0  0  0  0  0  0  0  0  0  0
   48.5950   36.1470   41.1300 H   0  0  0  0  0  0  0  0  0  0  0  0
   48.6630   35.8940   42.9870 H   0  0  0  0  0  0  0  0  0  0  0  0
   48.6510   33.4720   42.6150 H   0  0  0  0  0  0  0  0  0  0  0  0
   44.6630   35.4350   44.8190 C   0  0  0  0  0  0  0  0  0  0  0  0
   45.2880   35.5910   43.5510 C   0  0  0  0  0  0  0  0  0  0  0  0
   46.3020   34.7120   43.2990 C   0  0  0  0  0  0  0  0  0  0  0  0
   46.6790   33.7560   44.2150 N   0  0  0  0  0  0  0  0  0  0  0  0
   46.0620   33.6450   45.4000 C   0  0  0  0  0  0  0  0  0  0  0  0
   45.0440   34.4940   45.7050 N   0  0  0  0  0  0  0  0  0  0  0  0
   43.8460   36.0820   45.1030 H   0  0  0  0  0  0  0  0  0  0  0  0
   46.3730   32.8880   46.1110 H   0  0  0  0  0  0  0  0  0  0  0  0
   44.8970   36.5920   42.6450 N   0  0  0  0  0  0  0  0  0  0  0  0
   45.6960   37.2650   42.5590 H   0  0  0  0  0  0  0  0  0  0  0  0
   43.9530   36.6380   42.1480 H   0  0  0  0  0  0  0  0  0  0  0  0
   48.6030   33.5200   40.4100 C   0  0  0  0  0  0  0  0  0  0  0  0
   49.3160   32.6680   40.5870 H   0  0  0  0  0  0  0  0  0  0  0  0
   49.1460   34.3710   39.9750 H   0  0  0  0  0  0  0  0  0  0  0  0
   47.4950   32.9960   39.6100 C   0  0  0  0  0  0  0  0  0  0  0  0
   47.2650   33.7020   38.4200 C   0  0  0  0  0  0  0  0  0  0  0  0
   47.7720   34.6230   38.1510 H   0  0  0  0  0  0  0  0  0  0  0  0
   46.3450   33.2320   37.4910 C   0  0  0  0  0  3  0  0  0  0  0  0
   45.6200   32.0730   37.6800 C   0  0  0  0  0  3  0  0  0  0  0  0
   45.8310   31.3850   38.8320 C   0  0  0  0  0  0  0  0  0  0  0  0
   45.0910   30.2340   39.0990 C   0  0  0  0  0  3  0  0  0  0  0  0
   45.3020   29.5930   40.3030 C   0  0  0  0  0  3  0  0  0  0  0  0
   46.2170   30.0630   41.2250 C   0  0  0  0  0  3  0  0  0  0  0  0
   46.9380   31.2020   40.9340 C   0  0  0  0  0  3  0  0  0  0  0  0
   46.7290   31.8560   39.7190 C   0  0  0  0  0  0  0  0  0  0  0  0
  1  4  1  6  0  0  0
  1  2  1  0  0  0  0
  1 10  1  0  0  0  0
  2  6  1  0  0  0  0
  3  1  1  0  0  0  0
  3  2  1  0  0  0  0
  3  7  1  1  0  0  0
  5  2  1  0  0  0  0
  8 14  1  0  0  0  0
  8 13  1  0  0  0  0
  9  8  2  0  0  0  0
 10  9  1  0  0  0  0
 10 11  2  0  0  0  0
 11 12  1  0  0  0  0
 12 13  2  0  0  0  0
 12 15  1  0  0  0  0
 16  9  1  0  0  0  0
 17 16  1  0  0  0  0
 18 16  1  0  0  0  0
 19 20  1  0  0  0  0
 19  3  1  0  0  0  0
 21 19  1  0  0  0  0
 22 32  1  0  0  0  0
 22 19  1  0  0  0  0
 23 22  2  0  0  0  0
 24 23  1  0  0  0  0
 25 26  2  0  0  0  0
 25 23  1  0  0  0  0
 26 27  1  0  0  0  0
 27 28  2  0  0  0  0
 27 32  1  0  0  0  0
 28 29  1  0  0  0  0
 29 30  2  0  0  0  0
 31 30  1  0  0  0  0
 32 31  2  0  0  0  0
M  END
>  <minimizedAffinity>
-4.54588366

>  <minimizedRMSD>
2.15871525

$$$$
