
 OpenBabel03242519413D

 31 33  0  0  0  0  0  0  0  0999 V2000
   47.9390   32.6170   41.3450 O   0  0  0  0  0  0  0  0  0  0  0  0
   46.8720   33.7380   41.2320 P   0  0  2  0  0  0  0  0  0  0  0  0
   45.4900   33.2700   42.1380 O   0  0  0  0  0  0  0  0  0  0  0  0
   44.3950   35.8260   44.4900 C   0  0  0  0  0  0  0  0  0  0  0  0
   44.6420   35.1520   43.2710 C   0  0  0  0  0  0  0  0  0  0  0  0
   45.2630   33.8960   43.3440 C   0  0  0  0  0  0  0  0  0  0  0  0
   45.5860   33.4040   44.5550 N   0  0  0  0  0  0  0  0  0  0  0  0
   45.3370   34.0720   45.7030 C   0  0  0  0  0  0  0  0  0  0  0  0
   44.7450   35.2770   45.6820 N   0  0  0  0  0  0  0  0  0  0  0  0
   43.9170   36.7940   44.4430 H   0  0  0  0  0  0  0  0  0  0  0  0
   44.3430   35.6310   42.3600 H   0  0  0  0  0  0  0  0  0  0  0  0
   45.6310   33.6050   46.6500 H   0  0  0  0  0  0  0  0  0  0  0  0
   46.4330   33.9090   39.6410 O   0  0  0  0  0  0  0  0  0  0  0  0
   45.5330   33.2120   38.9010 C   0  0  0  0  0  0  0  0  0  0  0  0
   46.0150   32.4540   37.8850 O   0  0  0  0  0  0  0  0  0  0  0  0
   44.1010   32.8810   38.7150 C   0  0  0  0  0  0  0  0  0  0  0  0
   43.7190   31.7990   37.8890 C   0  0  0  0  0  0  0  0  0  0  0  0
   44.5780   31.1760   37.5430 H   0  0  0  0  0  0  0  0  0  0  0  0
   42.4960   31.3800   37.4370 C   0  0  0  0  0  3  0  0  0  0  0  0
   41.5000   32.2010   37.9070 C   0  0  0  0  0  3  0  0  0  0  0  0
   41.7780   33.2740   38.7170 C   0  0  0  0  0  0  0  0  0  0  0  0
   40.7560   34.0570   39.2090 C   0  0  0  0  0  3  0  0  0  0  0  0
   40.8650   35.1370   40.0600 C   0  0  0  0  0  3  0  0  0  0  0  0
   42.1800   35.4360   40.4420 C   0  0  0  0  0  3  0  0  0  0  0  0
   43.2180   34.6740   39.9670 C   0  0  0  0  0  3  0  0  0  0  0  0
   43.0670   33.6130   39.1210 C   0  0  0  0  0  0  0  0  0  0  0  0
   47.5270   35.0950   41.9220 O   0  0  0  0  0  0  0  0  0  0  0  0
   48.7640   35.4210   41.3840 C   0  0  0  0  0  0  0  0  0  0  0  0
   49.1650   36.7020   41.7170 F   0  0  0  0  0  0  0  0  0  0  0  0
   49.6870   34.4770   41.7010 F   0  0  0  0  0  0  0  0  0  0  0  0
   48.5980   35.4130   40.0010 F   0  0  0  0  0  0  0  0  0  0  0  0
  2  1  2  1  0  0  0
  2 27  1  0  0  0  0
  2  3  1  0  0  0  0
  3  6  1  0  0  0  0
  4  9  1  0  0  0  0
  5  6  1  0  0  0  0
  5  4  2  0  0  0  0
  6  7  2  0  0  0  0
  7  8  1  0  0  0  0
  8 12  1  0  0  0  0
  9  8  2  0  0  0  0
 10  4  1  0  0  0  0
 11  5  1  0  0  0  0
 13  2  1  0  0  0  0
 14 13  1  0  0  0  0
 15 14  2  0  0  0  0
 16 14  1  0  0  0  0
 16 26  1  0  0  0  0
 17 16  2  0  0  0  0
 18 17  1  0  0  0  0
 19 17  1  0  0  0  0
 19 20  2  0  0  0  0
 20 21  1  0  0  0  0
 21 26  2  0  0  0  0
 21 22  1  0  0  0  0
 22 23  2  0  0  0  0
 23 24  1  0  0  0  0
 25 24  2  0  0  0  0
 26 25  1  0  0  0  0
 28 30  1  0  0  0  0
 28 29  1  0  0  0  0
 28 27  1  0  0  0  0
 31 28  1  0  0  0  0
M  END
>  <minimizedAffinity>
-6.07534313

>  <minimizedRMSD>
3.2821393

$$$$
