
 OpenBabel03252507463D

 39 42  0  0  0  0  0  0  0  0999 V2000
   48.4430   33.9190   41.3270 C   0  0  0  0  0  0  0  0  0  0  0  0
   48.8620   32.6660   40.9120 C   0  0  0  0  0  0  0  0  0  0  0  0
   50.1090   32.1770   41.2780 C   0  0  0  0  0  0  0  0  0  0  0  0
   50.8880   33.0020   42.0670 N   0  0  0  0  0  0  0  0  0  0  0  0
   50.4420   34.2150   42.4500 C   0  0  0  0  0  0  0  0  0  0  0  0
   49.2470   34.6580   42.0860 N   0  0  0  0  0  0  0  0  0  0  0  0
   50.4470   31.2000   40.9600 H   0  0  0  0  0  0  0  0  0  0  0  0
   51.1450   34.7720   43.0690 H   0  0  0  0  0  0  0  0  0  0  0  0
   47.1030   34.3490   40.8850 C   0  0  0  0  0  0  0  0  0  0  0  0
   47.1930   35.0620   40.0160 H   0  0  0  0  0  0  0  0  0  0  0  0
   46.5060   33.5090   40.5010 H   0  0  0  0  0  0  0  0  0  0  0  0
   46.2960   34.9970   41.9640 C   0  0  0  0  0  0  0  0  0  0  0  0
   46.6040   36.0370   42.0760 H   0  0  0  0  0  0  0  0  0  0  0  0
   46.5120   34.4920   42.9490 H   0  0  0  0  0  0  0  0  0  0  0  0
   44.8320   34.9470   41.7280 C   0  0  0  0  0  0  0  0  0  0  0  0
   43.9370   35.4550   42.7320 C   0  0  0  0  0  0  0  0  0  0  0  0
   42.2840   35.1680   41.9730 S   0  0  0  0  0  0  0  0  0  0  0  0
   43.0860   34.4090   40.4300 C   0  0  0  0  0  0  0  0  0  0  0  0
   44.1930   34.4860   40.6890 N   0  0  0  0  0  0  0  0  0  0  0  0
   44.2110   35.8920   43.6850 H   0  0  0  0  0  0  0  0  0  0  0  0
   42.3440   33.9360   39.3560 O   0  0  0  0  0  0  0  0  0  0  0  0
   40.4090   34.3900   37.5930 O   0  0  0  0  0  0  0  0  0  0  0  0
   41.4900   35.0890   38.4240 P   0  0  0  0  0  0  0  0  0  0  0  0
   40.7480   36.1720   39.4990 O   0  0  0  0  0  0  0  0  0  0  0  0
   39.8550   35.8170   39.7120 H   0  0  0  0  0  0  0  0  0  0  0  0
   42.5680   35.9350   37.4370 O   0  0  0  0  0  0  0  0  0  0  0  0
   42.6680   36.8780   37.6940 H   0  0  0  0  0  0  0  0  0  0  0  0
   47.8000   31.6440   39.8910 S   0  0  0  0  0  0  0  0  0  0  0  0
   47.9300   32.0390   38.1780 C   0  0  0  0  0  0  0  0  0  0  0  0
   48.7400   33.0520   37.7080 C   0  0  0  0  0  0  0  0  0  0  0  0
   49.3180   33.6260   38.4240 H   0  0  0  0  0  0  0  0  0  0  0  0
   48.8030   33.3160   36.3740 C   0  0  0  0  0  3  0  0  0  0  0  0
   48.0560   32.5720   35.4610 C   0  0  0  0  0  3  0  0  0  0  0  0
   47.2440   31.5540   35.9540 C   0  0  0  0  0  0  0  0  0  0  0  0
   46.4960   30.8080   35.0520 C   0  0  0  0  0  3  0  0  0  0  0  0
   45.6770   29.7890   35.4880 C   0  0  0  0  0  3  0  0  0  0  0  0
   45.5940   29.4980   36.8520 C   0  0  0  0  0  3  0  0  0  0  0  0
   46.3510   30.2560   37.7440 C   0  0  0  0  0  3  0  0  0  0  0  0
   47.1700   31.2730   37.3200 C   0  0  0  0  0  0  0  0  0  0  0  0
  1  6  1  0  0  0  0
  2  3  1  0  0  0  0
  2  1  2  0  0  0  0
  3  4  2  0  0  0  0
  4  5  1  0  0  0  0
  5  8  1  0  0  0  0
  6  5  2  0  0  0  0
  7  3  1  0  0  0  0
  9  1  1  0  0  0  0
  9 12  1  0  0  0  0
 10  9  1  0  0  0  0
 11  9  1  0  0  0  0
 12 13  1  0  0  0  0
 12 14  1  0  0  0  0
 15 12  1  0  0  0  0
 15 16  2  0  0  0  0
 16 20  1  0  0  0  0
 17 16  1  0  0  0  0
 18 19  2  0  0  0  0
 18 17  1  0  0  0  0
 19 15  1  0  0  0  0
 21 18  1  0  0  0  0
 22 23  2  0  0  0  0
 23 21  1  0  0  0  0
 23 24  1  0  0  0  0
 24 25  1  0  0  0  0
 26 27  1  0  0  0  0
 26 23  1  0  0  0  0
 28  2  1  0  0  0  0
 29 28  1  0  0  0  0
 30 29  1  0  0  0  0
 30 31  1  0  0  0  0
 32 30  2  0  0  0  0
 33 34  2  0  0  0  0
 33 32  1  0  0  0  0
 34 39  1  0  0  0  0
 35 36  2  0  0  0  0
 35 34  1  0  0  0  0
 36 37  1  0  0  0  0
 37 38  2  0  0  0  0
 39 38  1  0  0  0  0
 39 29  2  0  0  0  0
M  END
>  <minimizedAffinity>
-5.1923151

>  <minimizedRMSD>
0.295515984

$$$$
