
 OpenBabel03242516533D

 47 51  0  0  1  0  0  0  0  0999 V2000
   47.8260   32.8950   41.8350 C   0  0  1  0  0  0  0  0  0  0  0  0
   47.5330   32.2900   40.5330 C   0  0  0  0  0  0  0  0  0  0  0  0
   48.5700   32.8390   39.5560 C   0  0  0  0  0  0  0  0  0  0  0  0
   48.2340   34.3030   39.3490 C   0  0  0  0  0  0  0  0  0  0  0  0
   48.1390   35.0900   40.6260 C   0  0  0  0  0  0  0  0  0  0  0  0
   47.6190   34.4130   41.8190 C   0  0  1  0  0  0  0  0  0  0  0  0
   48.9380   32.8080   42.0290 H   0  0  0  0  0  0  0  0  0  0  0  0
   47.7020   31.1920   40.5950 H   0  0  0  0  0  0  0  0  0  0  0  0
   46.5330   32.5070   40.1250 H   0  0  0  0  0  0  0  0  0  0  0  0
   48.5110   32.3520   38.5790 H   0  0  0  0  0  0  0  0  0  0  0  0
   49.5710   32.7690   40.0360 H   0  0  0  0  0  0  0  0  0  0  0  0
   47.2350   34.3610   38.8530 H   0  0  0  0  0  0  0  0  0  0  0  0
   49.0190   34.7330   38.6980 H   0  0  0  0  0  0  0  0  0  0  0  0
   49.1650   35.5110   40.8140 H   0  0  0  0  0  0  0  0  0  0  0  0
   47.5000   35.9840   40.4020 H   0  0  0  0  0  0  0  0  0  0  0  0
   48.1960   34.7820   42.7180 H   0  0  0  0  0  0  0  0  0  0  0  0
   45.3530   30.8820   43.8730 C   0  0  0  0  0  0  0  0  0  0  0  0
   46.0550   31.4650   42.8150 C   0  0  0  0  0  0  0  0  0  0  0  0
   47.1490   32.3200   42.9790 C   0  0  0  0  0  0  0  0  0  0  0  0
   47.5060   32.5670   44.2470 N   0  0  0  0  0  0  0  0  0  0  0  0
   46.8310   32.0070   45.2900 C   0  0  0  0  0  0  0  0  0  0  0  0
   45.7930   31.1950   45.1210 N   0  0  0  0  0  0  0  0  0  0  0  0
   44.5260   30.2390   43.6370 H   0  0  0  0  0  0  0  0  0  0  0  0
   45.7530   31.2550   41.7970 H   0  0  0  0  0  0  0  0  0  0  0  0
   47.1010   32.1910   46.3210 H   0  0  0  0  0  0  0  0  0  0  0  0
   46.2310   34.7720   42.1110 C   0  0  0  0  0  0  0  0  0  0  0  0
   45.7550   35.3330   43.2970 C   0  0  0  0  0  0  0  0  0  0  0  0
   44.3900   35.6100   43.3440 C   0  0  0  0  0  0  0  0  0  0  0  0
   43.6280   35.3110   42.2340 C   0  0  0  0  0  0  0  0  0  0  0  0
   44.1170   34.7540   41.0620 C   0  0  0  0  0  0  0  0  0  0  0  0
   45.4490   34.4910   41.0330 N   0  0  0  0  0  0  0  0  0  0  0  0
   46.4660   35.5010   44.0570 H   0  0  0  0  0  0  0  0  0  0  0  0
   44.0120   36.0360   44.2380 H   0  0  0  0  0  0  0  0  0  0  0  0
   42.5660   35.5330   42.2860 H   0  0  0  0  0  0  0  0  0  0  0  0
   43.2240   34.4750   39.9460 C   0  0  0  0  0  0  0  0  0  0  0  0
   43.1290   35.3180   39.0300 O   0  0  0  0  0  0  0  0  0  0  0  0
   42.3480   33.3630   39.6210 C   0  0  0  0  0  0  0  0  0  0  0  0
   42.8000   32.1200   39.2350 C   0  0  0  0  0  0  0  0  0  0  0  0
   43.8490   31.9240   39.1820 H   0  0  0  0  0  0  0  0  0  0  0  0
   42.0060   31.0490   38.8800 C   0  0  0  0  0  3  0  0  0  0  0  0
   40.6390   31.2270   38.9100 C   0  0  0  0  0  3  0  0  0  0  0  0
   40.1150   32.4460   39.2870 C   0  0  0  0  0  0  0  0  0  0  0  0
   38.7570   32.5580   39.3040 C   0  0  0  0  0  3  0  0  0  0  0  0
   38.1610   33.7450   39.6800 C   0  0  0  0  0  3  0  0  0  0  0  0
   38.9880   34.8140   40.0370 C   0  0  0  0  0  3  0  0  0  0  0  0
   40.3480   34.6360   39.9970 C   0  0  0  0  0  3  0  0  0  0  0  0
   40.9740   33.4670   39.6270 C   0  0  0  0  0  0  0  0  0  0  0  0
  1  7  1  1  0  0  0
  1 19  1  0  0  0  0
  2  8  1  0  0  0  0
  2  1  1  0  0  0  0
  3 11  1  0  0  0  0
  3  2  1  0  0  0  0
  4  3  1  0  0  0  0
  4  5  1  0  0  0  0
  5 14  1  0  0  0  0
  5  6  1  0  0  0  0
  6  1  1  0  0  0  0
  6 26  1  0  0  0  0
  6 16  1  1  0  0  0
  9  2  1  0  0  0  0
 10  3  1  0  0  0  0
 12  4  1  0  0  0  0
 13  4  1  0  0  0  0
 15  5  1  0  0  0  0
 17 22  1  0  0  0  0
 18 19  1  0  0  0  0
 18 17  2  0  0  0  0
 19 20  2  0  0  0  0
 20 21  1  0  0  0  0
 21 25  1  0  0  0  0
 22 21  2  0  0  0  0
 23 17  1  0  0  0  0
 24 18  1  0  0  0  0
 26 27  1  0  0  0  0
 27 28  2  0  0  0  0
 27 32  1  0  0  0  0
 28 33  1  0  0  0  0
 29 34  1  0  0  0  0
 29 28  1  0  0  0  0
 30 29  2  0  0  0  0
 31 30  1  0  0  0  0
 31 26  2  0  0  0  0
 35 30  1  0  0  0  0
 36 35  2  0  0  0  0
 37 47  1  0  0  0  0
 37 35  1  0  0  0  0
 38 37  2  0  0  0  0
 39 38  1  0  0  0  0
 40 41  2  0  0  0  0
 40 38  1  0  0  0  0
 41 42  1  0  0  0  0
 42 43  2  0  0  0  0
 42 47  1  0  0  0  0
 43 44  1  0  0  0  0
 44 45  2  0  0  0  0
 46 45  1  0  0  0  0
 47 46  2  0  0  0  0
M  END
>  <minimizedAffinity>
-6.55824995

>  <minimizedRMSD>
1.34491706

$$$$
