
 OpenBabel03252509003D

 47 50  0  0  1  0  0  0  0  0999 V2000
   46.9290   34.4080   43.4680 N   0  0  0  0  0  0  0  0  0  0  0  0
   46.4520   35.4840   42.6760 C   0  0  0  0  0  0  0  0  0  0  0  0
   44.9490   35.6700   42.6930 C   0  0  0  0  0  0  0  0  0  0  0  0
   44.2910   35.3070   44.0020 C   0  0  0  0  0  0  0  0  0  0  0  0
   45.3100   34.9350   45.0510 C   0  0  0  0  0  0  0  0  0  0  0  0
   46.1110   33.7620   44.3770 C   0  0  2  0  0  0  0  0  0  0  0  0
   46.8620   36.4230   43.1270 H   0  0  0  0  0  0  0  0  0  0  0  0
   46.7790   35.4910   41.6370 H   0  0  0  0  0  0  0  0  0  0  0  0
   44.5220   35.1350   41.8140 H   0  0  0  0  0  0  0  0  0  0  0  0
   44.7170   36.7440   42.5100 H   0  0  0  0  0  0  0  0  0  0  0  0
   43.5740   36.0830   44.3580 H   0  0  0  0  0  0  0  0  0  0  0  0
   43.6870   34.3910   43.8190 H   0  0  0  0  0  0  0  0  0  0  0  0
   46.0300   35.7190   45.2800 H   0  0  0  0  0  0  0  0  0  0  0  0
   44.7660   34.5020   45.8970 H   0  0  0  0  0  0  0  0  0  0  0  0
   45.3540   33.0440   43.9710 H   0  0  0  0  0  0  0  0  0  0  0  0
   48.0120   33.6820   42.8730 C   0  0  0  0  0  0  0  0  0  0  0  0
   48.6390   33.1850   43.6640 H   0  0  0  0  0  0  0  0  0  0  0  0
   48.6210   34.3940   42.2940 H   0  0  0  0  0  0  0  0  0  0  0  0
   47.4560   32.6020   42.0070 C   0  0  0  0  0  0  0  0  0  0  0  0
   47.6650   31.5750   42.3380 H   0  0  0  0  0  0  0  0  0  0  0  0
   46.3430   32.6780   41.9510 H   0  0  0  0  0  0  0  0  0  0  0  0
   49.3480   32.1300   38.7970 C   0  0  0  0  0  0  0  0  0  0  0  0
   48.8940   31.9490   40.1170 C   0  0  0  0  0  0  0  0  0  0  0  0
   47.9330   32.7960   40.6130 C   0  0  0  0  0  0  0  0  0  0  0  0
   47.4730   33.7620   39.8030 N   0  0  0  0  0  0  0  0  0  0  0  0
   47.9220   33.9190   38.5390 C   0  0  0  0  0  0  0  0  0  0  0  0
   48.8590   33.1070   38.0290 N   0  0  0  0  0  0  0  0  0  0  0  0
   50.1100   31.3940   38.5250 H   0  0  0  0  0  0  0  0  0  0  0  0
   49.2730   31.1610   40.7700 H   0  0  0  0  0  0  0  0  0  0  0  0
   47.5420   34.7080   37.8890 H   0  0  0  0  0  0  0  0  0  0  0  0
   46.8280   33.2600   45.4530 O   0  0  0  0  0  0  0  0  0  0  0  0
   45.5600   30.9950   44.8780 O   0  0  0  0  0  0  0  0  0  0  0  0
   46.2330   31.7850   46.0030 P   0  0  2  0  0  0  0  0  0  0  0  0
   44.9600   32.1630   47.0840 O   0  0  0  0  0  0  0  0  0  0  0  0
   45.3630   32.7820   47.7340 H   0  0  0  0  0  0  0  0  0  0  0  0
   47.3670   30.9130   46.8350 O   0  0  0  0  0  0  0  0  0  0  0  0
   47.8600   29.6680   46.5750 C   0  0  0  0  0  0  0  0  0  0  0  0
   49.0550   29.3410   45.9480 C   0  0  0  0  0  0  0  0  0  0  0  0
   49.6330   30.2020   45.6470 H   0  0  0  0  0  0  0  0  0  0  0  0
   49.3860   28.0050   45.7740 C   0  0  0  0  0  3  0  0  0  0  0  0
   48.5520   27.0170   46.2100 C   0  0  0  0  0  3  0  0  0  0  0  0
   47.3700   27.3040   46.8300 C   0  0  0  0  0  0  0  0  0  0  0  0
   46.5660   26.2750   47.2510 C   0  0  0  0  0  3  0  0  0  0  0  0
   45.3700   26.5430   47.8770 C   0  0  0  0  0  3  0  0  0  0  0  0
   44.9940   27.8560   48.0760 C   0  0  0  0  0  3  0  0  0  0  0  0
   45.8150   28.8540   47.6470 C   0  0  0  0  0  3  0  0  0  0  0  0
   47.0300   28.6440   47.0090 C   0  0  0  0  0  0  0  0  0  0  0  0
  1  6  1  0  0  0  0
  2  3  1  0  0  0  0
  2  7  1  0  0  0  0
  2  1  1  0  0  0  0
  3  4  1  0  0  0  0
  4 11  1  0  0  0  0
  4  5  1  0  0  0  0
  5 13  1  0  0  0  0
  5 14  1  0  0  0  0
  6 15  1  6  0  0  0
  6  5  1  0  0  0  0
  6 31  1  0  0  0  0
  8  2  1  0  0  0  0
  9  3  1  0  0  0  0
 10  3  1  0  0  0  0
 12  4  1  0  0  0  0
 16  1  1  0  0  0  0
 16 17  1  0  0  0  0
 18 16  1  0  0  0  0
 19 20  1  0  0  0  0
 19 16  1  0  0  0  0
 21 19  1  0  0  0  0
 22 23  1  0  0  0  0
 23 24  2  0  0  0  0
 23 29  1  0  0  0  0
 24 19  1  0  0  0  0
 25 24  1  0  0  0  0
 26 25  2  0  0  0  0
 27 26  1  0  0  0  0
 27 22  2  0  0  0  0
 28 22  1  0  0  0  0
 30 26  1  0  0  0  0
 31 33  1  0  0  0  0
 33 32  2  6  0  0  0
 33 36  1  0  0  0  0
 33 34  1  0  0  0  0
 34 35  1  0  0  0  0
 37 36  1  0  0  0  0
 37 47  1  0  0  0  0
 38 37  2  0  0  0  0
 39 38  1  0  0  0  0
 40 38  1  0  0  0  0
 40 41  2  0  0  0  0
 41 42  1  0  0  0  0
 42 47  2  0  0  0  0
 42 43  1  0  0  0  0
 43 44  2  0  0  0  0
 44 45  1  0  0  0  0
 46 45  2  0  0  0  0
 47 46  1  0  0  0  0
M  END
>  <minimizedAffinity>
-4.6787858

>  <minimizedRMSD>
1.20728064

$$$$
