
 OpenBabel03252508033D

 44 48  0  0  1  0  0  0  0  0999 V2000
   41.9960   33.3220   41.2290 C   0  0  0  0  0  0  0  0  0  0  0  0
   42.7760   34.4350   41.3300 C   0  0  0  0  0  0  0  0  0  0  0  0
   42.1720   35.6980   41.2000 C   0  0  0  0  0  0  0  0  0  0  0  0
   40.8300   35.8650   40.9760 C   0  0  0  0  0  0  0  0  0  0  0  0
   40.0410   34.7480   40.8740 C   0  0  0  0  0  0  0  0  0  0  0  0
   40.6290   33.5280   41.0000 C   0  0  0  0  0  0  0  0  0  0  0  0
   42.7210   36.6260   41.2580 H   0  0  0  0  0  0  0  0  0  0  0  0
   40.3730   36.8220   40.8780 H   0  0  0  0  0  0  0  0  0  0  0  0
   38.9790   34.7870   40.6990 H   0  0  0  0  0  0  0  0  0  0  0  0
   39.9910   32.6340   40.9160 H   0  0  0  0  0  0  0  0  0  0  0  0
   42.5700   31.7600   41.4880 S   0  0  0  0  0  0  0  0  0  0  0  0
   41.9690   31.0590   40.2230 O   0  0  0  0  0  0  0  0  0  0  0  0
   41.9450   31.0850   42.6360 O   0  0  0  0  0  0  0  0  0  0  0  0
   44.0510   31.0670   41.0470 C   0  0  0  0  0  0  0  0  0  0  0  0
   44.7170   31.0430   39.7950 C   0  0  0  0  0  0  0  0  0  0  0  0
   44.1370   31.6240   39.0400 H   0  0  0  0  0  0  0  0  0  0  0  0
   45.8740   30.4210   39.3600 C   0  0  0  0  0  3  0  0  0  0  0  0
   46.4090   29.7230   40.3850 C   0  0  0  0  0  3  0  0  0  0  0  0
   45.8970   29.6370   41.6560 C   0  0  0  0  0  0  0  0  0  0  0  0
   46.6480   28.8440   42.5270 C   0  0  0  0  0  3  0  0  0  0  0  0
   46.2260   28.6910   43.8260 C   0  0  0  0  0  3  0  0  0  0  0  0
   45.0730   29.3330   44.2180 C   0  0  0  0  0  3  0  0  0  0  0  0
   44.3990   30.0910   43.2930 C   0  0  0  0  0  3  0  0  0  0  0  0
   44.7430   30.2980   41.9780 C   0  0  0  0  0  0  0  0  0  0  0  0
   44.2160   34.3560   41.5630 C   0  0  0  0  0  0  0  0  0  0  0  0
   45.0860   34.2180   40.6510 O   0  0  0  0  0  0  0  0  0  0  0  0
   44.5730   34.4530   42.9520 C   0  0  0  0  0  0  0  0  0  0  0  0
   44.2680   35.7080   43.5900 C   0  0  0  0  0  0  0  0  0  0  0  0
   44.5870   35.8220   44.9330 C   0  0  0  0  0  0  0  0  0  0  0  0
   45.1570   34.7570   45.5570 N   0  0  0  0  0  0  0  0  0  0  0  0
   45.4230   33.5830   44.8990 C   0  0  0  0  0  0  0  0  0  0  0  0
   45.1320   33.4720   43.6520 N   0  0  0  0  0  0  0  0  0  0  0  0
   43.8280   36.5870   43.1780 H   0  0  0  0  0  0  0  0  0  0  0  0
   44.4130   36.7020   45.5230 H   0  0  0  0  0  0  0  0  0  0  0  0
   46.0340   32.4700   45.6630 C   0  0  1  0  0  0  0  0  0  0  0  0
   46.9720   32.7890   46.8060 C   0  0  0  0  0  0  0  0  0  0  0  0
   45.5690   32.3420   47.0620 C   0  0  1  0  0  0  0  0  0  0  0  0
   46.1870   31.5400   45.0960 H   0  0  0  0  0  0  0  0  0  0  0  0
   47.2770   33.8450   46.9450 H   0  0  0  0  0  0  0  0  0  0  0  0
   47.7480   32.0440   47.0610 H   0  0  0  0  0  0  0  0  0  0  0  0
   45.3710   31.3580   47.5320 H   0  0  0  0  0  0  0  0  0  0  0  0
   44.7590   33.3990   47.6580 N   0  0  0  0  0  0  0  0  0  0  0  0
   43.7630   33.1460   47.4130 H   0  0  0  0  0  0  0  0  0  0  0  0
   44.8690   33.3000   48.6870 H   0  0  0  0  0  0  0  0  0  0  0  0
  1  2  1  0  0  0  0
  1 11  1  0  0  0  0
  2 25  1  0  0  0  0
  3  7  1  0  0  0  0
  3  2  2  0  0  0  0
  4  3  1  0  0  0  0
  5  4  2  0  0  0  0
  5  6  1  0  0  0  0
  6  1  2  0  0  0  0
  8  4  1  0  0  0  0
  9  5  1  0  0  0  0
 10  6  1  0  0  0  0
 11 13  2  0  0  0  0
 12 11  2  0  0  0  0
 14 11  1  0  0  0  0
 14 24  1  0  0  0  0
 15 14  2  0  0  0  0
 16 15  1  0  0  0  0
 17 15  1  0  0  0  0
 17 18  2  0  0  0  0
 18 19  1  0  0  0  0
 19 24  2  0  0  0  0
 19 20  1  0  0  0  0
 20 21  2  0  0  0  0
 21 22  1  0  0  0  0
 23 22  2  0  0  0  0
 24 23  1  0  0  0  0
 25 27  1  0  0  0  0
 26 25  2  0  0  0  0
 27 28  2  0  0  0  0
 27 32  1  0  0  0  0
 28 29  1  0  0  0  0
 29 34  1  0  0  0  0
 29 30  2  0  0  0  0
 31 30  1  0  0  0  0
 31 35  1  0  0  0  0
 32 31  2  0  0  0  0
 33 28  1  0  0  0  0
 35 38  1  6  0  0  0
 35 36  1  0  0  0  0
 35 37  1  0  0  0  0
 36 39  1  0  0  0  0
 36 40  1  0  0  0  0
 36 37  1  0  0  0  0
 37 41  1  1  0  0  0
 37 42  1  0  0  0  0
 42 44  1  0  0  0  0
 43 42  1  0  0  0  0
M  END
>  <minimizedAffinity>
-5.96782064

>  <minimizedRMSD>
0.662586451

$$$$
