
 OpenBabel03242516163D

 45 49  0  0  1  0  0  0  0  0999 V2000
   46.4480   35.2610   42.3660 C   0  0  0  0  0  0  0  0  0  0  0  0
   46.9090   34.0620   42.9050 C   0  0  0  0  0  0  0  0  0  0  0  0
   46.2140   33.5370   43.9900 C   0  0  0  0  0  0  0  0  0  0  0  0
   45.1230   34.1950   44.4850 N   0  0  0  0  0  0  0  0  0  0  0  0
   44.7280   35.3450   43.9220 C   0  0  0  0  0  0  0  0  0  0  0  0
   45.3640   35.8770   42.8880 N   0  0  0  0  0  0  0  0  0  0  0  0
   43.6010   36.0770   44.3790 N   0  0  0  0  0  0  0  0  0  0  0  0
   47.0020   35.6500   41.5250 H   0  0  0  0  0  0  0  0  0  0  0  0
   42.7830   36.0480   43.7150 H   0  0  0  0  0  0  0  0  0  0  0  0
   43.9210   36.4510   45.2830 H   0  0  0  0  0  0  0  0  0  0  0  0
   48.1150   33.3700   42.3490 C   0  0  0  0  0  0  0  0  0  0  0  0
   49.0900   34.2690   41.5830 C   0  0  0  0  0  0  0  0  0  0  0  0
   49.4230   33.6500   42.8660 C   0  0  0  0  0  0  0  0  0  0  0  0
   49.5800   33.8870   40.6710 H   0  0  0  0  0  0  0  0  0  0  0  0
   48.7720   35.3260   41.4680 H   0  0  0  0  0  0  0  0  0  0  0  0
   49.7870   34.4280   43.5410 H   0  0  0  0  0  0  0  0  0  0  0  0
   50.1670   32.7970   42.8230 H   0  0  0  0  0  0  0  0  0  0  0  0
   47.8670   32.0740   41.6530 C   0  0  0  0  0  0  0  0  0  0  0  0
   49.0950   31.2040   41.4540 C   0  0  0  0  0  0  0  0  0  0  0  0
   48.5650   29.8930   40.8570 C   0  0  0  0  0  0  0  0  0  0  0  0
   48.2950   30.1760   39.5110 O   0  0  0  0  0  0  0  0  0  0  0  0
   47.1040   30.9400   39.5860 C   0  0  0  0  0  0  0  0  0  0  0  0
   47.3760   32.2860   40.2150 C   0  0  0  0  0  0  0  0  0  0  0  0
   47.1100   31.4440   42.1470 H   0  0  0  0  0  0  0  0  0  0  0  0
   49.8290   31.6750   40.7890 H   0  0  0  0  0  0  0  0  0  0  0  0
   49.5170   30.9040   42.4550 H   0  0  0  0  0  0  0  0  0  0  0  0
   49.3240   29.0960   40.9560 H   0  0  0  0  0  0  0  0  0  0  0  0
   47.6230   29.6020   41.3220 H   0  0  0  0  0  0  0  0  0  0  0  0
   46.2740   30.3930   40.0240 H   0  0  0  0  0  0  0  0  0  0  0  0
   46.8820   31.1630   38.5030 H   0  0  0  0  0  0  0  0  0  0  0  0
   48.1110   32.8210   39.5910 H   0  0  0  0  0  0  0  0  0  0  0  0
   46.4040   32.7970   40.2980 H   0  0  0  0  0  0  0  0  0  0  0  0
   46.6230   32.3430   44.6890 C   0  0  2  0  0  0  0  0  0  0  0  0
   47.8230   31.8850   44.8210 O   0  0  0  0  0  0  0  0  0  0  0  0
   46.0780   31.2300   45.4510 C   0  0  0  0  0  0  0  0  0  0  0  0
   45.8670   30.0410   44.7690 C   0  0  0  0  0  0  0  0  0  0  0  0
   46.0670   30.0190   43.6880 H   0  0  0  0  0  0  0  0  0  0  0  0
   45.4240   28.8400   45.2850 C   0  0  0  0  0  0  0  0  0  0  0  0
   45.1750   28.8660   46.6230 C   0  0  0  0  0  0  0  0  0  0  0  0
   45.3510   29.9920   47.3960 C   0  0  0  0  0  0  0  0  0  0  0  0
   45.1100   30.0630   48.7570 C   0  0  0  0  0  0  0  0  0  0  0  0
   45.3100   31.2340   49.4680 C   0  0  0  0  0  0  0  0  0  0  0  0
   45.7590   32.3870   48.8540 C   0  0  0  0  0  0  0  0  0  0  0  0
   46.0020   32.3350   47.5050 C   0  0  0  0  0  0  0  0  0  0  0  0
   45.8060   31.1740   46.7920 C   0  0  0  0  0  0  0  0  0  0  0  0
  1  6  2  0  0  0  0
  1  2  1  0  0  0  0
  2  3  2  0  0  0  0
  3  4  1  0  0  0  0
  3 33  1  0  0  0  0
  5  7  1  0  0  0  0
  5  4  2  0  0  0  0
  6  5  1  0  0  0  0
  7 10  1  0  0  0  0
  8  1  1  0  0  0  0
  9  7  1  0  0  0  0
 11 13  1  0  0  0  0
 11  2  1  0  0  0  0
 12 11  1  0  0  0  0
 12 13  1  0  0  0  0
 13 16  1  0  0  0  0
 14 12  1  0  0  0  0
 15 12  1  0  0  0  0
 17 13  1  0  0  0  0
 18 24  1  0  0  0  0
 18 11  1  0  0  0  0
 19 18  1  0  0  0  0
 19 26  1  0  0  0  0
 20 27  1  0  0  0  0
 20 28  1  0  0  0  0
 20 19  1  0  0  0  0
 21 22  1  0  0  0  0
 21 20  1  0  0  0  0
 22 29  1  0  0  0  0
 22 23  1  0  0  0  0
 23 32  1  0  0  0  0
 23 18  1  0  0  0  0
 25 19  1  0  0  0  0
 30 22  1  0  0  0  0
 31 23  1  0  0  0  0
 33 34  1  6  0  0  0
 33 35  1  0  0  0  0
 35 45  1  0  0  0  0
 36 38  1  0  0  0  0
 36 35  2  0  0  0  0
 37 36  1  0  0  0  0
 38 39  2  0  0  0  0
 39 40  1  0  0  0  0
 40 41  1  0  0  0  0
 41 42  2  0  0  0  0
 43 42  1  0  0  0  0
 44 43  2  0  0  0  0
 45 40  2  0  0  0  0
 45 44  1  0  0  0  0
M  END
>  <minimizedAffinity>
-6.31474257

>  <minimizedRMSD>
4.53983068

$$$$
