
 OpenBabel03242510243D

 40 44  0  0  1  0  0  0  0  0999 V2000
   40.1030   31.9260   40.0070 N   0  0  0  0  0  0  0  0  0  0  0  0
   40.8720   31.6320   41.1220 C   0  0  0  0  0  0  0  0  0  0  0  0
   41.8320   32.2570   41.6500 O   0  0  0  0  0  0  0  0  0  0  0  0
   39.9250   31.0690   39.4300 H   0  0  0  0  0  0  0  0  0  0  0  0
   38.1670   33.4000   39.5990 C   0  0  1  0  0  0  0  0  0  0  0  0
   38.7060   33.8030   40.8260 C   0  0  0  0  0  0  0  0  0  0  0  0
   39.6300   33.2280   39.7050 C   0  0  1  0  0  0  0  0  0  0  0  0
   37.7580   34.1140   38.8490 H   0  0  0  0  0  0  0  0  0  0  0  0
   38.8730   34.9120   40.9950 H   0  0  0  0  0  0  0  0  0  0  0  0
   38.7400   33.2830   41.7970 H   0  0  0  0  0  0  0  0  0  0  0  0
   40.3000   33.9900   39.2790 H   0  0  0  0  0  0  0  0  0  0  0  0
   36.7210   31.5570   40.7430 C   0  0  0  0  0  0  0  0  0  0  0  0
   37.3400   32.1000   39.5770 C   0  0  0  0  0  0  0  0  0  0  0  0
   37.2000   31.3930   38.4000 C   0  0  0  0  0  0  0  0  0  0  0  0
   36.5030   30.2460   38.3910 N   0  0  0  0  0  0  0  0  0  0  0  0
   35.9180   29.7400   39.5160 C   0  0  0  0  0  0  0  0  0  0  0  0
   36.0390   30.4270   40.7210 N   0  0  0  0  0  0  0  0  0  0  0  0
   36.8240   32.1240   41.6230 H   0  0  0  0  0  0  0  0  0  0  0  0
   37.6770   31.8260   37.5340 H   0  0  0  0  0  0  0  0  0  0  0  0
   35.4180   28.8220   39.2780 H   0  0  0  0  0  0  0  0  0  0  0  0
   40.5830   30.3660   41.9120 C   0  0  2  0  0  0  0  0  0  0  0  0
   40.9270   29.0060   41.1920 C   0  0  0  0  0  0  0  0  0  0  0  0
   39.5240   29.4350   41.5000 C   0  0  1  0  0  0  0  0  0  0  0  0
   40.9480   30.3200   42.9570 H   0  0  0  0  0  0  0  0  0  0  0  0
   41.3190   29.1480   40.1570 H   0  0  0  0  0  0  0  0  0  0  0  0
   41.4480   28.2470   41.7700 H   0  0  0  0  0  0  0  0  0  0  0  0
   38.8850   29.7480   40.6470 H   0  0  0  0  0  0  0  0  0  0  0  0
   38.7840   28.6860   42.5830 C   0  0  0  0  0  0  0  0  0  0  0  0
   38.0160   29.3110   43.3250 O   0  0  0  0  0  0  0  0  0  0  0  0
   39.0240   27.2390   42.6940 C   0  0  0  0  0  0  0  0  0  0  0  0
   39.9530   26.6980   43.5230 C   0  0  0  0  0  0  0  0  0  0  0  0
   40.5810   27.2870   44.1640 H   0  0  0  0  0  0  0  0  0  0  0  0
   40.2440   25.3590   43.6800 C   0  0  0  0  0  3  0  0  0  0  0  0
   39.5270   24.4320   42.9230 C   0  0  0  0  0  3  0  0  0  0  0  0
   38.5790   24.9160   42.0720 C   0  0  0  0  0  0  0  0  0  0  0  0
   37.8790   23.9890   41.3300 C   0  0  0  0  0  3  0  0  0  0  0  0
   36.8940   24.3990   40.4370 C   0  0  0  0  0  3  0  0  0  0  0  0
   36.6360   25.7620   40.3140 C   0  0  0  0  0  3  0  0  0  0  0  0
   37.3790   26.6240   41.0900 C   0  0  0  0  0  3  0  0  0  0  0  0
   38.3570   26.2710   41.9800 C   0  0  0  0  0  0  0  0  0  0  0  0
  1  2  1  0  0  0  0
  2  3  2  0  0  0  0
  2 21  1  0  0  0  0
  4  1  1  0  0  0  0
  5  8  1  6  0  0  0
  5  7  1  0  0  0  0
  5  6  1  0  0  0  0
  6  9  1  0  0  0  0
  6 10  1  0  0  0  0
  7 11  1  6  0  0  0
  7  1  1  0  0  0  0
  7  6  1  0  0  0  0
 12 18  1  0  0  0  0
 13  5  1  0  0  0  0
 13 12  2  0  0  0  0
 14 13  1  0  0  0  0
 15 14  2  0  0  0  0
 15 16  1  0  0  0  0
 16 17  2  0  0  0  0
 17 12  1  0  0  0  0
 19 14  1  0  0  0  0
 20 16  1  0  0  0  0
 21 24  1  1  0  0  0
 22 23  1  0  0  0  0
 22 26  1  0  0  0  0
 22 21  1  0  0  0  0
 23 27  1  6  0  0  0
 23 21  1  0  0  0  0
 23 28  1  0  0  0  0
 25 22  1  0  0  0  0
 28 30  1  0  0  0  0
 28 29  2  0  0  0  0
 30 31  1  0  0  0  0
 31 33  2  0  0  0  0
 31 32  1  0  0  0  0
 34 33  1  0  0  0  0
 35 34  2  0  0  0  0
 36 35  1  0  0  0  0
 37 36  2  0  0  0  0
 38 37  1  0  0  0  0
 38 39  2  0  0  0  0
 39 40  1  0  0  0  0
 40 35  1  0  0  0  0
 40 30  2  0  0  0  0
M  END
>  <minimizedAffinity>
-6.3316493

$$$$

 OpenBabel03242510243D

 40 44  0  0  1  0  0  0  0  0999 V2000
   39.2670   29.9680   37.5280 N   0  0  0  0  0  0  0  0  0  0  0  0
   38.4340   28.9240   37.1560 C   0  0  0  0  0  0  0  0  0  0  0  0
   38.5490   28.0650   36.2400 O   0  0  0  0  0  0  0  0  0  0  0  0
   38.7160   30.8330   37.7510 H   0  0  0  0  0  0  0  0  0  0  0  0
   41.3620   30.6090   38.6610 C   0  0  1  0  0  0  0  0  0  0  0  0
   41.1740   29.2500   38.9380 C   0  0  0  0  0  0  0  0  0  0  0  0
   40.6790   29.8590   37.5880 C   0  0  1  0  0  0  0  0  0  0  0  0
   42.3610   31.0570   38.4580 H   0  0  0  0  0  0  0  0  0  0  0  0
   42.0560   28.5520   38.7980 H   0  0  0  0  0  0  0  0  0  0  0  0
   40.4100   28.7450   39.5510 H   0  0  0  0  0  0  0  0  0  0  0  0
   41.2570   29.4950   36.7240 H   0  0  0  0  0  0  0  0  0  0  0  0
   40.3650   32.9870   39.0400 C   0  0  0  0  0  0  0  0  0  0  0  0
   40.4910   31.6200   39.4300 C   0  0  0  0  0  0  0  0  0  0  0  0
   39.8150   31.2230   40.5660 C   0  0  0  0  0  0  0  0  0  0  0  0
   39.0800   32.1140   41.2490 N   0  0  0  0  0  0  0  0  0  0  0  0
   38.9720   33.4180   40.8640 C   0  0  0  0  0  0  0  0  0  0  0  0
   39.6400   33.8540   39.7230 N   0  0  0  0  0  0  0  0  0  0  0  0
   40.8720   33.2620   38.1600 H   0  0  0  0  0  0  0  0  0  0  0  0
   39.9270   30.1840   40.8380 H   0  0  0  0  0  0  0  0  0  0  0  0
   38.3400   33.9440   41.5520 H   0  0  0  0  0  0  0  0  0  0  0  0
   37.1450   28.6910   37.9250 C   0  0  2  0  0  0  0  0  0  0  0  0
   35.9940   29.7430   37.6830 C   0  0  0  0  0  0  0  0  0  0  0  0
   36.7160   29.6070   38.9910 C   0  0  1  0  0  0  0  0  0  0  0  0
   36.7090   27.6720   37.8990 H   0  0  0  0  0  0  0  0  0  0  0  0
   36.2910   30.5610   36.9860 H   0  0  0  0  0  0  0  0  0  0  0  0
   34.9880   29.3630   37.5280 H   0  0  0  0  0  0  0  0  0  0  0  0
   37.4230   30.4160   39.2710 H   0  0  0  0  0  0  0  0  0  0  0  0
   35.9520   29.0240   40.1550 C   0  0  0  0  0  0  0  0  0  0  0  0
   34.7150   29.0680   40.1400 O   0  0  0  0  0  0  0  0  0  0  0  0
   36.7310   28.4290   41.2520 C   0  0  0  0  0  0  0  0  0  0  0  0
   37.2260   29.1490   42.2910 C   0  0  0  0  0  0  0  0  0  0  0  0
   37.0800   30.2080   42.3930 H   0  0  0  0  0  0  0  0  0  0  0  0
   37.9690   28.6720   43.3500 C   0  0  0  0  0  3  0  0  0  0  0  0
   38.2650   27.3090   43.3910 C   0  0  0  0  0  3  0  0  0  0  0  0
   37.7940   26.5340   42.3740 C   0  0  0  0  0  0  0  0  0  0  0  0
   38.0940   25.1900   42.4280 C   0  0  0  0  0  3  0  0  0  0  0  0
   37.6520   24.3280   41.4280 C   0  0  0  0  0  3  0  0  0  0  0  0
   36.9040   24.8570   40.3800 C   0  0  0  0  0  3  0  0  0  0  0  0
   36.6480   26.2110   40.3990 C   0  0  0  0  0  3  0  0  0  0  0  0
   37.0590   27.0980   41.3560 C   0  0  0  0  0  0  0  0  0  0  0  0
  1  7  1  0  0  0  0
  1  4  1  0  0  0  0
  2  1  1  0  0  0  0
  2 21  1  0  0  0  0
  3  2  2  0  0  0  0
  5  8  1  6  0  0  0
  5  6  1  0  0  0  0
  5 13  1  0  0  0  0
  6 10  1  0  0  0  0
  7 11  1  6  0  0  0
  7  5  1  0  0  0  0
  7  6  1  0  0  0  0
  9  6  1  0  0  0  0
 12 13  2  0  0  0  0
 12 17  1  0  0  0  0
 13 14  1  0  0  0  0
 14 19  1  0  0  0  0
 14 15  2  0  0  0  0
 16 15  1  0  0  0  0
 16 20  1  0  0  0  0
 17 16  2  0  0  0  0
 18 12  1  0  0  0  0
 21 24  1  1  0  0  0
 21 23  1  0  0  0  0
 22 21  1  0  0  0  0
 22 23  1  0  0  0  0
 23 27  1  1  0  0  0
 23 28  1  0  0  0  0
 25 22  1  0  0  0  0
 26 22  1  0  0  0  0
 28 30  1  0  0  0  0
 29 28  2  0  0  0  0
 30 40  2  0  0  0  0
 30 31  1  0  0  0  0
 31 32  1  0  0  0  0
 31 33  2  0  0  0  0
 33 34  1  0  0  0  0
 35 36  1  0  0  0  0
 35 34  2  0  0  0  0
 37 36  2  0  0  0  0
 38 39  2  0  0  0  0
 38 37  1  0  0  0  0
 39 40  1  0  0  0  0
 40 35  1  0  0  0  0
M  END
>  <minimizedAffinity>
-6.03215122

$$$$

 OpenBabel03242510243D

 40 44  0  0  1  0  0  0  0  0999 V2000
   37.5580   29.5410   39.7860 N   0  0  0  0  0  0  0  0  0  0  0  0
   37.0110   29.6210   41.0570 C   0  0  0  0  0  0  0  0  0  0  0  0
   36.1920   30.4430   41.5520 O   0  0  0  0  0  0  0  0  0  0  0  0
   38.5800   29.3060   39.8260 H   0  0  0  0  0  0  0  0  0  0  0  0
   37.0780   31.0110   37.8640 C   0  0  1  0  0  0  0  0  0  0  0  0
   37.7250   29.8860   37.3380 C   0  0  0  0  0  0  0  0  0  0  0  0
   36.8140   29.7580   38.6000 C   0  0  1  0  0  0  0  0  0  0  0  0
   36.2360   31.5250   37.3490 H   0  0  0  0  0  0  0  0  0  0  0  0
   37.2700   29.3900   36.4260 H   0  0  0  0  0  0  0  0  0  0  0  0
   38.7650   29.5410   37.4530 H   0  0  0  0  0  0  0  0  0  0  0  0
   35.8910   29.1920   38.3980 H   0  0  0  0  0  0  0  0  0  0  0  0
   39.3700   32.0520   38.5410 C   0  0  0  0  0  0  0  0  0  0  0  0
   37.9440   32.0500   38.6010 C   0  0  0  0  0  0  0  0  0  0  0  0
   37.3440   33.0140   39.3860 C   0  0  0  0  0  0  0  0  0  0  0  0
   38.1020   33.9000   40.0490 N   0  0  0  0  0  0  0  0  0  0  0  0
   39.4650   33.8870   39.9820 C   0  0  0  0  0  0  0  0  0  0  0  0
   40.1050   32.9280   39.2000 N   0  0  0  0  0  0  0  0  0  0  0  0
   39.8040   31.3210   37.9210 H   0  0  0  0  0  0  0  0  0  0  0  0
   36.2650   32.9900   39.4130 H   0  0  0  0  0  0  0  0  0  0  0  0
   39.8620   34.6780   40.5870 H   0  0  0  0  0  0  0  0  0  0  0  0
   37.3980   28.5860   42.1000 C   0  0  2  0  0  0  0  0  0  0  0  0
   38.4250   29.0600   43.1990 C   0  0  0  0  0  0  0  0  0  0  0  0
   38.7580   28.0330   42.1580 C   0  0  1  0  0  0  0  0  0  0  0  0
   36.5800   28.0250   42.5930 H   0  0  0  0  0  0  0  0  0  0  0  0
   38.7690   30.1100   43.0490 H   0  0  0  0  0  0  0  0  0  0  0  0
   38.2150   28.7990   44.2330 H   0  0  0  0  0  0  0  0  0  0  0  0
   39.4560   28.3330   41.3480 H   0  0  0  0  0  0  0  0  0  0  0  0
   38.9180   26.6020   42.6120 C   0  0  0  0  0  0  0  0  0  0  0  0
   39.5010   26.3750   43.6800 O   0  0  0  0  0  0  0  0  0  0  0  0
   38.3630   25.5480   41.7490 C   0  0  0  0  0  0  0  0  0  0  0  0
   37.1100   25.0460   41.8960 C   0  0  0  0  0  0  0  0  0  0  0  0
   36.4270   25.3850   42.6520 H   0  0  0  0  0  0  0  0  0  0  0  0
   36.5200   24.0570   41.1380 C   0  0  0  0  0  3  0  0  0  0  0  0
   37.2580   23.4880   40.0990 C   0  0  0  0  0  3  0  0  0  0  0  0
   38.5240   23.9520   39.9030 C   0  0  0  0  0  0  0  0  0  0  0  0
   39.2420   23.3810   38.8740 C   0  0  0  0  0  3  0  0  0  0  0  0
   40.5430   23.7980   38.6060 C   0  0  0  0  0  3  0  0  0  0  0  0
   41.0950   24.7990   39.3990 C   0  0  0  0  0  3  0  0  0  0  0  0
   40.3130   25.3180   40.4070 C   0  0  0  0  0  3  0  0  0  0  0  0
   39.0320   24.9440   40.7110 C   0  0  0  0  0  0  0  0  0  0  0  0
  1  4  1  0  0  0  0
  1  2  1  0  0  0  0
  2  3  2  0  0  0  0
  2 21  1  0  0  0  0
  5  8  1  6  0  0  0
  5  7  1  0  0  0  0
  5 13  1  0  0  0  0
  6 10  1  0  0  0  0
  6  5  1  0  0  0  0
  6  7  1  0  0  0  0
  7 11  1  6  0  0  0
  7  1  1  0  0  0  0
  9  6  1  0  0  0  0
 12 13  2  0  0  0  0
 12 17  1  0  0  0  0
 13 14  1  0  0  0  0
 14 19  1  0  0  0  0
 14 15  2  0  0  0  0
 16 15  1  0  0  0  0
 16 20  1  0  0  0  0
 17 16  2  0  0  0  0
 18 12  1  0  0  0  0
 21 23  1  0  0  0  0
 21 24  1  1  0  0  0
 21 22  1  0  0  0  0
 22 26  1  0  0  0  0
 23 27  1  6  0  0  0
 23 28  1  0  0  0  0
 23 22  1  0  0  0  0
 25 22  1  0  0  0  0
 28 29  2  0  0  0  0
 30 31  1  0  0  0  0
 30 28  1  0  0  0  0
 31 32  1  0  0  0  0
 33 31  2  0  0  0  0
 34 33  1  0  0  0  0
 35 34  2  0  0  0  0
 35 40  1  0  0  0  0
 36 35  1  0  0  0  0
 37 36  2  0  0  0  0
 37 38  1  0  0  0  0
 38 39  2  0  0  0  0
 39 40  1  0  0  0  0
 40 30  2  0  0  0  0
M  END
>  <minimizedAffinity>
-6.01699781

$$$$

 OpenBabel03242510243D

 40 44  0  0  1  0  0  0  0  0999 V2000
   39.0850   31.5640   41.1340 N   0  0  0  0  0  0  0  0  0  0  0  0
   39.7120   30.9570   42.2100 C   0  0  0  0  0  0  0  0  0  0  0  0
   40.7120   31.3150   42.8910 O   0  0  0  0  0  0  0  0  0  0  0  0
   38.8260   30.8620   40.3990 H   0  0  0  0  0  0  0  0  0  0  0  0
   39.4640   33.6860   39.9340 C   0  0  1  0  0  0  0  0  0  0  0  0
   38.1170   33.3650   39.7330 C   0  0  0  0  0  0  0  0  0  0  0  0
   38.8390   32.9580   41.0570 C   0  0  1  0  0  0  0  0  0  0  0  0
   39.8240   34.7270   40.0970 H   0  0  0  0  0  0  0  0  0  0  0  0
   37.3460   34.1800   39.8950 H   0  0  0  0  0  0  0  0  0  0  0  0
   37.6560   32.5440   39.1600 H   0  0  0  0  0  0  0  0  0  0  0  0
   38.4660   33.5170   41.9290 H   0  0  0  0  0  0  0  0  0  0  0  0
   41.8820   32.8060   39.5190 C   0  0  0  0  0  0  0  0  0  0  0  0
   40.5130   32.8980   39.1270 C   0  0  0  0  0  0  0  0  0  0  0  0
   40.1480   32.2690   37.9540 C   0  0  0  0  0  0  0  0  0  0  0  0
   41.0710   31.6080   37.2380 N   0  0  0  0  0  0  0  0  0  0  0  0
   42.3760   31.5310   37.6260 C   0  0  0  0  0  0  0  0  0  0  0  0
   42.7800   32.1530   38.8040 N   0  0  0  0  0  0  0  0  0  0  0  0
   42.1320   33.2750   40.4270 H   0  0  0  0  0  0  0  0  0  0  0  0
   39.1070   32.3540   37.6810 H   0  0  0  0  0  0  0  0  0  0  0  0
   42.9310   30.9580   36.9090 H   0  0  0  0  0  0  0  0  0  0  0  0
   39.1760   29.6360   42.7360 C   0  0  2  0  0  0  0  0  0  0  0  0
   40.0110   28.3510   42.3620 C   0  0  0  0  0  0  0  0  0  0  0  0
   38.6360   28.6160   41.8260 C   0  0  1  0  0  0  0  0  0  0  0  0
   38.9010   29.5840   43.8080 H   0  0  0  0  0  0  0  0  0  0  0  0
   40.8930   28.5770   41.7180 H   0  0  0  0  0  0  0  0  0  0  0  0
   40.2030   27.6270   43.1500 H   0  0  0  0  0  0  0  0  0  0  0  0
   38.5490   28.8960   40.7540 H   0  0  0  0  0  0  0  0  0  0  0  0
   37.5080   27.7480   42.3310 C   0  0  0  0  0  0  0  0  0  0  0  0
   36.8340   28.1430   43.2910 O   0  0  0  0  0  0  0  0  0  0  0  0
   37.2750   26.4690   41.6450 C   0  0  0  0  0  0  0  0  0  0  0  0
   37.6090   25.2650   42.1760 C   0  0  0  0  0  0  0  0  0  0  0  0
   38.0650   25.1570   43.1420 H   0  0  0  0  0  0  0  0  0  0  0  0
   37.4320   24.0260   41.5980 C   0  0  0  0  0  3  0  0  0  0  0  0
   36.8500   23.9630   40.3310 C   0  0  0  0  0  3  0  0  0  0  0  0
   36.4940   25.1400   39.7460 C   0  0  0  0  0  0  0  0  0  0  0  0
   35.9210   25.0630   38.4940 C   0  0  0  0  0  3  0  0  0  0  0  0
   35.5270   26.2190   37.8270 C   0  0  0  0  0  3  0  0  0  0  0  0
   35.7260   27.4470   38.4520 C   0  0  0  0  0  3  0  0  0  0  0  0
   36.3050   27.4390   39.7020 C   0  0  0  0  0  3  0  0  0  0  0  0
   36.7090   26.3320   40.3990 C   0  0  0  0  0  0  0  0  0  0  0  0
  1  2  1  0  0  0  0
  2 21  1  0  0  0  0
  2  3  2  0  0  0  0
  4  1  1  0  0  0  0
  5  8  1  1  0  0  0
  5  7  1  0  0  0  0
  6  9  1  0  0  0  0
  6  5  1  0  0  0  0
  6  7  1  0  0  0  0
  7  1  1  0  0  0  0
  7 11  1  1  0  0  0
 10  6  1  0  0  0  0
 12 18  1  0  0  0  0
 13 12  1  0  0  0  0
 13  5  1  0  0  0  0
 14 13  2  0  0  0  0
 15 16  2  0  0  0  0
 15 14  1  0  0  0  0
 16 17  1  0  0  0  0
 17 12  2  0  0  0  0
 19 14  1  0  0  0  0
 20 16  1  0  0  0  0
 21 24  1  1  0  0  0
 22 21  1  0  0  0  0
 22 26  1  0  0  0  0
 23 27  1  6  0  0  0
 23 28  1  0  0  0  0
 23 22  1  0  0  0  0
 23 21  1  0  0  0  0
 25 22  1  0  0  0  0
 28 29  2  0  0  0  0
 30 31  1  0  0  0  0
 30 28  1  0  0  0  0
 31 32  1  0  0  0  0
 33 31  2  0  0  0  0
 34 33  1  0  0  0  0
 35 34  2  0  0  0  0
 35 40  1  0  0  0  0
 36 35  1  0  0  0  0
 37 38  1  0  0  0  0
 37 36  2  0  0  0  0
 38 39  2  0  0  0  0
 39 40  1  0  0  0  0
 40 30  2  0  0  0  0
M  END
>  <minimizedAffinity>
-6.00485849

$$$$

 OpenBabel03242510243D

 40 44  0  0  1  0  0  0  0  0999 V2000
   40.1590   31.2930   40.7520 N   0  0  0  0  0  0  0  0  0  0  0  0
   40.3050   30.8000   42.0390 C   0  0  0  0  0  0  0  0  0  0  0  0
   41.0740   31.1520   42.9750 O   0  0  0  0  0  0  0  0  0  0  0  0
   40.0470   30.5150   40.0570 H   0  0  0  0  0  0  0  0  0  0  0  0
   39.0710   33.1740   39.5850 C   0  0  1  0  0  0  0  0  0  0  0  0
   38.8910   33.4120   40.9520 C   0  0  0  0  0  0  0  0  0  0  0  0
   40.1680   32.6750   40.4380 C   0  0  1  0  0  0  0  0  0  0  0  0
   39.2820   33.9810   38.8480 H   0  0  0  0  0  0  0  0  0  0  0  0
   39.1210   34.4500   41.3460 H   0  0  0  0  0  0  0  0  0  0  0  0
   38.2860   32.8720   41.6980 H   0  0  0  0  0  0  0  0  0  0  0  0
   41.0810   33.2790   40.5600 H   0  0  0  0  0  0  0  0  0  0  0  0
   38.3880   31.6440   37.5890 C   0  0  0  0  0  0  0  0  0  0  0  0
   38.1900   32.0940   38.9280 C   0  0  0  0  0  0  0  0  0  0  0  0
   37.1380   31.5430   39.6310 C   0  0  0  0  0  0  0  0  0  0  0  0
   36.3550   30.6230   39.0460 N   0  0  0  0  0  0  0  0  0  0  0  0
   36.5570   30.2040   37.7630 C   0  0  0  0  0  0  0  0  0  0  0  0
   37.6090   30.7390   37.0240 N   0  0  0  0  0  0  0  0  0  0  0  0
   39.2080   32.0620   37.0800 H   0  0  0  0  0  0  0  0  0  0  0  0
   37.0110   31.9010   40.6420 H   0  0  0  0  0  0  0  0  0  0  0  0
   35.8180   29.4720   37.5040 H   0  0  0  0  0  0  0  0  0  0  0  0
   39.4310   29.6430   42.4960 C   0  0  2  0  0  0  0  0  0  0  0  0
   40.0620   28.2040   42.3610 C   0  0  0  0  0  0  0  0  0  0  0  0
   38.8980   28.6660   41.5370 C   0  0  1  0  0  0  0  0  0  0  0  0
   38.9440   29.7290   43.4870 H   0  0  0  0  0  0  0  0  0  0  0  0
   41.0810   28.2150   41.9080 H   0  0  0  0  0  0  0  0  0  0  0  0
   39.9510   27.5240   43.2020 H   0  0  0  0  0  0  0  0  0  0  0  0
   39.0810   28.8680   40.4600 H   0  0  0  0  0  0  0  0  0  0  0  0
   37.5470   28.0580   41.8310 C   0  0  0  0  0  0  0  0  0  0  0  0
   36.6550   28.7790   42.2960 O   0  0  0  0  0  0  0  0  0  0  0  0
   37.3680   26.6270   41.5420 C   0  0  0  0  0  0  0  0  0  0  0  0
   37.7380   25.6410   42.3990 C   0  0  0  0  0  0  0  0  0  0  0  0
   38.1860   25.8330   43.3560 H   0  0  0  0  0  0  0  0  0  0  0  0
   37.6130   24.2820   42.2030 C   0  0  0  0  0  3  0  0  0  0  0  0
   37.0500   23.8340   41.0070 C   0  0  0  0  0  3  0  0  0  0  0  0
   36.6580   24.7790   40.1060 C   0  0  0  0  0  0  0  0  0  0  0  0
   36.1040   24.3220   38.9300 C   0  0  0  0  0  3  0  0  0  0  0  0
   35.6780   25.2210   37.9560 C   0  0  0  0  0  3  0  0  0  0  0  0
   35.8250   26.5830   38.2010 C   0  0  0  0  0  3  0  0  0  0  0  0
   36.3880   26.9580   39.4010 C   0  0  0  0  0  3  0  0  0  0  0  0
   36.8230   26.1160   40.3880 C   0  0  0  0  0  0  0  0  0  0  0  0
  1  2  1  0  0  0  0
  2 21  1  0  0  0  0
  2  3  2  0  0  0  0
  4  1  1  0  0  0  0
  5  8  1  6  0  0  0
  5  7  1  0  0  0  0
  5  6  1  0  0  0  0
  6  9  1  0  0  0  0
  6 10  1  0  0  0  0
  7 11  1  6  0  0  0
  7  1  1  0  0  0  0
  7  6  1  0  0  0  0
 12 13  1  0  0  0  0
 13  5  1  0  0  0  0
 13 14  2  0  0  0  0
 14 19  1  0  0  0  0
 15 14  1  0  0  0  0
 16 15  2  0  0  0  0
 17 12  2  0  0  0  0
 17 16  1  0  0  0  0
 18 12  1  0  0  0  0
 20 16  1  0  0  0  0
 21 24  1  1  0  0  0
 22 21  1  0  0  0  0
 22 26  1  0  0  0  0
 23 27  1  6  0  0  0
 23 28  1  0  0  0  0
 23 22  1  0  0  0  0
 23 21  1  0  0  0  0
 25 22  1  0  0  0  0
 28 29  2  0  0  0  0
 30 28  1  0  0  0  0
 30 31  1  0  0  0  0
 31 32  1  0  0  0  0
 33 31  2  0  0  0  0
 34 33  1  0  0  0  0
 35 40  1  0  0  0  0
 35 34  2  0  0  0  0
 36 35  1  0  0  0  0
 37 38  1  0  0  0  0
 37 36  2  0  0  0  0
 38 39  2  0  0  0  0
 39 40  1  0  0  0  0
 40 30  2  0  0  0  0
M  END
>  <minimizedAffinity>
-5.97521782

$$$$

 OpenBabel03242510243D

 40 44  0  0  1  0  0  0  0  0999 V2000
   40.1590   31.2900   38.3500 N   0  0  0  0  0  0  0  0  0  0  0  0
   38.9290   31.4730   38.9600 C   0  0  0  0  0  0  0  0  0  0  0  0
   38.3460   32.5240   39.3440 O   0  0  0  0  0  0  0  0  0  0  0  0
   40.6640   30.4620   38.7500 H   0  0  0  0  0  0  0  0  0  0  0  0
   41.8460   32.9430   37.6350 C   0  0  1  0  0  0  0  0  0  0  0  0
   42.1180   31.7760   36.9110 C   0  0  0  0  0  0  0  0  0  0  0  0
   40.6530   32.1300   37.3200 C   0  0  1  0  0  0  0  0  0  0  0  0
   41.9350   33.9630   37.2000 H   0  0  0  0  0  0  0  0  0  0  0  0
   42.2890   31.8700   35.7940 H   0  0  0  0  0  0  0  0  0  0  0  0
   42.4930   30.7960   37.2500 H   0  0  0  0  0  0  0  0  0  0  0  0
   40.0260   32.3950   36.4540 H   0  0  0  0  0  0  0  0  0  0  0  0
   41.7850   33.9600   40.0340 C   0  0  0  0  0  0  0  0  0  0  0  0
   42.2610   32.9750   39.1170 C   0  0  0  0  0  0  0  0  0  0  0  0
   43.1560   32.0420   39.6020 C   0  0  0  0  0  0  0  0  0  0  0  0
   43.5370   32.0900   40.8880 N   0  0  0  0  0  0  0  0  0  0  0  0
   43.0730   33.0400   41.7500 C   0  0  0  0  0  0  0  0  0  0  0  0
   42.1700   33.9970   41.2960 N   0  0  0  0  0  0  0  0  0  0  0  0
   41.0880   34.6470   39.6470 H   0  0  0  0  0  0  0  0  0  0  0  0
   43.5000   31.3080   38.8880 H   0  0  0  0  0  0  0  0  0  0  0  0
   43.5090   32.8900   42.7180 H   0  0  0  0  0  0  0  0  0  0  0  0
   38.0580   30.2630   39.2550 C   0  0  2  0  0  0  0  0  0  0  0  0
   37.1340   29.7700   38.0750 C   0  0  0  0  0  0  0  0  0  0  0  0
   36.5950   30.3780   39.3360 C   0  0  1  0  0  0  0  0  0  0  0  0
   38.5430   29.3830   39.7210 H   0  0  0  0  0  0  0  0  0  0  0  0
   37.2160   30.4060   37.1630 H   0  0  0  0  0  0  0  0  0  0  0  0
   37.0950   28.7020   37.8770 H   0  0  0  0  0  0  0  0  0  0  0  0
   36.1680   31.4010   39.2690 H   0  0  0  0  0  0  0  0  0  0  0  0
   35.8690   29.4670   40.2980 C   0  0  0  0  0  0  0  0  0  0  0  0
   34.6450   29.3270   40.1790 O   0  0  0  0  0  0  0  0  0  0  0  0
   36.6690   28.7930   41.3310 C   0  0  0  0  0  0  0  0  0  0  0  0
   37.1570   29.4260   42.4290 C   0  0  0  0  0  0  0  0  0  0  0  0
   36.9900   30.4680   42.6270 H   0  0  0  0  0  0  0  0  0  0  0  0
   37.9180   28.8710   43.4350 C   0  0  0  0  0  3  0  0  0  0  0  0
   38.2420   27.5160   43.3510 C   0  0  0  0  0  3  0  0  0  0  0  0
   37.7800   26.8270   42.2700 C   0  0  0  0  0  0  0  0  0  0  0  0
   38.1080   25.4900   42.2000 C   0  0  0  0  0  3  0  0  0  0  0  0
   37.6760   24.7140   41.1290 C   0  0  0  0  0  3  0  0  0  0  0  0
   36.9090   25.3190   40.1370 C   0  0  0  0  0  3  0  0  0  0  0  0
   36.6250   26.6600   40.2800 C   0  0  0  0  0  3  0  0  0  0  0  0
   37.0260   27.4650   41.3120 C   0  0  0  0  0  0  0  0  0  0  0  0
  1  4  1  0  0  0  0
  1  2  1  0  0  0  0
  2 21  1  0  0  0  0
  2  3  2  0  0  0  0
  5  8  1  6  0  0  0
  5 13  1  0  0  0  0
  6 10  1  0  0  0  0
  6  7  1  0  0  0  0
  6  5  1  0  0  0  0
  7 11  1  6  0  0  0
  7  5  1  0  0  0  0
  7  1  1  0  0  0  0
  9  6  1  0  0  0  0
 12 17  1  0  0  0  0
 13 14  1  0  0  0  0
 13 12  2  0  0  0  0
 14 15  2  0  0  0  0
 15 16  1  0  0  0  0
 16 20  1  0  0  0  0
 17 16  2  0  0  0  0
 18 12  1  0  0  0  0
 19 14  1  0  0  0  0
 21 23  1  0  0  0  0
 21 24  1  1  0  0  0
 22 21  1  0  0  0  0
 22 23  1  0  0  0  0
 23 27  1  6  0  0  0
 23 28  1  0  0  0  0
 25 22  1  0  0  0  0
 26 22  1  0  0  0  0
 28 30  1  0  0  0  0
 29 28  2  0  0  0  0
 30 31  1  0  0  0  0
 31 32  1  0  0  0  0
 31 33  2  0  0  0  0
 34 33  1  0  0  0  0
 35 34  2  0  0  0  0
 36 35  1  0  0  0  0
 37 36  2  0  0  0  0
 38 39  2  0  0  0  0
 38 37  1  0  0  0  0
 39 40  1  0  0  0  0
 40 30  2  0  0  0  0
 40 35  1  0  0  0  0
M  END
>  <minimizedAffinity>
-5.9344368

$$$$

 OpenBabel03242510243D

 40 44  0  0  1  0  0  0  0  0999 V2000
   33.0050   29.3210   36.8550 N   0  0  0  0  0  0  0  0  0  0  0  0
   33.9320   28.5270   37.5120 C   0  0  0  0  0  0  0  0  0  0  0  0
   34.0390   27.2720   37.5840 O   0  0  0  0  0  0  0  0  0  0  0  0
   32.7130   30.1350   37.4470 H   0  0  0  0  0  0  0  0  0  0  0  0
   31.1900   29.5720   35.2030 C   0  0  1  0  0  0  0  0  0  0  0  0
   32.2550   30.3450   34.7260 C   0  0  0  0  0  0  0  0  0  0  0  0
   32.5260   29.0450   35.5490 C   0  0  1  0  0  0  0  0  0  0  0  0
   30.5280   28.9730   34.5390 H   0  0  0  0  0  0  0  0  0  0  0  0
   32.5480   30.2330   33.6360 H   0  0  0  0  0  0  0  0  0  0  0  0
   32.6990   31.2720   35.1230 H   0  0  0  0  0  0  0  0  0  0  0  0
   32.9710   28.2440   34.9390 H   0  0  0  0  0  0  0  0  0  0  0  0
   30.4140   31.5110   36.7610 C   0  0  0  0  0  0  0  0  0  0  0  0
   30.3690   30.1380   36.3760 C   0  0  0  0  0  0  0  0  0  0  0  0
   29.5690   29.2990   37.1250 C   0  0  0  0  0  0  0  0  0  0  0  0
   28.8770   29.7900   38.1640 N   0  0  0  0  0  0  0  0  0  0  0  0
   28.9320   31.1060   38.5190 C   0  0  0  0  0  0  0  0  0  0  0  0
   29.7290   31.9820   37.7870 N   0  0  0  0  0  0  0  0  0  0  0  0
   31.0140   32.1360   36.1630 H   0  0  0  0  0  0  0  0  0  0  0  0
   29.5520   28.2650   36.8120 H   0  0  0  0  0  0  0  0  0  0  0  0
   28.3060   31.2740   39.3730 H   0  0  0  0  0  0  0  0  0  0  0  0
   35.0480   29.1870   38.3030 C   0  0  2  0  0  0  0  0  0  0  0  0
   36.4730   28.5220   38.1770 C   0  0  0  0  0  0  0  0  0  0  0  0
   35.6760   28.5090   39.4460 C   0  0  1  0  0  0  0  0  0  0  0  0
   35.1570   30.2860   38.2170 H   0  0  0  0  0  0  0  0  0  0  0  0
   36.4740   27.6120   37.5310 H   0  0  0  0  0  0  0  0  0  0  0  0
   37.3260   29.1800   38.0260 H   0  0  0  0  0  0  0  0  0  0  0  0
   35.2310   27.5420   39.7620 H   0  0  0  0  0  0  0  0  0  0  0  0
   36.1660   29.3660   40.5900 C   0  0  0  0  0  0  0  0  0  0  0  0
   35.8640   30.5660   40.6090 O   0  0  0  0  0  0  0  0  0  0  0  0
   36.9830   28.7160   41.6250 C   0  0  0  0  0  0  0  0  0  0  0  0
   36.4650   27.9160   42.5920 C   0  0  0  0  0  0  0  0  0  0  0  0
   35.4170   27.6950   42.6710 H   0  0  0  0  0  0  0  0  0  0  0  0
   37.1570   27.2790   43.5990 C   0  0  0  0  0  3  0  0  0  0  0  0
   38.5410   27.4490   43.6640 C   0  0  0  0  0  3  0  0  0  0  0  0
   39.1190   28.2420   42.7180 C   0  0  0  0  0  0  0  0  0  0  0  0
   40.4860   28.4010   42.7940 C   0  0  0  0  0  3  0  0  0  0  0  0
   41.1550   29.1950   41.8670 C   0  0  0  0  0  3  0  0  0  0  0  0
   40.4130   29.8180   40.8680 C   0  0  0  0  0  3  0  0  0  0  0  0
   39.0510   29.6080   40.8610 C   0  0  0  0  0  3  0  0  0  0  0  0
   38.3470   28.8400   41.7480 C   0  0  0  0  0  0  0  0  0  0  0  0
  1  4  1  0  0  0  0
  1  2  1  0  0  0  0
  2  3  2  0  0  0  0
  2 21  1  0  0  0  0
  5  8  1  6  0  0  0
  5  7  1  0  0  0  0
  5 13  1  0  0  0  0
  6 10  1  0  0  0  0
  6  5  1  0  0  0  0
  6  7  1  0  0  0  0
  7 11  1  6  0  0  0
  7  1  1  0  0  0  0
  9  6  1  0  0  0  0
 12 17  1  0  0  0  0
 13 12  2  0  0  0  0
 13 14  1  0  0  0  0
 14 15  2  0  0  0  0
 15 16  1  0  0  0  0
 16 20  1  0  0  0  0
 17 16  2  0  0  0  0
 18 12  1  0  0  0  0
 19 14  1  0  0  0  0
 21 24  1  1  0  0  0
 21 23  1  0  0  0  0
 22 21  1  0  0  0  0
 22 23  1  0  0  0  0
 23 27  1  1  0  0  0
 23 28  1  0  0  0  0
 25 22  1  0  0  0  0
 26 22  1  0  0  0  0
 28 29  2  0  0  0  0
 28 30  1  0  0  0  0
 30 40  2  0  0  0  0
 30 31  1  0  0  0  0
 31 32  1  0  0  0  0
 31 33  2  0  0  0  0
 33 34  1  0  0  0  0
 35 36  1  0  0  0  0
 35 34  2  0  0  0  0
 37 36  2  0  0  0  0
 38 37  1  0  0  0  0
 39 38  2  0  0  0  0
 39 40  1  0  0  0  0
 40 35  1  0  0  0  0
M  END
>  <minimizedAffinity>
-5.89123154

$$$$

 OpenBabel03242510243D

 40 44  0  0  1  0  0  0  0  0999 V2000
   36.9890   30.0940   40.0790 N   0  0  0  0  0  0  0  0  0  0  0  0
   36.3660   29.1750   40.9080 C   0  0  0  0  0  0  0  0  0  0  0  0
   35.1520   28.8490   41.0130 O   0  0  0  0  0  0  0  0  0  0  0  0
   37.7190   30.6410   40.5970 H   0  0  0  0  0  0  0  0  0  0  0  0
   37.3420   31.3530   37.9870 C   0  0  1  0  0  0  0  0  0  0  0  0
   37.9010   30.0870   37.7750 C   0  0  0  0  0  0  0  0  0  0  0  0
   36.6610   30.2590   38.7100 C   0  0  1  0  0  0  0  0  0  0  0  0
   36.7840   31.9120   37.2020 H   0  0  0  0  0  0  0  0  0  0  0  0
   37.6430   29.5460   36.8120 H   0  0  0  0  0  0  0  0  0  0  0  0
   38.7870   29.6130   38.2260 H   0  0  0  0  0  0  0  0  0  0  0  0
   35.7480   29.8110   38.2870 H   0  0  0  0  0  0  0  0  0  0  0  0
   39.5520   32.2900   39.0000 C   0  0  0  0  0  0  0  0  0  0  0  0
   38.1330   32.3430   38.8620 C   0  0  0  0  0  0  0  0  0  0  0  0
   37.4640   33.3150   39.5790 C   0  0  0  0  0  0  0  0  0  0  0  0
   38.1540   34.1580   40.3630 N   0  0  0  0  0  0  0  0  0  0  0  0
   39.5120   34.0930   40.4850 C   0  0  0  0  0  0  0  0  0  0  0  0
   40.2190   33.1250   39.7760 N   0  0  0  0  0  0  0  0  0  0  0  0
   40.0420   31.5560   38.4290 H   0  0  0  0  0  0  0  0  0  0  0  0
   36.3920   33.3330   39.4560 H   0  0  0  0  0  0  0  0  0  0  0  0
   39.8480   34.8560   41.1580 H   0  0  0  0  0  0  0  0  0  0  0  0
   37.2030   28.3710   41.8900 C   0  0  2  0  0  0  0  0  0  0  0  0
   37.7360   29.1550   43.1500 C   0  0  0  0  0  0  0  0  0  0  0  0
   38.6360   28.6400   42.0670 C   0  0  1  0  0  0  0  0  0  0  0  0
   36.8050   27.3910   42.2200 H   0  0  0  0  0  0  0  0  0  0  0  0
   37.4500   30.2330   43.1460 H   0  0  0  0  0  0  0  0  0  0  0  0
   37.6480   28.6710   44.1200 H   0  0  0  0  0  0  0  0  0  0  0  0
   39.0950   29.3860   41.3850 H   0  0  0  0  0  0  0  0  0  0  0  0
   39.5350   27.4720   42.4010 C   0  0  0  0  0  0  0  0  0  0  0  0
   39.9210   27.3310   43.5680 O   0  0  0  0  0  0  0  0  0  0  0  0
   39.9010   26.5620   41.3060 C   0  0  0  0  0  0  0  0  0  0  0  0
   40.9370   26.7920   40.4590 C   0  0  0  0  0  0  0  0  0  0  0  0
   41.5710   27.6560   40.5290 H   0  0  0  0  0  0  0  0  0  0  0  0
   41.3400   25.9960   39.4080 C   0  0  0  0  0  3  0  0  0  0  0  0
   40.6320   24.8200   39.1570 C   0  0  0  0  0  3  0  0  0  0  0  0
   39.5800   24.5360   39.9750 C   0  0  0  0  0  0  0  0  0  0  0  0
   38.8900   23.3710   39.7150 C   0  0  0  0  0  3  0  0  0  0  0  0
   37.8020   23.0060   40.5030 C   0  0  0  0  0  3  0  0  0  0  0  0
   37.4340   23.8420   41.5540 C   0  0  0  0  0  3  0  0  0  0  0  0
   38.1750   24.9870   41.7470 C   0  0  0  0  0  3  0  0  0  0  0  0
   39.2490   25.3900   41.0020 C   0  0  0  0  0  0  0  0  0  0  0  0
  1  4  1  0  0  0  0
  1  2  1  0  0  0  0
  2  3  2  0  0  0  0
  2 21  1  0  0  0  0
  5  8  1  6  0  0  0
  5  7  1  0  0  0  0
  5 13  1  0  0  0  0
  6  5  1  0  0  0  0
  6 10  1  0  0  0  0
  6  7  1  0  0  0  0
  7 11  1  6  0  0  0
  7  1  1  0  0  0  0
  9  6  1  0  0  0  0
 12 17  1  0  0  0  0
 13 12  2  0  0  0  0
 13 14  1  0  0  0  0
 14 15  2  0  0  0  0
 15 16  1  0  0  0  0
 16 20  1  0  0  0  0
 17 16  2  0  0  0  0
 18 12  1  0  0  0  0
 19 14  1  0  0  0  0
 21 23  1  0  0  0  0
 21 24  1  1  0  0  0
 21 22  1  0  0  0  0
 22 26  1  0  0  0  0
 23 27  1  6  0  0  0
 23 28  1  0  0  0  0
 23 22  1  0  0  0  0
 25 22  1  0  0  0  0
 28 29  2  0  0  0  0
 30 28  1  0  0  0  0
 31 32  1  0  0  0  0
 31 30  2  0  0  0  0
 33 31  1  0  0  0  0
 34 33  2  0  0  0  0
 34 35  1  0  0  0  0
 35 40  1  0  0  0  0
 36 35  2  0  0  0  0
 36 37  1  0  0  0  0
 37 38  2  0  0  0  0
 38 39  1  0  0  0  0
 40 30  1  0  0  0  0
 40 39  2  0  0  0  0
M  END
>  <minimizedAffinity>
-5.71544504

$$$$

 OpenBabel03242510243D

 40 44  0  0  1  0  0  0  0  0999 V2000
   36.7950   25.1920   38.4360 N   0  0  0  0  0  0  0  0  0  0  0  0
   35.8630   26.1110   37.9810 C   0  0  0  0  0  0  0  0  0  0  0  0
   35.0090   26.0300   37.0560 O   0  0  0  0  0  0  0  0  0  0  0  0
   37.7160   25.6510   38.6380 H   0  0  0  0  0  0  0  0  0  0  0  0
   36.8250   23.2170   39.9150 C   0  0  1  0  0  0  0  0  0  0  0  0
   35.4760   23.5400   39.7300 C   0  0  0  0  0  0  0  0  0  0  0  0
   36.5170   23.8110   38.5980 C   0  0  1  0  0  0  0  0  0  0  0  0
   37.1990   22.1700   39.9620 H   0  0  0  0  0  0  0  0  0  0  0  0
   34.7590   22.7020   39.4660 H   0  0  0  0  0  0  0  0  0  0  0  0
   34.8970   24.4120   40.0750 H   0  0  0  0  0  0  0  0  0  0  0  0
   36.3710   23.1560   37.7250 H   0  0  0  0  0  0  0  0  0  0  0  0
   37.0480   25.0730   41.7310 C   0  0  0  0  0  0  0  0  0  0  0  0
   37.6450   24.1020   40.8730 C   0  0  0  0  0  0  0  0  0  0  0  0
   39.0210   23.9940   40.9020 C   0  0  0  0  0  0  0  0  0  0  0  0
   39.7340   24.7860   41.7170 N   0  0  0  0  0  0  0  0  0  0  0  0
   39.1470   25.7110   42.5310 C   0  0  0  0  0  0  0  0  0  0  0  0
   37.7610   25.8470   42.5280 N   0  0  0  0  0  0  0  0  0  0  0  0
   35.9970   25.1220   41.7070 H   0  0  0  0  0  0  0  0  0  0  0  0
   39.4460   23.2510   40.2440 H   0  0  0  0  0  0  0  0  0  0  0  0
   39.9020   26.2280   43.0900 H   0  0  0  0  0  0  0  0  0  0  0  0
   35.7760   27.4740   38.6460 C   0  0  2  0  0  0  0  0  0  0  0  0
   36.6820   28.6070   38.0270 C   0  0  0  0  0  0  0  0  0  0  0  0
   36.9120   28.0320   39.3930 C   0  0  1  0  0  0  0  0  0  0  0  0
   34.7660   27.8870   38.8370 H   0  0  0  0  0  0  0  0  0  0  0  0
   37.3100   28.2480   37.1780 H   0  0  0  0  0  0  0  0  0  0  0  0
   36.2310   29.5840   37.8710 H   0  0  0  0  0  0  0  0  0  0  0  0
   37.7960   27.3730   39.5290 H   0  0  0  0  0  0  0  0  0  0  0  0
   36.6090   28.9120   40.5830 C   0  0  0  0  0  0  0  0  0  0  0  0
   35.4710   28.8870   41.0690 O   0  0  0  0  0  0  0  0  0  0  0  0
   37.6960   29.7550   41.1000 C   0  0  0  0  0  0  0  0  0  0  0  0
   38.6230   29.3160   41.9900 C   0  0  0  0  0  0  0  0  0  0  0  0
   38.6330   28.3160   42.3790 H   0  0  0  0  0  0  0  0  0  0  0  0
   39.6640   30.0420   42.5270 C   0  0  0  0  0  3  0  0  0  0  0  0
   39.8140   31.3740   42.1390 C   0  0  0  0  0  3  0  0  0  0  0  0
   38.9130   31.8710   41.2470 C   0  0  0  0  0  0  0  0  0  0  0  0
   39.0730   33.1890   40.8720 C   0  0  0  0  0  3  0  0  0  0  0  0
   38.1950   33.7750   39.9650 C   0  0  0  0  0  3  0  0  0  0  0  0
   37.1590   33.0010   39.4490 C   0  0  0  0  0  3  0  0  0  0  0  0
   37.0680   31.6940   39.8740 C   0  0  0  0  0  3  0  0  0  0  0  0
   37.9030   31.0720   40.7620 C   0  0  0  0  0  0  0  0  0  0  0  0
  1  7  1  0  0  0  0
  1  4  1  0  0  0  0
  2  1  1  0  0  0  0
  2 21  1  0  0  0  0
  3  2  2  0  0  0  0
  5  8  1  1  0  0  0
  5 13  1  0  0  0  0
  6  5  1  0  0  0  0
  6 10  1  0  0  0  0
  7 11  1  6  0  0  0
  7  6  1  0  0  0  0
  7  5  1  0  0  0  0
  9  6  1  0  0  0  0
 12 17  1  0  0  0  0
 13 14  1  0  0  0  0
 13 12  2  0  0  0  0
 14 15  2  0  0  0  0
 15 16  1  0  0  0  0
 16 20  1  0  0  0  0
 17 16  2  0  0  0  0
 18 12  1  0  0  0  0
 19 14  1  0  0  0  0
 21 24  1  1  0  0  0
 21 23  1  0  0  0  0
 22 21  1  0  0  0  0
 22 23  1  0  0  0  0
 23 27  1  1  0  0  0
 23 28  1  0  0  0  0
 25 22  1  0  0  0  0
 26 22  1  0  0  0  0
 28 29  2  0  0  0  0
 28 30  1  0  0  0  0
 30 31  1  0  0  0  0
 31 32  1  0  0  0  0
 31 33  2  0  0  0  0
 34 33  1  0  0  0  0
 35 34  2  0  0  0  0
 36 35  1  0  0  0  0
 37 36  2  0  0  0  0
 38 39  2  0  0  0  0
 38 37  1  0  0  0  0
 39 40  1  0  0  0  0
 40 30  2  0  0  0  0
 40 35  1  0  0  0  0
M  END
>  <minimizedAffinity>
-5.6901083

$$$$
