
 OpenBabel03252507553D

 46 50  0  0  1  0  0  0  0  0999 V2000
   48.9290   32.1500   40.5320 C   0  0  2  0  0  0  0  0  0  0  0  0
   49.6640   31.5590   41.6410 C   0  0  0  0  0  0  0  0  0  0  0  0
   50.3290   31.7840   40.3200 C   0  0  1  0  0  0  0  0  0  0  0  0
   48.1650   31.5260   40.0330 H   0  0  0  0  0  0  0  0  0  0  0  0
   50.0550   32.2340   42.4430 H   0  0  0  0  0  0  0  0  0  0  0  0
   49.5510   30.5070   41.9760 H   0  0  0  0  0  0  0  0  0  0  0  0
   50.9930   32.6160   40.0780 H   0  0  0  0  0  0  0  0  0  0  0  0
   46.9860   34.8180   41.9750 C   0  0  2  0  0  0  0  0  0  0  0  0
   46.1800   34.2270   40.8140 C   0  0  0  0  0  0  0  0  0  0  0  0
   47.3580   34.0090   39.8390 C   0  0  0  0  0  0  0  0  0  0  0  0
   48.5030   33.5890   40.7100 C   0  0  1  0  0  0  0  0  0  0  0  0
   48.0240   33.7410   42.1230 C   0  0  0  0  0  0  0  0  0  0  0  0
   47.4660   35.7580   41.6640 H   0  0  0  0  0  0  0  0  0  0  0  0
   45.7890   33.2660   41.1590 H   0  0  0  0  0  0  0  0  0  0  0  0
   45.4530   34.9250   40.3980 H   0  0  0  0  0  0  0  0  0  0  0  0
   47.0750   33.2450   39.0910 H   0  0  0  0  0  0  0  0  0  0  0  0
   47.6070   34.9710   39.3600 H   0  0  0  0  0  0  0  0  0  0  0  0
   49.4030   34.2360   40.5760 H   0  0  0  0  0  0  0  0  0  0  0  0
   47.5490   32.8040   42.4740 H   0  0  0  0  0  0  0  0  0  0  0  0
   48.8300   33.9970   42.8410 H   0  0  0  0  0  0  0  0  0  0  0  0
   44.5140   36.0300   44.5420 C   0  0  0  0  0  0  0  0  0  0  0  0
   45.2290   35.9990   43.3520 C   0  0  0  0  0  0  0  0  0  0  0  0
   46.1390   34.9540   43.1910 C   0  0  0  0  0  0  0  0  0  0  0  0
   46.3040   33.9970   44.2000 N   0  0  0  0  0  0  0  0  0  0  0  0
   45.5740   34.0840   45.3420 C   0  0  0  0  0  0  0  0  0  0  0  0
   44.6830   35.0970   45.5100 N   0  0  0  0  0  0  0  0  0  0  0  0
   43.8030   36.8340   44.6830 H   0  0  0  0  0  0  0  0  0  0  0  0
   45.1230   36.7230   42.5590 H   0  0  0  0  0  0  0  0  0  0  0  0
   45.7810   33.2940   46.0510 H   0  0  0  0  0  0  0  0  0  0  0  0
   50.5860   30.6410   39.5220 O   0  0  0  0  0  0  0  0  0  0  0  0
   51.8670   29.9550   37.3550 O   0  0  0  0  0  0  0  0  0  0  0  0
   51.7480   31.0550   38.3800 P   0  0  1  0  0  0  0  0  0  0  0  0
   51.2770   32.4830   37.5560 O   0  0  0  0  0  0  0  0  0  0  0  0
   50.7940   32.2460   36.7330 H   0  0  0  0  0  0  0  0  0  0  0  0
   53.2560   31.3450   39.0180 O   0  0  0  0  0  0  0  0  0  0  0  0
   54.3690   30.7850   38.4100 C   0  0  0  0  0  0  0  0  0  0  0  0
   54.8720   31.0860   37.1630 C   0  0  0  0  0  0  0  0  0  0  0  0
   54.3350   31.8380   36.6050 H   0  0  0  0  0  0  0  0  0  0  0  0
   55.9920   30.4590   36.6610 C   0  0  0  0  0  3  0  0  0  0  0  0
   56.6650   29.4880   37.4070 C   0  0  0  0  0  3  0  0  0  0  0  0
   56.1760   29.1750   38.6580 C   0  0  0  0  0  0  0  0  0  0  0  0
   56.8310   28.2120   39.4160 C   0  0  0  0  0  3  0  0  0  0  0  0
   56.3690   27.8670   40.6860 C   0  0  0  0  0  3  0  0  0  0  0  0
   55.2370   28.5020   41.1870 C   0  0  0  0  0  3  0  0  0  0  0  0
   54.6320   29.4450   40.3950 C   0  0  0  0  0  3  0  0  0  0  0  0
   55.0490   29.8190   39.1370 C   0  0  0  0  0  0  0  0  0  0  0  0
  1  4  1  6  0  0  0
  1 11  1  0  0  0  0
  1  2  1  0  0  0  0
  2  6  1  0  0  0  0
  2  5  1  0  0  0  0
  3  7  1  6  0  0  0
  3  1  1  0  0  0  0
  3  2  1  0  0  0  0
  8 13  1  6  0  0  0
  8 12  1  0  0  0  0
  8 23  1  0  0  0  0
  9 14  1  0  0  0  0
  9  8  1  0  0  0  0
 10 11  1  0  0  0  0
 10  9  1  0  0  0  0
 11 18  1  6  0  0  0
 11 12  1  0  0  0  0
 12 19  1  0  0  0  0
 12 20  1  0  0  0  0
 15  9  1  0  0  0  0
 16 10  1  0  0  0  0
 17 10  1  0  0  0  0
 21 27  1  0  0  0  0
 21 26  1  0  0  0  0
 22 21  2  0  0  0  0
 23 22  1  0  0  0  0
 23 24  2  0  0  0  0
 24 25  1  0  0  0  0
 25 26  2  0  0  0  0
 25 29  1  0  0  0  0
 28 22  1  0  0  0  0
 30  3  1  0  0  0  0
 32 31  2  6  0  0  0
 32 35  1  0  0  0  0
 32 30  1  0  0  0  0
 33 32  1  0  0  0  0
 34 33  1  0  0  0  0
 36 35  1  0  0  0  0
 36 46  1  0  0  0  0
 37 36  2  0  0  0  0
 38 37  1  0  0  0  0
 39 37  1  0  0  0  0
 39 40  2  0  0  0  0
 40 41  1  0  0  0  0
 41 46  2  0  0  0  0
 41 42  1  0  0  0  0
 42 43  2  0  0  0  0
 43 44  1  0  0  0  0
 45 44  2  0  0  0  0
 46 45  1  0  0  0  0
M  END
>  <minimizedAffinity>
-5.76089859

>  <minimizedRMSD>
2.02565169

$$$$
