
 OpenBabel03242519413D

 31 33  0  0  0  0  0  0  0  0999 V2000
   47.9830   32.8690   41.6630 O   0  0  0  0  0  0  0  0  0  0  0  0
   47.1040   34.0770   41.2420 P   0  0  2  0  0  0  0  0  0  0  0  0
   45.5260   33.8530   41.8820 O   0  0  0  0  0  0  0  0  0  0  0  0
   44.4110   35.9050   44.6770 C   0  0  0  0  0  0  0  0  0  0  0  0
   44.6620   35.4780   43.3520 C   0  0  0  0  0  0  0  0  0  0  0  0
   45.2950   34.2370   43.1850 C   0  0  0  0  0  0  0  0  0  0  0  0
   45.6240   33.5260   44.2810 N   0  0  0  0  0  0  0  0  0  0  0  0
   45.3700   33.9610   45.5350 C   0  0  0  0  0  0  0  0  0  0  0  0
   44.7670   35.1440   45.7420 N   0  0  0  0  0  0  0  0  0  0  0  0
   43.9240   36.8610   44.8140 H   0  0  0  0  0  0  0  0  0  0  0  0
   44.3590   36.1190   42.5480 H   0  0  0  0  0  0  0  0  0  0  0  0
   45.6690   33.3260   46.3760 H   0  0  0  0  0  0  0  0  0  0  0  0
   47.0060   34.1250   39.5870 O   0  0  0  0  0  0  0  0  0  0  0  0
   47.0010   33.1140   38.6800 C   0  0  0  0  0  0  0  0  0  0  0  0
   46.4350   33.3620   37.4730 O   0  0  0  0  0  0  0  0  0  0  0  0
   47.4000   31.7120   38.4130 C   0  0  0  0  0  0  0  0  0  0  0  0
   46.4440   30.6730   38.4720 C   0  0  0  0  0  0  0  0  0  0  0  0
   45.3950   31.0380   38.5830 H   0  0  0  0  0  0  0  0  0  0  0  0
   46.5690   29.3100   38.4190 C   0  0  0  0  0  3  0  0  0  0  0  0
   47.8870   28.9510   38.2830 C   0  0  0  0  0  3  0  0  0  0  0  0
   48.8830   29.8930   38.2150 C   0  0  0  0  0  0  0  0  0  0  0  0
   50.1940   29.5060   38.0370 C   0  0  0  0  0  3  0  0  0  0  0  0
   51.2970   30.3240   37.9090 C   0  0  0  0  0  3  0  0  0  0  0  0
   51.0070   31.6930   37.9740 C   0  0  0  0  0  3  0  0  0  0  0  0
   49.7100   32.1080   38.1520 C   0  0  0  0  0  3  0  0  0  0  0  0
   48.6460   31.2640   38.2780 C   0  0  0  0  0  0  0  0  0  0  0  0
   47.7760   35.4230   41.9380 O   0  0  0  0  0  0  0  0  0  0  0  0
   49.0250   35.7260   41.4130 C   0  0  0  0  0  0  0  0  0  0  0  0
   49.4460   36.9990   41.7520 F   0  0  0  0  0  0  0  0  0  0  0  0
   49.9260   34.7640   41.7370 F   0  0  0  0  0  0  0  0  0  0  0  0
   48.8720   35.7240   40.0280 F   0  0  0  0  0  0  0  0  0  0  0  0
  2  1  2  1  0  0  0
  2  3  1  0  0  0  0
  2 27  1  0  0  0  0
  3  6  1  0  0  0  0
  4 10  1  0  0  0  0
  4  9  1  0  0  0  0
  5  4  2  0  0  0  0
  6  5  1  0  0  0  0
  6  7  2  0  0  0  0
  7  8  1  0  0  0  0
  8  9  2  0  0  0  0
  8 12  1  0  0  0  0
 11  5  1  0  0  0  0
 13  2  1  0  0  0  0
 14 13  1  0  0  0  0
 15 14  2  0  0  0  0
 16 17  1  0  0  0  0
 16 14  1  0  0  0  0
 17 18  1  0  0  0  0
 19 17  2  0  0  0  0
 20 19  1  0  0  0  0
 21 26  1  0  0  0  0
 21 20  2  0  0  0  0
 22 21  1  0  0  0  0
 23 24  1  0  0  0  0
 23 22  2  0  0  0  0
 24 25  2  0  0  0  0
 25 26  1  0  0  0  0
 26 16  2  0  0  0  0
 28 30  1  0  0  0  0
 28 29  1  0  0  0  0
 28 27  1  0  0  0  0
 31 28  1  0  0  0  0
M  END
>  <minimizedAffinity>
-5.14856482

>  <minimizedRMSD>
2.27205348

$$$$
