
 OpenBabel03252505113D

 46 50  0  0  1  0  0  0  0  0999 V2000
   44.5930   35.5960   44.6460 C   0  0  0  0  0  0  0  0  0  0  0  0
   45.2160   35.5700   43.3830 C   0  0  0  0  0  0  0  0  0  0  0  0
   46.2810   34.6260   43.1880 C   0  0  0  0  0  0  0  0  0  0  0  0
   46.6250   33.8230   44.2130 N   0  0  0  0  0  0  0  0  0  0  0  0
   46.0100   33.8760   45.4030 C   0  0  0  0  0  0  0  0  0  0  0  0
   44.9840   34.7660   45.6300 N   0  0  0  0  0  0  0  0  0  0  0  0
   43.7850   36.3010   44.8200 H   0  0  0  0  0  0  0  0  0  0  0  0
   44.9070   36.2320   42.5930 H   0  0  0  0  0  0  0  0  0  0  0  0
   46.4320   32.9700   46.4980 C   0  0  2  0  0  0  0  0  0  0  0  0
   46.9750   31.7420   45.8020 C   0  0  0  0  0  0  0  0  0  0  0  0
   46.1160   30.5470   45.8150 C   0  0  0  0  0  0  0  0  0  0  0  0
   45.8270   30.2900   47.2960 C   0  0  0  0  0  0  0  0  0  0  0  0
   45.0280   31.3440   47.9070 C   0  0  0  0  0  0  0  0  0  0  0  0
   45.3910   32.7170   47.4480 C   0  0  0  0  0  0  0  0  0  0  0  0
   47.2790   33.5090   47.0000 H   0  0  0  0  0  0  0  0  0  0  0  0
   47.2660   31.9340   44.7450 H   0  0  0  0  0  0  0  0  0  0  0  0
   47.9300   31.4740   46.3050 H   0  0  0  0  0  0  0  0  0  0  0  0
   46.7320   29.6890   45.4940 H   0  0  0  0  0  0  0  0  0  0  0  0
   45.1930   30.5780   45.2370 H   0  0  0  0  0  0  0  0  0  0  0  0
   45.1710   29.3830   47.2830 H   0  0  0  0  0  0  0  0  0  0  0  0
   46.7500   30.0070   47.8220 H   0  0  0  0  0  0  0  0  0  0  0  0
   44.2450   31.3220   48.6060 H   0  0  0  0  0  0  0  0  0  0  0  0
   44.6870   33.8560   47.9580 N   0  0  0  0  0  0  0  0  0  0  0  0
   43.6930   34.2200   47.8620 H   0  0  0  0  0  0  0  0  0  0  0  0
   45.1200   34.5880   48.5850 H   0  0  0  0  0  0  0  0  0  0  0  0
   46.9400   34.5730   41.8920 C   0  0  0  0  0  0  0  0  0  0  0  0
   48.0490   35.3210   41.7000 C   0  0  0  0  0  0  0  0  0  0  0  0
   48.6480   35.2350   40.4330 C   0  0  0  0  0  0  0  0  0  0  0  0
   48.0500   34.4050   39.5250 C   0  0  0  0  0  0  0  0  0  0  0  0
   46.9220   33.6360   39.7030 C   0  0  0  0  0  0  0  0  0  0  0  0
   46.3980   33.7770   40.9660 N   0  0  0  0  0  0  0  0  0  0  0  0
   48.4270   35.9390   42.4980 H   0  0  0  0  0  0  0  0  0  0  0  0
   49.5240   35.8100   40.2450 H   0  0  0  0  0  0  0  0  0  0  0  0
   48.5590   34.3960   38.5700 H   0  0  0  0  0  0  0  0  0  0  0  0
   46.3580   32.8190   38.7540 O   0  0  0  0  0  0  0  0  0  0  0  0
   46.9320   32.6730   37.5150 C   0  0  0  0  0  0  0  0  0  0  0  0
   48.2710   33.0820   37.5070 C   0  0  0  0  0  0  0  0  0  0  0  0
   48.8110   33.4730   38.3650 H   0  0  0  0  0  0  0  0  0  0  0  0
   49.0300   33.0110   36.3360 C   0  0  0  0  0  0  0  0  0  0  0  0
   48.5040   32.5400   35.1480 C   0  0  0  0  0  0  0  0  0  0  0  0
   47.1830   32.1440   35.1850 C   0  0  0  0  0  0  0  0  0  0  0  0
   46.5480   31.6720   34.0540 C   0  0  0  0  0  0  0  0  0  0  0  0
   45.2120   31.2930   34.1090 C   0  0  0  0  0  0  0  0  0  0  0  0
   44.4640   31.3670   35.2670 C   0  0  0  0  0  0  0  0  0  0  0  0
   45.0920   31.8370   36.3990 C   0  0  0  0  0  0  0  0  0  0  0  0
   46.4150   32.2060   36.3260 C   0  0  0  0  0  0  0  0  0  0  0  0
  1  7  1  0  0  0  0
  1  6  1  0  0  0  0
  2  1  2  0  0  0  0
  3  2  1  0  0  0  0
  3  4  2  0  0  0  0
  4  5  1  0  0  0  0
  5  6  2  0  0  0  0
  5  9  1  0  0  0  0
  8  2  1  0  0  0  0
  9 15  1  1  0  0  0
  9 14  1  0  0  0  0
 10 11  1  0  0  0  0
 10 17  1  0  0  0  0
 10  9  1  0  0  0  0
 11 12  1  0  0  0  0
 12 21  1  0  0  0  0
 12 13  1  0  0  0  0
 13 22  1  0  0  0  0
 14 13  2  0  0  0  0
 14 23  1  0  0  0  0
 16 10  1  0  0  0  0
 18 11  1  0  0  0  0
 19 11  1  0  0  0  0
 20 12  1  0  0  0  0
 23 25  1  0  0  0  0
 24 23  1  0  0  0  0
 26  3  1  0  0  0  0
 27 26  1  0  0  0  0
 27 32  1  0  0  0  0
 28 27  2  0  0  0  0
 29 30  2  0  0  0  0
 29 28  1  0  0  0  0
 30 31  1  0  0  0  0
 31 26  2  0  0  0  0
 33 28  1  0  0  0  0
 34 29  1  0  0  0  0
 35 30  1  0  0  0  0
 36 35  1  0  0  0  0
 37 36  1  0  0  0  0
 37 38  1  0  0  0  0
 39 37  2  0  0  0  0
 40 41  2  0  0  0  0
 40 39  1  0  0  0  0
 41 46  1  0  0  0  0
 42 43  2  0  0  0  0
 42 41  1  0  0  0  0
 43 44  1  0  0  0  0
 44 45  2  0  0  0  0
 46 45  1  0  0  0  0
 46 36  2  0  0  0  0
M  END
>  <minimizedAffinity>
-7.88569498

>  <minimizedRMSD>
0.306380421

$$$$
