
 OpenBabel03252504313D

 35 37  0  0  0  0  0  0  0  0999 V2000
   37.1250   30.0880   37.9870 C   0  0  0  0  0  0  0  0  0  0  0  0
   37.3420   29.2820   38.6940 H   0  0  0  0  0  0  0  0  0  0  0  0
   37.9860   30.3790   37.3600 H   0  0  0  0  0  0  0  0  0  0  0  0
   34.7890   29.2200   37.5240 C   0  0  0  0  0  3  0  0  0  0  0  0
   36.0130   29.5610   37.1050 C   0  0  0  0  0  3  0  0  0  0  0  0
   33.8970   28.7610   36.5650 O   0  0  0  0  0  0  0  0  0  0  0  0
   32.5540   28.5070   36.7080 C   0  0  0  0  0  0  0  0  0  0  0  0
   32.2400   27.9600   35.7600 H   0  0  0  0  0  0  0  0  0  0  0  0
   32.2580   27.8490   37.5380 H   0  0  0  0  0  0  0  0  0  0  0  0
   31.0020   29.9500   37.8690 C   0  0  0  0  0  0  0  0  0  0  0  0
   31.7140   29.7330   36.6750 C   0  0  0  0  0  0  0  0  0  0  0  0
   31.5760   30.6330   35.6640 C   0  0  0  0  0  0  0  0  0  0  0  0
   30.7560   31.6800   35.8910 N   0  0  0  0  0  0  0  0  0  0  0  0
   30.0810   31.8960   37.0110 C   0  0  0  0  0  0  0  0  0  0  0  0
   30.1800   31.0130   38.0750 N   0  0  0  0  0  0  0  0  0  0  0  0
   31.0300   29.3050   38.7410 H   0  0  0  0  0  0  0  0  0  0  0  0
   32.1370   30.4140   34.7910 H   0  0  0  0  0  0  0  0  0  0  0  0
   29.4390   32.7600   37.1240 H   0  0  0  0  0  0  0  0  0  0  0  0
   36.6250   31.1580   38.6820 O   0  0  0  0  0  0  0  0  0  0  0  0
   37.8990   32.2180   40.7610 O   0  0  0  0  0  0  0  0  0  0  0  0
   37.0200   31.0780   40.3500 P   0  0  1  0  0  0  0  0  0  0  0  0
   35.5600   31.1640   41.2420 O   0  0  0  0  0  0  0  0  0  0  0  0
   34.9730   30.4440   40.8710 H   0  0  0  0  0  0  0  0  0  0  0  0
   37.6990   29.6000   40.6640 O   0  0  0  0  0  0  0  0  0  0  0  0
   37.5130   28.5630   41.4230 C   0  0  0  0  0  0  0  0  0  0  0  0
   37.6280   29.0580   42.7460 C   0  0  0  0  0  0  0  0  0  0  0  0
   37.8270   30.0690   43.1350 H   0  0  0  0  0  0  0  0  0  0  0  0
   37.4940   28.2630   43.8840 C   0  0  0  0  0  3  0  0  0  0  0  0
   37.2330   26.9090   43.6820 C   0  0  0  0  0  3  0  0  0  0  0  0
   37.1080   26.3540   42.4300 C   0  0  0  0  0  0  0  0  0  0  0  0
   36.8510   25.0300   42.1480 C   0  0  0  0  0  3  0  0  0  0  0  0
   36.7390   24.5490   40.8580 C   0  0  0  0  0  3  0  0  0  0  0  0
   36.8960   25.4600   39.8050 C   0  0  0  0  0  3  0  0  0  0  0  0
   37.1520   26.7740   40.1060 C   0  0  0  0  0  3  0  0  0  0  0  0
   37.2560   27.2210   41.3960 C   0  0  0  0  0  0  0  0  0  0  0  0
  1 19  1  0  0  0  0
  1  2  1  0  0  0  0
  3  1  1  0  0  0  0
  5  4  2  0  0  0  0
  5  1  1  0  0  0  0
  6  7  1  0  0  0  0
  6  4  1  0  0  0  0
  7  9  1  0  0  0  0
  8  7  1  0  0  0  0
 10 15  1  0  0  0  0
 10 16  1  0  0  0  0
 11  7  1  0  0  0  0
 11 10  2  0  0  0  0
 12 13  2  0  0  0  0
 12 11  1  0  0  0  0
 13 14  1  0  0  0  0
 14 18  1  0  0  0  0
 14 15  2  0  0  0  0
 17 12  1  0  0  0  0
 19 21  1  0  0  0  0
 21 24  1  0  0  0  0
 21 20  2  1  0  0  0
 21 22  1  0  0  0  0
 23 22  1  0  0  0  0
 24 25  1  0  0  0  0
 25 26  1  0  0  0  0
 26 27  1  0  0  0  0
 26 28  2  0  0  0  0
 29 28  1  0  0  0  0
 30 29  2  0  0  0  0
 31 30  1  0  0  0  0
 32 31  2  0  0  0  0
 33 34  2  0  0  0  0
 33 32  1  0  0  0  0
 34 35  1  0  0  0  0
 35 25  2  0  0  0  0
 35 30  1  0  0  0  0
M  END
>  <minimizedAffinity>
-5.94291401

$$$$

 OpenBabel03252504313D

 35 37  0  0  0  0  0  0  0  0999 V2000
   37.3930   30.6830   37.8930 C   0  0  0  0  0  0  0  0  0  0  0  0
   36.8520   30.4660   36.9680 H   0  0  0  0  0  0  0  0  0  0  0  0
   37.8310   29.7920   38.3770 H   0  0  0  0  0  0  0  0  0  0  0  0
   39.8050   31.4470   37.7280 C   0  0  0  0  0  3  0  0  0  0  0  0
   38.5000   31.6370   37.4980 C   0  0  0  0  0  3  0  0  0  0  0  0
   40.6750   32.4330   37.2830 O   0  0  0  0  0  0  0  0  0  0  0  0
   41.9990   32.6060   37.6120 C   0  0  0  0  0  0  0  0  0  0  0  0
   42.3850   31.5720   37.8930 H   0  0  0  0  0  0  0  0  0  0  0  0
   42.6680   32.9600   36.8130 H   0  0  0  0  0  0  0  0  0  0  0  0
   43.5370   33.3920   39.3000 C   0  0  0  0  0  0  0  0  0  0  0  0
   42.2010   33.3850   38.8610 C   0  0  0  0  0  0  0  0  0  0  0  0
   41.2760   34.0730   39.5840 C   0  0  0  0  0  0  0  0  0  0  0  0
   41.7200   34.7170   40.6820 N   0  0  0  0  0  0  0  0  0  0  0  0
   42.9770   34.7320   41.1060 C   0  0  0  0  0  0  0  0  0  0  0  0
   43.9630   34.0490   40.4110 N   0  0  0  0  0  0  0  0  0  0  0  0
   44.3600   32.8830   38.8100 H   0  0  0  0  0  0  0  0  0  0  0  0
   40.2870   34.0280   39.2020 H   0  0  0  0  0  0  0  0  0  0  0  0
   43.2630   35.2730   41.9990 H   0  0  0  0  0  0  0  0  0  0  0  0
   36.5560   31.3580   38.7430 O   0  0  0  0  0  0  0  0  0  0  0  0
   37.9050   32.1970   40.8760 O   0  0  0  0  0  0  0  0  0  0  0  0
   36.9870   31.1200   40.3880 P   0  0  1  0  0  0  0  0  0  0  0  0
   35.5510   31.1600   41.3200 O   0  0  0  0  0  0  0  0  0  0  0  0
   34.9370   30.4900   40.9020 H   0  0  0  0  0  0  0  0  0  0  0  0
   37.6350   29.6040   40.5520 O   0  0  0  0  0  0  0  0  0  0  0  0
   37.5180   28.5510   41.3020 C   0  0  0  0  0  0  0  0  0  0  0  0
   37.7690   29.0140   42.6180 C   0  0  0  0  0  0  0  0  0  0  0  0
   38.0140   30.0140   43.0080 H   0  0  0  0  0  0  0  0  0  0  0  0
   37.7440   28.1940   43.7460 C   0  0  0  0  0  3  0  0  0  0  0  0
   37.4540   26.8460   43.5400 C   0  0  0  0  0  3  0  0  0  0  0  0
   37.1990   26.3210   42.2950 C   0  0  0  0  0  0  0  0  0  0  0  0
   36.9040   25.0060   42.0110 C   0  0  0  0  0  3  0  0  0  0  0  0
   36.6600   24.5560   40.7280 C   0  0  0  0  0  3  0  0  0  0  0  0
   36.7170   25.4900   39.6850 C   0  0  0  0  0  3  0  0  0  0  0  0
   37.0120   26.7940   39.9880 C   0  0  0  0  0  3  0  0  0  0  0  0
   37.2490   27.2110   41.2710 C   0  0  0  0  0  0  0  0  0  0  0  0
  1  3  1  0  0  0  0
  1 19  1  0  0  0  0
  2  1  1  0  0  0  0
  5  4  2  0  0  0  0
  5  1  1  0  0  0  0
  6  7  1  0  0  0  0
  6  4  1  0  0  0  0
  7  8  1  0  0  0  0
  7 11  1  0  0  0  0
  9  7  1  0  0  0  0
 10 15  1  0  0  0  0
 11 10  2  0  0  0  0
 11 12  1  0  0  0  0
 12 13  2  0  0  0  0
 13 14  1  0  0  0  0
 14 18  1  0  0  0  0
 15 14  2  0  0  0  0
 16 10  1  0  0  0  0
 17 12  1  0  0  0  0
 19 21  1  0  0  0  0
 21 24  1  0  0  0  0
 21 20  2  1  0  0  0
 21 22  1  0  0  0  0
 23 22  1  0  0  0  0
 24 25  1  0  0  0  0
 25 26  1  0  0  0  0
 26 27  1  0  0  0  0
 26 28  2  0  0  0  0
 29 28  1  0  0  0  0
 30 29  2  0  0  0  0
 31 30  1  0  0  0  0
 32 31  2  0  0  0  0
 33 34  2  0  0  0  0
 33 32  1  0  0  0  0
 34 35  1  0  0  0  0
 35 25  2  0  0  0  0
 35 30  1  0  0  0  0
M  END
>  <minimizedAffinity>
-5.86628246

$$$$

 OpenBabel03252504313D

 35 37  0  0  0  0  0  0  0  0999 V2000
   37.6450   31.2460   39.3120 C   0  0  0  0  0  0  0  0  0  0  0  0
   37.4500   30.7000   38.3840 H   0  0  0  0  0  0  0  0  0  0  0  0
   36.8820   32.0050   39.5560 H   0  0  0  0  0  0  0  0  0  0  0  0
   36.9180   30.1980   41.5030 C   0  0  0  0  0  3  0  0  0  0  0  0
   37.6760   30.1930   40.3990 C   0  0  0  0  0  3  0  0  0  0  0  0
   37.0820   29.1390   42.3860 O   0  0  0  0  0  0  0  0  0  0  0  0
   36.6780   27.8350   42.2300 C   0  0  0  0  0  0  0  0  0  0  0  0
   35.8890   27.6570   43.0330 H   0  0  0  0  0  0  0  0  0  0  0  0
   36.1900   27.5760   41.2790 H   0  0  0  0  0  0  0  0  0  0  0  0
   38.6620   27.3300   43.5130 C   0  0  0  0  0  0  0  0  0  0  0  0
   37.7310   26.8450   42.5770 C   0  0  0  0  0  0  0  0  0  0  0  0
   37.8750   25.5720   42.1170 C   0  0  0  0  0  0  0  0  0  0  0  0
   38.9150   24.8650   42.6030 N   0  0  0  0  0  0  0  0  0  0  0  0
   39.7990   25.3110   43.4860 C   0  0  0  0  0  0  0  0  0  0  0  0
   39.7040   26.5980   43.9890 N   0  0  0  0  0  0  0  0  0  0  0  0
   38.6520   28.3230   43.9500 H   0  0  0  0  0  0  0  0  0  0  0  0
   37.1420   25.2660   41.4140 H   0  0  0  0  0  0  0  0  0  0  0  0
   40.6110   24.6860   43.8330 H   0  0  0  0  0  0  0  0  0  0  0  0
   38.8980   31.7970   39.2410 O   0  0  0  0  0  0  0  0  0  0  0  0
   37.6710   34.0790   39.8400 O   0  0  0  0  0  0  0  0  0  0  0  0
   38.9630   33.3390   39.9930 P   0  0  1  0  0  0  0  0  0  0  0  0
   39.2620   33.0970   41.6620 O   0  0  0  0  0  0  0  0  0  0  0  0
   40.0800   32.5240   41.7120 H   0  0  0  0  0  0  0  0  0  0  0  0
   40.2550   34.1740   39.3810 O   0  0  0  0  0  0  0  0  0  0  0  0
   41.5400   34.0500   39.2370 C   0  0  0  0  0  0  0  0  0  0  0  0
   41.7080   33.5330   37.9290 C   0  0  0  0  0  0  0  0  0  0  0  0
   40.9800   33.2660   37.1470 H   0  0  0  0  0  0  0  0  0  0  0  0
   42.9510   33.2470   37.3630 C   0  0  0  0  0  3  0  0  0  0  0  0
   44.0740   33.4930   38.1500 C   0  0  0  0  0  3  0  0  0  0  0  0
   43.9930   33.9950   39.4280 C   0  0  0  0  0  0  0  0  0  0  0  0
   45.0530   34.2650   40.2650 C   0  0  0  0  0  3  0  0  0  0  0  0
   44.8870   34.7700   41.5400 C   0  0  0  0  0  3  0  0  0  0  0  0
   43.5800   35.0110   41.9830 C   0  0  0  0  0  3  0  0  0  0  0  0
   42.5380   34.7350   41.1350 C   0  0  0  0  0  3  0  0  0  0  0  0
   42.7340   34.2360   39.8750 C   0  0  0  0  0  0  0  0  0  0  0  0
  1  3  1  0  0  0  0
  1  5  1  0  0  0  0
  2  1  1  0  0  0  0
  4  6  1  0  0  0  0
  5  4  2  0  0  0  0
  7  6  1  0  0  0  0
  7 11  1  0  0  0  0
  7  8  1  0  0  0  0
  9  7  1  0  0  0  0
 10 16  1  0  0  0  0
 10 15  1  0  0  0  0
 11 10  2  0  0  0  0
 12 11  1  0  0  0  0
 12 13  2  0  0  0  0
 13 14  1  0  0  0  0
 14 18  1  0  0  0  0
 14 15  2  0  0  0  0
 17 12  1  0  0  0  0
 19  1  1  0  0  0  0
 19 21  1  0  0  0  0
 21 20  2  6  0  0  0
 21 22  1  0  0  0  0
 22 23  1  0  0  0  0
 24 21  1  0  0  0  0
 25 24  1  0  0  0  0
 25 35  1  0  0  0  0
 26 25  2  0  0  0  0
 27 26  1  0  0  0  0
 28 26  1  0  0  0  0
 28 29  2  0  0  0  0
 29 30  1  0  0  0  0
 30 35  2  0  0  0  0
 30 31  1  0  0  0  0
 31 32  2  0  0  0  0
 32 33  1  0  0  0  0
 34 33  2  0  0  0  0
 35 34  1  0  0  0  0
M  END
>  <minimizedAffinity>
-5.43102741

$$$$

 OpenBabel03252504313D

 35 37  0  0  0  0  0  0  0  0999 V2000
   37.3140   31.3450   38.2690 C   0  0  0  0  0  0  0  0  0  0  0  0
   37.3690   31.0570   37.2150 H   0  0  0  0  0  0  0  0  0  0  0  0
   36.6080   32.1700   38.4730 H   0  0  0  0  0  0  0  0  0  0  0  0
   37.5450   28.9520   39.0710 C   0  0  0  0  0  3  0  0  0  0  0  0
   36.8620   30.1010   39.0030 C   0  0  0  0  0  3  0  0  0  0  0  0
   36.9720   27.9180   39.7990 O   0  0  0  0  0  0  0  0  0  0  0  0
   36.8450   26.5980   39.4390 C   0  0  0  0  0  0  0  0  0  0  0  0
   35.7400   26.3490   39.5620 H   0  0  0  0  0  0  0  0  0  0  0  0
   37.0880   26.3400   38.3980 H   0  0  0  0  0  0  0  0  0  0  0  0
   38.9020   25.6440   40.2710 C   0  0  0  0  0  0  0  0  0  0  0  0
   37.5010   25.6610   40.3880 C   0  0  0  0  0  0  0  0  0  0  0  0
   36.9180   24.8630   41.3240 C   0  0  0  0  0  0  0  0  0  0  0  0
   37.7430   24.1100   42.0780 N   0  0  0  0  0  0  0  0  0  0  0  0
   39.0660   24.0860   41.9780 C   0  0  0  0  0  0  0  0  0  0  0  0
   39.7160   24.8750   41.0430 N   0  0  0  0  0  0  0  0  0  0  0  0
   39.4790   26.2320   39.5650 H   0  0  0  0  0  0  0  0  0  0  0  0
   35.8590   24.9200   41.3630 H   0  0  0  0  0  0  0  0  0  0  0  0
   39.6670   23.4540   42.6190 H   0  0  0  0  0  0  0  0  0  0  0  0
   38.5770   31.6440   38.7090 O   0  0  0  0  0  0  0  0  0  0  0  0
   39.5560   33.8430   39.8410 O   0  0  0  0  0  0  0  0  0  0  0  0
   38.5520   32.7480   40.0240 P   0  0  1  0  0  0  0  0  0  0  0  0
   36.9880   33.4450   40.0960 O   0  0  0  0  0  0  0  0  0  0  0  0
   36.3490   32.6760   40.1250 H   0  0  0  0  0  0  0  0  0  0  0  0
   38.7750   31.9020   41.4300 O   0  0  0  0  0  0  0  0  0  0  0  0
   39.3880   30.8430   41.8660 C   0  0  0  0  0  0  0  0  0  0  0  0
   40.7560   31.0750   41.5800 C   0  0  0  0  0  0  0  0  0  0  0  0
   41.2720   31.9220   41.1020 H   0  0  0  0  0  0  0  0  0  0  0  0
   41.7750   30.1720   41.8880 C   0  0  0  0  0  3  0  0  0  0  0  0
   41.3990   28.9840   42.5120 C   0  0  0  0  0  3  0  0  0  0  0  0
   40.0920   28.6880   42.8220 C   0  0  0  0  0  0  0  0  0  0  0  0
   39.6420   27.5400   43.4370 C   0  0  0  0  0  3  0  0  0  0  0  0
   38.3070   27.3160   43.7150 C   0  0  0  0  0  3  0  0  0  0  0  0
   37.3880   28.3090   43.3500 C   0  0  0  0  0  3  0  0  0  0  0  0
   37.8560   29.4440   42.7390 C   0  0  0  0  0  3  0  0  0  0  0  0
   39.1860   29.6380   42.4770 C   0  0  0  0  0  0  0  0  0  0  0  0
  1  3  1  0  0  0  0
  1 19  1  0  0  0  0
  1  5  1  0  0  0  0
  2  1  1  0  0  0  0
  4  6  1  0  0  0  0
  5  4  2  0  0  0  0
  7  8  1  0  0  0  0
  7  6  1  0  0  0  0
  7 11  1  0  0  0  0
  9  7  1  0  0  0  0
 10 11  2  0  0  0  0
 10 15  1  0  0  0  0
 11 12  1  0  0  0  0
 12 17  1  0  0  0  0
 12 13  2  0  0  0  0
 14 13  1  0  0  0  0
 14 18  1  0  0  0  0
 15 14  2  0  0  0  0
 16 10  1  0  0  0  0
 19 21  1  0  0  0  0
 21 20  2  6  0  0  0
 21 22  1  0  0  0  0
 21 24  1  0  0  0  0
 22 23  1  0  0  0  0
 24 25  1  0  0  0  0
 25 35  1  0  0  0  0
 26 25  2  0  0  0  0
 26 28  1  0  0  0  0
 27 26  1  0  0  0  0
 28 29  2  0  0  0  0
 29 30  1  0  0  0  0
 30 31  1  0  0  0  0
 31 32  2  0  0  0  0
 33 32  1  0  0  0  0
 34 33  2  0  0  0  0
 35 34  1  0  0  0  0
 35 30  2  0  0  0  0
M  END
>  <minimizedAffinity>
-5.4223032

$$$$

 OpenBabel03252504313D

 35 37  0  0  0  0  0  0  0  0999 V2000
   38.1960   24.5930   38.4420 C   0  0  0  0  0  0  0  0  0  0  0  0
   37.1200   24.4160   38.5340 H   0  0  0  0  0  0  0  0  0  0  0  0
   38.6010   24.3880   37.4350 H   0  0  0  0  0  0  0  0  0  0  0  0
   37.6070   27.0580   38.3640 C   0  0  0  0  0  3  0  0  0  0  0  0
   38.3940   26.0570   38.7770 C   0  0  0  0  0  3  0  0  0  0  0  0
   37.9430   28.3380   38.7800 O   0  0  0  0  0  0  0  0  0  0  0  0
   37.3780   29.5300   38.3960 C   0  0  0  0  0  0  0  0  0  0  0  0
   37.8690   29.8000   37.4040 H   0  0  0  0  0  0  0  0  0  0  0  0
   36.2960   29.5260   38.1940 H   0  0  0  0  0  0  0  0  0  0  0  0
   39.0710   30.5920   39.7510 C   0  0  0  0  0  0  0  0  0  0  0  0
   37.7520   30.6720   39.2700 C   0  0  0  0  0  0  0  0  0  0  0  0
   36.9940   31.7450   39.6270 C   0  0  0  0  0  0  0  0  0  0  0  0
   37.5770   32.6610   40.4260 N   0  0  0  0  0  0  0  0  0  0  0  0
   38.8200   32.5970   40.8860 C   0  0  0  0  0  0  0  0  0  0  0  0
   39.6390   31.5290   40.5570 N   0  0  0  0  0  0  0  0  0  0  0  0
   39.7690   29.7900   39.5370 H   0  0  0  0  0  0  0  0  0  0  0  0
   36.0090   31.7460   39.2330 H   0  0  0  0  0  0  0  0  0  0  0  0
   39.2230   33.3720   41.5250 H   0  0  0  0  0  0  0  0  0  0  0  0
   38.8440   23.8620   39.4030 O   0  0  0  0  0  0  0  0  0  0  0  0
   36.3440   23.2050   40.0240 O   0  0  0  0  0  0  0  0  0  0  0  0
   37.7490   23.1850   40.5380 P   0  0  1  0  0  0  0  0  0  0  0  0
   38.2100   21.5580   40.8090 O   0  0  0  0  0  0  0  0  0  0  0  0
   39.1780   21.5880   41.0620 H   0  0  0  0  0  0  0  0  0  0  0  0
   37.9150   23.9860   41.9790 O   0  0  0  0  0  0  0  0  0  0  0  0
   38.4310   25.0800   42.4540 C   0  0  0  0  0  0  0  0  0  0  0  0
   39.6650   24.6780   43.0230 C   0  0  0  0  0  0  0  0  0  0  0  0
   40.1530   23.6940   43.0950 H   0  0  0  0  0  0  0  0  0  0  0  0
   40.5500   25.5560   43.6510 C   0  0  0  0  0  3  0  0  0  0  0  0
   40.1750   26.8970   43.7070 C   0  0  0  0  0  3  0  0  0  0  0  0
   38.9950   27.3630   43.1760 C   0  0  0  0  0  0  0  0  0  0  0  0
   38.5560   28.6690   43.1900 C   0  0  0  0  0  3  0  0  0  0  0  0
   37.3530   29.0580   42.6340 C   0  0  0  0  0  3  0  0  0  0  0  0
   36.5600   28.0710   42.0340 C   0  0  0  0  0  3  0  0  0  0  0  0
   37.0150   26.7770   42.0310 C   0  0  0  0  0  3  0  0  0  0  0  0
   38.2130   26.4210   42.5900 C   0  0  0  0  0  0  0  0  0  0  0  0
  1  2  1  0  0  0  0
  1  5  1  0  0  0  0
  1 19  1  0  0  0  0
  3  1  1  0  0  0  0
  4  5  2  0  0  0  0
  4  6  1  0  0  0  0
  7  6  1  0  0  0  0
  7 11  1  0  0  0  0
  8  7  1  0  0  0  0
  9  7  1  0  0  0  0
 10 15  1  0  0  0  0
 11 12  1  0  0  0  0
 11 10  2  0  0  0  0
 12 13  2  0  0  0  0
 13 14  1  0  0  0  0
 14 18  1  0  0  0  0
 15 14  2  0  0  0  0
 16 10  1  0  0  0  0
 17 12  1  0  0  0  0
 19 21  1  0  0  0  0
 21 20  2  6  0  0  0
 21 22  1  0  0  0  0
 21 24  1  0  0  0  0
 22 23  1  0  0  0  0
 24 25  1  0  0  0  0
 25 35  2  0  0  0  0
 25 26  1  0  0  0  0
 26 27  1  0  0  0  0
 26 28  2  0  0  0  0
 28 29  1  0  0  0  0
 30 31  1  0  0  0  0
 30 29  2  0  0  0  0
 32 31  2  0  0  0  0
 33 32  1  0  0  0  0
 34 33  2  0  0  0  0
 34 35  1  0  0  0  0
 35 30  1  0  0  0  0
M  END
>  <minimizedAffinity>
-5.38749123

$$$$

 OpenBabel03252504313D

 35 37  0  0  0  0  0  0  0  0999 V2000
   37.4520   31.8590   39.7160 C   0  0  0  0  0  0  0  0  0  0  0  0
   37.0600   32.8550   39.4860 H   0  0  0  0  0  0  0  0  0  0  0  0
   37.1580   31.4790   40.7100 H   0  0  0  0  0  0  0  0  0  0  0  0
   37.5570   30.5360   37.5560 C   0  0  0  0  0  3  0  0  0  0  0  0
   36.8930   30.9500   38.6420 C   0  0  0  0  0  3  0  0  0  0  0  0
   36.8790   29.6960   36.6830 O   0  0  0  0  0  0  0  0  0  0  0  0
   35.9800   28.7030   36.9890 C   0  0  0  0  0  0  0  0  0  0  0  0
   36.3120   27.7910   36.3910 H   0  0  0  0  0  0  0  0  0  0  0  0
   35.9460   28.3680   38.0360 H   0  0  0  0  0  0  0  0  0  0  0  0
   33.6330   29.0040   37.4750 C   0  0  0  0  0  0  0  0  0  0  0  0
   34.6130   28.9610   36.4670 C   0  0  0  0  0  0  0  0  0  0  0  0
   34.2280   29.1630   35.1770 C   0  0  0  0  0  0  0  0  0  0  0  0
   32.9160   29.3950   34.9650 N   0  0  0  0  0  0  0  0  0  0  0  0
   31.9830   29.4390   35.9070 C   0  0  0  0  0  0  0  0  0  0  0  0
   32.3150   29.2390   37.2370 N   0  0  0  0  0  0  0  0  0  0  0  0
   33.8170   28.8580   38.5340 H   0  0  0  0  0  0  0  0  0  0  0  0
   35.0120   29.1180   34.4640 H   0  0  0  0  0  0  0  0  0  0  0  0
   30.9460   29.6300   35.6630 H   0  0  0  0  0  0  0  0  0  0  0  0
   38.8140   31.8800   39.5670 O   0  0  0  0  0  0  0  0  0  0  0  0
   40.9920   33.0350   40.5650 O   0  0  0  0  0  0  0  0  0  0  0  0
   39.5920   32.6260   40.9030 P   0  0  1  0  0  0  0  0  0  0  0  0
   38.6970   34.0260   41.3180 O   0  0  0  0  0  0  0  0  0  0  0  0
   37.7540   33.7180   41.4450 H   0  0  0  0  0  0  0  0  0  0  0  0
   39.5210   31.5980   42.2000 O   0  0  0  0  0  0  0  0  0  0  0  0
   39.7210   30.3470   42.4880 C   0  0  0  0  0  0  0  0  0  0  0  0
   41.1250   30.2340   42.6490 C   0  0  0  0  0  0  0  0  0  0  0  0
   41.9340   30.9760   42.5670 H   0  0  0  0  0  0  0  0  0  0  0  0
   41.7730   29.0410   42.9690 C   0  0  0  0  0  3  0  0  0  0  0  0
   40.9730   27.9120   43.1340 C   0  0  0  0  0  3  0  0  0  0  0  0
   39.6050   27.9420   42.9950 C   0  0  0  0  0  0  0  0  0  0  0  0
   38.7480   26.8730   43.1430 C   0  0  0  0  0  3  0  0  0  0  0  0
   37.3800   26.9860   42.9860 C   0  0  0  0  0  3  0  0  0  0  0  0
   36.8610   28.2470   42.6640 C   0  0  0  0  0  3  0  0  0  0  0  0
   37.7300   29.2980   42.5210 C   0  0  0  0  0  3  0  0  0  0  0  0
   39.0830   29.1560   42.6840 C   0  0  0  0  0  0  0  0  0  0  0  0
  1  3  1  0  0  0  0
  2  1  1  0  0  0  0
  4  5  2  0  0  0  0
  5  1  1  0  0  0  0
  6  7  1  0  0  0  0
  6  4  1  0  0  0  0
  7  9  1  0  0  0  0
  8  7  1  0  0  0  0
 10 16  1  0  0  0  0
 11  7  1  0  0  0  0
 11 10  2  0  0  0  0
 12 11  1  0  0  0  0
 13 12  2  0  0  0  0
 13 14  1  0  0  0  0
 14 15  2  0  0  0  0
 15 10  1  0  0  0  0
 17 12  1  0  0  0  0
 18 14  1  0  0  0  0
 19  1  1  0  0  0  0
 19 21  1  0  0  0  0
 21 20  2  6  0  0  0
 21 22  1  0  0  0  0
 21 24  1  0  0  0  0
 22 23  1  0  0  0  0
 24 25  1  0  0  0  0
 25 26  2  0  0  0  0
 25 35  1  0  0  0  0
 26 28  1  0  0  0  0
 27 26  1  0  0  0  0
 28 29  2  0  0  0  0
 30 29  1  0  0  0  0
 30 31  1  0  0  0  0
 32 31  2  0  0  0  0
 33 32  1  0  0  0  0
 34 33  2  0  0  0  0
 34 35  1  0  0  0  0
 35 30  2  0  0  0  0
M  END
>  <minimizedAffinity>
-5.37377405

$$$$

 OpenBabel03252504313D

 35 37  0  0  0  0  0  0  0  0999 V2000
   36.4450   29.9550   37.3890 C   0  0  0  0  0  0  0  0  0  0  0  0
   35.6530   29.2810   37.7290 H   0  0  0  0  0  0  0  0  0  0  0  0
   36.1430   30.6210   36.5600 H   0  0  0  0  0  0  0  0  0  0  0  0
   37.2850   32.0400   38.5610 C   0  0  0  0  0  3  0  0  0  0  0  0
   36.8110   30.7890   38.5980 C   0  0  0  0  0  3  0  0  0  0  0  0
   37.5580   32.6490   39.7790 O   0  0  0  0  0  0  0  0  0  0  0  0
   37.9700   33.9400   40.0070 C   0  0  0  0  0  0  0  0  0  0  0  0
   37.7770   34.5030   39.0360 H   0  0  0  0  0  0  0  0  0  0  0  0
   37.4320   34.5040   40.7830 H   0  0  0  0  0  0  0  0  0  0  0  0
   40.0380   32.9240   40.7330 C   0  0  0  0  0  0  0  0  0  0  0  0
   39.4410   34.0690   40.1760 C   0  0  0  0  0  0  0  0  0  0  0  0
   40.2370   35.1240   39.8520 C   0  0  0  0  0  0  0  0  0  0  0  0
   41.5560   34.9860   40.0930 N   0  0  0  0  0  0  0  0  0  0  0  0
   42.1310   33.9120   40.6170 C   0  0  0  0  0  0  0  0  0  0  0  0
   41.3720   32.8070   40.9680 N   0  0  0  0  0  0  0  0  0  0  0  0
   39.5110   32.0250   41.0320 H   0  0  0  0  0  0  0  0  0  0  0  0
   39.7270   35.9570   39.4360 H   0  0  0  0  0  0  0  0  0  0  0  0
   43.2000   33.8700   40.7820 H   0  0  0  0  0  0  0  0  0  0  0  0
   37.5450   29.2080   37.0580 O   0  0  0  0  0  0  0  0  0  0  0  0
   35.8330   27.1870   37.2940 O   0  0  0  0  0  0  0  0  0  0  0  0
   37.2880   27.5340   37.3370 P   0  0  1  0  0  0  0  0  0  0  0  0
   38.0960   26.6640   36.1020 O   0  0  0  0  0  0  0  0  0  0  0  0
   39.0400   26.9940   36.1100 H   0  0  0  0  0  0  0  0  0  0  0  0
   38.0020   27.1200   38.7730 O   0  0  0  0  0  0  0  0  0  0  0  0
   37.6760   26.7800   39.9840 C   0  0  0  0  0  0  0  0  0  0  0  0
   37.3280   25.4100   39.8930 C   0  0  0  0  0  0  0  0  0  0  0  0
   37.3080   24.7140   39.0400 H   0  0  0  0  0  0  0  0  0  0  0  0
   36.9120   24.6430   40.9820 C   0  0  0  0  0  3  0  0  0  0  0  0
   36.8420   25.2850   42.2160 C   0  0  0  0  0  3  0  0  0  0  0  0
   37.1640   26.6120   42.3850 C   0  0  0  0  0  0  0  0  0  0  0  0
   37.1220   27.3160   43.5680 C   0  0  0  0  0  3  0  0  0  0  0  0
   37.4620   28.6520   43.6550 C   0  0  0  0  0  3  0  0  0  0  0  0
   37.8640   29.3020   42.4810 C   0  0  0  0  0  3  0  0  0  0  0  0
   37.8990   28.5840   41.3120 C   0  0  0  0  0  3  0  0  0  0  0  0
   37.5570   27.2590   41.2580 C   0  0  0  0  0  0  0  0  0  0  0  0
  1  2  1  0  0  0  0
  1  5  1  0  0  0  0
  3  1  1  0  0  0  0
  4  5  2  0  0  0  0
  4  6  1  0  0  0  0
  6  7  1  0  0  0  0
  7 11  1  0  0  0  0
  7  9  1  0  0  0  0
  8  7  1  0  0  0  0
 10 15  1  0  0  0  0
 10 16  1  0  0  0  0
 11 10  2  0  0  0  0
 12 13  2  0  0  0  0
 12 11  1  0  0  0  0
 13 14  1  0  0  0  0
 14 18  1  0  0  0  0
 14 15  2  0  0  0  0
 17 12  1  0  0  0  0
 19 21  1  0  0  0  0
 19  1  1  0  0  0  0
 21 20  2  1  0  0  0
 21 24  1  0  0  0  0
 22 23  1  0  0  0  0
 22 21  1  0  0  0  0
 24 25  1  0  0  0  0
 25 35  1  0  0  0  0
 26 25  2  0  0  0  0
 26 28  1  0  0  0  0
 27 26  1  0  0  0  0
 28 29  2  0  0  0  0
 29 30  1  0  0  0  0
 30 31  1  0  0  0  0
 31 32  2  0  0  0  0
 33 32  1  0  0  0  0
 34 33  2  0  0  0  0
 35 34  1  0  0  0  0
 35 30  2  0  0  0  0
M  END
>  <minimizedAffinity>
-5.35766697

$$$$

 OpenBabel03252504313D

 35 37  0  0  0  0  0  0  0  0999 V2000
   38.4380   27.3730   43.6640 C   0  0  0  0  0  0  0  0  0  0  0  0
   38.2610   27.7170   44.6880 H   0  0  0  0  0  0  0  0  0  0  0  0
   37.5800   26.8470   43.2120 H   0  0  0  0  0  0  0  0  0  0  0  0
   37.8270   29.4860   42.4020 C   0  0  0  0  0  3  0  0  0  0  0  0
   38.7410   28.6250   42.8670 C   0  0  0  0  0  3  0  0  0  0  0  0
   38.2960   30.5840   41.6950 O   0  0  0  0  0  0  0  0  0  0  0  0
   39.5590   30.7930   41.1940 C   0  0  0  0  0  0  0  0  0  0  0  0
   40.2720   30.5910   42.0590 H   0  0  0  0  0  0  0  0  0  0  0  0
   39.8890   30.1290   40.3820 H   0  0  0  0  0  0  0  0  0  0  0  0
   38.6720   32.9980   40.7640 C   0  0  0  0  0  0  0  0  0  0  0  0
   39.8360   32.2160   40.8640 C   0  0  0  0  0  0  0  0  0  0  0  0
   41.0420   32.8170   40.6710 C   0  0  0  0  0  0  0  0  0  0  0  0
   41.0250   34.1370   40.3960 N   0  0  0  0  0  0  0  0  0  0  0  0
   39.9340   34.8860   40.2980 C   0  0  0  0  0  0  0  0  0  0  0  0
   38.6790   34.3290   40.4840 N   0  0  0  0  0  0  0  0  0  0  0  0
   37.6590   32.6340   40.8960 H   0  0  0  0  0  0  0  0  0  0  0  0
   41.8810   32.1740   40.7600 H   0  0  0  0  0  0  0  0  0  0  0  0
   39.9960   35.9430   40.0740 H   0  0  0  0  0  0  0  0  0  0  0  0
   39.5680   26.5970   43.6520 O   0  0  0  0  0  0  0  0  0  0  0  0
   40.4460   25.4380   41.4260 O   0  0  0  0  0  0  0  0  0  0  0  0
   39.4440   25.3050   42.5300 P   0  0  1  0  0  0  0  0  0  0  0  0
   39.7480   23.8450   43.3720 O   0  0  0  0  0  0  0  0  0  0  0  0
   39.1190   23.8440   44.1500 H   0  0  0  0  0  0  0  0  0  0  0  0
   37.8850   25.2330   41.9740 O   0  0  0  0  0  0  0  0  0  0  0  0
   37.2330   25.0370   40.8680 C   0  0  0  0  0  0  0  0  0  0  0  0
   37.1860   23.6290   40.7210 C   0  0  0  0  0  0  0  0  0  0  0  0
   37.5830   22.8130   41.3460 H   0  0  0  0  0  0  0  0  0  0  0  0
   36.5680   22.9820   39.6500 C   0  0  0  0  0  3  0  0  0  0  0  0
   35.9700   23.7900   38.6850 C   0  0  0  0  0  3  0  0  0  0  0  0
   35.9730   25.1640   38.7580 C   0  0  0  0  0  0  0  0  0  0  0  0
   35.4040   26.0280   37.8490 C   0  0  0  0  0  3  0  0  0  0  0  0
   35.4500   27.4010   37.9940 C   0  0  0  0  0  3  0  0  0  0  0  0
   36.1050   27.9180   39.1200 C   0  0  0  0  0  3  0  0  0  0  0  0
   36.6650   27.0410   40.0140 C   0  0  0  0  0  3  0  0  0  0  0  0
   36.6020   25.6830   39.8430 C   0  0  0  0  0  0  0  0  0  0  0  0
  1  2  1  0  0  0  0
  3  1  1  0  0  0  0
  4  5  2  0  0  0  0
  5  1  1  0  0  0  0
  6  4  1  0  0  0  0
  7  6  1  0  0  0  0
  7  8  1  0  0  0  0
  9  7  1  0  0  0  0
 10 11  1  0  0  0  0
 10 16  1  0  0  0  0
 11  7  1  0  0  0  0
 12 17  1  0  0  0  0
 12 11  2  0  0  0  0
 13 12  1  0  0  0  0
 14 13  2  0  0  0  0
 14 15  1  0  0  0  0
 15 10  2  0  0  0  0
 18 14  1  0  0  0  0
 19  1  1  0  0  0  0
 21 20  2  6  0  0  0
 21 22  1  0  0  0  0
 21 19  1  0  0  0  0
 22 23  1  0  0  0  0
 24 21  1  0  0  0  0
 25 24  1  0  0  0  0
 26 25  1  0  0  0  0
 26 27  1  0  0  0  0
 28 26  2  0  0  0  0
 29 30  2  0  0  0  0
 29 28  1  0  0  0  0
 30 35  1  0  0  0  0
 31 32  2  0  0  0  0
 31 30  1  0  0  0  0
 32 33  1  0  0  0  0
 33 34  2  0  0  0  0
 35 34  1  0  0  0  0
 35 25  2  0  0  0  0
M  END
>  <minimizedAffinity>
-5.28008604

$$$$

 OpenBabel03252504313D

 35 37  0  0  0  0  0  0  0  0999 V2000
   37.3140   31.6170   40.5560 C   0  0  0  0  0  0  0  0  0  0  0  0
   37.6110   32.0450   41.5180 H   0  0  0  0  0  0  0  0  0  0  0  0
   36.3330   31.9680   40.1910 H   0  0  0  0  0  0  0  0  0  0  0  0
   38.6130   31.4770   38.3830 C   0  0  0  0  0  3  0  0  0  0  0  0
   38.3940   32.0340   39.5800 C   0  0  0  0  0  3  0  0  0  0  0  0
   39.6490   32.0010   37.6220 O   0  0  0  0  0  0  0  0  0  0  0  0
   40.9990   31.9300   37.8660 C   0  0  0  0  0  0  0  0  0  0  0  0
   41.4550   32.8370   37.3480 H   0  0  0  0  0  0  0  0  0  0  0  0
   41.3200   32.0020   38.9160 H   0  0  0  0  0  0  0  0  0  0  0  0
   42.8000   31.1730   36.4450 C   0  0  0  0  0  0  0  0  0  0  0  0
   41.6650   30.7910   37.1820 C   0  0  0  0  0  0  0  0  0  0  0  0
   41.3170   29.4750   37.2040 C   0  0  0  0  0  0  0  0  0  0  0  0
   42.1020   28.6280   36.5070 N   0  0  0  0  0  0  0  0  0  0  0  0
   43.1740   28.9760   35.8080 C   0  0  0  0  0  0  0  0  0  0  0  0
   43.5770   30.3010   35.7480 N   0  0  0  0  0  0  0  0  0  0  0  0
   43.1740   32.1870   36.3520 H   0  0  0  0  0  0  0  0  0  0  0  0
   40.4530   29.2510   37.7770 H   0  0  0  0  0  0  0  0  0  0  0  0
   43.7590   28.2410   35.2710 H   0  0  0  0  0  0  0  0  0  0  0  0
   37.3560   30.2500   40.6520 O   0  0  0  0  0  0  0  0  0  0  0  0
   39.1730   30.7980   42.5150 O   0  0  0  0  0  0  0  0  0  0  0  0
   38.2390   29.7330   42.0310 P   0  0  1  0  0  0  0  0  0  0  0  0
   37.1150   29.3830   43.2750 O   0  0  0  0  0  0  0  0  0  0  0  0
   36.4610   28.7390   42.8770 H   0  0  0  0  0  0  0  0  0  0  0  0
   39.0170   28.3180   41.6620 O   0  0  0  0  0  0  0  0  0  0  0  0
   38.9270   27.0450   41.8990 C   0  0  0  0  0  0  0  0  0  0  0  0
   39.8720   26.8020   42.9270 C   0  0  0  0  0  0  0  0  0  0  0  0
   40.5630   27.4730   43.4600 H   0  0  0  0  0  0  0  0  0  0  0  0
   40.1020   25.5440   43.4860 C   0  0  0  0  0  3  0  0  0  0  0  0
   39.3470   24.4840   42.9880 C   0  0  0  0  0  3  0  0  0  0  0  0
   38.4110   24.6400   41.9920 C   0  0  0  0  0  0  0  0  0  0  0  0
   37.6270   23.6460   41.4480 C   0  0  0  0  0  3  0  0  0  0  0  0
   36.7070   23.8850   40.4460 C   0  0  0  0  0  3  0  0  0  0  0  0
   36.5780   25.1980   39.9760 C   0  0  0  0  0  3  0  0  0  0  0  0
   37.3680   26.1740   40.5300 C   0  0  0  0  0  3  0  0  0  0  0  0
   38.2710   25.9070   41.5230 C   0  0  0  0  0  0  0  0  0  0  0  0
  1 19  1  0  0  0  0
  1  2  1  0  0  0  0
  3  1  1  0  0  0  0
  4  5  2  0  0  0  0
  5  1  1  0  0  0  0
  6  7  1  0  0  0  0
  6  4  1  0  0  0  0
  7  9  1  0  0  0  0
  8  7  1  0  0  0  0
 10 11  1  0  0  0  0
 11 12  2  0  0  0  0
 11  7  1  0  0  0  0
 12 17  1  0  0  0  0
 13 12  1  0  0  0  0
 14 13  2  0  0  0  0
 15 14  1  0  0  0  0
 15 10  2  0  0  0  0
 16 10  1  0  0  0  0
 18 14  1  0  0  0  0
 19 21  1  0  0  0  0
 21 20  2  1  0  0  0
 21 22  1  0  0  0  0
 23 22  1  0  0  0  0
 24 25  1  0  0  0  0
 24 21  1  0  0  0  0
 25 26  1  0  0  0  0
 26 27  1  0  0  0  0
 26 28  2  0  0  0  0
 29 28  1  0  0  0  0
 30 29  2  0  0  0  0
 31 30  1  0  0  0  0
 32 31  2  0  0  0  0
 33 32  1  0  0  0  0
 33 34  2  0  0  0  0
 34 35  1  0  0  0  0
 35 25  2  0  0  0  0
 35 30  1  0  0  0  0
M  END
>  <minimizedAffinity>
-5.25610447

$$$$
