
 OpenBabel03242519413D

 31 33  0  0  0  0  0  0  0  0999 V2000
   48.0600   32.8210   41.5790 O   0  0  0  0  0  0  0  0  0  0  0  0
   47.1200   34.0000   41.2120 P   0  0  2  0  0  0  0  0  0  0  0  0
   45.5720   33.6960   41.8900 O   0  0  0  0  0  0  0  0  0  0  0  0
   44.4080   35.8390   44.5950 C   0  0  0  0  0  0  0  0  0  0  0  0
   44.6700   35.3610   43.2900 C   0  0  0  0  0  0  0  0  0  0  0  0
   45.3310   34.1300   43.1760 C   0  0  0  0  0  0  0  0  0  0  0  0
   45.6760   33.4740   44.3010 N   0  0  0  0  0  0  0  0  0  0  0  0
   45.4110   33.9570   45.5350 C   0  0  0  0  0  0  0  0  0  0  0  0
   44.7810   35.1330   45.6920 N   0  0  0  0  0  0  0  0  0  0  0  0
   43.8990   36.7890   44.6910 H   0  0  0  0  0  0  0  0  0  0  0  0
   44.3520   35.9610   42.4590 H   0  0  0  0  0  0  0  0  0  0  0  0
   45.7240   33.3650   46.4020 H   0  0  0  0  0  0  0  0  0  0  0  0
   46.9730   34.0810   39.5620 O   0  0  0  0  0  0  0  0  0  0  0  0
   46.8040   33.0900   38.6480 C   0  0  0  0  0  0  0  0  0  0  0  0
   45.9060   33.3040   37.6540 O   0  0  0  0  0  0  0  0  0  0  0  0
   47.2330   31.7380   38.2210 C   0  0  0  0  0  0  0  0  0  0  0  0
   46.2980   30.6790   38.1530 C   0  0  0  0  0  0  0  0  0  0  0  0
   45.2430   31.0060   38.3030 H   0  0  0  0  0  0  0  0  0  0  0  0
   46.4530   29.3350   37.9410 C   0  0  0  0  0  3  0  0  0  0  0  0
   47.7780   29.0220   37.7680 C   0  0  0  0  0  3  0  0  0  0  0  0
   48.7550   29.9860   37.8150 C   0  0  0  0  0  0  0  0  0  0  0  0
   50.0740   29.6500   37.5970 C   0  0  0  0  0  3  0  0  0  0  0  0
   51.1590   30.5000   37.5720 C   0  0  0  0  0  3  0  0  0  0  0  0
   50.8400   31.8460   37.7950 C   0  0  0  0  0  3  0  0  0  0  0  0
   49.5350   32.2100   38.0160 C   0  0  0  0  0  3  0  0  0  0  0  0
   48.4880   31.3340   38.0380 C   0  0  0  0  0  0  0  0  0  0  0  0
   47.7550   35.3580   41.9200 O   0  0  0  0  0  0  0  0  0  0  0  0
   49.0030   35.6890   41.4110 C   0  0  0  0  0  0  0  0  0  0  0  0
   49.3900   36.9720   41.7520 F   0  0  0  0  0  0  0  0  0  0  0  0
   49.9230   34.7490   41.7490 F   0  0  0  0  0  0  0  0  0  0  0  0
   48.8690   35.6800   40.0240 F   0  0  0  0  0  0  0  0  0  0  0  0
  2  1  2  1  0  0  0
  2  3  1  0  0  0  0
  2 27  1  0  0  0  0
  3  6  1  0  0  0  0
  4 10  1  0  0  0  0
  4  9  1  0  0  0  0
  5  4  2  0  0  0  0
  6  5  1  0  0  0  0
  6  7  2  0  0  0  0
  7  8  1  0  0  0  0
  8  9  2  0  0  0  0
  8 12  1  0  0  0  0
 11  5  1  0  0  0  0
 13  2  1  0  0  0  0
 14 13  1  0  0  0  0
 15 14  2  0  0  0  0
 16 14  1  0  0  0  0
 17 16  1  0  0  0  0
 17 18  1  0  0  0  0
 19 17  2  0  0  0  0
 20 21  2  0  0  0  0
 20 19  1  0  0  0  0
 21 26  1  0  0  0  0
 22 21  1  0  0  0  0
 23 22  2  0  0  0  0
 23 24  1  0  0  0  0
 24 25  2  0  0  0  0
 25 26  1  0  0  0  0
 26 16  2  0  0  0  0
 28 30  1  0  0  0  0
 28 29  1  0  0  0  0
 28 27  1  0  0  0  0
 31 28  1  0  0  0  0
M  END
>  <minimizedAffinity>
-5.15585804

>  <minimizedRMSD>
1.68539512

$$$$
