
 OpenBabel03252505113D

 46 50  0  0  1  0  0  0  0  0999 V2000
   44.5610   35.5500   44.6130 C   0  0  0  0  0  0  0  0  0  0  0  0
   45.2590   35.6060   43.3910 C   0  0  0  0  0  0  0  0  0  0  0  0
   46.3840   34.7280   43.2280 C   0  0  0  0  0  0  0  0  0  0  0  0
   46.7090   33.9040   44.2430 N   0  0  0  0  0  0  0  0  0  0  0  0
   46.0230   33.8780   45.3940 C   0  0  0  0  0  0  0  0  0  0  0  0
   44.9380   34.7030   45.5900 N   0  0  0  0  0  0  0  0  0  0  0  0
   43.7070   36.2040   44.7620 H   0  0  0  0  0  0  0  0  0  0  0  0
   44.9610   36.2810   42.6080 H   0  0  0  0  0  0  0  0  0  0  0  0
   46.4280   32.9540   46.4790 C   0  0  2  0  0  0  0  0  0  0  0  0
   46.9500   31.7230   45.7710 C   0  0  0  0  0  0  0  0  0  0  0  0
   46.0690   30.5430   45.7710 C   0  0  0  0  0  0  0  0  0  0  0  0
   45.7750   30.2760   47.2490 C   0  0  0  0  0  0  0  0  0  0  0  0
   44.9950   31.3380   47.8710 C   0  0  0  0  0  0  0  0  0  0  0  0
   45.3830   32.7090   47.4270 C   0  0  0  0  0  0  0  0  0  0  0  0
   47.2840   33.4710   46.9880 H   0  0  0  0  0  0  0  0  0  0  0  0
   47.2450   31.9210   44.7160 H   0  0  0  0  0  0  0  0  0  0  0  0
   47.8990   31.4330   46.2710 H   0  0  0  0  0  0  0  0  0  0  0  0
   46.6700   29.6780   45.4410 H   0  0  0  0  0  0  0  0  0  0  0  0
   45.1470   30.5970   45.1930 H   0  0  0  0  0  0  0  0  0  0  0  0
   45.1020   29.3810   47.2260 H   0  0  0  0  0  0  0  0  0  0  0  0
   46.6920   29.9720   47.7730 H   0  0  0  0  0  0  0  0  0  0  0  0
   44.2110   31.3220   48.5690 H   0  0  0  0  0  0  0  0  0  0  0  0
   44.6980   33.8550   47.9480 N   0  0  0  0  0  0  0  0  0  0  0  0
   43.7110   34.2380   47.8560 H   0  0  0  0  0  0  0  0  0  0  0  0
   45.1440   34.5730   48.5830 H   0  0  0  0  0  0  0  0  0  0  0  0
   47.1210   34.7610   41.9750 C   0  0  0  0  0  0  0  0  0  0  0  0
   48.2200   35.5410   41.8910 C   0  0  0  0  0  0  0  0  0  0  0  0
   48.8970   35.5380   40.6610 C   0  0  0  0  0  0  0  0  0  0  0  0
   48.3750   34.7470   39.6740 C   0  0  0  0  0  0  0  0  0  0  0  0
   47.2570   33.9450   39.7410 C   0  0  0  0  0  0  0  0  0  0  0  0
   46.6560   34.0050   40.9750 N   0  0  0  0  0  0  0  0  0  0  0  0
   48.5350   36.1220   42.7440 H   0  0  0  0  0  0  0  0  0  0  0  0
   49.7680   36.1420   40.5580 H   0  0  0  0  0  0  0  0  0  0  0  0
   48.9410   34.8020   38.7540 H   0  0  0  0  0  0  0  0  0  0  0  0
   46.7720   33.1710   38.7170 O   0  0  0  0  0  0  0  0  0  0  0  0
   47.6210   32.5690   37.8210 C   0  0  0  0  0  0  0  0  0  0  0  0
   47.6300   33.2260   36.5850 C   0  0  0  0  0  0  0  0  0  0  0  0
   47.0420   34.1090   36.3410 H   0  0  0  0  0  0  0  0  0  0  0  0
   48.4330   32.7660   35.5400 C   0  0  0  0  0  3  0  0  0  0  0  0
   49.2470   31.6550   35.6720 C   0  0  0  0  0  3  0  0  0  0  0  0
   49.2170   31.0270   36.9000 C   0  0  0  0  0  0  0  0  0  0  0  0
   49.9750   29.9000   37.1420 C   0  0  0  0  0  3  0  0  0  0  0  0
   49.9190   29.2720   38.3820 C   0  0  0  0  0  3  0  0  0  0  0  0
   49.1240   29.7280   39.4130 C   0  0  0  0  0  3  0  0  0  0  0  0
   48.3650   30.8540   39.1770 C   0  0  0  0  0  3  0  0  0  0  0  0
   48.4340   31.4630   37.9460 C   0  0  0  0  0  0  0  0  0  0  0  0
  1  7  1  0  0  0  0
  1  6  1  0  0  0  0
  2  1  2  0  0  0  0
  3  2  1  0  0  0  0
  3  4  2  0  0  0  0
  4  5  1  0  0  0  0
  5  6  2  0  0  0  0
  5  9  1  0  0  0  0
  8  2  1  0  0  0  0
  9 15  1  1  0  0  0
  9 14  1  0  0  0  0
 10 17  1  0  0  0  0
 10  9  1  0  0  0  0
 11 10  1  0  0  0  0
 11 12  1  0  0  0  0
 12 21  1  0  0  0  0
 12 13  1  0  0  0  0
 13 22  1  0  0  0  0
 14 13  2  0  0  0  0
 14 23  1  0  0  0  0
 16 10  1  0  0  0  0
 18 11  1  0  0  0  0
 19 11  1  0  0  0  0
 20 12  1  0  0  0  0
 23 25  1  0  0  0  0
 24 23  1  0  0  0  0
 26  3  1  0  0  0  0
 27 26  1  0  0  0  0
 27 32  1  0  0  0  0
 28 27  2  0  0  0  0
 29 30  2  0  0  0  0
 29 28  1  0  0  0  0
 30 31  1  0  0  0  0
 31 26  2  0  0  0  0
 33 28  1  0  0  0  0
 34 29  1  0  0  0  0
 35 30  1  0  0  0  0
 36 46  1  0  0  0  0
 36 35  1  0  0  0  0
 37 36  2  0  0  0  0
 38 37  1  0  0  0  0
 39 40  2  0  0  0  0
 39 37  1  0  0  0  0
 40 41  1  0  0  0  0
 41 42  2  0  0  0  0
 41 46  1  0  0  0  0
 42 43  1  0  0  0  0
 43 44  2  0  0  0  0
 45 44  1  0  0  0  0
 46 45  2  0  0  0  0
M  END
>  <minimizedAffinity>
-7.3418231

>  <minimizedRMSD>
1.47231698

$$$$
