
 OpenBabel03252506123D

 38 41  0  0  0  0  0  0  0  0999 V2000
   45.0810   33.3670   41.1100 F   0  0  0  0  0  0  0  0  0  0  0  0
   46.2650   33.9610   40.9480 C   0  0  0  0  0  0  0  0  0  0  0  0
   46.7940   34.7250   41.9780 C   0  0  0  0  0  0  0  0  0  0  0  0
   48.0210   35.3690   41.8850 C   0  0  0  0  0  0  0  0  0  0  0  0
   48.7670   35.2540   40.7140 C   0  0  0  0  0  0  0  0  0  0  0  0
   48.2090   34.4850   39.7110 C   0  0  0  0  0  0  0  0  0  0  0  0
   47.0100   33.8470   39.7820 C   0  0  0  0  0  0  0  0  0  0  0  0
   48.3660   35.9530   42.7440 H   0  0  0  0  0  0  0  0  0  0  0  0
   49.6980   35.7710   40.7080 H   0  0  0  0  0  0  0  0  0  0  0  0
   48.8930   34.4740   38.8690 H   0  0  0  0  0  0  0  0  0  0  0  0
   45.4580   34.0280   45.3270 C   0  0  0  0  0  0  0  0  0  0  0  0
   44.6440   35.1580   45.5540 C   0  0  0  0  0  0  0  0  0  0  0  0
   44.5580   36.1540   44.5550 C   0  0  0  0  0  0  0  0  0  0  0  0
   45.2840   35.9490   43.4150 N   0  0  0  0  0  0  0  0  0  0  0  0
   46.0440   34.8710   43.2310 C   0  0  0  0  0  0  0  0  0  0  0  0
   46.1300   33.9200   44.1770 N   0  0  0  0  0  0  0  0  0  0  0  0
   44.0840   35.2800   46.4730 H   0  0  0  0  0  0  0  0  0  0  0  0
   43.9410   37.0300   44.7020 H   0  0  0  0  0  0  0  0  0  0  0  0
   45.5410   33.0290   46.3310 N   0  0  0  0  0  0  0  0  0  0  0  0
   46.3210   33.2440   46.9870 H   0  0  0  0  0  0  0  0  0  0  0  0
   44.9800   32.1690   46.5090 H   0  0  0  0  0  0  0  0  0  0  0  0
   46.5520   33.1110   38.7230 O   0  0  0  0  0  0  0  0  0  0  0  0
   47.7790   34.5740   36.8790 O   0  0  0  0  0  0  0  0  0  0  0  0
   46.9560   33.3490   37.1030 P   0  0  2  0  0  0  0  0  0  0  0  0
   45.5000   33.4410   36.2050 O   0  0  0  0  0  0  0  0  0  0  0  0
   45.3570   34.4070   36.0210 H   0  0  0  0  0  0  0  0  0  0  0  0
   47.7580   32.0150   36.4360 O   0  0  0  0  0  0  0  0  0  0  0  0
   47.4060   31.3410   35.3000 C   0  0  0  0  0  0  0  0  0  0  0  0
   46.4590   30.3170   35.2470 C   0  0  0  0  0  0  0  0  0  0  0  0
   45.9760   30.0390   36.1530 H   0  0  0  0  0  0  0  0  0  0  0  0
   46.1300   29.6580   34.0760 C   0  0  0  0  0  3  0  0  0  0  0  0
   46.7630   30.0270   32.9090 C   0  0  0  0  0  3  0  0  0  0  0  0
   47.6980   31.0290   32.9220 C   0  0  0  0  0  0  0  0  0  0  0  0
   48.2890   31.3430   31.7110 C   0  0  0  0  0  3  0  0  0  0  0  0
   49.2470   32.3510   31.6550 C   0  0  0  0  0  3  0  0  0  0  0  0
   49.5800   33.0120   32.8190 C   0  0  0  0  0  3  0  0  0  0  0  0
   48.9870   32.6930   34.0180 C   0  0  0  0  0  3  0  0  0  0  0  0
   48.0330   31.6960   34.1020 C   0  0  0  0  0  0  0  0  0  0  0  0
  2  1  1  0  0  0  0
  2  3  1  0  0  0  0
  3 15  1  0  0  0  0
  4  3  2  0  0  0  0
  4  8  1  0  0  0  0
  5  4  1  0  0  0  0
  6  7  1  0  0  0  0
  6  5  2  0  0  0  0
  7  2  2  0  0  0  0
  9  5  1  0  0  0  0
 10  6  1  0  0  0  0
 11 12  1  0  0  0  0
 11 19  1  0  0  0  0
 12 17  1  0  0  0  0
 13 18  1  0  0  0  0
 13 12  2  0  0  0  0
 14 13  1  0  0  0  0
 15 14  2  0  0  0  0
 15 16  1  0  0  0  0
 16 11  2  0  0  0  0
 19 21  1  0  0  0  0
 19 20  1  0  0  0  0
 22  7  1  0  0  0  0
 24 23  2  6  0  0  0
 24 22  1  0  0  0  0
 25 24  1  0  0  0  0
 26 25  1  0  0  0  0
 27 24  1  0  0  0  0
 28 27  1  0  0  0  0
 29 28  1  0  0  0  0
 29 30  1  0  0  0  0
 31 29  2  0  0  0  0
 32 33  2  0  0  0  0
 32 31  1  0  0  0  0
 33 38  1  0  0  0  0
 34 33  1  0  0  0  0
 35 34  2  0  0  0  0
 35 36  1  0  0  0  0
 36 37  2  0  0  0  0
 37 38  1  0  0  0  0
 38 28  2  0  0  0  0
M  END
>  <minimizedAffinity>
-7.41227722

>  <minimizedRMSD>
1.38762856

$$$$
