
 OpenBabel03242517513D

 21 23  0  0  0  0  0  0  0  0999 V2000
   46.1410   32.1150   47.0960 C   0  0  0  0  0  0  0  0  0  0  0  0
   45.8970   32.4780   48.3840 C   0  0  0  0  0  0  0  0  0  0  0  0
   46.1440   33.5050   48.6070 H   0  0  0  0  0  0  0  0  0  0  0  0
   45.3860   31.6520   49.3460 C   0  0  0  0  0  0  0  0  0  0  0  0
   45.0810   30.3450   49.0320 C   0  0  0  0  0  0  0  0  0  0  0  0
   45.3120   29.9280   47.7300 C   0  0  0  0  0  0  0  0  0  0  0  0
   44.9870   28.6120   47.4760 C   0  0  0  0  0  0  0  0  0  0  0  0
   45.1790   28.1100   46.2260 C   0  0  0  0  0  0  0  0  0  0  0  0
   45.6890   28.9220   45.2520 C   0  0  0  0  0  0  0  0  0  0  0  0
   46.0110   30.2370   45.5120 C   0  0  0  0  0  0  0  0  0  0  0  0
   45.8370   30.7940   46.7610 C   0  0  0  0  0  0  0  0  0  0  0  0
   46.6380   32.8050   46.0360 O   0  0  0  0  0  0  0  0  0  0  0  0
   46.0260   34.8880   43.2370 C   0  0  0  0  0  0  0  0  0  0  0  0
   45.0000   35.7390   43.6670 C   0  0  0  0  0  0  0  0  0  0  0  0
   44.5210   35.5690   44.9690 C   0  0  0  0  0  0  0  0  0  0  0  0
   45.0690   34.6030   45.7300 N   0  0  0  0  0  0  0  0  0  0  0  0
   46.0480   33.8020   45.3010 C   0  0  0  0  0  0  0  0  0  0  0  0
   46.5040   33.9630   44.0630 N   0  0  0  0  0  0  0  0  0  0  0  0
   46.3690   35.0480   42.2290 H   0  0  0  0  0  0  0  0  0  0  0  0
   44.6090   36.4990   42.9850 H   0  0  0  0  0  0  0  0  0  0  0  0
   43.7350   36.2070   45.3280 H   0  0  0  0  0  0  0  0  0  0  0  0
  1  2  1  0  0  0  0
  2  3  1  0  0  0  0
  2  4  2  0  0  0  0
  5  4  1  0  0  0  0
  6  5  2  0  0  0  0
  7  6  1  0  0  0  0
  8  7  2  0  0  0  0
  9 10  2  0  0  0  0
  9  8  1  0  0  0  0
 10 11  1  0  0  0  0
 11  1  2  0  0  0  0
 11  6  1  0  0  0  0
 12  1  1  0  0  0  0
 13 14  2  0  0  0  0
 13 18  1  0  0  0  0
 14 15  1  0  0  0  0
 15 21  1  0  0  0  0
 15 16  2  0  0  0  0
 17 16  1  0  0  0  0
 17 12  1  0  0  0  0
 18 17  2  0  0  0  0
 19 13  1  0  0  0  0
 20 14  1  0  0  0  0
M  END
>  <minimizedAffinity>
-5.38608027

>  <minimizedRMSD>
2.77104378

$$$$
