
 OpenBabel03252508003D

 31 34  0  0  1  0  0  0  0  0999 V2000
   46.6680   34.4640   43.3140 C   0  0  0  0  0  0  0  0  0  0  0  0
   45.6260   35.4190   43.5140 C   0  0  0  0  0  0  0  0  0  0  0  0
   44.8660   35.2540   44.6680 C   0  0  0  0  0  0  0  0  0  0  0  0
   45.1500   34.2300   45.5060 N   0  0  0  0  0  0  0  0  0  0  0  0
   46.1720   33.3460   45.2470 C   0  0  0  0  0  0  0  0  0  0  0  0
   46.9290   33.4480   44.1720 N   0  0  0  0  0  0  0  0  0  0  0  0
   45.4750   36.2030   42.7870 H   0  0  0  0  0  0  0  0  0  0  0  0
   44.0650   35.9530   44.8620 H   0  0  0  0  0  0  0  0  0  0  0  0
   46.4280   32.2540   46.2320 C   0  0  1  0  0  0  0  0  0  0  0  0
   47.0880   32.5930   47.5480 C   0  0  0  0  0  0  0  0  0  0  0  0
   45.6080   32.3350   47.4590 C   0  0  1  0  0  0  0  0  0  0  0  0
   46.6250   31.2540   45.8020 H   0  0  0  0  0  0  0  0  0  0  0  0
   47.4790   33.6170   47.6070 H   0  0  0  0  0  0  0  0  0  0  0  0
   47.6940   31.7730   47.9770 H   0  0  0  0  0  0  0  0  0  0  0  0
   45.2330   31.4200   47.9790 H   0  0  0  0  0  0  0  0  0  0  0  0
   44.8260   33.5200   47.7330 N   0  0  0  0  0  0  0  0  0  0  0  0
   43.8540   33.5100   47.4580 H   0  0  0  0  0  0  0  0  0  0  0  0
   45.3290   34.3860   47.8700 H   0  0  0  0  0  0  0  0  0  0  0  0
   47.4580   34.6560   42.1140 C   0  0  0  0  0  0  0  0  0  0  0  0
   48.1100   35.7310   41.8740 O   0  0  0  0  0  0  0  0  0  0  0  0
   47.3720   33.4590   41.2830 C   0  0  0  0  0  0  0  0  0  0  0  0
   48.3970   32.5300   41.2050 C   0  0  0  0  0  0  0  0  0  0  0  0
   49.2990   32.7000   41.7920 H   0  0  0  0  0  0  0  0  0  0  0  0
   48.3680   31.3880   40.4330 C   0  0  0  0  0  3  0  0  0  0  0  0
   47.2570   31.1310   39.6790 C   0  0  0  0  0  3  0  0  0  0  0  0
   46.1950   32.0130   39.7070 C   0  0  0  0  0  0  0  0  0  0  0  0
   45.0470   31.7760   38.9490 C   0  0  0  0  0  3  0  0  0  0  0  0
   43.9790   32.6340   38.9600 C   0  0  0  0  0  3  0  0  0  0  0  0
   44.0390   33.7810   39.7540 C   0  0  0  0  0  3  0  0  0  0  0  0
   45.1940   33.9780   40.4880 C   0  0  0  0  0  3  0  0  0  0  0  0
   46.2850   33.1370   40.5000 C   0  0  0  0  0  0  0  0  0  0  0  0
  1  2  2  0  0  0  0
  1  6  1  0  0  0  0
  2  3  1  0  0  0  0
  3  8  1  0  0  0  0
  3  4  2  0  0  0  0
  5  4  1  0  0  0  0
  5  9  1  0  0  0  0
  6  5  2  0  0  0  0
  7  2  1  0  0  0  0
  9 12  1  6  0  0  0
  9 11  1  0  0  0  0
  9 10  1  0  0  0  0
 10 13  1  0  0  0  0
 10 14  1  0  0  0  0
 11 10  1  0  0  0  0
 11 16  1  0  0  0  0
 11 15  1  1  0  0  0
 16 18  1  0  0  0  0
 17 16  1  0  0  0  0
 19  1  1  0  0  0  0
 20 19  2  0  0  0  0
 21 19  1  0  0  0  0
 22 21  1  0  0  0  0
 22 23  1  0  0  0  0
 24 22  2  0  0  0  0
 25 26  2  0  0  0  0
 25 24  1  0  0  0  0
 26 31  1  0  0  0  0
 27 28  2  0  0  0  0
 27 26  1  0  0  0  0
 28 29  1  0  0  0  0
 29 30  2  0  0  0  0
 30 31  1  0  0  0  0
 31 21  2  0  0  0  0
M  END
>  <minimizedAffinity>
-5.6006732

>  <minimizedRMSD>
2.01454067

$$$$
