
 OpenBabel03242520003D

 32 35  0  0  1  0  0  0  0  0999 V2000
   44.5990   33.0520   41.2190 Br  0  0  0  0  0  0  0  0  0  0  0  0
   46.2630   33.9690   41.0100 C   0  0  0  0  0  0  0  0  0  0  0  0
   46.8200   34.7530   42.0090 C   0  0  0  0  0  0  0  0  0  0  0  0
   48.0250   35.3730   41.7510 C   0  0  0  0  0  0  0  0  0  0  0  0
   48.6920   35.2430   40.5480 C   0  0  0  0  0  0  0  0  0  0  0  0
   48.1340   34.4530   39.5420 C   0  0  0  0  0  0  0  0  0  0  0  0
   46.9310   33.8460   39.8210 C   0  0  0  0  0  0  0  0  0  0  0  0
   48.4480   35.9850   42.5440 H   0  0  0  0  0  0  0  0  0  0  0  0
   49.6320   35.7540   40.4070 H   0  0  0  0  0  0  0  0  0  0  0  0
   48.6720   34.3640   38.6030 H   0  0  0  0  0  0  0  0  0  0  0  0
   44.4980   35.9080   44.7550 C   0  0  0  0  0  0  0  0  0  0  0  0
   45.1810   35.8570   43.5300 C   0  0  0  0  0  0  0  0  0  0  0  0
   46.0830   34.8570   43.2590 C   0  0  0  0  0  0  0  0  0  0  0  0
   46.2340   33.9600   44.2610 N   0  0  0  0  0  0  0  0  0  0  0  0
   45.5900   33.9970   45.4300 C   0  0  0  0  0  0  0  0  0  0  0  0
   44.7220   34.9720   45.6750 N   0  0  0  0  0  0  0  0  0  0  0  0
   43.7900   36.6960   44.9630 H   0  0  0  0  0  0  0  0  0  0  0  0
   44.9910   36.6210   42.7910 H   0  0  0  0  0  0  0  0  0  0  0  0
   45.8430   33.1910   46.1080 H   0  0  0  0  0  0  0  0  0  0  0  0
   46.3780   33.0270   38.7640 C   0  0  1  0  0  0  0  0  0  0  0  0
   45.2490   33.3330   38.2240 O   0  0  0  0  0  0  0  0  0  0  0  0
   47.0480   31.8340   38.2540 C   0  0  0  0  0  0  0  0  0  0  0  0
   46.9440   30.7060   39.0820 C   0  0  0  0  0  0  0  0  0  0  0  0
   46.3830   30.7390   40.0180 H   0  0  0  0  0  0  0  0  0  0  0  0
   47.5220   29.4890   38.7960 C   0  0  0  0  0  0  0  0  0  0  0  0
   48.2500   29.3380   37.6390 C   0  0  0  0  0  0  0  0  0  0  0  0
   48.3570   30.4430   36.8220 C   0  0  0  0  0  0  0  0  0  0  0  0
   49.0630   30.4060   35.6330 C   0  0  0  0  0  0  0  0  0  0  0  0
   49.1870   31.4990   34.7850 C   0  0  0  0  0  0  0  0  0  0  0  0
   48.5740   32.7080   35.1340 C   0  0  0  0  0  0  0  0  0  0  0  0
   47.8650   32.7780   36.3110 C   0  0  0  0  0  0  0  0  0  0  0  0
   47.7830   31.6650   37.0980 C   0  0  0  0  0  0  0  0  0  0  0  0
  2  1  1  0  0  0  0
  2  3  1  0  0  0  0
  3 13  1  0  0  0  0
  4  3  2  0  0  0  0
  4  8  1  0  0  0  0
  5  4  1  0  0  0  0
  6  7  1  0  0  0  0
  6  5  2  0  0  0  0
  7  2  2  0  0  0  0
  9  5  1  0  0  0  0
 10  6  1  0  0  0  0
 11 17  1  0  0  0  0
 11 16  1  0  0  0  0
 12 11  2  0  0  0  0
 13 12  1  0  0  0  0
 13 14  2  0  0  0  0
 14 15  1  0  0  0  0
 15 16  2  0  0  0  0
 15 19  1  0  0  0  0
 18 12  1  0  0  0  0
 20 21  1  6  0  0  0
 20  7  1  0  0  0  0
 22 20  1  0  0  0  0
 22 23  1  0  0  0  0
 23 24  1  0  0  0  0
 25 23  2  0  0  0  0
 26 25  1  0  0  0  0
 27 32  1  0  0  0  0
 27 26  2  0  0  0  0
 28 27  1  0  0  0  0
 29 30  1  0  0  0  0
 29 28  2  0  0  0  0
 30 31  2  0  0  0  0
 31 32  1  0  0  0  0
 32 22  2  0  0  0  0
M  END
>  <minimizedAffinity>
-5.95536375

>  <minimizedRMSD>
2.75693703

$$$$
