
 OpenBabel03252509273D

 32 35  0  0  1  0  0  0  0  0999 V2000
   47.0270   35.1940   42.0860 C   0  0  1  0  0  0  0  0  0  0  0  0
   48.5240   34.8930   42.1620 C   0  0  0  0  0  0  0  0  0  0  0  0
   47.4790   34.1150   41.3000 C   0  0  2  0  0  0  0  0  0  0  0  0
   46.8270   36.1950   41.7100 H   0  0  0  0  0  0  0  0  0  0  0  0
   49.2130   35.5320   41.5600 H   0  0  0  0  0  0  0  0  0  0  0  0
   48.9400   34.4180   43.0430 H   0  0  0  0  0  0  0  0  0  0  0  0
   47.4370   33.0430   41.6820 H   0  0  0  0  0  0  0  0  0  0  0  0
   44.6590   35.2710   44.9870 C   0  0  0  0  0  0  0  0  0  0  0  0
   45.2850   35.6560   43.7700 C   0  0  0  0  0  0  0  0  0  0  0  0
   46.3470   34.8820   43.4000 C   0  0  0  0  0  0  0  0  0  0  0  0
   46.7680   33.8150   44.1610 N   0  0  0  0  0  0  0  0  0  0  0  0
   46.1480   33.4870   45.3040 C   0  0  0  0  0  0  0  0  0  0  0  0
   45.0830   34.2230   45.7200 N   0  0  0  0  0  0  0  0  0  0  0  0
   43.8060   35.8210   45.3550 H   0  0  0  0  0  0  0  0  0  0  0  0
   46.4930   32.6440   45.8930 H   0  0  0  0  0  0  0  0  0  0  0  0
   44.8480   36.7660   43.0250 N   0  0  0  0  0  0  0  0  0  0  0  0
   45.6100   37.4850   43.0600 H   0  0  0  0  0  0  0  0  0  0  0  0
   43.9070   36.8410   42.5260 H   0  0  0  0  0  0  0  0  0  0  0  0
   47.6270   34.1850   39.8030 C   0  0  0  0  0  0  0  0  0  0  0  0
   48.5880   33.6680   39.5300 H   0  0  0  0  0  0  0  0  0  0  0  0
   47.7160   35.2610   39.5960 H   0  0  0  0  0  0  0  0  0  0  0  0
   46.5480   33.4890   39.1010 C   0  0  0  0  0  0  0  0  0  0  0  0
   45.3480   33.4180   39.8230 C   0  0  0  0  0  0  0  0  0  0  0  0
   45.2380   33.7390   40.8540 H   0  0  0  0  0  0  0  0  0  0  0  0
   44.1970   32.9170   39.2270 C   0  0  0  0  0  3  0  0  0  0  0  0
   44.1690   32.4690   37.9210 C   0  0  0  0  0  3  0  0  0  0  0  0
   45.3260   32.5290   37.2140 C   0  0  0  0  0  0  0  0  0  0  0  0
   45.3680   32.0450   35.9090 C   0  0  0  0  0  3  0  0  0  0  0  0
   46.5770   32.0810   35.2440 C   0  0  0  0  0  3  0  0  0  0  0  0
   47.7200   32.5770   35.8390 C   0  0  0  0  0  3  0  0  0  0  0  0
   47.6500   33.0530   37.1310 C   0  0  0  0  0  3  0  0  0  0  0  0
   46.4320   33.0200   37.8100 C   0  0  0  0  0  0  0  0  0  0  0  0
  1  4  1  6  0  0  0
  1  2  1  0  0  0  0
  1 10  1  0  0  0  0
  2  6  1  0  0  0  0
  3  7  1  1  0  0  0
  3  1  1  0  0  0  0
  3  2  1  0  0  0  0
  5  2  1  0  0  0  0
  8 14  1  0  0  0  0
  8 13  1  0  0  0  0
  9  8  2  0  0  0  0
 10  9  1  0  0  0  0
 10 11  2  0  0  0  0
 11 12  1  0  0  0  0
 12 13  2  0  0  0  0
 12 15  1  0  0  0  0
 16 17  1  0  0  0  0
 16  9  1  0  0  0  0
 18 16  1  0  0  0  0
 19  3  1  0  0  0  0
 20 19  1  0  0  0  0
 21 19  1  0  0  0  0
 22 19  1  0  0  0  0
 22 23  1  0  0  0  0
 23 24  1  0  0  0  0
 25 23  2  0  0  0  0
 26 25  1  0  0  0  0
 27 32  1  0  0  0  0
 27 26  2  0  0  0  0
 28 27  1  0  0  0  0
 29 30  1  0  0  0  0
 29 28  2  0  0  0  0
 30 31  2  0  0  0  0
 31 32  1  0  0  0  0
 32 22  2  0  0  0  0
M  END
>  <minimizedAffinity>
-5.34604073

>  <minimizedRMSD>
1.2969557

$$$$
