
 OpenBabel03252507473D

 39 42  0  0  0  0  0  0  0  0999 V2000
   35.4190   28.5290   37.0010 C   0  0  0  0  0  0  0  0  0  0  0  0
   34.6710   28.6230   35.8400 C   0  0  0  0  0  0  0  0  0  0  0  0
   35.2840   28.8700   34.6180 C   0  0  0  0  0  0  0  0  0  0  0  0
   36.6590   29.0110   34.6340 N   0  0  0  0  0  0  0  0  0  0  0  0
   37.3500   28.9110   35.7870 C   0  0  0  0  0  0  0  0  0  0  0  0
   36.7400   28.6750   36.9400 N   0  0  0  0  0  0  0  0  0  0  0  0
   34.7100   28.9460   33.7050 H   0  0  0  0  0  0  0  0  0  0  0  0
   38.4270   29.0400   35.6730 H   0  0  0  0  0  0  0  0  0  0  0  0
   34.6770   28.2660   38.2480 C   0  0  0  0  0  0  0  0  0  0  0  0
   33.6320   27.9160   38.0090 H   0  0  0  0  0  0  0  0  0  0  0  0
   35.1250   27.4470   38.8300 H   0  0  0  0  0  0  0  0  0  0  0  0
   34.5960   29.4500   39.1570 C   0  0  0  0  0  0  0  0  0  0  0  0
   33.6410   29.4420   39.6840 H   0  0  0  0  0  0  0  0  0  0  0  0
   34.6150   30.3960   38.5440 H   0  0  0  0  0  0  0  0  0  0  0  0
   35.6970   29.5190   40.1490 C   0  0  0  0  0  0  0  0  0  0  0  0
   35.7780   28.5250   41.1840 C   0  0  0  0  0  0  0  0  0  0  0  0
   37.2750   29.0470   42.1210 S   0  0  0  0  0  0  0  0  0  0  0  0
   37.5350   30.5200   40.9520 C   0  0  0  0  0  0  0  0  0  0  0  0
   36.6600   30.3940   40.2320 N   0  0  0  0  0  0  0  0  0  0  0  0
   35.1040   27.6920   41.3380 H   0  0  0  0  0  0  0  0  0  0  0  0
   38.5850   31.4160   41.0990 O   0  0  0  0  0  0  0  0  0  0  0  0
   39.1820   33.0580   39.0990 O   0  0  0  0  0  0  0  0  0  0  0  0
   38.3930   32.9690   40.4090 P   0  0  0  0  0  0  0  0  0  0  0  0
   36.7430   33.1850   40.0780 O   0  0  0  0  0  0  0  0  0  0  0  0
   36.5760   32.8580   39.1640 H   0  0  0  0  0  0  0  0  0  0  0  0
   38.8990   34.1480   41.5080 O   0  0  0  0  0  0  0  0  0  0  0  0
   38.1600   34.6980   41.8500 H   0  0  0  0  0  0  0  0  0  0  0  0
   32.8900   28.4270   35.8870 S   0  0  0  0  0  0  0  0  0  0  0  0
   32.0380   29.9420   35.5930 C   0  0  0  0  0  0  0  0  0  0  0  0
   32.1990   30.6720   34.4340 C   0  0  0  0  0  0  0  0  0  0  0  0
   32.8770   30.2970   33.6760 H   0  0  0  0  0  0  0  0  0  0  0  0
   31.5150   31.8370   34.2590 C   0  0  0  0  0  3  0  0  0  0  0  0
   30.6460   32.3130   35.2400 C   0  0  0  0  0  3  0  0  0  0  0  0
   30.4970   31.5620   36.4030 C   0  0  0  0  0  0  0  0  0  0  0  0
   29.6330   32.0280   37.3860 C   0  0  0  0  0  3  0  0  0  0  0  0
   29.4500   31.3220   38.5550 C   0  0  0  0  0  3  0  0  0  0  0  0
   30.1390   30.1240   38.7600 C   0  0  0  0  0  3  0  0  0  0  0  0
   31.0010   29.6720   37.7640 C   0  0  0  0  0  3  0  0  0  0  0  0
   31.1910   30.3650   36.5960 C   0  0  0  0  0  0  0  0  0  0  0  0
  1  9  1  0  0  0  0
  2 28  1  0  0  0  0
  2  1  2  0  0  0  0
  3  4  2  0  0  0  0
  3  2  1  0  0  0  0
  4  5  1  0  0  0  0
  5  6  2  0  0  0  0
  6  1  1  0  0  0  0
  7  3  1  0  0  0  0
  8  5  1  0  0  0  0
  9 11  1  0  0  0  0
  9 12  1  0  0  0  0
 10  9  1  0  0  0  0
 12 13  1  0  0  0  0
 12 15  1  0  0  0  0
 14 12  1  0  0  0  0
 15 19  1  0  0  0  0
 15 16  2  0  0  0  0
 16 20  1  0  0  0  0
 16 17  1  0  0  0  0
 18 21  1  0  0  0  0
 18 17  1  0  0  0  0
 19 18  2  0  0  0  0
 22 23  2  0  0  0  0
 23 21  1  0  0  0  0
 23 26  1  0  0  0  0
 24 23  1  0  0  0  0
 25 24  1  0  0  0  0
 26 27  1  0  0  0  0
 29 28  1  0  0  0  0
 29 39  1  0  0  0  0
 30 29  2  0  0  0  0
 31 30  1  0  0  0  0
 32 30  1  0  0  0  0
 32 33  2  0  0  0  0
 33 34  1  0  0  0  0
 34 39  2  0  0  0  0
 34 35  1  0  0  0  0
 35 36  2  0  0  0  0
 36 37  1  0  0  0  0
 38 37  2  0  0  0  0
 39 38  1  0  0  0  0
M  END
>  <minimizedAffinity>
-6.56151915

$$$$

 OpenBabel03252507473D

 39 42  0  0  0  0  0  0  0  0999 V2000
   36.2880   28.1470   39.7050 C   0  0  0  0  0  0  0  0  0  0  0  0
   36.6840   27.3440   40.7620 C   0  0  0  0  0  0  0  0  0  0  0  0
   36.8560   25.9770   40.5900 C   0  0  0  0  0  0  0  0  0  0  0  0
   36.6150   25.4790   39.3240 N   0  0  0  0  0  0  0  0  0  0  0  0
   36.2320   26.2950   38.3210 C   0  0  0  0  0  0  0  0  0  0  0  0
   36.0740   27.5970   38.5130 N   0  0  0  0  0  0  0  0  0  0  0  0
   37.1640   25.3410   41.4080 H   0  0  0  0  0  0  0  0  0  0  0  0
   36.0720   25.7860   37.3700 H   0  0  0  0  0  0  0  0  0  0  0  0
   36.1310   29.5850   39.9880 C   0  0  0  0  0  0  0  0  0  0  0  0
   35.0480   29.8240   40.1890 H   0  0  0  0  0  0  0  0  0  0  0  0
   36.6620   29.8860   40.9030 H   0  0  0  0  0  0  0  0  0  0  0  0
   36.6270   30.4700   38.8890 C   0  0  0  0  0  0  0  0  0  0  0  0
   35.7800   30.9370   38.3860 H   0  0  0  0  0  0  0  0  0  0  0  0
   37.1550   29.8440   38.1130 H   0  0  0  0  0  0  0  0  0  0  0  0
   37.5620   31.5270   39.3470 C   0  0  0  0  0  0  0  0  0  0  0  0
   37.1050   32.5170   40.2840 C   0  0  0  0  0  0  0  0  0  0  0  0
   38.6020   33.5630   40.5190 S   0  0  0  0  0  0  0  0  0  0  0  0
   39.5890   32.4820   39.3110 C   0  0  0  0  0  0  0  0  0  0  0  0
   38.8090   31.7070   39.0120 N   0  0  0  0  0  0  0  0  0  0  0  0
   36.1150   32.5910   40.7180 H   0  0  0  0  0  0  0  0  0  0  0  0
   40.9180   32.7320   38.9980 O   0  0  0  0  0  0  0  0  0  0  0  0
   42.2570   31.2720   37.2270 O   0  0  0  0  0  0  0  0  0  0  0  0
   41.3910   32.5290   37.3660 P   0  0  0  0  0  0  0  0  0  0  0  0
   39.9820   32.3350   36.4420 O   0  0  0  0  0  0  0  0  0  0  0  0
   39.7760   31.3730   36.4080 H   0  0  0  0  0  0  0  0  0  0  0  0
   42.2190   33.9030   36.8370 O   0  0  0  0  0  0  0  0  0  0  0  0
   41.7220   34.4160   36.1630 H   0  0  0  0  0  0  0  0  0  0  0  0
   36.9830   28.0550   42.3810 S   0  0  0  0  0  0  0  0  0  0  0  0
   38.6190   28.6910   42.5440 C   0  0  0  0  0  0  0  0  0  0  0  0
   38.9280   30.0150   42.3130 C   0  0  0  0  0  0  0  0  0  0  0  0
   38.1310   30.6880   42.0190 H   0  0  0  0  0  0  0  0  0  0  0  0
   40.2090   30.4540   42.4540 C   0  0  0  0  0  3  0  0  0  0  0  0
   41.2290   29.5800   42.8320 C   0  0  0  0  0  3  0  0  0  0  0  0
   40.8980   28.2470   43.0600 C   0  0  0  0  0  0  0  0  0  0  0  0
   41.9060   27.3690   43.4370 C   0  0  0  0  0  3  0  0  0  0  0  0
   41.6310   26.0410   43.6760 C   0  0  0  0  0  3  0  0  0  0  0  0
   40.3240   25.5650   43.5380 C   0  0  0  0  0  3  0  0  0  0  0  0
   39.3250   26.4590   43.1600 C   0  0  0  0  0  3  0  0  0  0  0  0
   39.5870   27.7830   42.9200 C   0  0  0  0  0  0  0  0  0  0  0  0
  1  9  1  0  0  0  0
  1  2  1  0  0  0  0
  2 28  1  0  0  0  0
  3  2  2  0  0  0  0
  3  7  1  0  0  0  0
  4  3  1  0  0  0  0
  5  6  1  0  0  0  0
  5  4  2  0  0  0  0
  6  1  2  0  0  0  0
  8  5  1  0  0  0  0
  9 10  1  0  0  0  0
  9 11  1  0  0  0  0
 12 15  1  0  0  0  0
 12  9  1  0  0  0  0
 13 12  1  0  0  0  0
 14 12  1  0  0  0  0
 15 16  2  0  0  0  0
 16 17  1  0  0  0  0
 16 20  1  0  0  0  0
 18 17  1  0  0  0  0
 19 18  2  0  0  0  0
 19 15  1  0  0  0  0
 21 18  1  0  0  0  0
 22 23  2  0  0  0  0
 23 21  1  0  0  0  0
 24 23  1  0  0  0  0
 25 24  1  0  0  0  0
 26 23  1  0  0  0  0
 27 26  1  0  0  0  0
 28 29  1  0  0  0  0
 29 39  1  0  0  0  0
 30 32  1  0  0  0  0
 30 29  2  0  0  0  0
 31 30  1  0  0  0  0
 32 33  2  0  0  0  0
 33 34  1  0  0  0  0
 34 35  1  0  0  0  0
 35 36  2  0  0  0  0
 37 36  1  0  0  0  0
 38 37  2  0  0  0  0
 39 34  2  0  0  0  0
 39 38  1  0  0  0  0
M  END
>  <minimizedAffinity>
-6.5117898

$$$$

 OpenBabel03252507473D

 39 42  0  0  0  0  0  0  0  0999 V2000
   35.0380   28.8500   37.2050 C   0  0  0  0  0  0  0  0  0  0  0  0
   34.2140   28.9250   36.0940 C   0  0  0  0  0  0  0  0  0  0  0  0
   34.6960   29.4080   34.8840 C   0  0  0  0  0  0  0  0  0  0  0  0
   36.0210   29.7980   34.8580 N   0  0  0  0  0  0  0  0  0  0  0  0
   36.7900   29.7080   35.9620 C   0  0  0  0  0  0  0  0  0  0  0  0
   36.3050   29.2440   37.1050 N   0  0  0  0  0  0  0  0  0  0  0  0
   34.0610   29.4710   34.0110 H   0  0  0  0  0  0  0  0  0  0  0  0
   37.8160   30.0450   35.8180 H   0  0  0  0  0  0  0  0  0  0  0  0
   34.4340   28.3260   38.4440 C   0  0  0  0  0  0  0  0  0  0  0  0
   33.4130   27.9020   38.2260 H   0  0  0  0  0  0  0  0  0  0  0  0
   35.0080   27.4850   38.8590 H   0  0  0  0  0  0  0  0  0  0  0  0
   34.3140   29.3470   39.5300 C   0  0  0  0  0  0  0  0  0  0  0  0
   33.4910   29.0800   40.1930 H   0  0  0  0  0  0  0  0  0  0  0  0
   34.0510   30.3460   39.0790 H   0  0  0  0  0  0  0  0  0  0  0  0
   35.5500   29.5130   40.3340 C   0  0  0  0  0  0  0  0  0  0  0  0
   36.0040   28.4290   41.1630 C   0  0  0  0  0  0  0  0  0  0  0  0
   37.5290   29.1250   41.9260 S   0  0  0  0  0  0  0  0  0  0  0  0
   37.2910   30.7600   40.9930 C   0  0  0  0  0  0  0  0  0  0  0  0
   36.3360   30.5510   40.4080 N   0  0  0  0  0  0  0  0  0  0  0  0
   35.5340   27.4610   41.2800 H   0  0  0  0  0  0  0  0  0  0  0  0
   38.1690   31.8290   41.1190 O   0  0  0  0  0  0  0  0  0  0  0  0
   39.4480   33.8710   40.0020 O   0  0  0  0  0  0  0  0  0  0  0  0
   38.2480   32.9370   39.8180 P   0  0  0  0  0  0  0  0  0  0  0  0
   38.4560   32.0420   38.3920 O   0  0  0  0  0  0  0  0  0  0  0  0
   39.4240   31.9370   38.2430 H   0  0  0  0  0  0  0  0  0  0  0  0
   36.8040   33.8080   39.7230 O   0  0  0  0  0  0  0  0  0  0  0  0
   36.2770   33.5930   38.9230 H   0  0  0  0  0  0  0  0  0  0  0  0
   32.5030   28.4000   36.1940 S   0  0  0  0  0  0  0  0  0  0  0  0
   31.4340   29.6900   36.7410 C   0  0  0  0  0  0  0  0  0  0  0  0
   31.0380   29.8200   38.0560 C   0  0  0  0  0  0  0  0  0  0  0  0
   31.4000   29.0990   38.7790 H   0  0  0  0  0  0  0  0  0  0  0  0
   30.2100   30.8370   38.4240 C   0  0  0  0  0  3  0  0  0  0  0  0
   29.7480   31.7610   37.4870 C   0  0  0  0  0  3  0  0  0  0  0  0
   30.1590   31.6130   36.1640 C   0  0  0  0  0  0  0  0  0  0  0  0
   29.7040   32.5270   35.2230 C   0  0  0  0  0  3  0  0  0  0  0  0
   30.0810   32.4260   33.9020 C   0  0  0  0  0  3  0  0  0  0  0  0
   30.9300   31.3920   33.4980 C   0  0  0  0  0  3  0  0  0  0  0  0
   31.3760   30.4830   34.4540 C   0  0  0  0  0  3  0  0  0  0  0  0
   31.0080   30.5750   35.7720 C   0  0  0  0  0  0  0  0  0  0  0  0
  1  9  1  0  0  0  0
  2 28  1  0  0  0  0
  2  1  2  0  0  0  0
  3  2  1  0  0  0  0
  4  3  2  0  0  0  0
  4  5  1  0  0  0  0
  5  6  2  0  0  0  0
  6  1  1  0  0  0  0
  7  3  1  0  0  0  0
  8  5  1  0  0  0  0
  9 11  1  0  0  0  0
  9 12  1  0  0  0  0
 10  9  1  0  0  0  0
 12 13  1  0  0  0  0
 12 15  1  0  0  0  0
 14 12  1  0  0  0  0
 15 19  1  0  0  0  0
 15 16  2  0  0  0  0
 16 20  1  0  0  0  0
 16 17  1  0  0  0  0
 18 21  1  0  0  0  0
 18 17  1  0  0  0  0
 19 18  2  0  0  0  0
 23 22  2  0  0  0  0
 23 21  1  0  0  0  0
 24 23  1  0  0  0  0
 25 24  1  0  0  0  0
 26 23  1  0  0  0  0
 27 26  1  0  0  0  0
 28 29  1  0  0  0  0
 29 30  1  0  0  0  0
 30 32  2  0  0  0  0
 30 31  1  0  0  0  0
 33 32  1  0  0  0  0
 34 33  2  0  0  0  0
 35 34  1  0  0  0  0
 36 35  2  0  0  0  0
 37 36  1  0  0  0  0
 37 38  2  0  0  0  0
 38 39  1  0  0  0  0
 39 34  1  0  0  0  0
 39 29  2  0  0  0  0
M  END
>  <minimizedAffinity>
-6.20690727

$$$$

 OpenBabel03252507473D

 39 42  0  0  0  0  0  0  0  0999 V2000
   35.1700   28.6480   37.1020 C   0  0  0  0  0  0  0  0  0  0  0  0
   34.5290   28.8260   35.8880 C   0  0  0  0  0  0  0  0  0  0  0  0
   35.2400   29.2140   34.7600 C   0  0  0  0  0  0  0  0  0  0  0  0
   36.5990   29.4050   34.9220 N   0  0  0  0  0  0  0  0  0  0  0  0
   37.1840   29.2200   36.1220 C   0  0  0  0  0  0  0  0  0  0  0  0
   36.4820   28.8500   37.1840 N   0  0  0  0  0  0  0  0  0  0  0  0
   34.7500   29.3560   33.8060 H   0  0  0  0  0  0  0  0  0  0  0  0
   38.2590   29.4010   36.1250 H   0  0  0  0  0  0  0  0  0  0  0  0
   34.3280   28.2380   38.2410 C   0  0  0  0  0  0  0  0  0  0  0  0
   33.2970   27.9580   37.8800 H   0  0  0  0  0  0  0  0  0  0  0  0
   34.7120   27.3310   38.7320 H   0  0  0  0  0  0  0  0  0  0  0  0
   34.2030   29.2850   39.3020 C   0  0  0  0  0  0  0  0  0  0  0  0
   33.2640   29.1510   39.8390 H   0  0  0  0  0  0  0  0  0  0  0  0
   34.1540   30.3030   38.8200 H   0  0  0  0  0  0  0  0  0  0  0  0
   35.3230   29.2860   40.2760 C   0  0  0  0  0  0  0  0  0  0  0  0
   36.1120   30.4760   40.4430 C   0  0  0  0  0  0  0  0  0  0  0  0
   37.3310   29.9670   41.7260 S   0  0  0  0  0  0  0  0  0  0  0  0
   36.5640   28.2340   41.8170 C   0  0  0  0  0  0  0  0  0  0  0  0
   35.7240   28.3170   41.0500 N   0  0  0  0  0  0  0  0  0  0  0  0
   35.9860   31.4170   39.9220 H   0  0  0  0  0  0  0  0  0  0  0  0
   37.0430   27.2460   42.6670 O   0  0  0  0  0  0  0  0  0  0  0  0
   36.6950   24.6430   42.2710 O   0  0  0  0  0  0  0  0  0  0  0  0
   37.6330   25.8100   41.9470 P   0  0  0  0  0  0  0  0  0  0  0  0
   37.6600   26.0490   40.2680 O   0  0  0  0  0  0  0  0  0  0  0  0
   36.7880   25.7630   39.9110 H   0  0  0  0  0  0  0  0  0  0  0  0
   39.2020   25.5030   42.4920 O   0  0  0  0  0  0  0  0  0  0  0  0
   39.8800   25.6040   41.7890 H   0  0  0  0  0  0  0  0  0  0  0  0
   32.7620   28.5590   35.7440 S   0  0  0  0  0  0  0  0  0  0  0  0
   31.8700   30.0630   35.5210 C   0  0  0  0  0  0  0  0  0  0  0  0
   31.9870   30.8350   34.3840 C   0  0  0  0  0  0  0  0  0  0  0  0
   32.6550   30.5010   33.5990 H   0  0  0  0  0  0  0  0  0  0  0  0
   31.2730   31.9890   34.2640 C   0  0  0  0  0  3  0  0  0  0  0  0
   30.4160   32.4110   35.2800 C   0  0  0  0  0  3  0  0  0  0  0  0
   30.3110   31.6180   36.4200 C   0  0  0  0  0  0  0  0  0  0  0  0
   29.4600   32.0300   37.4370 C   0  0  0  0  0  3  0  0  0  0  0  0
   29.3190   31.2820   38.5850 C   0  0  0  0  0  3  0  0  0  0  0  0
   30.0400   30.0940   38.7340 C   0  0  0  0  0  3  0  0  0  0  0  0
   30.8890   29.6950   37.7040 C   0  0  0  0  0  3  0  0  0  0  0  0
   31.0360   30.4320   36.5570 C   0  0  0  0  0  0  0  0  0  0  0  0
  1  6  1  0  0  0  0
  1  9  1  0  0  0  0
  2  1  2  0  0  0  0
  3  4  2  0  0  0  0
  3  2  1  0  0  0  0
  4  5  1  0  0  0  0
  5  8  1  0  0  0  0
  5  6  2  0  0  0  0
  7  3  1  0  0  0  0
  9 11  1  0  0  0  0
  9 12  1  0  0  0  0
 10  9  1  0  0  0  0
 12 13  1  0  0  0  0
 12 15  1  0  0  0  0
 14 12  1  0  0  0  0
 15 16  2  0  0  0  0
 15 19  1  0  0  0  0
 16 17  1  0  0  0  0
 17 18  1  0  0  0  0
 18 21  1  0  0  0  0
 19 18  2  0  0  0  0
 20 16  1  0  0  0  0
 23 22  2  0  0  0  0
 23 26  1  0  0  0  0
 23 21  1  0  0  0  0
 24 23  1  0  0  0  0
 25 24  1  0  0  0  0
 27 26  1  0  0  0  0
 28  2  1  0  0  0  0
 29 28  1  0  0  0  0
 29 39  1  0  0  0  0
 30 29  2  0  0  0  0
 31 30  1  0  0  0  0
 32 30  1  0  0  0  0
 32 33  2  0  0  0  0
 33 34  1  0  0  0  0
 34 39  2  0  0  0  0
 34 35  1  0  0  0  0
 35 36  2  0  0  0  0
 36 37  1  0  0  0  0
 38 37  2  0  0  0  0
 39 38  1  0  0  0  0
M  END
>  <minimizedAffinity>
-6.19804049

$$$$

 OpenBabel03252507473D

 39 42  0  0  0  0  0  0  0  0999 V2000
   36.4810   30.1330   38.8590 C   0  0  0  0  0  0  0  0  0  0  0  0
   36.2660   28.8500   39.3320 C   0  0  0  0  0  0  0  0  0  0  0  0
   36.2180   27.7710   38.4600 C   0  0  0  0  0  0  0  0  0  0  0  0
   36.3960   28.0520   37.1190 N   0  0  0  0  0  0  0  0  0  0  0  0
   36.6040   29.3160   36.7000 C   0  0  0  0  0  0  0  0  0  0  0  0
   36.6450   30.3290   37.5540 N   0  0  0  0  0  0  0  0  0  0  0  0
   36.0500   26.7640   38.8180 H   0  0  0  0  0  0  0  0  0  0  0  0
   36.7300   29.4120   35.6210 H   0  0  0  0  0  0  0  0  0  0  0  0
   36.5140   31.2130   39.8640 C   0  0  0  0  0  0  0  0  0  0  0  0
   35.4690   31.5840   40.0670 H   0  0  0  0  0  0  0  0  0  0  0  0
   36.8830   30.8590   40.8380 H   0  0  0  0  0  0  0  0  0  0  0  0
   37.3730   32.3720   39.4690 C   0  0  0  0  0  0  0  0  0  0  0  0
   36.9750   33.2870   39.9090 H   0  0  0  0  0  0  0  0  0  0  0  0
   37.3280   32.5080   38.3510 H   0  0  0  0  0  0  0  0  0  0  0  0
   38.7960   32.2230   39.8630 C   0  0  0  0  0  0  0  0  0  0  0  0
   39.2200   32.6720   41.1610 C   0  0  0  0  0  0  0  0  0  0  0  0
   41.0180   32.2720   41.1510 S   0  0  0  0  0  0  0  0  0  0  0  0
   40.8860   31.5670   39.3940 C   0  0  0  0  0  0  0  0  0  0  0  0
   39.7790   31.7170   39.1720 N   0  0  0  0  0  0  0  0  0  0  0  0
   38.6020   33.1270   41.9240 H   0  0  0  0  0  0  0  0  0  0  0  0
   41.9780   31.0420   38.7140 O   0  0  0  0  0  0  0  0  0  0  0  0
   42.3690   30.1850   36.2300 O   0  0  0  0  0  0  0  0  0  0  0  0
   42.1430   31.4520   37.0610 P   0  0  0  0  0  0  0  0  0  0  0  0
   40.6980   32.1890   36.5660 O   0  0  0  0  0  0  0  0  0  0  0  0
   40.0990   31.4810   36.2370 H   0  0  0  0  0  0  0  0  0  0  0  0
   43.4190   32.5440   36.8710 O   0  0  0  0  0  0  0  0  0  0  0  0
   43.1210   33.4410   36.6030 H   0  0  0  0  0  0  0  0  0  0  0  0
   36.0450   28.5520   41.0870 S   0  0  0  0  0  0  0  0  0  0  0  0
   37.5730   28.2700   41.9190 C   0  0  0  0  0  0  0  0  0  0  0  0
   38.3870   29.2970   42.3460 C   0  0  0  0  0  0  0  0  0  0  0  0
   38.0740   30.3180   42.1600 H   0  0  0  0  0  0  0  0  0  0  0  0
   39.5580   29.0220   42.9850 C   0  0  0  0  0  3  0  0  0  0  0  0
   39.9550   27.7050   43.2190 C   0  0  0  0  0  3  0  0  0  0  0  0
   39.1190   26.6820   42.7810 C   0  0  0  0  0  0  0  0  0  0  0  0
   39.5050   25.3670   43.0090 C   0  0  0  0  0  3  0  0  0  0  0  0
   38.7140   24.3180   42.5960 C   0  0  0  0  0  3  0  0  0  0  0  0
   37.5080   24.5730   41.9380 C   0  0  0  0  0  3  0  0  0  0  0  0
   37.1350   25.8970   41.7170 C   0  0  0  0  0  3  0  0  0  0  0  0
   37.9150   26.9490   42.1240 C   0  0  0  0  0  0  0  0  0  0  0  0
  1  2  1  0  0  0  0
  1  9  1  0  0  0  0
  2 28  1  0  0  0  0
  3  7  1  0  0  0  0
  3  2  2  0  0  0  0
  4  3  1  0  0  0  0
  5  4  2  0  0  0  0
  5  6  1  0  0  0  0
  6  1  2  0  0  0  0
  8  5  1  0  0  0  0
  9 10  1  0  0  0  0
  9 11  1  0  0  0  0
 12 15  1  0  0  0  0
 12  9  1  0  0  0  0
 12 13  1  0  0  0  0
 14 12  1  0  0  0  0
 15 16  2  0  0  0  0
 16 20  1  0  0  0  0
 17 16  1  0  0  0  0
 18 17  1  0  0  0  0
 19 18  2  0  0  0  0
 19 15  1  0  0  0  0
 21 18  1  0  0  0  0
 22 23  2  0  0  0  0
 23 21  1  0  0  0  0
 24 23  1  0  0  0  0
 25 24  1  0  0  0  0
 26 23  1  0  0  0  0
 27 26  1  0  0  0  0
 28 29  1  0  0  0  0
 29 39  2  0  0  0  0
 29 30  1  0  0  0  0
 30 32  2  0  0  0  0
 31 30  1  0  0  0  0
 32 33  1  0  0  0  0
 34 35  1  0  0  0  0
 34 33  2  0  0  0  0
 36 35  2  0  0  0  0
 37 36  1  0  0  0  0
 38 37  2  0  0  0  0
 38 39  1  0  0  0  0
 39 34  1  0  0  0  0
M  END
>  <minimizedAffinity>
-6.17164087

$$$$

 OpenBabel03252507473D

 39 42  0  0  0  0  0  0  0  0999 V2000
   36.2420   28.9690   37.2230 C   0  0  0  0  0  0  0  0  0  0  0  0
   36.3890   27.6430   37.5950 C   0  0  0  0  0  0  0  0  0  0  0  0
   35.4080   26.7080   37.2930 C   0  0  0  0  0  0  0  0  0  0  0  0
   34.3000   27.1730   36.6120 N   0  0  0  0  0  0  0  0  0  0  0  0
   34.1950   28.4730   36.2680 C   0  0  0  0  0  0  0  0  0  0  0  0
   35.1470   29.3460   36.5690 N   0  0  0  0  0  0  0  0  0  0  0  0
   35.5130   25.6700   37.5780 H   0  0  0  0  0  0  0  0  0  0  0  0
   33.2770   28.7190   35.7350 H   0  0  0  0  0  0  0  0  0  0  0  0
   37.3370   29.8850   37.5900 C   0  0  0  0  0  0  0  0  0  0  0  0
   38.1410   29.3240   38.1470 H   0  0  0  0  0  0  0  0  0  0  0  0
   37.8420   30.3000   36.7050 H   0  0  0  0  0  0  0  0  0  0  0  0
   36.8930   31.0480   38.4200 C   0  0  0  0  0  0  0  0  0  0  0  0
   36.2290   30.6990   39.2120 H   0  0  0  0  0  0  0  0  0  0  0  0
   36.2870   31.7540   37.7830 H   0  0  0  0  0  0  0  0  0  0  0  0
   38.0100   31.8120   39.0260 C   0  0  0  0  0  0  0  0  0  0  0  0
   37.7200   32.8800   39.9440 C   0  0  0  0  0  0  0  0  0  0  0  0
   39.3990   33.4860   40.3940 S   0  0  0  0  0  0  0  0  0  0  0  0
   40.2060   32.1920   39.2640 C   0  0  0  0  0  0  0  0  0  0  0  0
   39.2920   31.6560   38.8450 N   0  0  0  0  0  0  0  0  0  0  0  0
   36.7400   33.2120   40.2630 H   0  0  0  0  0  0  0  0  0  0  0  0
   41.5820   32.0800   39.1170 O   0  0  0  0  0  0  0  0  0  0  0  0
   43.6950   31.7230   37.5480 O   0  0  0  0  0  0  0  0  0  0  0  0
   42.2020   32.0660   37.5230 P   0  0  0  0  0  0  0  0  0  0  0  0
   41.3720   30.8660   36.6580 O   0  0  0  0  0  0  0  0  0  0  0  0
   41.8710   30.0230   36.7630 H   0  0  0  0  0  0  0  0  0  0  0  0
   41.9320   33.5650   36.7930 O   0  0  0  0  0  0  0  0  0  0  0  0
   41.2780   33.5260   36.0620 H   0  0  0  0  0  0  0  0  0  0  0  0
   37.8550   27.1030   38.4750 S   0  0  0  0  0  0  0  0  0  0  0  0
   37.4730   26.3740   40.0340 C   0  0  0  0  0  0  0  0  0  0  0  0
   37.1450   25.0420   40.1710 C   0  0  0  0  0  0  0  0  0  0  0  0
   37.1200   24.4210   39.2830 H   0  0  0  0  0  0  0  0  0  0  0  0
   36.8580   24.5300   41.4000 C   0  0  0  0  0  3  0  0  0  0  0  0
   36.8910   25.3360   42.5380 C   0  0  0  0  0  3  0  0  0  0  0  0
   37.2250   26.6790   42.3790 C   0  0  0  0  0  0  0  0  0  0  0  0
   37.2610   27.4900   43.5060 C   0  0  0  0  0  3  0  0  0  0  0  0
   37.5860   28.8250   43.4040 C   0  0  0  0  0  3  0  0  0  0  0  0
   37.8840   29.3750   42.1540 C   0  0  0  0  0  3  0  0  0  0  0  0
   37.8440   28.5470   41.0340 C   0  0  0  0  0  3  0  0  0  0  0  0
   37.5220   27.2170   41.1240 C   0  0  0  0  0  0  0  0  0  0  0  0
  1  9  1  0  0  0  0
  1  2  1  0  0  0  0
  2 28  1  0  0  0  0
  3  7  1  0  0  0  0
  3  2  2  0  0  0  0
  4  3  1  0  0  0  0
  5  6  1  0  0  0  0
  5  4  2  0  0  0  0
  6  1  2  0  0  0  0
  8  5  1  0  0  0  0
  9 10  1  0  0  0  0
  9 12  1  0  0  0  0
 11  9  1  0  0  0  0
 12 15  1  0  0  0  0
 12 13  1  0  0  0  0
 14 12  1  0  0  0  0
 15 16  2  0  0  0  0
 16 20  1  0  0  0  0
 16 17  1  0  0  0  0
 18 17  1  0  0  0  0
 19 15  1  0  0  0  0
 19 18  2  0  0  0  0
 21 18  1  0  0  0  0
 23 22  2  0  0  0  0
 23 21  1  0  0  0  0
 24 25  1  0  0  0  0
 24 23  1  0  0  0  0
 26 23  1  0  0  0  0
 27 26  1  0  0  0  0
 28 29  1  0  0  0  0
 29 30  2  0  0  0  0
 29 39  1  0  0  0  0
 30 32  1  0  0  0  0
 31 30  1  0  0  0  0
 32 33  2  0  0  0  0
 34 33  1  0  0  0  0
 34 35  1  0  0  0  0
 36 35  2  0  0  0  0
 37 36  1  0  0  0  0
 38 39  1  0  0  0  0
 38 37  2  0  0  0  0
 39 34  2  0  0  0  0
M  END
>  <minimizedAffinity>
-6.02738667

$$$$

 OpenBabel03252507473D

 39 42  0  0  0  0  0  0  0  0999 V2000
   38.7400   30.0580   40.0720 C   0  0  0  0  0  0  0  0  0  0  0  0
   37.5200   29.8870   40.7040 C   0  0  0  0  0  0  0  0  0  0  0  0
   36.6210   30.9410   40.8100 C   0  0  0  0  0  0  0  0  0  0  0  0
   37.0130   32.1440   40.2550 N   0  0  0  0  0  0  0  0  0  0  0  0
   38.2100   32.2680   39.6470 C   0  0  0  0  0  0  0  0  0  0  0  0
   39.0500   31.2460   39.5610 N   0  0  0  0  0  0  0  0  0  0  0  0
   35.6660   30.8190   41.3010 H   0  0  0  0  0  0  0  0  0  0  0  0
   38.4060   33.2640   39.2490 H   0  0  0  0  0  0  0  0  0  0  0  0
   39.6250   28.8800   40.0130 C   0  0  0  0  0  0  0  0  0  0  0  0
   40.6740   29.1700   40.3070 H   0  0  0  0  0  0  0  0  0  0  0  0
   39.3310   28.1060   40.7360 H   0  0  0  0  0  0  0  0  0  0  0  0
   39.6610   28.2260   38.6680 C   0  0  0  0  0  0  0  0  0  0  0  0
   38.7390   28.4480   38.1290 H   0  0  0  0  0  0  0  0  0  0  0  0
   39.6950   27.1060   38.7960 H   0  0  0  0  0  0  0  0  0  0  0  0
   40.8200   28.6320   37.8360 C   0  0  0  0  0  0  0  0  0  0  0  0
   41.4970   27.6470   37.0370 C   0  0  0  0  0  0  0  0  0  0  0  0
   42.8180   28.6350   36.2210 S   0  0  0  0  0  0  0  0  0  0  0  0
   42.2290   30.2120   37.0980 C   0  0  0  0  0  0  0  0  0  0  0  0
   41.3500   29.8160   37.7070 N   0  0  0  0  0  0  0  0  0  0  0  0
   41.2550   26.5930   36.9650 H   0  0  0  0  0  0  0  0  0  0  0  0
   42.8410   31.4440   36.9160 O   0  0  0  0  0  0  0  0  0  0  0  0
   42.0760   33.0730   38.8700 O   0  0  0  0  0  0  0  0  0  0  0  0
   41.9520   32.8360   37.3610 P   0  0  0  0  0  0  0  0  0  0  0  0
   42.6170   34.1600   36.5350 O   0  0  0  0  0  0  0  0  0  0  0  0
   43.3250   34.5410   37.1040 H   0  0  0  0  0  0  0  0  0  0  0  0
   40.3360   32.6490   36.9030 O   0  0  0  0  0  0  0  0  0  0  0  0
   40.0680   33.2570   36.1790 H   0  0  0  0  0  0  0  0  0  0  0  0
   37.0710   28.2980   41.4010 S   0  0  0  0  0  0  0  0  0  0  0  0
   36.5990   27.1310   40.1670 C   0  0  0  0  0  0  0  0  0  0  0  0
   35.9420   27.4970   39.0110 C   0  0  0  0  0  0  0  0  0  0  0  0
   35.7060   28.5440   38.8590 H   0  0  0  0  0  0  0  0  0  0  0  0
   35.6010   26.5540   38.0890 C   0  0  0  0  0  3  0  0  0  0  0  0
   35.9060   25.2080   38.2940 C   0  0  0  0  0  3  0  0  0  0  0  0
   36.5700   24.8580   39.4660 C   0  0  0  0  0  0  0  0  0  0  0  0
   36.8800   23.5210   39.6790 C   0  0  0  0  0  3  0  0  0  0  0  0
   37.5360   23.1230   40.8230 C   0  0  0  0  0  3  0  0  0  0  0  0
   37.8980   24.0700   41.7840 C   0  0  0  0  0  3  0  0  0  0  0  0
   37.5800   25.4070   41.5550 C   0  0  0  0  0  3  0  0  0  0  0  0
   36.9270   25.8150   40.4200 C   0  0  0  0  0  0  0  0  0  0  0  0
  1  2  1  0  0  0  0
  2  3  2  0  0  0  0
  2 28  1  0  0  0  0
  3  7  1  0  0  0  0
  4  3  1  0  0  0  0
  5  4  2  0  0  0  0
  6  5  1  0  0  0  0
  6  1  2  0  0  0  0
  8  5  1  0  0  0  0
  9  1  1  0  0  0  0
  9 10  1  0  0  0  0
  9 11  1  0  0  0  0
 12 14  1  0  0  0  0
 12  9  1  0  0  0  0
 13 12  1  0  0  0  0
 15 12  1  0  0  0  0
 16 15  2  0  0  0  0
 17 16  1  0  0  0  0
 17 18  1  0  0  0  0
 18 19  2  0  0  0  0
 19 15  1  0  0  0  0
 20 16  1  0  0  0  0
 21 18  1  0  0  0  0
 21 23  1  0  0  0  0
 23 22  2  0  0  0  0
 24 25  1  0  0  0  0
 24 23  1  0  0  0  0
 26 23  1  0  0  0  0
 27 26  1  0  0  0  0
 29 39  1  0  0  0  0
 29 28  1  0  0  0  0
 30 29  2  0  0  0  0
 31 30  1  0  0  0  0
 32 33  2  0  0  0  0
 32 30  1  0  0  0  0
 33 34  1  0  0  0  0
 34 35  2  0  0  0  0
 34 39  1  0  0  0  0
 35 36  1  0  0  0  0
 36 37  2  0  0  0  0
 38 37  1  0  0  0  0
 39 38  2  0  0  0  0
M  END
>  <minimizedAffinity>
-6.01801443

$$$$

 OpenBabel03252507473D

 39 42  0  0  0  0  0  0  0  0999 V2000
   36.6580   30.3520   38.3810 C   0  0  0  0  0  0  0  0  0  0  0  0
   35.9350   29.8760   39.4620 C   0  0  0  0  0  0  0  0  0  0  0  0
   34.8750   28.9990   39.2750 C   0  0  0  0  0  0  0  0  0  0  0  0
   34.5940   28.6380   37.9710 N   0  0  0  0  0  0  0  0  0  0  0  0
   35.3230   29.1240   36.9470 C   0  0  0  0  0  0  0  0  0  0  0  0
   36.3310   29.9610   37.1530 N   0  0  0  0  0  0  0  0  0  0  0  0
   34.3030   28.6200   40.1110 H   0  0  0  0  0  0  0  0  0  0  0  0
   35.0070   28.7670   35.9670 H   0  0  0  0  0  0  0  0  0  0  0  0
   37.7640   31.2810   38.6820 C   0  0  0  0  0  0  0  0  0  0  0  0
   37.3610   32.2210   39.1560 H   0  0  0  0  0  0  0  0  0  0  0  0
   38.4610   30.8640   39.4240 H   0  0  0  0  0  0  0  0  0  0  0  0
   38.5770   31.6510   37.4830 C   0  0  0  0  0  0  0  0  0  0  0  0
   38.0830   32.4590   36.9420 H   0  0  0  0  0  0  0  0  0  0  0  0
   38.6240   30.7750   36.7760 H   0  0  0  0  0  0  0  0  0  0  0  0
   39.9660   32.0620   37.8050 C   0  0  0  0  0  0  0  0  0  0  0  0
   40.2070   32.9010   38.9480 C   0  0  0  0  0  0  0  0  0  0  0  0
   42.0360   33.1130   38.9060 S   0  0  0  0  0  0  0  0  0  0  0  0
   42.1600   32.0310   37.3520 C   0  0  0  0  0  0  0  0  0  0  0  0
   41.0670   31.7620   37.1760 N   0  0  0  0  0  0  0  0  0  0  0  0
   39.4660   33.2890   39.6360 H   0  0  0  0  0  0  0  0  0  0  0  0
   43.3690   31.7510   36.7300 O   0  0  0  0  0  0  0  0  0  0  0  0
   44.2930   29.3260   37.2970 O   0  0  0  0  0  0  0  0  0  0  0  0
   43.6210   30.1460   36.1920 P   0  0  0  0  0  0  0  0  0  0  0  0
   42.1020   29.4740   35.8490 O   0  0  0  0  0  0  0  0  0  0  0  0
   41.7700   29.0500   36.6730 H   0  0  0  0  0  0  0  0  0  0  0  0
   44.5550   30.1570   34.7840 O   0  0  0  0  0  0  0  0  0  0  0  0
   44.0560   29.8710   33.9880 H   0  0  0  0  0  0  0  0  0  0  0  0
   36.3530   30.3820   41.1300 S   0  0  0  0  0  0  0  0  0  0  0  0
   37.1890   29.1160   42.0270 C   0  0  0  0  0  0  0  0  0  0  0  0
   36.5430   27.9990   42.5140 C   0  0  0  0  0  0  0  0  0  0  0  0
   35.4780   27.9000   42.3380 H   0  0  0  0  0  0  0  0  0  0  0  0
   37.2380   27.0510   43.2010 C   0  0  0  0  0  3  0  0  0  0  0  0
   38.6080   27.1880   43.4250 C   0  0  0  0  0  3  0  0  0  0  0  0
   39.2430   28.3210   42.9250 C   0  0  0  0  0  0  0  0  0  0  0  0
   40.6070   28.4670   43.1420 C   0  0  0  0  0  3  0  0  0  0  0  0
   41.2830   29.5700   42.6680 C   0  0  0  0  0  3  0  0  0  0  0  0
   40.5930   30.5580   41.9600 C   0  0  0  0  0  3  0  0  0  0  0  0
   39.2250   30.3960   41.7510 C   0  0  0  0  0  3  0  0  0  0  0  0
   38.5430   29.3020   42.2180 C   0  0  0  0  0  0  0  0  0  0  0  0
  1  9  1  0  0  0  0
  1  2  1  0  0  0  0
  2 28  1  0  0  0  0
  3  2  2  0  0  0  0
  3  7  1  0  0  0  0
  4  3  1  0  0  0  0
  5  6  1  0  0  0  0
  5  4  2  0  0  0  0
  6  1  2  0  0  0  0
  8  5  1  0  0  0  0
  9 10  1  0  0  0  0
  9 11  1  0  0  0  0
 12 15  1  0  0  0  0
 12  9  1  0  0  0  0
 13 12  1  0  0  0  0
 14 12  1  0  0  0  0
 15 16  2  0  0  0  0
 16 20  1  0  0  0  0
 17 16  1  0  0  0  0
 18 17  1  0  0  0  0
 19 18  2  0  0  0  0
 19 15  1  0  0  0  0
 21 18  1  0  0  0  0
 23 21  1  0  0  0  0
 23 22  2  0  0  0  0
 24 23  1  0  0  0  0
 24 25  1  0  0  0  0
 26 23  1  0  0  0  0
 27 26  1  0  0  0  0
 28 29  1  0  0  0  0
 29 39  2  0  0  0  0
 29 30  1  0  0  0  0
 30 32  2  0  0  0  0
 31 30  1  0  0  0  0
 32 33  1  0  0  0  0
 34 35  1  0  0  0  0
 34 33  2  0  0  0  0
 36 35  2  0  0  0  0
 37 36  1  0  0  0  0
 38 37  2  0  0  0  0
 38 39  1  0  0  0  0
 39 34  1  0  0  0  0
M  END
>  <minimizedAffinity>
-5.99480915

$$$$

 OpenBabel03252507473D

 39 42  0  0  0  0  0  0  0  0999 V2000
   35.0810   28.9240   37.1710 C   0  0  0  0  0  0  0  0  0  0  0  0
   34.2740   28.9930   36.0480 C   0  0  0  0  0  0  0  0  0  0  0  0
   34.7620   29.5020   34.8520 C   0  0  0  0  0  0  0  0  0  0  0  0
   36.0780   29.9250   34.8520 N   0  0  0  0  0  0  0  0  0  0  0  0
   36.8310   29.8400   35.9670 C   0  0  0  0  0  0  0  0  0  0  0  0
   36.3400   29.3500   37.0970 N   0  0  0  0  0  0  0  0  0  0  0  0
   34.1410   29.5610   33.9690 H   0  0  0  0  0  0  0  0  0  0  0  0
   37.8510   30.2040   35.8440 H   0  0  0  0  0  0  0  0  0  0  0  0
   34.4710   28.3700   38.3930 C   0  0  0  0  0  0  0  0  0  0  0  0
   33.4450   27.9640   38.1630 H   0  0  0  0  0  0  0  0  0  0  0  0
   35.0350   27.5100   38.7830 H   0  0  0  0  0  0  0  0  0  0  0  0
   34.3620   29.3590   39.5100 C   0  0  0  0  0  0  0  0  0  0  0  0
   33.4130   29.2220   40.0290 H   0  0  0  0  0  0  0  0  0  0  0  0
   34.3470   30.4040   39.0860 H   0  0  0  0  0  0  0  0  0  0  0  0
   35.4700   29.2740   40.4940 C   0  0  0  0  0  0  0  0  0  0  0  0
   36.2890   30.4300   40.7370 C   0  0  0  0  0  0  0  0  0  0  0  0
   37.4770   29.8160   42.0020 S   0  0  0  0  0  0  0  0  0  0  0  0
   36.6630   28.1020   41.9860 C   0  0  0  0  0  0  0  0  0  0  0  0
   35.8350   28.2530   41.2160 N   0  0  0  0  0  0  0  0  0  0  0  0
   36.1950   31.4020   40.2680 H   0  0  0  0  0  0  0  0  0  0  0  0
   37.1050   27.0550   42.7830 O   0  0  0  0  0  0  0  0  0  0  0  0
   36.7210   24.4950   42.1890 O   0  0  0  0  0  0  0  0  0  0  0  0
   37.6960   25.6600   41.9890 P   0  0  0  0  0  0  0  0  0  0  0  0
   37.8030   26.0150   40.3340 O   0  0  0  0  0  0  0  0  0  0  0  0
   36.9420   25.7760   39.9210 H   0  0  0  0  0  0  0  0  0  0  0  0
   39.2330   25.2780   42.5770 O   0  0  0  0  0  0  0  0  0  0  0  0
   39.9440   25.4110   41.9130 H   0  0  0  0  0  0  0  0  0  0  0  0
   32.5750   28.4240   36.1140 S   0  0  0  0  0  0  0  0  0  0  0  0
   31.4720   29.6660   36.7030 C   0  0  0  0  0  0  0  0  0  0  0  0
   31.0670   29.7380   38.0190 C   0  0  0  0  0  0  0  0  0  0  0  0
   31.4440   28.9990   38.7170 H   0  0  0  0  0  0  0  0  0  0  0  0
   30.2130   30.7200   38.4210 C   0  0  0  0  0  3  0  0  0  0  0  0
   29.7320   31.6660   37.5160 C   0  0  0  0  0  3  0  0  0  0  0  0
   30.1520   31.5780   36.1910 C   0  0  0  0  0  0  0  0  0  0  0  0
   29.6790   32.5160   35.2820 C   0  0  0  0  0  3  0  0  0  0  0  0
   30.0640   32.4730   33.9610 C   0  0  0  0  0  3  0  0  0  0  0  0
   30.9400   31.4760   33.5230 C   0  0  0  0  0  3  0  0  0  0  0  0
   31.4050   30.5430   34.4470 C   0  0  0  0  0  3  0  0  0  0  0  0
   31.0280   30.5760   35.7650 C   0  0  0  0  0  0  0  0  0  0  0  0
  1  9  1  0  0  0  0
  2 28  1  0  0  0  0
  2  1  2  0  0  0  0
  3  4  2  0  0  0  0
  3  2  1  0  0  0  0
  4  5  1  0  0  0  0
  5  6  2  0  0  0  0
  6  1  1  0  0  0  0
  7  3  1  0  0  0  0
  8  5  1  0  0  0  0
  9 11  1  0  0  0  0
  9 12  1  0  0  0  0
 10  9  1  0  0  0  0
 12 13  1  0  0  0  0
 12 15  1  0  0  0  0
 14 12  1  0  0  0  0
 15 16  2  0  0  0  0
 15 19  1  0  0  0  0
 16 17  1  0  0  0  0
 18 17  1  0  0  0  0
 18 21  1  0  0  0  0
 19 18  2  0  0  0  0
 20 16  1  0  0  0  0
 23 22  2  0  0  0  0
 23 26  1  0  0  0  0
 23 21  1  0  0  0  0
 24 23  1  0  0  0  0
 25 24  1  0  0  0  0
 27 26  1  0  0  0  0
 28 29  1  0  0  0  0
 29 30  1  0  0  0  0
 30 32  2  0  0  0  0
 30 31  1  0  0  0  0
 33 32  1  0  0  0  0
 34 33  2  0  0  0  0
 35 34  1  0  0  0  0
 36 35  2  0  0  0  0
 37 36  1  0  0  0  0
 37 38  2  0  0  0  0
 38 39  1  0  0  0  0
 39 34  1  0  0  0  0
 39 29  2  0  0  0  0
M  END
>  <minimizedAffinity>
-5.95248842

$$$$
