
 OpenBabel03252501323D

 26 28  0  0  0  0  0  0  0  0999 V2000
   46.6700   32.6840   45.2670 C   0  0  0  0  0  0  0  0  0  0  0  0
   46.0810   31.5670   45.4790 O   0  0  0  0  0  0  0  0  0  0  0  0
   47.0950   33.3130   46.4760 N   0  0  0  0  0  0  0  0  0  0  0  0
   47.5600   34.2460   46.4860 H   0  0  0  0  0  0  0  0  0  0  0  0
   46.9150   33.3050   43.9680 C   0  0  0  0  0  0  0  0  0  0  0  0
   48.1360   32.9650   43.3810 C   0  0  0  0  0  0  0  0  0  0  0  0
   48.8690   32.2950   43.8280 H   0  0  0  0  0  0  0  0  0  0  0  0
   48.4620   33.5100   42.1360 C   0  0  0  0  0  0  0  0  0  0  0  0
   47.5630   34.3680   41.5230 C   0  0  0  0  0  0  0  0  0  0  0  0
   46.3500   34.7090   42.1030 C   0  0  0  0  0  0  0  0  0  0  0  0
   45.4320   35.5640   41.5150 C   0  0  0  0  0  0  0  0  0  0  0  0
   44.2420   35.8560   42.1530 C   0  0  0  0  0  0  0  0  0  0  0  0
   43.9370   35.3090   43.3820 C   0  0  0  0  0  0  0  0  0  0  0  0
   44.8490   34.4430   43.9940 C   0  0  0  0  0  0  0  0  0  0  0  0
   46.0330   34.1620   43.3440 C   0  0  0  0  0  0  0  0  0  0  0  0
   46.7700   32.4510   47.5870 C   0  0  0  0  0  0  0  0  0  0  0  0
   45.5690   32.4350   48.2840 C   0  0  0  0  0  0  0  0  0  0  0  0
   45.4380   31.5370   49.3230 C   0  0  0  0  0  0  0  0  0  0  0  0
   46.4900   30.7360   49.5880 N   0  0  0  0  0  0  0  0  0  0  0  0
   47.6460   30.7630   48.9040 C   0  0  0  0  0  0  0  0  0  0  0  0
   47.8100   31.6300   47.8800 N   0  0  0  0  0  0  0  0  0  0  0  0
   44.5090   31.5550   49.8290 H   0  0  0  0  0  0  0  0  0  0  0  0
   48.4140   30.0630   49.2120 H   0  0  0  0  0  0  0  0  0  0  0  0
   44.5770   33.3630   47.8470 N   0  0  0  0  0  0  0  0  0  0  0  0
   44.7970   34.0770   48.5870 H   0  0  0  0  0  0  0  0  0  0  0  0
   43.8870   33.3540   47.0860 H   0  0  0  0  0  0  0  0  0  0  0  0
  1  2  2  0  0  0  0
  1  3  1  0  0  0  0
  3  4  1  0  0  0  0
  3 16  1  0  0  0  0
  5  1  1  0  0  0  0
  6  7  1  0  0  0  0
  6  5  1  0  0  0  0
  8  6  2  0  0  0  0
  9 10  2  0  0  0  0
  9  8  1  0  0  0  0
 10 15  1  0  0  0  0
 11 10  1  0  0  0  0
 11 12  2  0  0  0  0
 12 13  1  0  0  0  0
 13 14  2  0  0  0  0
 15  5  2  0  0  0  0
 15 14  1  0  0  0  0
 16 21  2  0  0  0  0
 16 17  1  0  0  0  0
 17 18  2  0  0  0  0
 18 19  1  0  0  0  0
 18 22  1  0  0  0  0
 20 23  1  0  0  0  0
 20 19  2  0  0  0  0
 21 20  1  0  0  0  0
 24 17  1  0  0  0  0
 24 25  1  0  0  0  0
 26 24  1  0  0  0  0
M  END
>  <minimizedAffinity>
-5.68712473

>  <minimizedRMSD>
4.84999752

$$$$
