
 OpenBabel03242516533D

 47 51  0  0  1  0  0  0  0  0999 V2000
   47.7890   32.7590   41.6420 C   0  0  1  0  0  0  0  0  0  0  0  0
   47.4100   32.1430   40.3660 C   0  0  0  0  0  0  0  0  0  0  0  0
   48.4170   32.6380   39.3310 C   0  0  0  0  0  0  0  0  0  0  0  0
   48.1230   34.1100   39.1130 C   0  0  0  0  0  0  0  0  0  0  0  0
   48.1190   34.9210   40.3790 C   0  0  0  0  0  0  0  0  0  0  0  0
   47.6340   34.2830   41.6080 C   0  0  1  0  0  0  0  0  0  0  0  0
   48.9050   32.6340   41.7830 H   0  0  0  0  0  0  0  0  0  0  0  0
   47.5430   31.0410   40.4400 H   0  0  0  0  0  0  0  0  0  0  0  0
   46.4000   32.3900   40.0030 H   0  0  0  0  0  0  0  0  0  0  0  0
   48.2920   32.1380   38.3670 H   0  0  0  0  0  0  0  0  0  0  0  0
   49.4370   32.5400   39.7620 H   0  0  0  0  0  0  0  0  0  0  0  0
   47.1040   34.1960   38.6660 H   0  0  0  0  0  0  0  0  0  0  0  0
   48.8900   34.5000   38.4180 H   0  0  0  0  0  0  0  0  0  0  0  0
   49.1670   35.3070   40.5090 H   0  0  0  0  0  0  0  0  0  0  0  0
   47.5020   35.8330   40.1700 H   0  0  0  0  0  0  0  0  0  0  0  0
   48.2680   34.6450   42.4710 H   0  0  0  0  0  0  0  0  0  0  0  0
   45.3280   30.9000   43.8350 C   0  0  0  0  0  0  0  0  0  0  0  0
   45.9990   31.4380   42.7340 C   0  0  0  0  0  0  0  0  0  0  0  0
   47.1490   32.2270   42.8270 C   0  0  0  0  0  0  0  0  0  0  0  0
   47.5940   32.4550   44.0700 N   0  0  0  0  0  0  0  0  0  0  0  0
   46.9520   31.9390   45.1540 C   0  0  0  0  0  0  0  0  0  0  0  0
   45.8590   31.1890   45.0530 N   0  0  0  0  0  0  0  0  0  0  0  0
   44.4520   30.3050   43.6520 H   0  0  0  0  0  0  0  0  0  0  0  0
   45.6240   31.2430   41.7370 H   0  0  0  0  0  0  0  0  0  0  0  0
   47.2940   32.1090   46.1670 H   0  0  0  0  0  0  0  0  0  0  0  0
   46.2760   34.6970   41.9610 C   0  0  0  0  0  0  0  0  0  0  0  0
   45.8790   35.2930   43.1590 C   0  0  0  0  0  0  0  0  0  0  0  0
   44.5290   35.6190   43.2670 C   0  0  0  0  0  0  0  0  0  0  0  0
   43.7040   35.3320   42.2000 C   0  0  0  0  0  0  0  0  0  0  0  0
   44.1140   34.7380   41.0160 C   0  0  0  0  0  0  0  0  0  0  0  0
   45.4320   34.4270   40.9270 N   0  0  0  0  0  0  0  0  0  0  0  0
   46.6320   35.4470   43.8800 H   0  0  0  0  0  0  0  0  0  0  0  0
   44.2110   36.0730   44.1710 H   0  0  0  0  0  0  0  0  0  0  0  0
   42.6540   35.5920   42.2990 H   0  0  0  0  0  0  0  0  0  0  0  0
   43.1580   34.4750   39.9490 C   0  0  0  0  0  0  0  0  0  0  0  0
   42.7450   35.4340   39.2650 O   0  0  0  0  0  0  0  0  0  0  0  0
   42.5210   33.2670   39.4550 C   0  0  0  0  0  0  0  0  0  0  0  0
   42.9800   32.5470   38.3730 C   0  0  0  0  0  0  0  0  0  0  0  0
   43.8640   32.8580   37.8600 H   0  0  0  0  0  0  0  0  0  0  0  0
   42.3850   31.4190   37.8470 C   0  0  0  0  0  3  0  0  0  0  0  0
   41.2310   30.9630   38.4470 C   0  0  0  0  0  3  0  0  0  0  0  0
   40.7130   31.6350   39.5350 C   0  0  0  0  0  0  0  0  0  0  0  0
   39.5760   31.1310   40.0890 C   0  0  0  0  0  3  0  0  0  0  0  0
   39.0050   31.7440   41.1870 C   0  0  0  0  0  3  0  0  0  0  0  0
   39.6270   32.8840   41.7030 C   0  0  0  0  0  3  0  0  0  0  0  0
   40.7720   33.3400   41.0970 C   0  0  0  0  0  3  0  0  0  0  0  0
   41.3660   32.7540   40.0020 C   0  0  0  0  0  0  0  0  0  0  0  0
  1  7  1  1  0  0  0
  1 19  1  0  0  0  0
  2  8  1  0  0  0  0
  2  1  1  0  0  0  0
  3 11  1  0  0  0  0
  3  2  1  0  0  0  0
  4  3  1  0  0  0  0
  4  5  1  0  0  0  0
  5 14  1  0  0  0  0
  5  6  1  0  0  0  0
  6  1  1  0  0  0  0
  6 26  1  0  0  0  0
  6 16  1  1  0  0  0
  9  2  1  0  0  0  0
 10  3  1  0  0  0  0
 12  4  1  0  0  0  0
 13  4  1  0  0  0  0
 15  5  1  0  0  0  0
 17 22  1  0  0  0  0
 18 19  1  0  0  0  0
 18 17  2  0  0  0  0
 19 20  2  0  0  0  0
 20 21  1  0  0  0  0
 21 25  1  0  0  0  0
 22 21  2  0  0  0  0
 23 17  1  0  0  0  0
 24 18  1  0  0  0  0
 26 27  1  0  0  0  0
 27 28  2  0  0  0  0
 27 32  1  0  0  0  0
 28 33  1  0  0  0  0
 29 34  1  0  0  0  0
 29 28  1  0  0  0  0
 30 29  2  0  0  0  0
 31 30  1  0  0  0  0
 31 26  2  0  0  0  0
 35 30  1  0  0  0  0
 36 35  2  0  0  0  0
 37 35  1  0  0  0  0
 37 47  1  0  0  0  0
 38 37  2  0  0  0  0
 39 38  1  0  0  0  0
 40 38  1  0  0  0  0
 40 41  2  0  0  0  0
 41 42  1  0  0  0  0
 42 47  2  0  0  0  0
 42 43  1  0  0  0  0
 43 44  2  0  0  0  0
 44 45  1  0  0  0  0
 46 45  2  0  0  0  0
 47 46  1  0  0  0  0
M  END
>  <minimizedAffinity>
-6.29890203

>  <minimizedRMSD>
1.30545199

$$$$
