
 OpenBabel03252504583D

 39 42  0  0  1  0  0  0  0  0999 V2000
   48.0280   34.1010   42.0310 N   0  0  0  0  0  0  0  0  0  0  0  0
   48.0200   35.0450   40.9770 C   0  0  0  0  0  0  0  0  0  0  0  0
   49.1390   35.9420   41.3420 C   0  0  0  0  0  0  0  0  0  0  0  0
   49.7890   35.4150   42.6090 C   0  0  0  0  0  0  0  0  0  0  0  0
   49.2940   33.9610   42.6250 C   0  0  2  0  0  0  0  0  0  0  0  0
   47.5030   35.2840   40.0860 H   0  0  0  0  0  0  0  0  0  0  0  0
   49.5350   36.8150   40.8600 H   0  0  0  0  0  0  0  0  0  0  0  0
   49.4450   35.9480   43.4920 H   0  0  0  0  0  0  0  0  0  0  0  0
   50.8790   35.4080   42.4350 H   0  0  0  0  0  0  0  0  0  0  0  0
   49.2640   33.5190   43.6170 H   0  0  0  0  0  0  0  0  0  0  0  0
   46.8630   33.4680   42.3860 C   0  0  0  0  0  0  0  0  0  0  0  0
   47.1240   32.4140   42.6640 H   0  0  0  0  0  0  0  0  0  0  0  0
   46.1390   33.3070   41.5560 H   0  0  0  0  0  0  0  0  0  0  0  0
   44.6180   35.7600   44.3950 C   0  0  0  0  0  0  0  0  0  0  0  0
   45.3390   35.2530   43.2760 C   0  0  0  0  0  0  0  0  0  0  0  0
   46.1090   34.1040   43.4450 C   0  0  0  0  0  0  0  0  0  0  0  0
   46.1180   33.5430   44.6730 N   0  0  0  0  0  0  0  0  0  0  0  0
   45.4150   34.0450   45.7480 C   0  0  0  0  0  0  0  0  0  0  0  0
   44.6730   35.1420   45.6050 N   0  0  0  0  0  0  0  0  0  0  0  0
   44.0260   36.6340   44.2830 H   0  0  0  0  0  0  0  0  0  0  0  0
   45.3050   35.7280   42.3180 H   0  0  0  0  0  0  0  0  0  0  0  0
   45.4870   33.5220   46.6990 H   0  0  0  0  0  0  0  0  0  0  0  0
   50.0930   33.2680   41.7020 O   0  0  0  0  0  0  0  0  0  0  0  0
   49.3650   31.1510   43.1380 O   0  0  0  0  0  0  0  0  0  0  0  0
   50.0760   31.6220   41.8880 P   0  0  2  0  0  0  0  0  0  0  0  0
   51.6850   31.0880   42.0010 O   0  0  0  0  0  0  0  0  0  0  0  0
   52.0690   31.1530   41.0790 H   0  0  0  0  0  0  0  0  0  0  0  0
   49.4330   30.8480   40.5020 O   0  0  0  0  0  0  0  0  0  0  0  0
   49.0370   31.4800   39.3560 C   0  0  0  0  0  0  0  0  0  0  0  0
   49.7670   32.1230   38.4060 C   0  0  0  0  0  0  0  0  0  0  0  0
   50.8320   32.1300   38.5950 H   0  0  0  0  0  0  0  0  0  0  0  0
   49.2120   32.7160   37.2940 C   0  0  0  0  0  3  0  0  0  0  0  0
   47.8420   32.6790   37.0980 C   0  0  0  0  0  3  0  0  0  0  0  0
   47.0770   32.0290   38.0540 C   0  0  0  0  0  0  0  0  0  0  0  0
   45.7190   32.0290   37.7960 C   0  0  0  0  0  3  0  0  0  0  0  0
   44.8840   31.4110   38.6860 C   0  0  0  0  0  3  0  0  0  0  0  0
   45.4140   30.8180   39.7900 C   0  0  0  0  0  3  0  0  0  0  0  0
   46.7680   30.8150   40.0540 C   0  0  0  0  0  3  0  0  0  0  0  0
   47.6520   31.4340   39.1710 C   0  0  0  0  0  0  0  0  0  0  0  0
  1 11  1  0  0  0  0
  1  5  1  0  0  0  0
  2  3  2  0  0  0  0
  2  1  1  0  0  0  0
  3  4  1  0  0  0  0
  4  5  1  0  0  0  0
  4  8  1  0  0  0  0
  5 10  1  1  0  0  0
  6  2  1  0  0  0  0
  7  3  1  0  0  0  0
  9  4  1  0  0  0  0
 11 12  1  0  0  0  0
 11 16  1  0  0  0  0
 13 11  1  0  0  0  0
 14 19  1  0  0  0  0
 15 16  1  0  0  0  0
 15 14  2  0  0  0  0
 16 17  2  0  0  0  0
 17 18  1  0  0  0  0
 18 22  1  0  0  0  0
 19 18  2  0  0  0  0
 20 14  1  0  0  0  0
 21 15  1  0  0  0  0
 23 25  1  0  0  0  0
 23  5  1  0  0  0  0
 25 26  1  0  0  0  0
 25 24  2  1  0  0  0
 27 26  1  0  0  0  0
 28 25  1  0  0  0  0
 29 28  1  0  0  0  0
 30 31  1  0  0  0  0
 30 29  2  0  0  0  0
 32 30  1  0  0  0  0
 33 32  2  0  0  0  0
 33 34  1  0  0  0  0
 34 39  1  0  0  0  0
 35 34  2  0  0  0  0
 35 36  1  0  0  0  0
 36 37  2  0  0  0  0
 37 38  1  0  0  0  0
 39 29  1  0  0  0  0
 39 38  2  0  0  0  0
M  END
>  <minimizedAffinity>
-5.10126019

>  <minimizedRMSD>
3.19094086

$$$$
