
 OpenBabel03252504583D

 39 42  0  0  1  0  0  0  0  0999 V2000
   48.0360   34.0940   42.0170 N   0  0  0  0  0  0  0  0  0  0  0  0
   48.0350   35.0210   40.9490 C   0  0  0  0  0  0  0  0  0  0  0  0
   49.1460   35.9280   41.3130 C   0  0  0  0  0  0  0  0  0  0  0  0
   49.7840   35.4240   42.5950 C   0  0  0  0  0  0  0  0  0  0  0  0
   49.2960   33.9680   42.6270 C   0  0  2  0  0  0  0  0  0  0  0  0
   47.5260   35.2440   40.0490 H   0  0  0  0  0  0  0  0  0  0  0  0
   49.5430   36.7960   40.8220 H   0  0  0  0  0  0  0  0  0  0  0  0
   49.4280   35.9690   43.4660 H   0  0  0  0  0  0  0  0  0  0  0  0
   50.8760   35.4200   42.4330 H   0  0  0  0  0  0  0  0  0  0  0  0
   49.2570   33.5420   43.6260 H   0  0  0  0  0  0  0  0  0  0  0  0
   46.8700   33.4610   42.3700 C   0  0  0  0  0  0  0  0  0  0  0  0
   47.1290   32.4050   42.6450 H   0  0  0  0  0  0  0  0  0  0  0  0
   46.1460   33.3030   41.5390 H   0  0  0  0  0  0  0  0  0  0  0  0
   44.6250   35.7470   44.3850 C   0  0  0  0  0  0  0  0  0  0  0  0
   45.3460   35.2440   43.2650 C   0  0  0  0  0  0  0  0  0  0  0  0
   46.1160   34.0930   43.4310 C   0  0  0  0  0  0  0  0  0  0  0  0
   46.1240   33.5290   44.6570 N   0  0  0  0  0  0  0  0  0  0  0  0
   45.4210   34.0280   45.7330 C   0  0  0  0  0  0  0  0  0  0  0  0
   44.6800   35.1260   45.5930 N   0  0  0  0  0  0  0  0  0  0  0  0
   44.0340   36.6220   44.2760 H   0  0  0  0  0  0  0  0  0  0  0  0
   45.3130   35.7210   42.3090 H   0  0  0  0  0  0  0  0  0  0  0  0
   45.4930   33.5020   46.6820 H   0  0  0  0  0  0  0  0  0  0  0  0
   50.1070   33.2650   41.7240 O   0  0  0  0  0  0  0  0  0  0  0  0
   49.3560   31.1620   43.1690 O   0  0  0  0  0  0  0  0  0  0  0  0
   50.0810   31.6200   41.9220 P   0  0  2  0  0  0  0  0  0  0  0  0
   51.6860   31.0790   42.0550 O   0  0  0  0  0  0  0  0  0  0  0  0
   52.0780   31.1350   41.1350 H   0  0  0  0  0  0  0  0  0  0  0  0
   49.4460   30.8400   40.5360 O   0  0  0  0  0  0  0  0  0  0  0  0
   48.9470   31.4720   39.4320 C   0  0  0  0  0  0  0  0  0  0  0  0
   49.5740   32.2090   38.4780 C   0  0  0  0  0  0  0  0  0  0  0  0
   50.6420   32.3060   38.6230 H   0  0  0  0  0  0  0  0  0  0  0  0
   48.9210   32.7880   37.4130 C   0  0  0  0  0  3  0  0  0  0  0  0
   47.5510   32.6340   37.2720 C   0  0  0  0  0  3  0  0  0  0  0  0
   46.8900   31.8860   38.2320 C   0  0  0  0  0  0  0  0  0  0  0  0
   45.5260   31.7720   38.0310 C   0  0  0  0  0  3  0  0  0  0  0  0
   44.7900   31.0500   38.9300 C   0  0  0  0  0  3  0  0  0  0  0  0
   45.4180   30.4710   39.9890 C   0  0  0  0  0  3  0  0  0  0  0  0
   46.7780   30.5810   40.1960 C   0  0  0  0  0  3  0  0  0  0  0  0
   47.5640   31.3080   39.3020 C   0  0  0  0  0  0  0  0  0  0  0  0
  1 11  1  0  0  0  0
  1  5  1  0  0  0  0
  2  3  2  0  0  0  0
  2  1  1  0  0  0  0
  3  4  1  0  0  0  0
  4  5  1  0  0  0  0
  4  8  1  0  0  0  0
  5 10  1  1  0  0  0
  6  2  1  0  0  0  0
  7  3  1  0  0  0  0
  9  4  1  0  0  0  0
 11 12  1  0  0  0  0
 11 16  1  0  0  0  0
 13 11  1  0  0  0  0
 14 19  1  0  0  0  0
 15 16  1  0  0  0  0
 15 14  2  0  0  0  0
 16 17  2  0  0  0  0
 17 18  1  0  0  0  0
 18 22  1  0  0  0  0
 19 18  2  0  0  0  0
 20 14  1  0  0  0  0
 21 15  1  0  0  0  0
 23 25  1  0  0  0  0
 23  5  1  0  0  0  0
 25 26  1  0  0  0  0
 25 24  2  1  0  0  0
 27 26  1  0  0  0  0
 28 25  1  0  0  0  0
 29 28  1  0  0  0  0
 30 31  1  0  0  0  0
 30 29  2  0  0  0  0
 32 30  1  0  0  0  0
 33 32  2  0  0  0  0
 33 34  1  0  0  0  0
 34 39  1  0  0  0  0
 35 34  2  0  0  0  0
 35 36  1  0  0  0  0
 36 37  2  0  0  0  0
 37 38  1  0  0  0  0
 39 29  1  0  0  0  0
 39 38  2  0  0  0  0
M  END
>  <minimizedAffinity>
-5.02842665

>  <minimizedRMSD>
3.11291194

$$$$
