
 OpenBabel03242514153D

 37 40  0  0  0  0  0  0  0  0999 V2000
   47.9080   31.6470   41.4600 C   0  0  0  0  0  0  0  0  0  0  0  0
   48.0190   32.9670   41.0620 C   0  0  0  0  0  0  0  0  0  0  0  0
   48.5960   33.1910   39.8120 C   0  0  0  0  0  0  0  0  0  0  0  0
   49.0000   32.0800   39.0730 N   0  0  0  0  0  0  0  0  0  0  0  0
   48.8600   30.8360   39.5110 C   0  0  0  0  0  0  0  0  0  0  0  0
   48.3210   30.6150   40.6950 N   0  0  0  0  0  0  0  0  0  0  0  0
   48.8240   34.0730   39.2320 H   0  0  0  0  0  0  0  0  0  0  0  0
   49.1740   29.9810   38.9300 H   0  0  0  0  0  0  0  0  0  0  0  0
   47.3830   31.5090   42.8260 C   0  0  0  0  0  0  0  0  0  0  0  0
   45.9600   31.1790   42.9080 C   0  0  0  0  0  0  0  0  0  0  0  0
   45.1520   32.1870   43.5380 C   0  0  0  0  0  0  0  0  0  0  0  0
   45.6800   32.5760   44.9400 C   0  0  0  0  0  0  0  0  0  0  0  0
   47.1510   32.6830   45.0190 C   0  0  0  0  0  0  0  0  0  0  0  0
   47.7800   32.6880   43.6640 C   0  0  0  0  0  0  0  0  0  0  0  0
   47.9210   30.6080   43.2260 H   0  0  0  0  0  0  0  0  0  0  0  0
   45.6020   31.0050   41.8590 H   0  0  0  0  0  0  0  0  0  0  0  0
   45.7810   30.1650   43.3860 H   0  0  0  0  0  0  0  0  0  0  0  0
   44.6520   33.0040   43.0790 H   0  0  0  0  0  0  0  0  0  0  0  0
   44.2020   31.5780   43.8920 H   0  0  0  0  0  0  0  0  0  0  0  0
   45.2190   33.5730   45.1670 H   0  0  0  0  0  0  0  0  0  0  0  0
   45.2980   31.8910   45.7290 H   0  0  0  0  0  0  0  0  0  0  0  0
   47.5580   31.8170   45.5810 H   0  0  0  0  0  0  0  0  0  0  0  0
   47.5050   33.6240   45.5320 H   0  0  0  0  0  0  0  0  0  0  0  0
   48.8910   32.5540   43.8550 H   0  0  0  0  0  0  0  0  0  0  0  0
   47.6880   33.6790   43.2680 H   0  0  0  0  0  0  0  0  0  0  0  0
   47.7300   34.1550   41.5270 O   0  0  0  0  0  0  0  0  0  0  0  0
   46.4850   34.6760   41.7880 C   0  0  0  0  0  0  0  0  0  0  0  0
   46.0550   35.5130   42.8290 C   0  0  0  0  0  0  0  0  0  0  0  0
   46.8370   35.7580   43.5030 H   0  0  0  0  0  0  0  0  0  0  0  0
   44.7410   35.9160   42.8880 C   0  0  0  0  0  0  0  0  0  0  0  0
   43.8120   35.5250   41.9510 C   0  0  0  0  0  0  0  0  0  0  0  0
   44.2310   34.6950   40.9150 C   0  0  0  0  0  0  0  0  0  0  0  0
   43.2320   34.3600   40.0300 C   0  0  0  0  0  0  0  0  0  0  0  0
   43.5630   33.5400   38.9740 C   0  0  0  0  0  0  0  0  0  0  0  0
   44.8590   33.0920   38.8420 C   0  0  0  0  0  0  0  0  0  0  0  0
   45.8260   33.4560   39.7550 C   0  0  0  0  0  0  0  0  0  0  0  0
   45.5460   34.2750   40.8310 C   0  0  0  0  0  0  0  0  0  0  0  0
  1  9  1  0  0  0  0
  2  1  1  0  0  0  0
  2 26  1  0  0  0  0
  3  2  2  0  0  0  0
  4  5  2  0  0  0  0
  4  3  1  0  0  0  0
  5  6  1  0  0  0  0
  6  1  2  0  0  0  0
  7  3  1  0  0  0  0
  8  5  1  0  0  0  0
  9 10  1  0  0  0  0
  9 15  1  0  0  0  0
  9 14  1  0  0  0  0
 10 17  1  0  0  0  0
 10 11  1  0  0  0  0
 11 19  1  0  0  0  0
 11 12  1  0  0  0  0
 12 13  1  0  0  0  0
 12 20  1  0  0  0  0
 12 21  1  0  0  0  0
 13 23  1  0  0  0  0
 13 22  1  0  0  0  0
 14 24  1  0  0  0  0
 14 13  1  0  0  0  0
 16 10  1  0  0  0  0
 18 11  1  0  0  0  0
 25 14  1  0  0  0  0
 26 27  1  0  0  0  0
 27 28  1  0  0  0  0
 28 30  2  0  0  0  0
 28 29  1  0  0  0  0
 31 30  1  0  0  0  0
 32 31  2  0  0  0  0
 33 32  1  0  0  0  0
 34 33  2  0  0  0  0
 35 34  1  0  0  0  0
 35 36  2  0  0  0  0
 36 37  1  0  0  0  0
 37 32  1  0  0  0  0
 37 27  2  0  0  0  0
M  END
>  <minimizedAffinity>
-4.70558596

>  <minimizedRMSD>
3.87069154

$$$$
