
 OpenBabel03252503593D

 36 40  0  0  1  0  0  0  0  0999 V2000
   47.1960   35.0270   42.5230 C   0  0  0  0  0  0  0  0  0  0  0  0
   46.0510   35.7420   42.2050 C   0  0  0  0  0  0  0  0  0  0  0  0
   44.9380   35.5580   43.0080 C   0  0  0  0  0  0  0  0  0  0  0  0
   45.0200   34.6990   44.0530 N   0  0  0  0  0  0  0  0  0  0  0  0
   46.1690   34.0130   44.3320 C   0  0  0  0  0  0  0  0  0  0  0  0
   47.2540   34.1800   43.5640 N   0  0  0  0  0  0  0  0  0  0  0  0
   45.9400   36.4330   41.3870 H   0  0  0  0  0  0  0  0  0  0  0  0
   44.0120   36.0890   42.8110 H   0  0  0  0  0  0  0  0  0  0  0  0
   47.0670   31.9900   45.3350 C   0  0  0  0  0  0  0  0  0  0  0  0
   46.2270   33.0950   45.4640 C   0  0  0  0  0  0  0  0  0  0  0  0
   45.5100   33.2630   46.6200 C   0  0  0  0  0  0  0  0  0  0  0  0
   45.6340   32.3400   47.6310 C   0  0  0  0  0  0  0  0  0  0  0  0
   45.0660   32.2490   48.8510 N   0  0  0  0  0  0  0  0  0  0  0  0
   45.4980   31.1570   49.4940 C   0  0  0  0  0  0  0  0  0  0  0  0
   46.3810   30.4950   48.6840 C   0  0  0  0  0  0  0  0  0  0  0  0
   46.4680   31.2360   47.5120 C   0  0  0  0  0  0  0  0  0  0  0  0
   47.1920   31.0620   46.3490 C   0  0  0  0  0  0  0  0  0  0  0  0
   47.6800   31.7640   44.4560 H   0  0  0  0  0  0  0  0  0  0  0  0
   44.8630   34.1240   46.7030 H   0  0  0  0  0  0  0  0  0  0  0  0
   44.3780   32.9340   49.2550 H   0  0  0  0  0  0  0  0  0  0  0  0
   45.2050   30.8360   50.4950 H   0  0  0  0  0  0  0  0  0  0  0  0
   46.9390   29.5680   48.8610 H   0  0  0  0  0  0  0  0  0  0  0  0
   47.8360   30.1910   46.2840 H   0  0  0  0  0  0  0  0  0  0  0  0
   48.3380   35.2560   41.6450 C   0  0  2  0  0  3  0  0  0  0  0  0
   49.0970   36.2910   41.7280 O   0  0  0  0  0  1  0  0  0  0  0  0
   48.4590   34.1520   40.6980 C   0  0  0  0  0  0  0  0  0  0  0  0
   47.6700   34.0900   39.5450 C   0  0  0  0  0  0  0  0  0  0  0  0
   46.9390   34.8900   39.3540 H   0  0  0  0  0  0  0  0  0  0  0  0
   47.7320   33.0850   38.6040 C   0  0  0  0  0  3  0  0  0  0  0  0
   48.6310   32.0620   38.7970 C   0  0  0  0  0  3  0  0  0  0  0  0
   49.4380   32.0670   39.9170 C   0  0  0  0  0  0  0  0  0  0  0  0
   50.3280   31.0280   40.0860 C   0  0  0  0  0  3  0  0  0  0  0  0
   51.1600   30.9790   41.1880 C   0  0  0  0  0  3  0  0  0  0  0  0
   51.0450   32.0140   42.0880 C   0  0  0  0  0  3  0  0  0  0  0  0
   50.1540   33.0520   41.9170 C   0  0  0  0  0  3  0  0  0  0  0  0
   49.3240   33.1030   40.8190 C   0  0  0  0  0  0  0  0  0  0  0  0
  1  6  1  0  0  0  0
  2  1  2  0  0  0  0
  2  3  1  0  0  0  0
  3  4  2  0  0  0  0
  4  5  1  0  0  0  0
  5 10  1  0  0  0  0
  6  5  2  0  0  0  0
  7  2  1  0  0  0  0
  8  3  1  0  0  0  0
  9 10  2  0  0  0  0
  9 17  1  0  0  0  0
 10 11  1  0  0  0  0
 11 19  1  0  0  0  0
 11 12  2  0  0  0  0
 12 13  1  0  0  0  0
 13 20  1  0  0  0  0
 13 14  1  0  0  0  0
 14 21  1  0  0  0  0
 15 22  1  0  0  0  0
 15 14  2  0  0  0  0
 16 12  1  0  0  0  0
 16 15  1  0  0  0  0
 17 16  2  0  0  0  0
 18  9  1  0  0  0  0
 23 17  1  0  0  0  0
 24 25  1  6  0  0  0
 24  1  1  0  0  0  0
 26 36  1  0  0  0  0
 26 24  1  0  0  0  0
 27 26  2  0  0  0  0
 28 27  1  0  0  0  0
 29 30  2  0  0  0  0
 29 27  1  0  0  0  0
 30 31  1  0  0  0  0
 31 32  2  0  0  0  0
 31 36  1  0  0  0  0
 32 33  1  0  0  0  0
 33 34  2  0  0  0  0
 35 34  1  0  0  0  0
 36 35  2  0  0  0  0
M  END
>  <minimizedAffinity>
-6.8877368

>  <minimizedRMSD>
1.69580209

$$$$
