
 OpenBabel03252502373D

 26 28  0  0  1  0  0  0  0  0999 V2000
   46.1970   35.1930   42.2920 C   0  0  1  0  0  0  0  0  0  0  0  0
   45.8860   36.2600   42.3910 H   0  0  0  0  0  0  0  0  0  0  0  0
   45.4840   34.5130   41.1900 C   0  0  0  0  0  0  0  0  0  0  0  0
   46.2180   33.6280   40.3840 C   0  0  0  0  0  0  0  0  0  0  0  0
   47.2850   33.4840   40.5860 H   0  0  0  0  0  0  0  0  0  0  0  0
   45.7110   32.9050   39.3360 C   0  0  0  0  0  3  0  0  0  0  0  0
   44.3730   33.0510   39.0390 C   0  0  0  0  0  3  0  0  0  0  0  0
   43.5980   33.9040   39.7920 C   0  0  0  0  0  0  0  0  0  0  0  0
   42.2710   34.0680   39.5100 C   0  0  0  0  0  3  0  0  0  0  0  0
   41.5090   34.9330   40.2690 C   0  0  0  0  0  3  0  0  0  0  0  0
   42.0590   35.6420   41.3160 C   0  0  0  0  0  3  0  0  0  0  0  0
   43.4000   35.4620   41.5830 C   0  0  0  0  0  3  0  0  0  0  0  0
   44.1560   34.6070   40.8340 C   0  0  0  0  0  0  0  0  0  0  0  0
   45.1780   34.9480   44.5460 C   0  0  0  0  0  0  0  0  0  0  0  0
   46.1060   34.5600   43.5890 C   0  0  0  0  0  0  0  0  0  0  0  0
   46.9570   33.4990   43.9640 C   0  0  0  0  0  0  0  0  0  0  0  0
   46.8290   32.9310   45.1970 N   0  0  0  0  0  0  0  0  0  0  0  0
   45.8940   33.3690   46.0740 C   0  0  0  0  0  0  0  0  0  0  0  0
   45.0660   34.3840   45.7430 N   0  0  0  0  0  0  0  0  0  0  0  0
   44.4730   35.7500   44.3800 H   0  0  0  0  0  0  0  0  0  0  0  0
   47.7210   33.1220   43.2780 H   0  0  0  0  0  0  0  0  0  0  0  0
   45.9710   32.7760   46.9910 H   0  0  0  0  0  0  0  0  0  0  0  0
   47.6630   35.2940   41.9050 C   0  0  0  0  0  0  0  0  0  0  0  0
   48.2310   34.3880   42.1440 H   0  0  0  0  0  0  0  0  0  0  0  0
   48.1420   36.1360   42.4840 H   0  0  0  0  0  0  0  0  0  0  0  0
   47.7570   35.5900   40.8360 H   0  0  0  0  0  0  0  0  0  0  0  0
  1  2  1  1  0  0  0
  1 15  1  0  0  0  0
  3  1  1  0  0  0  0
  4  5  1  0  0  0  0
  4  3  2  0  0  0  0
  6  4  1  0  0  0  0
  7  6  2  0  0  0  0
  7  8  1  0  0  0  0
  8 13  1  0  0  0  0
  9  8  2  0  0  0  0
  9 10  1  0  0  0  0
 10 11  2  0  0  0  0
 11 12  1  0  0  0  0
 13  3  1  0  0  0  0
 13 12  2  0  0  0  0
 14 19  1  0  0  0  0
 15 16  1  0  0  0  0
 15 14  2  0  0  0  0
 16 17  2  0  0  0  0
 17 18  1  0  0  0  0
 18 22  1  0  0  0  0
 19 18  2  0  0  0  0
 20 14  1  0  0  0  0
 21 16  1  0  0  0  0
 23 24  1  0  0  0  0
 23  1  1  0  0  0  0
 23 25  1  0  0  0  0
 26 23  1  0  0  0  0
M  END
>  <minimizedAffinity>
-5.38713026

>  <minimizedRMSD>
2.88391662

$$$$
