
 OpenBabel03252505113D

 46 50  0  0  1  0  0  0  0  0999 V2000
   44.6090   35.4740   44.6930 C   0  0  0  0  0  0  0  0  0  0  0  0
   45.2870   35.5400   43.4590 C   0  0  0  0  0  0  0  0  0  0  0  0
   46.4030   34.6590   43.2670 C   0  0  0  0  0  0  0  0  0  0  0  0
   46.7420   33.8220   44.2670 N   0  0  0  0  0  0  0  0  0  0  0  0
   46.0750   33.7860   45.4290 C   0  0  0  0  0  0  0  0  0  0  0  0
   44.9990   34.6140   45.6530 N   0  0  0  0  0  0  0  0  0  0  0  0
   43.7610   36.1300   44.8640 H   0  0  0  0  0  0  0  0  0  0  0  0
   44.9790   36.2260   42.6890 H   0  0  0  0  0  0  0  0  0  0  0  0
   46.4940   32.8470   46.4970 C   0  0  2  0  0  0  0  0  0  0  0  0
   47.1310   31.6840   45.7680 C   0  0  0  0  0  0  0  0  0  0  0  0
   46.3350   30.4490   45.6820 C   0  0  0  0  0  0  0  0  0  0  0  0
   45.9940   30.1020   47.1330 C   0  0  0  0  0  0  0  0  0  0  0  0
   45.1150   31.0830   47.7570 C   0  0  0  0  0  0  0  0  0  0  0  0
   45.4270   32.4940   47.3830 C   0  0  0  0  0  0  0  0  0  0  0  0
   47.2890   33.4000   47.0650 H   0  0  0  0  0  0  0  0  0  0  0  0
   47.4580   31.9450   44.7360 H   0  0  0  0  0  0  0  0  0  0  0  0
   48.0750   31.4380   46.3020 H   0  0  0  0  0  0  0  0  0  0  0  0
   47.0080   29.6400   45.3480 H   0  0  0  0  0  0  0  0  0  0  0  0
   45.4380   30.4640   45.0630 H   0  0  0  0  0  0  0  0  0  0  0  0
   45.3860   29.1660   47.0450 H   0  0  0  0  0  0  0  0  0  0  0  0
   46.9050   29.8390   47.6880 H   0  0  0  0  0  0  0  0  0  0  0  0
   44.3030   30.9860   48.4150 H   0  0  0  0  0  0  0  0  0  0  0  0
   44.6420   33.5690   47.9140 N   0  0  0  0  0  0  0  0  0  0  0  0
   43.6360   33.8880   47.7900 H   0  0  0  0  0  0  0  0  0  0  0  0
   45.0080   34.2890   48.5970 H   0  0  0  0  0  0  0  0  0  0  0  0
   47.1190   34.7020   42.0020 C   0  0  0  0  0  0  0  0  0  0  0  0
   48.1930   35.5140   41.8940 C   0  0  0  0  0  0  0  0  0  0  0  0
   48.8500   35.5200   40.6530 C   0  0  0  0  0  0  0  0  0  0  0  0
   48.3370   34.7050   39.6820 C   0  0  0  0  0  0  0  0  0  0  0  0
   47.2450   33.8700   39.7740 C   0  0  0  0  0  0  0  0  0  0  0  0
   46.6620   33.9230   41.0160 N   0  0  0  0  0  0  0  0  0  0  0  0
   48.5030   36.1130   42.7360 H   0  0  0  0  0  0  0  0  0  0  0  0
   49.7000   36.1490   40.5300 H   0  0  0  0  0  0  0  0  0  0  0  0
   48.8860   34.7680   38.7520 H   0  0  0  0  0  0  0  0  0  0  0  0
   46.7670   33.0720   38.7640 O   0  0  0  0  0  0  0  0  0  0  0  0
   47.6190   32.5000   37.8510 C   0  0  0  0  0  0  0  0  0  0  0  0
   47.5380   33.1190   36.5990 C   0  0  0  0  0  0  0  0  0  0  0  0
   46.8870   33.9550   36.3550 H   0  0  0  0  0  0  0  0  0  0  0  0
   48.3300   32.6800   35.5350 C   0  0  0  0  0  3  0  0  0  0  0  0
   49.2160   31.6280   35.6640 C   0  0  0  0  0  3  0  0  0  0  0  0
   49.2750   31.0350   36.9090 C   0  0  0  0  0  0  0  0  0  0  0  0
   50.1120   29.9660   37.1510 C   0  0  0  0  0  3  0  0  0  0  0  0
   50.1440   29.3720   38.4080 C   0  0  0  0  0  3  0  0  0  0  0  0
   49.3610   29.8070   39.4570 C   0  0  0  0  0  3  0  0  0  0  0  0
   48.5220   30.8750   39.2220 C   0  0  0  0  0  3  0  0  0  0  0  0
   48.5040   31.4500   37.9740 C   0  0  0  0  0  0  0  0  0  0  0  0
  1  7  1  0  0  0  0
  1  6  1  0  0  0  0
  2  1  2  0  0  0  0
  3  2  1  0  0  0  0
  3  4  2  0  0  0  0
  4  5  1  0  0  0  0
  5  6  2  0  0  0  0
  5  9  1  0  0  0  0
  8  2  1  0  0  0  0
  9 15  1  1  0  0  0
  9 14  1  0  0  0  0
 10 17  1  0  0  0  0
 10  9  1  0  0  0  0
 11 10  1  0  0  0  0
 11 12  1  0  0  0  0
 12 21  1  0  0  0  0
 12 13  1  0  0  0  0
 13 22  1  0  0  0  0
 14 13  2  0  0  0  0
 14 23  1  0  0  0  0
 16 10  1  0  0  0  0
 18 11  1  0  0  0  0
 19 11  1  0  0  0  0
 20 12  1  0  0  0  0
 23 25  1  0  0  0  0
 24 23  1  0  0  0  0
 26  3  1  0  0  0  0
 27 26  1  0  0  0  0
 27 32  1  0  0  0  0
 28 27  2  0  0  0  0
 29 30  2  0  0  0  0
 29 28  1  0  0  0  0
 30 31  1  0  0  0  0
 31 26  2  0  0  0  0
 33 28  1  0  0  0  0
 34 29  1  0  0  0  0
 35 30  1  0  0  0  0
 36 46  1  0  0  0  0
 36 35  1  0  0  0  0
 37 36  2  0  0  0  0
 38 37  1  0  0  0  0
 39 40  2  0  0  0  0
 39 37  1  0  0  0  0
 40 41  1  0  0  0  0
 41 42  2  0  0  0  0
 41 46  1  0  0  0  0
 42 43  1  0  0  0  0
 43 44  2  0  0  0  0
 45 44  1  0  0  0  0
 46 45  2  0  0  0  0
M  END
>  <minimizedAffinity>
-7.31190729

>  <minimizedRMSD>
1.66170502

$$$$
