
 OpenBabel03242516163D

 45 49  0  0  1  0  0  0  0  0999 V2000
   45.9650   34.7340   41.4240 C   0  0  0  0  0  0  0  0  0  0  0  0
   46.6320   33.5270   41.2270 C   0  0  0  0  0  0  0  0  0  0  0  0
   46.8120   32.7050   42.3360 C   0  0  0  0  0  0  0  0  0  0  0  0
   46.3410   33.0950   43.5580 N   0  0  0  0  0  0  0  0  0  0  0  0
   45.7070   34.2690   43.6830 C   0  0  0  0  0  0  0  0  0  0  0  0
   45.5160   35.0780   42.6520 N   0  0  0  0  0  0  0  0  0  0  0  0
   45.1870   34.7330   44.9190 N   0  0  0  0  0  0  0  0  0  0  0  0
   45.8360   35.3550   40.5500 H   0  0  0  0  0  0  0  0  0  0  0  0
   44.1330   34.7250   44.9610 H   0  0  0  0  0  0  0  0  0  0  0  0
   46.0350   34.9580   45.4560 H   0  0  0  0  0  0  0  0  0  0  0  0
   47.1480   33.1320   39.8780 C   0  0  0  0  0  0  0  0  0  0  0  0
   47.9020   34.2270   39.1190 C   0  0  0  0  0  0  0  0  0  0  0  0
   48.5570   33.0250   39.6350 C   0  0  0  0  0  0  0  0  0  0  0  0
   47.7670   34.3270   38.0280 H   0  0  0  0  0  0  0  0  0  0  0  0
   47.9360   35.2170   39.6230 H   0  0  0  0  0  0  0  0  0  0  0  0
   49.4220   33.3300   40.2290 H   0  0  0  0  0  0  0  0  0  0  0  0
   48.8720   32.2640   38.8580 H   0  0  0  0  0  0  0  0  0  0  0  0
   46.1980   32.3840   39.0040 C   0  0  0  0  0  0  0  0  0  0  0  0
   45.7910   33.1040   37.7300 C   0  0  0  0  0  0  0  0  0  0  0  0
   44.9420   32.0910   36.9500 C   0  0  0  0  0  0  0  0  0  0  0  0
   43.6940   32.0800   37.5870 O   0  0  0  0  0  0  0  0  0  0  0  0
   43.9560   31.3550   38.7750 C   0  0  0  0  0  0  0  0  0  0  0  0
   44.8490   32.1510   39.6960 C   0  0  0  0  0  0  0  0  0  0  0  0
   46.5640   31.3900   38.7010 H   0  0  0  0  0  0  0  0  0  0  0  0
   45.2250   34.0200   37.9390 H   0  0  0  0  0  0  0  0  0  0  0  0
   46.6960   33.2690   37.0780 H   0  0  0  0  0  0  0  0  0  0  0  0
   44.8530   32.4020   35.8940 H   0  0  0  0  0  0  0  0  0  0  0  0
   45.3550   31.0860   37.0320 H   0  0  0  0  0  0  0  0  0  0  0  0
   44.2860   30.3380   38.5890 H   0  0  0  0  0  0  0  0  0  0  0  0
   42.9500   31.3400   39.2860 H   0  0  0  0  0  0  0  0  0  0  0  0
   44.3370   33.0940   39.9520 H   0  0  0  0  0  0  0  0  0  0  0  0
   45.0610   31.5090   40.5650 H   0  0  0  0  0  0  0  0  0  0  0  0
   47.5460   31.4630   42.2890 C   0  0  2  0  0  3  0  0  0  0  0  0
   47.3090   30.4420   41.5360 O   0  0  0  0  0  1  0  0  0  0  0  0
   48.6790   30.7900   42.9050 C   0  0  0  0  0  0  0  0  0  0  0  0
   48.4380   30.0910   44.0790 C   0  0  0  0  0  0  0  0  0  0  0  0
   47.4260   30.1280   44.5070 H   0  0  0  0  0  0  0  0  0  0  0  0
   49.3300   29.3280   44.8050 C   0  0  0  0  0  3  0  0  0  0  0  0
   50.5830   29.2810   44.2740 C   0  0  0  0  0  3  0  0  0  0  0  0
   50.9300   29.9360   43.1150 C   0  0  0  0  0  0  0  0  0  0  0  0
   52.1900   29.9160   42.5410 C   0  0  0  0  0  3  0  0  0  0  0  0
   52.4650   30.6030   41.3710 C   0  0  0  0  0  3  0  0  0  0  0  0
   51.4970   31.3410   40.7190 C   0  0  0  0  0  3  0  0  0  0  0  0
   50.2440   31.3720   41.2730 C   0  0  0  0  0  3  0  0  0  0  0  0
   49.9620   30.6910   42.4360 C   0  0  0  0  0  0  0  0  0  0  0  0
  1  6  1  0  0  0  0
  2  1  2  0  0  0  0
  2  3  1  0  0  0  0
  3  4  2  0  0  0  0
  4  5  1  0  0  0  0
  5  7  1  0  0  0  0
  6  5  2  0  0  0  0
  7  9  1  0  0  0  0
  7 10  1  0  0  0  0
  8  1  1  0  0  0  0
 11  2  1  0  0  0  0
 12 15  1  0  0  0  0
 12 13  1  0  0  0  0
 12 11  1  0  0  0  0
 13 11  1  0  0  0  0
 13 16  1  0  0  0  0
 14 12  1  0  0  0  0
 17 13  1  0  0  0  0
 18 23  1  0  0  0  0
 18 11  1  0  0  0  0
 19 25  1  0  0  0  0
 19 18  1  0  0  0  0
 20 28  1  0  0  0  0
 20 21  1  0  0  0  0
 20 19  1  0  0  0  0
 21 22  1  0  0  0  0
 22 30  1  0  0  0  0
 22 23  1  0  0  0  0
 23 31  1  0  0  0  0
 23 32  1  0  0  0  0
 24 18  1  0  0  0  0
 26 19  1  0  0  0  0
 27 20  1  0  0  0  0
 29 22  1  0  0  0  0
 33 34  1  1  0  0  0
 33  3  1  0  0  0  0
 33 35  1  0  0  0  0
 35 36  1  0  0  0  0
 36 37  1  0  0  0  0
 36 38  2  0  0  0  0
 39 38  1  0  0  0  0
 40 39  2  0  0  0  0
 41 40  1  0  0  0  0
 42 41  2  0  0  0  0
 43 44  2  0  0  0  0
 43 42  1  0  0  0  0
 44 45  1  0  0  0  0
 45 35  2  0  0  0  0
 45 40  1  0  0  0  0
M  END
>  <minimizedAffinity>
-4.15951014

>  <minimizedRMSD>
2.30475616

$$$$
