
 OpenBabel03252508003D

 31 34  0  0  1  0  0  0  0  0999 V2000
   46.2820   34.6760   43.3320 C   0  0  0  0  0  0  0  0  0  0  0  0
   45.3570   35.7270   43.6150 C   0  0  0  0  0  0  0  0  0  0  0  0
   44.6710   35.6220   44.8210 C   0  0  0  0  0  0  0  0  0  0  0  0
   44.9130   34.5650   45.6300 N   0  0  0  0  0  0  0  0  0  0  0  0
   45.8200   33.5880   45.2900 C   0  0  0  0  0  0  0  0  0  0  0  0
   46.5020   33.6280   44.1630 N   0  0  0  0  0  0  0  0  0  0  0  0
   45.2310   36.5320   42.9060 H   0  0  0  0  0  0  0  0  0  0  0  0
   43.9590   36.3950   45.0780 H   0  0  0  0  0  0  0  0  0  0  0  0
   46.0380   32.4640   46.2470 C   0  0  1  0  0  0  0  0  0  0  0  0
   46.8380   32.7150   47.5050 C   0  0  0  0  0  0  0  0  0  0  0  0
   45.3360   32.6180   47.5390 C   0  0  1  0  0  0  0  0  0  0  0  0
   46.0890   31.4530   45.8000 H   0  0  0  0  0  0  0  0  0  0  0  0
   47.3400   33.6900   47.5320 H   0  0  0  0  0  0  0  0  0  0  0  0
   47.3860   31.8290   47.8790 H   0  0  0  0  0  0  0  0  0  0  0  0
   44.9090   31.7420   48.0870 H   0  0  0  0  0  0  0  0  0  0  0  0
   44.7120   33.8760   47.8810 N   0  0  0  0  0  0  0  0  0  0  0  0
   43.7260   33.9740   47.6890 H   0  0  0  0  0  0  0  0  0  0  0  0
   45.3160   34.6810   47.9780 H   0  0  0  0  0  0  0  0  0  0  0  0
   46.9960   34.8050   42.0780 C   0  0  0  0  0  0  0  0  0  0  0  0
   47.8460   35.7360   41.8530 O   0  0  0  0  0  0  0  0  0  0  0  0
   46.5860   33.7330   41.1770 C   0  0  0  0  0  0  0  0  0  0  0  0
   47.4020   32.6530   40.8820 C   0  0  0  0  0  0  0  0  0  0  0  0
   48.3860   32.6030   41.3470 H   0  0  0  0  0  0  0  0  0  0  0  0
   47.0650   31.6190   40.0340 C   0  0  0  0  0  3  0  0  0  0  0  0
   45.8390   31.6380   39.4270 C   0  0  0  0  0  3  0  0  0  0  0  0
   44.9730   32.6830   39.6750 C   0  0  0  0  0  0  0  0  0  0  0  0
   43.7150   32.7280   39.0700 C   0  0  0  0  0  3  0  0  0  0  0  0
   42.8350   33.7530   39.3000 C   0  0  0  0  0  3  0  0  0  0  0  0
   43.2070   34.7850   40.1630 C   0  0  0  0  0  3  0  0  0  0  0  0
   44.4610   34.7020   40.7410 C   0  0  0  0  0  3  0  0  0  0  0  0
   45.3680   33.6870   40.5320 C   0  0  0  0  0  0  0  0  0  0  0  0
  1  2  2  0  0  0  0
  1  6  1  0  0  0  0
  2  3  1  0  0  0  0
  3  8  1  0  0  0  0
  3  4  2  0  0  0  0
  5  4  1  0  0  0  0
  5  9  1  0  0  0  0
  6  5  2  0  0  0  0
  7  2  1  0  0  0  0
  9 12  1  6  0  0  0
  9 10  1  0  0  0  0
  9 11  1  0  0  0  0
 10 13  1  0  0  0  0
 10 11  1  0  0  0  0
 10 14  1  0  0  0  0
 11 16  1  0  0  0  0
 11 15  1  1  0  0  0
 16 18  1  0  0  0  0
 17 16  1  0  0  0  0
 19  1  1  0  0  0  0
 20 19  2  0  0  0  0
 21 19  1  0  0  0  0
 22 21  1  0  0  0  0
 22 23  1  0  0  0  0
 24 22  2  0  0  0  0
 25 26  2  0  0  0  0
 25 24  1  0  0  0  0
 26 31  1  0  0  0  0
 27 28  2  0  0  0  0
 27 26  1  0  0  0  0
 28 29  1  0  0  0  0
 29 30  2  0  0  0  0
 31 30  1  0  0  0  0
 31 21  2  0  0  0  0
M  END
>  <minimizedAffinity>
-5.90673542

>  <minimizedRMSD>
1.28771734

$$$$
