
 OpenBabel03252509273D

 32 35  0  0  1  0  0  0  0  0999 V2000
   47.1680   35.2530   41.8530 C   0  0  1  0  0  0  0  0  0  0  0  0
   48.6900   35.3750   41.9300 C   0  0  0  0  0  0  0  0  0  0  0  0
   47.9000   34.3380   41.0690 C   0  0  2  0  0  0  0  0  0  0  0  0
   46.7010   36.1590   41.4740 H   0  0  0  0  0  0  0  0  0  0  0  0
   49.1770   36.1780   41.3270 H   0  0  0  0  0  0  0  0  0  0  0  0
   49.2200   35.0350   42.8130 H   0  0  0  0  0  0  0  0  0  0  0  0
   48.1550   33.2970   41.4530 H   0  0  0  0  0  0  0  0  0  0  0  0
   44.9580   34.8330   44.8470 C   0  0  0  0  0  0  0  0  0  0  0  0
   45.4700   35.3770   43.6370 C   0  0  0  0  0  0  0  0  0  0  0  0
   46.5980   34.7690   43.1670 C   0  0  0  0  0  0  0  0  0  0  0  0
   47.1840   33.7130   43.8270 N   0  0  0  0  0  0  0  0  0  0  0  0
   46.6660   33.2310   44.9670 C   0  0  0  0  0  0  0  0  0  0  0  0
   45.5430   33.7980   45.4820 N   0  0  0  0  0  0  0  0  0  0  0  0
   44.0640   35.2460   45.2910 H   0  0  0  0  0  0  0  0  0  0  0  0
   47.1410   32.4000   45.4770 H   0  0  0  0  0  0  0  0  0  0  0  0
   44.8640   36.4720   42.9970 N   0  0  0  0  0  0  0  0  0  0  0  0
   45.5350   37.2770   43.0530 H   0  0  0  0  0  0  0  0  0  0  0  0
   43.8980   36.4630   42.5440 H   0  0  0  0  0  0  0  0  0  0  0  0
   48.0250   34.4430   39.5720 C   0  0  0  0  0  0  0  0  0  0  0  0
   49.1110   34.3070   39.3100 H   0  0  0  0  0  0  0  0  0  0  0  0
   47.7190   35.4760   39.3520 H   0  0  0  0  0  0  0  0  0  0  0  0
   47.2780   33.3960   38.8730 C   0  0  0  0  0  0  0  0  0  0  0  0
   45.9290   33.3100   39.2470 C   0  0  0  0  0  0  0  0  0  0  0  0
   45.4840   33.8770   40.0580 H   0  0  0  0  0  0  0  0  0  0  0  0
   45.0640   32.4640   38.5650 C   0  0  0  0  0  3  0  0  0  0  0  0
   45.4720   31.6770   37.5070 C   0  0  0  0  0  3  0  0  0  0  0  0
   46.7770   31.7480   37.1400 C   0  0  0  0  0  0  0  0  0  0  0  0
   47.2550   30.9390   36.1110 C   0  0  0  0  0  3  0  0  0  0  0  0
   48.6000   31.0090   35.8050 C   0  0  0  0  0  3  0  0  0  0  0  0
   49.4570   31.8510   36.4850 C   0  0  0  0  0  3  0  0  0  0  0  0
   48.9570   32.6420   37.4970 C   0  0  0  0  0  3  0  0  0  0  0  0
   47.6000   32.5770   37.8140 C   0  0  0  0  0  0  0  0  0  0  0  0
  1  4  1  6  0  0  0
  1  2  1  0  0  0  0
  1 10  1  0  0  0  0
  2  6  1  0  0  0  0
  3  7  1  1  0  0  0
  3  1  1  0  0  0  0
  3  2  1  0  0  0  0
  5  2  1  0  0  0  0
  8 14  1  0  0  0  0
  8 13  1  0  0  0  0
  9  8  2  0  0  0  0
 10  9  1  0  0  0  0
 10 11  2  0  0  0  0
 11 12  1  0  0  0  0
 12 15  1  0  0  0  0
 12 13  2  0  0  0  0
 16 17  1  0  0  0  0
 16  9  1  0  0  0  0
 18 16  1  0  0  0  0
 19  3  1  0  0  0  0
 20 19  1  0  0  0  0
 21 19  1  0  0  0  0
 22 23  1  0  0  0  0
 22 19  1  0  0  0  0
 23 24  1  0  0  0  0
 25 23  2  0  0  0  0
 26 25  1  0  0  0  0
 27 26  2  0  0  0  0
 27 32  1  0  0  0  0
 28 27  1  0  0  0  0
 29 28  2  0  0  0  0
 29 30  1  0  0  0  0
 30 31  2  0  0  0  0
 31 32  1  0  0  0  0
 32 22  2  0  0  0  0
M  END
>  <minimizedAffinity>
-5.1990447

>  <minimizedRMSD>
3.35695529

$$$$
