
 OpenBabel03252509003D

 47 50  0  0  1  0  0  0  0  0999 V2000
   46.9460   34.3780   43.4890 N   0  0  0  0  0  0  0  0  0  0  0  0
   46.4760   35.4510   42.6890 C   0  0  0  0  0  0  0  0  0  0  0  0
   44.9750   35.6490   42.7030 C   0  0  0  0  0  0  0  0  0  0  0  0
   44.3130   35.2990   44.0140 C   0  0  0  0  0  0  0  0  0  0  0  0
   45.3280   34.9280   45.0670 C   0  0  0  0  0  0  0  0  0  0  0  0
   46.1220   33.7450   44.4020 C   0  0  2  0  0  0  0  0  0  0  0  0
   46.8930   36.3910   43.1340 H   0  0  0  0  0  0  0  0  0  0  0  0
   46.8050   35.4490   41.6510 H   0  0  0  0  0  0  0  0  0  0  0  0
   44.5450   35.1110   41.8280 H   0  0  0  0  0  0  0  0  0  0  0  0
   44.7510   36.7230   42.5130 H   0  0  0  0  0  0  0  0  0  0  0  0
   43.6010   36.0830   44.3640 H   0  0  0  0  0  0  0  0  0  0  0  0
   43.7030   34.3870   43.8370 H   0  0  0  0  0  0  0  0  0  0  0  0
   46.0540   35.7080   45.2910 H   0  0  0  0  0  0  0  0  0  0  0  0
   44.7810   34.5040   45.9150 H   0  0  0  0  0  0  0  0  0  0  0  0
   45.3600   33.0290   44.0000 H   0  0  0  0  0  0  0  0  0  0  0  0
   48.0230   33.6400   42.9010 C   0  0  0  0  0  0  0  0  0  0  0  0
   48.6480   33.1470   43.6960 H   0  0  0  0  0  0  0  0  0  0  0  0
   48.6360   34.3430   42.3150 H   0  0  0  0  0  0  0  0  0  0  0  0
   47.4610   32.5560   42.0450 C   0  0  0  0  0  0  0  0  0  0  0  0
   47.6680   31.5300   42.3820 H   0  0  0  0  0  0  0  0  0  0  0  0
   46.3480   32.6340   41.9930 H   0  0  0  0  0  0  0  0  0  0  0  0
   49.3760   32.0900   38.8480 C   0  0  0  0  0  0  0  0  0  0  0  0
   48.9270   31.9190   40.1710 C   0  0  0  0  0  0  0  0  0  0  0  0
   47.9320   32.7380   40.6470 C   0  0  0  0  0  0  0  0  0  0  0  0
   47.4360   33.6670   39.8160 N   0  0  0  0  0  0  0  0  0  0  0  0
   47.8810   33.8150   38.5500 C   0  0  0  0  0  0  0  0  0  0  0  0
   48.8500   33.0300   38.0580 N   0  0  0  0  0  0  0  0  0  0  0  0
   50.1670   31.3790   38.5920 H   0  0  0  0  0  0  0  0  0  0  0  0
   49.3360   31.1610   40.8410 H   0  0  0  0  0  0  0  0  0  0  0  0
   47.4710   34.5740   37.8820 H   0  0  0  0  0  0  0  0  0  0  0  0
   46.8340   33.2450   45.4830 O   0  0  0  0  0  0  0  0  0  0  0  0
   45.5720   30.9750   44.9110 O   0  0  0  0  0  0  0  0  0  0  0  0
   46.2330   31.7740   46.0370 P   0  0  2  0  0  0  0  0  0  0  0  0
   44.9470   32.1600   47.1000 O   0  0  0  0  0  0  0  0  0  0  0  0
   45.3430   32.7840   47.7500 H   0  0  0  0  0  0  0  0  0  0  0  0
   47.3570   30.9090   46.8890 O   0  0  0  0  0  0  0  0  0  0  0  0
   47.8590   29.6660   46.6400 C   0  0  0  0  0  0  0  0  0  0  0  0
   49.0660   29.3420   46.0360 C   0  0  0  0  0  0  0  0  0  0  0  0
   49.6470   30.2040   45.7440 H   0  0  0  0  0  0  0  0  0  0  0  0
   49.4040   28.0070   45.8680 C   0  0  0  0  0  3  0  0  0  0  0  0
   48.5670   27.0160   46.2890 C   0  0  0  0  0  3  0  0  0  0  0  0
   47.3710   27.3010   46.8870 C   0  0  0  0  0  0  0  0  0  0  0  0
   46.5630   26.2680   47.2930 C   0  0  0  0  0  3  0  0  0  0  0  0
   45.3550   26.5330   47.8970 C   0  0  0  0  0  3  0  0  0  0  0  0
   44.9710   27.8440   48.0870 C   0  0  0  0  0  3  0  0  0  0  0  0
   45.7960   28.8450   47.6730 C   0  0  0  0  0  3  0  0  0  0  0  0
   47.0240   28.6390   47.0580 C   0  0  0  0  0  0  0  0  0  0  0  0
  1  6  1  0  0  0  0
  2  3  1  0  0  0  0
  2  7  1  0  0  0  0
  2  1  1  0  0  0  0
  3  4  1  0  0  0  0
  4 11  1  0  0  0  0
  4  5  1  0  0  0  0
  5 13  1  0  0  0  0
  5 14  1  0  0  0  0
  6 15  1  6  0  0  0
  6  5  1  0  0  0  0
  6 31  1  0  0  0  0
  8  2  1  0  0  0  0
  9  3  1  0  0  0  0
 10  3  1  0  0  0  0
 12  4  1  0  0  0  0
 16  1  1  0  0  0  0
 16 17  1  0  0  0  0
 18 16  1  0  0  0  0
 19 20  1  0  0  0  0
 19 16  1  0  0  0  0
 21 19  1  0  0  0  0
 22 23  1  0  0  0  0
 23 24  2  0  0  0  0
 23 29  1  0  0  0  0
 24 19  1  0  0  0  0
 25 24  1  0  0  0  0
 26 25  2  0  0  0  0
 27 26  1  0  0  0  0
 27 22  2  0  0  0  0
 28 22  1  0  0  0  0
 30 26  1  0  0  0  0
 31 33  1  0  0  0  0
 33 32  2  6  0  0  0
 33 36  1  0  0  0  0
 33 34  1  0  0  0  0
 34 35  1  0  0  0  0
 37 36  1  0  0  0  0
 37 47  1  0  0  0  0
 38 37  2  0  0  0  0
 39 38  1  0  0  0  0
 40 38  1  0  0  0  0
 40 41  2  0  0  0  0
 41 42  1  0  0  0  0
 42 47  2  0  0  0  0
 42 43  1  0  0  0  0
 43 44  2  0  0  0  0
 44 45  1  0  0  0  0
 46 45  2  0  0  0  0
 47 46  1  0  0  0  0
M  END
>  <minimizedAffinity>
-4.67104626

>  <minimizedRMSD>
1.05402803

$$$$
