
 OpenBabel03252503593D

 36 40  0  0  0  0  0  0  0  0999 V2000
   47.3290   34.8570   42.6270 C   0  0  0  0  0  0  0  0  0  0  0  0
   46.2550   35.6060   42.1700 C   0  0  0  0  0  0  0  0  0  0  0  0
   45.0390   35.4390   42.8100 C   0  0  0  0  0  0  0  0  0  0  0  0
   44.9570   34.5620   43.8400 N   0  0  0  0  0  0  0  0  0  0  0  0
   46.0410   33.8420   44.2600 C   0  0  0  0  0  0  0  0  0  0  0  0
   47.2240   33.9940   43.6500 N   0  0  0  0  0  0  0  0  0  0  0  0
   46.2720   36.3130   41.3570 H   0  0  0  0  0  0  0  0  0  0  0  0
   44.1610   35.9960   42.4990 H   0  0  0  0  0  0  0  0  0  0  0  0
   46.0890   31.5540   45.0760 C   0  0  0  0  0  0  0  0  0  0  0  0
   45.9230   32.9060   45.3710 C   0  0  0  0  0  0  0  0  0  0  0  0
   45.6620   33.2840   46.6630 C   0  0  0  0  0  0  0  0  0  0  0  0
   45.5690   32.3230   47.6420 C   0  0  0  0  0  0  0  0  0  0  0  0
   45.3270   32.3980   48.9670 N   0  0  0  0  0  0  0  0  0  0  0  0
   45.3320   31.1780   49.5180 C   0  0  0  0  0  0  0  0  0  0  0  0
   45.5840   30.2580   48.5380 C   0  0  0  0  0  0  0  0  0  0  0  0
   45.7330   30.9740   47.3560 C   0  0  0  0  0  0  0  0  0  0  0  0
   45.9960   30.5880   46.0570 C   0  0  0  0  0  0  0  0  0  0  0  0
   46.3000   31.1490   44.0800 H   0  0  0  0  0  0  0  0  0  0  0  0
   45.5350   34.3360   46.8750 H   0  0  0  0  0  0  0  0  0  0  0  0
   45.1570   33.2850   49.5050 H   0  0  0  0  0  0  0  0  0  0  0  0
   45.1650   30.9420   50.5700 H   0  0  0  0  0  0  0  0  0  0  0  0
   45.6650   29.1650   48.6010 H   0  0  0  0  0  0  0  0  0  0  0  0
   46.1200   29.5280   45.8630 H   0  0  0  0  0  0  0  0  0  0  0  0
   48.5850   35.0710   41.9160 C   0  0  0  0  0  0  0  0  0  0  0  0
   49.1530   36.2190   41.8140 O   0  0  0  0  0  0  0  0  0  0  0  0
   49.0590   33.8050   41.3650 C   0  0  0  0  0  0  0  0  0  0  0  0
   49.9140   32.9690   42.0920 C   0  0  0  0  0  0  0  0  0  0  0  0
   50.2370   33.2790   43.0960 H   0  0  0  0  0  0  0  0  0  0  0  0
   50.3980   31.7590   41.6420 C   0  0  0  0  0  3  0  0  0  0  0  0
   50.0230   31.3280   40.3920 C   0  0  0  0  0  3  0  0  0  0  0  0
   49.1810   32.1080   39.6260 C   0  0  0  0  0  0  0  0  0  0  0  0
   48.8220   31.6530   38.3750 C   0  0  0  0  0  3  0  0  0  0  0  0
   47.9830   32.3910   37.5640 C   0  0  0  0  0  3  0  0  0  0  0  0
   47.5370   33.5900   38.0750 C   0  0  0  0  0  3  0  0  0  0  0  0
   47.8970   34.0440   39.3270 C   0  0  0  0  0  3  0  0  0  0  0  0
   48.7340   33.3090   40.1370 C   0  0  0  0  0  0  0  0  0  0  0  0
  1  6  1  0  0  0  0
  2  1  2  0  0  0  0
  2  3  1  0  0  0  0
  3  4  2  0  0  0  0
  4  5  1  0  0  0  0
  5 10  1  0  0  0  0
  6  5  2  0  0  0  0
  7  2  1  0  0  0  0
  8  3  1  0  0  0  0
  9 10  2  0  0  0  0
  9 17  1  0  0  0  0
 10 11  1  0  0  0  0
 11 19  1  0  0  0  0
 11 12  2  0  0  0  0
 12 13  1  0  0  0  0
 13 20  1  0  0  0  0
 13 14  1  0  0  0  0
 14 21  1  0  0  0  0
 15 22  1  0  0  0  0
 15 14  2  0  0  0  0
 16 12  1  0  0  0  0
 16 15  1  0  0  0  0
 17 16  2  0  0  0  0
 18  9  1  0  0  0  0
 23 17  1  0  0  0  0
 24  1  1  0  0  0  0
 25 24  2  0  0  0  0
 26 24  1  0  0  0  0
 26 27  1  0  0  0  0
 27 28  1  0  0  0  0
 29 27  2  0  0  0  0
 30 29  1  0  0  0  0
 31 36  1  0  0  0  0
 31 30  2  0  0  0  0
 32 31  1  0  0  0  0
 33 34  1  0  0  0  0
 33 32  2  0  0  0  0
 34 35  2  0  0  0  0
 35 36  1  0  0  0  0
 36 26  2  0  0  0  0
M  END
>  <minimizedAffinity>
-6.88122702

>  <minimizedRMSD>
1.64866292

$$$$
