
 OpenBabel03242523163D

 29 32  0  0  0  0  0  0  0  0999 V2000
   46.3250   34.1420   43.1380 C   0  0  0  0  0  0  0  0  0  0  0  0
   47.5660   33.6940   42.8230 C   0  0  0  0  0  0  0  0  0  0  0  0
   47.9780   32.5500   43.5070 C   0  0  0  0  0  0  0  0  0  0  0  0
   47.1060   31.9820   44.4320 N   0  0  0  0  0  0  0  0  0  0  0  0
   45.9170   32.4860   44.6820 C   0  0  0  0  0  0  0  0  0  0  0  0
   45.4620   33.6140   44.0310 N   0  0  0  0  0  0  0  0  0  0  0  0
   48.9420   32.0880   43.3470 H   0  0  0  0  0  0  0  0  0  0  0  0
   45.3880   31.9110   45.4300 H   0  0  0  0  0  0  0  0  0  0  0  0
   48.4820   34.3430   41.9500 C   0  0  0  0  0  0  0  0  0  0  0  0
   48.7030   35.6640   41.7520 C   0  0  0  0  0  0  0  0  0  0  0  0
   49.7930   34.9990   42.5720 C   0  0  0  0  0  0  0  0  0  0  0  0
   49.0300   33.5050   41.3370 H   0  0  0  0  0  0  0  0  0  0  0  0
   48.1870   36.4570   42.3760 H   0  0  0  0  0  0  0  0  0  0  0  0
   49.0630   36.1680   40.8040 H   0  0  0  0  0  0  0  0  0  0  0  0
   49.7310   34.9840   43.6570 H   0  0  0  0  0  0  0  0  0  0  0  0
   50.7380   34.8670   42.0740 H   0  0  0  0  0  0  0  0  0  0  0  0
   45.5940   35.2310   42.4860 C   0  0  0  0  0  0  0  0  0  0  0  0
   45.2730   36.4090   42.4450 O   0  0  0  0  0  0  0  0  0  0  0  0
   44.9150   34.6030   41.3080 C   0  0  0  0  0  0  0  0  0  0  0  0
   45.6410   33.8540   40.3700 C   0  0  0  0  0  0  0  0  0  0  0  0
   46.7250   33.7530   40.4890 H   0  0  0  0  0  0  0  0  0  0  0  0
   45.1040   33.2110   39.2780 C   0  0  0  0  0  0  0  0  0  0  0  0
   43.7550   33.3160   39.1010 C   0  0  0  0  0  0  0  0  0  0  0  0
   42.9890   34.0310   39.9770 C   0  0  0  0  0  0  0  0  0  0  0  0
   41.6390   34.1220   39.7620 C   0  0  0  0  0  0  0  0  0  0  0  0
   40.8150   34.8330   40.6030 C   0  0  0  0  0  0  0  0  0  0  0  0
   41.4150   35.4690   41.6970 C   0  0  0  0  0  0  0  0  0  0  0  0
   42.7650   35.3540   41.8750 C   0  0  0  0  0  0  0  0  0  0  0  0
   43.5930   34.6500   41.0490 C   0  0  0  0  0  0  0  0  0  0  0  0
  1  6  1  0  0  0  0
  2  1  2  0  0  0  0
  2  3  1  0  0  0  0
  3  4  2  0  0  0  0
  4  5  1  0  0  0  0
  5  8  1  0  0  0  0
  6  5  2  0  0  0  0
  7  3  1  0  0  0  0
  9 11  1  0  0  0  0
  9  2  1  0  0  0  0
 10  9  1  0  0  0  0
 10 13  1  0  0  0  0
 10 11  1  0  0  0  0
 11 15  1  0  0  0  0
 12  9  1  0  0  0  0
 14 10  1  0  0  0  0
 16 11  1  0  0  0  0
 17  1  1  0  0  0  0
 18 17  2  0  0  0  0
 19 17  1  0  0  0  0
 20 21  1  0  0  0  0
 20 19  2  0  0  0  0
 22 20  1  0  0  0  0
 23 22  2  0  0  0  0
 23 24  1  0  0  0  0
 24 29  1  0  0  0  0
 25 24  2  0  0  0  0
 25 26  1  0  0  0  0
 26 27  2  0  0  0  0
 27 28  1  0  0  0  0
 29 19  1  0  0  0  0
 29 28  2  0  0  0  0
M  END
>  <minimizedAffinity>
-5.46611595

>  <minimizedRMSD>
0.676815689

$$$$
