
 OpenBabel03252501113D

 22 24  0  0  0  0  0  0  0  0999 V2000
   47.1780   34.7820   41.9900 C   0  0  0  0  0  0  0  0  0  0  0  0
   48.3220   35.3310   41.8810 O   0  0  0  0  0  0  0  0  0  0  0  0
   46.4810   33.9910   40.9580 C   0  0  0  0  0  0  0  0  0  0  0  0
   45.3120   33.2810   41.2420 C   0  0  0  0  0  0  0  0  0  0  0  0
   44.8930   33.3100   42.2460 H   0  0  0  0  0  0  0  0  0  0  0  0
   44.6240   32.5250   40.3280 C   0  0  0  0  0  0  0  0  0  0  0  0
   45.1100   32.4520   39.0410 C   0  0  0  0  0  0  0  0  0  0  0  0
   46.2570   33.1310   38.7080 C   0  0  0  0  0  0  0  0  0  0  0  0
   46.7520   33.0610   37.4050 C   0  0  0  0  0  0  0  0  0  0  0  0
   47.9000   33.7300   37.0280 C   0  0  0  0  0  0  0  0  0  0  0  0
   48.5530   34.4790   37.9940 C   0  0  0  0  0  0  0  0  0  0  0  0
   48.0330   34.5200   39.2640 C   0  0  0  0  0  0  0  0  0  0  0  0
   46.9000   33.8740   39.6770 C   0  0  0  0  0  0  0  0  0  0  0  0
   44.6130   35.9650   44.3660 C   0  0  0  0  0  0  0  0  0  0  0  0
   45.4390   35.8830   43.2200 C   0  0  0  0  0  0  0  0  0  0  0  0
   46.3530   34.8440   43.1690 C   0  0  0  0  0  0  0  0  0  0  0  0
   46.4340   33.9580   44.1870 N   0  0  0  0  0  0  0  0  0  0  0  0
   45.6260   34.0630   45.2780 C   0  0  0  0  0  0  0  0  0  0  0  0
   44.7080   35.0710   45.3710 N   0  0  0  0  0  0  0  0  0  0  0  0
   43.8770   36.7440   44.4810 H   0  0  0  0  0  0  0  0  0  0  0  0
   45.3170   36.6290   42.4450 H   0  0  0  0  0  0  0  0  0  0  0  0
   45.7070   33.3420   46.0830 H   0  0  0  0  0  0  0  0  0  0  0  0
  1 16  1  0  0  0  0
  2  1  2  0  0  0  0
  3  4  1  0  0  0  0
  3  1  1  0  0  0  0
  4  5  1  0  0  0  0
  6  4  2  0  0  0  0
  7  6  1  0  0  0  0
  8  7  2  0  0  0  0
  8 13  1  0  0  0  0
  9  8  1  0  0  0  0
 10  9  2  0  0  0  0
 10 11  1  0  0  0  0
 11 12  2  0  0  0  0
 12 13  1  0  0  0  0
 13  3  2  0  0  0  0
 14 20  1  0  0  0  0
 14 19  1  0  0  0  0
 15 14  2  0  0  0  0
 16 15  1  0  0  0  0
 16 17  2  0  0  0  0
 17 18  1  0  0  0  0
 18 19  2  0  0  0  0
 18 22  1  0  0  0  0
 21 15  1  0  0  0  0
M  END
>  <minimizedAffinity>
-5.19360924

>  <minimizedRMSD>
0.706835628

$$$$
