
 OpenBabel03252504183D

 40 43  0  0  0  0  0  0  0  0999 V2000
   47.6150   29.9690   44.9180 F   0  0  0  0  0  0  0  0  0  0  0  0
   47.5060   30.7460   46.0430 C   0  0  0  0  0  0  0  0  0  0  0  0
   46.9500   32.0070   45.9580 C   0  0  0  0  0  0  0  0  0  0  0  0
   46.8830   32.7170   47.1460 C   0  0  0  0  0  0  0  0  0  0  0  0
   47.3480   32.1900   48.3280 C   0  0  0  0  0  0  0  0  0  0  0  0
   47.8950   30.9220   48.3460 C   0  0  0  0  0  0  0  0  0  0  0  0
   47.9880   30.1610   47.1900 C   0  0  0  0  0  0  0  0  0  0  0  0
   46.4470   33.7030   47.0750 H   0  0  0  0  0  0  0  0  0  0  0  0
   47.2710   32.7900   49.2310 H   0  0  0  0  0  0  0  0  0  0  0  0
   48.2650   30.4860   49.2590 H   0  0  0  0  0  0  0  0  0  0  0  0
   46.8000   34.1090   42.9680 C   0  0  0  0  0  0  0  0  0  0  0  0
   45.6630   33.6500   42.3010 C   0  0  0  0  0  0  0  0  0  0  0  0
   44.9500   32.5980   42.9040 C   0  0  0  0  0  0  0  0  0  0  0  0
   45.3740   32.0820   44.0720 N   0  0  0  0  0  0  0  0  0  0  0  0
   46.4690   32.5510   44.6800 C   0  0  0  0  0  0  0  0  0  0  0  0
   47.1870   33.5620   44.1380 N   0  0  0  0  0  0  0  0  0  0  0  0
   44.0840   32.2660   42.3690 H   0  0  0  0  0  0  0  0  0  0  0  0
   45.2670   34.2680   41.0300 C   0  0  0  0  0  0  0  0  0  0  0  0
   44.9420   35.6010   41.2260 F   0  0  0  0  0  0  0  0  0  0  0  0
   46.3670   34.2450   40.1860 F   0  0  0  0  0  0  0  0  0  0  0  0
   44.2320   33.6710   40.3960 F   0  0  0  0  0  0  0  0  0  0  0  0
   47.4930   35.1170   42.3950 O   0  0  0  0  0  0  0  0  0  0  0  0
   48.8180   35.0710   41.9140 C   0  0  0  0  0  0  0  0  0  0  0  0
   49.6530   35.3190   42.9840 F   0  0  0  0  0  0  0  0  0  0  0  0
   49.0480   33.8520   41.3240 F   0  0  0  0  0  0  0  0  0  0  0  0
   49.0240   36.1150   41.0420 F   0  0  0  0  0  0  0  0  0  0  0  0
   48.5680   28.7790   47.1990 C   0  0  0  0  0  0  0  0  0  0  0  0
   48.1220   28.1560   47.9690 H   0  0  0  0  0  0  0  0  0  0  0  0
   48.2770   28.3710   46.1850 H   0  0  0  0  0  0  0  0  0  0  0  0
   50.0600   28.8400   47.2570 C   0  0  0  0  0  0  0  0  0  0  0  0
   50.7360   29.1150   46.0880 C   0  0  0  0  0  0  0  0  0  0  0  0
   50.2010   29.3220   45.1590 H   0  0  0  0  0  0  0  0  0  0  0  0
   52.1070   29.1200   46.1200 C   0  0  0  0  0  3  0  0  0  0  0  0
   52.8690   28.8710   47.2390 C   0  0  0  0  0  3  0  0  0  0  0  0
   52.1570   28.5980   48.4030 C   0  0  0  0  0  0  0  0  0  0  0  0
   52.8560   28.3490   49.5640 C   0  0  0  0  0  3  0  0  0  0  0  0
   52.2290   28.0740   50.7850 C   0  0  0  0  0  3  0  0  0  0  0  0
   50.8520   28.0860   50.6840 C   0  0  0  0  0  3  0  0  0  0  0  0
   50.0730   28.3210   49.5780 C   0  0  0  0  0  3  0  0  0  0  0  0
   50.7770   28.5830   48.4120 C   0  0  0  0  0  0  0  0  0  0  0  0
  1  2  1  0  0  0  0
  2  7  1  0  0  0  0
  3  2  2  0  0  0  0
  3  4  1  0  0  0  0
  4  5  2  0  0  0  0
  5  6  1  0  0  0  0
  5  9  1  0  0  0  0
  6 10  1  0  0  0  0
  7 27  1  0  0  0  0
  7  6  2  0  0  0  0
  8  4  1  0  0  0  0
 11 16  1  0  0  0  0
 12 13  1  0  0  0  0
 12 11  2  0  0  0  0
 13 14  2  0  0  0  0
 14 15  1  0  0  0  0
 15  3  1  0  0  0  0
 16 15  2  0  0  0  0
 17 13  1  0  0  0  0
 18 19  1  0  0  0  0
 18 12  1  0  0  0  0
 20 18  1  0  0  0  0
 21 18  1  0  0  0  0
 22 11  1  0  0  0  0
 23 22  1  0  0  0  0
 23 24  1  0  0  0  0
 25 23  1  0  0  0  0
 26 23  1  0  0  0  0
 27 30  1  0  0  0  0
 27 28  1  0  0  0  0
 29 27  1  0  0  0  0
 30 40  1  0  0  0  0
 31 33  1  0  0  0  0
 31 30  2  0  0  0  0
 32 31  1  0  0  0  0
 33 34  2  0  0  0  0
 34 35  1  0  0  0  0
 35 40  2  0  0  0  0
 35 36  1  0  0  0  0
 36 37  2  0  0  0  0
 38 37  1  0  0  0  0
 39 38  2  0  0  0  0
 40 39  1  0  0  0  0
M  END
>  <minimizedAffinity>
-6.0920577

>  <minimizedRMSD>
1.22418761

$$$$
