
 OpenBabel03242521093D

 42 46  0  0  1  0  0  0  0  0999 V2000
   36.2860   28.9850   39.7490 C   0  0  2  0  0  0  0  0  0  0  0  0
   34.8950   29.2110   40.2040 C   0  0  0  0  0  0  0  0  0  0  0  0
   36.0870   29.2140   41.1670 C   0  0  1  0  0  0  0  0  0  0  0  0
   36.5280   27.9120   39.4730 H   0  0  0  0  0  0  0  0  0  0  0  0
   34.2240   28.3390   40.3230 H   0  0  0  0  0  0  0  0  0  0  0  0
   34.3970   30.1350   39.9210 H   0  0  0  0  0  0  0  0  0  0  0  0
   36.1380   30.2220   41.6200 H   0  0  0  0  0  0  0  0  0  0  0  0
   38.1520   31.9970   38.7370 C   0  0  0  0  0  0  0  0  0  0  0  0
   37.9990   31.8500   37.3620 C   0  0  0  0  0  0  0  0  0  0  0  0
   37.3240   30.8210   36.7450 C   0  0  0  0  0  0  0  0  0  0  0  0
   36.7500   29.8560   37.5510 C   0  0  0  0  0  0  0  0  0  0  0  0
   36.9110   30.0180   38.9000 C   0  0  0  0  0  0  0  0  0  0  0  0
   37.5710   31.0260   39.4450 N   0  0  0  0  0  0  0  0  0  0  0  0
   38.4430   32.5990   36.7050 H   0  0  0  0  0  0  0  0  0  0  0  0
   37.2340   30.7520   35.6770 H   0  0  0  0  0  0  0  0  0  0  0  0
   36.2160   29.0400   37.0830 H   0  0  0  0  0  0  0  0  0  0  0  0
   39.1730   35.0890   40.6270 C   0  0  0  0  0  0  0  0  0  0  0  0
   38.3100   34.0910   40.1270 C   0  0  0  0  0  0  0  0  0  0  0  0
   38.8840   33.1080   39.3410 C   0  0  0  0  0  0  0  0  0  0  0  0
   40.2130   33.1450   39.0910 N   0  0  0  0  0  0  0  0  0  0  0  0
   41.0090   34.1330   39.5970 C   0  0  0  0  0  0  0  0  0  0  0  0
   40.4720   35.0840   40.3550 N   0  0  0  0  0  0  0  0  0  0  0  0
   38.6440   35.8210   41.2340 H   0  0  0  0  0  0  0  0  0  0  0  0
   37.2450   34.0290   40.3060 H   0  0  0  0  0  0  0  0  0  0  0  0
   42.0500   34.0990   39.3590 H   0  0  0  0  0  0  0  0  0  0  0  0
   36.1300   28.1430   42.0760 O   0  0  0  0  0  0  0  0  0  0  0  0
   38.3640   29.2900   42.5310 O   0  0  0  0  0  0  0  0  0  0  0  0
   37.4230   28.2570   43.1610 P   0  0  1  0  0  0  0  0  0  0  0  0
   36.9030   28.9090   44.6170 O   0  0  0  0  0  0  0  0  0  0  0  0
   36.9680   28.2660   45.3680 H   0  0  0  0  0  0  0  0  0  0  0  0
   38.3130   26.8550   43.3270 O   0  0  0  0  0  0  0  0  0  0  0  0
   39.1900   26.2980   42.4280 C   0  0  0  0  0  0  0  0  0  0  0  0
   40.5190   26.5170   42.1470 C   0  0  0  0  0  0  0  0  0  0  0  0
   40.9470   27.2900   42.7680 H   0  0  0  0  0  0  0  0  0  0  0  0
   41.2080   25.8220   41.1790 C   0  0  0  0  0  3  0  0  0  0  0  0
   40.5920   24.8510   40.4250 C   0  0  0  0  0  3  0  0  0  0  0  0
   39.2530   24.6080   40.6840 C   0  0  0  0  0  0  0  0  0  0  0  0
   38.6930   23.6230   39.8950 C   0  0  0  0  0  3  0  0  0  0  0  0
   37.3640   23.3100   40.0810 C   0  0  0  0  0  3  0  0  0  0  0  0
   36.6300   23.9730   41.0330 C   0  0  0  0  0  3  0  0  0  0  0  0
   37.2340   24.9330   41.7820 C   0  0  0  0  0  3  0  0  0  0  0  0
   38.5550   25.3150   41.6680 C   0  0  0  0  0  0  0  0  0  0  0  0
  1  4  1  6  0  0  0
  1  2  1  0  0  0  0
  1  3  1  0  0  0  0
  2  5  1  0  0  0  0
  2  3  1  0  0  0  0
  3  7  1  1  0  0  0
  3 26  1  0  0  0  0
  6  2  1  0  0  0  0
  8 19  1  0  0  0  0
  8 13  1  0  0  0  0
  9  8  2  0  0  0  0
 10  9  1  0  0  0  0
 10 11  2  0  0  0  0
 11 12  1  0  0  0  0
 12 13  2  0  0  0  0
 12  1  1  0  0  0  0
 14  9  1  0  0  0  0
 15 10  1  0  0  0  0
 16 11  1  0  0  0  0
 17 23  1  0  0  0  0
 18 24  1  0  0  0  0
 18 17  2  0  0  0  0
 19 18  1  0  0  0  0
 20 19  2  0  0  0  0
 20 21  1  0  0  0  0
 21 22  2  0  0  0  0
 22 17  1  0  0  0  0
 25 21  1  0  0  0  0
 26 28  1  0  0  0  0
 28 27  2  6  0  0  0
 28 31  1  0  0  0  0
 28 29  1  0  0  0  0
 29 30  1  0  0  0  0
 32 31  1  0  0  0  0
 33 32  1  0  0  0  0
 33 34  1  0  0  0  0
 35 33  2  0  0  0  0
 36 37  2  0  0  0  0
 36 35  1  0  0  0  0
 37 42  1  0  0  0  0
 38 39  2  0  0  0  0
 38 37  1  0  0  0  0
 39 40  1  0  0  0  0
 40 41  2  0  0  0  0
 42 41  1  0  0  0  0
 42 32  2  0  0  0  0
M  END
>  <minimizedAffinity>
-7.00535631

$$$$

 OpenBabel03242521093D

 42 46  0  0  1  0  0  0  0  0999 V2000
   40.0240   29.6680   41.4470 C   0  0  2  0  0  0  0  0  0  0  0  0
   40.9260   30.3190   42.4240 C   0  0  0  0  0  0  0  0  0  0  0  0
   39.9510   31.1130   41.5480 C   0  0  1  0  0  0  0  0  0  0  0  0
   40.5350   29.2850   40.5090 H   0  0  0  0  0  0  0  0  0  0  0  0
   41.9900   30.4620   42.1560 H   0  0  0  0  0  0  0  0  0  0  0  0
   40.7390   30.1720   43.4850 H   0  0  0  0  0  0  0  0  0  0  0  0
   39.2460   31.6280   42.2280 H   0  0  0  0  0  0  0  0  0  0  0  0
   37.4890   27.0040   41.6740 C   0  0  0  0  0  0  0  0  0  0  0  0
   36.9850   27.3400   42.9260 C   0  0  0  0  0  0  0  0  0  0  0  0
   37.4280   28.3870   43.7030 C   0  0  0  0  0  0  0  0  0  0  0  0
   38.4540   29.1670   43.2040 C   0  0  0  0  0  0  0  0  0  0  0  0
   38.9350   28.8210   41.9710 C   0  0  0  0  0  0  0  0  0  0  0  0
   38.4750   27.8040   41.2620 N   0  0  0  0  0  0  0  0  0  0  0  0
   36.1760   26.7400   43.3410 H   0  0  0  0  0  0  0  0  0  0  0  0
   37.0060   28.6060   44.6660 H   0  0  0  0  0  0  0  0  0  0  0  0
   38.8140   29.9940   43.8020 H   0  0  0  0  0  0  0  0  0  0  0  0
   36.3760   23.6190   40.4550 C   0  0  0  0  0  0  0  0  0  0  0  0
   36.8900   24.5780   41.3540 C   0  0  0  0  0  0  0  0  0  0  0  0
   36.9840   25.8780   40.8900 C   0  0  0  0  0  0  0  0  0  0  0  0
   36.5900   26.1670   39.6280 N   0  0  0  0  0  0  0  0  0  0  0  0
   36.0990   25.2040   38.7940 C   0  0  0  0  0  0  0  0  0  0  0  0
   36.0020   23.9500   39.2250 N   0  0  0  0  0  0  0  0  0  0  0  0
   36.3350   22.6260   40.8970 H   0  0  0  0  0  0  0  0  0  0  0  0
   37.2130   24.3850   42.3670 H   0  0  0  0  0  0  0  0  0  0  0  0
   35.8070   25.5040   37.8110 H   0  0  0  0  0  0  0  0  0  0  0  0
   40.5460   31.9280   40.5700 O   0  0  0  0  0  0  0  0  0  0  0  0
   38.7930   33.7060   41.0990 O   0  0  0  0  0  0  0  0  0  0  0  0
   39.4620   33.0360   39.8940 P   0  0  1  0  0  0  0  0  0  0  0  0
   40.2970   34.2420   39.0790 O   0  0  0  0  0  0  0  0  0  0  0  0
   40.1320   34.2290   38.1020 H   0  0  0  0  0  0  0  0  0  0  0  0
   38.2330   32.3450   39.0010 O   0  0  0  0  0  0  0  0  0  0  0  0
   37.2640   31.4690   39.4310 C   0  0  0  0  0  0  0  0  0  0  0  0
   36.6690   31.2460   40.6500 C   0  0  0  0  0  0  0  0  0  0  0  0
   37.0530   31.9000   41.4190 H   0  0  0  0  0  0  0  0  0  0  0  0
   35.6980   30.2910   40.8500 C   0  0  0  0  0  3  0  0  0  0  0  0
   35.2610   29.4930   39.8190 C   0  0  0  0  0  3  0  0  0  0  0  0
   35.8430   29.6940   38.5780 C   0  0  0  0  0  0  0  0  0  0  0  0
   35.3630   28.8620   37.5870 C   0  0  0  0  0  3  0  0  0  0  0  0
   35.8820   28.9880   36.3160 C   0  0  0  0  0  3  0  0  0  0  0  0
   36.8530   29.9240   36.0620 C   0  0  0  0  0  3  0  0  0  0  0  0
   37.2880   30.7170   37.0770 C   0  0  0  0  0  3  0  0  0  0  0  0
   36.8290   30.6630   38.3780 C   0  0  0  0  0  0  0  0  0  0  0  0
  1  4  1  6  0  0  0
  1  3  1  0  0  0  0
  1 12  1  0  0  0  0
  1  2  1  0  0  0  0
  2  6  1  0  0  0  0
  3  7  1  1  0  0  0
  3  2  1  0  0  0  0
  5  2  1  0  0  0  0
  8  9  1  0  0  0  0
  9 14  1  0  0  0  0
  9 10  2  0  0  0  0
 10 15  1  0  0  0  0
 11 10  1  0  0  0  0
 11 16  1  0  0  0  0
 12 11  2  0  0  0  0
 13  8  2  0  0  0  0
 13 12  1  0  0  0  0
 17 23  1  0  0  0  0
 17 18  1  0  0  0  0
 18 24  1  0  0  0  0
 19 18  2  0  0  0  0
 19  8  1  0  0  0  0
 20 19  1  0  0  0  0
 21 22  1  0  0  0  0
 21 20  2  0  0  0  0
 22 17  2  0  0  0  0
 25 21  1  0  0  0  0
 26  3  1  0  0  0  0
 28 26  1  0  0  0  0
 28 27  2  1  0  0  0
 29 28  1  0  0  0  0
 30 29  1  0  0  0  0
 31 32  1  0  0  0  0
 31 28  1  0  0  0  0
 32 33  1  0  0  0  0
 33 35  2  0  0  0  0
 33 34  1  0  0  0  0
 36 35  1  0  0  0  0
 37 36  2  0  0  0  0
 38 37  1  0  0  0  0
 39 38  2  0  0  0  0
 40 39  1  0  0  0  0
 40 41  2  0  0  0  0
 41 42  1  0  0  0  0
 42 37  1  0  0  0  0
 42 32  2  0  0  0  0
M  END
>  <minimizedAffinity>
-6.94196081

$$$$

 OpenBabel03242521093D

 42 46  0  0  1  0  0  0  0  0999 V2000
   37.3260   32.5150   39.4820 C   0  0  2  0  0  0  0  0  0  0  0  0
   37.0480   31.6100   40.6210 C   0  0  0  0  0  0  0  0  0  0  0  0
   37.3710   31.0900   39.2160 C   0  0  1  0  0  0  0  0  0  0  0  0
   36.4140   33.0450   39.0620 H   0  0  0  0  0  0  0  0  0  0  0  0
   35.9970   31.4470   40.9290 H   0  0  0  0  0  0  0  0  0  0  0  0
   37.7740   31.5470   41.4270 H   0  0  0  0  0  0  0  0  0  0  0  0
   38.3050   30.5000   39.2940 H   0  0  0  0  0  0  0  0  0  0  0  0
   40.8180   33.5490   38.9300 C   0  0  0  0  0  0  0  0  0  0  0  0
   40.7620   34.7520   39.6250 C   0  0  0  0  0  0  0  0  0  0  0  0
   39.6470   35.2480   40.2630 C   0  0  0  0  0  0  0  0  0  0  0  0
   38.4900   34.4950   40.2100 C   0  0  0  0  0  0  0  0  0  0  0  0
   38.5660   33.3140   39.5230 C   0  0  0  0  0  0  0  0  0  0  0  0
   39.6630   32.8810   38.9260 N   0  0  0  0  0  0  0  0  0  0  0  0
   41.6620   35.3660   39.6810 H   0  0  0  0  0  0  0  0  0  0  0  0
   39.6550   36.1860   40.7870 H   0  0  0  0  0  0  0  0  0  0  0  0
   37.6040   34.8690   40.7050 H   0  0  0  0  0  0  0  0  0  0  0  0
   44.3270   33.0760   37.6460 C   0  0  0  0  0  0  0  0  0  0  0  0
   43.2670   33.6820   38.3550 C   0  0  0  0  0  0  0  0  0  0  0  0
   42.0290   33.0700   38.2670 C   0  0  0  0  0  0  0  0  0  0  0  0
   41.8920   31.9470   37.5260 N   0  0  0  0  0  0  0  0  0  0  0  0
   42.9480   31.3970   36.8570 C   0  0  0  0  0  0  0  0  0  0  0  0
   44.1430   31.9740   36.9310 N   0  0  0  0  0  0  0  0  0  0  0  0
   45.2620   33.6190   37.7680 H   0  0  0  0  0  0  0  0  0  0  0  0
   43.3400   34.5780   38.9570 H   0  0  0  0  0  0  0  0  0  0  0  0
   42.7650   30.5090   36.2900 H   0  0  0  0  0  0  0  0  0  0  0  0
   36.3110   30.4540   38.5500 O   0  0  0  0  0  0  0  0  0  0  0  0
   35.9850   28.8250   36.6130 O   0  0  0  0  0  0  0  0  0  0  0  0
   36.7380   28.9340   37.9420 P   0  0  1  0  0  0  0  0  0  0  0  0
   38.3740   28.8970   37.5690 O   0  0  0  0  0  0  0  0  0  0  0  0
   38.8830   28.2690   38.1420 H   0  0  0  0  0  0  0  0  0  0  0  0
   36.2290   27.6470   38.8760 O   0  0  0  0  0  0  0  0  0  0  0  0
   36.4440   27.4380   40.2180 C   0  0  0  0  0  0  0  0  0  0  0  0
   36.3560   28.2500   41.3240 C   0  0  0  0  0  0  0  0  0  0  0  0
   36.0570   29.2560   41.0710 H   0  0  0  0  0  0  0  0  0  0  0  0
   36.6240   27.8120   42.6010 C   0  0  0  0  0  3  0  0  0  0  0  0
   37.0020   26.5130   42.8450 C   0  0  0  0  0  3  0  0  0  0  0  0
   37.1000   25.6710   41.7490 C   0  0  0  0  0  0  0  0  0  0  0  0
   37.4840   24.3820   42.0590 C   0  0  0  0  0  3  0  0  0  0  0  0
   37.6080   23.4700   41.0330 C   0  0  0  0  0  3  0  0  0  0  0  0
   37.3530   23.8530   39.7400 C   0  0  0  0  0  3  0  0  0  0  0  0
   36.9780   25.1360   39.4930 C   0  0  0  0  0  3  0  0  0  0  0  0
   36.8280   26.1170   40.4530 C   0  0  0  0  0  0  0  0  0  0  0  0
  1  4  1  6  0  0  0
  1 12  1  0  0  0  0
  1  2  1  0  0  0  0
  2  5  1  0  0  0  0
  2  6  1  0  0  0  0
  3  7  1  6  0  0  0
  3  1  1  0  0  0  0
  3  2  1  0  0  0  0
  8  9  1  0  0  0  0
  9 14  1  0  0  0  0
  9 10  2  0  0  0  0
 10 15  1  0  0  0  0
 11 10  1  0  0  0  0
 11 16  1  0  0  0  0
 12 11  2  0  0  0  0
 13  8  2  0  0  0  0
 13 12  1  0  0  0  0
 17 23  1  0  0  0  0
 17 18  1  0  0  0  0
 18 24  1  0  0  0  0
 19 18  2  0  0  0  0
 19  8  1  0  0  0  0
 20 19  1  0  0  0  0
 21 22  1  0  0  0  0
 21 20  2  0  0  0  0
 22 17  2  0  0  0  0
 25 21  1  0  0  0  0
 26  3  1  0  0  0  0
 28 27  2  6  0  0  0
 28 26  1  0  0  0  0
 28 31  1  0  0  0  0
 29 28  1  0  0  0  0
 29 30  1  0  0  0  0
 31 32  1  0  0  0  0
 32 42  2  0  0  0  0
 32 33  1  0  0  0  0
 33 35  2  0  0  0  0
 34 33  1  0  0  0  0
 35 36  1  0  0  0  0
 37 38  1  0  0  0  0
 37 36  2  0  0  0  0
 39 38  2  0  0  0  0
 40 39  1  0  0  0  0
 41 40  2  0  0  0  0
 41 42  1  0  0  0  0
 42 37  1  0  0  0  0
M  END
>  <minimizedAffinity>
-6.74418116

$$$$

 OpenBabel03242521093D

 42 46  0  0  1  0  0  0  0  0999 V2000
   37.1160   27.8010   42.8870 C   0  0  2  0  0  0  0  0  0  0  0  0
   36.8200   28.1350   44.2990 C   0  0  0  0  0  0  0  0  0  0  0  0
   38.2510   27.9920   43.7700 C   0  0  1  0  0  0  0  0  0  0  0  0
   36.9160   26.7210   42.6020 H   0  0  0  0  0  0  0  0  0  0  0  0
   36.5120   27.3240   44.9870 H   0  0  0  0  0  0  0  0  0  0  0  0
   36.3970   29.1100   44.5270 H   0  0  0  0  0  0  0  0  0  0  0  0
   38.7460   28.9730   43.8990 H   0  0  0  0  0  0  0  0  0  0  0  0
   37.3020   30.8220   40.7870 C   0  0  0  0  0  0  0  0  0  0  0  0
   36.1640   30.5810   40.0240 C   0  0  0  0  0  0  0  0  0  0  0  0
   35.3400   29.4860   40.1530 C   0  0  0  0  0  0  0  0  0  0  0  0
   35.6640   28.5490   41.1160 C   0  0  0  0  0  0  0  0  0  0  0  0
   36.7860   28.8040   41.8570 C   0  0  0  0  0  0  0  0  0  0  0  0
   37.5470   29.8740   41.6940 N   0  0  0  0  0  0  0  0  0  0  0  0
   35.8860   31.3050   39.2570 H   0  0  0  0  0  0  0  0  0  0  0  0
   34.4710   29.3450   39.5380 H   0  0  0  0  0  0  0  0  0  0  0  0
   35.0280   27.6820   41.2320 H   0  0  0  0  0  0  0  0  0  0  0  0
   38.6500   34.2600   40.0520 C   0  0  0  0  0  0  0  0  0  0  0  0
   37.6900   33.2320   40.1670 C   0  0  0  0  0  0  0  0  0  0  0  0
   38.1450   32.0020   40.6060 C   0  0  0  0  0  0  0  0  0  0  0  0
   39.4560   31.8410   40.8980 N   0  0  0  0  0  0  0  0  0  0  0  0
   40.3490   32.8660   40.7700 C   0  0  0  0  0  0  0  0  0  0  0  0
   39.9270   34.0550   40.3500 N   0  0  0  0  0  0  0  0  0  0  0  0
   38.2110   35.1920   39.7030 H   0  0  0  0  0  0  0  0  0  0  0  0
   36.6360   33.3240   39.9440 H   0  0  0  0  0  0  0  0  0  0  0  0
   41.3690   32.6660   41.0180 H   0  0  0  0  0  0  0  0  0  0  0  0
   38.9670   26.8880   44.2620 O   0  0  0  0  0  0  0  0  0  0  0  0
   40.8630   28.0170   42.9790 O   0  0  0  0  0  0  0  0  0  0  0  0
   40.4130   26.6210   43.4240 P   0  0  1  0  0  0  0  0  0  0  0  0
   41.5930   26.0500   44.4720 O   0  0  0  0  0  0  0  0  0  0  0  0
   41.8720   25.1230   44.2640 H   0  0  0  0  0  0  0  0  0  0  0  0
   40.2500   25.7150   42.0320 O   0  0  0  0  0  0  0  0  0  0  0  0
   39.0960   25.2140   41.4790 C   0  0  0  0  0  0  0  0  0  0  0  0
   38.2920   24.1410   41.7870 C   0  0  0  0  0  0  0  0  0  0  0  0
   38.6550   23.5880   42.6390 H   0  0  0  0  0  0  0  0  0  0  0  0
   37.1570   23.8240   41.0760 C   0  0  0  0  0  3  0  0  0  0  0  0
   36.7570   24.5780   39.9970 C   0  0  0  0  0  3  0  0  0  0  0  0
   37.5480   25.6650   39.6620 C   0  0  0  0  0  0  0  0  0  0  0  0
   37.0950   26.3800   38.5720 C   0  0  0  0  0  3  0  0  0  0  0  0
   37.8160   27.4810   38.1640 C   0  0  0  0  0  3  0  0  0  0  0  0
   38.9570   27.8420   38.8370 C   0  0  0  0  0  3  0  0  0  0  0  0
   39.3550   27.1010   39.9050 C   0  0  0  0  0  3  0  0  0  0  0  0
   38.7000   25.9850   40.3860 C   0  0  0  0  0  0  0  0  0  0  0  0
  1  4  1  6  0  0  0
  1  3  1  0  0  0  0
  1  2  1  0  0  0  0
  2  6  1  0  0  0  0
  2  5  1  0  0  0  0
  3  7  1  6  0  0  0
  3 26  1  0  0  0  0
  3  2  1  0  0  0  0
  8 13  1  0  0  0  0
  9 10  1  0  0  0  0
  9  8  2  0  0  0  0
 10 11  2  0  0  0  0
 11 16  1  0  0  0  0
 11 12  1  0  0  0  0
 12  1  1  0  0  0  0
 13 12  2  0  0  0  0
 14  9  1  0  0  0  0
 15 10  1  0  0  0  0
 17 18  2  0  0  0  0
 17 22  1  0  0  0  0
 18 19  1  0  0  0  0
 19  8  1  0  0  0  0
 19 20  2  0  0  0  0
 21 20  1  0  0  0  0
 21 25  1  0  0  0  0
 22 21  2  0  0  0  0
 23 17  1  0  0  0  0
 24 18  1  0  0  0  0
 28 27  2  6  0  0  0
 28 26  1  0  0  0  0
 28 29  1  0  0  0  0
 30 29  1  0  0  0  0
 31 28  1  0  0  0  0
 32 33  1  0  0  0  0
 32 31  1  0  0  0  0
 33 34  1  0  0  0  0
 35 33  2  0  0  0  0
 36 35  1  0  0  0  0
 37 36  2  0  0  0  0
 37 42  1  0  0  0  0
 38 37  1  0  0  0  0
 39 38  2  0  0  0  0
 39 40  1  0  0  0  0
 40 41  2  0  0  0  0
 41 42  1  0  0  0  0
 42 32  2  0  0  0  0
M  END
>  <minimizedAffinity>
-6.6041317

$$$$

 OpenBabel03242521093D

 42 46  0  0  1  0  0  0  0  0999 V2000
   37.1760   27.8160   42.8340 C   0  0  2  0  0  0  0  0  0  0  0  0
   36.8670   28.1190   44.2500 C   0  0  0  0  0  0  0  0  0  0  0  0
   38.3030   27.9990   43.7280 C   0  0  1  0  0  0  0  0  0  0  0  0
   36.9890   26.7400   42.5260 H   0  0  0  0  0  0  0  0  0  0  0  0
   36.5620   27.2920   44.9190 H   0  0  0  0  0  0  0  0  0  0  0  0
   36.4340   29.0860   44.4940 H   0  0  0  0  0  0  0  0  0  0  0  0
   38.7880   28.9830   43.8800 H   0  0  0  0  0  0  0  0  0  0  0  0
   37.3740   30.8570   40.7650 C   0  0  0  0  0  0  0  0  0  0  0  0
   36.2190   30.6440   40.0200 C   0  0  0  0  0  0  0  0  0  0  0  0
   35.3790   29.5610   40.1520 C   0  0  0  0  0  0  0  0  0  0  0  0
   35.7060   28.6080   41.0980 C   0  0  0  0  0  0  0  0  0  0  0  0
   36.8440   28.8360   41.8210 C   0  0  0  0  0  0  0  0  0  0  0  0
   37.6190   29.8950   41.6560 N   0  0  0  0  0  0  0  0  0  0  0  0
   35.9390   31.3810   39.2660 H   0  0  0  0  0  0  0  0  0  0  0  0
   34.4970   29.4410   39.5500 H   0  0  0  0  0  0  0  0  0  0  0  0
   35.0570   27.7500   41.2150 H   0  0  0  0  0  0  0  0  0  0  0  0
   40.2740   33.2460   40.5180 C   0  0  0  0  0  0  0  0  0  0  0  0
   39.6070   32.0220   40.7370 C   0  0  0  0  0  0  0  0  0  0  0  0
   38.2320   32.0250   40.5810 C   0  0  0  0  0  0  0  0  0  0  0  0
   37.6030   33.1720   40.2350 N   0  0  0  0  0  0  0  0  0  0  0  0
   38.2930   34.3340   40.0340 C   0  0  0  0  0  0  0  0  0  0  0  0
   39.6140   34.3460   40.1800 N   0  0  0  0  0  0  0  0  0  0  0  0
   41.3490   33.1560   40.6610 H   0  0  0  0  0  0  0  0  0  0  0  0
   40.0760   31.0870   41.0140 H   0  0  0  0  0  0  0  0  0  0  0  0
   37.7300   35.2010   39.7620 H   0  0  0  0  0  0  0  0  0  0  0  0
   39.0260   26.8920   44.2030 O   0  0  0  0  0  0  0  0  0  0  0  0
   41.0360   28.1590   43.2710 O   0  0  0  0  0  0  0  0  0  0  0  0
   40.5320   26.7240   43.4510 P   0  0  1  0  0  0  0  0  0  0  0  0
   41.6140   25.9630   44.4830 O   0  0  0  0  0  0  0  0  0  0  0  0
   41.8970   25.0730   44.1520 H   0  0  0  0  0  0  0  0  0  0  0  0
   40.4710   26.0540   41.9230 O   0  0  0  0  0  0  0  0  0  0  0  0
   39.7660   26.5010   40.8310 C   0  0  0  0  0  0  0  0  0  0  0  0
   39.9520   27.5390   39.9490 C   0  0  0  0  0  0  0  0  0  0  0  0
   40.8370   28.1140   40.1730 H   0  0  0  0  0  0  0  0  0  0  0  0
   39.0940   27.8020   38.9040 C   0  0  0  0  0  3  0  0  0  0  0  0
   37.9810   27.0240   38.6830 C   0  0  0  0  0  3  0  0  0  0  0  0
   37.7670   25.9700   39.5570 C   0  0  0  0  0  0  0  0  0  0  0  0
   36.6360   25.2290   39.2820 C   0  0  0  0  0  3  0  0  0  0  0  0
   36.3390   24.1580   40.0970 C   0  0  0  0  0  3  0  0  0  0  0  0
   37.1610   23.8520   41.1530 C   0  0  0  0  0  3  0  0  0  0  0  0
   38.2630   24.6160   41.3760 C   0  0  0  0  0  3  0  0  0  0  0  0
   38.6400   25.7050   40.6160 C   0  0  0  0  0  0  0  0  0  0  0  0
  1  4  1  6  0  0  0
  1  3  1  0  0  0  0
  1  2  1  0  0  0  0
  2  6  1  0  0  0  0
  2  5  1  0  0  0  0
  3  7  1  6  0  0  0
  3 26  1  0  0  0  0
  3  2  1  0  0  0  0
  8 13  1  0  0  0  0
  9 10  1  0  0  0  0
  9  8  2  0  0  0  0
 10 11  2  0  0  0  0
 11 16  1  0  0  0  0
 11 12  1  0  0  0  0
 12  1  1  0  0  0  0
 13 12  2  0  0  0  0
 14  9  1  0  0  0  0
 15 10  1  0  0  0  0
 17 23  1  0  0  0  0
 17 18  1  0  0  0  0
 18 24  1  0  0  0  0
 19 18  2  0  0  0  0
 19  8  1  0  0  0  0
 20 19  1  0  0  0  0
 21 22  1  0  0  0  0
 21 20  2  0  0  0  0
 22 17  2  0  0  0  0
 25 21  1  0  0  0  0
 28 27  2  6  0  0  0
 28 26  1  0  0  0  0
 28 29  1  0  0  0  0
 30 29  1  0  0  0  0
 31 28  1  0  0  0  0
 32 31  1  0  0  0  0
 33 34  1  0  0  0  0
 33 32  2  0  0  0  0
 35 33  1  0  0  0  0
 36 35  2  0  0  0  0
 36 37  1  0  0  0  0
 37 42  1  0  0  0  0
 38 37  2  0  0  0  0
 38 39  1  0  0  0  0
 39 40  2  0  0  0  0
 40 41  1  0  0  0  0
 42 32  1  0  0  0  0
 42 41  2  0  0  0  0
M  END
>  <minimizedAffinity>
-6.59409094

$$$$

 OpenBabel03242521093D

 42 46  0  0  1  0  0  0  0  0999 V2000
   37.3800   32.5230   39.2570 C   0  0  2  0  0  0  0  0  0  0  0  0
   36.9000   31.6860   40.3800 C   0  0  0  0  0  0  0  0  0  0  0  0
   37.4960   31.0850   39.1020 C   0  0  1  0  0  0  0  0  0  0  0  0
   36.5600   33.0000   38.6350 H   0  0  0  0  0  0  0  0  0  0  0  0
   35.8120   31.5140   40.4920 H   0  0  0  0  0  0  0  0  0  0  0  0
   37.4580   31.6940   41.3130 H   0  0  0  0  0  0  0  0  0  0  0  0
   38.4050   30.5270   39.3980 H   0  0  0  0  0  0  0  0  0  0  0  0
   40.8750   33.6850   39.1720 C   0  0  0  0  0  0  0  0  0  0  0  0
   40.6950   34.8520   39.9060 C   0  0  0  0  0  0  0  0  0  0  0  0
   39.4950   35.2850   40.4260 C   0  0  0  0  0  0  0  0  0  0  0  0
   38.3800   34.5000   40.2030 C   0  0  0  0  0  0  0  0  0  0  0  0
   38.5780   33.3560   39.4800 C   0  0  0  0  0  0  0  0  0  0  0  0
   39.7530   32.9830   39.0010 N   0  0  0  0  0  0  0  0  0  0  0  0
   41.5600   35.4890   40.0960 H   0  0  0  0  0  0  0  0  0  0  0  0
   39.4080   36.1960   40.9880 H   0  0  0  0  0  0  0  0  0  0  0  0
   37.4290   34.8240   40.6040 H   0  0  0  0  0  0  0  0  0  0  0  0
   43.7470   31.8200   37.6050 C   0  0  0  0  0  0  0  0  0  0  0  0
   42.4320   32.0420   38.0670 C   0  0  0  0  0  0  0  0  0  0  0  0
   42.1720   33.2740   38.6390 C   0  0  0  0  0  0  0  0  0  0  0  0
   43.1650   34.1900   38.7290 N   0  0  0  0  0  0  0  0  0  0  0  0
   44.4230   33.9290   38.2680 C   0  0  0  0  0  0  0  0  0  0  0  0
   44.6880   32.7490   37.7160 N   0  0  0  0  0  0  0  0  0  0  0  0
   43.8650   30.8300   37.1710 H   0  0  0  0  0  0  0  0  0  0  0  0
   41.6150   31.3350   38.0110 H   0  0  0  0  0  0  0  0  0  0  0  0
   45.1570   34.6990   38.3730 H   0  0  0  0  0  0  0  0  0  0  0  0
   36.5940   30.3790   38.2900 O   0  0  0  0  0  0  0  0  0  0  0  0
   35.9590   28.0450   37.4750 O   0  0  0  0  0  0  0  0  0  0  0  0
   37.2040   28.8860   37.7790 P   0  0  1  0  0  0  0  0  0  0  0  0
   38.0270   29.0630   36.3280 O   0  0  0  0  0  0  0  0  0  0  0  0
   38.9960   28.8770   36.4130 H   0  0  0  0  0  0  0  0  0  0  0  0
   38.0590   28.0520   38.9440 O   0  0  0  0  0  0  0  0  0  0  0  0
   37.6650   26.9400   39.6500 C   0  0  0  0  0  0  0  0  0  0  0  0
   37.4240   25.6340   39.2940 C   0  0  0  0  0  0  0  0  0  0  0  0
   37.5790   25.4620   38.2400 H   0  0  0  0  0  0  0  0  0  0  0  0
   37.0280   24.6700   40.1930 C   0  0  0  0  0  3  0  0  0  0  0  0
   36.8490   24.9680   41.5240 C   0  0  0  0  0  3  0  0  0  0  0  0
   37.0830   26.2770   41.9130 C   0  0  0  0  0  0  0  0  0  0  0  0
   36.8850   26.5110   43.2580 C   0  0  0  0  0  3  0  0  0  0  0  0
   37.0950   27.7850   43.7400 C   0  0  0  0  0  3  0  0  0  0  0  0
   37.4910   28.7840   42.8860 C   0  0  0  0  0  3  0  0  0  0  0  0
   37.6710   28.4960   41.5710 C   0  0  0  0  0  3  0  0  0  0  0  0
   37.4850   27.2540   40.9980 C   0  0  0  0  0  0  0  0  0  0  0  0
  1  4  1  6  0  0  0
  1 12  1  0  0  0  0
  1  2  1  0  0  0  0
  2  5  1  0  0  0  0
  2  6  1  0  0  0  0
  3  1  1  0  0  0  0
  3  7  1  1  0  0  0
  3  2  1  0  0  0  0
  8  9  1  0  0  0  0
  9 14  1  0  0  0  0
  9 10  2  0  0  0  0
 10 15  1  0  0  0  0
 11 10  1  0  0  0  0
 11 16  1  0  0  0  0
 12 11  2  0  0  0  0
 13  8  2  0  0  0  0
 13 12  1  0  0  0  0
 17 22  2  0  0  0  0
 17 18  1  0  0  0  0
 18 19  2  0  0  0  0
 19 20  1  0  0  0  0
 19  8  1  0  0  0  0
 21 25  1  0  0  0  0
 21 20  2  0  0  0  0
 22 21  1  0  0  0  0
 23 17  1  0  0  0  0
 24 18  1  0  0  0  0
 26  3  1  0  0  0  0
 28 27  2  6  0  0  0
 28 26  1  0  0  0  0
 28 31  1  0  0  0  0
 29 30  1  0  0  0  0
 29 28  1  0  0  0  0
 31 32  1  0  0  0  0
 32 42  1  0  0  0  0
 33 32  2  0  0  0  0
 33 35  1  0  0  0  0
 34 33  1  0  0  0  0
 35 36  2  0  0  0  0
 36 37  1  0  0  0  0
 37 38  1  0  0  0  0
 38 39  2  0  0  0  0
 40 39  1  0  0  0  0
 41 40  2  0  0  0  0
 42 41  1  0  0  0  0
 42 37  2  0  0  0  0
M  END
>  <minimizedAffinity>
-6.56364059

$$$$

 OpenBabel03242521093D

 42 46  0  0  1  0  0  0  0  0999 V2000
   37.8640   26.9410   39.0340 C   0  0  2  0  0  0  0  0  0  0  0  0
   37.3030   26.2880   37.8290 C   0  0  0  0  0  0  0  0  0  0  0  0
   37.2460   25.6420   39.2170 C   0  0  1  0  0  0  0  0  0  0  0  0
   38.9970   26.9370   39.0930 H   0  0  0  0  0  0  0  0  0  0  0  0
   37.9920   25.7820   37.1250 H   0  0  0  0  0  0  0  0  0  0  0  0
   36.4160   26.7160   37.3690 H   0  0  0  0  0  0  0  0  0  0  0  0
   36.1770   25.5230   39.4780 H   0  0  0  0  0  0  0  0  0  0  0  0
   37.3410   30.4420   40.0540 C   0  0  0  0  0  0  0  0  0  0  0  0
   36.0040   30.3250   40.4210 C   0  0  0  0  0  0  0  0  0  0  0  0
   35.2610   29.1670   40.3510 C   0  0  0  0  0  0  0  0  0  0  0  0
   35.8890   28.0290   39.8810 C   0  0  0  0  0  0  0  0  0  0  0  0
   37.2040   28.1650   39.5260 C   0  0  0  0  0  0  0  0  0  0  0  0
   37.8750   29.3020   39.6110 N   0  0  0  0  0  0  0  0  0  0  0  0
   35.4860   31.2080   40.7950 H   0  0  0  0  0  0  0  0  0  0  0  0
   34.2290   29.1280   40.6470 H   0  0  0  0  0  0  0  0  0  0  0  0
   35.3210   27.1110   39.8190 H   0  0  0  0  0  0  0  0  0  0  0  0
   38.3930   34.0570   40.1120 C   0  0  0  0  0  0  0  0  0  0  0  0
   37.5220   32.9530   39.9910 C   0  0  0  0  0  0  0  0  0  0  0  0
   38.0820   31.6980   40.1450 C   0  0  0  0  0  0  0  0  0  0  0  0
   39.4060   31.5850   40.3990 N   0  0  0  0  0  0  0  0  0  0  0  0
   40.2100   32.6830   40.5080 C   0  0  0  0  0  0  0  0  0  0  0  0
   39.6870   33.8960   40.3620 N   0  0  0  0  0  0  0  0  0  0  0  0
   37.8750   35.0030   39.9780 H   0  0  0  0  0  0  0  0  0  0  0  0
   36.4610   33.0060   39.7890 H   0  0  0  0  0  0  0  0  0  0  0  0
   41.2470   32.5180   40.7100 H   0  0  0  0  0  0  0  0  0  0  0  0
   38.0360   24.4910   39.3780 O   0  0  0  0  0  0  0  0  0  0  0  0
   36.3330   23.9620   41.2040 O   0  0  0  0  0  0  0  0  0  0  0  0
   37.8170   23.7540   40.8850 P   0  0  1  0  0  0  0  0  0  0  0  0
   38.0500   22.0960   40.7590 O   0  0  0  0  0  0  0  0  0  0  0  0
   38.8400   21.7820   41.2680 H   0  0  0  0  0  0  0  0  0  0  0  0
   38.6680   24.4630   42.1340 O   0  0  0  0  0  0  0  0  0  0  0  0
   39.5050   25.5520   42.0760 C   0  0  0  0  0  0  0  0  0  0  0  0
   40.8030   25.7220   41.6560 C   0  0  0  0  0  0  0  0  0  0  0  0
   41.2440   24.8020   41.3040 H   0  0  0  0  0  0  0  0  0  0  0  0
   41.4520   26.9360   41.6910 C   0  0  0  0  0  3  0  0  0  0  0  0
   40.8230   28.0670   42.1560 C   0  0  0  0  0  3  0  0  0  0  0  0
   39.5140   27.9260   42.5870 C   0  0  0  0  0  0  0  0  0  0  0  0
   38.9400   29.0960   43.0420 C   0  0  0  0  0  3  0  0  0  0  0  0
   37.6370   29.0560   43.4910 C   0  0  0  0  0  3  0  0  0  0  0  0
   36.9440   27.8710   43.4780 C   0  0  0  0  0  3  0  0  0  0  0  0
   37.5600   26.7500   43.0180 C   0  0  0  0  0  3  0  0  0  0  0  0
   38.8570   26.6930   42.5510 C   0  0  0  0  0  0  0  0  0  0  0  0
  1  4  1  1  0  0  0
  1  3  1  0  0  0  0
  1 12  1  0  0  0  0
  2  1  1  0  0  0  0
  2  3  1  0  0  0  0
  3 26  1  0  0  0  0
  3  7  1  1  0  0  0
  5  2  1  0  0  0  0
  6  2  1  0  0  0  0
  8 19  1  0  0  0  0
  8  9  1  0  0  0  0
  9 14  1  0  0  0  0
 10  9  2  0  0  0  0
 10 15  1  0  0  0  0
 11 10  1  0  0  0  0
 12 13  1  0  0  0  0
 12 11  2  0  0  0  0
 13  8  2  0  0  0  0
 16 11  1  0  0  0  0
 17 22  1  0  0  0  0
 18 17  2  0  0  0  0
 18 19  1  0  0  0  0
 19 20  2  0  0  0  0
 20 21  1  0  0  0  0
 21 25  1  0  0  0  0
 22 21  2  0  0  0  0
 23 17  1  0  0  0  0
 24 18  1  0  0  0  0
 26 28  1  0  0  0  0
 28 27  2  1  0  0  0
 28 31  1  0  0  0  0
 29 28  1  0  0  0  0
 29 30  1  0  0  0  0
 32 31  1  0  0  0  0
 32 42  1  0  0  0  0
 33 35  1  0  0  0  0
 33 32  2  0  0  0  0
 34 33  1  0  0  0  0
 35 36  2  0  0  0  0
 36 37  1  0  0  0  0
 37 38  1  0  0  0  0
 38 39  2  0  0  0  0
 40 39  1  0  0  0  0
 41 40  2  0  0  0  0
 42 37  2  0  0  0  0
 42 41  1  0  0  0  0
M  END
>  <minimizedAffinity>
-6.47369099

$$$$

 OpenBabel03242521093D

 42 46  0  0  1  0  0  0  0  0999 V2000
   37.8050   27.2420   39.0280 C   0  0  2  0  0  0  0  0  0  0  0  0
   37.0910   26.5990   37.9010 C   0  0  0  0  0  0  0  0  0  0  0  0
   37.1350   25.9870   39.3050 C   0  0  1  0  0  0  0  0  0  0  0  0
   38.9360   27.1720   38.9760 H   0  0  0  0  0  0  0  0  0  0  0  0
   37.6760   26.0380   37.1480 H   0  0  0  0  0  0  0  0  0  0  0  0
   36.1880   27.0700   37.5190 H   0  0  0  0  0  0  0  0  0  0  0  0
   36.0910   25.9370   39.6720 H   0  0  0  0  0  0  0  0  0  0  0  0
   37.6020   30.7790   40.0400 C   0  0  0  0  0  0  0  0  0  0  0  0
   36.2880   30.7600   40.4980 C   0  0  0  0  0  0  0  0  0  0  0  0
   35.4630   29.6580   40.4920 C   0  0  0  0  0  0  0  0  0  0  0  0
   35.9750   28.4750   39.9930 C   0  0  0  0  0  0  0  0  0  0  0  0
   37.2690   28.5140   39.5500 C   0  0  0  0  0  0  0  0  0  0  0  0
   38.0220   29.6000   39.5760 N   0  0  0  0  0  0  0  0  0  0  0  0
   35.8610   31.6810   40.8960 H   0  0  0  0  0  0  0  0  0  0  0  0
   34.4530   29.6950   40.8570 H   0  0  0  0  0  0  0  0  0  0  0  0
   35.3400   27.5990   39.9810 H   0  0  0  0  0  0  0  0  0  0  0  0
   40.4570   33.2330   40.0920 C   0  0  0  0  0  0  0  0  0  0  0  0
   39.8180   31.9750   40.0660 C   0  0  0  0  0  0  0  0  0  0  0  0
   38.4350   31.9790   40.0660 C   0  0  0  0  0  0  0  0  0  0  0  0
   37.7710   33.1580   40.0910 N   0  0  0  0  0  0  0  0  0  0  0  0
   38.4330   34.3510   40.1170 C   0  0  0  0  0  0  0  0  0  0  0  0
   39.7630   34.3650   40.1170 N   0  0  0  0  0  0  0  0  0  0  0  0
   41.5410   33.1410   40.0900 H   0  0  0  0  0  0  0  0  0  0  0  0
   40.3150   31.0150   40.0450 H   0  0  0  0  0  0  0  0  0  0  0  0
   37.8440   35.2430   40.1370 H   0  0  0  0  0  0  0  0  0  0  0  0
   37.8690   24.7940   39.4200 O   0  0  0  0  0  0  0  0  0  0  0  0
   36.2000   24.0390   41.1970 O   0  0  0  0  0  0  0  0  0  0  0  0
   37.7110   24.0720   40.9410 P   0  0  1  0  0  0  0  0  0  0  0  0
   38.2200   22.4750   40.8810 O   0  0  0  0  0  0  0  0  0  0  0  0
   39.0290   22.3100   41.4290 H   0  0  0  0  0  0  0  0  0  0  0  0
   38.3790   24.9470   42.1960 O   0  0  0  0  0  0  0  0  0  0  0  0
   38.0000   26.1840   42.6600 C   0  0  0  0  0  0  0  0  0  0  0  0
   36.8470   26.6610   43.2400 C   0  0  0  0  0  0  0  0  0  0  0  0
   36.0940   25.8950   43.3450 H   0  0  0  0  0  0  0  0  0  0  0  0
   36.6900   27.9710   43.6350 C   0  0  0  0  0  3  0  0  0  0  0  0
   37.6980   28.8910   43.4670 C   0  0  0  0  0  3  0  0  0  0  0  0
   38.8710   28.4400   42.8840 C   0  0  0  0  0  0  0  0  0  0  0  0
   39.8420   29.4110   42.7420 C   0  0  0  0  0  3  0  0  0  0  0  0
   41.0460   29.0570   42.1720 C   0  0  0  0  0  3  0  0  0  0  0  0
   41.2550   27.7640   41.7610 C   0  0  0  0  0  3  0  0  0  0  0  0
   40.2640   26.8500   41.9260 C   0  0  0  0  0  3  0  0  0  0  0  0
   39.0280   27.1110   42.4840 C   0  0  0  0  0  0  0  0  0  0  0  0
  1  4  1  6  0  0  0
  1  3  1  0  0  0  0
  1 12  1  0  0  0  0
  2  1  1  0  0  0  0
  2  3  1  0  0  0  0
  3 26  1  0  0  0  0
  3  7  1  1  0  0  0
  5  2  1  0  0  0  0
  6  2  1  0  0  0  0
  8 19  1  0  0  0  0
  8  9  1  0  0  0  0
  9 14  1  0  0  0  0
 10  9  2  0  0  0  0
 10 15  1  0  0  0  0
 11 10  1  0  0  0  0
 12 13  1  0  0  0  0
 12 11  2  0  0  0  0
 13  8  2  0  0  0  0
 16 11  1  0  0  0  0
 17 22  1  0  0  0  0
 18 19  1  0  0  0  0
 18 17  2  0  0  0  0
 19 20  2  0  0  0  0
 20 21  1  0  0  0  0
 21 25  1  0  0  0  0
 22 21  2  0  0  0  0
 23 17  1  0  0  0  0
 24 18  1  0  0  0  0
 26 28  1  0  0  0  0
 28 27  2  1  0  0  0
 28 31  1  0  0  0  0
 29 28  1  0  0  0  0
 29 30  1  0  0  0  0
 31 32  1  0  0  0  0
 32 33  1  0  0  0  0
 33 34  1  0  0  0  0
 33 35  2  0  0  0  0
 36 35  1  0  0  0  0
 37 36  2  0  0  0  0
 38 37  1  0  0  0  0
 39 38  2  0  0  0  0
 40 41  2  0  0  0  0
 40 39  1  0  0  0  0
 41 42  1  0  0  0  0
 42 32  2  0  0  0  0
 42 37  1  0  0  0  0
M  END
>  <minimizedAffinity>
-6.42845106

$$$$

 OpenBabel03242521093D

 42 46  0  0  1  0  0  0  0  0999 V2000
   37.1130   30.2450   37.7660 C   0  0  2  0  0  0  0  0  0  0  0  0
   37.5080   31.1660   36.6750 C   0  0  0  0  0  0  0  0  0  0  0  0
   38.3020   31.0470   37.9810 C   0  0  1  0  0  0  0  0  0  0  0  0
   36.2070   30.5750   38.3630 H   0  0  0  0  0  0  0  0  0  0  0  0
   36.9670   32.1260   36.5650 H   0  0  0  0  0  0  0  0  0  0  0  0
   37.8830   30.7450   35.7460 H   0  0  0  0  0  0  0  0  0  0  0  0
   39.3160   30.6920   37.7140 H   0  0  0  0  0  0  0  0  0  0  0  0
   37.5100   26.6310   38.3610 C   0  0  0  0  0  0  0  0  0  0  0  0
   37.4170   26.2190   37.0360 C   0  0  0  0  0  0  0  0  0  0  0  0
   37.2280   27.0540   35.9570 C   0  0  0  0  0  0  0  0  0  0  0  0
   37.1230   28.4090   36.2060 C   0  0  0  0  0  0  0  0  0  0  0  0
   37.2180   28.7950   37.5150 C   0  0  0  0  0  0  0  0  0  0  0  0
   37.4000   27.9520   38.5180 N   0  0  0  0  0  0  0  0  0  0  0  0
   37.4970   25.1540   36.8130 H   0  0  0  0  0  0  0  0  0  0  0  0
   37.1620   26.6860   34.9500 H   0  0  0  0  0  0  0  0  0  0  0  0
   36.9750   29.0800   35.3700 H   0  0  0  0  0  0  0  0  0  0  0  0
   38.9330   24.4800   41.1050 C   0  0  0  0  0  0  0  0  0  0  0  0
   38.9340   25.4050   40.0380 C   0  0  0  0  0  0  0  0  0  0  0  0
   37.7080   25.7010   39.4700 C   0  0  0  0  0  0  0  0  0  0  0  0
   36.5900   25.1070   39.9490 N   0  0  0  0  0  0  0  0  0  0  0  0
   36.6390   24.2180   40.9830 C   0  0  0  0  0  0  0  0  0  0  0  0
   37.8100   23.9230   41.5400 N   0  0  0  0  0  0  0  0  0  0  0  0
   39.9340   24.3040   41.4930 H   0  0  0  0  0  0  0  0  0  0  0  0
   39.8050   25.8980   39.6310 H   0  0  0  0  0  0  0  0  0  0  0  0
   35.7170   23.7870   41.3090 H   0  0  0  0  0  0  0  0  0  0  0  0
   38.2610   32.1760   38.8160 O   0  0  0  0  0  0  0  0  0  0  0  0
   38.7780   32.8610   41.2200 O   0  0  0  0  0  0  0  0  0  0  0  0
   38.0220   31.7770   40.4430 P   0  0  1  0  0  0  0  0  0  0  0  0
   36.4020   31.9400   40.8490 O   0  0  0  0  0  0  0  0  0  0  0  0
   35.9780   31.0750   41.0820 H   0  0  0  0  0  0  0  0  0  0  0  0
   38.6910   30.3190   40.9030 O   0  0  0  0  0  0  0  0  0  0  0  0
   38.0980   29.3040   41.6160 C   0  0  0  0  0  0  0  0  0  0  0  0
   36.7990   28.8660   41.7300 C   0  0  0  0  0  0  0  0  0  0  0  0
   36.1160   29.4510   41.1330 H   0  0  0  0  0  0  0  0  0  0  0  0
   36.4310   27.8020   42.5220 C   0  0  0  0  0  3  0  0  0  0  0  0
   37.3620   27.1060   43.2580 C   0  0  0  0  0  3  0  0  0  0  0  0
   38.6790   27.5250   43.1630 C   0  0  0  0  0  0  0  0  0  0  0  0
   39.5630   26.7860   43.9240 C   0  0  0  0  0  3  0  0  0  0  0  0
   40.8980   27.1270   43.8950 C   0  0  0  0  0  3  0  0  0  0  0  0
   41.3190   28.1800   43.1210 C   0  0  0  0  0  3  0  0  0  0  0  0
   40.4040   28.8710   42.3910 C   0  0  0  0  0  3  0  0  0  0  0  0
   39.0500   28.6050   42.3580 C   0  0  0  0  0  0  0  0  0  0  0  0
  1  3  1  0  0  0  0
  1  4  1  1  0  0  0
  2  1  1  0  0  0  0
  2  3  1  0  0  0  0
  3  7  1  6  0  0  0
  3 26  1  0  0  0  0
  5  2  1  0  0  0  0
  6  2  1  0  0  0  0
  8 13  1  0  0  0  0
  8 19  1  0  0  0  0
  9  8  2  0  0  0  0
 10 11  2  0  0  0  0
 10  9  1  0  0  0  0
 11 12  1  0  0  0  0
 12  1  1  0  0  0  0
 12 13  2  0  0  0  0
 14  9  1  0  0  0  0
 15 10  1  0  0  0  0
 16 11  1  0  0  0  0
 17 23  1  0  0  0  0
 17 22  1  0  0  0  0
 18 17  2  0  0  0  0
 19 20  2  0  0  0  0
 19 18  1  0  0  0  0
 20 21  1  0  0  0  0
 21 25  1  0  0  0  0
 21 22  2  0  0  0  0
 24 18  1  0  0  0  0
 26 28  1  0  0  0  0
 28 29  1  0  0  0  0
 28 31  1  0  0  0  0
 28 27  2  1  0  0  0
 29 30  1  0  0  0  0
 31 32  1  0  0  0  0
 32 33  2  0  0  0  0
 32 42  1  0  0  0  0
 33 35  1  0  0  0  0
 34 33  1  0  0  0  0
 35 36  2  0  0  0  0
 37 36  1  0  0  0  0
 37 38  1  0  0  0  0
 39 38  2  0  0  0  0
 40 39  1  0  0  0  0
 41 40  2  0  0  0  0
 42 41  1  0  0  0  0
 42 37  2  0  0  0  0
M  END
>  <minimizedAffinity>
-6.34732676

$$$$
