
 OpenBabel03252500253D

 39 42  0  0  1  0  0  0  0  0999 V2000
   48.2810   30.1320   48.4490 C   0  0  2  0  0  0  0  0  0  0  0  0
   46.8210   29.8950   48.4540 C   0  0  2  0  0  0  0  0  0  0  0  0
   46.6130   28.9860   47.2960 C   0  0  0  0  0  0  0  0  0  0  0  0
   47.7640   28.2360   47.1430 O   0  0  0  0  0  0  0  0  0  0  0  0
   48.7310   28.7430   47.9490 C   0  0  0  0  0  0  0  0  0  0  0  0
   48.8030   30.7840   47.8140 H   0  0  0  0  0  0  0  0  0  0  0  0
   46.5990   29.4440   49.4570 H   0  0  0  0  0  0  0  0  0  0  0  0
   46.1560   29.3940   46.4130 H   0  0  0  0  0  0  0  0  0  0  0  0
   45.8550   28.2260   47.6630 H   0  0  0  0  0  0  0  0  0  0  0  0
   48.7990   28.0500   48.8390 H   0  0  0  0  0  0  0  0  0  0  0  0
   49.7270   28.7540   47.5130 H   0  0  0  0  0  0  0  0  0  0  0  0
   46.0560   31.0370   48.3790 O   0  0  0  0  0  0  0  0  0  0  0  0
   47.7440   32.9280   47.9440 O   0  0  0  0  0  0  0  0  0  0  0  0
   46.7120   32.0760   47.2540 P   0  0  1  0  0  0  0  0  0  0  0  0
   47.4730   31.1770   46.0360 O   0  0  0  0  0  0  0  0  0  0  0  0
   46.9930   31.1850   45.1930 H   0  0  0  0  0  0  0  0  0  0  0  0
   45.5370   33.1190   46.5760 O   0  0  0  0  0  0  0  0  0  0  0  0
   45.0710   35.5340   43.9870 C   0  0  0  0  0  0  0  0  0  0  0  0
   46.0570   35.1970   43.0160 C   0  0  0  0  0  0  0  0  0  0  0  0
   46.8800   34.0930   43.3140 C   0  0  0  0  0  0  0  0  0  0  0  0
   46.6860   33.4390   44.4800 N   0  0  0  0  0  0  0  0  0  0  0  0
   45.7450   33.7920   45.3670 C   0  0  0  0  0  0  0  0  0  0  0  0
   44.9390   34.8400   45.1170 N   0  0  0  0  0  0  0  0  0  0  0  0
   46.2020   35.7210   42.0970 H   0  0  0  0  0  0  0  0  0  0  0  0
   47.6290   33.8200   42.5990 H   0  0  0  0  0  0  0  0  0  0  0  0
   44.2750   36.6000   43.6980 O   0  0  0  0  0  0  0  0  0  0  0  0
   43.2640   36.6330   43.8980 H   0  0  0  0  0  0  0  0  0  0  0  0
   48.7830   30.4210   49.7060 O   0  0  0  0  0  0  0  0  0  0  0  0
   49.9290   31.0380   50.0930 C   0  0  0  0  0  0  0  0  0  0  0  0
   50.4250   32.3070   49.8660 C   0  0  0  0  0  0  0  0  0  0  0  0
   49.7260   32.8980   49.2510 H   0  0  0  0  0  0  0  0  0  0  0  0
   51.6290   32.7490   50.3520 C   0  0  0  0  0  0  0  0  0  0  0  0
   52.4190   31.9140   51.1140 C   0  0  0  0  0  0  0  0  0  0  0  0
   51.9600   30.6380   51.3630 C   0  0  0  0  0  0  0  0  0  0  0  0
   52.8050   29.8640   52.1310 C   0  0  0  0  0  0  0  0  0  0  0  0
   52.4210   28.5730   52.4270 C   0  0  0  0  0  0  0  0  0  0  0  0
   51.2280   28.0960   51.9600 C   0  0  0  0  0  0  0  0  0  0  0  0
   50.4280   28.8990   51.2060 C   0  0  0  0  0  0  0  0  0  0  0  0
   50.7430   30.1990   50.8690 C   0  0  0  0  0  0  0  0  0  0  0  0
  1  6  1  6  0  0  0
  1  2  1  0  0  0  0
  1 28  1  0  0  0  0
  2  7  1  1  0  0  0
  3  9  1  0  0  0  0
  3  2  1  0  0  0  0
  4  3  1  0  0  0  0
  4  5  1  0  0  0  0
  5  1  1  0  0  0  0
  5 10  1  0  0  0  0
  8  3  1  0  0  0  0
 11  5  1  0  0  0  0
 12  2  1  0  0  0  0
 14 13  2  1  0  0  0
 14 12  1  0  0  0  0
 15 14  1  0  0  0  0
 16 15  1  0  0  0  0
 17 14  1  0  0  0  0
 18 23  1  0  0  0  0
 19 20  1  0  0  0  0
 19 18  2  0  0  0  0
 20 21  2  0  0  0  0
 21 22  1  0  0  0  0
 22 17  1  0  0  0  0
 23 22  2  0  0  0  0
 24 19  1  0  0  0  0
 25 20  1  0  0  0  0
 26 27  1  0  0  0  0
 26 18  1  0  0  0  0
 28 29  1  0  0  0  0
 29 39  1  0  0  0  0
 30 29  2  0  0  0  0
 30 32  1  0  0  0  0
 31 30  1  0  0  0  0
 32 33  2  0  0  0  0
 33 34  1  0  0  0  0
 34 35  1  0  0  0  0
 35 36  2  0  0  0  0
 37 36  1  0  0  0  0
 38 37  2  0  0  0  0
 39 38  1  0  0  0  0
 39 34  2  0  0  0  0
M  END
>  <minimizedAffinity>
-5.98292685

>  <minimizedRMSD>
1.45444441

$$$$
