
 OpenBabel03252504583D

 39 42  0  0  1  0  0  0  0  0999 V2000
   47.8540   34.1080   42.0030 N   0  0  0  0  0  0  0  0  0  0  0  0
   47.9660   35.0490   40.9540 C   0  0  0  0  0  0  0  0  0  0  0  0
   49.1530   35.8370   41.3550 C   0  0  0  0  0  0  0  0  0  0  0  0
   49.7120   35.2500   42.6390 C   0  0  0  0  0  0  0  0  0  0  0  0
   49.0830   33.8490   42.6340 C   0  0  2  0  0  0  0  0  0  0  0  0
   47.5000   35.3360   40.0480 H   0  0  0  0  0  0  0  0  0  0  0  0
   49.6420   36.6700   40.8880 H   0  0  0  0  0  0  0  0  0  0  0  0
   49.3930   35.8120   43.5130 H   0  0  0  0  0  0  0  0  0  0  0  0
   50.8010   35.1420   42.4970 H   0  0  0  0  0  0  0  0  0  0  0  0
   48.9820   33.4110   43.6230 H   0  0  0  0  0  0  0  0  0  0  0  0
   46.6250   33.5860   42.3210 C   0  0  0  0  0  0  0  0  0  0  0  0
   46.7650   32.4910   42.5210 H   0  0  0  0  0  0  0  0  0  0  0  0
   45.8870   33.5680   41.4880 H   0  0  0  0  0  0  0  0  0  0  0  0
   44.6070   35.9370   44.4960 C   0  0  0  0  0  0  0  0  0  0  0  0
   45.2590   35.4330   43.3350 C   0  0  0  0  0  0  0  0  0  0  0  0
   45.9470   34.2240   43.4300 C   0  0  0  0  0  0  0  0  0  0  0  0
   45.9470   33.6080   44.6310 N   0  0  0  0  0  0  0  0  0  0  0  0
   45.3110   34.1080   45.7470 C   0  0  0  0  0  0  0  0  0  0  0  0
   44.6480   35.2620   45.6750 N   0  0  0  0  0  0  0  0  0  0  0  0
   44.0780   36.8560   44.4410 H   0  0  0  0  0  0  0  0  0  0  0  0
   45.2350   35.9520   42.4010 H   0  0  0  0  0  0  0  0  0  0  0  0
   45.3700   33.5370   46.6710 H   0  0  0  0  0  0  0  0  0  0  0  0
   49.8400   33.0860   41.7330 O   0  0  0  0  0  0  0  0  0  0  0  0
   48.9070   31.0460   43.1620 O   0  0  0  0  0  0  0  0  0  0  0  0
   49.6800   31.4470   41.9250 P   0  0  2  0  0  0  0  0  0  0  0  0
   51.2350   30.7790   42.0730 O   0  0  0  0  0  0  0  0  0  0  0  0
   51.6410   30.8060   41.1590 H   0  0  0  0  0  0  0  0  0  0  0  0
   49.0010   30.7240   40.5290 O   0  0  0  0  0  0  0  0  0  0  0  0
   47.7670   31.0070   40.0120 C   0  0  0  0  0  0  0  0  0  0  0  0
   46.5370   30.5430   40.3590 C   0  0  0  0  0  0  0  0  0  0  0  0
   46.5460   29.8350   41.1770 H   0  0  0  0  0  0  0  0  0  0  0  0
   45.3750   30.9320   39.7330 C   0  0  0  0  0  3  0  0  0  0  0  0
   45.4180   31.8420   38.6890 C   0  0  0  0  0  3  0  0  0  0  0  0
   46.6610   32.3280   38.3180 C   0  0  0  0  0  0  0  0  0  0  0  0
   46.6320   33.2320   37.2720 C   0  0  0  0  0  3  0  0  0  0  0  0
   47.8140   33.7670   36.8360 C   0  0  0  0  0  3  0  0  0  0  0  0
   48.9740   33.3950   37.4430 C   0  0  0  0  0  3  0  0  0  0  0  0
   49.0100   32.4940   38.4870 C   0  0  0  0  0  3  0  0  0  0  0  0
   47.8270   31.9270   38.9610 C   0  0  0  0  0  0  0  0  0  0  0  0
  1 11  1  0  0  0  0
  1  5  1  0  0  0  0
  2  3  2  0  0  0  0
  2  1  1  0  0  0  0
  3  4  1  0  0  0  0
  4  8  1  0  0  0  0
  5  4  1  0  0  0  0
  5 10  1  1  0  0  0
  6  2  1  0  0  0  0
  7  3  1  0  0  0  0
  9  4  1  0  0  0  0
 11 12  1  0  0  0  0
 11 16  1  0  0  0  0
 13 11  1  0  0  0  0
 14 19  1  0  0  0  0
 15 16  1  0  0  0  0
 15 14  2  0  0  0  0
 16 17  2  0  0  0  0
 17 18  1  0  0  0  0
 18 22  1  0  0  0  0
 19 18  2  0  0  0  0
 20 14  1  0  0  0  0
 21 15  1  0  0  0  0
 23 25  1  0  0  0  0
 23  5  1  0  0  0  0
 25 26  1  0  0  0  0
 25 24  2  1  0  0  0
 27 26  1  0  0  0  0
 28 25  1  0  0  0  0
 29 30  1  0  0  0  0
 29 28  1  0  0  0  0
 30 31  1  0  0  0  0
 32 30  2  0  0  0  0
 33 32  1  0  0  0  0
 34 33  2  0  0  0  0
 34 39  1  0  0  0  0
 35 34  1  0  0  0  0
 36 35  2  0  0  0  0
 36 37  1  0  0  0  0
 37 38  2  0  0  0  0
 38 39  1  0  0  0  0
 39 29  2  0  0  0  0
M  END
>  <minimizedAffinity>
-5.224123

>  <minimizedRMSD>
1.80715501

$$$$
