
 OpenBabel03242519413D

 31 33  0  0  0  0  0  0  0  0999 V2000
   48.5180   33.1310   43.0360 O   0  0  0  0  0  0  0  0  0  0  0  0
   47.5760   33.7760   41.9850 P   0  0  2  0  0  0  0  0  0  0  0  0
   45.9510   33.4810   42.4540 O   0  0  0  0  0  0  0  0  0  0  0  0
   44.3650   35.9290   44.6350 C   0  0  0  0  0  0  0  0  0  0  0  0
   44.8440   35.2980   43.4630 C   0  0  0  0  0  0  0  0  0  0  0  0
   45.4940   34.0650   43.6150 C   0  0  0  0  0  0  0  0  0  0  0  0
   45.6250   33.5520   44.8540 N   0  0  0  0  0  0  0  0  0  0  0  0
   45.1560   34.1780   45.9550 C   0  0  0  0  0  0  0  0  0  0  0  0
   44.5280   35.3610   45.8570 N   0  0  0  0  0  0  0  0  0  0  0  0
   43.8630   36.8810   44.5260 H   0  0  0  0  0  0  0  0  0  0  0  0
   44.6880   35.7920   42.5240 H   0  0  0  0  0  0  0  0  0  0  0  0
   45.3010   33.6970   46.9280 H   0  0  0  0  0  0  0  0  0  0  0  0
   47.8430   33.0650   40.5100 O   0  0  0  0  0  0  0  0  0  0  0  0
   46.9850   32.8270   39.4840 C   0  0  0  0  0  0  0  0  0  0  0  0
   47.1420   33.5620   38.3560 O   0  0  0  0  0  0  0  0  0  0  0  0
   45.8370   32.0150   39.0180 C   0  0  0  0  0  0  0  0  0  0  0  0
   45.0740   32.4300   37.9020 C   0  0  0  0  0  0  0  0  0  0  0  0
   45.5120   33.3040   37.3640 H   0  0  0  0  0  0  0  0  0  0  0  0
   43.9040   31.9600   37.3660 C   0  0  0  0  0  3  0  0  0  0  0  0
   43.4380   30.8910   38.0900 C   0  0  0  0  0  3  0  0  0  0  0  0
   44.1140   30.4170   39.1870 C   0  0  0  0  0  0  0  0  0  0  0  0
   43.6460   29.3150   39.8690 C   0  0  0  0  0  3  0  0  0  0  0  0
   44.2260   28.6970   40.9580 C   0  0  0  0  0  3  0  0  0  0  0  0
   45.4240   29.2870   41.3820 C   0  0  0  0  0  3  0  0  0  0  0  0
   45.9140   30.3860   40.7210 C   0  0  0  0  0  3  0  0  0  0  0  0
   45.3060   30.9710   39.6490 C   0  0  0  0  0  0  0  0  0  0  0  0
   47.8560   35.4090   42.0290 O   0  0  0  0  0  0  0  0  0  0  0  0
   49.0600   35.7590   41.4350 C   0  0  0  0  0  0  0  0  0  0  0  0
   49.4500   37.0480   41.7490 F   0  0  0  0  0  0  0  0  0  0  0  0
   50.0150   34.8340   41.7070 F   0  0  0  0  0  0  0  0  0  0  0  0
   48.8290   35.7480   40.0610 F   0  0  0  0  0  0  0  0  0  0  0  0
  2 27  1  0  0  0  0
  2  3  1  0  0  0  0
  2  1  2  1  0  0  0
  3  6  1  0  0  0  0
  4  9  1  0  0  0  0
  5  6  1  0  0  0  0
  5  4  2  0  0  0  0
  6  7  2  0  0  0  0
  7  8  1  0  0  0  0
  8 12  1  0  0  0  0
  9  8  2  0  0  0  0
 10  4  1  0  0  0  0
 11  5  1  0  0  0  0
 13  2  1  0  0  0  0
 14 13  1  0  0  0  0
 15 14  2  0  0  0  0
 16 14  1  0  0  0  0
 16 26  1  0  0  0  0
 17 16  2  0  0  0  0
 18 17  1  0  0  0  0
 19 17  1  0  0  0  0
 19 20  2  0  0  0  0
 20 21  1  0  0  0  0
 21 26  2  0  0  0  0
 21 22  1  0  0  0  0
 22 23  2  0  0  0  0
 23 24  1  0  0  0  0
 25 24  2  0  0  0  0
 26 25  1  0  0  0  0
 28 30  1  0  0  0  0
 28 29  1  0  0  0  0
 28 27  1  0  0  0  0
 31 28  1  0  0  0  0
M  END
>  <minimizedAffinity>
-4.84124374

>  <minimizedRMSD>
1.26662123

$$$$
