
 OpenBabel03242519413D

 31 33  0  0  0  0  0  0  0  0999 V2000
   48.0430   32.9120   42.0460 O   0  0  0  0  0  0  0  0  0  0  0  0
   47.1450   34.0060   41.4110 P   0  0  2  0  0  0  0  0  0  0  0  0
   45.5470   33.8190   42.0120 O   0  0  0  0  0  0  0  0  0  0  0  0
   44.3840   35.9640   44.7150 C   0  0  0  0  0  0  0  0  0  0  0  0
   44.6670   35.4960   43.4110 C   0  0  0  0  0  0  0  0  0  0  0  0
   45.2840   34.2420   43.2970 C   0  0  0  0  0  0  0  0  0  0  0  0
   45.5700   33.5570   44.4210 N   0  0  0  0  0  0  0  0  0  0  0  0
   45.2870   34.0310   45.6540 C   0  0  0  0  0  0  0  0  0  0  0  0
   44.6970   35.2270   45.8120 N   0  0  0  0  0  0  0  0  0  0  0  0
   43.9080   36.9310   44.8120 H   0  0  0  0  0  0  0  0  0  0  0  0
   44.3970   36.1190   42.5810 H   0  0  0  0  0  0  0  0  0  0  0  0
   45.5510   33.4150   46.5210 H   0  0  0  0  0  0  0  0  0  0  0  0
   47.1230   33.8010   39.7650 O   0  0  0  0  0  0  0  0  0  0  0  0
   46.5790   32.8080   39.0140 C   0  0  0  0  0  0  0  0  0  0  0  0
   46.4170   31.5980   39.6020 O   0  0  0  0  0  0  0  0  0  0  0  0
   46.0190   32.4470   37.6900 C   0  0  0  0  0  0  0  0  0  0  0  0
   44.7030   31.9410   37.5850 C   0  0  0  0  0  0  0  0  0  0  0  0
   44.1280   31.9930   38.5390 H   0  0  0  0  0  0  0  0  0  0  0  0
   44.0110   31.4030   36.5320 C   0  0  0  0  0  3  0  0  0  0  0  0
   44.7920   31.3770   35.4040 C   0  0  0  0  0  3  0  0  0  0  0  0
   46.0820   31.8490   35.4130 C   0  0  0  0  0  0  0  0  0  0  0  0
   46.8300   31.8480   34.2540 C   0  0  0  0  0  3  0  0  0  0  0  0
   48.1150   32.3210   34.0900 C   0  0  0  0  0  3  0  0  0  0  0  0
   48.6860   32.8520   35.2550 C   0  0  0  0  0  3  0  0  0  0  0  0
   47.9640   32.8640   36.4220 C   0  0  0  0  0  3  0  0  0  0  0  0
   46.6930   32.3810   36.5440 C   0  0  0  0  0  0  0  0  0  0  0  0
   47.7380   35.4680   41.9200 O   0  0  0  0  0  0  0  0  0  0  0  0
   48.9940   35.7440   41.3980 C   0  0  0  0  0  0  0  0  0  0  0  0
   49.4510   36.9990   41.7550 F   0  0  0  0  0  0  0  0  0  0  0  0
   49.8690   34.7520   41.7080 F   0  0  0  0  0  0  0  0  0  0  0  0
   48.8400   35.7650   40.0140 F   0  0  0  0  0  0  0  0  0  0  0  0
  2 27  1  0  0  0  0
  2  3  1  0  0  0  0
  2  1  2  1  0  0  0
  3  6  1  0  0  0  0
  4 10  1  0  0  0  0
  4  9  1  0  0  0  0
  5  4  2  0  0  0  0
  6  5  1  0  0  0  0
  6  7  2  0  0  0  0
  7  8  1  0  0  0  0
  8  9  2  0  0  0  0
  8 12  1  0  0  0  0
 11  5  1  0  0  0  0
 13  2  1  0  0  0  0
 14 15  2  0  0  0  0
 14 13  1  0  0  0  0
 16 14  1  0  0  0  0
 17 16  1  0  0  0  0
 17 18  1  0  0  0  0
 19 17  2  0  0  0  0
 20 21  2  0  0  0  0
 20 19  1  0  0  0  0
 21 26  1  0  0  0  0
 22 21  1  0  0  0  0
 23 22  2  0  0  0  0
 23 24  1  0  0  0  0
 24 25  2  0  0  0  0
 25 26  1  0  0  0  0
 26 16  2  0  0  0  0
 28 30  1  0  0  0  0
 28 29  1  0  0  0  0
 28 27  1  0  0  0  0
 31 28  1  0  0  0  0
M  END
>  <minimizedAffinity>
-5.77069855

>  <minimizedRMSD>
2.27917743

$$$$
