
 OpenBabel03252505113D

 46 50  0  0  1  0  0  0  0  0999 V2000
   44.5830   35.5830   44.6340 C   0  0  0  0  0  0  0  0  0  0  0  0
   45.2400   35.5950   43.3870 C   0  0  0  0  0  0  0  0  0  0  0  0
   46.3300   34.6810   43.2020 C   0  0  0  0  0  0  0  0  0  0  0  0
   46.6660   33.8650   44.2210 N   0  0  0  0  0  0  0  0  0  0  0  0
   46.0200   33.8810   45.3940 C   0  0  0  0  0  0  0  0  0  0  0  0
   44.9690   34.7430   45.6120 N   0  0  0  0  0  0  0  0  0  0  0  0
   43.7550   36.2650   44.8000 H   0  0  0  0  0  0  0  0  0  0  0  0
   44.9350   36.2660   42.6020 H   0  0  0  0  0  0  0  0  0  0  0  0
   46.4360   32.9640   46.4830 C   0  0  2  0  0  0  0  0  0  0  0  0
   46.9700   31.7370   45.7770 C   0  0  0  0  0  0  0  0  0  0  0  0
   46.1010   30.5480   45.7820 C   0  0  0  0  0  0  0  0  0  0  0  0
   45.8100   30.2820   47.2610 C   0  0  0  0  0  0  0  0  0  0  0  0
   45.0190   31.3380   47.8800 C   0  0  0  0  0  0  0  0  0  0  0  0
   45.3930   32.7110   47.4310 C   0  0  0  0  0  0  0  0  0  0  0  0
   47.2870   33.4920   46.9890 H   0  0  0  0  0  0  0  0  0  0  0  0
   47.2620   31.9340   44.7220 H   0  0  0  0  0  0  0  0  0  0  0  0
   47.9220   31.4580   46.2790 H   0  0  0  0  0  0  0  0  0  0  0  0
   46.7100   29.6880   45.4540 H   0  0  0  0  0  0  0  0  0  0  0  0
   45.1780   30.5900   45.2040 H   0  0  0  0  0  0  0  0  0  0  0  0
   45.1470   29.3810   47.2410 H   0  0  0  0  0  0  0  0  0  0  0  0
   46.7300   29.9890   47.7850 H   0  0  0  0  0  0  0  0  0  0  0  0
   44.2360   31.3170   48.5780 H   0  0  0  0  0  0  0  0  0  0  0  0
   44.6970   33.8520   47.9490 N   0  0  0  0  0  0  0  0  0  0  0  0
   43.7070   34.2250   47.8560 H   0  0  0  0  0  0  0  0  0  0  0  0
   45.1360   34.5760   48.5820 H   0  0  0  0  0  0  0  0  0  0  0  0
   47.0230   34.6680   41.9230 C   0  0  0  0  0  0  0  0  0  0  0  0
   48.1160   35.4470   41.7720 C   0  0  0  0  0  0  0  0  0  0  0  0
   48.7500   35.4000   40.5200 C   0  0  0  0  0  0  0  0  0  0  0  0
   48.1970   34.5710   39.5830 C   0  0  0  0  0  0  0  0  0  0  0  0
   47.0860   33.7690   39.7190 C   0  0  0  0  0  0  0  0  0  0  0  0
   46.5270   33.8740   40.9690 N   0  0  0  0  0  0  0  0  0  0  0  0
   48.4580   36.0610   42.5910 H   0  0  0  0  0  0  0  0  0  0  0  0
   49.6140   36.0010   40.3640 H   0  0  0  0  0  0  0  0  0  0  0  0
   48.7300   34.5920   38.6420 H   0  0  0  0  0  0  0  0  0  0  0  0
   46.5680   32.9550   38.7410 O   0  0  0  0  0  0  0  0  0  0  0  0
   47.3770   32.4030   37.7790 C   0  0  0  0  0  0  0  0  0  0  0  0
   48.6420   32.0760   38.2810 C   0  0  0  0  0  0  0  0  0  0  0  0
   48.9670   32.2320   39.3070 H   0  0  0  0  0  0  0  0  0  0  0  0
   49.6100   31.5030   37.4540 C   0  0  0  0  0  3  0  0  0  0  0  0
   49.3710   31.2340   36.1190 C   0  0  0  0  0  3  0  0  0  0  0  0
   48.1170   31.5680   35.6510 C   0  0  0  0  0  0  0  0  0  0  0  0
   47.7710   31.3610   34.3310 C   0  0  0  0  0  3  0  0  0  0  0  0
   46.5070   31.7190   33.8750 C   0  0  0  0  0  3  0  0  0  0  0  0
   45.5540   32.2870   34.6940 C   0  0  0  0  0  3  0  0  0  0  0  0
   45.8920   32.4960   36.0130 C   0  0  0  0  0  3  0  0  0  0  0  0
   47.1460   32.1350   36.4470 C   0  0  0  0  0  0  0  0  0  0  0  0
  1  7  1  0  0  0  0
  1  6  1  0  0  0  0
  2  1  2  0  0  0  0
  3  2  1  0  0  0  0
  3  4  2  0  0  0  0
  4  5  1  0  0  0  0
  5  6  2  0  0  0  0
  5  9  1  0  0  0  0
  8  2  1  0  0  0  0
  9 15  1  1  0  0  0
  9 14  1  0  0  0  0
 10 11  1  0  0  0  0
 10 17  1  0  0  0  0
 10  9  1  0  0  0  0
 11 12  1  0  0  0  0
 12 21  1  0  0  0  0
 12 13  1  0  0  0  0
 13 22  1  0  0  0  0
 14 13  2  0  0  0  0
 14 23  1  0  0  0  0
 16 10  1  0  0  0  0
 18 11  1  0  0  0  0
 19 11  1  0  0  0  0
 20 12  1  0  0  0  0
 23 25  1  0  0  0  0
 24 23  1  0  0  0  0
 26  3  1  0  0  0  0
 27 26  1  0  0  0  0
 27 32  1  0  0  0  0
 28 27  2  0  0  0  0
 29 30  2  0  0  0  0
 29 28  1  0  0  0  0
 30 31  1  0  0  0  0
 31 26  2  0  0  0  0
 33 28  1  0  0  0  0
 34 29  1  0  0  0  0
 35 30  1  0  0  0  0
 36 37  1  0  0  0  0
 36 35  1  0  0  0  0
 37 38  1  0  0  0  0
 39 37  2  0  0  0  0
 40 39  1  0  0  0  0
 41 40  2  0  0  0  0
 41 46  1  0  0  0  0
 42 41  1  0  0  0  0
 43 42  2  0  0  0  0
 43 44  1  0  0  0  0
 44 45  2  0  0  0  0
 45 46  1  0  0  0  0
 46 36  2  0  0  0  0
M  END
>  <minimizedAffinity>
-7.75687122

>  <minimizedRMSD>
0.808001637

$$$$
