
 OpenBabel03252504583D

 39 42  0  0  1  0  0  0  0  0999 V2000
   47.9700   34.0790   41.9810 N   0  0  0  0  0  0  0  0  0  0  0  0
   47.9960   34.9250   40.8480 C   0  0  0  0  0  0  0  0  0  0  0  0
   49.0890   35.8660   41.1760 C   0  0  0  0  0  0  0  0  0  0  0  0
   49.6920   35.4630   42.5100 C   0  0  0  0  0  0  0  0  0  0  0  0
   49.2120   34.0090   42.6360 C   0  0  2  0  0  0  0  0  0  0  0  0
   47.5130   35.0770   39.9190 H   0  0  0  0  0  0  0  0  0  0  0  0
   49.4950   36.6990   40.6350 H   0  0  0  0  0  0  0  0  0  0  0  0
   49.3060   36.0670   43.3280 H   0  0  0  0  0  0  0  0  0  0  0  0
   50.7880   35.4570   42.3810 H   0  0  0  0  0  0  0  0  0  0  0  0
   49.1460   33.6570   43.6610 H   0  0  0  0  0  0  0  0  0  0  0  0
   46.7990   33.4630   42.3440 C   0  0  0  0  0  0  0  0  0  0  0  0
   47.0450   32.4030   42.6140 H   0  0  0  0  0  0  0  0  0  0  0  0
   46.0630   33.3190   41.5210 H   0  0  0  0  0  0  0  0  0  0  0  0
   44.6070   35.7750   44.3890 C   0  0  0  0  0  0  0  0  0  0  0  0
   45.3060   35.2630   43.2600 C   0  0  0  0  0  0  0  0  0  0  0  0
   46.0660   34.1050   43.4160 C   0  0  0  0  0  0  0  0  0  0  0  0
   46.0860   33.5410   44.6420 N   0  0  0  0  0  0  0  0  0  0  0  0
   45.4030   34.0480   45.7280 C   0  0  0  0  0  0  0  0  0  0  0  0
   44.6720   35.1540   45.5970 N   0  0  0  0  0  0  0  0  0  0  0  0
   44.0240   36.6560   44.2880 H   0  0  0  0  0  0  0  0  0  0  0  0
   45.2650   35.7400   42.3040 H   0  0  0  0  0  0  0  0  0  0  0  0
   45.4820   33.5220   46.6760 H   0  0  0  0  0  0  0  0  0  0  0  0
   50.0550   33.2490   41.8110 O   0  0  0  0  0  0  0  0  0  0  0  0
   49.2060   31.2350   43.3260 O   0  0  0  0  0  0  0  0  0  0  0  0
   49.9880   31.6170   42.0880 P   0  0  2  0  0  0  0  0  0  0  0  0
   51.5750   31.0540   42.3100 O   0  0  0  0  0  0  0  0  0  0  0  0
   52.0040   31.0560   41.4050 H   0  0  0  0  0  0  0  0  0  0  0  0
   49.3910   30.7800   40.7170 O   0  0  0  0  0  0  0  0  0  0  0  0
   48.9090   31.3670   39.5810 C   0  0  0  0  0  0  0  0  0  0  0  0
   49.5470   32.0830   38.6180 C   0  0  0  0  0  0  0  0  0  0  0  0
   50.6090   32.2030   38.7850 H   0  0  0  0  0  0  0  0  0  0  0  0
   48.9100   32.6150   37.5180 C   0  0  0  0  0  3  0  0  0  0  0  0
   47.5470   32.4330   37.3500 C   0  0  0  0  0  3  0  0  0  0  0  0
   46.8750   31.7060   38.3200 C   0  0  0  0  0  0  0  0  0  0  0  0
   45.5190   31.5620   38.0900 C   0  0  0  0  0  3  0  0  0  0  0  0
   44.7720   30.8590   38.9950 C   0  0  0  0  0  3  0  0  0  0  0  0
   45.3830   30.3260   40.0870 C   0  0  0  0  0  3  0  0  0  0  0  0
   46.7360   30.4650   40.3240 C   0  0  0  0  0  3  0  0  0  0  0  0
   47.5320   31.1750   39.4240 C   0  0  0  0  0  0  0  0  0  0  0  0
  1 11  1  0  0  0  0
  1  5  1  0  0  0  0
  2  3  2  0  0  0  0
  2  1  1  0  0  0  0
  3  4  1  0  0  0  0
  4  5  1  0  0  0  0
  4  8  1  0  0  0  0
  5 10  1  1  0  0  0
  6  2  1  0  0  0  0
  7  3  1  0  0  0  0
  9  4  1  0  0  0  0
 11 12  1  0  0  0  0
 11 16  1  0  0  0  0
 13 11  1  0  0  0  0
 14 19  1  0  0  0  0
 15 16  1  0  0  0  0
 15 14  2  0  0  0  0
 16 17  2  0  0  0  0
 17 18  1  0  0  0  0
 18 22  1  0  0  0  0
 19 18  2  0  0  0  0
 20 14  1  0  0  0  0
 21 15  1  0  0  0  0
 23 25  1  0  0  0  0
 23  5  1  0  0  0  0
 25 26  1  0  0  0  0
 25 24  2  1  0  0  0
 27 26  1  0  0  0  0
 28 25  1  0  0  0  0
 29 28  1  0  0  0  0
 30 31  1  0  0  0  0
 30 29  2  0  0  0  0
 32 30  1  0  0  0  0
 33 32  2  0  0  0  0
 33 34  1  0  0  0  0
 34 39  1  0  0  0  0
 35 34  2  0  0  0  0
 35 36  1  0  0  0  0
 36 37  2  0  0  0  0
 37 38  1  0  0  0  0
 39 29  1  0  0  0  0
 39 38  2  0  0  0  0
M  END
>  <minimizedAffinity>
-4.9855423

>  <minimizedRMSD>
2.59289575

$$$$
