
 OpenBabel03242519583D

 30 33  0  0  0  0  0  0  0  0999 V2000
   44.8810   32.8730   41.1850 Br  0  0  0  0  0  0  0  0  0  0  0  0
   46.4630   33.9180   40.9810 C   0  0  0  0  0  0  0  0  0  0  0  0
   46.9440   34.7530   41.9720 C   0  0  0  0  0  0  0  0  0  0  0  0
   48.0950   35.4660   41.7260 C   0  0  0  0  0  0  0  0  0  0  0  0
   48.7900   35.3820   40.5360 C   0  0  0  0  0  0  0  0  0  0  0  0
   48.3230   34.5460   39.5250 C   0  0  0  0  0  0  0  0  0  0  0  0
   47.1690   33.8440   39.7940 C   0  0  0  0  0  0  0  0  0  0  0  0
   48.4520   36.1140   42.5200 H   0  0  0  0  0  0  0  0  0  0  0  0
   49.6910   35.9520   40.3690 H   0  0  0  0  0  0  0  0  0  0  0  0
   48.8500   34.4660   38.5850 H   0  0  0  0  0  0  0  0  0  0  0  0
   46.7060   32.9690   38.6950 C   0  0  0  0  0  0  0  0  0  0  0  0
   45.7900   33.3930   37.7540 C   0  0  0  0  0  0  0  0  0  0  0  0
   45.3830   34.4020   37.8050 H   0  0  0  0  0  0  0  0  0  0  0  0
   45.4170   32.5070   36.7680 C   0  0  0  0  0  3  0  0  0  0  0  0
   45.9670   31.2250   36.7450 C   0  0  0  0  0  3  0  0  0  0  0  0
   46.8880   30.8360   37.7140 C   0  0  0  0  0  0  0  0  0  0  0  0
   47.4080   29.5450   37.6490 C   0  0  0  0  0  3  0  0  0  0  0  0
   48.3290   29.1640   38.6200 C   0  0  0  0  0  3  0  0  0  0  0  0
   48.7340   30.0160   39.6300 C   0  0  0  0  0  3  0  0  0  0  0  0
   48.1810   31.2690   39.6320 C   0  0  0  0  0  3  0  0  0  0  0  0
   47.2780   31.7130   38.7180 C   0  0  0  0  0  0  0  0  0  0  0  0
   44.5100   35.8510   44.6710 C   0  0  0  0  0  0  0  0  0  0  0  0
   45.2310   35.8070   43.4670 C   0  0  0  0  0  0  0  0  0  0  0  0
   46.1800   34.8160   43.2240 C   0  0  0  0  0  0  0  0  0  0  0  0
   46.3580   33.9130   44.2140 N   0  0  0  0  0  0  0  0  0  0  0  0
   45.6590   33.9660   45.3700 C   0  0  0  0  0  0  0  0  0  0  0  0
   44.7540   34.9150   45.5950 N   0  0  0  0  0  0  0  0  0  0  0  0
   43.7880   36.6610   44.7720 H   0  0  0  0  0  0  0  0  0  0  0  0
   45.1100   36.5130   42.6560 H   0  0  0  0  0  0  0  0  0  0  0  0
   45.8840   33.1920   46.0920 H   0  0  0  0  0  0  0  0  0  0  0  0
  2  1  1  0  0  0  0
  2  3  1  0  0  0  0
  3 24  1  0  0  0  0
  4  3  2  0  0  0  0
  4  8  1  0  0  0  0
  5  4  1  0  0  0  0
  6  7  1  0  0  0  0
  6  5  2  0  0  0  0
  7  2  2  0  0  0  0
  9  5  1  0  0  0  0
 10  6  1  0  0  0  0
 11 21  1  0  0  0  0
 11  7  1  0  0  0  0
 12 13  1  0  0  0  0
 12 11  2  0  0  0  0
 14 12  1  0  0  0  0
 15 14  2  0  0  0  0
 15 16  1  0  0  0  0
 16 21  1  0  0  0  0
 17 16  2  0  0  0  0
 17 18  1  0  0  0  0
 18 19  2  0  0  0  0
 19 20  1  0  0  0  0
 21 20  2  0  0  0  0
 22 28  1  0  0  0  0
 22 27  1  0  0  0  0
 23 22  2  0  0  0  0
 24 23  1  0  0  0  0
 24 25  2  0  0  0  0
 25 26  1  0  0  0  0
 26 27  2  0  0  0  0
 26 30  1  0  0  0  0
 29 23  1  0  0  0  0
M  END
>  <minimizedAffinity>
-5.62150574

>  <minimizedRMSD>
1.61657059

$$$$
