
 OpenBabel03252507333D

 51 55  0  0  1  0  0  0  0  0999 V2000
   46.9820   32.7440   45.5390 C   0  0  0  0  0  0  0  0  0  0  0  0
   45.8930   33.4230   46.0750 C   0  0  0  0  0  0  0  0  0  0  0  0
   45.2140   34.3820   45.2900 C   0  0  0  0  0  0  0  0  0  0  0  0
   45.7060   34.5830   44.0000 N   0  0  0  0  0  0  0  0  0  0  0  0
   46.7550   33.9010   43.5500 C   0  0  0  0  0  0  0  0  0  0  0  0
   47.3900   32.9930   44.2960 N   0  0  0  0  0  0  0  0  0  0  0  0
   45.3890   33.4530   47.0120 H   0  0  0  0  0  0  0  0  0  0  0  0
   44.3770   34.9860   45.5200 H   0  0  0  0  0  0  0  0  0  0  0  0
   47.6300   31.7540   46.3740 C   0  0  2  0  0  0  0  0  0  0  0  0
   47.3980   30.3120   45.8330 C   0  0  0  0  0  0  0  0  0  0  0  0
   48.1990   29.3440   46.6290 C   0  0  0  0  0  0  0  0  0  0  0  0
   48.1910   29.5380   48.1080 C   0  0  0  0  0  0  0  0  0  0  0  0
   48.1740   30.9170   48.5340 C   0  0  0  0  0  0  0  0  0  0  0  0
   47.1780   31.8000   47.7510 C   0  0  2  0  0  0  0  0  0  0  0  0
   48.7360   31.8600   46.2780 H   0  0  0  0  0  0  0  0  0  0  0  0
   46.3420   30.0600   45.7790 H   0  0  0  0  0  0  0  0  0  0  0  0
   47.7690   30.3550   44.7880 H   0  0  0  0  0  0  0  0  0  0  0  0
   47.7210   28.3340   46.4490 H   0  0  0  0  0  0  0  0  0  0  0  0
   49.1870   29.2590   46.1400 H   0  0  0  0  0  0  0  0  0  0  0  0
   47.8280   28.7210   48.7330 H   0  0  0  0  0  0  0  0  0  0  0  0
   49.3060   29.2910   48.3300 H   0  0  0  0  0  0  0  0  0  0  0  0
   49.1200   31.5050   48.5090 H   0  0  0  0  0  0  0  0  0  0  0  0
   47.8150   30.9750   49.5940 H   0  0  0  0  0  0  0  0  0  0  0  0
   47.2640   32.7430   48.2920 H   0  0  0  0  0  0  0  0  0  0  0  0
   45.8430   31.2060   47.8620 N   0  0  0  0  0  0  0  0  0  0  0  0
   45.1530   30.6640   48.9600 C   0  0  0  0  0  0  0  0  0  0  0  0
   44.5960   31.3870   49.8620 O   0  0  0  0  0  0  0  0  0  0  0  0
   45.1120   29.2370   48.9930 N   0  0  0  0  0  0  0  0  0  0  0  0
   45.2060   31.0500   46.9920 H   0  0  0  0  0  0  0  0  0  0  0  0
   44.8020   28.5680   48.2510 H   0  0  0  0  0  0  0  0  0  0  0  0
   45.4140   28.6710   49.8360 H   0  0  0  0  0  0  0  0  0  0  0  0
   47.2340   34.1810   42.1920 C   0  0  0  0  0  0  0  0  0  0  0  0
   48.1640   35.1330   41.9350 C   0  0  0  0  0  0  0  0  0  0  0  0
   48.6420   35.4320   40.6760 C   0  0  0  0  0  0  0  0  0  0  0  0
   48.1090   34.6900   39.6540 C   0  0  0  0  0  0  0  0  0  0  0  0
   47.1660   33.7140   39.8740 C   0  0  0  0  0  0  0  0  0  0  0  0
   46.7500   33.4880   41.1520 N   0  0  0  0  0  0  0  0  0  0  0  0
   48.5420   35.6810   42.7840 H   0  0  0  0  0  0  0  0  0  0  0  0
   49.3760   36.1890   40.5070 H   0  0  0  0  0  0  0  0  0  0  0  0
   48.4460   34.9600   38.6730 H   0  0  0  0  0  0  0  0  0  0  0  0
   46.4580   32.8950   38.9140 C   0  0  0  0  0  0  0  0  0  0  0  0
   47.2020   32.1090   38.0210 C   0  0  0  0  0  0  0  0  0  0  0  0
   48.3000   32.1270   38.0830 H   0  0  0  0  0  0  0  0  0  0  0  0
   46.6760   31.2930   37.0460 C   0  0  0  0  0  3  0  0  0  0  0  0
   45.3100   31.2200   36.9090 C   0  0  0  0  0  3  0  0  0  0  0  0
   44.5150   31.9670   37.7490 C   0  0  0  0  0  0  0  0  0  0  0  0
   43.1460   31.9310   37.5970 C   0  0  0  0  0  3  0  0  0  0  0  0
   42.2960   32.6850   38.3800 C   0  0  0  0  0  3  0  0  0  0  0  0
   42.9070   33.4960   39.3440 C   0  0  0  0  0  3  0  0  0  0  0  0
   44.2750   33.5020   39.4630 C   0  0  0  0  0  3  0  0  0  0  0  0
   45.1160   32.7550   38.6940 C   0  0  0  0  0  0  0  0  0  0  0  0
  1  2  1  0  0  0  0
  1  9  1  0  0  0  0
  2  7  1  0  0  0  0
  3  8  1  0  0  0  0
  3  2  2  0  0  0  0
  4  3  1  0  0  0  0
  5  4  2  0  0  0  0
  5  6  1  0  0  0  0
  6  1  2  0  0  0  0
  9 15  1  6  0  0  0
  9 14  1  0  0  0  0
 10  9  1  0  0  0  0
 10 11  1  0  0  0  0
 11 12  1  0  0  0  0
 12 21  1  0  0  0  0
 12 13  1  0  0  0  0
 12 20  1  0  0  0  0
 13 23  1  0  0  0  0
 14 25  1  0  0  0  0
 14 24  1  1  0  0  0
 14 13  1  0  0  0  0
 16 10  1  0  0  0  0
 17 10  1  0  0  0  0
 18 11  1  0  0  0  0
 19 11  1  0  0  0  0
 22 13  1  0  0  0  0
 25 26  1  0  0  0  0
 26 28  1  0  0  0  0
 26 27  2  0  0  0  0
 28 31  1  0  0  0  0
 29 25  1  0  0  0  0
 30 28  1  0  0  0  0
 32  5  1  0  0  0  0
 33 32  1  0  0  0  0
 33 38  1  0  0  0  0
 34 33  2  0  0  0  0
 35 36  2  0  0  0  0
 35 34  1  0  0  0  0
 36 37  1  0  0  0  0
 37 32  2  0  0  0  0
 39 34  1  0  0  0  0
 40 35  1  0  0  0  0
 41 36  1  0  0  0  0
 42 43  1  0  0  0  0
 42 41  2  0  0  0  0
 44 42  1  0  0  0  0
 45 44  2  0  0  0  0
 45 46  1  0  0  0  0
 46 51  1  0  0  0  0
 47 46  2  0  0  0  0
 47 48  1  0  0  0  0
 48 49  2  0  0  0  0
 49 50  1  0  0  0  0
 51 41  1  0  0  0  0
 51 50  2  0  0  0  0
M  END
>  <minimizedAffinity>
-6.85747194

>  <minimizedRMSD>
0.58005625

$$$$
