
 OpenBabel03242510413D

 33 36  0  0  0  0  0  0  0  0999 V2000
   40.1630   29.5770   40.4140 Cl  0  0  0  0  0  0  0  0  0  0  0  0
   38.6990   29.9000   39.4950 C   0  0  0  0  0  0  0  0  0  0  0  0
   38.8260   30.5870   38.3030 C   0  0  0  0  0  0  0  0  0  0  0  0
   37.6900   30.8360   37.5920 C   0  0  0  0  0  0  0  0  0  0  0  0
   36.4640   30.3960   38.0910 C   0  0  0  0  0  0  0  0  0  0  0  0
   36.3560   29.7150   39.2790 C   0  0  0  0  0  0  0  0  0  0  0  0
   37.5060   29.4560   40.0110 C   0  0  0  0  0  0  0  0  0  0  0  0
   37.7130   31.3680   36.6500 H   0  0  0  0  0  0  0  0  0  0  0  0
   35.5330   30.5750   37.5560 H   0  0  0  0  0  0  0  0  0  0  0  0
   35.3940   29.3870   39.6400 H   0  0  0  0  0  0  0  0  0  0  0  0
   37.4150   28.7350   41.2760 C   0  0  0  0  0  0  0  0  0  0  0  0
   37.4880   29.2910   42.5400 C   0  0  0  0  0  0  0  0  0  0  0  0
   37.6280   30.3780   42.5520 H   0  0  0  0  0  0  0  0  0  0  0  0
   37.3920   28.5470   43.6790 C   0  0  0  0  0  3  0  0  0  0  0  0
   37.2150   27.1810   43.5810 C   0  0  0  0  0  3  0  0  0  0  0  0
   37.1410   26.6080   42.3240 C   0  0  0  0  0  0  0  0  0  0  0  0
   36.9610   25.2210   42.2660 C   0  0  0  0  0  3  0  0  0  0  0  0
   36.8860   24.6490   41.0080 C   0  0  0  0  0  3  0  0  0  0  0  0
   36.9760   25.3560   39.8130 C   0  0  0  0  0  3  0  0  0  0  0  0
   37.1520   26.7120   39.9790 C   0  0  0  0  0  3  0  0  0  0  0  0
   37.2380   27.3720   41.1870 C   0  0  0  0  0  0  0  0  0  0  0  0
   41.7660   32.6530   37.6540 C   0  0  0  0  0  0  0  0  0  0  0  0
   42.6380   31.7820   36.9560 C   0  0  0  0  0  0  0  0  0  0  0  0
   42.1620   30.4750   36.7300 C   0  0  0  0  0  0  0  0  0  0  0  0
   40.9320   30.1400   37.1820 N   0  0  0  0  0  0  0  0  0  0  0  0
   40.1360   31.0140   37.8460 C   0  0  0  0  0  0  0  0  0  0  0  0
   40.5640   32.2630   38.0730 N   0  0  0  0  0  0  0  0  0  0  0  0
   42.0740   33.6670   37.8570 H   0  0  0  0  0  0  0  0  0  0  0  0
   43.5960   32.1310   36.6350 H   0  0  0  0  0  0  0  0  0  0  0  0
   43.0990   29.6060   36.0040 C   0  0  0  0  0  0  0  0  0  0  0  0
   42.5650   28.3220   35.9710 F   0  0  0  0  0  0  0  0  0  0  0  0
   44.2370   29.5090   36.7820 F   0  0  0  0  0  0  0  0  0  0  0  0
   43.3340   29.9890   34.7180 F   0  0  0  0  0  0  0  0  0  0  0  0
  2  7  1  0  0  0  0
  2  1  1  0  0  0  0
  3  2  2  0  0  0  0
  4  5  2  0  0  0  0
  4  3  1  0  0  0  0
  5  6  1  0  0  0  0
  6 10  1  0  0  0  0
  6  7  2  0  0  0  0
  7 11  1  0  0  0  0
  8  4  1  0  0  0  0
  9  5  1  0  0  0  0
 11 12  1  0  0  0  0
 12 13  1  0  0  0  0
 12 14  2  0  0  0  0
 15 14  1  0  0  0  0
 16 15  2  0  0  0  0
 17 16  1  0  0  0  0
 18 17  2  0  0  0  0
 19 20  2  0  0  0  0
 19 18  1  0  0  0  0
 20 21  1  0  0  0  0
 21 11  2  0  0  0  0
 21 16  1  0  0  0  0
 22 28  1  0  0  0  0
 22 27  1  0  0  0  0
 23 22  2  0  0  0  0
 24 23  1  0  0  0  0
 24 25  2  0  0  0  0
 25 26  1  0  0  0  0
 26 27  2  0  0  0  0
 26  3  1  0  0  0  0
 29 23  1  0  0  0  0
 30 24  1  0  0  0  0
 30 32  1  0  0  0  0
 31 30  1  0  0  0  0
 33 30  1  0  0  0  0
M  END
>  <minimizedAffinity>
-6.72603464

$$$$

 OpenBabel03242510413D

 33 36  0  0  0  0  0  0  0  0999 V2000
   38.2430   27.9780   38.0520 Cl  0  0  0  0  0  0  0  0  0  0  0  0
   36.7450   28.4420   38.8460 C   0  0  0  0  0  0  0  0  0  0  0  0
   35.6640   28.7600   38.0460 C   0  0  0  0  0  0  0  0  0  0  0  0
   34.5040   29.1190   38.6640 C   0  0  0  0  0  0  0  0  0  0  0  0
   34.4550   29.1510   40.0570 C   0  0  0  0  0  0  0  0  0  0  0  0
   35.5400   28.8330   40.8380 C   0  0  0  0  0  0  0  0  0  0  0  0
   36.7270   28.4660   40.2190 C   0  0  0  0  0  0  0  0  0  0  0  0
   33.6170   29.3800   38.1020 H   0  0  0  0  0  0  0  0  0  0  0  0
   33.5490   29.4330   40.5900 H   0  0  0  0  0  0  0  0  0  0  0  0
   35.4730   28.8660   41.9140 H   0  0  0  0  0  0  0  0  0  0  0  0
   37.8920   28.1230   41.0290 C   0  0  0  0  0  0  0  0  0  0  0  0
   38.9040   28.9860   41.4080 C   0  0  0  0  0  0  0  0  0  0  0  0
   38.7850   30.0140   41.0480 H   0  0  0  0  0  0  0  0  0  0  0  0
   39.9640   28.5890   42.1700 C   0  0  0  0  0  3  0  0  0  0  0  0
   40.0420   27.2750   42.5860 C   0  0  0  0  0  3  0  0  0  0  0  0
   39.0380   26.3990   42.2150 C   0  0  0  0  0  0  0  0  0  0  0  0
   39.1520   25.0750   42.6570 C   0  0  0  0  0  3  0  0  0  0  0  0
   38.1470   24.1990   42.2860 C   0  0  0  0  0  3  0  0  0  0  0  0
   37.0430   24.5470   41.5120 C   0  0  0  0  0  3  0  0  0  0  0  0
   37.0250   25.8700   41.1290 C   0  0  0  0  0  3  0  0  0  0  0  0
   37.9770   26.8150   41.4480 C   0  0  0  0  0  0  0  0  0  0  0  0
   35.8270   27.4850   34.6280 C   0  0  0  0  0  0  0  0  0  0  0  0
   36.0330   28.6490   33.8480 C   0  0  0  0  0  0  0  0  0  0  0  0
   36.1090   29.8660   34.5550 C   0  0  0  0  0  0  0  0  0  0  0  0
   35.9850   29.8490   35.9010 N   0  0  0  0  0  0  0  0  0  0  0  0
   35.7890   28.7040   36.6010 C   0  0  0  0  0  0  0  0  0  0  0  0
   35.7130   27.5330   35.9540 N   0  0  0  0  0  0  0  0  0  0  0  0
   35.7600   26.5230   34.1440 H   0  0  0  0  0  0  0  0  0  0  0  0
   36.1190   28.5700   32.7850 H   0  0  0  0  0  0  0  0  0  0  0  0
   36.3220   31.0470   33.7060 C   0  0  0  0  0  0  0  0  0  0  0  0
   36.9650   32.0180   34.4660 F   0  0  0  0  0  0  0  0  0  0  0  0
   35.0730   31.5680   33.4270 F   0  0  0  0  0  0  0  0  0  0  0  0
   37.0860   30.8120   32.6030 F   0  0  0  0  0  0  0  0  0  0  0  0
  1  2  1  0  0  0  0
  2  7  1  0  0  0  0
  3  4  1  0  0  0  0
  3  2  2  0  0  0  0
  4  5  2  0  0  0  0
  5  9  1  0  0  0  0
  5  6  1  0  0  0  0
  6 10  1  0  0  0  0
  7  6  2  0  0  0  0
  7 11  1  0  0  0  0
  8  4  1  0  0  0  0
 11 12  2  0  0  0  0
 11 21  1  0  0  0  0
 12 14  1  0  0  0  0
 13 12  1  0  0  0  0
 14 15  2  0  0  0  0
 16 15  1  0  0  0  0
 16 17  1  0  0  0  0
 18 17  2  0  0  0  0
 19 18  1  0  0  0  0
 20 21  1  0  0  0  0
 20 19  2  0  0  0  0
 21 16  2  0  0  0  0
 22 27  1  0  0  0  0
 23 24  1  0  0  0  0
 23 22  2  0  0  0  0
 24 25  2  0  0  0  0
 25 26  1  0  0  0  0
 26  3  1  0  0  0  0
 27 26  2  0  0  0  0
 28 22  1  0  0  0  0
 29 23  1  0  0  0  0
 30 31  1  0  0  0  0
 30 24  1  0  0  0  0
 32 30  1  0  0  0  0
 33 30  1  0  0  0  0
M  END
>  <minimizedAffinity>
-6.4860692

$$$$

 OpenBabel03242510413D

 33 36  0  0  0  0  0  0  0  0999 V2000
   39.6690   28.4980   39.3580 Cl  0  0  0  0  0  0  0  0  0  0  0  0
   38.2680   29.3070   40.0460 C   0  0  0  0  0  0  0  0  0  0  0  0
   38.2090   30.6850   39.9500 C   0  0  0  0  0  0  0  0  0  0  0  0
   37.1220   31.3100   40.4840 C   0  0  0  0  0  0  0  0  0  0  0  0
   36.1290   30.5460   41.0960 C   0  0  0  0  0  0  0  0  0  0  0  0
   36.2040   29.1770   41.1840 C   0  0  0  0  0  0  0  0  0  0  0  0
   37.3070   28.5300   40.6440 C   0  0  0  0  0  0  0  0  0  0  0  0
   37.0070   32.3850   40.4450 H   0  0  0  0  0  0  0  0  0  0  0  0
   35.2450   31.0060   41.5360 H   0  0  0  0  0  0  0  0  0  0  0  0
   35.4200   28.6120   41.6640 H   0  0  0  0  0  0  0  0  0  0  0  0
   37.4070   27.0770   40.7250 C   0  0  0  0  0  0  0  0  0  0  0  0
   36.7570   26.1670   39.9120 C   0  0  0  0  0  0  0  0  0  0  0  0
   36.1160   26.6170   39.1460 H   0  0  0  0  0  0  0  0  0  0  0  0
   36.9040   24.8170   40.0500 C   0  0  0  0  0  3  0  0  0  0  0  0
   37.7330   24.3260   41.0400 C   0  0  0  0  0  3  0  0  0  0  0  0
   38.3900   25.2230   41.8630 C   0  0  0  0  0  0  0  0  0  0  0  0
   39.2210   24.6860   42.8540 C   0  0  0  0  0  3  0  0  0  0  0  0
   39.8790   25.5840   43.6760 C   0  0  0  0  0  3  0  0  0  0  0  0
   39.7690   26.9690   43.5820 C   0  0  0  0  0  3  0  0  0  0  0  0
   38.9280   27.3940   42.5760 C   0  0  0  0  0  3  0  0  0  0  0  0
   38.2320   26.5780   41.7090 C   0  0  0  0  0  0  0  0  0  0  0  0
   40.2890   32.2150   37.3680 C   0  0  0  0  0  0  0  0  0  0  0  0
   41.3430   32.8120   38.1010 C   0  0  0  0  0  0  0  0  0  0  0  0
   41.2940   32.6580   39.5010 C   0  0  0  0  0  0  0  0  0  0  0  0
   40.2670   31.9670   40.0460 N   0  0  0  0  0  0  0  0  0  0  0  0
   39.2810   31.4140   39.2970 C   0  0  0  0  0  0  0  0  0  0  0  0
   39.3050   31.5450   37.9640 N   0  0  0  0  0  0  0  0  0  0  0  0
   40.2720   32.2980   36.2920 H   0  0  0  0  0  0  0  0  0  0  0  0
   42.1160   33.3430   37.5860 H   0  0  0  0  0  0  0  0  0  0  0  0
   42.4060   33.2940   40.2200 C   0  0  0  0  0  0  0  0  0  0  0  0
   43.0520   32.3180   40.9720 F   0  0  0  0  0  0  0  0  0  0  0  0
   41.8440   34.1550   41.1440 F   0  0  0  0  0  0  0  0  0  0  0  0
   43.3350   33.8760   39.4110 F   0  0  0  0  0  0  0  0  0  0  0  0
  1  2  1  0  0  0  0
  2  7  1  0  0  0  0
  3  2  2  0  0  0  0
  3  4  1  0  0  0  0
  4  5  2  0  0  0  0
  5  6  1  0  0  0  0
  5  9  1  0  0  0  0
  6 10  1  0  0  0  0
  7 11  1  0  0  0  0
  7  6  2  0  0  0  0
  8  4  1  0  0  0  0
 11 21  1  0  0  0  0
 12 14  1  0  0  0  0
 12 11  2  0  0  0  0
 13 12  1  0  0  0  0
 14 15  2  0  0  0  0
 15 16  1  0  0  0  0
 16 17  1  0  0  0  0
 17 18  2  0  0  0  0
 19 18  1  0  0  0  0
 20 19  2  0  0  0  0
 21 16  2  0  0  0  0
 21 20  1  0  0  0  0
 22 27  2  0  0  0  0
 22 23  1  0  0  0  0
 23 24  2  0  0  0  0
 24 25  1  0  0  0  0
 24 30  1  0  0  0  0
 26  3  1  0  0  0  0
 26 25  2  0  0  0  0
 27 26  1  0  0  0  0
 28 22  1  0  0  0  0
 29 23  1  0  0  0  0
 30 31  1  0  0  0  0
 30 32  1  0  0  0  0
 33 30  1  0  0  0  0
M  END
>  <minimizedAffinity>
-6.41328621

$$$$

 OpenBabel03242510413D

 33 36  0  0  0  0  0  0  0  0999 V2000
   39.8230   27.4360   40.4380 Cl  0  0  0  0  0  0  0  0  0  0  0  0
   38.6280   27.5800   41.7180 C   0  0  0  0  0  0  0  0  0  0  0  0
   38.6260   28.7400   42.4690 C   0  0  0  0  0  0  0  0  0  0  0  0
   37.6990   28.8510   43.4620 C   0  0  0  0  0  0  0  0  0  0  0  0
   36.8030   27.8040   43.6770 C   0  0  0  0  0  0  0  0  0  0  0  0
   36.8190   26.6560   42.9210 C   0  0  0  0  0  0  0  0  0  0  0  0
   37.7590   26.5330   41.9070 C   0  0  0  0  0  0  0  0  0  0  0  0
   37.6380   29.7300   44.0900 H   0  0  0  0  0  0  0  0  0  0  0  0
   36.0470   27.8500   44.4590 H   0  0  0  0  0  0  0  0  0  0  0  0
   36.1130   25.8630   43.1100 H   0  0  0  0  0  0  0  0  0  0  0  0
   37.7940   25.3240   41.0930 C   0  0  0  0  0  0  0  0  0  0  0  0
   38.4290   24.1390   41.4180 C   0  0  0  0  0  0  0  0  0  0  0  0
   38.9420   24.1470   42.3860 H   0  0  0  0  0  0  0  0  0  0  0  0
   38.4150   23.0470   40.6000 C   0  0  0  0  0  3  0  0  0  0  0  0
   37.7440   23.1140   39.3950 C   0  0  0  0  0  3  0  0  0  0  0  0
   37.1050   24.2920   39.0540 C   0  0  0  0  0  0  0  0  0  0  0  0
   36.4360   24.3210   37.8240 C   0  0  0  0  0  3  0  0  0  0  0  0
   35.7960   25.5000   37.4840 C   0  0  0  0  0  3  0  0  0  0  0  0
   35.7750   26.6440   38.2770 C   0  0  0  0  0  3  0  0  0  0  0  0
   36.4610   26.5120   39.4650 C   0  0  0  0  0  3  0  0  0  0  0  0
   37.1280   25.3820   39.8890 C   0  0  0  0  0  0  0  0  0  0  0  0
   41.7440   30.6350   42.3290 C   0  0  0  0  0  0  0  0  0  0  0  0
   41.3870   31.8140   41.6310 C   0  0  0  0  0  0  0  0  0  0  0  0
   40.0410   31.9110   41.2230 C   0  0  0  0  0  0  0  0  0  0  0  0
   39.1950   30.8990   41.5160 N   0  0  0  0  0  0  0  0  0  0  0  0
   39.5900   29.7890   42.1880 C   0  0  0  0  0  0  0  0  0  0  0  0
   40.8630   29.6720   42.5890 N   0  0  0  0  0  0  0  0  0  0  0  0
   42.7600   30.5030   42.6680 H   0  0  0  0  0  0  0  0  0  0  0  0
   42.1240   32.5660   41.4410 H   0  0  0  0  0  0  0  0  0  0  0  0
   39.7150   33.1500   40.5020 C   0  0  0  0  0  0  0  0  0  0  0  0
   39.1460   32.8040   39.2810 F   0  0  0  0  0  0  0  0  0  0  0  0
   40.9170   33.7560   40.1870 F   0  0  0  0  0  0  0  0  0  0  0  0
   38.8360   33.9620   41.1530 F   0  0  0  0  0  0  0  0  0  0  0  0
  1  2  1  0  0  0  0
  2  7  2  0  0  0  0
  2  3  1  0  0  0  0
  3  4  2  0  0  0  0
  4  5  1  0  0  0  0
  4  8  1  0  0  0  0
  5  9  1  0  0  0  0
  6 10  1  0  0  0  0
  6  5  2  0  0  0  0
  7  6  1  0  0  0  0
 11 12  1  0  0  0  0
 11  7  1  0  0  0  0
 12 13  1  0  0  0  0
 14 12  2  0  0  0  0
 15 14  1  0  0  0  0
 16 15  2  0  0  0  0
 16 21  1  0  0  0  0
 17 16  1  0  0  0  0
 18 17  2  0  0  0  0
 18 19  1  0  0  0  0
 19 20  2  0  0  0  0
 20 21  1  0  0  0  0
 21 11  2  0  0  0  0
 22 27  1  0  0  0  0
 22 28  1  0  0  0  0
 23 22  2  0  0  0  0
 24 25  2  0  0  0  0
 24 23  1  0  0  0  0
 25 26  1  0  0  0  0
 26  3  1  0  0  0  0
 26 27  2  0  0  0  0
 29 23  1  0  0  0  0
 30 33  1  0  0  0  0
 30 24  1  0  0  0  0
 31 30  1  0  0  0  0
 32 30  1  0  0  0  0
M  END
>  <minimizedAffinity>
-6.31699371

$$$$

 OpenBabel03242510413D

 33 36  0  0  0  0  0  0  0  0999 V2000
   39.6390   28.2510   40.6970 Cl  0  0  0  0  0  0  0  0  0  0  0  0
   38.1450   29.1750   40.7520 C   0  0  0  0  0  0  0  0  0  0  0  0
   38.2320   30.5480   40.6270 C   0  0  0  0  0  0  0  0  0  0  0  0
   37.0720   31.2620   40.6700 C   0  0  0  0  0  0  0  0  0  0  0  0
   35.8620   30.5880   40.8370 C   0  0  0  0  0  0  0  0  0  0  0  0
   35.7940   29.2210   40.9600 C   0  0  0  0  0  0  0  0  0  0  0  0
   36.9690   28.4840   40.9180 C   0  0  0  0  0  0  0  0  0  0  0  0
   37.0630   32.3410   40.5780 H   0  0  0  0  0  0  0  0  0  0  0  0
   34.9130   31.1200   40.8770 H   0  0  0  0  0  0  0  0  0  0  0  0
   34.8430   28.7280   41.0870 H   0  0  0  0  0  0  0  0  0  0  0  0
   36.9200   27.0320   41.0470 C   0  0  0  0  0  0  0  0  0  0  0  0
   37.1550   26.3070   42.2010 C   0  0  0  0  0  0  0  0  0  0  0  0
   37.3980   26.9150   43.0800 H   0  0  0  0  0  0  0  0  0  0  0  0
   37.0890   24.9450   42.2420 C   0  0  0  0  0  3  0  0  0  0  0  0
   36.7740   24.2490   41.0910 C   0  0  0  0  0  3  0  0  0  0  0  0
   36.5370   24.9590   39.9280 C   0  0  0  0  0  0  0  0  0  0  0  0
   36.2220   24.2180   38.7830 C   0  0  0  0  0  3  0  0  0  0  0  0
   35.9830   24.9290   37.6190 C   0  0  0  0  0  3  0  0  0  0  0  0
   36.0360   26.3170   37.5180 C   0  0  0  0  0  3  0  0  0  0  0  0
   36.3530   26.9510   38.6990 C   0  0  0  0  0  3  0  0  0  0  0  0
   36.6070   26.3300   39.9040 C   0  0  0  0  0  0  0  0  0  0  0  0
   41.5040   31.9970   41.3530 C   0  0  0  0  0  0  0  0  0  0  0  0
   41.9830   32.3920   40.0810 C   0  0  0  0  0  0  0  0  0  0  0  0
   41.1310   32.1350   38.9880 C   0  0  0  0  0  0  0  0  0  0  0  0
   39.9370   31.5410   39.2160 N   0  0  0  0  0  0  0  0  0  0  0  0
   39.5270   31.1820   40.4570 C   0  0  0  0  0  0  0  0  0  0  0  0
   40.3170   31.4160   41.5130 N   0  0  0  0  0  0  0  0  0  0  0  0
   42.1110   32.1670   42.2290 H   0  0  0  0  0  0  0  0  0  0  0  0
   42.9430   32.8560   39.9930 H   0  0  0  0  0  0  0  0  0  0  0  0
   41.6680   32.5600   37.6880 C   0  0  0  0  0  0  0  0  0  0  0  0
   41.6410   33.9500   37.6400 F   0  0  0  0  0  0  0  0  0  0  0  0
   40.7660   32.1430   36.7270 F   0  0  0  0  0  0  0  0  0  0  0  0
   42.9510   32.1640   37.4560 F   0  0  0  0  0  0  0  0  0  0  0  0
  1  2  1  0  0  0  0
  2  7  1  0  0  0  0
  3  4  1  0  0  0  0
  3  2  2  0  0  0  0
  4  5  2  0  0  0  0
  5  9  1  0  0  0  0
  5  6  1  0  0  0  0
  6 10  1  0  0  0  0
  7  6  2  0  0  0  0
  7 11  1  0  0  0  0
  8  4  1  0  0  0  0
 11 12  1  0  0  0  0
 12 14  2  0  0  0  0
 12 13  1  0  0  0  0
 15 14  1  0  0  0  0
 16 15  2  0  0  0  0
 17 16  1  0  0  0  0
 18 17  2  0  0  0  0
 19 18  1  0  0  0  0
 19 20  2  0  0  0  0
 20 21  1  0  0  0  0
 21 16  1  0  0  0  0
 21 11  2  0  0  0  0
 22 27  1  0  0  0  0
 22 28  1  0  0  0  0
 23 22  2  0  0  0  0
 24 25  2  0  0  0  0
 24 23  1  0  0  0  0
 25 26  1  0  0  0  0
 26  3  1  0  0  0  0
 26 27  2  0  0  0  0
 29 23  1  0  0  0  0
 30 24  1  0  0  0  0
 31 30  1  0  0  0  0
 32 30  1  0  0  0  0
 33 30  1  0  0  0  0
M  END
>  <minimizedAffinity>
-6.30022907

$$$$

 OpenBabel03242510413D

 33 36  0  0  0  0  0  0  0  0999 V2000
   40.3850   30.2940   40.7240 Cl  0  0  0  0  0  0  0  0  0  0  0  0
   39.0310   30.4550   39.6160 C   0  0  0  0  0  0  0  0  0  0  0  0
   37.8620   29.7860   39.9260 C   0  0  0  0  0  0  0  0  0  0  0  0
   36.8130   29.9110   39.0660 C   0  0  0  0  0  0  0  0  0  0  0  0
   36.9590   30.6980   37.9230 C   0  0  0  0  0  0  0  0  0  0  0  0
   38.1290   31.3560   37.6290 C   0  0  0  0  0  0  0  0  0  0  0  0
   39.2040   31.2350   38.4980 C   0  0  0  0  0  0  0  0  0  0  0  0
   35.8670   29.4170   39.2440 H   0  0  0  0  0  0  0  0  0  0  0  0
   36.1470   30.8240   37.2090 H   0  0  0  0  0  0  0  0  0  0  0  0
   38.2130   31.9570   36.7370 H   0  0  0  0  0  0  0  0  0  0  0  0
   40.4550   31.9250   38.2060 C   0  0  0  0  0  0  0  0  0  0  0  0
   40.7770   33.2200   38.5670 C   0  0  0  0  0  0  0  0  0  0  0  0
   39.9930   33.7460   39.1240 H   0  0  0  0  0  0  0  0  0  0  0  0
   41.9730   33.7970   38.2560 C   0  0  0  0  0  3  0  0  0  0  0  0
   42.9120   33.0690   37.5520 C   0  0  0  0  0  3  0  0  0  0  0  0
   42.6060   31.7710   37.1830 C   0  0  0  0  0  0  0  0  0  0  0  0
   43.5830   31.0650   36.4700 C   0  0  0  0  0  3  0  0  0  0  0  0
   43.2770   29.7670   36.1010 C   0  0  0  0  0  3  0  0  0  0  0  0
   42.0750   29.1270   36.3910 C   0  0  0  0  0  3  0  0  0  0  0  0
   41.1830   29.9060   37.0940 C   0  0  0  0  0  3  0  0  0  0  0  0
   41.3970   31.2060   37.5040 C   0  0  0  0  0  0  0  0  0  0  0  0
   37.6350   28.8320   43.4430 C   0  0  0  0  0  0  0  0  0  0  0  0
   37.6340   27.4160   43.4050 C   0  0  0  0  0  0  0  0  0  0  0  0
   37.7150   26.8280   42.1270 C   0  0  0  0  0  0  0  0  0  0  0  0
   37.7860   27.6320   41.0420 N   0  0  0  0  0  0  0  0  0  0  0  0
   37.7830   28.9840   41.1340 C   0  0  0  0  0  0  0  0  0  0  0  0
   37.7080   29.5690   42.3380 N   0  0  0  0  0  0  0  0  0  0  0  0
   37.5760   29.3400   44.3930 H   0  0  0  0  0  0  0  0  0  0  0  0
   37.5740   26.8580   44.3160 H   0  0  0  0  0  0  0  0  0  0  0  0
   37.7100   25.3590   42.1350 C   0  0  0  0  0  0  0  0  0  0  0  0
   38.7360   24.9250   42.9680 F   0  0  0  0  0  0  0  0  0  0  0  0
   38.0730   24.9520   40.8650 F   0  0  0  0  0  0  0  0  0  0  0  0
   36.5490   24.8050   42.5860 F   0  0  0  0  0  0  0  0  0  0  0  0
  2  3  1  0  0  0  0
  2  1  1  0  0  0  0
  3 26  1  0  0  0  0
  4  8  1  0  0  0  0
  4  3  2  0  0  0  0
  5  4  1  0  0  0  0
  6  5  2  0  0  0  0
  6  7  1  0  0  0  0
  7  2  2  0  0  0  0
  9  5  1  0  0  0  0
 10  6  1  0  0  0  0
 11  7  1  0  0  0  0
 11 12  1  0  0  0  0
 12 13  1  0  0  0  0
 14 12  2  0  0  0  0
 15 14  1  0  0  0  0
 16 21  1  0  0  0  0
 16 15  2  0  0  0  0
 17 16  1  0  0  0  0
 18 19  1  0  0  0  0
 18 17  2  0  0  0  0
 19 20  2  0  0  0  0
 20 21  1  0  0  0  0
 21 11  2  0  0  0  0
 22 28  1  0  0  0  0
 23 22  1  0  0  0  0
 23 29  1  0  0  0  0
 24 30  1  0  0  0  0
 24 23  2  0  0  0  0
 25 26  2  0  0  0  0
 25 24  1  0  0  0  0
 26 27  1  0  0  0  0
 27 22  2  0  0  0  0
 30 33  1  0  0  0  0
 30 31  1  0  0  0  0
 32 30  1  0  0  0  0
M  END
>  <minimizedAffinity>
-6.28710794

$$$$

 OpenBabel03242510413D

 33 36  0  0  0  0  0  0  0  0999 V2000
   39.1370   28.0330   39.7820 Cl  0  0  0  0  0  0  0  0  0  0  0  0
   38.2960   27.9340   41.3230 C   0  0  0  0  0  0  0  0  0  0  0  0
   37.4090   26.8910   41.5070 C   0  0  0  0  0  0  0  0  0  0  0  0
   36.7580   26.8170   42.7020 C   0  0  0  0  0  0  0  0  0  0  0  0
   37.0090   27.7830   43.6760 C   0  0  0  0  0  0  0  0  0  0  0  0
   37.8940   28.8150   43.4760 C   0  0  0  0  0  0  0  0  0  0  0  0
   38.5620   28.9000   42.2620 C   0  0  0  0  0  0  0  0  0  0  0  0
   36.0500   26.0270   42.9170 H   0  0  0  0  0  0  0  0  0  0  0  0
   36.5100   27.7610   44.6430 H   0  0  0  0  0  0  0  0  0  0  0  0
   38.0680   29.5470   44.2480 H   0  0  0  0  0  0  0  0  0  0  0  0
   39.5060   29.9870   42.0290 C   0  0  0  0  0  0  0  0  0  0  0  0
   40.8330   30.0140   42.4170 C   0  0  0  0  0  0  0  0  0  0  0  0
   41.1710   29.1160   42.9480 H   0  0  0  0  0  0  0  0  0  0  0  0
   41.6560   31.0720   42.1600 C   0  0  0  0  0  3  0  0  0  0  0  0
   41.1560   32.1670   41.4840 C   0  0  0  0  0  3  0  0  0  0  0  0
   39.8300   32.1570   41.0890 C   0  0  0  0  0  0  0  0  0  0  0  0
   39.3610   33.2860   40.4060 C   0  0  0  0  0  3  0  0  0  0  0  0
   38.0350   33.2750   40.0100 C   0  0  0  0  0  3  0  0  0  0  0  0
   37.1500   32.2260   40.2440 C   0  0  0  0  0  3  0  0  0  0  0  0
   37.7100   31.1650   40.9210 C   0  0  0  0  0  3  0  0  0  0  0  0
   39.0160   31.0840   41.3550 C   0  0  0  0  0  0  0  0  0  0  0  0
   36.1220   25.2680   38.5000 C   0  0  0  0  0  0  0  0  0  0  0  0
   36.8310   24.0440   38.4520 C   0  0  0  0  0  0  0  0  0  0  0  0
   37.7550   23.8190   39.4930 C   0  0  0  0  0  0  0  0  0  0  0  0
   37.9030   24.7630   40.4490 N   0  0  0  0  0  0  0  0  0  0  0  0
   37.1980   25.9210   40.4470 C   0  0  0  0  0  0  0  0  0  0  0  0
   36.3130   26.1590   39.4700 N   0  0  0  0  0  0  0  0  0  0  0  0
   35.4000   25.4970   37.7310 H   0  0  0  0  0  0  0  0  0  0  0  0
   36.6500   23.3530   37.6560 H   0  0  0  0  0  0  0  0  0  0  0  0
   38.4680   22.5370   39.4030 C   0  0  0  0  0  0  0  0  0  0  0  0
   39.7720   22.7930   38.9910 F   0  0  0  0  0  0  0  0  0  0  0  0
   37.8890   21.8300   38.3660 F   0  0  0  0  0  0  0  0  0  0  0  0
   38.5320   21.8500   40.5780 F   0  0  0  0  0  0  0  0  0  0  0  0
  1  2  1  0  0  0  0
  2  3  2  0  0  0  0
  2  7  1  0  0  0  0
  3  4  1  0  0  0  0
  4  8  1  0  0  0  0
  4  5  2  0  0  0  0
  5  9  1  0  0  0  0
  6  5  1  0  0  0  0
  6 10  1  0  0  0  0
  7  6  2  0  0  0  0
 11  7  1  0  0  0  0
 11 12  1  0  0  0  0
 12 13  1  0  0  0  0
 14 12  2  0  0  0  0
 15 14  1  0  0  0  0
 16 21  1  0  0  0  0
 16 15  2  0  0  0  0
 17 16  1  0  0  0  0
 18 19  1  0  0  0  0
 18 17  2  0  0  0  0
 19 20  2  0  0  0  0
 20 21  1  0  0  0  0
 21 11  2  0  0  0  0
 22 27  1  0  0  0  0
 23 22  2  0  0  0  0
 23 24  1  0  0  0  0
 24 25  2  0  0  0  0
 26 25  1  0  0  0  0
 26  3  1  0  0  0  0
 27 26  2  0  0  0  0
 28 22  1  0  0  0  0
 29 23  1  0  0  0  0
 30 24  1  0  0  0  0
 30 33  1  0  0  0  0
 31 30  1  0  0  0  0
 32 30  1  0  0  0  0
M  END
>  <minimizedAffinity>
-6.23075008

$$$$

 OpenBabel03242510413D

 33 36  0  0  0  0  0  0  0  0999 V2000
   40.2720   29.8390   39.2010 Cl  0  0  0  0  0  0  0  0  0  0  0  0
   39.2220   31.1980   39.5760 C   0  0  0  0  0  0  0  0  0  0  0  0
   37.9460   30.9200   40.0280 C   0  0  0  0  0  0  0  0  0  0  0  0
   37.1340   31.9750   40.3180 C   0  0  0  0  0  0  0  0  0  0  0  0
   37.6150   33.2720   40.1480 C   0  0  0  0  0  0  0  0  0  0  0  0
   38.8860   33.5310   39.6960 C   0  0  0  0  0  0  0  0  0  0  0  0
   39.7230   32.4650   39.3980 C   0  0  0  0  0  0  0  0  0  0  0  0
   36.1230   31.8330   40.6770 H   0  0  0  0  0  0  0  0  0  0  0  0
   36.9990   34.1430   40.3670 H   0  0  0  0  0  0  0  0  0  0  0  0
   39.2310   34.5460   39.5750 H   0  0  0  0  0  0  0  0  0  0  0  0
   41.0760   32.7160   38.9170 C   0  0  0  0  0  0  0  0  0  0  0  0
   41.4450   32.9570   37.6060 C   0  0  0  0  0  0  0  0  0  0  0  0
   40.6150   32.9500   36.8900 H   0  0  0  0  0  0  0  0  0  0  0  0
   42.7380   33.1850   37.2330 C   0  0  0  0  0  3  0  0  0  0  0  0
   43.7290   33.1790   38.1950 C   0  0  0  0  0  3  0  0  0  0  0  0
   43.3770   32.9390   39.5110 C   0  0  0  0  0  0  0  0  0  0  0  0
   44.4100   32.9410   40.4560 C   0  0  0  0  0  3  0  0  0  0  0  0
   44.0570   32.7020   41.7730 C   0  0  0  0  0  3  0  0  0  0  0  0
   42.7580   32.4630   42.2110 C   0  0  0  0  0  3  0  0  0  0  0  0
   41.8170   32.4830   41.2050 C   0  0  0  0  0  3  0  0  0  0  0  0
   42.0710   32.7120   39.8690 C   0  0  0  0  0  0  0  0  0  0  0  0
   36.7160   27.5680   39.2620 C   0  0  0  0  0  0  0  0  0  0  0  0
   36.6980   26.9240   40.5220 C   0  0  0  0  0  0  0  0  0  0  0  0
   37.1240   27.6960   41.6220 C   0  0  0  0  0  0  0  0  0  0  0  0
   37.5150   28.9730   41.4110 N   0  0  0  0  0  0  0  0  0  0  0  0
   37.5140   29.5420   40.1810 C   0  0  0  0  0  0  0  0  0  0  0  0
   37.1120   28.8310   39.1190 N   0  0  0  0  0  0  0  0  0  0  0  0
   36.4010   27.0290   38.3820 H   0  0  0  0  0  0  0  0  0  0  0  0
   36.3730   25.9070   40.5970 H   0  0  0  0  0  0  0  0  0  0  0  0
   37.0890   26.9870   42.9090 C   0  0  0  0  0  0  0  0  0  0  0  0
   36.8650   25.6380   42.6570 F   0  0  0  0  0  0  0  0  0  0  0  0
   35.9610   27.4270   43.5760 F   0  0  0  0  0  0  0  0  0  0  0  0
   38.2380   27.0870   43.6340 F   0  0  0  0  0  0  0  0  0  0  0  0
  1  2  1  0  0  0  0
  2  3  1  0  0  0  0
  3 26  1  0  0  0  0
  3  4  2  0  0  0  0
  4  8  1  0  0  0  0
  5  4  1  0  0  0  0
  5  9  1  0  0  0  0
  6  5  2  0  0  0  0
  7  2  2  0  0  0  0
  7  6  1  0  0  0  0
 10  6  1  0  0  0  0
 11  7  1  0  0  0  0
 11 21  1  0  0  0  0
 12 11  2  0  0  0  0
 13 12  1  0  0  0  0
 14 12  1  0  0  0  0
 14 15  2  0  0  0  0
 15 16  1  0  0  0  0
 16 21  2  0  0  0  0
 16 17  1  0  0  0  0
 17 18  2  0  0  0  0
 18 19  1  0  0  0  0
 20 19  2  0  0  0  0
 21 20  1  0  0  0  0
 22 23  1  0  0  0  0
 23 29  1  0  0  0  0
 23 24  2  0  0  0  0
 24 30  1  0  0  0  0
 25 24  1  0  0  0  0
 26 25  2  0  0  0  0
 27 22  2  0  0  0  0
 27 26  1  0  0  0  0
 28 22  1  0  0  0  0
 30 32  1  0  0  0  0
 30 33  1  0  0  0  0
 31 30  1  0  0  0  0
M  END
>  <minimizedAffinity>
-6.21665049

$$$$

 OpenBabel03242510413D

 33 36  0  0  0  0  0  0  0  0999 V2000
   37.0500   26.7200   38.6750 Cl  0  0  0  0  0  0  0  0  0  0  0  0
   36.7430   28.0810   39.7440 C   0  0  0  0  0  0  0  0  0  0  0  0
   36.2210   29.2330   39.1860 C   0  0  0  0  0  0  0  0  0  0  0  0
   35.9840   30.2870   40.0160 C   0  0  0  0  0  0  0  0  0  0  0  0
   36.2740   30.1630   41.3750 C   0  0  0  0  0  0  0  0  0  0  0  0
   36.7940   29.0110   41.9130 C   0  0  0  0  0  0  0  0  0  0  0  0
   37.0400   27.9310   41.0760 C   0  0  0  0  0  0  0  0  0  0  0  0
   35.5750   31.2200   39.6500 H   0  0  0  0  0  0  0  0  0  0  0  0
   36.1000   30.9810   42.0730 H   0  0  0  0  0  0  0  0  0  0  0  0
   37.0080   28.9440   42.9680 H   0  0  0  0  0  0  0  0  0  0  0  0
   37.5910   26.6980   41.6260 C   0  0  0  0  0  0  0  0  0  0  0  0
   36.9970   25.4490   41.5870 C   0  0  0  0  0  0  0  0  0  0  0  0
   36.0220   25.4240   41.0880 H   0  0  0  0  0  0  0  0  0  0  0  0
   37.5790   24.3390   42.1250 C   0  0  0  0  0  3  0  0  0  0  0  0
   38.8120   24.4510   42.7370 C   0  0  0  0  0  3  0  0  0  0  0  0
   39.4190   25.6930   42.7850 C   0  0  0  0  0  0  0  0  0  0  0  0
   40.6690   25.7670   43.4140 C   0  0  0  0  0  3  0  0  0  0  0  0
   41.2770   27.0100   43.4610 C   0  0  0  0  0  3  0  0  0  0  0  0
   40.7320   28.1750   42.9300 C   0  0  0  0  0  3  0  0  0  0  0  0
   39.5030   27.9950   42.3340 C   0  0  0  0  0  3  0  0  0  0  0  0
   38.8200   26.8010   42.2380 C   0  0  0  0  0  0  0  0  0  0  0  0
   36.6520   29.6630   35.5860 C   0  0  0  0  0  0  0  0  0  0  0  0
   35.3660   29.3850   35.0610 C   0  0  0  0  0  0  0  0  0  0  0  0
   34.3700   29.0500   36.0000 C   0  0  0  0  0  0  0  0  0  0  0  0
   34.6950   29.0150   37.3120 N   0  0  0  0  0  0  0  0  0  0  0  0
   35.9440   29.2890   37.7620 C   0  0  0  0  0  0  0  0  0  0  0  0
   36.9090   29.6120   36.8910 N   0  0  0  0  0  0  0  0  0  0  0  0
   37.4560   29.9260   34.9160 H   0  0  0  0  0  0  0  0  0  0  0  0
   35.1990   29.4360   34.0060 H   0  0  0  0  0  0  0  0  0  0  0  0
   33.0530   28.7690   35.4110 C   0  0  0  0  0  0  0  0  0  0  0  0
   32.6090   29.9200   34.7700 F   0  0  0  0  0  0  0  0  0  0  0  0
   32.1790   28.5760   36.4640 F   0  0  0  0  0  0  0  0  0  0  0  0
   33.0530   27.7590   34.4960 F   0  0  0  0  0  0  0  0  0  0  0  0
  1  2  1  0  0  0  0
  2  7  1  0  0  0  0
  3  2  2  0  0  0  0
  3  4  1  0  0  0  0
  4  5  2  0  0  0  0
  5  6  1  0  0  0  0
  5  9  1  0  0  0  0
  6 10  1  0  0  0  0
  7 11  1  0  0  0  0
  7  6  2  0  0  0  0
  8  4  1  0  0  0  0
 11 21  1  0  0  0  0
 12 11  2  0  0  0  0
 12 14  1  0  0  0  0
 13 12  1  0  0  0  0
 14 15  2  0  0  0  0
 15 16  1  0  0  0  0
 16 17  1  0  0  0  0
 17 18  2  0  0  0  0
 19 18  1  0  0  0  0
 20 19  2  0  0  0  0
 21 20  1  0  0  0  0
 21 16  2  0  0  0  0
 22 27  1  0  0  0  0
 23 22  2  0  0  0  0
 23 24  1  0  0  0  0
 24 25  2  0  0  0  0
 25 26  1  0  0  0  0
 26  3  1  0  0  0  0
 27 26  2  0  0  0  0
 28 22  1  0  0  0  0
 29 23  1  0  0  0  0
 30 24  1  0  0  0  0
 30 32  1  0  0  0  0
 31 30  1  0  0  0  0
 33 30  1  0  0  0  0
M  END
>  <minimizedAffinity>
-6.19571686

$$$$
