
 OpenBabel03252501163D

 37 41  0  0  1  0  0  0  0  0999 V2000
   49.5110   31.3960   48.9170 C   0  0  1  0  0  0  0  0  0  0  0  0
   49.0480   29.9940   48.8380 C   0  0  0  0  0  0  0  0  0  0  0  0
   48.0790   31.1900   49.1960 C   0  0  2  0  0  0  0  0  0  0  0  0
   49.7680   31.9760   48.0070 H   0  0  0  0  0  0  0  0  0  0  0  0
   48.9630   29.5880   47.8200 H   0  0  0  0  0  0  0  0  0  0  0  0
   49.2050   29.2860   49.6600 H   0  0  0  0  0  0  0  0  0  0  0  0
   47.6770   31.1310   50.2180 H   0  0  0  0  0  0  0  0  0  0  0  0
   51.6460   31.1060   51.9950 C   0  0  0  0  0  0  0  0  0  0  0  0
   50.7940   30.7210   50.9750 C   0  0  0  0  0  0  0  0  0  0  0  0
   50.4330   31.6970   50.0530 C   0  0  0  0  0  0  0  0  0  0  0  0
   50.9150   32.9540   50.1840 N   0  0  0  0  0  0  0  0  0  0  0  0
   51.7510   33.2840   51.2070 C   0  0  0  0  0  0  0  0  0  0  0  0
   52.1100   32.3470   52.1100 N   0  0  0  0  0  0  0  0  0  0  0  0
   50.4040   29.7250   50.8620 H   0  0  0  0  0  0  0  0  0  0  0  0
   52.1400   34.2990   51.3140 H   0  0  0  0  0  0  0  0  0  0  0  0
   52.0630   30.0750   52.9950 C   0  0  0  0  0  0  0  0  0  0  0  0
   50.9600   29.7450   53.7480 F   0  0  0  0  0  0  0  0  0  0  0  0
   53.0090   30.6510   53.8150 F   0  0  0  0  0  0  0  0  0  0  0  0
   52.5390   28.9490   52.3680 F   0  0  0  0  0  0  0  0  0  0  0  0
   47.1570   31.5050   48.0670 C   0  0  0  0  0  0  0  0  0  0  0  0
   46.1490   30.7270   47.5440 C   0  0  0  0  0  0  0  0  0  0  0  0
   45.6380   31.5200   46.5390 C   0  0  0  0  0  0  0  0  0  0  0  0
   46.3300   32.7360   46.4760 C   0  0  0  0  0  0  0  0  0  0  0  0
   47.2000   32.6160   47.4180 O   0  0  0  0  0  0  0  0  0  0  0  0
   45.8590   29.7380   47.8670 H   0  0  0  0  0  0  0  0  0  0  0  0
   44.8150   31.1900   45.9220 H   0  0  0  0  0  0  0  0  0  0  0  0
   45.9650   33.7240   45.4990 C   0  0  0  0  0  0  0  0  0  0  0  0
   44.9570   34.6480   45.6990 C   0  0  0  0  0  0  0  0  0  0  0  0
   44.3890   34.6650   46.6190 H   0  0  0  0  0  0  0  0  0  0  0  0
   44.5780   35.6080   44.7930 C   0  0  0  0  0  0  0  0  0  0  0  0
   45.2280   35.6880   43.5830 C   0  0  0  0  0  0  0  0  0  0  0  0
   46.2430   34.7990   43.3150 C   0  0  0  0  0  0  0  0  0  0  0  0
   46.8830   34.8940   42.0980 C   0  0  0  0  0  0  0  0  0  0  0  0
   47.9070   34.0330   41.7730 C   0  0  0  0  0  0  0  0  0  0  0  0
   48.2650   33.0710   42.7160 C   0  0  0  0  0  0  0  0  0  0  0  0
   47.5960   33.0240   43.9070 C   0  0  0  0  0  0  0  0  0  0  0  0
   46.5680   33.8660   44.2700 C   0  0  0  0  0  0  0  0  0  0  0  0
  1  4  1  6  0  0  0
  1  3  1  0  0  0  0
  1 10  1  0  0  0  0
  2  1  1  0  0  0  0
  2  3  1  0  0  0  0
  2  6  1  0  0  0  0
  3  7  1  1  0  0  0
  5  2  1  0  0  0  0
  8 13  1  0  0  0  0
  8 16  1  0  0  0  0
  9  8  2  0  0  0  0
 10 11  2  0  0  0  0
 10  9  1  0  0  0  0
 11 12  1  0  0  0  0
 12 15  1  0  0  0  0
 12 13  2  0  0  0  0
 14  9  1  0  0  0  0
 16 17  1  0  0  0  0
 16 18  1  0  0  0  0
 19 16  1  0  0  0  0
 20  3  1  0  0  0  0
 21 25  1  0  0  0  0
 21 20  2  0  0  0  0
 22 21  1  0  0  0  0
 23 22  2  0  0  0  0
 23 24  1  0  0  0  0
 24 20  1  0  0  0  0
 26 22  1  0  0  0  0
 27 28  1  0  0  0  0
 27 23  1  0  0  0  0
 28 29  1  0  0  0  0
 30 28  2  0  0  0  0
 31 30  1  0  0  0  0
 32 31  2  0  0  0  0
 32 37  1  0  0  0  0
 33 32  1  0  0  0  0
 34 33  2  0  0  0  0
 34 35  1  0  0  0  0
 35 36  2  0  0  0  0
 36 37  1  0  0  0  0
 37 27  2  0  0  0  0
M  END
>  <minimizedAffinity>
-7.46392202

>  <minimizedRMSD>
7.0638504

$$$$
