
 OpenBabel03252508293D

 41 45  0  0  1  0  0  0  0  0999 V2000
   41.8250   35.4100   39.1130 N   0  0  0  0  0  0  0  0  0  0  0  0
   40.3650   35.3870   39.3460 C   0  0  2  0  0  0  0  0  0  0  0  0
   40.0200   35.7350   40.7510 C   0  0  0  0  0  0  0  0  0  0  0  0
   41.1350   36.2820   41.4810 N   0  0  0  0  0  0  0  0  0  0  0  0
   42.3140   35.5040   41.4000 C   0  0  0  0  0  0  0  0  0  0  0  0
   42.3860   34.5980   40.1630 C   0  0  2  0  0  0  0  0  0  0  0  0
   42.1050   36.4350   39.3230 H   0  0  0  0  0  0  0  0  0  0  0  0
   39.9040   36.1600   38.6840 H   0  0  0  0  0  0  0  0  0  0  0  0
   39.2020   36.5090   40.8100 H   0  0  0  0  0  0  0  0  0  0  0  0
   39.7350   34.8960   41.4120 H   0  0  0  0  0  0  0  0  0  0  0  0
   41.2480   37.3090   41.2830 H   0  0  0  0  0  0  0  0  0  0  0  0
   42.5060   34.8710   42.2880 H   0  0  0  0  0  0  0  0  0  0  0  0
   43.1740   36.2150   41.3700 H   0  0  0  0  0  0  0  0  0  0  0  0
   41.7190   33.7000   40.3530 H   0  0  0  0  0  0  0  0  0  0  0  0
   43.7860   34.2100   40.0920 C   0  0  0  0  0  0  0  0  0  0  0  0
   43.9300   33.4240   38.9300 C   0  0  0  0  0  0  0  0  0  0  0  0
   43.2010   33.1360   38.1530 H   0  0  0  0  0  0  0  0  0  0  0  0
   45.1510   32.8490   38.5730 C   0  0  0  0  0  3  0  0  0  0  0  0
   46.2590   33.0440   39.3680 C   0  0  0  0  0  3  0  0  0  0  0  0
   46.1650   33.8030   40.5070 C   0  0  0  0  0  0  0  0  0  0  0  0
   47.1930   34.0840   41.3750 C   0  0  0  0  0  3  0  0  0  0  0  0
   47.0710   34.8620   42.5080 C   0  0  0  0  0  3  0  0  0  0  0  0
   45.7990   35.3880   42.7620 C   0  0  0  0  0  3  0  0  0  0  0  0
   44.7520   35.1230   41.9110 C   0  0  0  0  0  3  0  0  0  0  0  0
   44.9430   34.3410   40.8040 C   0  0  0  0  0  0  0  0  0  0  0  0
   39.5520   32.0870   38.1680 C   0  0  0  0  0  0  0  0  0  0  0  0
   38.6850   32.2760   39.2510 C   0  0  0  0  0  0  0  0  0  0  0  0
   38.8920   33.5330   39.7970 C   0  0  0  0  0  0  0  0  0  0  0  0
   39.8710   34.0730   39.0410 N   0  0  0  0  0  0  0  0  0  0  0  0
   40.2430   33.2240   38.1000 N   0  0  0  0  0  0  0  0  0  0  0  0
   37.9970   31.4500   39.5110 H   0  0  0  0  0  0  0  0  0  0  0  0
   38.2160   33.6820   40.6310 H   0  0  0  0  0  0  0  0  0  0  0  0
   40.6500   28.8570   36.5740 C   0  0  0  0  0  0  0  0  0  0  0  0
   40.7000   29.9980   37.4310 C   0  0  0  0  0  0  0  0  0  0  0  0
   39.6280   30.8880   37.3410 C   0  0  0  0  0  0  0  0  0  0  0  0
   38.6200   30.6400   36.4740 N   0  0  0  0  0  0  0  0  0  0  0  0
   38.6020   29.5550   35.6780 C   0  0  0  0  0  0  0  0  0  0  0  0
   39.6110   28.6870   35.7430 N   0  0  0  0  0  0  0  0  0  0  0  0
   41.4750   28.1610   36.6370 H   0  0  0  0  0  0  0  0  0  0  0  0
   41.5040   30.1920   38.1200 H   0  0  0  0  0  0  0  0  0  0  0  0
   37.7830   29.3790   34.9920 H   0  0  0  0  0  0  0  0  0  0  0  0
  1  7  1  0  0  0  0
  1  2  1  0  0  0  0
  1  6  1  0  0  0  0
  2  8  1  6  0  0  0
  2  3  1  0  0  0  0
  3  9  1  0  0  0  0
  3 10  1  0  0  0  0
  3  4  1  0  0  0  0
  5  4  1  0  0  0  0
  5 12  1  0  0  0  0
  6 14  1  1  0  0  0
  6  5  1  0  0  0  0
 11  4  1  0  0  0  0
 13  5  1  0  0  0  0
 15  6  1  0  0  0  0
 15 25  1  0  0  0  0
 16 15  2  0  0  0  0
 17 16  1  0  0  0  0
 18 16  1  0  0  0  0
 18 19  2  0  0  0  0
 19 20  1  0  0  0  0
 20 25  2  0  0  0  0
 20 21  1  0  0  0  0
 21 22  2  0  0  0  0
 22 23  1  0  0  0  0
 24 23  2  0  0  0  0
 25 24  1  0  0  0  0
 26 27  1  0  0  0  0
 27 31  1  0  0  0  0
 27 28  2  0  0  0  0
 28 32  1  0  0  0  0
 29  2  1  0  0  0  0
 29 28  1  0  0  0  0
 30 26  2  0  0  0  0
 30 29  1  0  0  0  0
 33 39  1  0  0  0  0
 33 34  1  0  0  0  0
 34 40  1  0  0  0  0
 35 34  2  0  0  0  0
 35 26  1  0  0  0  0
 36 35  1  0  0  0  0
 37 38  1  0  0  0  0
 37 36  2  0  0  0  0
 38 33  2  0  0  0  0
 41 37  1  0  0  0  0
M  END
>  <minimizedAffinity>
-6.36434269

>  <minimizedRMSD>
7.0207715

$$$$
