
 OpenBabel03242511093D

 45 50  0  0  1  0  0  0  0  0999 V2000
   45.9520   32.1360   44.1740 C   0  0  0  0  0  0  0  0  0  0  0  0
   46.2180   31.4720   45.3670 C   0  0  0  0  0  0  0  0  0  0  0  0
   46.0120   32.0360   46.6180 C   0  0  0  0  0  0  0  0  0  0  0  0
   45.5160   33.3270   46.7250 C   0  0  0  0  0  0  0  0  0  0  0  0
   45.2460   34.0010   45.5740 C   0  0  0  0  0  0  0  0  0  0  0  0
   44.7520   35.2830   45.6650 C   0  0  0  0  0  0  0  0  0  0  0  0
   44.4480   36.0340   44.5370 C   0  0  0  0  0  0  0  0  0  0  0  0
   44.6670   35.4290   43.3030 C   0  0  0  0  0  0  0  0  0  0  0  0
   45.1670   34.1350   43.2490 C   0  0  0  0  0  0  0  0  0  0  0  0
   45.4640   33.4060   44.3590 C   0  0  0  0  0  0  0  0  0  0  0  0
   46.6050   30.4650   45.3860 H   0  0  0  0  0  0  0  0  0  0  0  0
   46.2340   31.4820   47.5290 H   0  0  0  0  0  0  0  0  0  0  0  0
   45.3770   33.7150   47.7200 H   0  0  0  0  0  0  0  0  0  0  0  0
   44.5980   35.7090   46.6590 H   0  0  0  0  0  0  0  0  0  0  0  0
   44.0650   37.0310   44.7310 H   0  0  0  0  0  0  0  0  0  0  0  0
   44.3940   36.1100   42.5100 H   0  0  0  0  0  0  0  0  0  0  0  0
   45.2530   33.7850   41.8440 C   0  0  0  0  0  0  0  0  0  0  0  0
   44.4130   33.0820   41.0020 C   0  0  0  0  0  0  0  0  0  0  0  0
   43.5070   32.7780   41.5340 H   0  0  0  0  0  0  0  0  0  0  0  0
   44.7170   32.8180   39.6890 C   0  0  0  0  0  3  0  0  0  0  0  0
   45.8990   33.2440   39.1190 C   0  0  0  0  0  3  0  0  0  0  0  0
   46.7620   33.9490   39.9310 C   0  0  0  0  0  0  0  0  0  0  0  0
   47.9300   34.3560   39.3230 C   0  0  0  0  0  3  0  0  0  0  0  0
   48.8510   35.0670   40.0630 C   0  0  0  0  0  3  0  0  0  0  0  0
   48.6000   35.3620   41.3860 C   0  0  0  0  0  3  0  0  0  0  0  0
   47.4130   34.9250   41.9310 C   0  0  0  0  0  3  0  0  0  0  0  0
   46.4510   34.2110   41.2470 C   0  0  0  0  0  0  0  0  0  0  0  0
   46.2000   31.4860   42.9550 N   0  0  0  0  0  0  0  0  0  0  0  0
   45.4990   31.5230   42.1830 H   0  0  0  0  0  0  0  0  0  0  0  0
   48.7280   31.3080   42.6660 C   0  0  1  0  0  0  0  0  0  0  0  0
   48.0760   30.8580   41.3770 C   0  0  0  0  0  0  0  0  0  0  0  0
   47.3980   30.7240   42.7390 C   0  0  2  0  0  0  0  0  0  0  0  0
   48.9720   32.3960   42.6170 H   0  0  0  0  0  0  0  0  0  0  0  0
   47.6910   31.5980   40.6730 H   0  0  0  0  0  0  0  0  0  0  0  0
   48.4620   29.9300   40.8860 H   0  0  0  0  0  0  0  0  0  0  0  0
   47.3640   29.6750   43.1400 H   0  0  0  0  0  0  0  0  0  0  0  0
   50.8120   28.9960   44.6990 C   0  0  0  0  0  0  0  0  0  0  0  0
   52.0910   29.1760   44.0990 C   0  0  0  0  0  0  0  0  0  0  0  0
   52.2000   30.0800   43.0080 C   0  0  0  0  0  0  0  0  0  0  0  0
   51.1130   30.7280   42.5780 N   0  0  0  0  0  0  0  0  0  0  0  0
   49.9050   30.5320   43.1740 C   0  0  0  0  0  0  0  0  0  0  0  0
   49.7500   29.6690   44.2330 N   0  0  0  0  0  0  0  0  0  0  0  0
   50.7410   28.2960   45.5410 H   0  0  0  0  0  0  0  0  0  0  0  0
   52.9580   28.6540   44.4480 H   0  0  0  0  0  0  0  0  0  0  0  0
   53.1720   30.2240   42.5420 H   0  0  0  0  0  0  0  0  0  0  0  0
  1 10  2  0  0  0  0
  1  2  1  0  0  0  0
  2 11  1  0  0  0  0
  2  3  2  0  0  0  0
  3  4  1  0  0  0  0
  3 12  1  0  0  0  0
  4 13  1  0  0  0  0
  5  6  1  0  0  0  0
  5  4  2  0  0  0  0
  6 14  1  0  0  0  0
  7 15  1  0  0  0  0
  7  6  2  0  0  0  0
  8  7  1  0  0  0  0
  9  8  2  0  0  0  0
  9 10  1  0  0  0  0
 10  5  1  0  0  0  0
 16  8  1  0  0  0  0
 17  9  1  0  0  0  0
 18 19  1  0  0  0  0
 18 17  2  0  0  0  0
 20 18  1  0  0  0  0
 21 20  2  0  0  0  0
 21 22  1  0  0  0  0
 22 27  1  0  0  0  0
 23 22  2  0  0  0  0
 23 24  1  0  0  0  0
 24 25  2  0  0  0  0
 25 26  1  0  0  0  0
 27 17  1  0  0  0  0
 27 26  2  0  0  0  0
 28  1  1  0  0  0  0
 29 28  1  0  0  0  0
 30 33  1  1  0  0  0
 30 32  1  0  0  0  0
 30 41  1  0  0  0  0
 31 30  1  0  0  0  0
 31 32  1  0  0  0  0
 32 28  1  0  0  0  0
 32 36  1  1  0  0  0
 34 31  1  0  0  0  0
 35 31  1  0  0  0  0
 37 43  1  0  0  0  0
 38 44  1  0  0  0  0
 38 37  2  0  0  0  0
 39 38  1  0  0  0  0
 40 39  2  0  0  0  0
 40 41  1  0  0  0  0
 41 42  2  0  0  0  0
 42 37  1  0  0  0  0
 45 39  1  0  0  0  0
M  END
>  <minimizedAffinity>
-6.21095562

>  <minimizedRMSD>
1.72053516

$$$$
