
 OpenBabel03242511053D

 27 30  0  0  1  0  0  0  0  0999 V2000
   46.4020   32.6610   45.8460 C   0  0  1  0  0  0  0  0  0  0  0  0
   46.9720   32.8510   47.2030 C   0  0  0  0  0  0  0  0  0  0  0  0
   45.5940   32.2100   47.0040 C   0  0  2  0  0  0  0  0  0  0  0  0
   47.0000   31.9560   45.2360 H   0  0  0  0  0  0  0  0  0  0  0  0
   47.0280   33.9070   47.5400 H   0  0  0  0  0  0  0  0  0  0  0  0
   47.7790   32.2240   47.5770 H   0  0  0  0  0  0  0  0  0  0  0  0
   44.7700   32.8890   47.3000 H   0  0  0  0  0  0  0  0  0  0  0  0
   45.3890   30.7950   47.3110 C   0  0  0  0  0  0  0  0  0  0  0  0
   45.2370   30.2540   48.5550 C   0  0  0  0  0  0  0  0  0  0  0  0
   45.2700   30.9320   49.4110 H   0  0  0  0  0  0  0  0  0  0  0  0
   45.0430   28.9190   48.8420 C   0  0  0  0  0  0  0  0  0  0  0  0
   45.0000   28.0510   47.7470 C   0  0  0  0  0  0  0  0  0  0  0  0
   45.1510   28.5670   46.4720 C   0  0  0  0  0  0  0  0  0  0  0  0
   45.1000   27.6630   45.4110 C   0  0  0  0  0  0  0  0  0  0  0  0
   45.2460   28.1260   44.1030 C   0  0  0  0  0  0  0  0  0  0  0  0
   45.4380   29.4660   43.8490 C   0  0  0  0  0  0  0  0  0  0  0  0
   45.4820   30.3290   44.9280 C   0  0  0  0  0  0  0  0  0  0  0  0
   45.3420   29.9140   46.2410 C   0  0  0  0  0  0  0  0  0  0  0  0
   44.5760   35.7260   44.8230 C   0  0  0  0  0  0  0  0  0  0  0  0
   45.1130   35.9740   43.5240 C   0  0  0  0  0  0  0  0  0  0  0  0
   46.0980   35.0710   43.0440 C   0  0  0  0  0  0  0  0  0  0  0  0
   46.4850   34.0370   43.8130 N   0  0  0  0  0  0  0  0  0  0  0  0
   45.9420   33.8390   45.0550 C   0  0  0  0  0  0  0  0  0  0  0  0
   45.0050   34.6740   45.5450 N   0  0  0  0  0  0  0  0  0  0  0  0
   43.8340   36.4180   45.1670 H   0  0  0  0  0  0  0  0  0  0  0  0
   44.8120   36.7950   42.9020 H   0  0  0  0  0  0  0  0  0  0  0  0
   46.5440   35.2040   42.0690 H   0  0  0  0  0  0  0  0  0  0  0  0
  1  4  1  6  0  0  0
  1  3  1  0  0  0  0
  1  2  1  0  0  0  0
  2  5  1  0  0  0  0
  2  6  1  0  0  0  0
  3  2  1  0  0  0  0
  3  7  1  1  0  0  0
  3  8  1  0  0  0  0
  8  9  1  0  0  0  0
  9 11  2  0  0  0  0
  9 10  1  0  0  0  0
 12 11  1  0  0  0  0
 13 12  2  0  0  0  0
 14 13  1  0  0  0  0
 15 14  2  0  0  0  0
 16 15  1  0  0  0  0
 16 17  2  0  0  0  0
 17 18  1  0  0  0  0
 18 13  1  0  0  0  0
 18  8  2  0  0  0  0
 19 25  1  0  0  0  0
 19 24  1  0  0  0  0
 20 19  2  0  0  0  0
 21 20  1  0  0  0  0
 21 22  2  0  0  0  0
 22 23  1  0  0  0  0
 23 24  2  0  0  0  0
 23  1  1  0  0  0  0
 26 20  1  0  0  0  0
 27 21  1  0  0  0  0
M  END
>  <minimizedAffinity>
-4.69031906

>  <minimizedRMSD>
1.2829175

$$$$
