
 OpenBabel03252506373D

 46 50  0  0  1  0  0  0  0  0999 V2000
   44.5130   35.5140   45.1220 C   0  0  0  0  0  0  0  0  0  0  0  0
   45.1670   35.5040   43.8810 C   0  0  0  0  0  0  0  0  0  0  0  0
   46.0870   34.5460   43.6260 C   0  0  0  0  0  0  0  0  0  0  0  0
   46.3230   33.6370   44.6060 N   0  0  0  0  0  0  0  0  0  0  0  0
   45.7030   33.6500   45.7760 C   0  0  0  0  0  0  0  0  0  0  0  0
   44.7920   34.5820   46.0550 N   0  0  0  0  0  0  0  0  0  0  0  0
   46.0340   32.6390   46.7440 N   0  0  0  0  0  0  0  0  0  0  0  0
   45.2940   32.3910   47.9300 C   0  0  0  0  0  0  0  0  0  0  0  0
   46.3730   32.0470   48.9420 C   0  0  0  0  0  0  0  0  0  0  0  0
   47.6520   31.9440   48.1720 C   0  0  0  0  0  0  0  0  0  0  0  0
   47.1550   31.7300   46.7440 C   0  0  1  0  0  0  0  0  0  0  0  0
   43.7650   36.2550   45.3900 H   0  0  0  0  0  0  0  0  0  0  0  0
   46.5920   34.5230   42.6910 H   0  0  0  0  0  0  0  0  0  0  0  0
   44.9380   33.4110   48.2880 H   0  0  0  0  0  0  0  0  0  0  0  0
   44.4600   31.7690   48.0070 H   0  0  0  0  0  0  0  0  0  0  0  0
   46.3980   32.6830   49.8230 H   0  0  0  0  0  0  0  0  0  0  0  0
   46.1330   31.0150   49.3160 H   0  0  0  0  0  0  0  0  0  0  0  0
   48.2930   31.1030   48.5050 H   0  0  0  0  0  0  0  0  0  0  0  0
   48.1780   32.9220   48.2050 H   0  0  0  0  0  0  0  0  0  0  0  0
   47.9600   32.0170   46.0440 H   0  0  0  0  0  0  0  0  0  0  0  0
   44.8020   36.5380   42.9520 N   0  0  0  0  0  0  0  0  0  0  0  0
   44.0030   36.1240   42.4290 H   0  0  0  0  0  0  0  0  0  0  0  0
   45.2920   37.4630   42.8930 H   0  0  0  0  0  0  0  0  0  0  0  0
   46.6450   30.0360   46.5600 S   0  0  0  0  0  0  0  0  0  0  0  0
   45.5970   30.5200   43.4300 O   0  0  0  0  0  0  0  0  0  0  0  0
   44.9780   29.9800   44.3590 C   0  0  0  0  0  0  0  0  0  0  0  0
   45.0910   29.7520   45.8210 C   0  0  1  0  0  0  0  0  0  0  0  0
   44.5530   28.3490   45.9600 C   0  0  0  0  0  0  0  0  0  0  0  0
   43.2300   28.5610   45.2140 C   0  0  0  0  0  0  0  0  0  0  0  0
   43.7300   29.3200   44.0750 N   0  0  0  0  0  0  0  0  0  0  0  0
   44.2110   30.3560   46.1750 H   0  0  0  0  0  0  0  0  0  0  0  0
   44.3240   28.1190   47.0150 H   0  0  0  0  0  0  0  0  0  0  0  0
   45.1520   27.5940   45.4490 H   0  0  0  0  0  0  0  0  0  0  0  0
   42.5060   29.1060   45.8280 H   0  0  0  0  0  0  0  0  0  0  0  0
   42.8780   27.5540   44.9040 H   0  0  0  0  0  0  0  0  0  0  0  0
   42.9350   29.3030   42.8730 C   0  0  0  0  0  0  0  0  0  0  0  0
   41.8920   30.2240   42.8960 C   0  0  0  0  0  0  0  0  0  0  0  0
   41.6750   30.8940   43.7130 H   0  0  0  0  0  0  0  0  0  0  0  0
   41.0120   30.3530   41.8210 C   0  0  0  0  0  3  0  0  0  0  0  0
   41.2280   29.5220   40.7320 C   0  0  0  0  0  3  0  0  0  0  0  0
   42.2580   28.6150   40.7130 C   0  0  0  0  0  0  0  0  0  0  0  0
   42.5020   27.7710   39.6410 C   0  0  0  0  0  3  0  0  0  0  0  0
   43.5390   26.8850   39.6700 C   0  0  0  0  0  3  0  0  0  0  0  0
   44.4030   26.7780   40.7610 C   0  0  0  0  0  3  0  0  0  0  0  0
   44.1840   27.6150   41.8550 C   0  0  0  0  0  3  0  0  0  0  0  0
   43.1380   28.4860   41.7900 C   0  0  0  0  0  0  0  0  0  0  0  0
  1 12  1  0  0  0  0
  1  6  1  0  0  0  0
  2  1  2  0  0  0  0
  3  2  1  0  0  0  0
  3  4  2  0  0  0  0
  4  5  1  0  0  0  0
  5  6  2  0  0  0  0
  5  7  1  0  0  0  0
  7  8  1  0  0  0  0
  8 15  1  0  0  0  0
  8 14  1  0  0  0  0
  8  9  1  0  0  0  0
  9 17  1  0  0  0  0
  9 16  1  0  0  0  0
 10 19  1  0  0  0  0
 10 18  1  0  0  0  0
 10  9  1  0  0  0  0
 11 20  1  6  0  0  0
 11  7  1  0  0  0  0
 11 10  1  0  0  0  0
 13  3  1  0  0  0  0
 21  2  1  0  0  0  0
 22 21  1  0  0  0  0
 23 21  1  0  0  0  0
 24 11  1  0  0  0  0
 25 26  2  0  0  0  0
 26 27  1  0  0  0  0
 27 28  1  0  0  0  0
 27 31  1  1  0  0  0
 27 24  1  0  0  0  0
 28 32  1  0  0  0  0
 29 34  1  0  0  0  0
 29 28  1  0  0  0  0
 30 26  1  0  0  0  0
 30 29  1  0  0  0  0
 33 28  1  0  0  0  0
 35 29  1  0  0  0  0
 36 37  1  0  0  0  0
 36 30  1  0  0  0  0
 37 38  1  0  0  0  0
 39 37  2  0  0  0  0
 40 39  1  0  0  0  0
 41 40  2  0  0  0  0
 41 46  1  0  0  0  0
 42 43  2  0  0  0  0
 42 41  1  0  0  0  0
 43 44  1  0  0  0  0
 44 45  2  0  0  0  0
 46 45  1  0  0  0  0
 46 36  2  0  0  0  0
M  END
>  <minimizedAffinity>
-5.38013887

>  <minimizedRMSD>
0.154889509

$$$$
