
 OpenBabel03242515393D

 38 42  0  0  0  0  0  0  0  0999 V2000
   44.1530   34.8360   41.1180 C   0  0  0  0  0  0  0  0  0  0  0  0
   44.1530   33.9690   40.0450 C   0  0  0  0  0  0  0  0  0  0  0  0
   45.3720   33.4220   39.6330 C   0  0  0  0  0  0  0  0  0  0  0  0
   46.4820   33.7940   40.3390 N   0  0  0  0  0  0  0  0  0  0  0  0
   46.4530   34.6320   41.3710 C   0  0  0  0  0  0  0  0  0  0  0  0
   45.2870   35.1270   41.7250 N   0  0  0  0  0  0  0  0  0  0  0  0
   43.2210   33.7070   39.5900 H   0  0  0  0  0  0  0  0  0  0  0  0
   45.6160   32.4620   38.6110 C   0  0  0  0  0  0  0  0  0  0  0  0
   44.8240   31.3010   38.6110 C   0  0  0  0  0  0  0  0  0  0  0  0
   44.0500   31.1720   39.3740 H   0  0  0  0  0  0  0  0  0  0  0  0
   44.9170   30.2600   37.7200 C   0  0  0  0  0  0  0  0  0  0  0  0
   45.8580   30.3200   36.7230 C   0  0  0  0  0  0  0  0  0  0  0  0
   46.6720   31.4220   36.6570 C   0  0  0  0  0  0  0  0  0  0  0  0
   47.6390   31.4720   35.6840 C   0  0  0  0  0  0  0  0  0  0  0  0
   48.5290   32.5470   35.5830 C   0  0  0  0  0  0  0  0  0  0  0  0
   48.3660   33.5500   36.5290 C   0  0  0  0  0  0  0  0  0  0  0  0
   47.3840   33.4590   37.4860 C   0  0  0  0  0  0  0  0  0  0  0  0
   46.5180   32.4190   37.5830 C   0  0  0  0  0  0  0  0  0  0  0  0
   42.5480   35.5150   41.6020 S   0  0  0  0  0  0  0  0  0  0  0  0
   40.5450   34.8930   39.9060 C   0  0  0  0  0  0  0  0  0  0  0  0
   41.2280   34.4610   41.0290 C   0  0  0  0  0  0  0  0  0  0  0  0
   40.8760   33.2760   41.6360 C   0  0  0  0  0  0  0  0  0  0  0  0
   39.8430   32.4870   41.1570 C   0  0  0  0  0  0  0  0  0  0  0  0
   39.1560   32.9450   40.0100 C   0  0  0  0  0  0  0  0  0  0  0  0
   39.5000   34.1300   39.3920 C   0  0  0  0  0  0  0  0  0  0  0  0
   38.1630   31.9860   39.7210 O   0  0  0  0  0  0  0  0  0  0  0  0
   38.0420   31.1800   40.8770 C   0  0  0  0  0  0  0  0  0  0  0  0
   39.2810   31.2740   41.5560 O   0  0  0  0  0  0  0  0  0  0  0  0
   40.7450   35.8090   39.3550 H   0  0  0  0  0  0  0  0  0  0  0  0
   41.4230   32.9620   42.5070 H   0  0  0  0  0  0  0  0  0  0  0  0
   38.9460   34.4460   38.5130 H   0  0  0  0  0  0  0  0  0  0  0  0
   37.8210   30.1490   40.5250 H   0  0  0  0  0  0  0  0  0  0  0  0
   37.2310   31.5960   41.5210 H   0  0  0  0  0  0  0  0  0  0  0  0
   47.5540   35.0200   42.0960 O   0  0  0  0  0  0  0  0  0  0  0  0
   48.7590   35.2850   41.4410 C   0  0  0  0  0  0  0  0  0  0  0  0
   49.7250   34.3610   41.6680 F   0  0  0  0  0  0  0  0  0  0  0  0
   48.4140   35.4080   40.0820 F   0  0  0  0  0  0  0  0  0  0  0  0
   49.2150   36.5150   41.9190 F   0  0  0  0  0  0  0  0  0  0  0  0
  1 19  1  0  0  0  0
  1  6  1  0  0  0  0
  2  1  2  0  0  0  0
  3  2  1  0  0  0  0
  3  4  2  0  0  0  0
  4  5  1  0  0  0  0
  5  6  2  0  0  0  0
  5 34  1  0  0  0  0
  7  2  1  0  0  0  0
  8  3  1  0  0  0  0
  9  8  1  0  0  0  0
  9 10  1  0  0  0  0
 11  9  2  0  0  0  0
 12 11  1  0  0  0  0
 13 12  2  0  0  0  0
 13 18  1  0  0  0  0
 14 13  1  0  0  0  0
 15 14  2  0  0  0  0
 15 16  1  0  0  0  0
 16 17  2  0  0  0  0
 17 18  1  0  0  0  0
 18  8  2  0  0  0  0
 20 21  1  0  0  0  0
 21 19  1  0  0  0  0
 21 22  2  0  0  0  0
 22 30  1  0  0  0  0
 23 28  1  0  0  0  0
 23 22  1  0  0  0  0
 24 23  2  0  0  0  0
 25 20  2  0  0  0  0
 25 24  1  0  0  0  0
 26 24  1  0  0  0  0
 26 27  1  0  0  0  0
 27 33  1  0  0  0  0
 27 28  1  0  0  0  0
 29 20  1  0  0  0  0
 31 25  1  0  0  0  0
 32 27  1  0  0  0  0
 35 36  1  0  0  0  0
 35 38  1  0  0  0  0
 35 34  1  0  0  0  0
 37 35  1  0  0  0  0
M  END
>  <minimizedAffinity>
-6.61213112

>  <minimizedRMSD>
0.645942271

$$$$
