
 OpenBabel03242515243D

 23 25  0  0  0  0  0  0  0  0999 V2000
   44.4060   35.4010   41.6910 C   0  0  0  0  0  0  0  0  0  0  0  0
   45.4180   35.5460   41.2170 H   0  0  0  0  0  0  0  0  0  0  0  0
   43.9300   36.3690   41.7040 H   0  0  0  0  0  0  0  0  0  0  0  0
   43.5840   34.4080   40.9910 C   0  0  0  0  0  0  0  0  0  0  0  0
   44.0840   33.1910   40.5740 C   0  0  0  0  0  0  0  0  0  0  0  0
   45.1300   32.9320   40.7880 H   0  0  0  0  0  0  0  0  0  0  0  0
   43.3350   32.2410   39.8840 C   0  0  0  0  0  3  0  0  0  0  0  0
   41.9950   32.5260   39.5920 C   0  0  0  0  0  3  0  0  0  0  0  0
   41.4430   33.7250   39.9860 C   0  0  0  0  0  0  0  0  0  0  0  0
   40.1090   34.0040   39.7050 C   0  0  0  0  0  3  0  0  0  0  0  0
   39.6140   35.2090   40.1300 C   0  0  0  0  0  3  0  0  0  0  0  0
   40.3430   36.1680   40.8180 C   0  0  0  0  0  3  0  0  0  0  0  0
   41.6750   35.8350   41.0730 C   0  0  0  0  0  3  0  0  0  0  0  0
   42.2540   34.6260   40.6720 C   0  0  0  0  0  0  0  0  0  0  0  0
   44.3680   35.7950   44.0870 C   0  0  0  0  0  0  0  0  0  0  0  0
   44.7240   34.8940   43.0590 C   0  0  0  0  0  0  0  0  0  0  0  0
   45.3050   33.6950   43.4100 C   0  0  0  0  0  0  0  0  0  0  0  0
   45.4940   33.4620   44.7210 N   0  0  0  0  0  0  0  0  0  0  0  0
   45.1560   34.3160   45.6960 C   0  0  0  0  0  0  0  0  0  0  0  0
   44.5790   35.5120   45.3920 N   0  0  0  0  0  0  0  0  0  0  0  0
   43.9020   36.7660   43.8810 H   0  0  0  0  0  0  0  0  0  0  0  0
   45.5500   33.0540   42.5860 H   0  0  0  0  0  0  0  0  0  0  0  0
   45.3190   34.1070   46.7440 H   0  0  0  0  0  0  0  0  0  0  0  0
  1  3  1  0  0  0  0
  1 16  1  0  0  0  0
  2  1  1  0  0  0  0
  4  1  1  0  0  0  0
  5  6  1  0  0  0  0
  5  4  2  0  0  0  0
  7  5  1  0  0  0  0
  8  7  2  0  0  0  0
  8  9  1  0  0  0  0
  9 14  1  0  0  0  0
 10  9  2  0  0  0  0
 10 11  1  0  0  0  0
 11 12  2  0  0  0  0
 12 13  1  0  0  0  0
 14  4  1  0  0  0  0
 14 13  2  0  0  0  0
 15 20  1  0  0  0  0
 16 17  1  0  0  0  0
 16 15  2  0  0  0  0
 17 18  2  0  0  0  0
 18 19  1  0  0  0  0
 19 23  1  0  0  0  0
 20 19  2  0  0  0  0
 21 15  1  0  0  0  0
 22 17  1  0  0  0  0
M  END
>  <minimizedAffinity>
-5.20484257

>  <minimizedRMSD>
1.59401608

$$$$
