
 OpenBabel03252508323D

 34 37  0  0  1  0  0  0  0  0999 V2000
   44.2120   34.0900   42.0060 N   0  0  0  0  0  0  0  0  0  0  0  0
   43.9250   33.2440   40.9450 C   0  0  1  0  0  0  0  0  0  0  0  0
   43.1520   33.8410   39.8140 C   0  0  0  0  0  0  0  0  0  0  0  0
   42.1380   34.7400   40.1580 N   0  0  0  0  0  0  0  0  0  0  0  0
   42.3130   35.5000   41.3290 C   0  0  0  0  0  0  0  0  0  0  0  0
   43.7600   35.4530   41.8090 C   0  0  0  0  0  0  0  0  0  0  0  0
   43.1470   32.5230   41.3980 H   0  0  0  0  0  0  0  0  0  0  0  0
   43.7900   34.3090   39.0370 H   0  0  0  0  0  0  0  0  0  0  0  0
   42.6730   32.9770   39.2630 H   0  0  0  0  0  0  0  0  0  0  0  0
   41.1650   34.4700   39.9590 H   0  0  0  0  0  0  0  0  0  0  0  0
   42.0190   36.5440   41.3040 H   0  0  0  0  0  0  0  0  0  0  0  0
   41.7300   35.0140   42.1500 H   0  0  0  0  0  0  0  0  0  0  0  0
   43.8130   36.1010   42.6740 H   0  0  0  0  0  0  0  0  0  0  0  0
   44.3380   35.9290   40.9860 H   0  0  0  0  0  0  0  0  0  0  0  0
   44.9140   32.3380   40.3400 C   0  0  0  0  0  0  0  0  0  0  0  0
   44.5560   30.9870   40.1200 C   0  0  0  0  0  0  0  0  0  0  0  0
   43.5540   30.6480   40.4330 H   0  0  0  0  0  0  0  0  0  0  0  0
   45.3190   30.0210   39.5530 C   0  0  0  0  0  3  0  0  0  0  0  0
   46.5820   30.3540   39.1340 C   0  0  0  0  0  3  0  0  0  0  0  0
   47.0450   31.6390   39.2940 C   0  0  0  0  0  0  0  0  0  0  0  0
   48.3020   32.0350   38.8940 C   0  0  0  0  0  3  0  0  0  0  0  0
   48.7830   33.3390   39.0540 C   0  0  0  0  0  3  0  0  0  0  0  0
   47.9180   34.2620   39.6500 C   0  0  0  0  0  3  0  0  0  0  0  0
   46.6750   33.8220   40.0320 C   0  0  0  0  0  3  0  0  0  0  0  0
   46.1970   32.5440   39.8790 C   0  0  0  0  0  0  0  0  0  0  0  0
   45.2600   34.5430   44.1100 C   0  0  0  0  0  0  0  0  0  0  0  0
   44.8530   33.6190   43.1620 C   0  0  0  0  0  0  0  0  0  0  0  0
   45.0960   32.2950   43.4260 C   0  0  0  0  0  0  0  0  0  0  0  0
   45.7050   31.9080   44.5590 N   0  0  0  0  0  0  0  0  0  0  0  0
   46.0940   32.8430   45.4740 C   0  0  0  0  0  0  0  0  0  0  0  0
   45.8740   34.1290   45.2500 N   0  0  0  0  0  0  0  0  0  0  0  0
   45.1660   35.6160   44.1040 H   0  0  0  0  0  0  0  0  0  0  0  0
   44.8370   31.4730   42.8180 H   0  0  0  0  0  0  0  0  0  0  0  0
   46.5920   32.5070   46.3990 H   0  0  0  0  0  0  0  0  0  0  0  0
  1 27  1  0  0  0  0
  2  7  1  1  0  0  0
  2  1  1  0  0  0  0
  3  4  1  0  0  0  0
  3  2  1  0  0  0  0
  4  5  1  0  0  0  0
  5  6  1  0  0  0  0
  5 12  1  0  0  0  0
  6  1  1  0  0  0  0
  6 13  1  0  0  0  0
  8  3  1  0  0  0  0
  9  3  1  0  0  0  0
 10  4  1  0  0  0  0
 11  5  1  0  0  0  0
 14  6  1  0  0  0  0
 15  2  1  0  0  0  0
 16 15  1  0  0  0  0
 16 17  1  0  0  0  0
 18 16  2  0  0  0  0
 19 20  2  0  0  0  0
 19 18  1  0  0  0  0
 20 25  1  0  0  0  0
 21 22  2  0  0  0  0
 21 20  1  0  0  0  0
 22 23  1  0  0  0  0
 23 24  2  0  0  0  0
 25 24  1  0  0  0  0
 25 15  2  0  0  0  0
 26 31  1  0  0  0  0
 27 28  1  0  0  0  0
 27 26  2  0  0  0  0
 28 29  2  0  0  0  0
 29 30  1  0  0  0  0
 30 34  1  0  0  0  0
 31 30  2  0  0  0  0
 32 26  1  0  0  0  0
 33 28  1  0  0  0  0
M  END
>  <minimizedAffinity>
-4.12720251

>  <minimizedRMSD>
1.62383497

$$$$
