
 OpenBabel03242520173D

 27 30  0  0  0  0  0  0  0  0999 V2000
   40.5000   32.9920   39.4890 C   0  0  0  0  0  0  0  0  0  0  0  0
   39.7550   31.8160   39.6530 C   0  0  0  0  0  0  0  0  0  0  0  0
   38.5220   31.7980   40.2500 C   0  0  0  0  0  0  0  0  0  0  0  0
   38.0820   33.0400   40.6680 N   0  0  0  0  0  0  0  0  0  0  0  0
   38.7870   34.1610   40.5130 C   0  0  0  0  0  0  0  0  0  0  0  0
   39.9770   34.1250   39.9310 N   0  0  0  0  0  0  0  0  0  0  0  0
   40.1910   30.9330   39.2380 H   0  0  0  0  0  0  0  0  0  0  0  0
   38.3650   35.0950   40.8730 H   0  0  0  0  0  0  0  0  0  0  0  0
   37.5890   30.7260   40.4460 C   0  0  0  0  0  0  0  0  0  0  0  0
   36.5170   30.6550   39.5440 C   0  0  0  0  0  0  0  0  0  0  0  0
   36.4310   31.3820   38.7450 H   0  0  0  0  0  0  0  0  0  0  0  0
   35.5240   29.7100   39.5800 C   0  0  0  0  0  3  0  0  0  0  0  0
   35.5460   28.7550   40.5500 C   0  0  0  0  0  3  0  0  0  0  0  0
   36.5620   28.7560   41.4750 C   0  0  0  0  0  0  0  0  0  0  0  0
   36.5840   27.8190   42.4850 C   0  0  0  0  0  3  0  0  0  0  0  0
   37.5740   27.8080   43.4660 C   0  0  0  0  0  3  0  0  0  0  0  0
   38.5390   28.8050   43.3590 C   0  0  0  0  0  3  0  0  0  0  0  0
   38.4900   29.7240   42.3410 C   0  0  0  0  0  3  0  0  0  0  0  0
   37.5190   29.7300   41.3780 C   0  0  0  0  0  0  0  0  0  0  0  0
   41.8370   32.9140   38.8490 C   0  0  0  0  0  0  0  0  0  0  0  0
   41.7620   32.8960   37.3040 C   0  0  0  0  0  0  0  0  0  0  0  0
   42.3960   34.0090   38.0820 C   0  0  0  0  0  0  0  0  0  0  0  0
   42.5630   32.1680   39.2860 H   0  0  0  0  0  0  0  0  0  0  0  0
   40.7850   33.0290   36.8310 H   0  0  0  0  0  0  0  0  0  0  0  0
   42.5080   32.2270   36.8000 H   0  0  0  0  0  0  0  0  0  0  0  0
   41.8200   34.9770   37.9770 H   0  0  0  0  0  0  0  0  0  0  0  0
   43.4830   34.1890   38.0290 H   0  0  0  0  0  0  0  0  0  0  0  0
  1  2  2  0  0  0  0
  1  6  1  0  0  0  0
  2  3  1  0  0  0  0
  3  9  1  0  0  0  0
  3  4  2  0  0  0  0
  5  4  1  0  0  0  0
  5  8  1  0  0  0  0
  6  5  2  0  0  0  0
  7  2  1  0  0  0  0
  9 19  1  0  0  0  0
 10 12  1  0  0  0  0
 10  9  2  0  0  0  0
 11 10  1  0  0  0  0
 12 13  2  0  0  0  0
 13 14  1  0  0  0  0
 14 15  1  0  0  0  0
 15 16  2  0  0  0  0
 17 16  1  0  0  0  0
 18 17  2  0  0  0  0
 19 14  2  0  0  0  0
 19 18  1  0  0  0  0
 20 23  1  0  0  0  0
 20  1  1  0  0  0  0
 21 22  1  0  0  0  0
 21 20  1  0  0  0  0
 22 20  1  0  0  0  0
 24 21  1  0  0  0  0
 25 21  1  0  0  0  0
 26 22  1  0  0  0  0
 27 22  1  0  0  0  0
M  END
>  <minimizedAffinity>
-5.61488199

$$$$

 OpenBabel03242520173D

 27 30  0  0  0  0  0  0  0  0999 V2000
   37.4350   26.5580   41.7840 C   0  0  0  0  0  0  0  0  0  0  0  0
   38.1820   27.6530   41.3300 C   0  0  0  0  0  0  0  0  0  0  0  0
   38.2940   28.8180   42.0420 C   0  0  0  0  0  0  0  0  0  0  0  0
   37.6090   28.8120   43.2430 N   0  0  0  0  0  0  0  0  0  0  0  0
   36.8980   27.7720   43.6790 C   0  0  0  0  0  0  0  0  0  0  0  0
   36.8190   26.6670   42.9510 N   0  0  0  0  0  0  0  0  0  0  0  0
   38.7030   27.5050   40.4100 H   0  0  0  0  0  0  0  0  0  0  0  0
   36.3890   27.8530   44.6350 H   0  0  0  0  0  0  0  0  0  0  0  0
   39.0560   30.0070   41.7850 C   0  0  0  0  0  0  0  0  0  0  0  0
   40.3640   30.0350   42.2890 C   0  0  0  0  0  0  0  0  0  0  0  0
   40.7540   29.1830   42.8340 H   0  0  0  0  0  0  0  0  0  0  0  0
   41.2350   31.0850   42.1530 C   0  0  0  0  0  3  0  0  0  0  0  0
   40.8350   32.2010   41.4840 C   0  0  0  0  0  3  0  0  0  0  0  0
   39.5650   32.2560   40.9600 C   0  0  0  0  0  0  0  0  0  0  0  0
   39.1290   33.3880   40.3100 C   0  0  0  0  0  3  0  0  0  0  0  0
   37.8370   33.5000   39.7980 C   0  0  0  0  0  3  0  0  0  0  0  0
   37.0170   32.3920   39.9860 C   0  0  0  0  0  3  0  0  0  0  0  0
   37.4810   31.2770   40.6370 C   0  0  0  0  0  3  0  0  0  0  0  0
   38.7510   31.1690   41.1360 C   0  0  0  0  0  0  0  0  0  0  0  0
   37.3510   25.3420   40.9370 C   0  0  0  0  0  0  0  0  0  0  0  0
   38.0290   24.1120   41.5860 C   0  0  0  0  0  0  0  0  0  0  0  0
   36.5580   24.1880   41.3100 C   0  0  0  0  0  0  0  0  0  0  0  0
   37.5840   25.4740   39.8400 H   0  0  0  0  0  0  0  0  0  0  0  0
   38.4130   24.2100   42.6060 H   0  0  0  0  0  0  0  0  0  0  0  0
   38.5780   23.4420   40.8750 H   0  0  0  0  0  0  0  0  0  0  0  0
   35.9510   24.2050   42.2640 H   0  0  0  0  0  0  0  0  0  0  0  0
   36.0890   23.5340   40.5550 H   0  0  0  0  0  0  0  0  0  0  0  0
  1  6  1  0  0  0  0
  2  1  2  0  0  0  0
  2  3  1  0  0  0  0
  3  4  2  0  0  0  0
  4  5  1  0  0  0  0
  5  8  1  0  0  0  0
  6  5  2  0  0  0  0
  7  2  1  0  0  0  0
  9  3  1  0  0  0  0
  9 10  1  0  0  0  0
 10 11  1  0  0  0  0
 12 10  2  0  0  0  0
 13 12  1  0  0  0  0
 14 19  1  0  0  0  0
 14 13  2  0  0  0  0
 15 14  1  0  0  0  0
 16 17  1  0  0  0  0
 16 15  2  0  0  0  0
 17 18  2  0  0  0  0
 18 19  1  0  0  0  0
 19  9  2  0  0  0  0
 20 22  1  0  0  0  0
 20 21  1  0  0  0  0
 20  1  1  0  0  0  0
 21 24  1  0  0  0  0
 22 21  1  0  0  0  0
 22 26  1  0  0  0  0
 23 20  1  0  0  0  0
 25 21  1  0  0  0  0
 27 22  1  0  0  0  0
M  END
>  <minimizedAffinity>
-5.37778807

$$$$

 OpenBabel03242520173D

 27 30  0  0  0  0  0  0  0  0999 V2000
   38.0160   31.0320   39.6330 C   0  0  0  0  0  0  0  0  0  0  0  0
   38.6220   29.9140   40.2220 C   0  0  0  0  0  0  0  0  0  0  0  0
   38.0530   29.2240   41.2600 C   0  0  0  0  0  0  0  0  0  0  0  0
   36.8320   29.7290   41.6670 N   0  0  0  0  0  0  0  0  0  0  0  0
   36.2510   30.7920   41.1100 C   0  0  0  0  0  0  0  0  0  0  0  0
   36.8440   31.4260   40.1080 N   0  0  0  0  0  0  0  0  0  0  0  0
   39.5400   29.6000   39.7760 H   0  0  0  0  0  0  0  0  0  0  0  0
   35.2910   31.1220   41.4940 H   0  0  0  0  0  0  0  0  0  0  0  0
   38.4740   28.0340   41.9400 C   0  0  0  0  0  0  0  0  0  0  0  0
   39.4540   28.1910   42.9310 C   0  0  0  0  0  0  0  0  0  0  0  0
   39.8470   29.1770   43.1540 H   0  0  0  0  0  0  0  0  0  0  0  0
   39.9860   27.1720   43.6770 C   0  0  0  0  0  3  0  0  0  0  0  0
   39.5550   25.8970   43.4680 C   0  0  0  0  0  3  0  0  0  0  0  0
   38.5970   25.6560   42.5120 C   0  0  0  0  0  0  0  0  0  0  0  0
   38.1740   24.3700   42.2610 C   0  0  0  0  0  3  0  0  0  0  0  0
   37.2330   24.0780   41.2750 C   0  0  0  0  0  3  0  0  0  0  0  0
   36.7500   25.1700   40.5600 C   0  0  0  0  0  3  0  0  0  0  0  0
   37.1920   26.4390   40.8340 C   0  0  0  0  0  3  0  0  0  0  0  0
   38.1130   26.7240   41.8060 C   0  0  0  0  0  0  0  0  0  0  0  0
   38.7150   31.7310   38.5260 C   0  0  0  0  0  0  0  0  0  0  0  0
   39.7480   32.7680   39.0290 C   0  0  0  0  0  0  0  0  0  0  0  0
   40.1260   31.5410   38.2560 C   0  0  0  0  0  0  0  0  0  0  0  0
   38.0720   32.0950   37.6720 H   0  0  0  0  0  0  0  0  0  0  0  0
   39.9360   32.8320   40.1050 H   0  0  0  0  0  0  0  0  0  0  0  0
   39.8090   33.7090   38.4230 H   0  0  0  0  0  0  0  0  0  0  0  0
   40.7290   30.8170   38.8820 H   0  0  0  0  0  0  0  0  0  0  0  0
   40.5400   31.6190   37.2360 H   0  0  0  0  0  0  0  0  0  0  0  0
  1  6  2  0  0  0  0
  1  2  1  0  0  0  0
  2  3  2  0  0  0  0
  3  4  1  0  0  0  0
  3  9  1  0  0  0  0
  5  8  1  0  0  0  0
  5  4  2  0  0  0  0
  6  5  1  0  0  0  0
  7  2  1  0  0  0  0
  9 10  1  0  0  0  0
 10 11  1  0  0  0  0
 10 12  2  0  0  0  0
 13 12  1  0  0  0  0
 14 13  2  0  0  0  0
 15 14  1  0  0  0  0
 16 15  2  0  0  0  0
 17 18  2  0  0  0  0
 17 16  1  0  0  0  0
 18 19  1  0  0  0  0
 19  9  2  0  0  0  0
 19 14  1  0  0  0  0
 20 21  1  0  0  0  0
 20  1  1  0  0  0  0
 21 24  1  0  0  0  0
 22 20  1  0  0  0  0
 22 26  1  0  0  0  0
 22 21  1  0  0  0  0
 23 20  1  0  0  0  0
 25 21  1  0  0  0  0
 27 22  1  0  0  0  0
M  END
>  <minimizedAffinity>
-5.3544693

$$$$

 OpenBabel03242520173D

 27 30  0  0  0  0  0  0  0  0999 V2000
   36.8580   29.8670   37.3100 C   0  0  0  0  0  0  0  0  0  0  0  0
   36.6880   29.0110   38.4070 C   0  0  0  0  0  0  0  0  0  0  0  0
   37.3890   29.1560   39.5740 C   0  0  0  0  0  0  0  0  0  0  0  0
   38.2730   30.2180   39.5710 N   0  0  0  0  0  0  0  0  0  0  0  0
   38.4390   31.0350   38.5300 C   0  0  0  0  0  0  0  0  0  0  0  0
   37.7360   30.8520   37.4220 N   0  0  0  0  0  0  0  0  0  0  0  0
   35.9350   28.2620   38.2930 H   0  0  0  0  0  0  0  0  0  0  0  0
   39.1570   31.8460   38.6130 H   0  0  0  0  0  0  0  0  0  0  0  0
   37.3090   28.4380   40.8140 C   0  0  0  0  0  0  0  0  0  0  0  0
   37.4660   29.1920   41.9860 C   0  0  0  0  0  0  0  0  0  0  0  0
   37.6300   30.2620   41.9260 H   0  0  0  0  0  0  0  0  0  0  0  0
   37.4300   28.6810   43.2580 C   0  0  0  0  0  3  0  0  0  0  0  0
   37.2300   27.3460   43.4350 C   0  0  0  0  0  3  0  0  0  0  0  0
   37.0690   26.5350   42.3370 C   0  0  0  0  0  0  0  0  0  0  0  0
   36.9000   25.1780   42.4930 C   0  0  0  0  0  3  0  0  0  0  0  0
   36.7730   24.3160   41.4050 C   0  0  0  0  0  3  0  0  0  0  0  0
   36.8270   24.9160   40.1510 C   0  0  0  0  0  3  0  0  0  0  0  0
   36.9950   26.2720   40.0280 C   0  0  0  0  0  3  0  0  0  0  0  0
   37.1180   27.1160   41.0980 C   0  0  0  0  0  0  0  0  0  0  0  0
   36.0700   29.6230   36.0760 C   0  0  0  0  0  0  0  0  0  0  0  0
   36.8220   28.7440   35.0480 C   0  0  0  0  0  0  0  0  0  0  0  0
   35.5580   28.3120   35.7280 C   0  0  0  0  0  0  0  0  0  0  0  0
   35.5460   30.5160   35.6270 H   0  0  0  0  0  0  0  0  0  0  0  0
   37.7880   28.3200   35.3380 H   0  0  0  0  0  0  0  0  0  0  0  0
   36.6710   29.0340   33.9760 H   0  0  0  0  0  0  0  0  0  0  0  0
   35.7320   27.4350   36.4210 H   0  0  0  0  0  0  0  0  0  0  0  0
   34.6230   28.1840   35.1570 H   0  0  0  0  0  0  0  0  0  0  0  0
  1  6  2  0  0  0  0
  1  2  1  0  0  0  0
  2  3  2  0  0  0  0
  3  9  1  0  0  0  0
  4  3  1  0  0  0  0
  5  8  1  0  0  0  0
  5  4  2  0  0  0  0
  6  5  1  0  0  0  0
  7  2  1  0  0  0  0
  9 19  2  0  0  0  0
  9 10  1  0  0  0  0
 10 12  2  0  0  0  0
 11 10  1  0  0  0  0
 12 13  1  0  0  0  0
 14 15  1  0  0  0  0
 14 13  2  0  0  0  0
 16 15  2  0  0  0  0
 17 16  1  0  0  0  0
 18 17  2  0  0  0  0
 18 19  1  0  0  0  0
 19 14  1  0  0  0  0
 20  1  1  0  0  0  0
 21 24  1  0  0  0  0
 21 22  1  0  0  0  0
 21 20  1  0  0  0  0
 22 20  1  0  0  0  0
 22 26  1  0  0  0  0
 23 20  1  0  0  0  0
 25 21  1  0  0  0  0
 27 22  1  0  0  0  0
M  END
>  <minimizedAffinity>
-5.33467436

$$$$

 OpenBabel03242520173D

 27 30  0  0  0  0  0  0  0  0999 V2000
   37.2860   30.2810   39.7720 C   0  0  0  0  0  0  0  0  0  0  0  0
   37.8610   29.0480   40.1100 C   0  0  0  0  0  0  0  0  0  0  0  0
   37.1480   28.0320   40.6900 C   0  0  0  0  0  0  0  0  0  0  0  0
   35.8170   28.3330   40.9070 N   0  0  0  0  0  0  0  0  0  0  0  0
   35.2650   29.5050   40.5880 C   0  0  0  0  0  0  0  0  0  0  0  0
   35.9990   30.4560   40.0290 N   0  0  0  0  0  0  0  0  0  0  0  0
   38.8880   28.9300   39.8400 H   0  0  0  0  0  0  0  0  0  0  0  0
   34.2100   29.6570   40.7950 H   0  0  0  0  0  0  0  0  0  0  0  0
   37.5320   26.6950   41.0410 C   0  0  0  0  0  0  0  0  0  0  0  0
   36.7820   25.6570   40.4700 C   0  0  0  0  0  0  0  0  0  0  0  0
   35.9650   25.8850   39.7950 H   0  0  0  0  0  0  0  0  0  0  0  0
   36.9930   24.3210   40.6950 C   0  0  0  0  0  3  0  0  0  0  0  0
   37.9970   23.9360   41.5300 C   0  0  0  0  0  3  0  0  0  0  0  0
   38.7790   24.8930   42.1330 C   0  0  0  0  0  0  0  0  0  0  0  0
   39.7760   24.5250   43.0080 C   0  0  0  0  0  3  0  0  0  0  0  0
   40.5660   25.4640   43.6700 C   0  0  0  0  0  3  0  0  0  0  0  0
   40.2800   26.7970   43.3900 C   0  0  0  0  0  3  0  0  0  0  0  0
   39.2790   27.1310   42.5130 C   0  0  0  0  0  3  0  0  0  0  0  0
   38.5080   26.2070   41.8620 C   0  0  0  0  0  0  0  0  0  0  0  0
   38.1400   31.3320   39.1650 C   0  0  0  0  0  0  0  0  0  0  0  0
   37.7920   31.6040   37.6820 C   0  0  0  0  0  0  0  0  0  0  0  0
   37.6170   32.6230   38.7660 C   0  0  0  0  0  0  0  0  0  0  0  0
   39.2470   31.2680   39.3760 H   0  0  0  0  0  0  0  0  0  0  0  0
   36.9270   31.0910   37.2500 H   0  0  0  0  0  0  0  0  0  0  0  0
   38.6720   31.8100   37.0180 H   0  0  0  0  0  0  0  0  0  0  0  0
   36.5270   32.8690   38.9400 H   0  0  0  0  0  0  0  0  0  0  0  0
   38.2360   33.5360   38.7900 H   0  0  0  0  0  0  0  0  0  0  0  0
  1  6  2  0  0  0  0
  1  2  1  0  0  0  0
  2  3  2  0  0  0  0
  3  4  1  0  0  0  0
  3  9  1  0  0  0  0
  5  8  1  0  0  0  0
  5  4  2  0  0  0  0
  6  5  1  0  0  0  0
  7  2  1  0  0  0  0
  9 19  1  0  0  0  0
 10 12  1  0  0  0  0
 10  9  2  0  0  0  0
 11 10  1  0  0  0  0
 12 13  2  0  0  0  0
 13 14  1  0  0  0  0
 14 15  1  0  0  0  0
 15 16  2  0  0  0  0
 17 16  1  0  0  0  0
 18 17  2  0  0  0  0
 19 14  2  0  0  0  0
 19 18  1  0  0  0  0
 20 23  1  0  0  0  0
 20  1  1  0  0  0  0
 21 22  1  0  0  0  0
 21 20  1  0  0  0  0
 22 27  1  0  0  0  0
 22 26  1  0  0  0  0
 22 20  1  0  0  0  0
 24 21  1  0  0  0  0
 25 21  1  0  0  0  0
M  END
>  <minimizedAffinity>
-5.27630377

$$$$

 OpenBabel03242520173D

 27 30  0  0  0  0  0  0  0  0999 V2000
   36.5210   28.7560   41.5390 C   0  0  0  0  0  0  0  0  0  0  0  0
   36.2090   28.4210   40.2140 C   0  0  0  0  0  0  0  0  0  0  0  0
   36.0970   29.3570   39.2210 C   0  0  0  0  0  0  0  0  0  0  0  0
   36.3220   30.6540   39.6420 N   0  0  0  0  0  0  0  0  0  0  0  0
   36.6190   30.9780   40.9010 C   0  0  0  0  0  0  0  0  0  0  0  0
   36.7150   30.0340   41.8270 N   0  0  0  0  0  0  0  0  0  0  0  0
   36.1110   27.3760   40.0150 H   0  0  0  0  0  0  0  0  0  0  0  0
   36.7790   32.0240   41.1460 H   0  0  0  0  0  0  0  0  0  0  0  0
   35.8580   29.2110   37.8130 C   0  0  0  0  0  0  0  0  0  0  0  0
   36.9890   29.1640   36.9860 C   0  0  0  0  0  0  0  0  0  0  0  0
   37.9810   29.2290   37.4190 H   0  0  0  0  0  0  0  0  0  0  0  0
   36.9590   29.0380   35.6220 C   0  0  0  0  0  3  0  0  0  0  0  0
   35.7580   28.9490   34.9870 C   0  0  0  0  0  3  0  0  0  0  0  0
   34.5990   28.9900   35.7250 C   0  0  0  0  0  0  0  0  0  0  0  0
   33.3740   28.9360   35.0990 C   0  0  0  0  0  3  0  0  0  0  0  0
   32.1750   29.0130   35.8060 C   0  0  0  0  0  3  0  0  0  0  0  0
   32.2960   29.1470   37.1860 C   0  0  0  0  0  3  0  0  0  0  0  0
   33.5320   29.1960   37.7800 C   0  0  0  0  0  3  0  0  0  0  0  0
   34.7080   29.1180   37.0840 C   0  0  0  0  0  0  0  0  0  0  0  0
   36.6020   27.6780   42.5550 C   0  0  0  0  0  0  0  0  0  0  0  0
   37.9430   26.9080   42.5070 C   0  0  0  0  0  0  0  0  0  0  0  0
   37.5150   27.7370   43.6790 C   0  0  0  0  0  0  0  0  0  0  0  0
   35.6930   27.0170   42.6640 H   0  0  0  0  0  0  0  0  0  0  0  0
   38.7200   27.2640   41.8230 H   0  0  0  0  0  0  0  0  0  0  0  0
   37.8650   25.8050   42.6910 H   0  0  0  0  0  0  0  0  0  0  0  0
   38.1790   28.6410   43.8210 H   0  0  0  0  0  0  0  0  0  0  0  0
   37.2770   27.2660   44.6480 H   0  0  0  0  0  0  0  0  0  0  0  0
  1  6  1  0  0  0  0
  1 20  1  0  0  0  0
  2  1  2  0  0  0  0
  3  4  2  0  0  0  0
  3  2  1  0  0  0  0
  4  5  1  0  0  0  0
  5  8  1  0  0  0  0
  5  6  2  0  0  0  0
  7  2  1  0  0  0  0
  9  3  1  0  0  0  0
 10 11  1  0  0  0  0
 10  9  2  0  0  0  0
 12 10  1  0  0  0  0
 13 12  2  0  0  0  0
 13 14  1  0  0  0  0
 14 19  1  0  0  0  0
 15 14  2  0  0  0  0
 15 16  1  0  0  0  0
 16 17  2  0  0  0  0
 17 18  1  0  0  0  0
 19 18  2  0  0  0  0
 19  9  1  0  0  0  0
 20 23  1  0  0  0  0
 20 22  1  0  0  0  0
 21 20  1  0  0  0  0
 21 25  1  0  0  0  0
 21 22  1  0  0  0  0
 22 26  1  0  0  0  0
 22 27  1  0  0  0  0
 24 21  1  0  0  0  0
M  END
>  <minimizedAffinity>
-5.21884394

$$$$

 OpenBabel03242520173D

 27 30  0  0  0  0  0  0  0  0999 V2000
   36.4400   23.5300   39.2770 C   0  0  0  0  0  0  0  0  0  0  0  0
   36.3650   24.8110   39.8410 C   0  0  0  0  0  0  0  0  0  0  0  0
   37.1740   25.2160   40.8700 C   0  0  0  0  0  0  0  0  0  0  0  0
   38.0680   24.2510   41.2950 N   0  0  0  0  0  0  0  0  0  0  0  0
   38.1430   23.0310   40.7620 C   0  0  0  0  0  0  0  0  0  0  0  0
   37.3360   22.6880   39.7680 N   0  0  0  0  0  0  0  0  0  0  0  0
   35.6640   25.4750   39.3840 H   0  0  0  0  0  0  0  0  0  0  0  0
   38.8750   22.3340   41.1580 H   0  0  0  0  0  0  0  0  0  0  0  0
   37.2970   26.4860   41.5250 C   0  0  0  0  0  0  0  0  0  0  0  0
   37.9510   26.4920   42.7650 C   0  0  0  0  0  0  0  0  0  0  0  0
   38.3420   25.5680   43.1770 H   0  0  0  0  0  0  0  0  0  0  0  0
   38.1540   27.6040   43.5410 C   0  0  0  0  0  3  0  0  0  0  0  0
   37.6980   28.8120   43.1070 C   0  0  0  0  0  3  0  0  0  0  0  0
   37.0420   28.8930   41.9020 C   0  0  0  0  0  0  0  0  0  0  0  0
   36.5430   30.0980   41.4610 C   0  0  0  0  0  3  0  0  0  0  0  0
   35.8390   30.2170   40.2640 C   0  0  0  0  0  3  0  0  0  0  0  0
   35.6730   29.0390   39.5430 C   0  0  0  0  0  3  0  0  0  0  0  0
   36.1830   27.8530   40.0080 C   0  0  0  0  0  3  0  0  0  0  0  0
   36.8770   27.7390   41.1820 C   0  0  0  0  0  0  0  0  0  0  0  0
   35.5090   23.1710   38.1790 C   0  0  0  0  0  0  0  0  0  0  0  0
   34.1860   22.5550   38.6920 C   0  0  0  0  0  0  0  0  0  0  0  0
   34.2540   23.8640   37.9660 C   0  0  0  0  0  0  0  0  0  0  0  0
   35.9570   22.6340   37.2930 H   0  0  0  0  0  0  0  0  0  0  0  0
   34.0140   22.5210   39.7720 H   0  0  0  0  0  0  0  0  0  0  0  0
   33.7750   21.7220   38.0650 H   0  0  0  0  0  0  0  0  0  0  0  0
   33.9670   24.7310   38.6340 H   0  0  0  0  0  0  0  0  0  0  0  0
   33.8140   23.9780   36.9610 H   0  0  0  0  0  0  0  0  0  0  0  0
  1  6  2  0  0  0  0
  1  2  1  0  0  0  0
  2  3  2  0  0  0  0
  3  4  1  0  0  0  0
  3  9  1  0  0  0  0
  5  8  1  0  0  0  0
  5  4  2  0  0  0  0
  6  5  1  0  0  0  0
  7  2  1  0  0  0  0
  9 10  1  0  0  0  0
 10 11  1  0  0  0  0
 10 12  2  0  0  0  0
 13 12  1  0  0  0  0
 14 13  2  0  0  0  0
 15 14  1  0  0  0  0
 16 15  2  0  0  0  0
 17 18  2  0  0  0  0
 17 16  1  0  0  0  0
 18 19  1  0  0  0  0
 19  9  2  0  0  0  0
 19 14  1  0  0  0  0
 20 21  1  0  0  0  0
 20  1  1  0  0  0  0
 21 24  1  0  0  0  0
 22 20  1  0  0  0  0
 22 26  1  0  0  0  0
 22 21  1  0  0  0  0
 23 20  1  0  0  0  0
 25 21  1  0  0  0  0
 27 22  1  0  0  0  0
M  END
>  <minimizedAffinity>
-5.21185875

$$$$

 OpenBabel03242520173D

 27 30  0  0  0  0  0  0  0  0999 V2000
   39.5930   32.2080   39.8350 C   0  0  0  0  0  0  0  0  0  0  0  0
   39.4190   30.9720   40.4730 C   0  0  0  0  0  0  0  0  0  0  0  0
   38.2010   30.5360   40.9230 C   0  0  0  0  0  0  0  0  0  0  0  0
   37.1660   31.4220   40.6890 N   0  0  0  0  0  0  0  0  0  0  0  0
   37.3260   32.5990   40.0830 C   0  0  0  0  0  0  0  0  0  0  0  0
   38.5270   32.9750   39.6670 N   0  0  0  0  0  0  0  0  0  0  0  0
   40.2940   30.3630   40.5430 H   0  0  0  0  0  0  0  0  0  0  0  0
   36.4570   33.2340   39.9410 H   0  0  0  0  0  0  0  0  0  0  0  0
   37.8110   29.2940   41.5270 C   0  0  0  0  0  0  0  0  0  0  0  0
   37.7630   29.2660   42.9280 C   0  0  0  0  0  0  0  0  0  0  0  0
   38.0050   30.1560   43.4980 H   0  0  0  0  0  0  0  0  0  0  0  0
   37.4240   28.1710   43.6790 C   0  0  0  0  0  3  0  0  0  0  0  0
   37.1040   27.0050   43.0520 C   0  0  0  0  0  3  0  0  0  0  0  0
   37.1290   26.9480   41.6790 C   0  0  0  0  0  0  0  0  0  0  0  0
   36.8420   25.7690   41.0270 C   0  0  0  0  0  3  0  0  0  0  0  0
   36.8930   25.6580   39.6380 C   0  0  0  0  0  3  0  0  0  0  0  0
   37.2530   26.8150   38.9540 C   0  0  0  0  0  3  0  0  0  0  0  0
   37.5320   27.9740   39.6320 C   0  0  0  0  0  3  0  0  0  0  0  0
   37.4780   28.0820   40.9960 C   0  0  0  0  0  0  0  0  0  0  0  0
   40.9540   32.6080   39.3980 C   0  0  0  0  0  0  0  0  0  0  0  0
   41.0870   32.6970   37.8590 C   0  0  0  0  0  0  0  0  0  0  0  0
   41.2230   33.8830   38.7640 C   0  0  0  0  0  0  0  0  0  0  0  0
   41.8200   32.0940   39.9090 H   0  0  0  0  0  0  0  0  0  0  0  0
   40.1880   32.5550   37.2520 H   0  0  0  0  0  0  0  0  0  0  0  0
   42.0670   32.3400   37.4460 H   0  0  0  0  0  0  0  0  0  0  0  0
   40.3840   34.6270   38.6130 H   0  0  0  0  0  0  0  0  0  0  0  0
   42.1910   34.3990   38.8800 H   0  0  0  0  0  0  0  0  0  0  0  0
  1  2  1  0  0  0  0
  2  7  1  0  0  0  0
  2  3  2  0  0  0  0
  3  9  1  0  0  0  0
  4  3  1  0  0  0  0
  5  4  2  0  0  0  0
  6  1  2  0  0  0  0
  6  5  1  0  0  0  0
  8  5  1  0  0  0  0
  9 10  1  0  0  0  0
 10 11  1  0  0  0  0
 10 12  2  0  0  0  0
 13 12  1  0  0  0  0
 14 13  2  0  0  0  0
 15 14  1  0  0  0  0
 16 15  2  0  0  0  0
 17 18  2  0  0  0  0
 17 16  1  0  0  0  0
 18 19  1  0  0  0  0
 19  9  2  0  0  0  0
 19 14  1  0  0  0  0
 20  1  1  0  0  0  0
 20 23  1  0  0  0  0
 21 22  1  0  0  0  0
 21 20  1  0  0  0  0
 22 27  1  0  0  0  0
 22 20  1  0  0  0  0
 24 21  1  0  0  0  0
 25 21  1  0  0  0  0
 26 22  1  0  0  0  0
M  END
>  <minimizedAffinity>
-5.19575739

$$$$

 OpenBabel03242520173D

 27 30  0  0  0  0  0  0  0  0999 V2000
   34.9190   28.6150   36.9940 C   0  0  0  0  0  0  0  0  0  0  0  0
   35.0760   27.8880   38.1820 C   0  0  0  0  0  0  0  0  0  0  0  0
   36.1700   28.0250   38.9950 C   0  0  0  0  0  0  0  0  0  0  0  0
   37.0970   28.9430   38.5390 N   0  0  0  0  0  0  0  0  0  0  0  0
   36.9520   29.6380   37.4100 C   0  0  0  0  0  0  0  0  0  0  0  0
   35.8740   29.4680   36.6580 N   0  0  0  0  0  0  0  0  0  0  0  0
   34.2600   27.2490   38.4420 H   0  0  0  0  0  0  0  0  0  0  0  0
   37.7310   30.3390   37.1260 H   0  0  0  0  0  0  0  0  0  0  0  0
   36.4780   27.4320   40.2650 C   0  0  0  0  0  0  0  0  0  0  0  0
   36.4280   28.2790   41.3810 C   0  0  0  0  0  0  0  0  0  0  0  0
   36.1580   29.3220   41.2590 H   0  0  0  0  0  0  0  0  0  0  0  0
   36.6990   27.8970   42.6690 C   0  0  0  0  0  3  0  0  0  0  0  0
   37.0480   26.6050   42.9220 C   0  0  0  0  0  3  0  0  0  0  0  0
   37.1240   25.7100   41.8810 C   0  0  0  0  0  0  0  0  0  0  0  0
   37.5080   24.4080   42.1110 C   0  0  0  0  0  3  0  0  0  0  0  0
   37.6350   23.4790   41.0790 C   0  0  0  0  0  3  0  0  0  0  0  0
   37.3470   23.9520   39.8030 C   0  0  0  0  0  3  0  0  0  0  0  0
   36.9660   25.2550   39.6070 C   0  0  0  0  0  3  0  0  0  0  0  0
   36.8390   26.1650   40.6220 C   0  0  0  0  0  0  0  0  0  0  0  0
   33.7100   28.3870   36.1650 C   0  0  0  0  0  0  0  0  0  0  0  0
   32.5500   29.3490   36.5180 C   0  0  0  0  0  0  0  0  0  0  0  0
   33.2440   29.3520   35.1890 C   0  0  0  0  0  0  0  0  0  0  0  0
   33.3920   27.3140   36.0190 H   0  0  0  0  0  0  0  0  0  0  0  0
   32.7390   30.1400   37.2500 H   0  0  0  0  0  0  0  0  0  0  0  0
   31.5270   28.8930   36.4820 H   0  0  0  0  0  0  0  0  0  0  0  0
   33.8230   30.3080   35.0190 H   0  0  0  0  0  0  0  0  0  0  0  0
   32.7120   29.0450   34.2730 H   0  0  0  0  0  0  0  0  0  0  0  0
  1  2  1  0  0  0  0
  2  7  1  0  0  0  0
  2  3  2  0  0  0  0
  3  9  1  0  0  0  0
  4  3  1  0  0  0  0
  5  4  2  0  0  0  0
  6  1  2  0  0  0  0
  6  5  1  0  0  0  0
  8  5  1  0  0  0  0
  9 19  2  0  0  0  0
  9 10  1  0  0  0  0
 10 12  2  0  0  0  0
 11 10  1  0  0  0  0
 12 13  1  0  0  0  0
 14 15  1  0  0  0  0
 14 13  2  0  0  0  0
 16 15  2  0  0  0  0
 17 16  1  0  0  0  0
 18 17  2  0  0  0  0
 18 19  1  0  0  0  0
 19 14  1  0  0  0  0
 20 21  1  0  0  0  0
 20  1  1  0  0  0  0
 21 24  1  0  0  0  0
 22 20  1  0  0  0  0
 22 21  1  0  0  0  0
 23 20  1  0  0  0  0
 25 21  1  0  0  0  0
 26 22  1  0  0  0  0
 27 22  1  0  0  0  0
M  END
>  <minimizedAffinity>
-5.19510841

$$$$
