
 OpenBabel03242515513D

 22 24  0  0  0  0  0  0  0  0999 V2000
   44.4950   35.6250   45.1820 C   0  0  0  0  0  0  0  0  0  0  0  0
   45.0550   35.6770   43.9110 C   0  0  0  0  0  0  0  0  0  0  0  0
   45.9490   34.6940   43.5440 C   0  0  0  0  0  0  0  0  0  0  0  0
   46.2330   33.7310   44.4400 N   0  0  0  0  0  0  0  0  0  0  0  0
   45.7050   33.6750   45.6520 C   0  0  0  0  0  0  0  0  0  0  0  0
   44.8420   34.6320   45.9950 N   0  0  0  0  0  0  0  0  0  0  0  0
   43.7830   36.4070   45.4810 H   0  0  0  0  0  0  0  0  0  0  0  0
   46.4010   34.7000   42.5720 H   0  0  0  0  0  0  0  0  0  0  0  0
   45.9060   32.7100   46.7280 C   0  0  0  0  0  0  0  0  0  0  0  0
   45.3680   32.8600   48.0080 C   0  0  0  0  0  0  0  0  0  0  0  0
   44.7670   33.7420   48.2140 H   0  0  0  0  0  0  0  0  0  0  0  0
   45.5410   31.9710   49.0340 C   0  0  0  0  0  0  0  0  0  0  0  0
   46.2790   30.8470   48.8490 C   0  0  0  0  0  0  0  0  0  0  0  0
   46.8420   30.6270   47.6160 C   0  0  0  0  0  0  0  0  0  0  0  0
   47.5840   29.4780   47.4650 C   0  0  0  0  0  0  0  0  0  0  0  0
   48.1830   29.1840   46.2590 C   0  0  0  0  0  0  0  0  0  0  0  0
   47.9950   30.0950   45.2360 C   0  0  0  0  0  0  0  0  0  0  0  0
   47.2450   31.2250   45.4450 C   0  0  0  0  0  0  0  0  0  0  0  0
   46.6400   31.5500   46.6150 C   0  0  0  0  0  0  0  0  0  0  0  0
   44.6590   36.7540   43.0740 N   0  0  0  0  0  0  0  0  0  0  0  0
   45.4250   37.3630   42.6980 H   0  0  0  0  0  0  0  0  0  0  0  0
   43.6140   36.7880   42.9470 H   0  0  0  0  0  0  0  0  0  0  0  0
  1  7  1  0  0  0  0
  1  6  1  0  0  0  0
  2  1  2  0  0  0  0
  3  2  1  0  0  0  0
  3  4  2  0  0  0  0
  4  5  1  0  0  0  0
  5  6  2  0  0  0  0
  5  9  1  0  0  0  0
  8  3  1  0  0  0  0
  9 10  1  0  0  0  0
 10 11  1  0  0  0  0
 10 12  2  0  0  0  0
 13 12  1  0  0  0  0
 14 13  2  0  0  0  0
 15 14  1  0  0  0  0
 16 15  2  0  0  0  0
 17 18  2  0  0  0  0
 17 16  1  0  0  0  0
 18 19  1  0  0  0  0
 19  9  2  0  0  0  0
 19 14  1  0  0  0  0
 20  2  1  0  0  0  0
 21 20  1  0  0  0  0
 22 20  1  0  0  0  0
M  END
>  <minimizedAffinity>
-5.67021275

>  <minimizedRMSD>
1.16071701

$$$$
