
 OpenBabel03252503133D

 36 40  0  0  0  0  0  0  0  0999 V2000
   46.3850   34.6380   41.7840 C   0  0  0  0  0  0  0  0  0  0  0  0
   47.6280   34.8560   41.7010 O   0  0  0  0  0  0  0  0  0  0  0  0
   45.2080   36.0730   43.3910 C   0  0  0  0  0  0  0  0  0  0  0  0
   45.8050   34.8370   43.0690 C   0  0  0  0  0  0  0  0  0  0  0  0
   45.7690   33.8910   44.0740 C   0  0  0  0  0  0  0  0  0  0  0  0
   45.2020   34.1320   45.2760 N   0  0  0  0  0  0  0  0  0  0  0  0
   44.6380   35.3350   45.5430 C   0  0  0  0  0  0  0  0  0  0  0  0
   44.6430   36.3010   44.6000 N   0  0  0  0  0  0  0  0  0  0  0  0
   45.1900   36.8810   42.6570 H   0  0  0  0  0  0  0  0  0  0  0  0
   44.1850   35.5270   46.5020 H   0  0  0  0  0  0  0  0  0  0  0  0
   46.3470   32.6340   43.8390 C   0  0  0  0  0  0  0  0  0  0  0  0
   47.5930   32.1030   44.0020 C   0  0  0  0  0  0  0  0  0  0  0  0
   47.9090   30.8560   43.7070 C   0  0  0  0  0  0  0  0  0  0  0  0
   46.8930   30.0890   43.2110 C   0  0  0  0  0  0  0  0  0  0  0  0
   45.4500   31.2440   43.1850 S   0  0  0  0  0  0  0  0  0  0  0  0
   48.3390   32.8140   44.4120 H   0  0  0  0  0  0  0  0  0  0  0  0
   48.8690   30.3740   43.8120 H   0  0  0  0  0  0  0  0  0  0  0  0
   46.8680   29.0260   42.8830 H   0  0  0  0  0  0  0  0  0  0  0  0
   45.5330   34.2010   40.6400 C   0  0  0  0  0  0  0  0  0  0  0  0
   44.2030   34.4630   40.4510 C   0  0  0  0  0  0  0  0  0  0  0  0
   43.8730   33.8680   39.2940 N   0  0  0  0  0  0  0  0  0  0  0  0
   44.9610   33.2500   38.7760 C   0  0  0  0  0  0  0  0  0  0  0  0
   45.9570   33.4710   39.6170 N   0  0  0  0  0  0  0  0  0  0  0  0
   43.6520   35.0430   41.1620 H   0  0  0  0  0  0  0  0  0  0  0  0
   42.8940   33.9580   38.9830 H   0  0  0  0  0  0  0  0  0  0  0  0
   44.7910   32.5480   37.5130 C   0  0  0  0  0  0  0  0  0  0  0  0
   45.5720   32.8150   36.4110 C   0  0  0  0  0  0  0  0  0  0  0  0
   46.3550   33.5600   36.4240 H   0  0  0  0  0  0  0  0  0  0  0  0
   45.4530   32.1800   35.1940 C   0  0  0  0  0  3  0  0  0  0  0  0
   44.5010   31.2060   35.0270 C   0  0  0  0  0  3  0  0  0  0  0  0
   43.6920   30.8950   36.0840 C   0  0  0  0  0  0  0  0  0  0  0  0
   42.7360   29.9160   35.9110 C   0  0  0  0  0  3  0  0  0  0  0  0
   41.8930   29.5580   36.9320 C   0  0  0  0  0  3  0  0  0  0  0  0
   42.0280   30.2120   38.1590 C   0  0  0  0  0  3  0  0  0  0  0  0
   43.0030   31.1790   38.2670 C   0  0  0  0  0  3  0  0  0  0  0  0
   43.8610   31.5640   37.2680 C   0  0  0  0  0  0  0  0  0  0  0  0
  1  4  1  0  0  0  0
  2  1  2  0  0  0  0
  3  8  1  0  0  0  0
  4  3  2  0  0  0  0
  4  5  1  0  0  0  0
  5  6  2  0  0  0  0
  6  7  1  0  0  0  0
  7 10  1  0  0  0  0
  8  7  2  0  0  0  0
  9  3  1  0  0  0  0
 11 12  2  0  0  0  0
 11  5  1  0  0  0  0
 12 16  1  0  0  0  0
 13 17  1  0  0  0  0
 13 12  1  0  0  0  0
 14 13  2  0  0  0  0
 15 14  1  0  0  0  0
 15 11  1  0  0  0  0
 18 14  1  0  0  0  0
 19  1  1  0  0  0  0
 20 19  2  0  0  0  0
 20 24  1  0  0  0  0
 21 20  1  0  0  0  0
 22 21  1  0  0  0  0
 22 23  2  0  0  0  0
 23 19  1  0  0  0  0
 25 21  1  0  0  0  0
 26 22  1  0  0  0  0
 27 28  1  0  0  0  0
 27 26  2  0  0  0  0
 29 27  1  0  0  0  0
 30 29  2  0  0  0  0
 30 31  1  0  0  0  0
 31 36  1  0  0  0  0
 32 31  2  0  0  0  0
 32 33  1  0  0  0  0
 33 34  2  0  0  0  0
 34 35  1  0  0  0  0
 36 26  1  0  0  0  0
 36 35  2  0  0  0  0
M  END
>  <minimizedAffinity>
-5.38807058

>  <minimizedRMSD>
0.530493498

$$$$
