
 OpenBabel03252501183D

 23 25  0  0  0  0  0  0  0  0999 V2000
   40.4230   30.2730   39.9850 C   0  0  0  0  0  0  0  0  0  0  0  0
   39.0350   30.5190   39.9620 C   0  0  0  0  0  0  0  0  0  0  0  0
   38.6200   31.8360   39.7880 C   0  0  0  0  0  0  0  0  0  0  0  0
   39.5640   32.7990   39.6530 N   0  0  0  0  0  0  0  0  0  0  0  0
   40.8890   32.5330   39.6790 C   0  0  0  0  0  0  0  0  0  0  0  0
   41.3100   31.2790   39.8440 N   0  0  0  0  0  0  0  0  0  0  0  0
   40.8530   29.2940   40.1140 H   0  0  0  0  0  0  0  0  0  0  0  0
   41.4370   33.4560   39.5500 H   0  0  0  0  0  0  0  0  0  0  0  0
   38.2450   29.3250   40.1350 C   0  0  0  0  0  0  0  0  0  0  0  0
   37.9170   28.7400   38.9230 C   0  0  0  0  0  0  0  0  0  0  0  0
   38.1990   29.0930   37.9400 H   0  0  0  0  0  0  0  0  0  0  0  0
   37.1450   27.5720   38.8760 C   0  0  0  0  0  3  0  0  0  0  0  0
   36.7070   26.9970   40.0560 C   0  0  0  0  0  3  0  0  0  0  0  0
   37.0350   27.5820   41.2620 C   0  0  0  0  0  0  0  0  0  0  0  0
   36.6450   27.0780   42.5000 C   0  0  0  0  0  3  0  0  0  0  0  0
   37.0070   27.7060   43.6800 C   0  0  0  0  0  3  0  0  0  0  0  0
   37.7710   28.8560   43.6610 C   0  0  0  0  0  3  0  0  0  0  0  0
   38.1740   29.3840   42.4550 C   0  0  0  0  0  3  0  0  0  0  0  0
   37.7950   28.7320   41.2980 C   0  0  0  0  0  0  0  0  0  0  0  0
   37.1730   32.0250   39.7750 C   0  0  0  0  0  0  0  0  0  0  0  0
   36.9060   33.3860   39.5810 F   0  0  0  0  0  0  0  0  0  0  0  0
   36.7170   31.7650   41.0470 F   0  0  0  0  0  0  0  0  0  0  0  0
   36.5180   31.3420   38.8090 F   0  0  0  0  0  0  0  0  0  0  0  0
  1  7  1  0  0  0  0
  2  1  1  0  0  0  0
  2  9  1  0  0  0  0
  3  2  2  0  0  0  0
  4  5  2  0  0  0  0
  4  3  1  0  0  0  0
  5  6  1  0  0  0  0
  6  1  2  0  0  0  0
  8  5  1  0  0  0  0
  9 19  1  0  0  0  0
 10  9  2  0  0  0  0
 11 10  1  0  0  0  0
 12 10  1  0  0  0  0
 12 13  2  0  0  0  0
 13 14  1  0  0  0  0
 14 19  2  0  0  0  0
 14 15  1  0  0  0  0
 15 16  2  0  0  0  0
 17 16  1  0  0  0  0
 18 17  2  0  0  0  0
 19 18  1  0  0  0  0
 20  3  1  0  0  0  0
 20 22  1  0  0  0  0
 21 20  1  0  0  0  0
 23 20  1  0  0  0  0
M  END
>  <minimizedAffinity>
-5.54194021

$$$$

 OpenBabel03252501183D

 23 25  0  0  0  0  0  0  0  0999 V2000
   39.7720   27.0370   40.8780 C   0  0  0  0  0  0  0  0  0  0  0  0
   38.7590   27.7590   41.5410 C   0  0  0  0  0  0  0  0  0  0  0  0
   37.7830   27.0260   42.2110 C   0  0  0  0  0  0  0  0  0  0  0  0
   37.8610   25.6730   42.1890 N   0  0  0  0  0  0  0  0  0  0  0  0
   38.8450   25.0090   41.5440 C   0  0  0  0  0  0  0  0  0  0  0  0
   39.7900   25.6890   40.8950 N   0  0  0  0  0  0  0  0  0  0  0  0
   40.5730   27.5010   40.3290 H   0  0  0  0  0  0  0  0  0  0  0  0
   38.6930   23.9450   41.6700 H   0  0  0  0  0  0  0  0  0  0  0  0
   38.9000   29.1880   41.4060 C   0  0  0  0  0  0  0  0  0  0  0  0
   39.7240   29.7220   42.3840 C   0  0  0  0  0  0  0  0  0  0  0  0
   40.2280   29.1770   43.1700 H   0  0  0  0  0  0  0  0  0  0  0  0
   39.9820   31.0980   42.4300 C   0  0  0  0  0  3  0  0  0  0  0  0
   39.4080   31.9310   41.4860 C   0  0  0  0  0  3  0  0  0  0  0  0
   38.5880   31.3960   40.5130 C   0  0  0  0  0  0  0  0  0  0  0  0
   37.9680   32.1510   39.5210 C   0  0  0  0  0  3  0  0  0  0  0  0
   37.1560   31.5580   38.5680 C   0  0  0  0  0  3  0  0  0  0  0  0
   36.9400   30.1940   38.5740 C   0  0  0  0  0  3  0  0  0  0  0  0
   37.5360   29.4170   39.5410 C   0  0  0  0  0  3  0  0  0  0  0  0
   38.3390   30.0400   40.4760 C   0  0  0  0  0  0  0  0  0  0  0  0
   36.7630   27.8300   42.8760 C   0  0  0  0  0  0  0  0  0  0  0  0
   35.9780   26.9840   43.6680 F   0  0  0  0  0  0  0  0  0  0  0  0
   35.9030   28.2810   41.9010 F   0  0  0  0  0  0  0  0  0  0  0  0
   37.2410   28.8090   43.6780 F   0  0  0  0  0  0  0  0  0  0  0  0
  1  6  2  0  0  0  0
  1  2  1  0  0  0  0
  2  3  2  0  0  0  0
  3 20  1  0  0  0  0
  4  3  1  0  0  0  0
  5  8  1  0  0  0  0
  5  4  2  0  0  0  0
  6  5  1  0  0  0  0
  7  1  1  0  0  0  0
  9  2  1  0  0  0  0
  9 10  1  0  0  0  0
 10 12  2  0  0  0  0
 10 11  1  0  0  0  0
 13 12  1  0  0  0  0
 14 13  2  0  0  0  0
 15 14  1  0  0  0  0
 16 17  1  0  0  0  0
 16 15  2  0  0  0  0
 17 18  2  0  0  0  0
 18 19  1  0  0  0  0
 19 14  1  0  0  0  0
 19  9  2  0  0  0  0
 20 21  1  0  0  0  0
 20 23  1  0  0  0  0
 22 20  1  0  0  0  0
M  END
>  <minimizedAffinity>
-5.44554567

$$$$

 OpenBabel03252501183D

 23 25  0  0  0  0  0  0  0  0999 V2000
   38.7410   29.3880   39.5380 C   0  0  0  0  0  0  0  0  0  0  0  0
   37.4100   28.9550   39.7060 C   0  0  0  0  0  0  0  0  0  0  0  0
   36.4800   29.3600   38.7520 C   0  0  0  0  0  0  0  0  0  0  0  0
   36.9010   30.1400   37.7280 N   0  0  0  0  0  0  0  0  0  0  0  0
   38.1850   30.5400   37.5940 C   0  0  0  0  0  0  0  0  0  0  0  0
   39.0940   30.1650   38.4940 N   0  0  0  0  0  0  0  0  0  0  0  0
   39.5400   29.1360   40.2150 H   0  0  0  0  0  0  0  0  0  0  0  0
   38.2740   31.1490   36.7050 H   0  0  0  0  0  0  0  0  0  0  0  0
   37.2220   28.1400   40.8810 C   0  0  0  0  0  0  0  0  0  0  0  0
   37.0980   28.9060   42.0280 C   0  0  0  0  0  0  0  0  0  0  0  0
   37.1260   29.9860   42.0880 H   0  0  0  0  0  0  0  0  0  0  0  0
   36.9160   28.3010   43.2780 C   0  0  0  0  0  3  0  0  0  0  0  0
   36.8580   26.9210   43.3640 C   0  0  0  0  0  3  0  0  0  0  0  0
   36.9820   26.1600   42.2200 C   0  0  0  0  0  0  0  0  0  0  0  0
   36.9350   24.7690   42.2050 C   0  0  0  0  0  3  0  0  0  0  0  0
   37.0620   24.0570   41.0230 C   0  0  0  0  0  3  0  0  0  0  0  0
   37.2390   24.7120   39.8210 C   0  0  0  0  0  3  0  0  0  0  0  0
   37.2920   26.0870   39.7980 C   0  0  0  0  0  3  0  0  0  0  0  0
   37.1620   26.7650   40.9940 C   0  0  0  0  0  0  0  0  0  0  0  0
   35.1210   28.8810   38.9820 C   0  0  0  0  0  0  0  0  0  0  0  0
   35.0790   27.5120   38.6920 F   0  0  0  0  0  0  0  0  0  0  0  0
   34.3190   29.4580   38.0250 F   0  0  0  0  0  0  0  0  0  0  0  0
   34.6660   29.0400   40.2460 F   0  0  0  0  0  0  0  0  0  0  0  0
  1  2  1  0  0  0  0
  1  7  1  0  0  0  0
  2  9  1  0  0  0  0
  3 20  1  0  0  0  0
  3  2  2  0  0  0  0
  4  3  1  0  0  0  0
  5  4  2  0  0  0  0
  5  6  1  0  0  0  0
  6  1  2  0  0  0  0
  8  5  1  0  0  0  0
  9 19  2  0  0  0  0
  9 10  1  0  0  0  0
 10 11  1  0  0  0  0
 10 12  2  0  0  0  0
 12 13  1  0  0  0  0
 14 13  2  0  0  0  0
 15 14  1  0  0  0  0
 16 15  2  0  0  0  0
 17 16  1  0  0  0  0
 18 17  2  0  0  0  0
 18 19  1  0  0  0  0
 19 14  1  0  0  0  0
 20 23  1  0  0  0  0
 21 20  1  0  0  0  0
 22 20  1  0  0  0  0
M  END
>  <minimizedAffinity>
-5.44468546

$$$$

 OpenBabel03252501183D

 23 25  0  0  0  0  0  0  0  0999 V2000
   37.3700   28.2190   38.7300 C   0  0  0  0  0  0  0  0  0  0  0  0
   37.3660   29.1600   39.7800 C   0  0  0  0  0  0  0  0  0  0  0  0
   37.0990   30.4860   39.4510 C   0  0  0  0  0  0  0  0  0  0  0  0
   36.8610   30.7960   38.1540 N   0  0  0  0  0  0  0  0  0  0  0  0
   36.8710   29.8710   37.1680 C   0  0  0  0  0  0  0  0  0  0  0  0
   37.1240   28.5950   37.4590 N   0  0  0  0  0  0  0  0  0  0  0  0
   37.5650   27.1700   38.8700 H   0  0  0  0  0  0  0  0  0  0  0  0
   36.6540   30.3570   36.2270 H   0  0  0  0  0  0  0  0  0  0  0  0
   37.6550   28.5750   41.0660 C   0  0  0  0  0  0  0  0  0  0  0  0
   36.5030   28.2000   41.7370 C   0  0  0  0  0  0  0  0  0  0  0  0
   35.4870   28.3060   41.3810 H   0  0  0  0  0  0  0  0  0  0  0  0
   36.5710   27.6180   43.0090 C   0  0  0  0  0  3  0  0  0  0  0  0
   37.8050   27.4150   43.6000 C   0  0  0  0  0  3  0  0  0  0  0  0
   38.9520   27.7900   42.9300 C   0  0  0  0  0  0  0  0  0  0  0  0
   40.2370   27.6250   43.4400 C   0  0  0  0  0  3  0  0  0  0  0  0
   41.3530   28.0180   42.7200 C   0  0  0  0  0  3  0  0  0  0  0  0
   41.2210   28.5860   41.4680 C   0  0  0  0  0  3  0  0  0  0  0  0
   39.9660   28.7660   40.9320 C   0  0  0  0  0  3  0  0  0  0  0  0
   38.8750   28.3630   41.6780 C   0  0  0  0  0  0  0  0  0  0  0  0
   37.1110   31.4100   40.5810 C   0  0  0  0  0  0  0  0  0  0  0  0
   35.9820   31.1600   41.3700 F   0  0  0  0  0  0  0  0  0  0  0  0
   36.9020   32.6730   40.0750 F   0  0  0  0  0  0  0  0  0  0  0  0
   38.1950   31.3160   41.3840 F   0  0  0  0  0  0  0  0  0  0  0  0
  1  7  1  0  0  0  0
  1  2  1  0  0  0  0
  2  9  1  0  0  0  0
  3  2  2  0  0  0  0
  3 20  1  0  0  0  0
  4  3  1  0  0  0  0
  5  6  1  0  0  0  0
  5  4  2  0  0  0  0
  6  1  2  0  0  0  0
  8  5  1  0  0  0  0
  9 19  2  0  0  0  0
  9 10  1  0  0  0  0
 10 12  2  0  0  0  0
 11 10  1  0  0  0  0
 12 13  1  0  0  0  0
 14 15  1  0  0  0  0
 14 13  2  0  0  0  0
 16 15  2  0  0  0  0
 17 16  1  0  0  0  0
 18 17  2  0  0  0  0
 18 19  1  0  0  0  0
 19 14  1  0  0  0  0
 20 21  1  0  0  0  0
 20 23  1  0  0  0  0
 22 20  1  0  0  0  0
M  END
>  <minimizedAffinity>
-5.43665314

$$$$

 OpenBabel03252501183D

 23 25  0  0  0  0  0  0  0  0999 V2000
   38.4490   29.1010   38.2880 C   0  0  0  0  0  0  0  0  0  0  0  0
   38.2850   29.9650   39.3910 C   0  0  0  0  0  0  0  0  0  0  0  0
   37.6140   31.1640   39.1690 C   0  0  0  0  0  0  0  0  0  0  0  0
   37.1600   31.4320   37.9210 N   0  0  0  0  0  0  0  0  0  0  0  0
   37.3330   30.5830   36.8830 C   0  0  0  0  0  0  0  0  0  0  0  0
   37.9730   29.4290   37.0710 N   0  0  0  0  0  0  0  0  0  0  0  0
   38.9520   28.1510   38.3460 H   0  0  0  0  0  0  0  0  0  0  0  0
   36.8870   31.0140   35.9980 H   0  0  0  0  0  0  0  0  0  0  0  0
   38.8650   29.4500   40.6060 C   0  0  0  0  0  0  0  0  0  0  0  0
   40.2140   29.7470   40.7040 C   0  0  0  0  0  0  0  0  0  0  0  0
   40.8060   30.2990   39.9860 H   0  0  0  0  0  0  0  0  0  0  0  0
   40.9630   29.3270   41.8100 C   0  0  0  0  0  3  0  0  0  0  0  0
   40.3440   28.6080   42.8170 C   0  0  0  0  0  3  0  0  0  0  0  0
   39.0000   28.3130   42.7190 C   0  0  0  0  0  0  0  0  0  0  0  0
   38.2890   27.5990   43.6790 C   0  0  0  0  0  3  0  0  0  0  0  0
   36.9380   27.3350   43.5280 C   0  0  0  0  0  3  0  0  0  0  0  0
   36.2540   27.7770   42.4130 C   0  0  0  0  0  3  0  0  0  0  0  0
   36.9240   28.4860   41.4410 C   0  0  0  0  0  3  0  0  0  0  0  0
   38.2710   28.7310   41.6250 C   0  0  0  0  0  0  0  0  0  0  0  0
   37.4770   32.0140   40.3480 C   0  0  0  0  0  0  0  0  0  0  0  0
   36.4390   31.5100   41.1400 F   0  0  0  0  0  0  0  0  0  0  0  0
   37.0160   33.2360   39.9170 F   0  0  0  0  0  0  0  0  0  0  0  0
   38.5800   32.0910   41.1270 F   0  0  0  0  0  0  0  0  0  0  0  0
  1  7  1  0  0  0  0
  1  2  1  0  0  0  0
  2  9  1  0  0  0  0
  3  2  2  0  0  0  0
  3 20  1  0  0  0  0
  4  3  1  0  0  0  0
  5  6  1  0  0  0  0
  5  4  2  0  0  0  0
  6  1  2  0  0  0  0
  8  5  1  0  0  0  0
  9 10  2  0  0  0  0
  9 19  1  0  0  0  0
 10 12  1  0  0  0  0
 11 10  1  0  0  0  0
 12 13  2  0  0  0  0
 14 13  1  0  0  0  0
 14 15  1  0  0  0  0
 16 15  2  0  0  0  0
 17 16  1  0  0  0  0
 18 19  1  0  0  0  0
 18 17  2  0  0  0  0
 19 14  2  0  0  0  0
 20 23  1  0  0  0  0
 20 21  1  0  0  0  0
 22 20  1  0  0  0  0
M  END
>  <minimizedAffinity>
-5.3652463

$$$$

 OpenBabel03252501183D

 23 25  0  0  0  0  0  0  0  0999 V2000
   39.4970   28.8180   39.3030 C   0  0  0  0  0  0  0  0  0  0  0  0
   38.5400   28.8390   40.3380 C   0  0  0  0  0  0  0  0  0  0  0  0
   37.6040   29.8690   40.3230 C   0  0  0  0  0  0  0  0  0  0  0  0
   37.6630   30.7830   39.3240 N   0  0  0  0  0  0  0  0  0  0  0  0
   38.5930   30.7370   38.3450 C   0  0  0  0  0  0  0  0  0  0  0  0
   39.5000   29.7600   38.3380 N   0  0  0  0  0  0  0  0  0  0  0  0
   40.2670   28.0700   39.2170 H   0  0  0  0  0  0  0  0  0  0  0  0
   38.4360   31.5670   37.6700 H   0  0  0  0  0  0  0  0  0  0  0  0
   38.6990   27.7580   41.2790 C   0  0  0  0  0  0  0  0  0  0  0  0
   39.5920   28.0760   42.2890 C   0  0  0  0  0  0  0  0  0  0  0  0
   40.1270   29.0090   42.4060 H   0  0  0  0  0  0  0  0  0  0  0  0
   39.8880   27.1540   43.3000 C   0  0  0  0  0  3  0  0  0  0  0  0
   39.2800   25.9110   43.2880 C   0  0  0  0  0  3  0  0  0  0  0  0
   38.3910   25.5970   42.2810 C   0  0  0  0  0  0  0  0  0  0  0  0
   37.7280   24.3760   42.1850 C   0  0  0  0  0  3  0  0  0  0  0  0
   36.8420   24.1170   41.1520 C   0  0  0  0  0  3  0  0  0  0  0  0
   36.5900   25.0690   40.1830 C   0  0  0  0  0  3  0  0  0  0  0  0
   37.2280   26.2870   40.2460 C   0  0  0  0  0  3  0  0  0  0  0  0
   38.1050   26.5110   41.2900 C   0  0  0  0  0  0  0  0  0  0  0  0
   36.6420   29.8370   41.4200 C   0  0  0  0  0  0  0  0  0  0  0  0
   35.8690   31.0030   41.3670 F   0  0  0  0  0  0  0  0  0  0  0  0
   37.3570   29.9540   42.5900 F   0  0  0  0  0  0  0  0  0  0  0  0
   35.7910   28.7860   41.4030 F   0  0  0  0  0  0  0  0  0  0  0  0
  1  2  1  0  0  0  0
  2  9  1  0  0  0  0
  3  2  2  0  0  0  0
  3 20  1  0  0  0  0
  4  3  1  0  0  0  0
  5  4  2  0  0  0  0
  6  5  1  0  0  0  0
  6  1  2  0  0  0  0
  7  1  1  0  0  0  0
  8  5  1  0  0  0  0
  9 19  2  0  0  0  0
  9 10  1  0  0  0  0
 10 11  1  0  0  0  0
 10 12  2  0  0  0  0
 13 12  1  0  0  0  0
 14 13  2  0  0  0  0
 15 14  1  0  0  0  0
 16 15  2  0  0  0  0
 17 18  2  0  0  0  0
 17 16  1  0  0  0  0
 18 19  1  0  0  0  0
 19 14  1  0  0  0  0
 20 22  1  0  0  0  0
 21 20  1  0  0  0  0
 23 20  1  0  0  0  0
M  END
>  <minimizedAffinity>
-5.34466171

$$$$

 OpenBabel03252501183D

 23 25  0  0  0  0  0  0  0  0999 V2000
   38.0370   32.9500   40.5070 C   0  0  0  0  0  0  0  0  0  0  0  0
   38.4650   31.7160   39.9790 C   0  0  0  0  0  0  0  0  0  0  0  0
   39.6990   31.6890   39.3350 C   0  0  0  0  0  0  0  0  0  0  0  0
   40.4130   32.8380   39.2540 N   0  0  0  0  0  0  0  0  0  0  0  0
   39.9750   34.0070   39.7710 C   0  0  0  0  0  0  0  0  0  0  0  0
   38.7970   34.0580   40.3920 N   0  0  0  0  0  0  0  0  0  0  0  0
   37.1010   33.0860   41.0230 H   0  0  0  0  0  0  0  0  0  0  0  0
   40.7140   34.7740   39.5830 H   0  0  0  0  0  0  0  0  0  0  0  0
   37.5190   30.6480   40.1920 C   0  0  0  0  0  0  0  0  0  0  0  0
   36.5800   30.5780   39.1770 C   0  0  0  0  0  0  0  0  0  0  0  0
   36.5220   31.2170   38.3060 H   0  0  0  0  0  0  0  0  0  0  0  0
   35.5670   29.6110   39.2030 C   0  0  0  0  0  3  0  0  0  0  0  0
   35.5080   28.7150   40.2560 C   0  0  0  0  0  3  0  0  0  0  0  0
   36.4460   28.7870   41.2660 C   0  0  0  0  0  0  0  0  0  0  0  0
   36.4710   27.9310   42.3640 C   0  0  0  0  0  3  0  0  0  0  0  0
   37.4400   28.0490   43.3470 C   0  0  0  0  0  3  0  0  0  0  0  0
   38.4140   29.0240   43.2640 C   0  0  0  0  0  3  0  0  0  0  0  0
   38.4190   29.8900   42.1940 C   0  0  0  0  0  3  0  0  0  0  0  0
   37.4390   29.7430   41.2320 C   0  0  0  0  0  0  0  0  0  0  0  0
   40.0850   30.3830   38.8080 C   0  0  0  0  0  0  0  0  0  0  0  0
   40.4090   29.5490   39.8850 F   0  0  0  0  0  0  0  0  0  0  0  0
   41.2740   30.5510   38.1360 F   0  0  0  0  0  0  0  0  0  0  0  0
   39.1320   29.7560   38.0820 F   0  0  0  0  0  0  0  0  0  0  0  0
  1  7  1  0  0  0  0
  2  9  1  0  0  0  0
  2  1  2  0  0  0  0
  3  2  1  0  0  0  0
  4  3  2  0  0  0  0
  4  5  1  0  0  0  0
  5  6  2  0  0  0  0
  6  1  1  0  0  0  0
  8  5  1  0  0  0  0
  9 19  1  0  0  0  0
 10 12  1  0  0  0  0
 10  9  2  0  0  0  0
 11 10  1  0  0  0  0
 12 13  2  0  0  0  0
 13 14  1  0  0  0  0
 14 15  1  0  0  0  0
 15 16  2  0  0  0  0
 17 16  1  0  0  0  0
 18 17  2  0  0  0  0
 19 14  2  0  0  0  0
 19 18  1  0  0  0  0
 20  3  1  0  0  0  0
 20 21  1  0  0  0  0
 22 20  1  0  0  0  0
 23 20  1  0  0  0  0
M  END
>  <minimizedAffinity>
-5.33114958

$$$$

 OpenBabel03252501183D

 23 25  0  0  0  0  0  0  0  0999 V2000
   40.1230   29.1520   40.2930 C   0  0  0  0  0  0  0  0  0  0  0  0
   38.7170   29.2550   40.3090 C   0  0  0  0  0  0  0  0  0  0  0  0
   38.1220   30.0420   39.3260 C   0  0  0  0  0  0  0  0  0  0  0  0
   38.9180   30.6570   38.4190 N   0  0  0  0  0  0  0  0  0  0  0  0
   40.2640   30.5390   38.4300 C   0  0  0  0  0  0  0  0  0  0  0  0
   40.8570   29.7910   39.3610 N   0  0  0  0  0  0  0  0  0  0  0  0
   40.6860   28.5720   41.0050 H   0  0  0  0  0  0  0  0  0  0  0  0
   40.6750   31.1170   37.6140 H   0  0  0  0  0  0  0  0  0  0  0  0
   38.1050   28.5090   41.3810 C   0  0  0  0  0  0  0  0  0  0  0  0
   37.9460   29.2780   42.5220 C   0  0  0  0  0  0  0  0  0  0  0  0
   38.2240   30.3160   42.6440 H   0  0  0  0  0  0  0  0  0  0  0  0
   37.3750   28.7330   43.6790 C   0  0  0  0  0  3  0  0  0  0  0  0
   36.9660   27.4120   43.6790 C   0  0  0  0  0  3  0  0  0  0  0  0
   37.1250   26.6480   42.5410 C   0  0  0  0  0  0  0  0  0  0  0  0
   36.7430   25.3130   42.4430 C   0  0  0  0  0  3  0  0  0  0  0  0
   36.9250   24.5960   41.2720 C   0  0  0  0  0  3  0  0  0  0  0  0
   37.4930   25.1900   40.1620 C   0  0  0  0  0  3  0  0  0  0  0  0
   37.8850   26.5090   40.2230 C   0  0  0  0  0  3  0  0  0  0  0  0
   37.6880   27.1930   41.4070 C   0  0  0  0  0  0  0  0  0  0  0  0
   36.6660   30.1100   39.3970 C   0  0  0  0  0  0  0  0  0  0  0  0
   36.2000   30.8130   38.2790 F   0  0  0  0  0  0  0  0  0  0  0  0
   36.3480   30.9180   40.4650 F   0  0  0  0  0  0  0  0  0  0  0  0
   36.0380   28.9120   39.4130 F   0  0  0  0  0  0  0  0  0  0  0  0
  1  2  1  0  0  0  0
  1  7  1  0  0  0  0
  2  9  1  0  0  0  0
  3 20  1  0  0  0  0
  3  2  2  0  0  0  0
  4  5  2  0  0  0  0
  4  3  1  0  0  0  0
  5  6  1  0  0  0  0
  6  1  2  0  0  0  0
  8  5  1  0  0  0  0
  9 19  2  0  0  0  0
  9 10  1  0  0  0  0
 10 11  1  0  0  0  0
 10 12  2  0  0  0  0
 13 12  1  0  0  0  0
 14 13  2  0  0  0  0
 15 14  1  0  0  0  0
 16 15  2  0  0  0  0
 17 18  2  0  0  0  0
 17 16  1  0  0  0  0
 18 19  1  0  0  0  0
 19 14  1  0  0  0  0
 20 23  1  0  0  0  0
 20 22  1  0  0  0  0
 21 20  1  0  0  0  0
M  END
>  <minimizedAffinity>
-5.26962185

$$$$

 OpenBabel03252501183D

 23 25  0  0  0  0  0  0  0  0999 V2000
   37.4850   26.2770   39.3800 C   0  0  0  0  0  0  0  0  0  0  0  0
   36.7490   27.4040   39.8000 C   0  0  0  0  0  0  0  0  0  0  0  0
   35.7170   27.8390   38.9730 C   0  0  0  0  0  0  0  0  0  0  0  0
   35.4790   27.1620   37.8240 N   0  0  0  0  0  0  0  0  0  0  0  0
   36.2030   26.0840   37.4480 C   0  0  0  0  0  0  0  0  0  0  0  0
   37.1960   25.6490   38.2230 N   0  0  0  0  0  0  0  0  0  0  0  0
   38.3040   25.8570   39.9400 H   0  0  0  0  0  0  0  0  0  0  0  0
   35.8260   25.7190   36.5020 H   0  0  0  0  0  0  0  0  0  0  0  0
   37.2060   27.9440   41.0560 C   0  0  0  0  0  0  0  0  0  0  0  0
   36.6300   27.3000   42.1390 C   0  0  0  0  0  0  0  0  0  0  0  0
   35.9220   26.4830   42.1000 H   0  0  0  0  0  0  0  0  0  0  0  0
   36.9390   27.6830   43.4490 C   0  0  0  0  0  3  0  0  0  0  0  0
   37.8330   28.7170   43.6630 C   0  0  0  0  0  3  0  0  0  0  0  0
   38.4070   29.3570   42.5840 C   0  0  0  0  0  0  0  0  0  0  0  0
   39.3170   30.4050   42.6970 C   0  0  0  0  0  3  0  0  0  0  0  0
   39.8630   31.0080   41.5760 C   0  0  0  0  0  3  0  0  0  0  0  0
   39.5190   30.5840   40.3080 C   0  0  0  0  0  3  0  0  0  0  0  0
   38.6200   29.5520   40.1570 C   0  0  0  0  0  3  0  0  0  0  0  0
   38.0950   28.9730   41.2970 C   0  0  0  0  0  0  0  0  0  0  0  0
   34.9950   29.0090   39.4620 C   0  0  0  0  0  0  0  0  0  0  0  0
   33.8260   29.1560   38.7050 F   0  0  0  0  0  0  0  0  0  0  0  0
   35.7490   30.1150   39.1440 F   0  0  0  0  0  0  0  0  0  0  0  0
   34.6300   28.9530   40.7630 F   0  0  0  0  0  0  0  0  0  0  0  0
  1  2  1  0  0  0  0
  1  7  1  0  0  0  0
  2  9  1  0  0  0  0
  3 20  1  0  0  0  0
  3  2  2  0  0  0  0
  4  3  1  0  0  0  0
  5  4  2  0  0  0  0
  5  6  1  0  0  0  0
  6  1  2  0  0  0  0
  8  5  1  0  0  0  0
  9 19  2  0  0  0  0
  9 10  1  0  0  0  0
 10 12  2  0  0  0  0
 11 10  1  0  0  0  0
 12 13  1  0  0  0  0
 14 15  1  0  0  0  0
 14 13  2  0  0  0  0
 16 15  2  0  0  0  0
 17 16  1  0  0  0  0
 18 17  2  0  0  0  0
 18 19  1  0  0  0  0
 19 14  1  0  0  0  0
 20 23  1  0  0  0  0
 21 20  1  0  0  0  0
 22 20  1  0  0  0  0
M  END
>  <minimizedAffinity>
-5.26325369

$$$$
