
 OpenBabel03252508303D

 41 45  0  0  1  0  0  0  0  0999 V2000
   38.9670   32.2980   41.8060 N   0  0  0  0  0  0  0  0  0  0  0  0
   39.2980   33.3100   40.7790 C   0  0  2  0  0  0  0  0  0  0  0  0
   38.2380   33.4190   39.7420 C   0  0  0  0  0  0  0  0  0  0  0  0
   37.0230   32.7380   40.1120 N   0  0  0  0  0  0  0  0  0  0  0  0
   37.2170   31.4020   40.5360 C   0  0  0  0  0  0  0  0  0  0  0  0
   38.6280   31.1090   41.0650 C   0  0  2  0  0  0  0  0  0  0  0  0
   38.0500   32.6670   42.2480 H   0  0  0  0  0  0  0  0  0  0  0  0
   39.3710   34.3010   41.2920 H   0  0  0  0  0  0  0  0  0  0  0  0
   37.9440   34.4890   39.5430 H   0  0  0  0  0  0  0  0  0  0  0  0
   38.4500   32.9430   38.7670 H   0  0  0  0  0  0  0  0  0  0  0  0
   36.4310   33.3370   40.7410 H   0  0  0  0  0  0  0  0  0  0  0  0
   36.9860   30.6400   39.7670 H   0  0  0  0  0  0  0  0  0  0  0  0
   36.4830   31.2080   41.3540 H   0  0  0  0  0  0  0  0  0  0  0  0
   39.3180   31.0040   40.1710 H   0  0  0  0  0  0  0  0  0  0  0  0
   38.4830   29.8470   41.7730 C   0  0  0  0  0  0  0  0  0  0  0  0
   37.1060   29.5400   41.7750 C   0  0  0  0  0  0  0  0  0  0  0  0
   36.2440   30.0660   41.3290 H   0  0  0  0  0  0  0  0  0  0  0  0
   36.6030   28.4030   42.4100 C   0  0  0  0  0  3  0  0  0  0  0  0
   37.4620   27.5440   43.0590 C   0  0  0  0  0  3  0  0  0  0  0  0
   38.8090   27.8030   43.0810 C   0  0  0  0  0  0  0  0  0  0  0  0
   39.7700   27.0230   43.6800 C   0  0  0  0  0  3  0  0  0  0  0  0
   41.1200   27.3020   43.6750 C   0  0  0  0  0  3  0  0  0  0  0  0
   41.5080   28.4690   43.0040 C   0  0  0  0  0  3  0  0  0  0  0  0
   40.5680   29.2680   42.3970 C   0  0  0  0  0  3  0  0  0  0  0  0
   39.2430   28.9320   42.4420 C   0  0  0  0  0  0  0  0  0  0  0  0
   42.0750   32.1830   38.7910 C   0  0  0  0  0  0  0  0  0  0  0  0
   42.6820   32.8330   39.8720 C   0  0  0  0  0  0  0  0  0  0  0  0
   41.7080   33.3120   40.7320 C   0  0  0  0  0  0  0  0  0  0  0  0
   40.5410   32.9470   40.1600 N   0  0  0  0  0  0  0  0  0  0  0  0
   40.7700   32.2920   39.0360 N   0  0  0  0  0  0  0  0  0  0  0  0
   43.7870   32.8770   39.8930 H   0  0  0  0  0  0  0  0  0  0  0  0
   42.1780   33.8100   41.5720 H   0  0  0  0  0  0  0  0  0  0  0  0
   42.9430   30.0640   35.8020 C   0  0  0  0  0  0  0  0  0  0  0  0
   42.1520   30.6040   36.8610 C   0  0  0  0  0  0  0  0  0  0  0  0
   42.7750   31.5470   37.6800 C   0  0  0  0  0  0  0  0  0  0  0  0
   44.0600   31.8970   37.4440 N   0  0  0  0  0  0  0  0  0  0  0  0
   44.7800   31.3700   36.4380 C   0  0  0  0  0  0  0  0  0  0  0  0
   44.2110   30.4670   35.6390 N   0  0  0  0  0  0  0  0  0  0  0  0
   42.4690   29.3330   35.1610 H   0  0  0  0  0  0  0  0  0  0  0  0
   41.1290   30.3220   37.0460 H   0  0  0  0  0  0  0  0  0  0  0  0
   45.8080   31.6670   36.2700 H   0  0  0  0  0  0  0  0  0  0  0  0
  1  7  1  0  0  0  0
  2  8  1  1  0  0  0
  2  1  1  0  0  0  0
  3  4  1  0  0  0  0
  3  2  1  0  0  0  0
  4  5  1  0  0  0  0
  4 11  1  0  0  0  0
  5  6  1  0  0  0  0
  5 13  1  0  0  0  0
  6 14  1  6  0  0  0
  6 15  1  0  0  0  0
  6  1  1  0  0  0  0
  9  3  1  0  0  0  0
 10  3  1  0  0  0  0
 12  5  1  0  0  0  0
 15 16  2  0  0  0  0
 15 25  1  0  0  0  0
 16 18  1  0  0  0  0
 17 16  1  0  0  0  0
 18 19  2  0  0  0  0
 19 20  1  0  0  0  0
 20 21  1  0  0  0  0
 22 21  2  0  0  0  0
 23 22  1  0  0  0  0
 24 25  1  0  0  0  0
 24 23  2  0  0  0  0
 25 20  2  0  0  0  0
 26 30  2  0  0  0  0
 26 27  1  0  0  0  0
 27 31  1  0  0  0  0
 27 28  2  0  0  0  0
 28 32  1  0  0  0  0
 29 28  1  0  0  0  0
 29  2  1  0  0  0  0
 30 29  1  0  0  0  0
 33 34  1  0  0  0  0
 34 40  1  0  0  0  0
 34 35  2  0  0  0  0
 35 26  1  0  0  0  0
 36 35  1  0  0  0  0
 37 36  2  0  0  0  0
 38 33  2  0  0  0  0
 38 37  1  0  0  0  0
 39 33  1  0  0  0  0
 41 37  1  0  0  0  0
M  END
>  <minimizedAffinity>
-6.93759346

$$$$

 OpenBabel03252508303D

 41 45  0  0  1  0  0  0  0  0999 V2000
   35.0360   28.0820   38.6280 N   0  0  0  0  0  0  0  0  0  0  0  0
   35.0980   28.7450   37.3070 C   0  0  2  0  0  0  0  0  0  0  0  0
   35.4260   27.7880   36.2180 C   0  0  0  0  0  0  0  0  0  0  0  0
   35.3330   26.4120   36.6350 N   0  0  0  0  0  0  0  0  0  0  0  0
   36.0370   26.1230   37.8280 C   0  0  0  0  0  0  0  0  0  0  0  0
   36.2670   27.3410   38.7340 C   0  0  2  0  0  0  0  0  0  0  0  0
   34.2400   27.3560   38.5160 H   0  0  0  0  0  0  0  0  0  0  0  0
   34.0850   29.1660   37.0920 H   0  0  0  0  0  0  0  0  0  0  0  0
   34.7320   27.8910   35.3350 H   0  0  0  0  0  0  0  0  0  0  0  0
   36.4630   27.8150   35.8330 H   0  0  0  0  0  0  0  0  0  0  0  0
   34.3380   26.0730   36.5960 H   0  0  0  0  0  0  0  0  0  0  0  0
   37.0180   25.6340   37.6730 H   0  0  0  0  0  0  0  0  0  0  0  0
   35.4340   25.3700   38.3910 H   0  0  0  0  0  0  0  0  0  0  0  0
   37.1190   27.9450   38.2900 H   0  0  0  0  0  0  0  0  0  0  0  0
   36.6410   26.7620   40.0140 C   0  0  0  0  0  0  0  0  0  0  0  0
   36.5600   25.3620   39.8640 C   0  0  0  0  0  0  0  0  0  0  0  0
   36.3090   24.7380   38.9880 H   0  0  0  0  0  0  0  0  0  0  0  0
   36.8190   24.4880   40.9210 C   0  0  0  0  0  3  0  0  0  0  0  0
   37.1660   24.9900   42.1560 C   0  0  0  0  0  3  0  0  0  0  0  0
   37.2580   26.3460   42.3480 C   0  0  0  0  0  0  0  0  0  0  0  0
   37.6050   26.9730   43.5200 C   0  0  0  0  0  3  0  0  0  0  0  0
   37.7020   28.3390   43.6790 C   0  0  0  0  0  3  0  0  0  0  0  0
   37.4230   29.1150   42.5480 C   0  0  0  0  0  3  0  0  0  0  0  0
   37.0720   28.5150   41.3610 C   0  0  0  0  0  3  0  0  0  0  0  0
   36.9930   27.1510   41.2730 C   0  0  0  0  0  0  0  0  0  0  0  0
   37.4710   31.3540   38.0120 C   0  0  0  0  0  0  0  0  0  0  0  0
   37.6740   31.0780   36.6550 C   0  0  0  0  0  0  0  0  0  0  0  0
   36.8010   30.0820   36.2480 C   0  0  0  0  0  0  0  0  0  0  0  0
   36.0950   29.7770   37.3570 N   0  0  0  0  0  0  0  0  0  0  0  0
   36.4930   30.5240   38.3720 N   0  0  0  0  0  0  0  0  0  0  0  0
   38.4550   31.6530   36.1230 H   0  0  0  0  0  0  0  0  0  0  0  0
   36.9530   29.8730   35.1960 H   0  0  0  0  0  0  0  0  0  0  0  0
   38.3750   34.1590   40.3570 C   0  0  0  0  0  0  0  0  0  0  0  0
   37.5450   33.2460   39.6360 C   0  0  0  0  0  0  0  0  0  0  0  0
   38.2010   32.3450   38.7950 C   0  0  0  0  0  0  0  0  0  0  0  0
   39.5500   32.3740   38.7010 N   0  0  0  0  0  0  0  0  0  0  0  0
   40.3050   33.2470   39.3930 C   0  0  0  0  0  0  0  0  0  0  0  0
   39.7070   34.1180   40.2040 N   0  0  0  0  0  0  0  0  0  0  0  0
   37.8770   34.8610   41.0120 H   0  0  0  0  0  0  0  0  0  0  0  0
   36.4720   33.2270   39.7140 H   0  0  0  0  0  0  0  0  0  0  0  0
   41.3840   33.2500   39.3000 H   0  0  0  0  0  0  0  0  0  0  0  0
  1  6  1  0  0  0  0
  2  8  1  6  0  0  0
  2 29  1  0  0  0  0
  2  1  1  0  0  0  0
  3  4  1  0  0  0  0
  3  2  1  0  0  0  0
  4  5  1  0  0  0  0
  5 13  1  0  0  0  0
  5  6  1  0  0  0  0
  6 14  1  6  0  0  0
  6 15  1  0  0  0  0
  7  1  1  0  0  0  0
  9  3  1  0  0  0  0
 10  3  1  0  0  0  0
 11  4  1  0  0  0  0
 12  5  1  0  0  0  0
 15 25  1  0  0  0  0
 16 15  2  0  0  0  0
 16 18  1  0  0  0  0
 17 16  1  0  0  0  0
 18 19  2  0  0  0  0
 19 20  1  0  0  0  0
 20 21  1  0  0  0  0
 21 22  2  0  0  0  0
 23 22  1  0  0  0  0
 24 23  2  0  0  0  0
 25 24  1  0  0  0  0
 25 20  2  0  0  0  0
 26 30  2  0  0  0  0
 26 35  1  0  0  0  0
 27 26  1  0  0  0  0
 28 27  2  0  0  0  0
 28 29  1  0  0  0  0
 29 30  1  0  0  0  0
 31 27  1  0  0  0  0
 32 28  1  0  0  0  0
 33 39  1  0  0  0  0
 34 40  1  0  0  0  0
 34 33  2  0  0  0  0
 35 34  1  0  0  0  0
 36 35  2  0  0  0  0
 36 37  1  0  0  0  0
 37 38  2  0  0  0  0
 38 33  1  0  0  0  0
 41 37  1  0  0  0  0
M  END
>  <minimizedAffinity>
-6.7441802

$$$$

 OpenBabel03252508303D

 41 45  0  0  1  0  0  0  0  0999 V2000
   35.6200   28.4460   40.3730 N   0  0  0  0  0  0  0  0  0  0  0  0
   35.4580   29.5660   39.4220 C   0  0  2  0  0  0  0  0  0  0  0  0
   35.4460   29.1000   38.0090 C   0  0  0  0  0  0  0  0  0  0  0  0
   35.3120   27.6700   37.8930 N   0  0  0  0  0  0  0  0  0  0  0  0
   36.2280   26.9400   38.6870 C   0  0  0  0  0  0  0  0  0  0  0  0
   36.7670   27.7130   39.8980 C   0  0  2  0  0  0  0  0  0  0  0  0
   34.7520   27.8230   40.1920 H   0  0  0  0  0  0  0  0  0  0  0  0
   34.4680   30.0430   39.6270 H   0  0  0  0  0  0  0  0  0  0  0  0
   34.5900   29.5390   37.4220 H   0  0  0  0  0  0  0  0  0  0  0  0
   36.3710   29.2670   37.4270 H   0  0  0  0  0  0  0  0  0  0  0  0
   34.3050   27.3780   37.9690 H   0  0  0  0  0  0  0  0  0  0  0  0
   37.0990   26.5420   38.1310 H   0  0  0  0  0  0  0  0  0  0  0  0
   35.6920   26.0320   39.0550 H   0  0  0  0  0  0  0  0  0  0  0  0
   37.5570   28.4360   39.5230 H   0  0  0  0  0  0  0  0  0  0  0  0
   37.3530   26.6830   40.7410 C   0  0  0  0  0  0  0  0  0  0  0  0
   36.6930   25.4780   40.4250 C   0  0  0  0  0  0  0  0  0  0  0  0
   35.9070   25.2520   39.6820 H   0  0  0  0  0  0  0  0  0  0  0  0
   36.9840   24.2810   41.0810 C   0  0  0  0  0  3  0  0  0  0  0  0
   37.9420   24.2570   42.0710 C   0  0  0  0  0  3  0  0  0  0  0  0
   38.6100   25.4060   42.4110 C   0  0  0  0  0  0  0  0  0  0  0  0
   39.5920   25.5150   43.3660 C   0  0  0  0  0  3  0  0  0  0  0  0
   40.2560   26.6830   43.6780 C   0  0  0  0  0  3  0  0  0  0  0  0
   39.8820   27.8200   42.9510 C   0  0  0  0  0  3  0  0  0  0  0  0
   38.9020   27.7400   41.9890 C   0  0  0  0  0  3  0  0  0  0  0  0
   38.2820   26.5480   41.7320 C   0  0  0  0  0  0  0  0  0  0  0  0
   38.3190   31.7450   39.3480 C   0  0  0  0  0  0  0  0  0  0  0  0
   37.7330   32.0070   40.5920 C   0  0  0  0  0  0  0  0  0  0  0  0
   36.6100   31.2120   40.7530 C   0  0  0  0  0  0  0  0  0  0  0  0
   36.5380   30.4930   39.6130 N   0  0  0  0  0  0  0  0  0  0  0  0
   37.5360   30.8110   38.8090 N   0  0  0  0  0  0  0  0  0  0  0  0
   38.2130   32.7650   41.2380 H   0  0  0  0  0  0  0  0  0  0  0  0
   36.1600   31.4100   41.7190 H   0  0  0  0  0  0  0  0  0  0  0  0
   41.3150   32.6440   37.2530 C   0  0  0  0  0  0  0  0  0  0  0  0
   40.1540   31.9240   37.6680 C   0  0  0  0  0  0  0  0  0  0  0  0
   39.5200   32.3850   38.8230 C   0  0  0  0  0  0  0  0  0  0  0  0
   40.0160   33.4590   39.4790 N   0  0  0  0  0  0  0  0  0  0  0  0
   41.1120   34.1170   39.0620 C   0  0  0  0  0  0  0  0  0  0  0  0
   41.7390   33.7000   37.9620 N   0  0  0  0  0  0  0  0  0  0  0  0
   41.8130   32.2960   36.3580 H   0  0  0  0  0  0  0  0  0  0  0  0
   39.7630   31.0690   37.1430 H   0  0  0  0  0  0  0  0  0  0  0  0
   41.4900   34.9750   39.6050 H   0  0  0  0  0  0  0  0  0  0  0  0
  2 29  1  0  0  0  0
  2  8  1  1  0  0  0
  2  1  1  0  0  0  0
  3  2  1  0  0  0  0
  4 11  1  0  0  0  0
  4  3  1  0  0  0  0
  4  5  1  0  0  0  0
  5 13  1  0  0  0  0
  5  6  1  0  0  0  0
  6 14  1  6  0  0  0
  6  1  1  0  0  0  0
  6 15  1  0  0  0  0
  7  1  1  0  0  0  0
  9  3  1  0  0  0  0
 10  3  1  0  0  0  0
 12  5  1  0  0  0  0
 15 25  1  0  0  0  0
 16 15  2  0  0  0  0
 16 18  1  0  0  0  0
 17 16  1  0  0  0  0
 18 19  2  0  0  0  0
 19 20  1  0  0  0  0
 20 21  1  0  0  0  0
 21 22  2  0  0  0  0
 23 22  1  0  0  0  0
 24 23  2  0  0  0  0
 25 24  1  0  0  0  0
 25 20  2  0  0  0  0
 26 27  1  0  0  0  0
 27 28  2  0  0  0  0
 27 31  1  0  0  0  0
 28 32  1  0  0  0  0
 29 28  1  0  0  0  0
 30 26  2  0  0  0  0
 30 29  1  0  0  0  0
 33 34  2  0  0  0  0
 33 38  1  0  0  0  0
 34 35  1  0  0  0  0
 35 26  1  0  0  0  0
 35 36  2  0  0  0  0
 37 36  1  0  0  0  0
 37 41  1  0  0  0  0
 38 37  2  0  0  0  0
 39 33  1  0  0  0  0
 40 34  1  0  0  0  0
M  END
>  <minimizedAffinity>
-6.65089321

$$$$

 OpenBabel03252508303D

 41 45  0  0  1  0  0  0  0  0999 V2000
   36.6860   30.7210   40.1280 N   0  0  0  0  0  0  0  0  0  0  0  0
   37.1850   31.5240   38.9910 C   0  0  2  0  0  0  0  0  0  0  0  0
   36.9830   30.8320   37.6900 C   0  0  0  0  0  0  0  0  0  0  0  0
   36.1100   29.6900   37.7930 N   0  0  0  0  0  0  0  0  0  0  0  0
   36.4610   28.7890   38.8260 C   0  0  0  0  0  0  0  0  0  0  0  0
   37.2820   29.4200   39.9590 C   0  0  2  0  0  0  0  0  0  0  0  0
   35.6270   30.6120   39.9240 H   0  0  0  0  0  0  0  0  0  0  0  0
   36.5960   32.4740   38.9630 H   0  0  0  0  0  0  0  0  0  0  0  0
   36.5180   31.5080   36.9160 H   0  0  0  0  0  0  0  0  0  0  0  0
   37.8760   30.3660   37.2340 H   0  0  0  0  0  0  0  0  0  0  0  0
   35.1000   29.9830   37.7630 H   0  0  0  0  0  0  0  0  0  0  0  0
   37.0060   27.8890   38.4810 H   0  0  0  0  0  0  0  0  0  0  0  0
   35.5090   28.3940   39.2530 H   0  0  0  0  0  0  0  0  0  0  0  0
   38.3500   29.5310   39.5930 H   0  0  0  0  0  0  0  0  0  0  0  0
   37.1920   28.4500   41.0400 C   0  0  0  0  0  0  0  0  0  0  0  0
   37.3040   29.1750   42.2440 C   0  0  0  0  0  0  0  0  0  0  0  0
   37.4050   30.2580   42.4340 H   0  0  0  0  0  0  0  0  0  0  0  0
   37.2960   28.5450   43.4900 C   0  0  0  0  0  3  0  0  0  0  0  0
   37.1770   27.1750   43.5640 C   0  0  0  0  0  3  0  0  0  0  0  0
   37.0640   26.4300   42.4180 C   0  0  0  0  0  0  0  0  0  0  0  0
   36.9270   25.0640   42.3540 C   0  0  0  0  0  3  0  0  0  0  0  0
   36.8030   24.3420   41.1860 C   0  0  0  0  0  3  0  0  0  0  0  0
   36.8210   25.0820   39.9970 C   0  0  0  0  0  3  0  0  0  0  0  0
   36.9580   26.4500   40.0310 C   0  0  0  0  0  3  0  0  0  0  0  0
   37.0780   27.1040   41.2270 C   0  0  0  0  0  0  0  0  0  0  0  0
   40.5490   32.2220   40.0560 C   0  0  0  0  0  0  0  0  0  0  0  0
   40.6820   31.9560   38.6880 C   0  0  0  0  0  0  0  0  0  0  0  0
   39.4370   31.6780   38.1460 C   0  0  0  0  0  0  0  0  0  0  0  0
   38.5840   31.7790   39.1870 N   0  0  0  0  0  0  0  0  0  0  0  0
   39.2430   32.0970   40.2870 N   0  0  0  0  0  0  0  0  0  0  0  0
   41.6960   31.9980   38.2500 H   0  0  0  0  0  0  0  0  0  0  0  0
   39.5390   31.4790   37.0860 H   0  0  0  0  0  0  0  0  0  0  0  0
   43.1690   32.1070   42.7570 C   0  0  0  0  0  0  0  0  0  0  0  0
   42.0880   31.6620   41.9370 C   0  0  0  0  0  0  0  0  0  0  0  0
   41.6390   32.5580   40.9650 C   0  0  0  0  0  0  0  0  0  0  0  0
   42.2260   33.7700   40.8460 N   0  0  0  0  0  0  0  0  0  0  0  0
   43.2440   34.1610   41.6340 C   0  0  0  0  0  0  0  0  0  0  0  0
   43.6940   33.3270   42.5710 N   0  0  0  0  0  0  0  0  0  0  0  0
   43.5250   31.4210   43.5130 H   0  0  0  0  0  0  0  0  0  0  0  0
   41.6220   30.6960   42.0360 H   0  0  0  0  0  0  0  0  0  0  0  0
   43.6980   35.1370   41.5190 H   0  0  0  0  0  0  0  0  0  0  0  0
  2  8  1  6  0  0  0
  2 29  1  0  0  0  0
  2  1  1  0  0  0  0
  3  4  1  0  0  0  0
  3  2  1  0  0  0  0
  4  5  1  0  0  0  0
  5 13  1  0  0  0  0
  5  6  1  0  0  0  0
  6 14  1  6  0  0  0
  6  1  1  0  0  0  0
  6 15  1  0  0  0  0
  7  1  1  0  0  0  0
  9  3  1  0  0  0  0
 10  3  1  0  0  0  0
 11  4  1  0  0  0  0
 12  5  1  0  0  0  0
 15 25  2  0  0  0  0
 15 16  1  0  0  0  0
 16 17  1  0  0  0  0
 16 18  2  0  0  0  0
 18 19  1  0  0  0  0
 20 19  2  0  0  0  0
 21 20  1  0  0  0  0
 22 21  2  0  0  0  0
 23 24  2  0  0  0  0
 23 22  1  0  0  0  0
 24 25  1  0  0  0  0
 25 20  1  0  0  0  0
 26 30  2  0  0  0  0
 26 35  1  0  0  0  0
 27 26  1  0  0  0  0
 28 27  2  0  0  0  0
 28 29  1  0  0  0  0
 29 30  1  0  0  0  0
 31 27  1  0  0  0  0
 32 28  1  0  0  0  0
 33 39  1  0  0  0  0
 34 40  1  0  0  0  0
 34 33  2  0  0  0  0
 35 34  1  0  0  0  0
 36 35  2  0  0  0  0
 36 37  1  0  0  0  0
 37 38  2  0  0  0  0
 38 33  1  0  0  0  0
 41 37  1  0  0  0  0
M  END
>  <minimizedAffinity>
-6.64405298

$$$$

 OpenBabel03252508303D

 41 45  0  0  1  0  0  0  0  0999 V2000
   34.3510   28.8800   35.9170 N   0  0  0  0  0  0  0  0  0  0  0  0
   35.1300   27.8180   36.5890 C   0  0  2  0  0  0  0  0  0  0  0  0
   34.4840   26.4850   36.4580 C   0  0  0  0  0  0  0  0  0  0  0  0
   33.4170   26.4740   35.4890 N   0  0  0  0  0  0  0  0  0  0  0  0
   32.4700   27.5100   35.6630 C   0  0  0  0  0  0  0  0  0  0  0  0
   33.0070   28.7340   36.4180 C   0  0  2  0  0  0  0  0  0  0  0  0
   34.3350   28.5730   34.8790 H   0  0  0  0  0  0  0  0  0  0  0  0
   36.1270   27.7600   36.0860 H   0  0  0  0  0  0  0  0  0  0  0  0
   35.2100   25.6890   36.1270 H   0  0  0  0  0  0  0  0  0  0  0  0
   33.9530   26.1040   37.3500 H   0  0  0  0  0  0  0  0  0  0  0  0
   33.7950   26.3560   34.5140 H   0  0  0  0  0  0  0  0  0  0  0  0
   31.5340   27.1940   36.1630 H   0  0  0  0  0  0  0  0  0  0  0  0
   32.1480   27.8340   34.6440 H   0  0  0  0  0  0  0  0  0  0  0  0
   33.0350   28.4730   37.5220 H   0  0  0  0  0  0  0  0  0  0  0  0
   32.0280   29.7730   36.1450 C   0  0  0  0  0  0  0  0  0  0  0  0
   32.2960   30.2500   34.8450 C   0  0  0  0  0  0  0  0  0  0  0  0
   33.0470   29.9390   34.0980 H   0  0  0  0  0  0  0  0  0  0  0  0
   31.5620   31.2900   34.2720 C   0  0  0  0  0  3  0  0  0  0  0  0
   30.5400   31.8800   34.9830 C   0  0  0  0  0  3  0  0  0  0  0  0
   30.2440   31.4480   36.2510 C   0  0  0  0  0  0  0  0  0  0  0  0
   29.2470   31.9400   37.0590 C   0  0  0  0  0  3  0  0  0  0  0  0
   28.9630   31.4760   38.3260 C   0  0  0  0  0  3  0  0  0  0  0  0
   29.7650   30.4280   38.7940 C   0  0  0  0  0  3  0  0  0  0  0  0
   30.7700   29.9160   38.0080 C   0  0  0  0  0  3  0  0  0  0  0  0
   30.9980   30.4250   36.7590 C   0  0  0  0  0  0  0  0  0  0  0  0
   35.9650   28.3450   40.0480 C   0  0  0  0  0  0  0  0  0  0  0  0
   34.8060   29.1080   39.8650 C   0  0  0  0  0  0  0  0  0  0  0  0
   34.3680   28.9820   38.5570 C   0  0  0  0  0  0  0  0  0  0  0  0
   35.2630   28.1540   37.9790 N   0  0  0  0  0  0  0  0  0  0  0  0
   36.1820   27.7920   38.8560 N   0  0  0  0  0  0  0  0  0  0  0  0
   34.4200   29.6750   40.7330 H   0  0  0  0  0  0  0  0  0  0  0  0
   33.4660   29.5670   38.4180 H   0  0  0  0  0  0  0  0  0  0  0  0
   37.9010   29.0960   43.1890 C   0  0  0  0  0  0  0  0  0  0  0  0
   37.1890   29.3470   41.9770 C   0  0  0  0  0  0  0  0  0  0  0  0
   36.7160   28.2260   41.2930 C   0  0  0  0  0  0  0  0  0  0  0  0
   36.9440   26.9890   41.7910 N   0  0  0  0  0  0  0  0  0  0  0  0
   37.6190   26.7850   42.9370 C   0  0  0  0  0  0  0  0  0  0  0  0
   38.0820   27.8360   43.6120 N   0  0  0  0  0  0  0  0  0  0  0  0
   38.2710   29.9580   43.7270 H   0  0  0  0  0  0  0  0  0  0  0  0
   37.0100   30.3330   41.5830 H   0  0  0  0  0  0  0  0  0  0  0  0
   37.7880   25.7840   43.3150 H   0  0  0  0  0  0  0  0  0  0  0  0
  1  6  1  0  0  0  0
  1  2  1  0  0  0  0
  2  8  1  6  0  0  0
  2 29  1  0  0  0  0
  3  2  1  0  0  0  0
  3 10  1  0  0  0  0
  4  5  1  0  0  0  0
  4  3  1  0  0  0  0
  5 12  1  0  0  0  0
  5  6  1  0  0  0  0
  6 14  1  1  0  0  0
  7  1  1  0  0  0  0
  9  3  1  0  0  0  0
 11  4  1  0  0  0  0
 13  5  1  0  0  0  0
 15  6  1  0  0  0  0
 15 25  1  0  0  0  0
 16 15  2  0  0  0  0
 17 16  1  0  0  0  0
 18 16  1  0  0  0  0
 18 19  2  0  0  0  0
 19 20  1  0  0  0  0
 20 25  2  0  0  0  0
 20 21  1  0  0  0  0
 21 22  2  0  0  0  0
 22 23  1  0  0  0  0
 24 23  2  0  0  0  0
 25 24  1  0  0  0  0
 26 35  1  0  0  0  0
 27 26  1  0  0  0  0
 27 31  1  0  0  0  0
 28 27  2  0  0  0  0
 29 28  1  0  0  0  0
 29 30  1  0  0  0  0
 30 26  2  0  0  0  0
 32 28  1  0  0  0  0
 33 38  1  0  0  0  0
 33 39  1  0  0  0  0
 34 33  2  0  0  0  0
 35 36  2  0  0  0  0
 35 34  1  0  0  0  0
 36 37  1  0  0  0  0
 37 41  1  0  0  0  0
 37 38  2  0  0  0  0
 40 34  1  0  0  0  0
M  END
>  <minimizedAffinity>
-6.63230705

$$$$

 OpenBabel03252508303D

 41 45  0  0  1  0  0  0  0  0999 V2000
   38.4430   30.2320   39.7420 N   0  0  0  0  0  0  0  0  0  0  0  0
   38.0990   31.0730   38.5750 C   0  0  2  0  0  0  0  0  0  0  0  0
   37.0530   32.0780   38.9030 C   0  0  0  0  0  0  0  0  0  0  0  0
   36.8170   32.1990   40.3190 N   0  0  0  0  0  0  0  0  0  0  0  0
   36.5920   30.9650   40.9720 C   0  0  0  0  0  0  0  0  0  0  0  0
   37.1810   29.7490   40.2430 C   0  0  2  0  0  0  0  0  0  0  0  0
   38.8210   30.9410   40.4700 H   0  0  0  0  0  0  0  0  0  0  0  0
   39.0200   31.6300   38.2760 H   0  0  0  0  0  0  0  0  0  0  0  0
   37.3280   33.1120   38.5460 H   0  0  0  0  0  0  0  0  0  0  0  0
   36.0300   31.8620   38.5430 H   0  0  0  0  0  0  0  0  0  0  0  0
   37.5270   32.8320   40.7670 H   0  0  0  0  0  0  0  0  0  0  0  0
   35.5260   30.7440   41.1790 H   0  0  0  0  0  0  0  0  0  0  0  0
   37.0630   31.0370   41.9820 H   0  0  0  0  0  0  0  0  0  0  0  0
   36.4940   29.5000   39.3760 H   0  0  0  0  0  0  0  0  0  0  0  0
   37.1690   28.6970   41.2470 C   0  0  0  0  0  0  0  0  0  0  0  0
   37.3890   29.3220   42.4920 C   0  0  0  0  0  0  0  0  0  0  0  0
   37.5190   30.3860   42.7580 H   0  0  0  0  0  0  0  0  0  0  0  0
   37.4770   28.5950   43.6800 C   0  0  0  0  0  3  0  0  0  0  0  0
   37.3470   27.2240   43.6550 C   0  0  0  0  0  3  0  0  0  0  0  0
   37.1310   26.5730   42.4660 C   0  0  0  0  0  0  0  0  0  0  0  0
   36.9720   25.2180   42.3060 C   0  0  0  0  0  3  0  0  0  0  0  0
   36.7420   24.5930   41.0990 C   0  0  0  0  0  3  0  0  0  0  0  0
   36.6710   25.4250   39.9750 C   0  0  0  0  0  3  0  0  0  0  0  0
   36.8270   26.7860   40.1060 C   0  0  0  0  0  3  0  0  0  0  0  0
   37.0540   27.3400   41.3360 C   0  0  0  0  0  0  0  0  0  0  0  0
   37.1450   28.4960   36.2540 C   0  0  0  0  0  0  0  0  0  0  0  0
   36.6340   29.6660   35.6800 C   0  0  0  0  0  0  0  0  0  0  0  0
   36.9460   30.7510   36.4830 C   0  0  0  0  0  0  0  0  0  0  0  0
   37.6330   30.2210   37.5170 N   0  0  0  0  0  0  0  0  0  0  0  0
   37.7410   28.9130   37.3700 N   0  0  0  0  0  0  0  0  0  0  0  0
   36.0830   29.5740   34.7260 H   0  0  0  0  0  0  0  0  0  0  0  0
   36.5570   31.6580   36.0360 H   0  0  0  0  0  0  0  0  0  0  0  0
   35.9510   25.4550   34.3820 C   0  0  0  0  0  0  0  0  0  0  0  0
   35.9540   26.7980   34.8680 C   0  0  0  0  0  0  0  0  0  0  0  0
   37.0190   27.1530   35.6990 C   0  0  0  0  0  0  0  0  0  0  0  0
   37.9700   26.2400   35.9980 N   0  0  0  0  0  0  0  0  0  0  0  0
   37.9400   24.9820   35.5230 C   0  0  0  0  0  0  0  0  0  0  0  0
   36.9360   24.6140   34.7280 N   0  0  0  0  0  0  0  0  0  0  0  0
   35.1310   25.1700   33.7370 H   0  0  0  0  0  0  0  0  0  0  0  0
   35.1930   27.5220   34.6280 H   0  0  0  0  0  0  0  0  0  0  0  0
   38.7150   24.2690   35.7780 H   0  0  0  0  0  0  0  0  0  0  0  0
  1  6  1  0  0  0  0
  1  7  1  0  0  0  0
  2  8  1  6  0  0  0
  2  3  1  0  0  0  0
  2  1  1  0  0  0  0
  3  4  1  0  0  0  0
  4 11  1  0  0  0  0
  4  5  1  0  0  0  0
  5 12  1  0  0  0  0
  5 13  1  0  0  0  0
  6 14  1  6  0  0  0
  6  5  1  0  0  0  0
  6 15  1  0  0  0  0
  9  3  1  0  0  0  0
 10  3  1  0  0  0  0
 15 25  2  0  0  0  0
 15 16  1  0  0  0  0
 16 17  1  0  0  0  0
 16 18  2  0  0  0  0
 19 18  1  0  0  0  0
 20 19  2  0  0  0  0
 21 20  1  0  0  0  0
 22 21  2  0  0  0  0
 23 24  2  0  0  0  0
 23 22  1  0  0  0  0
 24 25  1  0  0  0  0
 25 20  1  0  0  0  0
 26 30  2  0  0  0  0
 27 26  1  0  0  0  0
 27 28  2  0  0  0  0
 28 29  1  0  0  0  0
 29  2  1  0  0  0  0
 30 29  1  0  0  0  0
 31 27  1  0  0  0  0
 32 28  1  0  0  0  0
 33 38  2  0  0  0  0
 33 34  1  0  0  0  0
 34 35  2  0  0  0  0
 35 36  1  0  0  0  0
 35 26  1  0  0  0  0
 37 41  1  0  0  0  0
 37 36  2  0  0  0  0
 38 37  1  0  0  0  0
 39 33  1  0  0  0  0
 40 34  1  0  0  0  0
M  END
>  <minimizedAffinity>
-6.62662125

$$$$

 OpenBabel03252508303D

 41 45  0  0  1  0  0  0  0  0999 V2000
   38.2980   29.9280   39.5850 N   0  0  0  0  0  0  0  0  0  0  0  0
   37.8930   30.7610   38.4330 C   0  0  2  0  0  0  0  0  0  0  0  0
   36.9380   31.8310   38.8280 C   0  0  0  0  0  0  0  0  0  0  0  0
   36.8420   31.9950   40.2560 N   0  0  0  0  0  0  0  0  0  0  0  0
   36.6120   30.7900   40.9600 C   0  0  0  0  0  0  0  0  0  0  0  0
   37.0640   29.5280   40.2120 C   0  0  2  0  0  0  0  0  0  0  0  0
   38.7800   30.6290   40.2560 H   0  0  0  0  0  0  0  0  0  0  0  0
   38.8110   31.2590   38.0360 H   0  0  0  0  0  0  0  0  0  0  0  0
   37.2350   32.8390   38.4200 H   0  0  0  0  0  0  0  0  0  0  0  0
   35.8760   31.6650   38.5690 H   0  0  0  0  0  0  0  0  0  0  0  0
   37.6240   32.5970   40.6200 H   0  0  0  0  0  0  0  0  0  0  0  0
   35.5590   30.6350   41.2690 H   0  0  0  0  0  0  0  0  0  0  0  0
   37.1780   30.8570   41.9200 H   0  0  0  0  0  0  0  0  0  0  0  0
   36.2860   29.2990   39.4190 H   0  0  0  0  0  0  0  0  0  0  0  0
   37.0880   28.5000   41.2400 C   0  0  0  0  0  0  0  0  0  0  0  0
   37.3090   29.1590   42.4670 C   0  0  0  0  0  0  0  0  0  0  0  0
   37.4180   30.2310   42.7070 H   0  0  0  0  0  0  0  0  0  0  0  0
   37.4280   28.4620   43.6710 C   0  0  0  0  0  3  0  0  0  0  0  0
   37.3290   27.0880   43.6800 C   0  0  0  0  0  3  0  0  0  0  0  0
   37.1130   26.4050   42.5100 C   0  0  0  0  0  0  0  0  0  0  0  0
   36.9830   25.0430   42.3830 C   0  0  0  0  0  3  0  0  0  0  0  0
   36.7530   24.3840   41.1940 C   0  0  0  0  0  3  0  0  0  0  0  0
   36.6490   25.1890   40.0520 C   0  0  0  0  0  3  0  0  0  0  0  0
   36.7750   26.5540   40.1490 C   0  0  0  0  0  3  0  0  0  0  0  0
   37.0050   27.1430   41.3620 C   0  0  0  0  0  0  0  0  0  0  0  0
   35.8630   28.9050   36.1160 C   0  0  0  0  0  0  0  0  0  0  0  0
   37.1660   28.4800   35.8310 C   0  0  0  0  0  0  0  0  0  0  0  0
   38.0580   29.1210   36.6740 C   0  0  0  0  0  0  0  0  0  0  0  0
   37.2850   29.9150   37.4450 N   0  0  0  0  0  0  0  0  0  0  0  0
   36.0150   29.7780   37.1110 N   0  0  0  0  0  0  0  0  0  0  0  0
   37.3010   27.7380   35.0220 H   0  0  0  0  0  0  0  0  0  0  0  0
   39.0660   28.7880   36.4580 H   0  0  0  0  0  0  0  0  0  0  0  0
   32.3700   28.6530   34.7330 C   0  0  0  0  0  0  0  0  0  0  0  0
   33.4800   29.2040   35.4430 C   0  0  0  0  0  0  0  0  0  0  0  0
   34.6540   28.4490   35.4380 C   0  0  0  0  0  0  0  0  0  0  0  0
   34.6900   27.2660   34.7840 N   0  0  0  0  0  0  0  0  0  0  0  0
   33.6260   26.7730   34.1240 C   0  0  0  0  0  0  0  0  0  0  0  0
   32.4920   27.4720   34.1100 N   0  0  0  0  0  0  0  0  0  0  0  0
   31.4550   29.2300   34.7300 H   0  0  0  0  0  0  0  0  0  0  0  0
   33.4470   30.1470   35.9630 H   0  0  0  0  0  0  0  0  0  0  0  0
   33.6800   25.8230   33.6070 H   0  0  0  0  0  0  0  0  0  0  0  0
  1  6  1  0  0  0  0
  1  7  1  0  0  0  0
  2  8  1  6  0  0  0
  2  3  1  0  0  0  0
  2  1  1  0  0  0  0
  3  4  1  0  0  0  0
  4 11  1  0  0  0  0
  4  5  1  0  0  0  0
  5 12  1  0  0  0  0
  5 13  1  0  0  0  0
  6 14  1  6  0  0  0
  6  5  1  0  0  0  0
  6 15  1  0  0  0  0
  9  3  1  0  0  0  0
 10  3  1  0  0  0  0
 15 25  2  0  0  0  0
 15 16  1  0  0  0  0
 16 17  1  0  0  0  0
 16 18  2  0  0  0  0
 18 19  1  0  0  0  0
 20 19  2  0  0  0  0
 21 20  1  0  0  0  0
 22 21  2  0  0  0  0
 23 24  2  0  0  0  0
 23 22  1  0  0  0  0
 24 25  1  0  0  0  0
 25 20  1  0  0  0  0
 26 30  2  0  0  0  0
 27 26  1  0  0  0  0
 27 28  2  0  0  0  0
 28 29  1  0  0  0  0
 29  2  1  0  0  0  0
 30 29  1  0  0  0  0
 31 27  1  0  0  0  0
 32 28  1  0  0  0  0
 33 34  1  0  0  0  0
 34 40  1  0  0  0  0
 35 34  2  0  0  0  0
 35 26  1  0  0  0  0
 36 35  1  0  0  0  0
 37 36  2  0  0  0  0
 38 37  1  0  0  0  0
 38 33  2  0  0  0  0
 39 33  1  0  0  0  0
 41 37  1  0  0  0  0
M  END
>  <minimizedAffinity>
-6.50265741

$$$$

 OpenBabel03252508303D

 41 45  0  0  1  0  0  0  0  0999 V2000
   38.0050   29.5110   41.4040 N   0  0  0  0  0  0  0  0  0  0  0  0
   38.1400   30.8960   40.9010 C   0  0  2  0  0  0  0  0  0  0  0  0
   36.8180   31.5410   40.6830 C   0  0  0  0  0  0  0  0  0  0  0  0
   35.7300   30.7960   41.2650 N   0  0  0  0  0  0  0  0  0  0  0  0
   35.7170   29.4260   40.9130 C   0  0  0  0  0  0  0  0  0  0  0  0
   37.0860   28.8710   40.4960 C   0  0  2  0  0  0  0  0  0  0  0  0
   37.4860   29.6270   42.3470 H   0  0  0  0  0  0  0  0  0  0  0  0
   38.6790   31.4870   41.6810 H   0  0  0  0  0  0  0  0  0  0  0  0
   36.7650   32.5710   41.1390 H   0  0  0  0  0  0  0  0  0  0  0  0
   36.4740   31.6210   39.6350 H   0  0  0  0  0  0  0  0  0  0  0  0
   35.6330   31.0080   42.2900 H   0  0  0  0  0  0  0  0  0  0  0  0
   34.9950   29.1650   40.1160 H   0  0  0  0  0  0  0  0  0  0  0  0
   35.3620   28.8610   41.8090 H   0  0  0  0  0  0  0  0  0  0  0  0
   37.2910   29.2160   39.4350 H   0  0  0  0  0  0  0  0  0  0  0  0
   36.9150   27.4280   40.5580 C   0  0  0  0  0  0  0  0  0  0  0  0
   37.2380   27.0380   41.8740 C   0  0  0  0  0  0  0  0  0  0  0  0
   37.5350   27.6320   42.7560 H   0  0  0  0  0  0  0  0  0  0  0  0
   37.2160   25.7010   42.2750 C   0  0  0  0  0  3  0  0  0  0  0  0
   36.8720   24.7200   41.3730 C   0  0  0  0  0  3  0  0  0  0  0  0
   36.5490   25.0530   40.0820 C   0  0  0  0  0  0  0  0  0  0  0  0
   36.1780   24.1770   39.0910 C   0  0  0  0  0  3  0  0  0  0  0  0
   35.8460   24.5430   37.8030 C   0  0  0  0  0  3  0  0  0  0  0  0
   35.9000   25.9130   37.5170 C   0  0  0  0  0  3  0  0  0  0  0  0
   36.2690   26.8130   38.4890 C   0  0  0  0  0  3  0  0  0  0  0  0
   36.5880   26.3800   39.7470 C   0  0  0  0  0  0  0  0  0  0  0  0
   40.2830   30.3880   38.0580 C   0  0  0  0  0  0  0  0  0  0  0  0
   39.3750   31.3600   37.6210 C   0  0  0  0  0  0  0  0  0  0  0  0
   38.4870   31.6590   38.6420 C   0  0  0  0  0  0  0  0  0  0  0  0
   38.8710   30.8670   39.6660 N   0  0  0  0  0  0  0  0  0  0  0  0
   39.9140   30.1380   39.3130 N   0  0  0  0  0  0  0  0  0  0  0  0
   39.4800   31.7350   36.5860 H   0  0  0  0  0  0  0  0  0  0  0  0
   37.7890   32.4160   38.3060 H   0  0  0  0  0  0  0  0  0  0  0  0
   43.3000   29.9540   35.8480 C   0  0  0  0  0  0  0  0  0  0  0  0
   42.2780   30.6310   36.5800 C   0  0  0  0  0  0  0  0  0  0  0  0
   41.3680   29.8220   37.2640 C   0  0  0  0  0  0  0  0  0  0  0  0
   41.4890   28.4770   37.2050 N   0  0  0  0  0  0  0  0  0  0  0  0
   42.4640   27.8680   36.5060 C   0  0  0  0  0  0  0  0  0  0  0  0
   43.3470   28.6140   35.8430 N   0  0  0  0  0  0  0  0  0  0  0  0
   44.0110   30.5710   35.3150 H   0  0  0  0  0  0  0  0  0  0  0  0
   42.1850   31.7030   36.6230 H   0  0  0  0  0  0  0  0  0  0  0  0
   42.5390   26.7880   36.4750 H   0  0  0  0  0  0  0  0  0  0  0  0
  1  7  1  0  0  0  0
  2  1  1  0  0  0  0
  2  8  1  1  0  0  0
  3  2  1  0  0  0  0
  3  9  1  0  0  0  0
  3  4  1  0  0  0  0
  4 11  1  0  0  0  0
  5  4  1  0  0  0  0
  5 13  1  0  0  0  0
  6 14  1  6  0  0  0
  6 15  1  0  0  0  0
  6  5  1  0  0  0  0
  6  1  1  0  0  0  0
 10  3  1  0  0  0  0
 12  5  1  0  0  0  0
 15 16  1  0  0  0  0
 16 18  2  0  0  0  0
 16 17  1  0  0  0  0
 19 18  1  0  0  0  0
 20 19  2  0  0  0  0
 21 20  1  0  0  0  0
 22 21  2  0  0  0  0
 23 22  1  0  0  0  0
 23 24  2  0  0  0  0
 24 25  1  0  0  0  0
 25 20  1  0  0  0  0
 25 15  2  0  0  0  0
 26 30  2  0  0  0  0
 27 26  1  0  0  0  0
 27 28  2  0  0  0  0
 28 29  1  0  0  0  0
 29  2  1  0  0  0  0
 30 29  1  0  0  0  0
 31 27  1  0  0  0  0
 32 28  1  0  0  0  0
 33 34  1  0  0  0  0
 34 40  1  0  0  0  0
 34 35  2  0  0  0  0
 35 26  1  0  0  0  0
 36 35  1  0  0  0  0
 37 36  2  0  0  0  0
 38 33  2  0  0  0  0
 38 37  1  0  0  0  0
 39 33  1  0  0  0  0
 41 37  1  0  0  0  0
M  END
>  <minimizedAffinity>
-6.49704504

$$$$

 OpenBabel03252508303D

 41 45  0  0  1  0  0  0  0  0999 V2000
   36.6900   30.9430   39.0770 N   0  0  0  0  0  0  0  0  0  0  0  0
   37.3400   32.1070   38.4370 C   0  0  2  0  0  0  0  0  0  0  0  0
   37.8340   31.7890   37.0710 C   0  0  0  0  0  0  0  0  0  0  0  0
   37.3310   30.5340   36.5730 N   0  0  0  0  0  0  0  0  0  0  0  0
   37.5010   29.4500   37.4660 C   0  0  0  0  0  0  0  0  0  0  0  0
   37.6350   29.8630   38.9380 C   0  0  2  0  0  0  0  0  0  0  0  0
   35.8570   30.7190   38.4210 H   0  0  0  0  0  0  0  0  0  0  0  0
   36.5710   32.9120   38.3390 H   0  0  0  0  0  0  0  0  0  0  0  0
   37.5270   32.5670   36.3150 H   0  0  0  0  0  0  0  0  0  0  0  0
   38.9230   31.6300   36.9640 H   0  0  0  0  0  0  0  0  0  0  0  0
   36.3670   30.6480   36.1680 H   0  0  0  0  0  0  0  0  0  0  0  0
   38.3580   28.7900   37.2260 H   0  0  0  0  0  0  0  0  0  0  0  0
   36.6040   28.7940   37.3600 H   0  0  0  0  0  0  0  0  0  0  0  0
   38.6890   30.2520   39.0940 H   0  0  0  0  0  0  0  0  0  0  0  0
   37.4150   28.6270   39.6720 C   0  0  0  0  0  0  0  0  0  0  0  0
   37.1350   27.6310   38.7120 C   0  0  0  0  0  0  0  0  0  0  0  0
   37.1020   27.6740   37.6100 H   0  0  0  0  0  0  0  0  0  0  0  0
   36.8350   26.3180   39.0750 C   0  0  0  0  0  3  0  0  0  0  0  0
   36.8060   25.9640   40.4060 C   0  0  0  0  0  3  0  0  0  0  0  0
   37.0720   26.8990   41.3740 C   0  0  0  0  0  0  0  0  0  0  0  0
   37.0880   26.6750   42.7300 C   0  0  0  0  0  3  0  0  0  0  0  0
   37.3730   27.6340   43.6790 C   0  0  0  0  0  3  0  0  0  0  0  0
   37.6630   28.9160   43.1960 C   0  0  0  0  0  3  0  0  0  0  0  0
   37.6530   29.1690   41.8450 C   0  0  0  0  0  3  0  0  0  0  0  0
   37.3610   28.1700   40.9560 C   0  0  0  0  0  0  0  0  0  0  0  0
   40.4180   33.1130   40.0040 C   0  0  0  0  0  0  0  0  0  0  0  0
   39.4650   33.2570   41.0200 C   0  0  0  0  0  0  0  0  0  0  0  0
   38.2180   32.8860   40.5420 C   0  0  0  0  0  0  0  0  0  0  0  0
   38.4390   32.5290   39.2600 N   0  0  0  0  0  0  0  0  0  0  0  0
   39.7190   32.6650   38.9620 N   0  0  0  0  0  0  0  0  0  0  0  0
   39.8120   33.6260   42.0030 H   0  0  0  0  0  0  0  0  0  0  0  0
   37.4820   32.9910   41.3300 H   0  0  0  0  0  0  0  0  0  0  0  0
   44.0150   33.9470   39.2690 C   0  0  0  0  0  0  0  0  0  0  0  0
   42.6390   33.6660   39.0120 C   0  0  0  0  0  0  0  0  0  0  0  0
   41.8420   33.4040   40.1280 C   0  0  0  0  0  0  0  0  0  0  0  0
   42.3890   33.4250   41.3650 N   0  0  0  0  0  0  0  0  0  0  0  0
   43.6910   33.6930   41.5740 C   0  0  0  0  0  0  0  0  0  0  0  0
   44.4760   33.9480   40.5290 N   0  0  0  0  0  0  0  0  0  0  0  0
   44.6410   34.1520   38.4120 H   0  0  0  0  0  0  0  0  0  0  0  0
   42.2070   33.6500   38.0260 H   0  0  0  0  0  0  0  0  0  0  0  0
   44.1050   33.7040   42.5750 H   0  0  0  0  0  0  0  0  0  0  0  0
  2  8  1  6  0  0  0
  2  1  1  0  0  0  0
  2 29  1  0  0  0  0
  3  2  1  0  0  0  0
  4  3  1  0  0  0  0
  4  5  1  0  0  0  0
  5  6  1  0  0  0  0
  6  1  1  0  0  0  0
  6 14  1  1  0  0  0
  6 15  1  0  0  0  0
  7  1  1  0  0  0  0
  9  3  1  0  0  0  0
 10  3  1  0  0  0  0
 11  4  1  0  0  0  0
 12  5  1  0  0  0  0
 13  5  1  0  0  0  0
 15 25  1  0  0  0  0
 16 18  1  0  0  0  0
 16 15  2  0  0  0  0
 17 16  1  0  0  0  0
 18 19  2  0  0  0  0
 19 20  1  0  0  0  0
 20 21  1  0  0  0  0
 21 22  2  0  0  0  0
 23 22  1  0  0  0  0
 24 23  2  0  0  0  0
 25 20  2  0  0  0  0
 25 24  1  0  0  0  0
 26 35  1  0  0  0  0
 26 27  1  0  0  0  0
 27 31  1  0  0  0  0
 28 27  2  0  0  0  0
 28 32  1  0  0  0  0
 29 28  1  0  0  0  0
 30 29  1  0  0  0  0
 30 26  2  0  0  0  0
 33 38  1  0  0  0  0
 34 33  2  0  0  0  0
 34 35  1  0  0  0  0
 35 36  2  0  0  0  0
 36 37  1  0  0  0  0
 37 41  1  0  0  0  0
 38 37  2  0  0  0  0
 39 33  1  0  0  0  0
 40 34  1  0  0  0  0
M  END
>  <minimizedAffinity>
-6.48162699

$$$$
