
 OpenBabel03242523353D

 39 43  0  0  0  0  0  0  0  0999 V2000
   41.4420   32.2210   40.7020 C   0  0  0  0  0  0  0  0  0  0  0  0
   42.0890   33.1200   40.8730 H   0  0  0  0  0  0  0  0  0  0  0  0
   41.8620   31.6590   39.8700 H   0  0  0  0  0  0  0  0  0  0  0  0
   38.5540   34.5130   40.1680 C   0  0  0  0  0  0  0  0  0  0  0  0
   37.5460   33.5930   39.9120 C   0  0  0  0  0  0  0  0  0  0  0  0
   37.8240   32.2250   39.9190 C   0  0  0  0  0  0  0  0  0  0  0  0
   39.1230   31.8510   40.1840 N   0  0  0  0  0  0  0  0  0  0  0  0
   40.0890   32.7690   40.4290 C   0  0  0  0  0  0  0  0  0  0  0  0
   39.7750   34.0620   40.4140 N   0  0  0  0  0  0  0  0  0  0  0  0
   38.3360   35.5710   40.1640 H   0  0  0  0  0  0  0  0  0  0  0  0
   36.6050   33.9950   39.6790 H   0  0  0  0  0  0  0  0  0  0  0  0
   36.9380   31.1310   39.6070 C   0  0  0  0  0  0  0  0  0  0  0  0
   36.2110   30.6000   40.6810 C   0  0  0  0  0  0  0  0  0  0  0  0
   36.3340   31.0090   41.6960 H   0  0  0  0  0  0  0  0  0  0  0  0
   35.3090   29.5620   40.5860 C   0  0  0  0  0  3  0  0  0  0  0  0
   35.0830   28.9840   39.3640 C   0  0  0  0  0  3  0  0  0  0  0  0
   35.7610   29.4560   38.2630 C   0  0  0  0  0  0  0  0  0  0  0  0
   35.5330   28.9280   37.0230 C   0  0  0  0  0  3  0  0  0  0  0  0
   36.1730   29.4110   35.8770 C   0  0  0  0  0  3  0  0  0  0  0  0
   37.0690   30.4720   36.0540 C   0  0  0  0  0  3  0  0  0  0  0  0
   37.2570   30.9590   37.3180 C   0  0  0  0  0  3  0  0  0  0  0  0
   36.6360   30.4910   38.4510 C   0  0  0  0  0  0  0  0  0  0  0  0
   41.3860   31.3440   42.2780 S   0  0  0  0  0  0  0  0  0  0  0  0
   40.3480   29.9060   42.1610 C   0  0  0  0  0  0  0  0  0  0  0  0
   40.7040   28.9350   41.2550 C   0  0  0  0  0  0  0  0  0  0  0  0
   39.9080   27.8180   41.1570 C   0  0  0  0  0  0  0  0  0  0  0  0
   38.7680   27.6440   41.9380 C   0  0  0  0  0  0  0  0  0  0  0  0
   38.0190   26.5330   41.8070 N   0  0  0  0  0  0  0  0  0  0  0  0
   36.9050   26.3640   42.5690 C   0  0  0  0  0  0  0  0  0  0  0  0
   36.5510   27.3360   43.4730 C   0  0  0  0  0  0  0  0  0  0  0  0
   37.3180   28.4630   43.6010 C   0  0  0  0  0  0  0  0  0  0  0  0
   38.4750   28.6730   42.8320 C   0  0  0  0  0  0  0  0  0  0  0  0
   39.2390   29.8050   42.9630 C   0  0  0  0  0  0  0  0  0  0  0  0
   41.5420   28.9300   40.5940 H   0  0  0  0  0  0  0  0  0  0  0  0
   40.1230   26.9980   40.4610 H   0  0  0  0  0  0  0  0  0  0  0  0
   36.3720   25.4390   42.3900 H   0  0  0  0  0  0  0  0  0  0  0  0
   35.6580   27.1670   44.0630 H   0  0  0  0  0  0  0  0  0  0  0  0
   37.0060   29.2050   44.3240 H   0  0  0  0  0  0  0  0  0  0  0  0
   38.9580   30.5660   43.6750 H   0  0  0  0  0  0  0  0  0  0  0  0
  1  2  1  0  0  0  0
  1 23  1  0  0  0  0
  3  1  1  0  0  0  0
  4  9  1  0  0  0  0
  5  6  1  0  0  0  0
  5  4  2  0  0  0  0
  6  7  2  0  0  0  0
  7  8  1  0  0  0  0
  8  1  1  0  0  0  0
  9  8  2  0  0  0  0
 10  4  1  0  0  0  0
 11  5  1  0  0  0  0
 12  6  1  0  0  0  0
 12 13  1  0  0  0  0
 13 14  1  0  0  0  0
 15 13  2  0  0  0  0
 16 15  1  0  0  0  0
 17 22  1  0  0  0  0
 17 16  2  0  0  0  0
 18 17  1  0  0  0  0
 19 20  1  0  0  0  0
 19 18  2  0  0  0  0
 20 21  2  0  0  0  0
 21 22  1  0  0  0  0
 22 12  2  0  0  0  0
 24 23  1  0  0  0  0
 24 33  1  0  0  0  0
 25 24  2  0  0  0  0
 26 25  1  0  0  0  0
 26 27  2  0  0  0  0
 27 32  1  0  0  0  0
 28 27  1  0  0  0  0
 28 29  2  0  0  0  0
 29 30  1  0  0  0  0
 30 31  2  0  0  0  0
 30 37  1  0  0  0  0
 31 38  1  0  0  0  0
 32 33  2  0  0  0  0
 32 31  1  0  0  0  0
 33 39  1  0  0  0  0
 34 25  1  0  0  0  0
 35 26  1  0  0  0  0
 36 29  1  0  0  0  0
M  END
>  <minimizedAffinity>
-7.19220114

$$$$

 OpenBabel03242523353D

 39 43  0  0  0  0  0  0  0  0999 V2000
   37.5860   33.1290   39.8810 C   0  0  0  0  0  0  0  0  0  0  0  0
   36.7200   33.4010   40.5380 H   0  0  0  0  0  0  0  0  0  0  0  0
   37.6520   33.8710   39.0880 H   0  0  0  0  0  0  0  0  0  0  0  0
   36.7600   30.2010   37.7330 C   0  0  0  0  0  0  0  0  0  0  0  0
   36.7440   29.1880   38.6830 C   0  0  0  0  0  0  0  0  0  0  0  0
   37.0030   29.4770   40.0230 C   0  0  0  0  0  0  0  0  0  0  0  0
   37.2730   30.7890   40.3410 N   0  0  0  0  0  0  0  0  0  0  0  0
   37.2830   31.7590   39.3940 C   0  0  0  0  0  0  0  0  0  0  0  0
   37.0280   31.4350   38.1290 N   0  0  0  0  0  0  0  0  0  0  0  0
   36.5570   29.9740   36.6960 H   0  0  0  0  0  0  0  0  0  0  0  0
   36.5710   28.2180   38.3180 H   0  0  0  0  0  0  0  0  0  0  0  0
   37.1040   28.5600   41.1320 C   0  0  0  0  0  0  0  0  0  0  0  0
   37.3200   29.1360   42.3920 C   0  0  0  0  0  0  0  0  0  0  0  0
   37.4100   30.2280   42.4980 H   0  0  0  0  0  0  0  0  0  0  0  0
   37.4350   28.4330   43.5710 C   0  0  0  0  0  3  0  0  0  0  0  0
   37.3360   27.0660   43.5450 C   0  0  0  0  0  3  0  0  0  0  0  0
   37.1210   26.4310   42.3430 C   0  0  0  0  0  0  0  0  0  0  0  0
   36.9800   25.0730   42.2850 C   0  0  0  0  0  3  0  0  0  0  0  0
   36.7210   24.4000   41.0870 C   0  0  0  0  0  3  0  0  0  0  0  0
   36.6100   25.1840   39.9330 C   0  0  0  0  0  3  0  0  0  0  0  0
   36.7600   26.5390   40.0520 C   0  0  0  0  0  3  0  0  0  0  0  0
   37.0190   27.2100   41.2220 C   0  0  0  0  0  0  0  0  0  0  0  0
   39.0220   33.0320   40.9710 S   0  0  0  0  0  0  0  0  0  0  0  0
   40.5250   33.2830   40.0550 C   0  0  0  0  0  0  0  0  0  0  0  0
   40.7260   34.5180   39.4860 C   0  0  0  0  0  0  0  0  0  0  0  0
   41.8850   34.7230   38.7760 C   0  0  0  0  0  0  0  0  0  0  0  0
   42.8480   33.7300   38.6180 C   0  0  0  0  0  0  0  0  0  0  0  0
   43.9690   33.9760   37.9140 N   0  0  0  0  0  0  0  0  0  0  0  0
   44.9090   33.0050   37.7600 C   0  0  0  0  0  0  0  0  0  0  0  0
   44.7050   31.7710   38.3290 C   0  0  0  0  0  0  0  0  0  0  0  0
   43.5630   31.5280   39.0440 C   0  0  0  0  0  0  0  0  0  0  0  0
   42.5710   32.5060   39.2250 C   0  0  0  0  0  0  0  0  0  0  0  0
   41.4280   32.2550   39.9420 C   0  0  0  0  0  0  0  0  0  0  0  0
   40.0820   35.3690   39.5200 H   0  0  0  0  0  0  0  0  0  0  0  0
   42.1220   35.6790   38.2930 H   0  0  0  0  0  0  0  0  0  0  0  0
   45.7720   33.3020   37.1780 H   0  0  0  0  0  0  0  0  0  0  0  0
   45.4760   31.0230   38.1850 H   0  0  0  0  0  0  0  0  0  0  0  0
   43.4400   30.5440   39.4760 H   0  0  0  0  0  0  0  0  0  0  0  0
   41.2720   31.2850   40.3870 H   0  0  0  0  0  0  0  0  0  0  0  0
  1  2  1  0  0  0  0
  1 23  1  0  0  0  0
  3  1  1  0  0  0  0
  4  9  2  0  0  0  0
  4  5  1  0  0  0  0
  5  6  2  0  0  0  0
  6  7  1  0  0  0  0
  6 12  1  0  0  0  0
  8  1  1  0  0  0  0
  8  7  2  0  0  0  0
  9  8  1  0  0  0  0
 10  4  1  0  0  0  0
 11  5  1  0  0  0  0
 12 22  2  0  0  0  0
 12 13  1  0  0  0  0
 13 14  1  0  0  0  0
 13 15  2  0  0  0  0
 16 15  1  0  0  0  0
 17 16  2  0  0  0  0
 18 17  1  0  0  0  0
 19 18  2  0  0  0  0
 20 21  2  0  0  0  0
 20 19  1  0  0  0  0
 21 22  1  0  0  0  0
 22 17  1  0  0  0  0
 24 23  1  0  0  0  0
 25 34  1  0  0  0  0
 25 24  2  0  0  0  0
 26 25  1  0  0  0  0
 27 26  2  0  0  0  0
 27 32  1  0  0  0  0
 28 27  1  0  0  0  0
 29 28  2  0  0  0  0
 29 30  1  0  0  0  0
 30 31  2  0  0  0  0
 31 32  1  0  0  0  0
 31 38  1  0  0  0  0
 32 33  2  0  0  0  0
 33 24  1  0  0  0  0
 33 39  1  0  0  0  0
 35 26  1  0  0  0  0
 36 29  1  0  0  0  0
 37 30  1  0  0  0  0
M  END
>  <minimizedAffinity>
-6.80313253

$$$$

 OpenBabel03242523353D

 39 43  0  0  0  0  0  0  0  0999 V2000
   36.4940   28.9370   35.0050 C   0  0  0  0  0  0  0  0  0  0  0  0
   36.4180   30.0490   35.1180 H   0  0  0  0  0  0  0  0  0  0  0  0
   37.0920   28.7300   34.1200 H   0  0  0  0  0  0  0  0  0  0  0  0
   33.4540   26.8210   34.6080 C   0  0  0  0  0  0  0  0  0  0  0  0
   32.4600   27.7810   34.7410 C   0  0  0  0  0  0  0  0  0  0  0  0
   32.7980   29.1180   34.9580 C   0  0  0  0  0  0  0  0  0  0  0  0
   34.1390   29.4210   35.0350 N   0  0  0  0  0  0  0  0  0  0  0  0
   35.0900   28.4650   34.9030 C   0  0  0  0  0  0  0  0  0  0  0  0
   34.7190   27.2040   34.6950 N   0  0  0  0  0  0  0  0  0  0  0  0
   33.1900   25.7870   34.4390 H   0  0  0  0  0  0  0  0  0  0  0  0
   31.4720   27.4270   34.7100 H   0  0  0  0  0  0  0  0  0  0  0  0
   31.9170   30.2360   35.1920 C   0  0  0  0  0  0  0  0  0  0  0  0
   31.7690   31.1390   34.1300 C   0  0  0  0  0  0  0  0  0  0  0  0
   32.3120   30.9830   33.1850 H   0  0  0  0  0  0  0  0  0  0  0  0
   30.9700   32.2600   34.1550 C   0  0  0  0  0  3  0  0  0  0  0  0
   30.2500   32.5430   35.2870 C   0  0  0  0  0  3  0  0  0  0  0  0
   30.3440   31.6980   36.3690 C   0  0  0  0  0  0  0  0  0  0  0  0
   29.6130   31.9280   37.5010 C   0  0  0  0  0  3  0  0  0  0  0  0
   29.6530   31.0690   38.6030 C   0  0  0  0  0  3  0  0  0  0  0  0
   30.4830   29.9460   38.4990 C   0  0  0  0  0  3  0  0  0  0  0  0
   31.1910   29.7680   37.3420 C   0  0  0  0  0  3  0  0  0  0  0  0
   31.1620   30.6070   36.2560 C   0  0  0  0  0  0  0  0  0  0  0  0
   37.1790   28.3270   36.5600 S   0  0  0  0  0  0  0  0  0  0  0  0
   37.9500   29.6470   37.4680 C   0  0  0  0  0  0  0  0  0  0  0  0
   39.3090   29.5770   37.6620 C   0  0  0  0  0  0  0  0  0  0  0  0
   39.9160   30.5920   38.3630 C   0  0  0  0  0  0  0  0  0  0  0  0
   39.2040   31.6750   38.8740 C   0  0  0  0  0  0  0  0  0  0  0  0
   39.8410   32.6470   39.5540 N   0  0  0  0  0  0  0  0  0  0  0  0
   39.1450   33.7030   40.0540 C   0  0  0  0  0  0  0  0  0  0  0  0
   37.7860   33.7700   39.8580 C   0  0  0  0  0  0  0  0  0  0  0  0
   37.1450   32.7780   39.1650 C   0  0  0  0  0  0  0  0  0  0  0  0
   37.8300   31.6720   38.6340 C   0  0  0  0  0  0  0  0  0  0  0  0
   37.1820   30.6810   37.9420 C   0  0  0  0  0  0  0  0  0  0  0  0
   39.9810   28.8150   37.3340 H   0  0  0  0  0  0  0  0  0  0  0  0
   40.9950   30.6120   38.5600 H   0  0  0  0  0  0  0  0  0  0  0  0
   39.7470   34.4290   40.5840 H   0  0  0  0  0  0  0  0  0  0  0  0
   37.2650   34.6260   40.2700 H   0  0  0  0  0  0  0  0  0  0  0  0
   36.0750   32.8670   39.0330 H   0  0  0  0  0  0  0  0  0  0  0  0
   36.1150   30.7380   37.7900 H   0  0  0  0  0  0  0  0  0  0  0  0
  1  2  1  0  0  0  0
  1 23  1  0  0  0  0
  3  1  1  0  0  0  0
  4  9  2  0  0  0  0
  4  5  1  0  0  0  0
  5  6  2  0  0  0  0
  6  7  1  0  0  0  0
  6 12  1  0  0  0  0
  8  1  1  0  0  0  0
  8  7  2  0  0  0  0
  9  8  1  0  0  0  0
 10  4  1  0  0  0  0
 11  5  1  0  0  0  0
 12 22  1  0  0  0  0
 13 15  1  0  0  0  0
 13 12  2  0  0  0  0
 14 13  1  0  0  0  0
 15 16  2  0  0  0  0
 16 17  1  0  0  0  0
 17 18  1  0  0  0  0
 18 19  2  0  0  0  0
 20 19  1  0  0  0  0
 21 20  2  0  0  0  0
 22 17  2  0  0  0  0
 22 21  1  0  0  0  0
 23 24  1  0  0  0  0
 24 25  2  0  0  0  0
 24 33  1  0  0  0  0
 25 26  1  0  0  0  0
 26 35  1  0  0  0  0
 26 27  2  0  0  0  0
 27 28  1  0  0  0  0
 28 29  2  0  0  0  0
 29 36  1  0  0  0  0
 30 29  1  0  0  0  0
 30 37  1  0  0  0  0
 31 30  2  0  0  0  0
 32 27  1  0  0  0  0
 32 31  1  0  0  0  0
 33 32  2  0  0  0  0
 34 25  1  0  0  0  0
 38 31  1  0  0  0  0
 39 33  1  0  0  0  0
M  END
>  <minimizedAffinity>
-6.65944862

$$$$

 OpenBabel03242523353D

 39 43  0  0  0  0  0  0  0  0999 V2000
   35.7650   25.8030   37.3620 C   0  0  0  0  0  0  0  0  0  0  0  0
   35.0620   25.0400   36.9380 H   0  0  0  0  0  0  0  0  0  0  0  0
   36.5930   25.9190   36.6660 H   0  0  0  0  0  0  0  0  0  0  0  0
   36.5670   23.5210   40.1950 C   0  0  0  0  0  0  0  0  0  0  0  0
   36.9300   24.4440   41.1670 C   0  0  0  0  0  0  0  0  0  0  0  0
   36.9070   25.8100   40.8830 C   0  0  0  0  0  0  0  0  0  0  0  0
   36.5160   26.1800   39.6150 N   0  0  0  0  0  0  0  0  0  0  0  0
   36.1670   25.2590   38.6840 C   0  0  0  0  0  0  0  0  0  0  0  0
   36.2030   23.9670   39.0020 N   0  0  0  0  0  0  0  0  0  0  0  0
   36.5840   22.4640   40.4180 H   0  0  0  0  0  0  0  0  0  0  0  0
   37.2540   24.0440   42.0820 H   0  0  0  0  0  0  0  0  0  0  0  0
   37.3160   26.9050   41.7270 C   0  0  0  0  0  0  0  0  0  0  0  0
   36.6990   26.9800   42.9840 C   0  0  0  0  0  0  0  0  0  0  0  0
   35.9440   26.2360   43.2800 H   0  0  0  0  0  0  0  0  0  0  0  0
   36.9590   27.9440   43.9330 C   0  0  0  0  0  3  0  0  0  0  0  0
   37.8860   28.9160   43.6610 C   0  0  0  0  0  3  0  0  0  0  0  0
   38.5340   28.9040   42.4470 C   0  0  0  0  0  0  0  0  0  0  0  0
   39.4900   29.8370   42.1550 C   0  0  0  0  0  3  0  0  0  0  0  0
   40.1960   29.8300   40.9490 C   0  0  0  0  0  3  0  0  0  0  0  0
   39.8800   28.8150   40.0380 C   0  0  0  0  0  3  0  0  0  0  0  0
   38.9150   27.9100   40.3840 C   0  0  0  0  0  3  0  0  0  0  0  0
   38.2120   27.9090   41.5640 C   0  0  0  0  0  0  0  0  0  0  0  0
   34.7770   27.2870   37.6420 S   0  0  0  0  0  0  0  0  0  0  0  0
   35.8240   28.7060   37.8670 C   0  0  0  0  0  0  0  0  0  0  0  0
   36.6670   29.0450   36.8350 C   0  0  0  0  0  0  0  0  0  0  0  0
   37.4800   30.1420   36.9980 C   0  0  0  0  0  0  0  0  0  0  0  0
   37.4750   30.9080   38.1610 C   0  0  0  0  0  0  0  0  0  0  0  0
   38.2890   31.9740   38.2760 N   0  0  0  0  0  0  0  0  0  0  0  0
   38.2840   32.7220   39.4120 C   0  0  0  0  0  0  0  0  0  0  0  0
   37.4410   32.3800   40.4420 C   0  0  0  0  0  0  0  0  0  0  0  0
   36.6150   31.2940   40.3180 C   0  0  0  0  0  0  0  0  0  0  0  0
   36.5920   30.4990   39.1600 C   0  0  0  0  0  0  0  0  0  0  0  0
   35.7630   29.4120   39.0420 C   0  0  0  0  0  0  0  0  0  0  0  0
   36.7810   28.5570   35.8930 H   0  0  0  0  0  0  0  0  0  0  0  0
   38.1790   30.4790   36.2230 H   0  0  0  0  0  0  0  0  0  0  0  0
   38.9730   33.5560   39.4060 H   0  0  0  0  0  0  0  0  0  0  0  0
   37.4640   32.9980   41.3310 H   0  0  0  0  0  0  0  0  0  0  0  0
   35.9660   31.0580   41.1510 H   0  0  0  0  0  0  0  0  0  0  0  0
   35.1020   29.1480   39.8530 H   0  0  0  0  0  0  0  0  0  0  0  0
  1 23  1  0  0  0  0
  1  8  1  0  0  0  0
  2  1  1  0  0  0  0
  3  1  1  0  0  0  0
  4 10  1  0  0  0  0
  4  5  1  0  0  0  0
  5 11  1  0  0  0  0
  6  5  2  0  0  0  0
  6 12  1  0  0  0  0
  7  6  1  0  0  0  0
  8  9  1  0  0  0  0
  8  7  2  0  0  0  0
  9  4  2  0  0  0  0
 12 13  1  0  0  0  0
 13 14  1  0  0  0  0
 13 15  2  0  0  0  0
 16 15  1  0  0  0  0
 17 16  2  0  0  0  0
 18 17  1  0  0  0  0
 19 18  2  0  0  0  0
 20 21  2  0  0  0  0
 20 19  1  0  0  0  0
 21 22  1  0  0  0  0
 22 12  2  0  0  0  0
 22 17  1  0  0  0  0
 23 24  1  0  0  0  0
 24 33  1  0  0  0  0
 25 26  1  0  0  0  0
 25 24  2  0  0  0  0
 26 27  2  0  0  0  0
 27 28  1  0  0  0  0
 27 32  1  0  0  0  0
 28 29  2  0  0  0  0
 29 30  1  0  0  0  0
 30 37  1  0  0  0  0
 31 30  2  0  0  0  0
 31 38  1  0  0  0  0
 32 31  1  0  0  0  0
 33 32  2  0  0  0  0
 33 39  1  0  0  0  0
 34 25  1  0  0  0  0
 35 26  1  0  0  0  0
 36 29  1  0  0  0  0
M  END
>  <minimizedAffinity>
-6.52146721

$$$$

 OpenBabel03242523353D

 39 43  0  0  0  0  0  0  0  0999 V2000
   39.9050   33.2380   40.2230 C   0  0  0  0  0  0  0  0  0  0  0  0
   40.1940   32.9640   39.1760 H   0  0  0  0  0  0  0  0  0  0  0  0
   40.3530   34.2030   40.4530 H   0  0  0  0  0  0  0  0  0  0  0  0
   42.0350   31.0780   42.3840 C   0  0  0  0  0  0  0  0  0  0  0  0
   41.1840   29.9990   42.5800 C   0  0  0  0  0  0  0  0  0  0  0  0
   39.9160   29.9890   41.9960 C   0  0  0  0  0  0  0  0  0  0  0  0
   39.5650   31.0850   41.2400 N   0  0  0  0  0  0  0  0  0  0  0  0
   40.4150   32.1270   41.0660 C   0  0  0  0  0  0  0  0  0  0  0  0
   41.6150   32.0900   41.6400 N   0  0  0  0  0  0  0  0  0  0  0  0
   43.0170   31.0830   42.8360 H   0  0  0  0  0  0  0  0  0  0  0  0
   41.5400   29.2410   43.2130 H   0  0  0  0  0  0  0  0  0  0  0  0
   38.8720   29.0050   42.1420 C   0  0  0  0  0  0  0  0  0  0  0  0
   38.1950   28.9990   43.3690 C   0  0  0  0  0  0  0  0  0  0  0  0
   38.4700   29.7130   44.1610 H   0  0  0  0  0  0  0  0  0  0  0  0
   37.1660   28.1450   43.6980 C   0  0  0  0  0  3  0  0  0  0  0  0
   36.7470   27.2190   42.7780 C   0  0  0  0  0  3  0  0  0  0  0  0
   37.3650   27.1680   41.5490 C   0  0  0  0  0  0  0  0  0  0  0  0
   36.9500   26.2820   40.5940 C   0  0  0  0  0  3  0  0  0  0  0  0
   37.5280   26.2300   39.3220 C   0  0  0  0  0  3  0  0  0  0  0  0
   38.5630   27.1360   39.0610 C   0  0  0  0  0  3  0  0  0  0  0  0
   38.9360   27.9990   40.0560 C   0  0  0  0  0  3  0  0  0  0  0  0
   38.3780   28.0560   41.3090 C   0  0  0  0  0  0  0  0  0  0  0  0
   38.1010   33.1940   40.2680 S   0  0  0  0  0  0  0  0  0  0  0  0
   37.4780   31.9000   39.2210 C   0  0  0  0  0  0  0  0  0  0  0  0
   38.0050   31.7940   37.9560 C   0  0  0  0  0  0  0  0  0  0  0  0
   37.5310   30.7960   37.1370 C   0  0  0  0  0  0  0  0  0  0  0  0
   36.5450   29.9020   37.5470 C   0  0  0  0  0  0  0  0  0  0  0  0
   36.1110   28.9400   36.7120 N   0  0  0  0  0  0  0  0  0  0  0  0
   35.1480   28.0670   37.1120 C   0  0  0  0  0  0  0  0  0  0  0  0
   34.6220   28.1750   38.3770 C   0  0  0  0  0  0  0  0  0  0  0  0
   35.0690   29.1560   39.2220 C   0  0  0  0  0  0  0  0  0  0  0  0
   36.0620   30.0750   38.8440 C   0  0  0  0  0  0  0  0  0  0  0  0
   36.5040   31.0560   39.6940 C   0  0  0  0  0  0  0  0  0  0  0  0
   38.7580   32.4030   37.5060 H   0  0  0  0  0  0  0  0  0  0  0  0
   37.9000   30.6440   36.1160 H   0  0  0  0  0  0  0  0  0  0  0  0
   34.8680   27.3320   36.3680 H   0  0  0  0  0  0  0  0  0  0  0  0
   33.8570   27.4630   38.6610 H   0  0  0  0  0  0  0  0  0  0  0  0
   34.6290   29.2080   40.2090 H   0  0  0  0  0  0  0  0  0  0  0  0
   36.0890   31.1370   40.6870 H   0  0  0  0  0  0  0  0  0  0  0  0
  1 23  1  0  0  0  0
  1  3  1  0  0  0  0
  1  8  1  0  0  0  0
  2  1  1  0  0  0  0
  4  5  1  0  0  0  0
  4 10  1  0  0  0  0
  5 11  1  0  0  0  0
  6 12  1  0  0  0  0
  6  5  2  0  0  0  0
  7  6  1  0  0  0  0
  8  7  2  0  0  0  0
  8  9  1  0  0  0  0
  9  4  2  0  0  0  0
 12 13  1  0  0  0  0
 13 15  2  0  0  0  0
 13 14  1  0  0  0  0
 16 15  1  0  0  0  0
 17 16  2  0  0  0  0
 18 17  1  0  0  0  0
 19 18  2  0  0  0  0
 20 19  1  0  0  0  0
 20 21  2  0  0  0  0
 21 22  1  0  0  0  0
 22 17  1  0  0  0  0
 22 12  2  0  0  0  0
 24 33  1  0  0  0  0
 24 23  1  0  0  0  0
 25 24  2  0  0  0  0
 26 27  2  0  0  0  0
 26 25  1  0  0  0  0
 27 32  1  0  0  0  0
 28 29  2  0  0  0  0
 28 27  1  0  0  0  0
 29 30  1  0  0  0  0
 30 37  1  0  0  0  0
 30 31  2  0  0  0  0
 31 38  1  0  0  0  0
 32 31  1  0  0  0  0
 32 33  2  0  0  0  0
 33 39  1  0  0  0  0
 34 25  1  0  0  0  0
 35 26  1  0  0  0  0
 36 29  1  0  0  0  0
M  END
>  <minimizedAffinity>
-6.48939753

$$$$

 OpenBabel03242523353D

 39 43  0  0  0  0  0  0  0  0999 V2000
   37.3970   32.7130   39.2040 C   0  0  0  0  0  0  0  0  0  0  0  0
   36.7060   33.0820   40.0050 H   0  0  0  0  0  0  0  0  0  0  0  0
   37.1850   33.2720   38.2950 H   0  0  0  0  0  0  0  0  0  0  0  0
   36.4040   29.3510   37.9450 C   0  0  0  0  0  0  0  0  0  0  0  0
   36.6540   28.5770   39.0710 C   0  0  0  0  0  0  0  0  0  0  0  0
   37.1450   29.1680   40.2360 C   0  0  0  0  0  0  0  0  0  0  0  0
   37.3660   30.5260   40.2050 N   0  0  0  0  0  0  0  0  0  0  0  0
   37.1150   31.2590   39.0930 C   0  0  0  0  0  0  0  0  0  0  0  0
   36.6450   30.6520   38.0060 N   0  0  0  0  0  0  0  0  0  0  0  0
   36.0220   28.8920   37.0450 H   0  0  0  0  0  0  0  0  0  0  0  0
   36.4910   27.5450   38.9640 H   0  0  0  0  0  0  0  0  0  0  0  0
   37.5330   28.5270   41.4680 C   0  0  0  0  0  0  0  0  0  0  0  0
   36.4870   28.1130   42.3050 C   0  0  0  0  0  0  0  0  0  0  0  0
   35.4390   28.2870   42.0150 H   0  0  0  0  0  0  0  0  0  0  0  0
   36.6500   27.4770   43.5160 C   0  0  0  0  0  3  0  0  0  0  0  0
   37.9180   27.2130   43.9650 C   0  0  0  0  0  3  0  0  0  0  0  0
   38.9950   27.5880   43.1950 C   0  0  0  0  0  0  0  0  0  0  0  0
   40.2720   27.3080   43.5940 C   0  0  0  0  0  3  0  0  0  0  0  0
   41.3860   27.6390   42.8170 C   0  0  0  0  0  3  0  0  0  0  0  0
   41.1380   28.2770   41.5960 C   0  0  0  0  0  3  0  0  0  0  0  0
   39.8400   28.5310   41.2490 C   0  0  0  0  0  3  0  0  0  0  0  0
   38.7380   28.2150   42.0050 C   0  0  0  0  0  0  0  0  0  0  0  0
   39.0660   32.9120   39.8610 S   0  0  0  0  0  0  0  0  0  0  0  0
   40.2710   32.2630   38.7250 C   0  0  0  0  0  0  0  0  0  0  0  0
   41.1260   33.1570   38.1250 C   0  0  0  0  0  0  0  0  0  0  0  0
   42.0630   32.6660   37.2460 C   0  0  0  0  0  0  0  0  0  0  0  0
   42.1670   31.3090   36.9490 C   0  0  0  0  0  0  0  0  0  0  0  0
   43.1000   30.8740   36.0810 N   0  0  0  0  0  0  0  0  0  0  0  0
   43.2010   29.5490   35.7910 C   0  0  0  0  0  0  0  0  0  0  0  0
   42.3440   28.6590   36.3920 C   0  0  0  0  0  0  0  0  0  0  0  0
   41.3980   29.1090   37.2740 C   0  0  0  0  0  0  0  0  0  0  0  0
   41.2640   30.4690   37.5980 C   0  0  0  0  0  0  0  0  0  0  0  0
   40.3140   30.9140   38.4820 C   0  0  0  0  0  0  0  0  0  0  0  0
   41.1640   34.2160   38.2520 H   0  0  0  0  0  0  0  0  0  0  0  0
   42.7820   33.3110   36.7270 H   0  0  0  0  0  0  0  0  0  0  0  0
   43.9820   29.3010   35.0830 H   0  0  0  0  0  0  0  0  0  0  0  0
   42.4550   27.6110   36.1370 H   0  0  0  0  0  0  0  0  0  0  0  0
   40.7430   28.3760   37.7250 H   0  0  0  0  0  0  0  0  0  0  0  0
   39.6430   30.2110   38.9520 H   0  0  0  0  0  0  0  0  0  0  0  0
  1 23  1  0  0  0  0
  1  2  1  0  0  0  0
  3  1  1  0  0  0  0
  4  9  2  0  0  0  0
  4  5  1  0  0  0  0
  5  6  2  0  0  0  0
  6 12  1  0  0  0  0
  7  6  1  0  0  0  0
  8  1  1  0  0  0  0
  8  7  2  0  0  0  0
  9  8  1  0  0  0  0
 10  4  1  0  0  0  0
 11  5  1  0  0  0  0
 12 22  2  0  0  0  0
 12 13  1  0  0  0  0
 13 15  2  0  0  0  0
 14 13  1  0  0  0  0
 15 16  1  0  0  0  0
 17 18  1  0  0  0  0
 17 16  2  0  0  0  0
 19 18  2  0  0  0  0
 20 19  1  0  0  0  0
 21 20  2  0  0  0  0
 21 22  1  0  0  0  0
 22 17  1  0  0  0  0
 24 23  1  0  0  0  0
 25 34  1  0  0  0  0
 25 24  2  0  0  0  0
 26 25  1  0  0  0  0
 27 26  2  0  0  0  0
 27 32  1  0  0  0  0
 28 27  1  0  0  0  0
 29 28  2  0  0  0  0
 29 30  1  0  0  0  0
 30 31  2  0  0  0  0
 31 32  1  0  0  0  0
 31 38  1  0  0  0  0
 32 33  2  0  0  0  0
 33 24  1  0  0  0  0
 33 39  1  0  0  0  0
 35 26  1  0  0  0  0
 36 29  1  0  0  0  0
 37 30  1  0  0  0  0
M  END
>  <minimizedAffinity>
-6.26948071

$$$$

 OpenBabel03242523353D

 39 43  0  0  0  0  0  0  0  0999 V2000
   36.0950   25.5880   37.2980 C   0  0  0  0  0  0  0  0  0  0  0  0
   37.1850   25.7200   37.0710 H   0  0  0  0  0  0  0  0  0  0  0  0
   35.5660   25.4930   36.3520 H   0  0  0  0  0  0  0  0  0  0  0  0
   34.4770   28.7410   38.4430 C   0  0  0  0  0  0  0  0  0  0  0  0
   35.1550   28.9520   39.6370 C   0  0  0  0  0  0  0  0  0  0  0  0
   36.1400   28.0570   40.0540 C   0  0  0  0  0  0  0  0  0  0  0  0
   36.3930   26.9770   39.2380 N   0  0  0  0  0  0  0  0  0  0  0  0
   35.7170   26.7930   38.0780 C   0  0  0  0  0  0  0  0  0  0  0  0
   34.7870   27.6750   37.7200 N   0  0  0  0  0  0  0  0  0  0  0  0
   33.7160   29.4360   38.1220 H   0  0  0  0  0  0  0  0  0  0  0  0
   34.8460   29.7840   40.1990 H   0  0  0  0  0  0  0  0  0  0  0  0
   36.8930   28.0660   41.2840 C   0  0  0  0  0  0  0  0  0  0  0  0
   36.1990   27.6660   42.4350 C   0  0  0  0  0  0  0  0  0  0  0  0
   35.1400   27.3740   42.3750 H   0  0  0  0  0  0  0  0  0  0  0  0
   36.7430   27.5990   43.7000 C   0  0  0  0  0  3  0  0  0  0  0  0
   38.0580   27.9400   43.8800 C   0  0  0  0  0  3  0  0  0  0  0  0
   38.8020   28.3400   42.7930 C   0  0  0  0  0  0  0  0  0  0  0  0
   40.1260   28.6530   42.9300 C   0  0  0  0  0  3  0  0  0  0  0  0
   40.9210   29.0230   41.8410 C   0  0  0  0  0  3  0  0  0  0  0  0
   40.2990   29.0610   40.5880 C   0  0  0  0  0  3  0  0  0  0  0  0
   38.9720   28.7380   40.5130 C   0  0  0  0  0  3  0  0  0  0  0  0
   38.1800   28.3770   41.5750 C   0  0  0  0  0  0  0  0  0  0  0  0
   35.9870   24.1550   38.3900 S   0  0  0  0  0  0  0  0  0  0  0  0
   37.0840   24.3380   39.7770 C   0  0  0  0  0  0  0  0  0  0  0  0
   36.5740   24.0870   41.0290 C   0  0  0  0  0  0  0  0  0  0  0  0
   37.4130   24.2240   42.1100 C   0  0  0  0  0  0  0  0  0  0  0  0
   38.7460   24.6040   41.9740 C   0  0  0  0  0  0  0  0  0  0  0  0
   39.5320   24.7260   43.0610 N   0  0  0  0  0  0  0  0  0  0  0  0
   40.8330   25.0980   42.9280 C   0  0  0  0  0  0  0  0  0  0  0  0
   41.3400   25.3490   41.6760 C   0  0  0  0  0  0  0  0  0  0  0  0
   40.5350   25.2230   40.5750 C   0  0  0  0  0  0  0  0  0  0  0  0
   39.1870   24.8400   40.6730 C   0  0  0  0  0  0  0  0  0  0  0  0
   38.3860   24.7170   39.5660 C   0  0  0  0  0  0  0  0  0  0  0  0
   35.5810   23.7910   41.2870 H   0  0  0  0  0  0  0  0  0  0  0  0
   37.0860   24.0420   43.1400 H   0  0  0  0  0  0  0  0  0  0  0  0
   41.3800   25.1670   43.8600 H   0  0  0  0  0  0  0  0  0  0  0  0
   42.3800   25.6430   41.6090 H   0  0  0  0  0  0  0  0  0  0  0  0
   40.9720   25.4290   39.6070 H   0  0  0  0  0  0  0  0  0  0  0  0
   38.7880   24.9140   38.5840 H   0  0  0  0  0  0  0  0  0  0  0  0
  1  8  1  0  0  0  0
  1 23  1  0  0  0  0
  2  1  1  0  0  0  0
  3  1  1  0  0  0  0
  4  5  1  0  0  0  0
  5  6  2  0  0  0  0
  5 11  1  0  0  0  0
  6 12  1  0  0  0  0
  7  6  1  0  0  0  0
  8  7  2  0  0  0  0
  9  8  1  0  0  0  0
  9  4  2  0  0  0  0
 10  4  1  0  0  0  0
 12 22  2  0  0  0  0
 12 13  1  0  0  0  0
 13 15  2  0  0  0  0
 14 13  1  0  0  0  0
 15 16  1  0  0  0  0
 17 18  1  0  0  0  0
 17 16  2  0  0  0  0
 19 18  2  0  0  0  0
 20 19  1  0  0  0  0
 21 20  2  0  0  0  0
 21 22  1  0  0  0  0
 22 17  1  0  0  0  0
 23 24  1  0  0  0  0
 24 25  1  0  0  0  0
 25 34  1  0  0  0  0
 25 26  2  0  0  0  0
 26 35  1  0  0  0  0
 27 26  1  0  0  0  0
 27 28  1  0  0  0  0
 29 28  2  0  0  0  0
 29 36  1  0  0  0  0
 30 29  1  0  0  0  0
 31 32  1  0  0  0  0
 31 30  2  0  0  0  0
 32 27  2  0  0  0  0
 33 24  2  0  0  0  0
 33 32  1  0  0  0  0
 37 30  1  0  0  0  0
 38 31  1  0  0  0  0
 39 33  1  0  0  0  0
M  END
>  <minimizedAffinity>
-6.21841049

$$$$

 OpenBabel03242523353D

 39 43  0  0  0  0  0  0  0  0999 V2000
   41.7550   32.5420   40.2720 C   0  0  0  0  0  0  0  0  0  0  0  0
   42.3520   33.4640   40.4930 H   0  0  0  0  0  0  0  0  0  0  0  0
   42.1740   32.0770   39.3810 H   0  0  0  0  0  0  0  0  0  0  0  0
   38.6390   34.5810   40.3550 C   0  0  0  0  0  0  0  0  0  0  0  0
   37.7660   33.7330   39.6870 C   0  0  0  0  0  0  0  0  0  0  0  0
   38.2080   32.4960   39.2160 C   0  0  0  0  0  0  0  0  0  0  0  0
   39.5280   32.1750   39.4430 N   0  0  0  0  0  0  0  0  0  0  0  0
   40.3600   33.0210   40.0970 C   0  0  0  0  0  0  0  0  0  0  0  0
   39.8920   34.1890   40.5290 N   0  0  0  0  0  0  0  0  0  0  0  0
   38.2940   35.5370   40.7200 H   0  0  0  0  0  0  0  0  0  0  0  0
   36.7950   34.1030   39.5320 H   0  0  0  0  0  0  0  0  0  0  0  0
   37.4790   31.5210   38.4440 C   0  0  0  0  0  0  0  0  0  0  0  0
   37.8020   31.4460   37.0820 C   0  0  0  0  0  0  0  0  0  0  0  0
   38.5680   32.1100   36.6520 H   0  0  0  0  0  0  0  0  0  0  0  0
   37.2260   30.5760   36.1820 C   0  0  0  0  0  3  0  0  0  0  0  0
   36.2620   29.7050   36.6190 C   0  0  0  0  0  3  0  0  0  0  0  0
   35.8950   29.7200   37.9450 C   0  0  0  0  0  0  0  0  0  0  0  0
   34.9640   28.8420   38.4240 C   0  0  0  0  0  3  0  0  0  0  0  0
   34.5980   28.8030   39.7720 C   0  0  0  0  0  3  0  0  0  0  0  0
   35.2330   29.7120   40.6260 C   0  0  0  0  0  3  0  0  0  0  0  0
   36.1570   30.5680   40.0910 C   0  0  0  0  0  3  0  0  0  0  0  0
   36.5210   30.6180   38.7670 C   0  0  0  0  0  0  0  0  0  0  0  0
   41.8200   31.5390   41.7700 S   0  0  0  0  0  0  0  0  0  0  0  0
   40.5330   30.3130   41.7630 C   0  0  0  0  0  0  0  0  0  0  0  0
   39.6940   30.2640   42.8520 C   0  0  0  0  0  0  0  0  0  0  0  0
   38.6940   29.3200   42.8570 C   0  0  0  0  0  0  0  0  0  0  0  0
   38.5090   28.4250   41.8060 C   0  0  0  0  0  0  0  0  0  0  0  0
   37.5160   27.5170   41.8550 N   0  0  0  0  0  0  0  0  0  0  0  0
   37.3360   26.6430   40.8290 C   0  0  0  0  0  0  0  0  0  0  0  0
   38.1750   26.6940   39.7420 C   0  0  0  0  0  0  0  0  0  0  0  0
   39.1830   27.6200   39.7000 C   0  0  0  0  0  0  0  0  0  0  0  0
   39.4000   28.5390   40.7400 C   0  0  0  0  0  0  0  0  0  0  0  0
   40.4120   29.4640   40.6920 C   0  0  0  0  0  0  0  0  0  0  0  0
   39.7150   30.8790   43.7240 H   0  0  0  0  0  0  0  0  0  0  0  0
   37.9840   29.2160   43.6860 H   0  0  0  0  0  0  0  0  0  0  0  0
   36.5110   25.9550   40.9630 H   0  0  0  0  0  0  0  0  0  0  0  0
   38.0010   25.9820   38.9440 H   0  0  0  0  0  0  0  0  0  0  0  0
   39.8230   27.6270   38.8270 H   0  0  0  0  0  0  0  0  0  0  0  0
   41.0690   29.5010   39.8370 H   0  0  0  0  0  0  0  0  0  0  0  0
  1  2  1  0  0  0  0
  1 23  1  0  0  0  0
  3  1  1  0  0  0  0
  4  9  1  0  0  0  0
  4 10  1  0  0  0  0
  5  4  2  0  0  0  0
  6  7  2  0  0  0  0
  6  5  1  0  0  0  0
  7  8  1  0  0  0  0
  8  1  1  0  0  0  0
  8  9  2  0  0  0  0
 11  5  1  0  0  0  0
 12 22  1  0  0  0  0
 12  6  1  0  0  0  0
 13 12  2  0  0  0  0
 14 13  1  0  0  0  0
 15 16  2  0  0  0  0
 15 13  1  0  0  0  0
 16 17  1  0  0  0  0
 17 18  2  0  0  0  0
 17 22  1  0  0  0  0
 18 19  1  0  0  0  0
 19 20  2  0  0  0  0
 21 20  1  0  0  0  0
 22 21  2  0  0  0  0
 24 23  1  0  0  0  0
 24 25  1  0  0  0  0
 25 26  2  0  0  0  0
 25 34  1  0  0  0  0
 26 35  1  0  0  0  0
 27 28  1  0  0  0  0
 27 26  1  0  0  0  0
 29 36  1  0  0  0  0
 29 28  2  0  0  0  0
 30 29  1  0  0  0  0
 31 30  2  0  0  0  0
 31 32  1  0  0  0  0
 32 27  2  0  0  0  0
 33 32  1  0  0  0  0
 33 24  2  0  0  0  0
 37 30  1  0  0  0  0
 38 31  1  0  0  0  0
 39 33  1  0  0  0  0
M  END
>  <minimizedAffinity>
-6.19032049

$$$$

 OpenBabel03242523353D

 39 43  0  0  0  0  0  0  0  0999 V2000
   37.4440   31.3370   38.1840 C   0  0  0  0  0  0  0  0  0  0  0  0
   37.7580   32.1650   37.4970 H   0  0  0  0  0  0  0  0  0  0  0  0
   36.3680   31.4140   38.3310 H   0  0  0  0  0  0  0  0  0  0  0  0
   39.6090   32.8020   40.8370 C   0  0  0  0  0  0  0  0  0  0  0  0
   39.6320   31.7550   41.7500 C   0  0  0  0  0  0  0  0  0  0  0  0
   38.9360   30.5750   41.4840 C   0  0  0  0  0  0  0  0  0  0  0  0
   38.2410   30.5110   40.2970 N   0  0  0  0  0  0  0  0  0  0  0  0
   38.2340   31.5470   39.4240 C   0  0  0  0  0  0  0  0  0  0  0  0
   38.9140   32.6520   39.7200 N   0  0  0  0  0  0  0  0  0  0  0  0
   40.1500   33.7140   41.0450 H   0  0  0  0  0  0  0  0  0  0  0  0
   40.1580   31.9340   42.6410 H   0  0  0  0  0  0  0  0  0  0  0  0
   38.7810   29.4190   42.3320 C   0  0  0  0  0  0  0  0  0  0  0  0
   37.4730   29.1290   42.7470 C   0  0  0  0  0  0  0  0  0  0  0  0
   36.6340   29.7690   42.4340 H   0  0  0  0  0  0  0  0  0  0  0  0
   37.1180   28.0670   43.5490 C   0  0  0  0  0  3  0  0  0  0  0  0
   38.0920   27.2090   43.9910 C   0  0  0  0  0  3  0  0  0  0  0  0
   39.3990   27.4300   43.6200 C   0  0  0  0  0  0  0  0  0  0  0  0
   40.3900   26.5740   44.0120 C   0  0  0  0  0  3  0  0  0  0  0  0
   41.7220   26.7460   43.6210 C   0  0  0  0  0  3  0  0  0  0  0  0
   42.0020   27.8440   42.8000 C   0  0  0  0  0  3  0  0  0  0  0  0
   40.9690   28.6660   42.4400 C   0  0  0  0  0  3  0  0  0  0  0  0
   39.6590   28.5100   42.8210 C   0  0  0  0  0  0  0  0  0  0  0  0
   38.0110   29.8090   37.4090 S   0  0  0  0  0  0  0  0  0  0  0  0
   37.7860   28.4270   38.5050 C   0  0  0  0  0  0  0  0  0  0  0  0
   36.5060   28.1480   38.9240 C   0  0  0  0  0  0  0  0  0  0  0  0
   36.3200   27.0810   39.7720 C   0  0  0  0  0  0  0  0  0  0  0  0
   37.3760   26.2860   40.2110 C   0  0  0  0  0  0  0  0  0  0  0  0
   37.1470   25.2510   41.0410 N   0  0  0  0  0  0  0  0  0  0  0  0
   38.1780   24.4760   41.4710 C   0  0  0  0  0  0  0  0  0  0  0  0
   39.4550   24.7570   41.0510 C   0  0  0  0  0  0  0  0  0  0  0  0
   39.6810   25.8110   40.2070 C   0  0  0  0  0  0  0  0  0  0  0  0
   38.6420   26.6340   39.7420 C   0  0  0  0  0  0  0  0  0  0  0  0
   38.8750   27.6890   38.8970 C   0  0  0  0  0  0  0  0  0  0  0  0
   35.6070   28.6650   38.6740 H   0  0  0  0  0  0  0  0  0  0  0  0
   35.3330   26.7920   40.1500 H   0  0  0  0  0  0  0  0  0  0  0  0
   37.8900   23.6700   42.1340 H   0  0  0  0  0  0  0  0  0  0  0  0
   40.2520   24.1180   41.4140 H   0  0  0  0  0  0  0  0  0  0  0  0
   40.7010   26.0000   39.9000 H   0  0  0  0  0  0  0  0  0  0  0  0
   39.8800   27.9070   38.5690 H   0  0  0  0  0  0  0  0  0  0  0  0
  1  3  1  0  0  0  0
  1  8  1  0  0  0  0
  2  1  1  0  0  0  0
  4 10  1  0  0  0  0
  4  5  1  0  0  0  0
  5 11  1  0  0  0  0
  6  5  2  0  0  0  0
  6 12  1  0  0  0  0
  7  6  1  0  0  0  0
  8  9  1  0  0  0  0
  8  7  2  0  0  0  0
  9  4  2  0  0  0  0
 12 13  2  0  0  0  0
 12 22  1  0  0  0  0
 13 15  1  0  0  0  0
 14 13  1  0  0  0  0
 15 16  2  0  0  0  0
 17 16  1  0  0  0  0
 17 18  1  0  0  0  0
 19 18  2  0  0  0  0
 20 19  1  0  0  0  0
 21 20  2  0  0  0  0
 21 22  1  0  0  0  0
 22 17  2  0  0  0  0
 23  1  1  0  0  0  0
 23 24  1  0  0  0  0
 24 33  2  0  0  0  0
 24 25  1  0  0  0  0
 25 26  2  0  0  0  0
 26 35  1  0  0  0  0
 26 27  1  0  0  0  0
 27 28  1  0  0  0  0
 28 29  2  0  0  0  0
 29 36  1  0  0  0  0
 30 37  1  0  0  0  0
 30 29  1  0  0  0  0
 31 30  2  0  0  0  0
 32 31  1  0  0  0  0
 32 27  2  0  0  0  0
 33 32  1  0  0  0  0
 34 25  1  0  0  0  0
 38 31  1  0  0  0  0
 39 33  1  0  0  0  0
M  END
>  <minimizedAffinity>
-6.17487764

$$$$
