
 OpenBabel03242518023D

 39 42  0  0  0  0  0  0  0  0999 V2000
   46.3460   31.5640   45.9530 C   0  0  0  0  0  0  0  0  0  0  0  0
   45.3620   31.8940   46.3190 H   0  0  0  0  0  0  0  0  0  0  0  0
   46.1200   30.5930   45.4150 H   0  0  0  0  0  0  0  0  0  0  0  0
   47.3570   31.9730   48.1780 C   0  0  0  0  0  0  0  0  0  0  0  0
   47.3060   31.2280   46.9890 C   0  0  0  0  0  0  0  0  0  0  0  0
   48.2140   30.1890   46.8970 C   0  0  0  0  0  0  0  0  0  0  0  0
   49.0660   29.9540   47.9090 N   0  0  0  0  0  0  0  0  0  0  0  0
   49.1090   30.6590   49.0250 C   0  0  0  0  0  0  0  0  0  0  0  0
   48.2480   31.6510   49.1240 N   0  0  0  0  0  0  0  0  0  0  0  0
   46.6700   32.8220   48.3380 H   0  0  0  0  0  0  0  0  0  0  0  0
   48.2450   29.5670   46.0210 H   0  0  0  0  0  0  0  0  0  0  0  0
   49.9590   30.5410   50.2050 C   0  0  0  0  0  0  0  0  0  0  0  0
   50.0550   29.3810   50.9750 C   0  0  0  0  0  0  0  0  0  0  0  0
   49.4520   28.5100   50.6690 H   0  0  0  0  0  0  0  0  0  0  0  0
   50.8400   29.2440   52.0850 C   0  0  0  0  0  0  0  0  0  0  0  0
   51.6110   30.3000   52.5090 C   0  0  0  0  0  0  0  0  0  0  0  0
   51.5690   31.4780   51.7980 C   0  0  0  0  0  0  0  0  0  0  0  0
   52.3540   32.4860   52.2680 C   0  0  0  0  0  0  0  0  0  0  0  0
   52.3710   33.6950   51.6200 C   0  0  0  0  0  0  0  0  0  0  0  0
   51.5670   33.8280   50.4880 C   0  0  0  0  0  0  0  0  0  0  0  0
   50.8000   32.7660   50.0730 C   0  0  0  0  0  0  0  0  0  0  0  0
   50.7590   31.5440   50.6980 C   0  0  0  0  0  0  0  0  0  0  0  0
   47.0100   32.5340   44.9960 C   0  0  0  0  0  0  0  0  0  0  0  0
   47.3130   31.9730   44.1000 H   0  0  0  0  0  0  0  0  0  0  0  0
   47.9840   32.9200   45.4210 H   0  0  0  0  0  0  0  0  0  0  0  0
   46.3910   34.3760   43.4920 C   0  0  0  0  0  0  0  0  0  0  0  0
   46.2200   33.7400   44.7070 C   0  0  0  0  0  0  0  0  0  0  0  0
   45.3460   34.1770   45.6660 C   0  0  0  0  0  0  0  0  0  0  0  0
   44.6050   35.3030   45.4040 C   0  0  0  0  0  0  0  0  0  0  0  0
   44.7020   35.9980   44.2380 C   0  0  0  0  0  0  0  0  0  0  0  0
   45.6070   35.5020   43.3060 C   0  0  0  0  0  0  0  0  0  0  0  0
   45.1480   33.7530   46.6280 H   0  0  0  0  0  0  0  0  0  0  0  0
   43.8810   35.7250   46.1160 H   0  0  0  0  0  0  0  0  0  0  0  0
   44.1400   36.8870   43.9880 H   0  0  0  0  0  0  0  0  0  0  0  0
   45.7050   36.0410   42.3610 H   0  0  0  0  0  0  0  0  0  0  0  0
   47.4960   33.8500   42.2450 S   0  0  0  0  0  0  0  0  0  0  0  0
   48.9080   34.3350   42.4960 O   0  0  0  0  0  0  0  0  0  0  0  0
   47.1010   34.5150   40.9460 O   0  0  0  0  0  0  0  0  0  0  0  0
   47.4590   32.5180   42.0050 H   0  0  0  0  0  0  0  0  0  0  0  0
  1  2  1  0  0  0  0
  1  5  1  0  0  0  0
  3  1  1  0  0  0  0
  4 10  1  0  0  0  0
  4  9  1  0  0  0  0
  5  4  2  0  0  0  0
  6  5  1  0  0  0  0
  6  7  2  0  0  0  0
  7  8  1  0  0  0  0
  8  9  2  0  0  0  0
  8 12  1  0  0  0  0
 11  6  1  0  0  0  0
 12 22  2  0  0  0  0
 12 13  1  0  0  0  0
 13 15  2  0  0  0  0
 14 13  1  0  0  0  0
 15 16  1  0  0  0  0
 17 18  1  0  0  0  0
 17 16  2  0  0  0  0
 19 18  2  0  0  0  0
 20 19  1  0  0  0  0
 21 20  2  0  0  0  0
 21 22  1  0  0  0  0
 22 17  1  0  0  0  0
 23 25  1  0  0  0  0
 23  1  1  0  0  0  0
 24 23  1  0  0  0  0
 26 27  1  0  0  0  0
 27 23  1  0  0  0  0
 27 28  2  0  0  0  0
 28 32  1  0  0  0  0
 29 28  1  0  0  0  0
 29 33  1  0  0  0  0
 30 29  2  0  0  0  0
 31 26  2  0  0  0  0
 31 30  1  0  0  0  0
 34 30  1  0  0  0  0
 35 31  1  0  0  0  0
 36 37  2  0  0  0  0
 36 26  1  0  0  0  0
 38 36  2  0  0  0  0
 39 36  1  0  0  0  0
M  END
>  <minimizedAffinity>
-6.78873682

>  <minimizedRMSD>
0.388104975

$$$$
