
 OpenBabel03252508333D

 34 37  0  0  1  0  0  0  0  0999 V2000
   44.0270   34.3430   41.8620 N   0  0  0  0  0  0  0  0  0  0  0  0
   43.8530   33.2920   40.9730 C   0  0  1  0  0  0  0  0  0  0  0  0
   43.1500   33.6160   39.6950 C   0  0  0  0  0  0  0  0  0  0  0  0
   42.0810   34.5120   39.7820 N   0  0  0  0  0  0  0  0  0  0  0  0
   42.1370   35.4950   40.7880 C   0  0  0  0  0  0  0  0  0  0  0  0
   43.5440   35.6160   41.3660 C   0  0  0  0  0  0  0  0  0  0  0  0
   43.0680   32.6360   41.5070 H   0  0  0  0  0  0  0  0  0  0  0  0
   43.8290   33.9530   38.8860 H   0  0  0  0  0  0  0  0  0  0  0  0
   42.7450   32.6370   39.2960 H   0  0  0  0  0  0  0  0  0  0  0  0
   41.1360   34.1610   39.5740 H   0  0  0  0  0  0  0  0  0  0  0  0
   41.8090   36.4980   40.5340 H   0  0  0  0  0  0  0  0  0  0  0  0
   41.5100   35.1520   41.6460 H   0  0  0  0  0  0  0  0  0  0  0  0
   43.5060   36.4230   42.0850 H   0  0  0  0  0  0  0  0  0  0  0  0
   44.1670   35.9500   40.5070 H   0  0  0  0  0  0  0  0  0  0  0  0
   44.9170   32.3350   40.6320 C   0  0  0  0  0  0  0  0  0  0  0  0
   44.6360   30.9500   40.7000 C   0  0  0  0  0  0  0  0  0  0  0  0
   43.6350   30.6310   41.0320 H   0  0  0  0  0  0  0  0  0  0  0  0
   45.4750   29.9290   40.3970 C   0  0  0  0  0  3  0  0  0  0  0  0
   46.7430   30.2370   39.9740 C   0  0  0  0  0  3  0  0  0  0  0  0
   47.1350   31.5510   39.8660 C   0  0  0  0  0  0  0  0  0  0  0  0
   48.3940   31.9220   39.4480 C   0  0  0  0  0  3  0  0  0  0  0  0
   48.8030   33.2560   39.3360 C   0  0  0  0  0  3  0  0  0  0  0  0
   47.8630   34.2350   39.6730 C   0  0  0  0  0  3  0  0  0  0  0  0
   46.6220   33.8160   40.0840 C   0  0  0  0  0  3  0  0  0  0  0  0
   46.2140   32.5100   40.1970 C   0  0  0  0  0  0  0  0  0  0  0  0
   44.5540   35.1840   44.0390 C   0  0  0  0  0  0  0  0  0  0  0  0
   44.5920   34.1410   43.1290 C   0  0  0  0  0  0  0  0  0  0  0  0
   45.1740   32.9670   43.5390 C   0  0  0  0  0  0  0  0  0  0  0  0
   45.6880   32.8340   44.7720 N   0  0  0  0  0  0  0  0  0  0  0  0
   45.6350   33.8810   45.6460 C   0  0  0  0  0  0  0  0  0  0  0  0
   45.0800   35.0270   45.2830 N   0  0  0  0  0  0  0  0  0  0  0  0
   44.1480   36.1750   43.9270 H   0  0  0  0  0  0  0  0  0  0  0  0
   45.2680   32.0810   42.9750 H   0  0  0  0  0  0  0  0  0  0  0  0
   46.0610   33.7540   46.6550 H   0  0  0  0  0  0  0  0  0  0  0  0
  1 27  1  0  0  0  0
  2  7  1  1  0  0  0
  2  1  1  0  0  0  0
  3  4  1  0  0  0  0
  3  2  1  0  0  0  0
  4  5  1  0  0  0  0
  5  6  1  0  0  0  0
  5 12  1  0  0  0  0
  6  1  1  0  0  0  0
  6 13  1  0  0  0  0
  8  3  1  0  0  0  0
  9  3  1  0  0  0  0
 10  4  1  0  0  0  0
 11  5  1  0  0  0  0
 14  6  1  0  0  0  0
 15 16  1  0  0  0  0
 15  2  1  0  0  0  0
 16 17  1  0  0  0  0
 18 16  2  0  0  0  0
 19 18  1  0  0  0  0
 20 19  2  0  0  0  0
 20 25  1  0  0  0  0
 21 20  1  0  0  0  0
 22 21  2  0  0  0  0
 22 23  1  0  0  0  0
 23 24  2  0  0  0  0
 24 25  1  0  0  0  0
 25 15  2  0  0  0  0
 26 31  1  0  0  0  0
 27 28  1  0  0  0  0
 27 26  2  0  0  0  0
 28 29  2  0  0  0  0
 29 30  1  0  0  0  0
 30 34  1  0  0  0  0
 31 30  2  0  0  0  0
 32 26  1  0  0  0  0
 33 28  1  0  0  0  0
M  END
>  <minimizedAffinity>
-4.31746101

>  <minimizedRMSD>
0.757068813

$$$$
