
 OpenBabel03252501573D

 33 36  0  0  0  0  0  0  0  0999 V2000
   39.6690   32.1940   40.7570 C   0  0  0  0  0  0  0  0  0  0  0  0
   38.7990   31.1900   40.2990 C   0  0  0  0  0  0  0  0  0  0  0  0
   37.5940   31.6230   39.7430 C   0  0  0  0  0  0  0  0  0  0  0  0
   37.3220   32.9660   39.6690 N   0  0  0  0  0  0  0  0  0  0  0  0
   38.2010   33.8760   40.1260 C   0  0  0  0  0  0  0  0  0  0  0  0
   39.3820   33.5170   40.6750 N   0  0  0  0  0  0  0  0  0  0  0  0
   40.6220   31.9020   41.2000 H   0  0  0  0  0  0  0  0  0  0  0  0
   38.0450   34.9400   40.0960 H   0  0  0  0  0  0  0  0  0  0  0  0
   36.6710   30.6200   39.2470 C   0  0  0  0  0  0  0  0  0  0  0  0
   36.5960   30.0450   38.0110 C   0  0  0  0  0  0  0  0  0  0  0  0
   35.6440   29.1030   37.7080 C   0  0  0  0  0  0  0  0  0  0  0  0
   34.7450   28.7300   38.6720 C   0  0  0  0  0  0  0  0  0  0  0  0
   34.7830   29.2820   39.9300 C   0  0  0  0  0  0  0  0  0  0  0  0
   35.7540   30.2350   40.2210 C   0  0  0  0  0  0  0  0  0  0  0  0
   37.3380   30.3780   37.3050 H   0  0  0  0  0  0  0  0  0  0  0  0
   35.5900   28.6550   36.7360 H   0  0  0  0  0  0  0  0  0  0  0  0
   33.9850   27.9880   38.4570 H   0  0  0  0  0  0  0  0  0  0  0  0
   34.0480   28.9580   40.6750 H   0  0  0  0  0  0  0  0  0  0  0  0
   35.7040   30.6080   41.2220 H   0  0  0  0  0  0  0  0  0  0  0  0
   39.2010   29.8030   40.4320 C   0  0  0  0  0  0  0  0  0  0  0  0
   40.3140   29.7470   40.5880 H   0  0  0  0  0  0  0  0  0  0  0  0
   39.0630   29.2650   39.4470 H   0  0  0  0  0  0  0  0  0  0  0  0
   38.5280   29.0030   41.4500 C   0  0  0  0  0  0  0  0  0  0  0  0
   38.2830   29.2970   42.7520 C   0  0  0  0  0  0  0  0  0  0  0  0
   38.6480   30.2930   43.0570 H   0  0  0  0  0  0  0  0  0  0  0  0
   37.6520   28.5100   43.6800 C   0  0  0  0  0  3  0  0  0  0  0  0
   37.2130   27.2720   43.2400 C   0  0  0  0  0  3  0  0  0  0  0  0
   37.4380   26.9170   41.9170 C   0  0  0  0  0  0  0  0  0  0  0  0
   36.9540   25.6520   41.5990 C   0  0  0  0  0  3  0  0  0  0  0  0
   37.1200   25.1870   40.3060 C   0  0  0  0  0  3  0  0  0  0  0  0
   37.7630   26.0320   39.4260 C   0  0  0  0  0  3  0  0  0  0  0  0
   38.2450   27.2880   39.7360 C   0  0  0  0  0  3  0  0  0  0  0  0
   38.0760   27.7470   41.0280 C   0  0  0  0  0  0  0  0  0  0  0  0
  1  7  1  0  0  0  0
  2 20  1  0  0  0  0
  2  1  2  0  0  0  0
  3  2  1  0  0  0  0
  4  3  2  0  0  0  0
  4  5  1  0  0  0  0
  5  6  2  0  0  0  0
  6  1  1  0  0  0  0
  8  5  1  0  0  0  0
  9  3  1  0  0  0  0
  9 14  1  0  0  0  0
 10  9  2  0  0  0  0
 11 10  1  0  0  0  0
 11 12  2  0  0  0  0
 12 13  1  0  0  0  0
 13 14  2  0  0  0  0
 13 18  1  0  0  0  0
 14 19  1  0  0  0  0
 15 10  1  0  0  0  0
 16 11  1  0  0  0  0
 17 12  1  0  0  0  0
 20 21  1  0  0  0  0
 20 23  1  0  0  0  0
 22 20  1  0  0  0  0
 23 24  1  0  0  0  0
 24 25  1  0  0  0  0
 24 26  2  0  0  0  0
 27 26  1  0  0  0  0
 28 27  2  0  0  0  0
 29 28  1  0  0  0  0
 30 29  2  0  0  0  0
 31 32  2  0  0  0  0
 31 30  1  0  0  0  0
 32 33  1  0  0  0  0
 33 23  2  0  0  0  0
 33 28  1  0  0  0  0
M  END
>  <minimizedAffinity>
-6.39985752

$$$$

 OpenBabel03252501573D

 33 36  0  0  0  0  0  0  0  0999 V2000
   35.9840   29.0460   39.1050 C   0  0  0  0  0  0  0  0  0  0  0  0
   36.7300   30.1180   39.6270 C   0  0  0  0  0  0  0  0  0  0  0  0
   37.3210   30.9710   38.6940 C   0  0  0  0  0  0  0  0  0  0  0  0
   37.1520   30.7360   37.3530 N   0  0  0  0  0  0  0  0  0  0  0  0
   36.4230   29.6910   36.9200 C   0  0  0  0  0  0  0  0  0  0  0  0
   35.8290   28.8300   37.7750 N   0  0  0  0  0  0  0  0  0  0  0  0
   35.5060   28.3530   39.7970 H   0  0  0  0  0  0  0  0  0  0  0  0
   36.2550   29.4550   35.8840 H   0  0  0  0  0  0  0  0  0  0  0  0
   38.0900   32.0970   39.1890 C   0  0  0  0  0  0  0  0  0  0  0  0
   37.6810   33.1720   39.9250 C   0  0  0  0  0  0  0  0  0  0  0  0
   38.5530   34.1610   40.3100 C   0  0  0  0  0  0  0  0  0  0  0  0
   39.8700   34.0650   39.9450 C   0  0  0  0  0  0  0  0  0  0  0  0
   40.3270   33.0010   39.2050 C   0  0  0  0  0  0  0  0  0  0  0  0
   39.4300   32.0080   38.8240 C   0  0  0  0  0  0  0  0  0  0  0  0
   36.6350   33.1780   40.1840 H   0  0  0  0  0  0  0  0  0  0  0  0
   38.2260   35.0010   40.8870 H   0  0  0  0  0  0  0  0  0  0  0  0
   40.5770   34.8320   40.2370 H   0  0  0  0  0  0  0  0  0  0  0  0
   41.3880   32.9590   38.9330 H   0  0  0  0  0  0  0  0  0  0  0  0
   39.8770   31.2230   38.2500 H   0  0  0  0  0  0  0  0  0  0  0  0
   36.8340   30.2610   41.0670 C   0  0  0  0  0  0  0  0  0  0  0  0
   35.8510   30.6210   41.4800 H   0  0  0  0  0  0  0  0  0  0  0  0
   37.5340   31.1110   41.3200 H   0  0  0  0  0  0  0  0  0  0  0  0
   37.2830   29.1000   41.8270 C   0  0  0  0  0  0  0  0  0  0  0  0
   36.5740   28.0260   42.2580 C   0  0  0  0  0  0  0  0  0  0  0  0
   35.5080   28.0570   41.9720 H   0  0  0  0  0  0  0  0  0  0  0  0
   37.0360   26.9560   42.9790 C   0  0  0  0  0  3  0  0  0  0  0  0
   38.3810   26.9700   43.3070 C   0  0  0  0  0  3  0  0  0  0  0  0
   39.1560   28.0450   42.8930 C   0  0  0  0  0  0  0  0  0  0  0  0
   40.4870   27.9440   43.2850 C   0  0  0  0  0  3  0  0  0  0  0  0
   41.3590   28.9580   42.9300 C   0  0  0  0  0  3  0  0  0  0  0  0
   40.8260   30.0030   42.2050 C   0  0  0  0  0  3  0  0  0  0  0  0
   39.5060   30.1080   41.8130 C   0  0  0  0  0  3  0  0  0  0  0  0
   38.6410   29.0920   42.1690 C   0  0  0  0  0  0  0  0  0  0  0  0
  1  2  1  0  0  0  0
  1  7  1  0  0  0  0
  2 20  1  0  0  0  0
  3  9  1  0  0  0  0
  3  2  2  0  0  0  0
  4  3  1  0  0  0  0
  5  4  2  0  0  0  0
  5  6  1  0  0  0  0
  6  1  2  0  0  0  0
  8  5  1  0  0  0  0
  9 10  1  0  0  0  0
 10 15  1  0  0  0  0
 10 11  2  0  0  0  0
 11 16  1  0  0  0  0
 12 17  1  0  0  0  0
 12 11  1  0  0  0  0
 13 12  2  0  0  0  0
 14  9  2  0  0  0  0
 14 13  1  0  0  0  0
 18 13  1  0  0  0  0
 19 14  1  0  0  0  0
 20 22  1  0  0  0  0
 20 21  1  0  0  0  0
 20 23  1  0  0  0  0
 23 33  2  0  0  0  0
 23 24  1  0  0  0  0
 24 26  2  0  0  0  0
 25 24  1  0  0  0  0
 26 27  1  0  0  0  0
 28 29  1  0  0  0  0
 28 27  2  0  0  0  0
 30 29  2  0  0  0  0
 31 30  1  0  0  0  0
 32 33  1  0  0  0  0
 32 31  2  0  0  0  0
 33 28  1  0  0  0  0
M  END
>  <minimizedAffinity>
-6.16186476

$$$$

 OpenBabel03252501573D

 33 36  0  0  0  0  0  0  0  0999 V2000
   40.3880   32.0820   41.3670 C   0  0  0  0  0  0  0  0  0  0  0  0
   39.3770   31.1230   41.5520 C   0  0  0  0  0  0  0  0  0  0  0  0
   39.7520   29.9460   42.2020 C   0  0  0  0  0  0  0  0  0  0  0  0
   41.0480   29.7840   42.6200 N   0  0  0  0  0  0  0  0  0  0  0  0
   41.9680   30.7440   42.4130 C   0  0  0  0  0  0  0  0  0  0  0  0
   41.6650   31.9030   41.7890 N   0  0  0  0  0  0  0  0  0  0  0  0
   40.1410   33.0170   40.8640 H   0  0  0  0  0  0  0  0  0  0  0  0
   42.9980   30.6750   42.7170 H   0  0  0  0  0  0  0  0  0  0  0  0
   38.7370   28.9340   42.4230 C   0  0  0  0  0  0  0  0  0  0  0  0
   37.8240   28.8270   43.4320 C   0  0  0  0  0  0  0  0  0  0  0  0
   36.9270   27.7880   43.4890 C   0  0  0  0  0  0  0  0  0  0  0  0
   36.9500   26.8340   42.5060 C   0  0  0  0  0  0  0  0  0  0  0  0
   37.8510   26.9020   41.4710 C   0  0  0  0  0  0  0  0  0  0  0  0
   38.7530   27.9610   41.4280 C   0  0  0  0  0  0  0  0  0  0  0  0
   37.8560   29.6150   44.1650 H   0  0  0  0  0  0  0  0  0  0  0  0
   36.2130   27.7090   44.2830 H   0  0  0  0  0  0  0  0  0  0  0  0
   36.2520   26.0060   42.5290 H   0  0  0  0  0  0  0  0  0  0  0  0
   37.8380   26.1210   40.7030 H   0  0  0  0  0  0  0  0  0  0  0  0
   39.4140   27.9280   40.5880 H   0  0  0  0  0  0  0  0  0  0  0  0
   38.0420   31.4140   41.0650 C   0  0  0  0  0  0  0  0  0  0  0  0
   37.7870   32.4880   41.2840 H   0  0  0  0  0  0  0  0  0  0  0  0
   37.2770   30.8490   41.6760 H   0  0  0  0  0  0  0  0  0  0  0  0
   37.7600   31.1250   39.6630 C   0  0  0  0  0  0  0  0  0  0  0  0
   38.4440   31.5030   38.5520 C   0  0  0  0  0  0  0  0  0  0  0  0
   39.3410   32.1080   38.7700 H   0  0  0  0  0  0  0  0  0  0  0  0
   38.1390   31.2150   37.2480 C   0  0  0  0  0  3  0  0  0  0  0  0
   37.0030   30.4520   37.0350 C   0  0  0  0  0  3  0  0  0  0  0  0
   36.2640   30.0370   38.1340 C   0  0  0  0  0  0  0  0  0  0  0  0
   35.1480   29.2810   37.7920 C   0  0  0  0  0  3  0  0  0  0  0  0
   34.3320   28.8100   38.8040 C   0  0  0  0  0  3  0  0  0  0  0  0
   34.6990   29.1370   40.0930 C   0  0  0  0  0  3  0  0  0  0  0  0
   35.8050   29.8880   40.4390 C   0  0  0  0  0  3  0  0  0  0  0  0
   36.6170   30.3540   39.4240 C   0  0  0  0  0  0  0  0  0  0  0  0
  1  2  2  0  0  0  0
  1  6  1  0  0  0  0
  2  3  1  0  0  0  0
  3  9  1  0  0  0  0
  3  4  2  0  0  0  0
  5  4  1  0  0  0  0
  5  8  1  0  0  0  0
  6  5  2  0  0  0  0
  7  1  1  0  0  0  0
  9 10  1  0  0  0  0
 10 11  2  0  0  0  0
 10 15  1  0  0  0  0
 11 16  1  0  0  0  0
 12 17  1  0  0  0  0
 12 11  1  0  0  0  0
 13 12  2  0  0  0  0
 14 13  1  0  0  0  0
 14  9  2  0  0  0  0
 18 13  1  0  0  0  0
 19 14  1  0  0  0  0
 20 21  1  0  0  0  0
 20  2  1  0  0  0  0
 20 22  1  0  0  0  0
 23 20  1  0  0  0  0
 24 25  1  0  0  0  0
 24 23  2  0  0  0  0
 26 24  1  0  0  0  0
 27 26  2  0  0  0  0
 27 28  1  0  0  0  0
 28 33  1  0  0  0  0
 29 28  2  0  0  0  0
 29 30  1  0  0  0  0
 30 31  2  0  0  0  0
 31 32  1  0  0  0  0
 33 23  1  0  0  0  0
 33 32  2  0  0  0  0
M  END
>  <minimizedAffinity>
-6.15614223

$$$$

 OpenBabel03252501573D

 33 36  0  0  0  0  0  0  0  0999 V2000
   38.6450   31.6980   38.9720 C   0  0  0  0  0  0  0  0  0  0  0  0
   38.4860   30.5720   39.7990 C   0  0  0  0  0  0  0  0  0  0  0  0
   38.8150   30.7420   41.1450 C   0  0  0  0  0  0  0  0  0  0  0  0
   39.2620   31.9620   41.5870 N   0  0  0  0  0  0  0  0  0  0  0  0
   39.3900   33.0010   40.7420 C   0  0  0  0  0  0  0  0  0  0  0  0
   39.0880   32.8950   39.4290 N   0  0  0  0  0  0  0  0  0  0  0  0
   38.4010   31.6110   37.9130 H   0  0  0  0  0  0  0  0  0  0  0  0
   39.7340   33.9780   41.0280 H   0  0  0  0  0  0  0  0  0  0  0  0
   38.6550   29.6090   42.0360 C   0  0  0  0  0  0  0  0  0  0  0  0
   37.5780   29.2440   42.7920 C   0  0  0  0  0  0  0  0  0  0  0  0
   37.6000   28.1290   43.5930 C   0  0  0  0  0  0  0  0  0  0  0  0
   38.7350   27.3620   43.6340 C   0  0  0  0  0  0  0  0  0  0  0  0
   39.8430   27.6910   42.8910 C   0  0  0  0  0  0  0  0  0  0  0  0
   39.8030   28.8240   42.0850 C   0  0  0  0  0  0  0  0  0  0  0  0
   36.7180   29.8870   42.7040 H   0  0  0  0  0  0  0  0  0  0  0  0
   36.7520   27.8470   44.1830 H   0  0  0  0  0  0  0  0  0  0  0  0
   38.7760   26.4770   44.2580 H   0  0  0  0  0  0  0  0  0  0  0  0
   40.7310   27.0520   42.9500 H   0  0  0  0  0  0  0  0  0  0  0  0
   40.7110   28.9990   41.5460 H   0  0  0  0  0  0  0  0  0  0  0  0
   38.0030   29.3370   39.2120 C   0  0  0  0  0  0  0  0  0  0  0  0
   38.3400   28.4660   39.8400 H   0  0  0  0  0  0  0  0  0  0  0  0
   38.5240   29.1480   38.2280 H   0  0  0  0  0  0  0  0  0  0  0  0
   36.5700   29.2270   38.9620 C   0  0  0  0  0  0  0  0  0  0  0  0
   35.5430   29.1740   39.8480 C   0  0  0  0  0  0  0  0  0  0  0  0
   35.8650   29.2310   40.9020 H   0  0  0  0  0  0  0  0  0  0  0  0
   34.2060   29.0620   39.5680 C   0  0  0  0  0  3  0  0  0  0  0  0
   33.8600   28.9970   38.2290 C   0  0  0  0  0  3  0  0  0  0  0  0
   34.8710   29.0460   37.2770 C   0  0  0  0  0  0  0  0  0  0  0  0
   34.3980   28.9690   35.9710 C   0  0  0  0  0  3  0  0  0  0  0  0
   35.3130   29.0080   34.9340 C   0  0  0  0  0  3  0  0  0  0  0  0
   36.6410   29.1210   35.2890 C   0  0  0  0  0  3  0  0  0  0  0  0
   37.1160   29.1980   36.5830 C   0  0  0  0  0  3  0  0  0  0  0  0
   36.1980   29.1590   37.6140 C   0  0  0  0  0  0  0  0  0  0  0  0
  1  6  2  0  0  0  0
  1  2  1  0  0  0  0
  2  3  2  0  0  0  0
  3  4  1  0  0  0  0
  3  9  1  0  0  0  0
  5  8  1  0  0  0  0
  5  4  2  0  0  0  0
  6  5  1  0  0  0  0
  7  1  1  0  0  0  0
  9 14  2  0  0  0  0
  9 10  1  0  0  0  0
 10 11  2  0  0  0  0
 11 12  1  0  0  0  0
 11 16  1  0  0  0  0
 12 17  1  0  0  0  0
 13 18  1  0  0  0  0
 13 12  2  0  0  0  0
 14 13  1  0  0  0  0
 15 10  1  0  0  0  0
 19 14  1  0  0  0  0
 20  2  1  0  0  0  0
 20 21  1  0  0  0  0
 22 20  1  0  0  0  0
 23 20  1  0  0  0  0
 23 24  1  0  0  0  0
 24 25  1  0  0  0  0
 26 24  2  0  0  0  0
 27 26  1  0  0  0  0
 28 33  1  0  0  0  0
 28 27  2  0  0  0  0
 29 28  1  0  0  0  0
 30 31  1  0  0  0  0
 30 29  2  0  0  0  0
 31 32  2  0  0  0  0
 32 33  1  0  0  0  0
 33 23  2  0  0  0  0
M  END
>  <minimizedAffinity>
-5.98455

$$$$

 OpenBabel03252501573D

 33 36  0  0  0  0  0  0  0  0999 V2000
   37.0830   26.1890   42.5100 C   0  0  0  0  0  0  0  0  0  0  0  0
   36.8770   27.2070   41.5630 C   0  0  0  0  0  0  0  0  0  0  0  0
   36.7450   26.8000   40.2350 C   0  0  0  0  0  0  0  0  0  0  0  0
   36.8170   25.4660   39.9220 N   0  0  0  0  0  0  0  0  0  0  0  0
   37.0150   24.5400   40.8790 C   0  0  0  0  0  0  0  0  0  0  0  0
   37.1520   24.8750   42.1810 N   0  0  0  0  0  0  0  0  0  0  0  0
   37.1930   26.4610   43.5590 H   0  0  0  0  0  0  0  0  0  0  0  0
   37.0810   23.4820   40.6970 H   0  0  0  0  0  0  0  0  0  0  0  0
   36.5200   27.8170   39.2260 C   0  0  0  0  0  0  0  0  0  0  0  0
   35.3520   28.4040   38.8310 C   0  0  0  0  0  0  0  0  0  0  0  0
   35.3200   29.3600   37.8450 C   0  0  0  0  0  0  0  0  0  0  0  0
   36.4920   29.7360   37.2440 C   0  0  0  0  0  0  0  0  0  0  0  0
   37.6910   29.1730   37.6100 C   0  0  0  0  0  0  0  0  0  0  0  0
   37.7060   28.2050   38.6100 C   0  0  0  0  0  0  0  0  0  0  0  0
   34.4710   28.0680   39.3520 H   0  0  0  0  0  0  0  0  0  0  0  0
   34.4010   29.8170   37.5390 H   0  0  0  0  0  0  0  0  0  0  0  0
   36.4920   30.4880   36.4640 H   0  0  0  0  0  0  0  0  0  0  0  0
   38.6070   29.5000   37.1060 H   0  0  0  0  0  0  0  0  0  0  0  0
   38.6820   27.8250   38.8250 H   0  0  0  0  0  0  0  0  0  0  0  0
   36.8190   28.5830   42.0190 C   0  0  0  0  0  0  0  0  0  0  0  0
   36.3380   28.6220   43.0360 H   0  0  0  0  0  0  0  0  0  0  0  0
   36.0940   29.1700   41.3810 H   0  0  0  0  0  0  0  0  0  0  0  0
   38.0680   29.3370   42.0440 C   0  0  0  0  0  0  0  0  0  0  0  0
   39.2570   29.0120   42.6120 C   0  0  0  0  0  0  0  0  0  0  0  0
   39.2540   28.0280   43.1130 H   0  0  0  0  0  0  0  0  0  0  0  0
   40.4080   29.7560   42.6190 C   0  0  0  0  0  3  0  0  0  0  0  0
   40.3540   30.9800   41.9740 C   0  0  0  0  0  3  0  0  0  0  0  0
   39.1620   31.3650   41.3750 C   0  0  0  0  0  0  0  0  0  0  0  0
   39.2330   32.6120   40.7630 C   0  0  0  0  0  3  0  0  0  0  0  0
   38.1050   33.1040   40.1320 C   0  0  0  0  0  3  0  0  0  0  0  0
   36.9830   32.3030   40.1640 C   0  0  0  0  0  3  0  0  0  0  0  0
   36.9060   31.0640   40.7700 C   0  0  0  0  0  3  0  0  0  0  0  0
   38.0360   30.5780   41.3980 C   0  0  0  0  0  0  0  0  0  0  0  0
  1  7  1  0  0  0  0
  2 20  1  0  0  0  0
  2  1  2  0  0  0  0
  3  2  1  0  0  0  0
  4  3  2  0  0  0  0
  4  5  1  0  0  0  0
  5  6  2  0  0  0  0
  6  1  1  0  0  0  0
  8  5  1  0  0  0  0
  9  3  1  0  0  0  0
 10  9  1  0  0  0  0
 10 15  1  0  0  0  0
 11 10  2  0  0  0  0
 12 13  2  0  0  0  0
 12 11  1  0  0  0  0
 13 14  1  0  0  0  0
 14 19  1  0  0  0  0
 14  9  2  0  0  0  0
 16 11  1  0  0  0  0
 17 12  1  0  0  0  0
 18 13  1  0  0  0  0
 20 23  1  0  0  0  0
 20 21  1  0  0  0  0
 22 20  1  0  0  0  0
 23 24  1  0  0  0  0
 24 26  2  0  0  0  0
 24 25  1  0  0  0  0
 27 26  1  0  0  0  0
 28 33  1  0  0  0  0
 28 27  2  0  0  0  0
 29 28  1  0  0  0  0
 30 31  1  0  0  0  0
 30 29  2  0  0  0  0
 31 32  2  0  0  0  0
 32 33  1  0  0  0  0
 33 23  2  0  0  0  0
M  END
>  <minimizedAffinity>
-5.91272736

$$$$

 OpenBabel03252501573D

 33 36  0  0  0  0  0  0  0  0999 V2000
   34.9930   28.4970   36.9200 C   0  0  0  0  0  0  0  0  0  0  0  0
   35.7580   29.0220   37.9760 C   0  0  0  0  0  0  0  0  0  0  0  0
   36.7620   29.9240   37.6230 C   0  0  0  0  0  0  0  0  0  0  0  0
   36.9500   30.2520   36.3040 N   0  0  0  0  0  0  0  0  0  0  0  0
   36.1800   29.7140   35.3410 C   0  0  0  0  0  0  0  0  0  0  0  0
   35.1940   28.8340   35.6210 N   0  0  0  0  0  0  0  0  0  0  0  0
   34.1980   27.7880   37.1480 H   0  0  0  0  0  0  0  0  0  0  0  0
   36.2790   29.9300   34.2920 H   0  0  0  0  0  0  0  0  0  0  0  0
   37.5690   30.4980   38.6830 C   0  0  0  0  0  0  0  0  0  0  0  0
   38.7890   30.1070   39.1550 C   0  0  0  0  0  0  0  0  0  0  0  0
   39.4150   30.7710   40.1810 C   0  0  0  0  0  0  0  0  0  0  0  0
   38.7990   31.8550   40.7460 C   0  0  0  0  0  0  0  0  0  0  0  0
   37.5710   32.2860   40.3040 C   0  0  0  0  0  0  0  0  0  0  0  0
   36.9500   31.6020   39.2640 C   0  0  0  0  0  0  0  0  0  0  0  0
   39.2190   29.2530   38.6590 H   0  0  0  0  0  0  0  0  0  0  0  0
   40.3720   30.4590   40.5470 H   0  0  0  0  0  0  0  0  0  0  0  0
   39.2730   32.3960   41.5570 H   0  0  0  0  0  0  0  0  0  0  0  0
   37.1090   33.1580   40.7810 H   0  0  0  0  0  0  0  0  0  0  0  0
   35.9990   32.0080   38.9900 H   0  0  0  0  0  0  0  0  0  0  0  0
   35.4600   28.5980   39.3310 C   0  0  0  0  0  0  0  0  0  0  0  0
   34.3560   28.4070   39.4310 H   0  0  0  0  0  0  0  0  0  0  0  0
   35.6290   29.4550   40.0490 H   0  0  0  0  0  0  0  0  0  0  0  0
   36.1990   27.4540   39.8550 C   0  0  0  0  0  0  0  0  0  0  0  0
   36.3870   26.2260   39.3070 C   0  0  0  0  0  0  0  0  0  0  0  0
   35.9080   26.1050   38.3200 H   0  0  0  0  0  0  0  0  0  0  0  0
   37.0840   25.1740   39.8390 C   0  0  0  0  0  3  0  0  0  0  0  0
   37.6650   25.3840   41.0790 C   0  0  0  0  0  3  0  0  0  0  0  0
   37.5050   26.6210   41.6870 C   0  0  0  0  0  0  0  0  0  0  0  0
   38.1310   26.7080   42.9270 C   0  0  0  0  0  3  0  0  0  0  0  0
   38.0410   27.8940   43.6310 C   0  0  0  0  0  3  0  0  0  0  0  0
   37.3240   28.9110   43.0360 C   0  0  0  0  0  3  0  0  0  0  0  0
   36.7010   28.8310   41.8060 C   0  0  0  0  0  3  0  0  0  0  0  0
   36.7950   27.6440   41.1070 C   0  0  0  0  0  0  0  0  0  0  0  0
  1  7  1  0  0  0  0
  1  2  1  0  0  0  0
  2 20  1  0  0  0  0
  3  2  2  0  0  0  0
  3  9  1  0  0  0  0
  4  3  1  0  0  0  0
  5  6  1  0  0  0  0
  5  4  2  0  0  0  0
  6  1  2  0  0  0  0
  8  5  1  0  0  0  0
  9 10  2  0  0  0  0
  9 14  1  0  0  0  0
 10 11  1  0  0  0  0
 11 16  1  0  0  0  0
 11 12  2  0  0  0  0
 12 17  1  0  0  0  0
 13 12  1  0  0  0  0
 13 18  1  0  0  0  0
 14 13  2  0  0  0  0
 15 10  1  0  0  0  0
 19 14  1  0  0  0  0
 20 21  1  0  0  0  0
 20 23  1  0  0  0  0
 20 22  1  0  0  0  0
 23 33  1  0  0  0  0
 24 26  1  0  0  0  0
 24 23  2  0  0  0  0
 25 24  1  0  0  0  0
 26 27  2  0  0  0  0
 27 28  1  0  0  0  0
 28 29  1  0  0  0  0
 29 30  2  0  0  0  0
 31 30  1  0  0  0  0
 32 31  2  0  0  0  0
 33 28  2  0  0  0  0
 33 32  1  0  0  0  0
M  END
>  <minimizedAffinity>
-5.85194349

$$$$

 OpenBabel03252501573D

 33 36  0  0  0  0  0  0  0  0999 V2000
   35.2760   26.4700   37.0550 C   0  0  0  0  0  0  0  0  0  0  0  0
   35.8670   27.4000   37.9270 C   0  0  0  0  0  0  0  0  0  0  0  0
   35.1420   28.5680   38.1690 C   0  0  0  0  0  0  0  0  0  0  0  0
   33.9220   28.7490   37.5670 N   0  0  0  0  0  0  0  0  0  0  0  0
   33.4120   27.8160   36.7420 C   0  0  0  0  0  0  0  0  0  0  0  0
   34.0680   26.6670   36.4690 N   0  0  0  0  0  0  0  0  0  0  0  0
   35.8060   25.5430   36.8360 H   0  0  0  0  0  0  0  0  0  0  0  0
   32.4640   27.9010   36.2410 H   0  0  0  0  0  0  0  0  0  0  0  0
   35.7100   29.5510   39.0720 C   0  0  0  0  0  0  0  0  0  0  0  0
   35.5110   29.7150   40.4120 C   0  0  0  0  0  0  0  0  0  0  0  0
   36.1350   30.7140   41.1200 C   0  0  0  0  0  0  0  0  0  0  0  0
   36.9800   31.5670   40.4610 C   0  0  0  0  0  0  0  0  0  0  0  0
   37.2110   31.4400   39.1120 C   0  0  0  0  0  0  0  0  0  0  0  0
   36.5700   30.4230   38.4110 C   0  0  0  0  0  0  0  0  0  0  0  0
   34.8430   29.0030   40.8670 H   0  0  0  0  0  0  0  0  0  0  0  0
   35.9760   30.8380   42.1720 H   0  0  0  0  0  0  0  0  0  0  0  0
   37.4840   32.3620   40.9970 H   0  0  0  0  0  0  0  0  0  0  0  0
   37.8930   32.1420   38.6210 H   0  0  0  0  0  0  0  0  0  0  0  0
   36.8100   30.4030   37.3690 H   0  0  0  0  0  0  0  0  0  0  0  0
   37.1620   27.0930   38.5030 C   0  0  0  0  0  0  0  0  0  0  0  0
   37.7410   28.0450   38.6560 H   0  0  0  0  0  0  0  0  0  0  0  0
   37.7960   26.5360   37.7520 H   0  0  0  0  0  0  0  0  0  0  0  0
   37.1810   26.3120   39.7350 C   0  0  0  0  0  0  0  0  0  0  0  0
   36.5760   25.1290   40.0140 C   0  0  0  0  0  0  0  0  0  0  0  0
   36.0000   24.7160   39.1670 H   0  0  0  0  0  0  0  0  0  0  0  0
   36.6130   24.4300   41.1920 C   0  0  0  0  0  3  0  0  0  0  0  0
   37.3520   24.9940   42.2190 C   0  0  0  0  0  3  0  0  0  0  0  0
   37.9920   26.2050   41.9910 C   0  0  0  0  0  0  0  0  0  0  0  0
   38.6980   26.6690   43.0960 C   0  0  0  0  0  3  0  0  0  0  0  0
   39.3780   27.8690   42.9900 C   0  0  0  0  0  3  0  0  0  0  0  0
   39.2980   28.5170   41.7760 C   0  0  0  0  0  3  0  0  0  0  0  0
   38.5980   28.0620   40.6750 C   0  0  0  0  0  3  0  0  0  0  0  0
   37.9220   26.8630   40.7870 C   0  0  0  0  0  0  0  0  0  0  0  0
  1  2  1  0  0  0  0
  2  3  2  0  0  0  0
  2 20  1  0  0  0  0
  3  9  1  0  0  0  0
  4  3  1  0  0  0  0
  5  4  2  0  0  0  0
  6  5  1  0  0  0  0
  6  1  2  0  0  0  0
  7  1  1  0  0  0  0
  8  5  1  0  0  0  0
  9 10  1  0  0  0  0
 10 15  1  0  0  0  0
 10 11  2  0  0  0  0
 11 16  1  0  0  0  0
 12 17  1  0  0  0  0
 12 11  1  0  0  0  0
 13 12  2  0  0  0  0
 14  9  2  0  0  0  0
 14 13  1  0  0  0  0
 18 13  1  0  0  0  0
 19 14  1  0  0  0  0
 20 21  1  0  0  0  0
 20 23  1  0  0  0  0
 22 20  1  0  0  0  0
 23 24  2  0  0  0  0
 23 33  1  0  0  0  0
 24 26  1  0  0  0  0
 25 24  1  0  0  0  0
 26 27  2  0  0  0  0
 28 27  1  0  0  0  0
 28 29  1  0  0  0  0
 30 29  2  0  0  0  0
 31 30  1  0  0  0  0
 32 33  1  0  0  0  0
 32 31  2  0  0  0  0
 33 28  2  0  0  0  0
M  END
>  <minimizedAffinity>
-5.83534956

$$$$

 OpenBabel03252501573D

 33 36  0  0  0  0  0  0  0  0999 V2000
   36.6360   24.4080   39.1450 C   0  0  0  0  0  0  0  0  0  0  0  0
   36.7690   25.5550   39.9460 C   0  0  0  0  0  0  0  0  0  0  0  0
   37.4440   25.3900   41.1560 C   0  0  0  0  0  0  0  0  0  0  0  0
   37.9340   24.1550   41.4980 N   0  0  0  0  0  0  0  0  0  0  0  0
   37.7730   23.0960   40.6830 C   0  0  0  0  0  0  0  0  0  0  0  0
   37.1280   23.1960   39.5000 N   0  0  0  0  0  0  0  0  0  0  0  0
   36.1150   24.4910   38.1910 H   0  0  0  0  0  0  0  0  0  0  0  0
   38.1340   22.1050   40.8960 H   0  0  0  0  0  0  0  0  0  0  0  0
   37.6140   26.5500   42.0090 C   0  0  0  0  0  0  0  0  0  0  0  0
   36.7740   27.0610   42.9570 C   0  0  0  0  0  0  0  0  0  0  0  0
   37.0950   28.1860   43.6780 C   0  0  0  0  0  0  0  0  0  0  0  0
   38.2910   28.8100   43.4400 C   0  0  0  0  0  0  0  0  0  0  0  0
   39.1670   28.3310   42.4960 C   0  0  0  0  0  0  0  0  0  0  0  0
   38.8260   27.1920   41.7740 C   0  0  0  0  0  0  0  0  0  0  0  0
   35.8560   26.5150   43.0990 H   0  0  0  0  0  0  0  0  0  0  0  0
   36.4330   28.5820   44.4210 H   0  0  0  0  0  0  0  0  0  0  0  0
   38.5670   29.6980   43.9960 H   0  0  0  0  0  0  0  0  0  0  0  0
   40.1140   28.8580   42.3340 H   0  0  0  0  0  0  0  0  0  0  0  0
   39.5690   26.8960   41.0620 H   0  0  0  0  0  0  0  0  0  0  0  0
   36.2080   26.8070   39.4730 C   0  0  0  0  0  0  0  0  0  0  0  0
   35.6580   27.3140   40.3140 H   0  0  0  0  0  0  0  0  0  0  0  0
   35.3840   26.6030   38.7270 H   0  0  0  0  0  0  0  0  0  0  0  0
   37.1200   27.7580   38.8470 C   0  0  0  0  0  0  0  0  0  0  0  0
   38.0450   27.5520   37.8750 C   0  0  0  0  0  0  0  0  0  0  0  0
   38.0870   26.5080   37.5190 H   0  0  0  0  0  0  0  0  0  0  0  0
   38.8900   28.4760   37.3190 C   0  0  0  0  0  3  0  0  0  0  0  0
   38.7910   29.7700   37.8020 C   0  0  0  0  0  3  0  0  0  0  0  0
   37.8620   30.0390   38.7980 C   0  0  0  0  0  0  0  0  0  0  0  0
   37.8600   31.3710   39.2000 C   0  0  0  0  0  3  0  0  0  0  0  0
   36.9750   31.7610   40.1900 C   0  0  0  0  0  3  0  0  0  0  0  0
   36.1550   30.7790   40.7040 C   0  0  0  0  0  3  0  0  0  0  0  0
   36.1520   29.4560   40.3090 C   0  0  0  0  0  3  0  0  0  0  0  0
   37.0370   29.0730   39.3200 C   0  0  0  0  0  0  0  0  0  0  0  0
  1  6  2  0  0  0  0
  1  2  1  0  0  0  0
  2  3  2  0  0  0  0
  3  4  1  0  0  0  0
  3  9  1  0  0  0  0
  5  8  1  0  0  0  0
  5  4  2  0  0  0  0
  6  5  1  0  0  0  0
  7  1  1  0  0  0  0
  9 10  1  0  0  0  0
 10 15  1  0  0  0  0
 10 11  2  0  0  0  0
 11 16  1  0  0  0  0
 12 11  1  0  0  0  0
 12 17  1  0  0  0  0
 13 12  2  0  0  0  0
 14  9  2  0  0  0  0
 14 13  1  0  0  0  0
 18 13  1  0  0  0  0
 19 14  1  0  0  0  0
 20  2  1  0  0  0  0
 20 21  1  0  0  0  0
 22 20  1  0  0  0  0
 23 33  1  0  0  0  0
 23 20  1  0  0  0  0
 24 23  2  0  0  0  0
 25 24  1  0  0  0  0
 26 27  2  0  0  0  0
 26 24  1  0  0  0  0
 27 28  1  0  0  0  0
 28 29  2  0  0  0  0
 28 33  1  0  0  0  0
 29 30  1  0  0  0  0
 30 31  2  0  0  0  0
 32 31  1  0  0  0  0
 33 32  2  0  0  0  0
M  END
>  <minimizedAffinity>
-5.73103952

$$$$

 OpenBabel03252501573D

 33 36  0  0  0  0  0  0  0  0999 V2000
   35.3630   27.7100   37.9170 C   0  0  0  0  0  0  0  0  0  0  0  0
   36.1950   27.8030   39.0470 C   0  0  0  0  0  0  0  0  0  0  0  0
   35.7410   28.6190   40.0840 C   0  0  0  0  0  0  0  0  0  0  0  0
   34.5400   29.2720   39.9600 N   0  0  0  0  0  0  0  0  0  0  0  0
   33.7910   29.1390   38.8510 C   0  0  0  0  0  0  0  0  0  0  0  0
   34.1790   28.3640   37.8140 N   0  0  0  0  0  0  0  0  0  0  0  0
   35.6780   27.0850   37.0820 H   0  0  0  0  0  0  0  0  0  0  0  0
   32.8440   29.6250   38.6950 H   0  0  0  0  0  0  0  0  0  0  0  0
   36.5630   28.7340   41.2740 C   0  0  0  0  0  0  0  0  0  0  0  0
   37.5880   29.5950   41.5400 C   0  0  0  0  0  0  0  0  0  0  0  0
   38.2700   29.5620   42.7330 C   0  0  0  0  0  0  0  0  0  0  0  0
   37.9090   28.6400   43.6800 C   0  0  0  0  0  0  0  0  0  0  0  0
   36.8830   27.7540   43.4550 C   0  0  0  0  0  0  0  0  0  0  0  0
   36.2030   27.8010   42.2420 C   0  0  0  0  0  0  0  0  0  0  0  0
   37.8120   30.2980   40.7560 H   0  0  0  0  0  0  0  0  0  0  0  0
   39.0730   30.2390   42.9360 H   0  0  0  0  0  0  0  0  0  0  0  0
   38.4310   28.5950   44.6280 H   0  0  0  0  0  0  0  0  0  0  0  0
   36.6240   27.0320   44.2370 H   0  0  0  0  0  0  0  0  0  0  0  0
   35.4230   27.0730   42.1580 H   0  0  0  0  0  0  0  0  0  0  0  0
   37.4410   27.0610   39.0590 C   0  0  0  0  0  0  0  0  0  0  0  0
   38.2840   27.7470   39.3540 H   0  0  0  0  0  0  0  0  0  0  0  0
   37.7230   26.7630   38.0060 H   0  0  0  0  0  0  0  0  0  0  0  0
   37.4960   25.8510   39.8720 C   0  0  0  0  0  0  0  0  0  0  0  0
   36.6300   24.8060   39.9190 C   0  0  0  0  0  0  0  0  0  0  0  0
   35.7750   24.9090   39.2270 H   0  0  0  0  0  0  0  0  0  0  0  0
   36.7150   23.6880   40.7060 C   0  0  0  0  0  3  0  0  0  0  0  0
   37.8080   23.6120   41.5520 C   0  0  0  0  0  3  0  0  0  0  0  0
   38.7270   24.6530   41.5470 C   0  0  0  0  0  0  0  0  0  0  0  0
   39.7770   24.4620   42.4390 C   0  0  0  0  0  3  0  0  0  0  0  0
   40.7570   25.4340   42.5240 C   0  0  0  0  0  3  0  0  0  0  0  0
   40.6080   26.5320   41.7030 C   0  0  0  0  0  3  0  0  0  0  0  0
   39.5680   26.7270   40.8150 C   0  0  0  0  0  3  0  0  0  0  0  0
   38.5930   25.7530   40.7340 C   0  0  0  0  0  0  0  0  0  0  0  0
  1  2  1  0  0  0  0
  2 20  1  0  0  0  0
  2  3  2  0  0  0  0
  3  9  1  0  0  0  0
  4  3  1  0  0  0  0
  5  4  2  0  0  0  0
  6  1  2  0  0  0  0
  6  5  1  0  0  0  0
  7  1  1  0  0  0  0
  8  5  1  0  0  0  0
  9 10  2  0  0  0  0
  9 14  1  0  0  0  0
 10 11  1  0  0  0  0
 11 16  1  0  0  0  0
 11 12  2  0  0  0  0
 12 17  1  0  0  0  0
 13 12  1  0  0  0  0
 13 18  1  0  0  0  0
 14 13  2  0  0  0  0
 15 10  1  0  0  0  0
 19 14  1  0  0  0  0
 20 21  1  0  0  0  0
 20 23  1  0  0  0  0
 22 20  1  0  0  0  0
 23 24  2  0  0  0  0
 23 33  1  0  0  0  0
 24 26  1  0  0  0  0
 25 24  1  0  0  0  0
 26 27  2  0  0  0  0
 28 27  1  0  0  0  0
 28 29  1  0  0  0  0
 29 30  2  0  0  0  0
 31 30  1  0  0  0  0
 32 31  2  0  0  0  0
 33 32  1  0  0  0  0
 33 28  2  0  0  0  0
M  END
>  <minimizedAffinity>
-5.68307304

$$$$
