
 OpenBabel03252503133D

 36 40  0  0  0  0  0  0  0  0999 V2000
   47.7360   33.8020   42.6490 C   0  0  0  0  0  0  0  0  0  0  0  0
   48.8510   33.9700   43.2210 O   0  0  0  0  0  0  0  0  0  0  0  0
   46.2020   35.7170   42.7170 C   0  0  0  0  0  0  0  0  0  0  0  0
   46.6300   34.4780   43.2370 C   0  0  0  0  0  0  0  0  0  0  0  0
   45.9020   34.0150   44.3160 C   0  0  0  0  0  0  0  0  0  0  0  0
   44.8580   34.6970   44.8320 N   0  0  0  0  0  0  0  0  0  0  0  0
   44.4800   35.8850   44.3010 C   0  0  0  0  0  0  0  0  0  0  0  0
   45.1520   36.3900   43.2460 N   0  0  0  0  0  0  0  0  0  0  0  0
   46.7180   36.1620   41.8640 H   0  0  0  0  0  0  0  0  0  0  0  0
   43.6450   36.4290   44.7130 H   0  0  0  0  0  0  0  0  0  0  0  0
   46.2660   32.7910   44.8990 C   0  0  0  0  0  0  0  0  0  0  0  0
   47.0140   32.4250   45.9790 C   0  0  0  0  0  0  0  0  0  0  0  0
   47.2190   31.1740   46.3470 C   0  0  0  0  0  0  0  0  0  0  0  0
   46.6230   30.2230   45.5680 C   0  0  0  0  0  0  0  0  0  0  0  0
   45.7490   31.2090   44.2710 S   0  0  0  0  0  0  0  0  0  0  0  0
   47.4500   33.2780   46.5390 H   0  0  0  0  0  0  0  0  0  0  0  0
   47.7960   30.8170   47.1860 H   0  0  0  0  0  0  0  0  0  0  0  0
   46.6210   29.1120   45.6360 H   0  0  0  0  0  0  0  0  0  0  0  0
   47.5350   32.9610   41.4330 C   0  0  0  0  0  0  0  0  0  0  0  0
   48.0010   31.6920   41.2170 C   0  0  0  0  0  0  0  0  0  0  0  0
   47.5750   31.3490   39.9920 N   0  0  0  0  0  0  0  0  0  0  0  0
   46.8670   32.3700   39.4560 C   0  0  0  0  0  0  0  0  0  0  0  0
   46.8590   33.3390   40.3570 N   0  0  0  0  0  0  0  0  0  0  0  0
   48.5790   31.1870   41.9640 H   0  0  0  0  0  0  0  0  0  0  0  0
   47.8350   30.4100   39.6520 H   0  0  0  0  0  0  0  0  0  0  0  0
   46.3220   32.1750   38.1200 C   0  0  0  0  0  0  0  0  0  0  0  0
   47.0410   32.4630   36.9820 C   0  0  0  0  0  0  0  0  0  0  0  0
   48.0510   32.8500   37.0180 H   0  0  0  0  0  0  0  0  0  0  0  0
   46.5740   32.2960   35.6970 C   0  0  0  0  0  3  0  0  0  0  0  0
   45.3060   31.8130   35.4940 C   0  0  0  0  0  3  0  0  0  0  0  0
   44.5410   31.5070   36.5840 C   0  0  0  0  0  0  0  0  0  0  0  0
   43.2670   31.0210   36.3740 C   0  0  0  0  0  3  0  0  0  0  0  0
   42.4490   30.6960   37.4260 C   0  0  0  0  0  3  0  0  0  0  0  0
   42.9400   30.8710   38.7230 C   0  0  0  0  0  3  0  0  0  0  0  0
   44.2190   31.3610   38.8630 C   0  0  0  0  0  3  0  0  0  0  0  0
   45.0650   31.6950   37.8360 C   0  0  0  0  0  0  0  0  0  0  0  0
  1  2  2  0  0  0  0
  1  4  1  0  0  0  0
  3  4  2  0  0  0  0
  3  8  1  0  0  0  0
  4  5  1  0  0  0  0
  5  6  2  0  0  0  0
  5 11  1  0  0  0  0
  7 10  1  0  0  0  0
  7  6  1  0  0  0  0
  8  7  2  0  0  0  0
  9  3  1  0  0  0  0
 11 12  2  0  0  0  0
 12 13  1  0  0  0  0
 12 16  1  0  0  0  0
 13 17  1  0  0  0  0
 14 18  1  0  0  0  0
 14 13  2  0  0  0  0
 15 11  1  0  0  0  0
 15 14  1  0  0  0  0
 19  1  1  0  0  0  0
 20 19  2  0  0  0  0
 20 24  1  0  0  0  0
 21 20  1  0  0  0  0
 22 21  1  0  0  0  0
 22 23  2  0  0  0  0
 23 19  1  0  0  0  0
 25 21  1  0  0  0  0
 26 22  1  0  0  0  0
 27 28  1  0  0  0  0
 27 26  2  0  0  0  0
 29 27  1  0  0  0  0
 30 29  2  0  0  0  0
 30 31  1  0  0  0  0
 31 36  1  0  0  0  0
 32 31  2  0  0  0  0
 32 33  1  0  0  0  0
 33 34  2  0  0  0  0
 34 35  1  0  0  0  0
 36 26  1  0  0  0  0
 36 35  2  0  0  0  0
M  END
>  <minimizedAffinity>
-4.84971666

>  <minimizedRMSD>
2.49793196

$$$$
