
 OpenBabel03252503133D

 36 40  0  0  0  0  0  0  0  0999 V2000
   46.3470   34.7140   41.8350 C   0  0  0  0  0  0  0  0  0  0  0  0
   47.5770   34.9920   41.7400 O   0  0  0  0  0  0  0  0  0  0  0  0
   45.1540   36.0680   43.4980 C   0  0  0  0  0  0  0  0  0  0  0  0
   45.7780   34.8580   43.1320 C   0  0  0  0  0  0  0  0  0  0  0  0
   45.7770   33.8820   44.1090 C   0  0  0  0  0  0  0  0  0  0  0  0
   45.2180   34.0720   45.3230 N   0  0  0  0  0  0  0  0  0  0  0  0
   44.6280   35.2520   45.6330 C   0  0  0  0  0  0  0  0  0  0  0  0
   44.5980   36.2450   44.7210 N   0  0  0  0  0  0  0  0  0  0  0  0
   45.1070   36.8980   42.7900 H   0  0  0  0  0  0  0  0  0  0  0  0
   44.1820   35.4030   46.6030 H   0  0  0  0  0  0  0  0  0  0  0  0
   46.3840   32.6470   43.8290 C   0  0  0  0  0  0  0  0  0  0  0  0
   47.6420   32.1400   43.9690 C   0  0  0  0  0  0  0  0  0  0  0  0
   47.9860   30.9120   43.6300 C   0  0  0  0  0  0  0  0  0  0  0  0
   46.9860   30.1390   43.1120 C   0  0  0  0  0  0  0  0  0  0  0  0
   45.5160   31.2590   43.1320 S   0  0  0  0  0  0  0  0  0  0  0  0
   48.3740   32.8550   44.3990 H   0  0  0  0  0  0  0  0  0  0  0  0
   48.9580   30.4500   43.7140 H   0  0  0  0  0  0  0  0  0  0  0  0
   46.9840   29.0870   42.7480 H   0  0  0  0  0  0  0  0  0  0  0  0
   45.4990   34.2590   40.6950 C   0  0  0  0  0  0  0  0  0  0  0  0
   44.1660   34.5020   40.5060 C   0  0  0  0  0  0  0  0  0  0  0  0
   43.8430   33.8970   39.3530 N   0  0  0  0  0  0  0  0  0  0  0  0
   44.9380   33.2920   38.8360 C   0  0  0  0  0  0  0  0  0  0  0  0
   45.9320   33.5300   39.6750 N   0  0  0  0  0  0  0  0  0  0  0  0
   43.6080   35.0780   41.2160 H   0  0  0  0  0  0  0  0  0  0  0  0
   42.8620   33.9730   39.0420 H   0  0  0  0  0  0  0  0  0  0  0  0
   44.7760   32.5810   37.5760 C   0  0  0  0  0  0  0  0  0  0  0  0
   45.5600   32.8450   36.4760 C   0  0  0  0  0  0  0  0  0  0  0  0
   46.3390   33.5950   36.4870 H   0  0  0  0  0  0  0  0  0  0  0  0
   45.4480   32.2020   35.2620 C   0  0  0  0  0  3  0  0  0  0  0  0
   44.5010   31.2240   35.0970 C   0  0  0  0  0  3  0  0  0  0  0  0
   43.6900   30.9150   36.1530 C   0  0  0  0  0  0  0  0  0  0  0  0
   42.7400   29.9310   35.9820 C   0  0  0  0  0  3  0  0  0  0  0  0
   41.8950   29.5740   37.0040 C   0  0  0  0  0  3  0  0  0  0  0  0
   42.0230   30.2360   38.2270 C   0  0  0  0  0  3  0  0  0  0  0  0
   42.9920   31.2100   38.3320 C   0  0  0  0  0  3  0  0  0  0  0  0
   43.8530   31.5920   37.3340 C   0  0  0  0  0  0  0  0  0  0  0  0
  1  4  1  0  0  0  0
  2  1  2  0  0  0  0
  3  8  1  0  0  0  0
  4  3  2  0  0  0  0
  4  5  1  0  0  0  0
  5  6  2  0  0  0  0
  6  7  1  0  0  0  0
  7 10  1  0  0  0  0
  8  7  2  0  0  0  0
  9  3  1  0  0  0  0
 11 12  2  0  0  0  0
 11  5  1  0  0  0  0
 12 16  1  0  0  0  0
 13 17  1  0  0  0  0
 13 12  1  0  0  0  0
 14 15  1  0  0  0  0
 14 13  2  0  0  0  0
 15 11  1  0  0  0  0
 18 14  1  0  0  0  0
 19  1  1  0  0  0  0
 20 19  2  0  0  0  0
 20 24  1  0  0  0  0
 21 20  1  0  0  0  0
 22 21  1  0  0  0  0
 22 23  2  0  0  0  0
 23 19  1  0  0  0  0
 25 21  1  0  0  0  0
 26 22  1  0  0  0  0
 27 28  1  0  0  0  0
 27 26  2  0  0  0  0
 29 27  1  0  0  0  0
 30 29  2  0  0  0  0
 30 31  1  0  0  0  0
 31 36  1  0  0  0  0
 32 31  2  0  0  0  0
 32 33  1  0  0  0  0
 33 34  2  0  0  0  0
 34 35  1  0  0  0  0
 36 26  1  0  0  0  0
 36 35  2  0  0  0  0
M  END
>  <minimizedAffinity>
-5.38653612

>  <minimizedRMSD>
0.635878921

$$$$
