
 OpenBabel03242521533D

 38 42  0  0  0  0  0  0  0  0999 V2000
   37.5260   31.7040   40.1720 C   0  0  0  0  0  0  0  0  0  0  0  0
   37.3120   33.0490   39.9520 C   0  0  0  0  0  0  0  0  0  0  0  0
   38.3280   34.0120   40.0340 C   0  0  0  0  0  0  0  0  0  0  0  0
   39.6310   33.6470   40.3440 C   0  0  0  0  0  0  0  0  0  0  0  0
   39.8770   32.3000   40.5770 C   0  0  0  0  0  0  0  0  0  0  0  0
   41.1520   31.9390   40.9340 C   0  0  0  0  0  0  0  0  0  0  0  0
   41.3820   30.5710   41.2520 C   0  0  0  0  0  0  0  0  0  0  0  0
   40.2710   29.6750   41.1890 C   0  0  0  0  0  0  0  0  0  0  0  0
   39.1270   30.1520   40.8350 C   0  0  0  0  0  0  0  0  0  0  0  0
   38.8060   31.4300   40.4830 C   0  0  0  0  0  0  0  0  0  0  0  0
   36.3010   33.3630   39.7070 H   0  0  0  0  0  0  0  0  0  0  0  0
   38.0210   35.0310   39.8410 H   0  0  0  0  0  0  0  0  0  0  0  0
   40.3950   34.3750   40.3980 H   0  0  0  0  0  0  0  0  0  0  0  0
   41.8960   32.7370   40.9450 H   0  0  0  0  0  0  0  0  0  0  0  0
   42.4810   30.5260   41.4920 H   0  0  0  0  0  0  0  0  0  0  0  0
   40.8740   28.8340   41.5220 H   0  0  0  0  0  0  0  0  0  0  0  0
   38.3600   29.0690   41.4520 C   0  0  0  0  0  0  0  0  0  0  0  0
   38.0150   29.3470   42.8200 C   0  0  0  0  0  0  0  0  0  0  0  0
   38.2680   30.3010   43.3210 H   0  0  0  0  0  0  0  0  0  0  0  0
   37.3530   28.4960   43.6790 C   0  0  0  0  0  3  0  0  0  0  0  0
   36.9820   27.2610   43.1930 C   0  0  0  0  0  3  0  0  0  0  0  0
   37.2840   26.9350   41.8910 C   0  0  0  0  0  0  0  0  0  0  0  0
   37.0100   25.7240   41.2960 C   0  0  0  0  0  3  0  0  0  0  0  0
   37.3400   25.3670   40.0060 C   0  0  0  0  0  3  0  0  0  0  0  0
   38.0140   26.3110   39.2210 C   0  0  0  0  0  3  0  0  0  0  0  0
   38.3060   27.5290   39.7690 C   0  0  0  0  0  3  0  0  0  0  0  0
   37.9460   27.8210   41.0750 C   0  0  0  0  0  0  0  0  0  0  0  0
   34.7480   29.2400   39.9440 C   0  0  0  0  0  0  0  0  0  0  0  0
   34.8610   28.8500   38.6000 C   0  0  0  0  0  0  0  0  0  0  0  0
   35.9010   29.4240   37.8610 C   0  0  0  0  0  0  0  0  0  0  0  0
   36.6700   30.2850   38.5240 N   0  0  0  0  0  0  0  0  0  0  0  0
   36.5910   30.6690   39.7760 C   0  0  0  0  0  0  0  0  0  0  0  0
   35.6000   30.1160   40.4710 N   0  0  0  0  0  0  0  0  0  0  0  0
   33.9570   28.8240   40.5570 H   0  0  0  0  0  0  0  0  0  0  0  0
   34.1920   28.1480   38.1420 H   0  0  0  0  0  0  0  0  0  0  0  0
   36.1710   29.0520   36.5320 N   0  0  0  0  0  0  0  0  0  0  0  0
   36.2170   29.9240   35.9330 H   0  0  0  0  0  0  0  0  0  0  0  0
   36.2770   28.0240   36.3680 H   0  0  0  0  0  0  0  0  0  0  0  0
  1 10  1  0  0  0  0
  2  3  1  0  0  0  0
  2  1  2  0  0  0  0
  3  4  2  0  0  0  0
  4 13  1  0  0  0  0
  4  5  1  0  0  0  0
  5  6  1  0  0  0  0
  6 14  1  0  0  0  0
  6  7  2  0  0  0  0
  7 15  1  0  0  0  0
  8  7  1  0  0  0  0
  8 16  1  0  0  0  0
  9  8  2  0  0  0  0
  9 17  1  0  0  0  0
 10  5  2  0  0  0  0
 10  9  1  0  0  0  0
 11  2  1  0  0  0  0
 12  3  1  0  0  0  0
 17 18  1  0  0  0  0
 18 19  1  0  0  0  0
 18 20  2  0  0  0  0
 21 20  1  0  0  0  0
 22 21  2  0  0  0  0
 23 22  1  0  0  0  0
 24 23  2  0  0  0  0
 25 26  2  0  0  0  0
 25 24  1  0  0  0  0
 26 27  1  0  0  0  0
 27 17  2  0  0  0  0
 27 22  1  0  0  0  0
 28 33  1  0  0  0  0
 28 34  1  0  0  0  0
 29 28  2  0  0  0  0
 30 31  2  0  0  0  0
 30 29  1  0  0  0  0
 31 32  1  0  0  0  0
 32  1  1  0  0  0  0
 32 33  2  0  0  0  0
 35 29  1  0  0  0  0
 36 30  1  0  0  0  0
 37 36  1  0  0  0  0
 38 36  1  0  0  0  0
M  END
>  <minimizedAffinity>
-7.13587046

$$$$

 OpenBabel03242521533D

 38 42  0  0  0  0  0  0  0  0999 V2000
   36.7530   26.8520   39.8560 C   0  0  0  0  0  0  0  0  0  0  0  0
   36.7010   25.4730   39.8660 C   0  0  0  0  0  0  0  0  0  0  0  0
   36.8480   24.7080   41.0330 C   0  0  0  0  0  0  0  0  0  0  0  0
   37.0530   25.3180   42.2630 C   0  0  0  0  0  0  0  0  0  0  0  0
   37.1160   26.7060   42.2830 C   0  0  0  0  0  0  0  0  0  0  0  0
   37.3690   27.3130   43.4870 C   0  0  0  0  0  0  0  0  0  0  0  0
   37.5140   28.7290   43.4910 C   0  0  0  0  0  0  0  0  0  0  0  0
   37.3990   29.4150   42.2430 C   0  0  0  0  0  0  0  0  0  0  0  0
   37.1560   28.7150   41.1870 C   0  0  0  0  0  0  0  0  0  0  0  0
   36.9700   27.3700   41.0790 C   0  0  0  0  0  0  0  0  0  0  0  0
   36.5410   24.9690   38.9180 H   0  0  0  0  0  0  0  0  0  0  0  0
   36.7900   23.6370   40.8980 H   0  0  0  0  0  0  0  0  0  0  0  0
   37.1570   24.7380   43.1400 H   0  0  0  0  0  0  0  0  0  0  0  0
   37.4390   26.6560   44.3560 H   0  0  0  0  0  0  0  0  0  0  0  0
   37.6970   28.9840   44.5720 H   0  0  0  0  0  0  0  0  0  0  0  0
   37.6030   30.3780   42.7030 H   0  0  0  0  0  0  0  0  0  0  0  0
   37.6770   29.7250   40.2640 C   0  0  0  0  0  0  0  0  0  0  0  0
   36.7160   30.7570   39.9770 C   0  0  0  0  0  0  0  0  0  0  0  0
   35.7160   30.7930   40.4490 H   0  0  0  0  0  0  0  0  0  0  0  0
   36.8900   31.8050   39.1000 C   0  0  0  0  0  3  0  0  0  0  0  0
   38.0910   31.8840   38.4290 C   0  0  0  0  0  3  0  0  0  0  0  0
   39.0510   30.9260   38.6600 C   0  0  0  0  0  0  0  0  0  0  0  0
   40.2720   30.8630   38.0270 C   0  0  0  0  0  3  0  0  0  0  0  0
   41.2290   29.8880   38.2180 C   0  0  0  0  0  3  0  0  0  0  0  0
   40.9460   28.8680   39.1340 C   0  0  0  0  0  3  0  0  0  0  0  0
   39.7460   28.8900   39.7880 C   0  0  0  0  0  3  0  0  0  0  0  0
   38.8280   29.9000   39.5470 C   0  0  0  0  0  0  0  0  0  0  0  0
   36.3360   28.7080   36.6590 C   0  0  0  0  0  0  0  0  0  0  0  0
   34.9740   29.0440   36.7330 C   0  0  0  0  0  0  0  0  0  0  0  0
   34.2890   28.6490   37.8860 C   0  0  0  0  0  0  0  0  0  0  0  0
   35.0120   27.9900   38.7880 N   0  0  0  0  0  0  0  0  0  0  0  0
   36.2830   27.6620   38.7490 C   0  0  0  0  0  0  0  0  0  0  0  0
   36.9260   28.0450   37.6500 N   0  0  0  0  0  0  0  0  0  0  0  0
   36.9100   28.9920   35.7850 H   0  0  0  0  0  0  0  0  0  0  0  0
   34.4650   29.5770   35.9550 H   0  0  0  0  0  0  0  0  0  0  0  0
   32.9460   28.9980   38.1180 N   0  0  0  0  0  0  0  0  0  0  0  0
   32.3980   28.1220   38.3500 H   0  0  0  0  0  0  0  0  0  0  0  0
   32.7270   30.0170   38.0260 H   0  0  0  0  0  0  0  0  0  0  0  0
  1  2  2  0  0  0  0
  1 10  1  0  0  0  0
  2  3  1  0  0  0  0
  3  4  2  0  0  0  0
  4  5  1  0  0  0  0
  4 13  1  0  0  0  0
  5  6  1  0  0  0  0
  6  7  2  0  0  0  0
  6 14  1  0  0  0  0
  7 15  1  0  0  0  0
  8 16  1  0  0  0  0
  8  7  1  0  0  0  0
  9  8  2  0  0  0  0
 10  9  1  0  0  0  0
 10  5  2  0  0  0  0
 11  2  1  0  0  0  0
 12  3  1  0  0  0  0
 17  9  1  0  0  0  0
 18 17  1  0  0  0  0
 18 19  1  0  0  0  0
 20 18  2  0  0  0  0
 21 22  2  0  0  0  0
 21 20  1  0  0  0  0
 22 27  1  0  0  0  0
 23 24  2  0  0  0  0
 23 22  1  0  0  0  0
 24 25  1  0  0  0  0
 25 26  2  0  0  0  0
 27 26  1  0  0  0  0
 27 17  2  0  0  0  0
 28 29  2  0  0  0  0
 28 33  1  0  0  0  0
 29 30  1  0  0  0  0
 30 36  1  0  0  0  0
 30 31  2  0  0  0  0
 32 31  1  0  0  0  0
 32  1  1  0  0  0  0
 33 32  2  0  0  0  0
 34 28  1  0  0  0  0
 35 29  1  0  0  0  0
 36 37  1  0  0  0  0
 38 36  1  0  0  0  0
M  END
>  <minimizedAffinity>
-6.95471859

$$$$

 OpenBabel03242521533D

 38 42  0  0  0  0  0  0  0  0999 V2000
   38.0060   29.0940   38.5020 C   0  0  0  0  0  0  0  0  0  0  0  0
   38.3320   29.1650   37.1620 C   0  0  0  0  0  0  0  0  0  0  0  0
   37.3740   29.2840   36.1450 C   0  0  0  0  0  0  0  0  0  0  0  0
   36.0210   29.3410   36.4440 C   0  0  0  0  0  0  0  0  0  0  0  0
   35.6610   29.2660   37.7840 C   0  0  0  0  0  0  0  0  0  0  0  0
   34.3220   29.2710   38.0840 C   0  0  0  0  0  0  0  0  0  0  0  0
   33.9540   29.1110   39.4500 C   0  0  0  0  0  0  0  0  0  0  0  0
   35.0010   28.9450   40.4080 C   0  0  0  0  0  0  0  0  0  0  0  0
   36.2190   28.9630   39.9840 C   0  0  0  0  0  0  0  0  0  0  0  0
   36.6780   29.1390   38.7130 C   0  0  0  0  0  0  0  0  0  0  0  0
   39.3850   29.1230   36.8990 H   0  0  0  0  0  0  0  0  0  0  0  0
   37.7670   29.3260   35.1380 H   0  0  0  0  0  0  0  0  0  0  0  0
   35.3030   29.4380   35.6750 H   0  0  0  0  0  0  0  0  0  0  0  0
   33.6380   29.3990   37.2440 H   0  0  0  0  0  0  0  0  0  0  0  0
   32.8300   29.1630   39.4400 H   0  0  0  0  0  0  0  0  0  0  0  0
   34.2950   28.8320   41.2260 H   0  0  0  0  0  0  0  0  0  0  0  0
   36.7490   28.2420   41.1420 C   0  0  0  0  0  0  0  0  0  0  0  0
   37.0510   29.1160   42.2440 C   0  0  0  0  0  0  0  0  0  0  0  0
   36.8520   30.2040   42.2190 H   0  0  0  0  0  0  0  0  0  0  0  0
   37.6190   28.7420   43.4430 C   0  0  0  0  0  3  0  0  0  0  0  0
   37.9310   27.4110   43.6150 C   0  0  0  0  0  3  0  0  0  0  0  0
   37.6670   26.5250   42.5960 C   0  0  0  0  0  0  0  0  0  0  0  0
   37.9680   25.1810   42.6200 C   0  0  0  0  0  3  0  0  0  0  0  0
   37.7460   24.2880   41.5930 C   0  0  0  0  0  3  0  0  0  0  0  0
   37.1640   24.7770   40.4170 C   0  0  0  0  0  3  0  0  0  0  0  0
   36.8460   26.1050   40.3490 C   0  0  0  0  0  3  0  0  0  0  0  0
   37.0990   26.9490   41.4190 C   0  0  0  0  0  0  0  0  0  0  0  0
   40.7270   28.8060   41.0230 C   0  0  0  0  0  0  0  0  0  0  0  0
   40.8010   30.1340   41.4730 C   0  0  0  0  0  0  0  0  0  0  0  0
   39.8930   31.0410   40.9170 C   0  0  0  0  0  0  0  0  0  0  0  0
   39.0580   30.5360   40.0120 N   0  0  0  0  0  0  0  0  0  0  0  0
   38.9630   29.3040   39.5710 C   0  0  0  0  0  0  0  0  0  0  0  0
   39.8290   28.4490   40.1080 N   0  0  0  0  0  0  0  0  0  0  0  0
   41.4100   28.0670   41.4230 H   0  0  0  0  0  0  0  0  0  0  0  0
   41.5110   30.4590   42.2080 H   0  0  0  0  0  0  0  0  0  0  0  0
   39.8090   32.3770   41.3460 N   0  0  0  0  0  0  0  0  0  0  0  0
   39.8720   33.0150   40.5020 H   0  0  0  0  0  0  0  0  0  0  0  0
   39.7030   32.5100   42.3780 H   0  0  0  0  0  0  0  0  0  0  0  0
  1 10  1  0  0  0  0
  1 32  1  0  0  0  0
  2  1  2  0  0  0  0
  3  4  2  0  0  0  0
  3  2  1  0  0  0  0
  4  5  1  0  0  0  0
  5  6  2  0  0  0  0
  5 10  1  0  0  0  0
  6  7  1  0  0  0  0
  7  8  2  0  0  0  0
  8 16  1  0  0  0  0
  9  8  1  0  0  0  0
  9 17  1  0  0  0  0
 10  9  2  0  0  0  0
 11  2  1  0  0  0  0
 12  3  1  0  0  0  0
 13  4  1  0  0  0  0
 14  6  1  0  0  0  0
 15  7  1  0  0  0  0
 17 27  2  0  0  0  0
 17 18  1  0  0  0  0
 18 20  2  0  0  0  0
 19 18  1  0  0  0  0
 20 21  1  0  0  0  0
 22 23  1  0  0  0  0
 22 21  2  0  0  0  0
 24 23  2  0  0  0  0
 25 24  1  0  0  0  0
 26 25  2  0  0  0  0
 26 27  1  0  0  0  0
 27 22  1  0  0  0  0
 28 34  1  0  0  0  0
 28 29  1  0  0  0  0
 29 35  1  0  0  0  0
 30 36  1  0  0  0  0
 30 29  2  0  0  0  0
 31 30  1  0  0  0  0
 32 31  2  0  0  0  0
 32 33  1  0  0  0  0
 33 28  2  0  0  0  0
 36 38  1  0  0  0  0
 37 36  1  0  0  0  0
M  END
>  <minimizedAffinity>
-6.89962387

$$$$

 OpenBabel03242521533D

 38 42  0  0  0  0  0  0  0  0999 V2000
   35.4770   29.2100   39.6850 C   0  0  0  0  0  0  0  0  0  0  0  0
   34.1010   29.1450   39.7760 C   0  0  0  0  0  0  0  0  0  0  0  0
   33.2600   29.0910   38.6560 C   0  0  0  0  0  0  0  0  0  0  0  0
   33.7840   29.0950   37.3710 C   0  0  0  0  0  0  0  0  0  0  0  0
   35.1660   29.1660   37.2470 C   0  0  0  0  0  0  0  0  0  0  0  0
   35.6890   29.2220   35.9790 C   0  0  0  0  0  0  0  0  0  0  0  0
   37.0980   29.3770   35.8560 C   0  0  0  0  0  0  0  0  0  0  0  0
   37.8660   29.4760   37.0570 C   0  0  0  0  0  0  0  0  0  0  0  0
   37.2420   29.4050   38.1830 C   0  0  0  0  0  0  0  0  0  0  0  0
   35.9100   29.2270   38.4110 C   0  0  0  0  0  0  0  0  0  0  0  0
   33.6640   29.1400   40.7700 H   0  0  0  0  0  0  0  0  0  0  0  0
   32.2010   29.0450   38.8700 H   0  0  0  0  0  0  0  0  0  0  0  0
   33.1470   29.0460   36.5290 H   0  0  0  0  0  0  0  0  0  0  0  0
   34.9750   29.1420   35.1570 H   0  0  0  0  0  0  0  0  0  0  0  0
   37.2780   29.3810   34.7460 H   0  0  0  0  0  0  0  0  0  0  0  0
   38.7930   29.6100   36.5060 H   0  0  0  0  0  0  0  0  0  0  0  0
   38.2990   30.0800   38.9380 C   0  0  0  0  0  0  0  0  0  0  0  0
   39.3630   29.1870   39.3140 C   0  0  0  0  0  0  0  0  0  0  0  0
   39.3860   28.1220   39.0160 H   0  0  0  0  0  0  0  0  0  0  0  0
   40.4610   29.5140   40.0800 C   0  0  0  0  0  3  0  0  0  0  0  0
   40.5620   30.8110   40.5330 C   0  0  0  0  0  3  0  0  0  0  0  0
   39.5750   31.7120   40.2060 C   0  0  0  0  0  0  0  0  0  0  0  0
   39.5310   33.0220   40.6290 C   0  0  0  0  0  3  0  0  0  0  0  0
   38.5300   33.9270   40.3430 C   0  0  0  0  0  3  0  0  0  0  0  0
   37.4590   33.4880   39.5560 C   0  0  0  0  0  3  0  0  0  0  0  0
   37.4610   32.1950   39.1130 C   0  0  0  0  0  3  0  0  0  0  0  0
   38.4990   31.3370   39.4390 C   0  0  0  0  0  0  0  0  0  0  0  0
   37.5530   29.3470   42.7700 C   0  0  0  0  0  0  0  0  0  0  0  0
   37.8990   27.9930   42.9060 C   0  0  0  0  0  0  0  0  0  0  0  0
   37.4360   27.1200   41.9160 C   0  0  0  0  0  0  0  0  0  0  0  0
   36.7070   27.6790   40.9520 N   0  0  0  0  0  0  0  0  0  0  0  0
   36.3670   28.9370   40.7970 C   0  0  0  0  0  0  0  0  0  0  0  0
   36.8150   29.7590   41.7420 N   0  0  0  0  0  0  0  0  0  0  0  0
   37.8870   30.0620   43.5120 H   0  0  0  0  0  0  0  0  0  0  0  0
   38.4910   27.6250   43.7200 H   0  0  0  0  0  0  0  0  0  0  0  0
   37.7860   25.7590   41.8930 N   0  0  0  0  0  0  0  0  0  0  0  0
   36.9030   25.1770   41.8190 H   0  0  0  0  0  0  0  0  0  0  0  0
   38.8110   25.5600   41.9500 H   0  0  0  0  0  0  0  0  0  0  0  0
  1  2  1  0  0  0  0
  1 32  1  0  0  0  0
  2 11  1  0  0  0  0
  3 12  1  0  0  0  0
  3  2  2  0  0  0  0
  4  3  1  0  0  0  0
  5  4  2  0  0  0  0
  5 10  1  0  0  0  0
  6  5  1  0  0  0  0
  7  6  2  0  0  0  0
  7  8  1  0  0  0  0
  8  9  2  0  0  0  0
  9 10  1  0  0  0  0
  9 17  1  0  0  0  0
 10  1  2  0  0  0  0
 13  4  1  0  0  0  0
 14  6  1  0  0  0  0
 15  7  1  0  0  0  0
 16  8  1  0  0  0  0
 17 18  2  0  0  0  0
 17 27  1  0  0  0  0
 18 20  1  0  0  0  0
 19 18  1  0  0  0  0
 20 21  2  0  0  0  0
 22 21  1  0  0  0  0
 22 23  1  0  0  0  0
 24 23  2  0  0  0  0
 25 24  1  0  0  0  0
 26 27  1  0  0  0  0
 26 25  2  0  0  0  0
 27 22  2  0  0  0  0
 28 29  1  0  0  0  0
 28 34  1  0  0  0  0
 29 35  1  0  0  0  0
 30 29  2  0  0  0  0
 31 30  1  0  0  0  0
 32 31  2  0  0  0  0
 32 33  1  0  0  0  0
 33 28  2  0  0  0  0
 36 30  1  0  0  0  0
 36 38  1  0  0  0  0
 37 36  1  0  0  0  0
M  END
>  <minimizedAffinity>
-6.73930597

$$$$

 OpenBabel03242521533D

 38 42  0  0  0  0  0  0  0  0999 V2000
   37.3770   31.2600   39.6800 C   0  0  0  0  0  0  0  0  0  0  0  0
   37.1020   32.6000   39.8650 C   0  0  0  0  0  0  0  0  0  0  0  0
   38.0990   33.5720   40.0390 C   0  0  0  0  0  0  0  0  0  0  0  0
   39.4420   33.2230   40.0280 C   0  0  0  0  0  0  0  0  0  0  0  0
   39.7500   31.8800   39.8490 C   0  0  0  0  0  0  0  0  0  0  0  0
   41.0740   31.5210   39.8880 C   0  0  0  0  0  0  0  0  0  0  0  0
   41.3820   30.1350   39.7880 C   0  0  0  0  0  0  0  0  0  0  0  0
   40.2940   29.2170   39.6660 C   0  0  0  0  0  0  0  0  0  0  0  0
   39.0970   29.6960   39.6400 C   0  0  0  0  0  0  0  0  0  0  0  0
   38.6960   30.9970   39.6980 C   0  0  0  0  0  0  0  0  0  0  0  0
   36.0590   32.9010   39.8780 H   0  0  0  0  0  0  0  0  0  0  0  0
   37.7440   34.5840   40.1770 H   0  0  0  0  0  0  0  0  0  0  0  0
   40.1900   33.9590   40.1520 H   0  0  0  0  0  0  0  0  0  0  0  0
   41.7940   32.3350   39.9940 H   0  0  0  0  0  0  0  0  0  0  0  0
   42.5060   30.1000   39.8290 H   0  0  0  0  0  0  0  0  0  0  0  0
   40.9610   28.3590   39.6610 H   0  0  0  0  0  0  0  0  0  0  0  0
   38.4680   28.4420   40.0580 C   0  0  0  0  0  0  0  0  0  0  0  0
   38.3050   27.5170   38.9680 C   0  0  0  0  0  0  0  0  0  0  0  0
   38.6660   27.7270   37.9440 H   0  0  0  0  0  0  0  0  0  0  0  0
   37.6920   26.2850   39.0360 C   0  0  0  0  0  3  0  0  0  0  0  0
   37.1830   25.8900   40.2540 C   0  0  0  0  0  3  0  0  0  0  0  0
   37.3070   26.7320   41.3350 C   0  0  0  0  0  0  0  0  0  0  0  0
   36.8070   26.4800   42.5940 C   0  0  0  0  0  3  0  0  0  0  0  0
   36.8880   27.3300   43.6770 C   0  0  0  0  0  3  0  0  0  0  0  0
   37.5330   28.5590   43.4950 C   0  0  0  0  0  3  0  0  0  0  0  0
   38.0470   28.8510   42.2630 C   0  0  0  0  0  3  0  0  0  0  0  0
   37.9290   27.9520   41.2150 C   0  0  0  0  0  0  0  0  0  0  0  0
   34.5480   28.8900   39.2100 C   0  0  0  0  0  0  0  0  0  0  0  0
   34.5990   28.7030   37.8190 C   0  0  0  0  0  0  0  0  0  0  0  0
   35.6190   29.3670   37.1300 C   0  0  0  0  0  0  0  0  0  0  0  0
   36.4290   30.1120   37.8790 N   0  0  0  0  0  0  0  0  0  0  0  0
   36.4080   30.3060   39.1760 C   0  0  0  0  0  0  0  0  0  0  0  0
   35.4370   29.6680   39.8230 N   0  0  0  0  0  0  0  0  0  0  0  0
   33.7760   28.3980   39.7880 H   0  0  0  0  0  0  0  0  0  0  0  0
   33.9010   28.0840   37.2920 H   0  0  0  0  0  0  0  0  0  0  0  0
   35.8280   29.1930   35.7500 N   0  0  0  0  0  0  0  0  0  0  0  0
   35.8650   30.1440   35.2850 H   0  0  0  0  0  0  0  0  0  0  0  0
   35.9090   28.2000   35.4320 H   0  0  0  0  0  0  0  0  0  0  0  0
  1 10  2  0  0  0  0
  1  2  1  0  0  0  0
  2 11  1  0  0  0  0
  2  3  2  0  0  0  0
  3 12  1  0  0  0  0
  4  3  1  0  0  0  0
  4 13  1  0  0  0  0
  5  6  1  0  0  0  0
  5  4  2  0  0  0  0
  6 14  1  0  0  0  0
  7 15  1  0  0  0  0
  7  6  2  0  0  0  0
  8  7  1  0  0  0  0
  9  8  2  0  0  0  0
  9 10  1  0  0  0  0
  9 17  1  0  0  0  0
 10  5  1  0  0  0  0
 16  8  1  0  0  0  0
 17 27  1  0  0  0  0
 18 20  1  0  0  0  0
 18 17  2  0  0  0  0
 19 18  1  0  0  0  0
 20 21  2  0  0  0  0
 21 22  1  0  0  0  0
 22 23  1  0  0  0  0
 23 24  2  0  0  0  0
 25 24  1  0  0  0  0
 26 25  2  0  0  0  0
 27 22  2  0  0  0  0
 27 26  1  0  0  0  0
 28 34  1  0  0  0  0
 28 33  1  0  0  0  0
 29 28  2  0  0  0  0
 30 29  1  0  0  0  0
 30 31  2  0  0  0  0
 31 32  1  0  0  0  0
 32  1  1  0  0  0  0
 32 33  2  0  0  0  0
 35 29  1  0  0  0  0
 36 30  1  0  0  0  0
 37 36  1  0  0  0  0
 38 36  1  0  0  0  0
M  END
>  <minimizedAffinity>
-6.67622471

$$$$

 OpenBabel03242521533D

 38 42  0  0  0  0  0  0  0  0999 V2000
   37.2280   29.0450   37.0140 C   0  0  0  0  0  0  0  0  0  0  0  0
   37.5280   28.8040   35.6890 C   0  0  0  0  0  0  0  0  0  0  0  0
   36.5490   28.6100   34.7030 C   0  0  0  0  0  0  0  0  0  0  0  0
   35.2000   28.6560   35.0210 C   0  0  0  0  0  0  0  0  0  0  0  0
   34.8660   28.8900   36.3500 C   0  0  0  0  0  0  0  0  0  0  0  0
   33.5340   28.8860   36.6810 C   0  0  0  0  0  0  0  0  0  0  0  0
   33.1980   29.0440   38.0550 C   0  0  0  0  0  0  0  0  0  0  0  0
   34.2680   29.1830   38.9910 C   0  0  0  0  0  0  0  0  0  0  0  0
   35.4760   29.1710   38.5380 C   0  0  0  0  0  0  0  0  0  0  0  0
   35.9030   29.0580   37.2490 C   0  0  0  0  0  0  0  0  0  0  0  0
   38.5770   28.7640   35.4110 H   0  0  0  0  0  0  0  0  0  0  0  0
   36.9240   28.4290   33.7050 H   0  0  0  0  0  0  0  0  0  0  0  0
   34.4660   28.5160   34.2740 H   0  0  0  0  0  0  0  0  0  0  0  0
   32.8300   28.7610   35.8560 H   0  0  0  0  0  0  0  0  0  0  0  0
   32.0740   29.0220   38.0670 H   0  0  0  0  0  0  0  0  0  0  0  0
   33.5840   29.2310   39.8330 H   0  0  0  0  0  0  0  0  0  0  0  0
   36.0710   28.7910   39.8200 C   0  0  0  0  0  0  0  0  0  0  0  0
   36.3080   29.9230   40.6750 C   0  0  0  0  0  0  0  0  0  0  0  0
   36.0220   30.9550   40.3980 H   0  0  0  0  0  0  0  0  0  0  0  0
   36.9120   29.8910   41.9140 C   0  0  0  0  0  3  0  0  0  0  0  0
   37.3320   28.6680   42.3880 C   0  0  0  0  0  3  0  0  0  0  0  0
   37.1340   27.5470   41.6160 C   0  0  0  0  0  0  0  0  0  0  0  0
   37.5430   26.2750   41.9510 C   0  0  0  0  0  3  0  0  0  0  0  0
   37.3870   25.1480   41.1710 C   0  0  0  0  0  3  0  0  0  0  0  0
   36.7590   25.2950   39.9290 C   0  0  0  0  0  3  0  0  0  0  0  0
   36.3340   26.5400   39.5550 C   0  0  0  0  0  3  0  0  0  0  0  0
   36.5250   27.6320   40.3870 C   0  0  0  0  0  0  0  0  0  0  0  0
   39.9690   29.5410   39.4800 C   0  0  0  0  0  0  0  0  0  0  0  0
   40.0080   30.9430   39.5400 C   0  0  0  0  0  0  0  0  0  0  0  0
   39.0720   31.6350   38.7650 C   0  0  0  0  0  0  0  0  0  0  0  0
   38.2470   30.8770   38.0480 N   0  0  0  0  0  0  0  0  0  0  0  0
   38.1840   29.5680   37.9700 C   0  0  0  0  0  0  0  0  0  0  0  0
   39.0770   28.9200   38.7130 N   0  0  0  0  0  0  0  0  0  0  0  0
   40.6750   28.9600   40.0620 H   0  0  0  0  0  0  0  0  0  0  0  0
   40.7130   31.4780   40.1460 H   0  0  0  0  0  0  0  0  0  0  0  0
   38.9540   33.0360   38.8050 N   0  0  0  0  0  0  0  0  0  0  0  0
   38.9950   33.4130   37.8150 H   0  0  0  0  0  0  0  0  0  0  0  0
   38.8500   33.4490   39.7600 H   0  0  0  0  0  0  0  0  0  0  0  0
  1 10  1  0  0  0  0
  1 32  1  0  0  0  0
  2  1  2  0  0  0  0
  3  4  2  0  0  0  0
  3  2  1  0  0  0  0
  4  5  1  0  0  0  0
  5  6  2  0  0  0  0
  5 10  1  0  0  0  0
  6  7  1  0  0  0  0
  7 15  1  0  0  0  0
  7  8  2  0  0  0  0
  8 16  1  0  0  0  0
  9  8  1  0  0  0  0
  9 17  1  0  0  0  0
 10  9  2  0  0  0  0
 11  2  1  0  0  0  0
 12  3  1  0  0  0  0
 13  4  1  0  0  0  0
 14  6  1  0  0  0  0
 17 27  2  0  0  0  0
 17 18  1  0  0  0  0
 18 20  2  0  0  0  0
 19 18  1  0  0  0  0
 20 21  1  0  0  0  0
 22 23  1  0  0  0  0
 22 21  2  0  0  0  0
 24 23  2  0  0  0  0
 25 24  1  0  0  0  0
 26 25  2  0  0  0  0
 26 27  1  0  0  0  0
 27 22  1  0  0  0  0
 28 29  1  0  0  0  0
 28 34  1  0  0  0  0
 29 35  1  0  0  0  0
 30 36  1  0  0  0  0
 30 29  2  0  0  0  0
 31 30  1  0  0  0  0
 32 31  2  0  0  0  0
 32 33  1  0  0  0  0
 33 28  2  0  0  0  0
 36 38  1  0  0  0  0
 37 36  1  0  0  0  0
M  END
>  <minimizedAffinity>
-6.67201853

$$$$

 OpenBabel03242521533D

 38 42  0  0  0  0  0  0  0  0999 V2000
   37.4360   27.2540   38.8040 C   0  0  0  0  0  0  0  0  0  0  0  0
   37.2510   27.3730   37.4420 C   0  0  0  0  0  0  0  0  0  0  0  0
   36.5940   26.4040   36.6700 C   0  0  0  0  0  0  0  0  0  0  0  0
   36.0830   25.2540   37.2540 C   0  0  0  0  0  0  0  0  0  0  0  0
   36.2600   25.1030   38.6240 C   0  0  0  0  0  0  0  0  0  0  0  0
   35.8030   23.9450   39.2000 C   0  0  0  0  0  0  0  0  0  0  0  0
   36.0580   23.7560   40.5880 C   0  0  0  0  0  0  0  0  0  0  0  0
   36.7810   24.7770   41.2780 C   0  0  0  0  0  0  0  0  0  0  0  0
   37.1490   25.8170   40.6090 C   0  0  0  0  0  0  0  0  0  0  0  0
   36.9310   26.1090   39.2960 C   0  0  0  0  0  0  0  0  0  0  0  0
   37.6400   28.2640   36.9580 H   0  0  0  0  0  0  0  0  0  0  0  0
   36.5200   26.6220   35.6130 H   0  0  0  0  0  0  0  0  0  0  0  0
   35.5820   24.5300   36.6700 H   0  0  0  0  0  0  0  0  0  0  0  0
   35.2740   23.2530   38.5430 H   0  0  0  0  0  0  0  0  0  0  0  0
   35.5830   22.7640   40.8230 H   0  0  0  0  0  0  0  0  0  0  0  0
   36.7650   24.2200   42.2110 H   0  0  0  0  0  0  0  0  0  0  0  0
   38.2160   26.1780   41.5440 C   0  0  0  0  0  0  0  0  0  0  0  0
   37.7320   26.9350   42.6670 C   0  0  0  0  0  0  0  0  0  0  0  0
   36.6610   27.1680   42.8170 H   0  0  0  0  0  0  0  0  0  0  0  0
   38.5020   27.4680   43.6780 C   0  0  0  0  0  3  0  0  0  0  0  0
   39.8630   27.2640   43.6190 C   0  0  0  0  0  3  0  0  0  0  0  0
   40.3880   26.5480   42.5690 C   0  0  0  0  0  0  0  0  0  0  0  0
   41.7290   26.3090   42.3660 C   0  0  0  0  0  3  0  0  0  0  0  0
   42.2740   25.6270   41.2980 C   0  0  0  0  0  3  0  0  0  0  0  0
   41.3970   25.1280   40.3280 C   0  0  0  0  0  3  0  0  0  0  0  0
   40.0560   25.3390   40.4880 C   0  0  0  0  0  3  0  0  0  0  0  0
   39.5760   26.0360   41.5850 C   0  0  0  0  0  0  0  0  0  0  0  0
   39.2050   29.9210   40.7020 C   0  0  0  0  0  0  0  0  0  0  0  0
   38.1130   30.6660   41.1760 C   0  0  0  0  0  0  0  0  0  0  0  0
   36.8370   30.1930   40.8510 C   0  0  0  0  0  0  0  0  0  0  0  0
   36.8060   29.0820   40.1180 N   0  0  0  0  0  0  0  0  0  0  0  0
   37.8050   28.3640   39.6620 C   0  0  0  0  0  0  0  0  0  0  0  0
   39.0140   28.8210   39.9790 N   0  0  0  0  0  0  0  0  0  0  0  0
   40.2130   30.2470   40.9270 H   0  0  0  0  0  0  0  0  0  0  0  0
   38.2290   31.5560   41.7610 H   0  0  0  0  0  0  0  0  0  0  0  0
   35.6660   30.8000   41.3360 N   0  0  0  0  0  0  0  0  0  0  0  0
   35.0210   31.0060   40.5210 H   0  0  0  0  0  0  0  0  0  0  0  0
   35.6310   30.9390   42.3720 H   0  0  0  0  0  0  0  0  0  0  0  0
  1 10  1  0  0  0  0
  1 32  1  0  0  0  0
  2  1  2  0  0  0  0
  3  4  2  0  0  0  0
  3  2  1  0  0  0  0
  4  5  1  0  0  0  0
  5  6  2  0  0  0  0
  5 10  1  0  0  0  0
  6  7  1  0  0  0  0
  7 15  1  0  0  0  0
  7  8  2  0  0  0  0
  8 16  1  0  0  0  0
  9  8  1  0  0  0  0
  9 17  1  0  0  0  0
 10  9  2  0  0  0  0
 11  2  1  0  0  0  0
 12  3  1  0  0  0  0
 13  4  1  0  0  0  0
 14  6  1  0  0  0  0
 17 27  2  0  0  0  0
 17 18  1  0  0  0  0
 18 19  1  0  0  0  0
 18 20  2  0  0  0  0
 21 20  1  0  0  0  0
 22 21  2  0  0  0  0
 23 22  1  0  0  0  0
 24 23  2  0  0  0  0
 25 26  2  0  0  0  0
 25 24  1  0  0  0  0
 26 27  1  0  0  0  0
 27 22  1  0  0  0  0
 28 34  1  0  0  0  0
 28 29  1  0  0  0  0
 29 35  1  0  0  0  0
 30 29  2  0  0  0  0
 30 36  1  0  0  0  0
 31 30  1  0  0  0  0
 32 33  1  0  0  0  0
 32 31  2  0  0  0  0
 33 28  2  0  0  0  0
 36 38  1  0  0  0  0
 37 36  1  0  0  0  0
M  END
>  <minimizedAffinity>
-6.6253376

$$$$

 OpenBabel03242521533D

 38 42  0  0  0  0  0  0  0  0999 V2000
   37.6300   28.8130   41.0950 C   0  0  0  0  0  0  0  0  0  0  0  0
   36.5330   28.2710   41.7340 C   0  0  0  0  0  0  0  0  0  0  0  0
   36.6240   27.5430   42.9300 C   0  0  0  0  0  0  0  0  0  0  0  0
   37.8500   27.3330   43.5430 C   0  0  0  0  0  0  0  0  0  0  0  0
   38.9740   27.8610   42.9200 C   0  0  0  0  0  0  0  0  0  0  0  0
   40.1950   27.6130   43.4940 C   0  0  0  0  0  0  0  0  0  0  0  0
   41.3510   28.0850   42.8090 C   0  0  0  0  0  0  0  0  0  0  0  0
   41.1590   28.7710   41.5710 C   0  0  0  0  0  0  0  0  0  0  0  0
   39.9510   28.9360   41.1500 C   0  0  0  0  0  0  0  0  0  0  0  0
   38.7820   28.5540   41.7380 C   0  0  0  0  0  0  0  0  0  0  0  0
   35.5600   28.4210   41.2760 H   0  0  0  0  0  0  0  0  0  0  0  0
   35.6870   27.1720   43.3210 H   0  0  0  0  0  0  0  0  0  0  0  0
   37.9140   26.7900   44.4480 H   0  0  0  0  0  0  0  0  0  0  0  0
   40.1850   27.0680   44.4390 H   0  0  0  0  0  0  0  0  0  0  0  0
   42.2070   27.7780   43.4720 H   0  0  0  0  0  0  0  0  0  0  0  0
   42.2280   28.8920   41.4220 H   0  0  0  0  0  0  0  0  0  0  0  0
   40.3460   29.1260   39.7530 C   0  0  0  0  0  0  0  0  0  0  0  0
   40.3710   27.8920   39.0150 C   0  0  0  0  0  0  0  0  0  0  0  0
   40.0750   26.9220   39.4570 H   0  0  0  0  0  0  0  0  0  0  0  0
   40.7620   27.7410   37.7020 C   0  0  0  0  0  3  0  0  0  0  0  0
   41.1680   28.8690   37.0230 C   0  0  0  0  0  3  0  0  0  0  0  0
   41.1670   30.0800   37.6750 C   0  0  0  0  0  0  0  0  0  0  0  0
   41.5890   31.2720   37.1290 C   0  0  0  0  0  3  0  0  0  0  0  0
   41.6310   32.4860   37.7820 C   0  0  0  0  0  3  0  0  0  0  0  0
   41.2110   32.5250   39.1160 C   0  0  0  0  0  3  0  0  0  0  0  0
   40.7820   31.3650   39.7000 C   0  0  0  0  0  3  0  0  0  0  0  0
   40.7670   30.1770   38.9860 C   0  0  0  0  0  0  0  0  0  0  0  0
   37.2230   30.7150   37.9230 C   0  0  0  0  0  0  0  0  0  0  0  0
   37.1660   32.0280   38.4170 C   0  0  0  0  0  0  0  0  0  0  0  0
   37.3070   32.1890   39.7990 C   0  0  0  0  0  0  0  0  0  0  0  0
   37.4770   31.0670   40.4950 N   0  0  0  0  0  0  0  0  0  0  0  0
   37.5340   29.8290   40.0640 C   0  0  0  0  0  0  0  0  0  0  0  0
   37.4020   29.6860   38.7480 N   0  0  0  0  0  0  0  0  0  0  0  0
   37.1180   30.5380   36.8590 H   0  0  0  0  0  0  0  0  0  0  0  0
   37.0230   32.8800   37.7830 H   0  0  0  0  0  0  0  0  0  0  0  0
   37.3540   33.4570   40.4060 N   0  0  0  0  0  0  0  0  0  0  0  0
   36.6430   33.4890   41.1910 H   0  0  0  0  0  0  0  0  0  0  0  0
   38.0500   34.1220   39.9980 H   0  0  0  0  0  0  0  0  0  0  0  0
  1  2  2  0  0  0  0
  1 10  1  0  0  0  0
  2  3  1  0  0  0  0
  3 12  1  0  0  0  0
  3  4  2  0  0  0  0
  4 13  1  0  0  0  0
  5  6  1  0  0  0  0
  5  4  1  0  0  0  0
  6 14  1  0  0  0  0
  7 15  1  0  0  0  0
  7  6  2  0  0  0  0
  8  7  1  0  0  0  0
  9  8  2  0  0  0  0
  9 10  1  0  0  0  0
 10  5  2  0  0  0  0
 11  2  1  0  0  0  0
 16  8  1  0  0  0  0
 17  9  1  0  0  0  0
 18 19  1  0  0  0  0
 18 17  1  0  0  0  0
 20 18  2  0  0  0  0
 21 22  2  0  0  0  0
 21 20  1  0  0  0  0
 22 27  1  0  0  0  0
 23 22  1  0  0  0  0
 23 24  2  0  0  0  0
 24 25  1  0  0  0  0
 25 26  2  0  0  0  0
 27 26  1  0  0  0  0
 27 17  2  0  0  0  0
 28 29  2  0  0  0  0
 28 33  1  0  0  0  0
 29 30  1  0  0  0  0
 30 36  1  0  0  0  0
 30 31  2  0  0  0  0
 32 31  1  0  0  0  0
 32  1  1  0  0  0  0
 33 32  2  0  0  0  0
 34 28  1  0  0  0  0
 35 29  1  0  0  0  0
 36 37  1  0  0  0  0
 38 36  1  0  0  0  0
M  END
>  <minimizedAffinity>
-6.62117624

$$$$

 OpenBabel03242521533D

 38 42  0  0  0  0  0  0  0  0999 V2000
   36.4440   26.1150   39.0770 C   0  0  0  0  0  0  0  0  0  0  0  0
   36.0170   24.8260   38.8330 C   0  0  0  0  0  0  0  0  0  0  0  0
   36.0940   23.7980   39.7850 C   0  0  0  0  0  0  0  0  0  0  0  0
   36.6130   24.0370   41.0490 C   0  0  0  0  0  0  0  0  0  0  0  0
   37.0570   25.3250   41.3230 C   0  0  0  0  0  0  0  0  0  0  0  0
   37.6190   25.5550   42.5540 C   0  0  0  0  0  0  0  0  0  0  0  0
   38.1470   26.8530   42.8020 C   0  0  0  0  0  0  0  0  0  0  0  0
   38.0680   27.8180   41.7510 C   0  0  0  0  0  0  0  0  0  0  0  0
   37.5100   27.4630   40.6440 C   0  0  0  0  0  0  0  0  0  0  0  0
   36.9490   26.2650   40.3160 C   0  0  0  0  0  0  0  0  0  0  0  0
   35.6050   24.6110   37.8510 H   0  0  0  0  0  0  0  0  0  0  0  0
   35.7260   22.8340   39.4610 H   0  0  0  0  0  0  0  0  0  0  0  0
   36.6630   23.2620   41.7660 H   0  0  0  0  0  0  0  0  0  0  0  0
   37.6150   24.7170   43.2530 H   0  0  0  0  0  0  0  0  0  0  0  0
   38.5280   26.7980   43.8590 H   0  0  0  0  0  0  0  0  0  0  0  0
   38.5860   28.5690   42.3420 H   0  0  0  0  0  0  0  0  0  0  0  0
   38.1670   28.5040   39.8510 C   0  0  0  0  0  0  0  0  0  0  0  0
   39.3330   28.0190   39.1630 C   0  0  0  0  0  0  0  0  0  0  0  0
   39.6550   26.9610   39.2000 H   0  0  0  0  0  0  0  0  0  0  0  0
   40.1920   28.7730   38.3920 C   0  0  0  0  0  3  0  0  0  0  0  0
   39.9200   30.1170   38.2620 C   0  0  0  0  0  3  0  0  0  0  0  0
   38.8190   30.6420   38.8970 C   0  0  0  0  0  0  0  0  0  0  0  0
   38.4590   31.9710   38.8860 C   0  0  0  0  0  3  0  0  0  0  0  0
   37.3810   32.5190   39.5490 C   0  0  0  0  0  3  0  0  0  0  0  0
   36.5740   31.6600   40.3050 C   0  0  0  0  0  3  0  0  0  0  0  0
   36.8920   30.3310   40.3440 C   0  0  0  0  0  3  0  0  0  0  0  0
   37.9920   29.8460   39.6540 C   0  0  0  0  0  0  0  0  0  0  0  0
   34.9580   29.2090   37.6410 C   0  0  0  0  0  0  0  0  0  0  0  0
   35.8170   29.4230   36.5510 C   0  0  0  0  0  0  0  0  0  0  0  0
   36.8300   28.4800   36.3500 C   0  0  0  0  0  0  0  0  0  0  0  0
   36.8650   27.4790   37.2260 N   0  0  0  0  0  0  0  0  0  0  0  0
   36.0790   27.2500   38.2520 C   0  0  0  0  0  0  0  0  0  0  0  0
   35.1180   28.1510   38.4330 N   0  0  0  0  0  0  0  0  0  0  0  0
   34.1580   29.9120   37.8390 H   0  0  0  0  0  0  0  0  0  0  0  0
   35.7190   30.2630   35.8930 H   0  0  0  0  0  0  0  0  0  0  0  0
   37.6990   28.5360   35.2460 N   0  0  0  0  0  0  0  0  0  0  0  0
   38.6990   28.4860   35.5930 H   0  0  0  0  0  0  0  0  0  0  0  0
   37.2330   28.6150   34.3140 H   0  0  0  0  0  0  0  0  0  0  0  0
  1 10  1  0  0  0  0
  2  1  2  0  0  0  0
  2  3  1  0  0  0  0
  3  4  2  0  0  0  0
  4  5  1  0  0  0  0
  4 13  1  0  0  0  0
  5  6  1  0  0  0  0
  6  7  2  0  0  0  0
  6 14  1  0  0  0  0
  7 15  1  0  0  0  0
  8 16  1  0  0  0  0
  8  7  1  0  0  0  0
  9  8  2  0  0  0  0
 10  9  1  0  0  0  0
 10  5  2  0  0  0  0
 11  2  1  0  0  0  0
 12  3  1  0  0  0  0
 17  9  1  0  0  0  0
 18 19  1  0  0  0  0
 18 17  2  0  0  0  0
 20 18  1  0  0  0  0
 21 20  2  0  0  0  0
 21 22  1  0  0  0  0
 22 27  1  0  0  0  0
 23 22  2  0  0  0  0
 23 24  1  0  0  0  0
 24 25  2  0  0  0  0
 25 26  1  0  0  0  0
 27 17  1  0  0  0  0
 27 26  2  0  0  0  0
 28 34  1  0  0  0  0
 28 33  1  0  0  0  0
 29 28  2  0  0  0  0
 30 29  1  0  0  0  0
 30 31  2  0  0  0  0
 31 32  1  0  0  0  0
 32 33  2  0  0  0  0
 32  1  1  0  0  0  0
 35 29  1  0  0  0  0
 36 37  1  0  0  0  0
 36 30  1  0  0  0  0
 38 36  1  0  0  0  0
M  END
>  <minimizedAffinity>
-6.56805992

$$$$
