
 OpenBabel03252504053D

 21 23  0  0  0  0  0  0  0  0999 V2000
   46.7210   34.6650   42.2200 C   0  0  0  0  0  0  0  0  0  0  0  0
   47.9240   35.3590   42.1460 C   0  0  0  0  0  0  0  0  0  0  0  0
   48.3900   35.9390   42.9480 H   0  0  0  0  0  0  0  0  0  0  0  0
   48.6790   35.3740   40.9700 C   0  0  0  0  0  0  0  0  0  0  0  0
   48.2180   34.6800   39.8530 C   0  0  0  0  0  0  0  0  0  0  0  0
   47.0240   33.9880   39.9150 C   0  0  0  0  0  0  0  0  0  0  0  0
   46.5170   33.2790   38.8340 C   0  0  0  0  0  0  0  0  0  0  0  0
   45.3370   32.6040   38.9240 C   0  0  0  0  0  0  0  0  0  0  0  0
   44.6140   32.6130   40.1100 C   0  0  0  0  0  0  0  0  0  0  0  0
   45.1320   33.3220   41.1770 C   0  0  0  0  0  0  0  0  0  0  0  0
   46.3120   33.9980   41.0870 C   0  0  0  0  0  0  0  0  0  0  0  0
   44.4650   35.7940   44.9460 C   0  0  0  0  0  0  0  0  0  0  0  0
   45.1180   35.7510   43.7070 C   0  0  0  0  0  0  0  0  0  0  0  0
   46.0370   34.7290   43.4950 C   0  0  0  0  0  0  0  0  0  0  0  0
   46.2610   33.8330   44.4760 N   0  0  0  0  0  0  0  0  0  0  0  0
   45.6160   33.8970   45.6670 C   0  0  0  0  0  0  0  0  0  0  0  0
   44.7120   34.8860   45.9010 N   0  0  0  0  0  0  0  0  0  0  0  0
   43.7500   36.5970   45.0980 H   0  0  0  0  0  0  0  0  0  0  0  0
   45.7510   33.2200   46.4740 H   0  0  0  0  0  0  0  0  0  0  0  0
   44.9030   36.6560   42.6930 O   0  0  0  0  0  0  0  0  0  0  0  0
   43.9490   36.7500   42.3220 H   0  0  0  0  0  0  0  0  0  0  0  0
  1 14  1  0  0  0  0
  2  1  1  0  0  0  0
  2  3  1  0  0  0  0
  4  2  2  0  0  0  0
  5  6  2  0  0  0  0
  5  4  1  0  0  0  0
  6 11  1  0  0  0  0
  7  8  2  0  0  0  0
  7  6  1  0  0  0  0
  8  9  1  0  0  0  0
  9 10  2  0  0  0  0
 11 10  1  0  0  0  0
 11  1  2  0  0  0  0
 12 18  1  0  0  0  0
 12 17  1  0  0  0  0
 13 12  2  0  0  0  0
 14 13  1  0  0  0  0
 14 15  2  0  0  0  0
 15 16  1  0  0  0  0
 16 17  2  0  0  0  0
 16 19  1  0  0  0  0
 20 13  1  0  0  0  0
 21 20  1  0  0  0  0
M  END
>  <minimizedAffinity>
-5.83758879

>  <minimizedRMSD>
0.796331644

$$$$
