
 OpenBabel03252502473D

 47 51  0  0  1  0  0  0  0  0999 V2000
   47.6200   35.4270   41.8860 C   0  0  0  0  0  0  0  0  0  0  0  0
   47.2720   36.1480   41.1020 H   0  0  0  0  0  0  0  0  0  0  0  0
   47.7540   36.0090   42.8200 H   0  0  0  0  0  0  0  0  0  0  0  0
   48.9100   34.7640   41.5410 C   0  0  1  0  0  0  0  0  0  0  0  0
   50.0210   34.8480   42.5450 C   0  0  0  0  0  0  0  0  0  0  0  0
   49.2950   33.5760   42.2950 C   0  0  2  0  0  0  0  0  0  0  0  0
   49.2220   34.9210   40.5140 H   0  0  0  0  0  0  0  0  0  0  0  0
   51.0630   35.0060   42.1870 H   0  0  0  0  0  0  0  0  0  0  0  0
   49.8080   35.4700   43.4470 H   0  0  0  0  0  0  0  0  0  0  0  0
   48.7960   33.1950   43.1770 H   0  0  0  0  0  0  0  0  0  0  0  0
   50.0690   32.6220   41.5080 N   0  0  0  0  0  0  0  0  0  0  0  0
   49.4560   32.1730   40.3350 C   0  0  0  0  0  0  0  0  0  0  0  0
   50.4390   31.1950   39.7080 C   0  0  0  0  0  0  0  0  0  0  0  0
   50.6330   30.0470   40.5170 N   0  0  0  0  0  0  0  0  0  0  0  0
   50.4540   30.3000   41.9320 C   0  0  0  0  0  0  0  0  0  0  0  0
   50.8730   31.7370   42.2570 C   0  0  0  0  0  0  0  0  0  0  0  0
   49.3550   33.0070   39.5890 H   0  0  0  0  0  0  0  0  0  0  0  0
   48.4610   31.7300   40.4620 H   0  0  0  0  0  0  0  0  0  0  0  0
   50.1130   30.8920   38.6840 H   0  0  0  0  0  0  0  0  0  0  0  0
   51.3870   31.7650   39.5420 H   0  0  0  0  0  0  0  0  0  0  0  0
   51.5260   29.5980   40.2830 H   0  0  0  0  0  0  0  0  0  0  0  0
   51.0270   29.5940   42.5420 H   0  0  0  0  0  0  0  0  0  0  0  0
   49.3590   30.1880   42.1630 H   0  0  0  0  0  0  0  0  0  0  0  0
   51.9490   31.8120   41.9600 H   0  0  0  0  0  0  0  0  0  0  0  0
   50.7580   31.8950   43.3360 H   0  0  0  0  0  0  0  0  0  0  0  0
   46.6270   34.3090   42.1210 C   0  0  0  0  0  0  0  0  0  0  0  0
   45.8260   34.4380   41.3410 H   0  0  0  0  0  0  0  0  0  0  0  0
   46.9990   33.3040   41.9930 H   0  0  0  0  0  0  0  0  0  0  0  0
   44.5070   35.8910   44.7700 C   0  0  0  0  0  0  0  0  0  0  0  0
   45.1430   35.6760   43.5290 C   0  0  0  0  0  0  0  0  0  0  0  0
   45.9310   34.5770   43.4140 C   0  0  0  0  0  0  0  0  0  0  0  0
   46.0560   33.7630   44.4820 N   0  0  0  0  0  0  0  0  0  0  0  0
   45.4630   33.9550   45.6540 C   0  0  0  0  0  0  0  0  0  0  0  0
   44.6880   35.0270   45.7820 N   0  0  0  0  0  0  0  0  0  0  0  0
   43.8650   36.7420   44.9400 H   0  0  0  0  0  0  0  0  0  0  0  0
   44.9680   36.3940   42.7480 H   0  0  0  0  0  0  0  0  0  0  0  0
   45.8000   32.8960   46.5970 C   0  0  0  0  0  0  0  0  0  0  0  0
   45.3340   32.8820   47.8940 C   0  0  0  0  0  0  0  0  0  0  0  0
   44.6780   33.6860   48.2660 H   0  0  0  0  0  0  0  0  0  0  0  0
   45.6140   31.9140   48.8260 C   0  0  0  0  0  0  0  0  0  0  0  0
   46.4180   30.8590   48.4870 C   0  0  0  0  0  0  0  0  0  0  0  0
   46.9180   30.8060   47.2140 C   0  0  0  0  0  0  0  0  0  0  0  0
   47.7260   29.7410   46.8750 C   0  0  0  0  0  0  0  0  0  0  0  0
   48.2630   29.6270   45.6060 C   0  0  0  0  0  0  0  0  0  0  0  0
   47.9460   30.6320   44.7070 C   0  0  0  0  0  0  0  0  0  0  0  0
   47.1390   31.6690   45.0910 C   0  0  0  0  0  0  0  0  0  0  0  0
   46.5960   31.8100   46.3320 C   0  0  0  0  0  0  0  0  0  0  0  0
  1 26  1  0  0  0  0
  1  3  1  0  0  0  0
  2  1  1  0  0  0  0
  4  7  1  6  0  0  0
  4  1  1  0  0  0  0
  4  6  1  0  0  0  0
  4  5  1  0  0  0  0
  5  9  1  0  0  0  0
  6  5  1  0  0  0  0
  6 10  1  1  0  0  0
  8  5  1  0  0  0  0
 11 16  1  0  0  0  0
 11  6  1  0  0  0  0
 12 18  1  0  0  0  0
 12 11  1  0  0  0  0
 13 12  1  0  0  0  0
 13 14  1  0  0  0  0
 14 15  1  0  0  0  0
 15 23  1  0  0  0  0
 15 16  1  0  0  0  0
 15 22  1  0  0  0  0
 16 25  1  0  0  0  0
 17 12  1  0  0  0  0
 19 13  1  0  0  0  0
 20 13  1  0  0  0  0
 21 14  1  0  0  0  0
 24 16  1  0  0  0  0
 26 31  1  0  0  0  0
 27 26  1  0  0  0  0
 28 26  1  0  0  0  0
 29 35  1  0  0  0  0
 29 34  1  0  0  0  0
 30 29  2  0  0  0  0
 31 30  1  0  0  0  0
 31 32  2  0  0  0  0
 32 33  1  0  0  0  0
 33 34  2  0  0  0  0
 33 37  1  0  0  0  0
 36 30  1  0  0  0  0
 37 38  1  0  0  0  0
 38 39  1  0  0  0  0
 38 40  2  0  0  0  0
 41 40  1  0  0  0  0
 42 41  2  0  0  0  0
 43 42  1  0  0  0  0
 44 43  2  0  0  0  0
 45 46  2  0  0  0  0
 45 44  1  0  0  0  0
 46 47  1  0  0  0  0
 47 37  2  0  0  0  0
 47 42  1  0  0  0  0
M  END
>  <minimizedAffinity>
-6.64393377

>  <minimizedRMSD>
0.721403122

$$$$
