
 OpenBabel03242516063D

 38 42  0  0  0  0  0  0  0  0999 V2000
   45.5090   32.9210   41.2590 Cl  0  0  0  0  0  0  0  0  0  0  0  0
   46.8320   34.0550   41.1720 C   0  0  0  0  0  0  0  0  0  0  0  0
   47.1330   34.9050   42.1960 C   0  0  0  0  0  0  0  0  0  0  0  0
   48.1830   35.7470   42.0050 C   0  0  0  0  0  0  0  0  0  0  0  0
   48.9170   35.7710   40.8700 C   0  0  0  0  0  0  0  0  0  0  0  0
   48.6210   34.9220   39.8390 C   0  0  0  0  0  0  0  0  0  0  0  0
   47.5520   34.0450   39.9970 C   0  0  0  0  0  0  0  0  0  0  0  0
   48.4540   36.4360   42.7970 H   0  0  0  0  0  0  0  0  0  0  0  0
   49.7550   36.4360   40.7070 H   0  0  0  0  0  0  0  0  0  0  0  0
   49.2030   34.9310   38.9210 H   0  0  0  0  0  0  0  0  0  0  0  0
   44.4960   35.6610   44.8120 C   0  0  0  0  0  0  0  0  0  0  0  0
   45.2670   35.7400   43.6540 C   0  0  0  0  0  0  0  0  0  0  0  0
   46.3180   34.8410   43.3960 C   0  0  0  0  0  0  0  0  0  0  0  0
   46.5200   33.9000   44.3520 N   0  0  0  0  0  0  0  0  0  0  0  0
   45.7660   33.8340   45.4690 C   0  0  0  0  0  0  0  0  0  0  0  0
   44.7690   34.7080   45.6860 N   0  0  0  0  0  0  0  0  0  0  0  0
   43.6930   36.3520   45.0020 H   0  0  0  0  0  0  0  0  0  0  0  0
   45.0550   36.5170   42.9260 H   0  0  0  0  0  0  0  0  0  0  0  0
   46.1100   33.0000   46.0920 H   0  0  0  0  0  0  0  0  0  0  0  0
   47.2140   33.1200   38.8880 C   0  0  0  0  0  0  0  0  0  0  0  0
   48.0240   32.0420   38.5250 C   0  0  0  0  0  0  0  0  0  0  0  0
   47.1170   31.2840   37.1380 S   0  0  0  0  0  0  0  0  0  0  0  0
   45.7400   32.5860   37.2700 C   0  0  0  0  0  0  0  0  0  0  0  0
   46.1410   33.1900   38.1290 N   0  0  0  0  0  0  0  0  0  0  0  0
   44.5680   32.6720   36.4540 N   0  0  0  0  0  0  0  0  0  0  0  0
   43.9460   31.8480   36.6700 H   0  0  0  0  0  0  0  0  0  0  0  0
   44.3830   33.4170   35.7780 H   0  0  0  0  0  0  0  0  0  0  0  0
   49.2840   31.5230   39.0140 C   0  0  0  0  0  0  0  0  0  0  0  0
   50.3360   31.7380   38.1200 C   0  0  0  0  0  0  0  0  0  0  0  0
   50.3520   32.2230   37.1380 H   0  0  0  0  0  0  0  0  0  0  0  0
   51.6100   31.3070   38.4260 C   0  0  0  0  0  3  0  0  0  0  0  0
   51.8900   30.6530   39.6170 C   0  0  0  0  0  3  0  0  0  0  0  0
   50.8500   30.4450   40.4940 C   0  0  0  0  0  0  0  0  0  0  0  0
   51.0510   29.8030   41.7060 C   0  0  0  0  0  3  0  0  0  0  0  0
   49.9580   29.6320   42.5370 C   0  0  0  0  0  3  0  0  0  0  0  0
   48.6770   30.0630   42.2340 C   0  0  0  0  0  3  0  0  0  0  0  0
   48.4860   30.7050   41.0220 C   0  0  0  0  0  3  0  0  0  0  0  0
   49.5740   30.8730   40.1950 C   0  0  0  0  0  0  0  0  0  0  0  0
  2  1  1  0  0  0  0
  2  3  1  0  0  0  0
  3 13  1  0  0  0  0
  4  3  2  0  0  0  0
  4  8  1  0  0  0  0
  5  4  1  0  0  0  0
  6  7  1  0  0  0  0
  6  5  2  0  0  0  0
  7  2  2  0  0  0  0
  9  5  1  0  0  0  0
 10  6  1  0  0  0  0
 11 17  1  0  0  0  0
 11 16  1  0  0  0  0
 12 11  2  0  0  0  0
 13 12  1  0  0  0  0
 13 14  2  0  0  0  0
 14 15  1  0  0  0  0
 15 16  2  0  0  0  0
 15 19  1  0  0  0  0
 18 12  1  0  0  0  0
 20  7  1  0  0  0  0
 21 20  2  0  0  0  0
 21 28  1  0  0  0  0
 22 23  1  0  0  0  0
 22 21  1  0  0  0  0
 23 24  2  0  0  0  0
 24 20  1  0  0  0  0
 25 26  1  0  0  0  0
 25 23  1  0  0  0  0
 27 25  1  0  0  0  0
 28 38  1  0  0  0  0
 29 31  1  0  0  0  0
 29 28  2  0  0  0  0
 30 29  1  0  0  0  0
 31 32  2  0  0  0  0
 32 33  1  0  0  0  0
 33 34  1  0  0  0  0
 34 35  2  0  0  0  0
 36 35  1  0  0  0  0
 37 36  2  0  0  0  0
 38 33  2  0  0  0  0
 38 37  1  0  0  0  0
M  END
>  <minimizedAffinity>
-6.26572561

>  <minimizedRMSD>
2.5209167

$$$$
