
 OpenBabel03252503133D

 36 40  0  0  0  0  0  0  0  0999 V2000
   46.5100   34.7810   41.8960 C   0  0  0  0  0  0  0  0  0  0  0  0
   47.7220   35.1380   41.8460 O   0  0  0  0  0  0  0  0  0  0  0  0
   45.2350   36.1430   43.4910 C   0  0  0  0  0  0  0  0  0  0  0  0
   45.8710   34.9290   43.1600 C   0  0  0  0  0  0  0  0  0  0  0  0
   45.8120   33.9530   44.1350 C   0  0  0  0  0  0  0  0  0  0  0  0
   45.1890   34.1460   45.3170 N   0  0  0  0  0  0  0  0  0  0  0  0
   44.5890   35.3300   45.5940 C   0  0  0  0  0  0  0  0  0  0  0  0
   44.6140   36.3230   44.6810 N   0  0  0  0  0  0  0  0  0  0  0  0
   45.2320   36.9730   42.7820 H   0  0  0  0  0  0  0  0  0  0  0  0
   44.0910   35.4840   46.5390 H   0  0  0  0  0  0  0  0  0  0  0  0
   46.4250   32.7150   43.8880 C   0  0  0  0  0  0  0  0  0  0  0  0
   47.6870   32.2200   44.0400 C   0  0  0  0  0  0  0  0  0  0  0  0
   48.0380   30.9840   43.7360 C   0  0  0  0  0  0  0  0  0  0  0  0
   47.0420   30.1910   43.2410 C   0  0  0  0  0  0  0  0  0  0  0  0
   45.5650   31.3030   43.2320 S   0  0  0  0  0  0  0  0  0  0  0  0
   48.4150   32.9510   44.4500 H   0  0  0  0  0  0  0  0  0  0  0  0
   49.0130   30.5310   43.8310 H   0  0  0  0  0  0  0  0  0  0  0  0
   47.0460   29.1290   42.9070 H   0  0  0  0  0  0  0  0  0  0  0  0
   45.7490   34.2330   40.7360 C   0  0  0  0  0  0  0  0  0  0  0  0
   44.3990   34.3100   40.5190 C   0  0  0  0  0  0  0  0  0  0  0  0
   44.1780   33.6780   39.3560 N   0  0  0  0  0  0  0  0  0  0  0  0
   45.3510   33.2170   38.8610 C   0  0  0  0  0  0  0  0  0  0  0  0
   46.2900   33.5700   39.7220 N   0  0  0  0  0  0  0  0  0  0  0  0
   43.7600   34.8080   41.2190 H   0  0  0  0  0  0  0  0  0  0  0  0
   43.2020   33.6340   39.0250 H   0  0  0  0  0  0  0  0  0  0  0  0
   45.3040   32.5000   37.5950 C   0  0  0  0  0  0  0  0  0  0  0  0
   44.2080   31.7610   37.2070 C   0  0  0  0  0  0  0  0  0  0  0  0
   43.3230   31.6740   37.8210 H   0  0  0  0  0  0  0  0  0  0  0  0
   44.1130   31.0660   36.0210 C   0  0  0  0  0  3  0  0  0  0  0  0
   45.1620   31.0850   35.1380 C   0  0  0  0  0  3  0  0  0  0  0  0
   46.2790   31.8010   35.4640 C   0  0  0  0  0  0  0  0  0  0  0  0
   47.3310   31.8170   34.5730 C   0  0  0  0  0  3  0  0  0  0  0  0
   48.4800   32.5160   34.8420 C   0  0  0  0  0  3  0  0  0  0  0  0
   48.5590   33.2150   36.0490 C   0  0  0  0  0  3  0  0  0  0  0  0
   47.4740   33.1590   36.8950 C   0  0  0  0  0  3  0  0  0  0  0  0
   46.3110   32.4710   36.6590 C   0  0  0  0  0  0  0  0  0  0  0  0
  1  4  1  0  0  0  0
  2  1  2  0  0  0  0
  3  8  1  0  0  0  0
  4  3  2  0  0  0  0
  4  5  1  0  0  0  0
  5  6  2  0  0  0  0
  6  7  1  0  0  0  0
  7 10  1  0  0  0  0
  8  7  2  0  0  0  0
  9  3  1  0  0  0  0
 11 12  2  0  0  0  0
 11  5  1  0  0  0  0
 12 16  1  0  0  0  0
 13 17  1  0  0  0  0
 13 12  1  0  0  0  0
 14 13  2  0  0  0  0
 15 14  1  0  0  0  0
 15 11  1  0  0  0  0
 18 14  1  0  0  0  0
 19  1  1  0  0  0  0
 20 19  2  0  0  0  0
 20 24  1  0  0  0  0
 21 20  1  0  0  0  0
 22 21  1  0  0  0  0
 22 23  2  0  0  0  0
 23 19  1  0  0  0  0
 25 21  1  0  0  0  0
 26 22  1  0  0  0  0
 27 26  1  0  0  0  0
 27 28  1  0  0  0  0
 29 27  2  0  0  0  0
 30 31  2  0  0  0  0
 30 29  1  0  0  0  0
 31 36  1  0  0  0  0
 32 33  2  0  0  0  0
 32 31  1  0  0  0  0
 33 34  1  0  0  0  0
 34 35  2  0  0  0  0
 36 35  1  0  0  0  0
 36 26  2  0  0  0  0
M  END
>  <minimizedAffinity>
-5.72089529

>  <minimizedRMSD>
0.86232084

$$$$
