
 OpenBabel03252508263D

 43 48  0  0  1  0  0  0  0  0999 V2000
   46.2650   32.4730   46.3180 C   0  0  1  0  0  0  0  0  0  0  0  0
   46.3120   32.5950   47.7810 C   0  0  0  0  0  0  0  0  0  0  0  0
   45.2220   31.7460   47.0150 C   0  0  2  0  0  0  0  0  0  0  0  0
   47.2920   32.0510   46.0210 H   0  0  0  0  0  0  0  0  0  0  0  0
   45.9610   33.5170   48.2460 H   0  0  0  0  0  0  0  0  0  0  0  0
   46.9150   31.9590   48.4470 H   0  0  0  0  0  0  0  0  0  0  0  0
   44.2550   32.2170   47.3760 H   0  0  0  0  0  0  0  0  0  0  0  0
   45.1770   30.2940   47.1920 C   0  0  0  0  0  0  0  0  0  0  0  0
   45.0810   29.6060   48.3650 C   0  0  0  0  0  0  0  0  0  0  0  0
   45.1680   28.2280   48.5090 C   0  0  0  0  0  0  0  0  0  0  0  0
   45.3760   27.4900   47.3260 C   0  0  0  0  0  0  0  0  0  0  0  0
   45.4730   28.1740   46.1240 C   0  0  0  0  0  0  0  0  0  0  0  0
   45.6190   27.4040   44.9880 C   0  0  0  0  0  0  0  0  0  0  0  0
   45.6580   28.0280   43.7380 C   0  0  0  0  0  0  0  0  0  0  0  0
   45.5480   29.3990   43.6400 C   0  0  0  0  0  0  0  0  0  0  0  0
   45.4070   30.1150   44.8040 C   0  0  0  0  0  0  0  0  0  0  0  0
   45.3730   29.5400   46.0620 C   0  0  0  0  0  0  0  0  0  0  0  0
   44.9210   30.2330   49.2480 H   0  0  0  0  0  0  0  0  0  0  0  0
   45.0790   27.7680   49.4840 H   0  0  0  0  0  0  0  0  0  0  0  0
   45.4480   26.4150   47.4350 H   0  0  0  0  0  0  0  0  0  0  0  0
   45.7020   26.3240   45.0820 H   0  0  0  0  0  0  0  0  0  0  0  0
   45.7790   27.3160   42.9070 H   0  0  0  0  0  0  0  0  0  0  0  0
   45.5960   29.6890   42.6150 H   0  0  0  0  0  0  0  0  0  0  0  0
   45.2610   31.1040   44.4720 H   0  0  0  0  0  0  0  0  0  0  0  0
   44.5910   35.5280   45.1000 C   0  0  0  0  0  0  0  0  0  0  0  0
   45.1880   35.7190   43.8150 C   0  0  0  0  0  0  0  0  0  0  0  0
   46.1640   34.7910   43.4070 C   0  0  0  0  0  0  0  0  0  0  0  0
   46.4720   33.7940   44.2400 N   0  0  0  0  0  0  0  0  0  0  0  0
   45.8930   33.6320   45.4570 C   0  0  0  0  0  0  0  0  0  0  0  0
   44.9690   34.4880   45.8700 N   0  0  0  0  0  0  0  0  0  0  0  0
   43.8440   36.2550   45.3860 H   0  0  0  0  0  0  0  0  0  0  0  0
   44.8980   36.5750   43.2520 H   0  0  0  0  0  0  0  0  0  0  0  0
   46.9440   34.8290   42.1950 C   0  0  0  0  0  0  0  0  0  0  0  0
   48.1190   35.5930   42.2230 C   0  0  0  0  0  0  0  0  0  0  0  0
   48.3860   36.1310   43.1460 H   0  0  0  0  0  0  0  0  0  0  0  0
   48.9960   35.7400   41.1750 C   0  0  0  0  0  3  0  0  0  0  0  0
   48.7210   35.0920   39.9920 C   0  0  0  0  0  3  0  0  0  0  0  0
   47.5860   34.3200   39.8890 C   0  0  0  0  0  0  0  0  0  0  0  0
   47.3110   33.6350   38.7260 C   0  0  0  0  0  3  0  0  0  0  0  0
   46.1950   32.8090   38.5890 C   0  0  0  0  0  3  0  0  0  0  0  0
   45.3750   32.7270   39.7210 C   0  0  0  0  0  3  0  0  0  0  0  0
   45.6740   33.4230   40.8690 C   0  0  0  0  0  3  0  0  0  0  0  0
   46.7630   34.2240   40.9800 C   0  0  0  0  0  0  0  0  0  0  0  0
  1  4  1  6  0  0  0
  1  3  1  0  0  0  0
  1  2  1  0  0  0  0
  2  5  1  0  0  0  0
  2  6  1  0  0  0  0
  3  8  1  0  0  0  0
  3  7  1  6  0  0  0
  3  2  1  0  0  0  0
  8  9  1  0  0  0  0
  9 10  2  0  0  0  0
  9 18  1  0  0  0  0
 10 19  1  0  0  0  0
 11 20  1  0  0  0  0
 11 10  1  0  0  0  0
 12 11  2  0  0  0  0
 13 21  1  0  0  0  0
 13 12  1  0  0  0  0
 14 13  2  0  0  0  0
 15 14  1  0  0  0  0
 15 16  2  0  0  0  0
 16 17  1  0  0  0  0
 17 12  1  0  0  0  0
 17  8  2  0  0  0  0
 22 14  1  0  0  0  0
 23 15  1  0  0  0  0
 24 16  1  0  0  0  0
 25 31  1  0  0  0  0
 25 30  1  0  0  0  0
 26 25  2  0  0  0  0
 27 26  1  0  0  0  0
 27 28  2  0  0  0  0
 28 29  1  0  0  0  0
 29 30  2  0  0  0  0
 29  1  1  0  0  0  0
 32 26  1  0  0  0  0
 33 34  1  0  0  0  0
 33 27  1  0  0  0  0
 34 35  1  0  0  0  0
 36 34  2  0  0  0  0
 37 36  1  0  0  0  0
 38 37  2  0  0  0  0
 38 43  1  0  0  0  0
 39 38  1  0  0  0  0
 40 39  2  0  0  0  0
 40 41  1  0  0  0  0
 41 42  2  0  0  0  0
 42 43  1  0  0  0  0
 43 33  2  0  0  0  0
M  END
>  <minimizedAffinity>
-6.72853231

>  <minimizedRMSD>
0.938770533

$$$$
