
 OpenBabel03242517593D

 26 28  0  0  0  0  0  0  0  0999 V2000
   48.7540   34.6500   42.6890 C   0  0  0  0  0  0  0  0  0  0  0  0
   48.0400   34.7240   43.5480 H   0  0  0  0  0  0  0  0  0  0  0  0
   49.6070   35.2980   42.8990 H   0  0  0  0  0  0  0  0  0  0  0  0
   49.1910   33.2140   42.5500 C   0  0  0  0  0  0  0  0  0  0  0  0
   50.2440   32.8530   41.7140 C   0  0  0  0  0  0  0  0  0  0  0  0
   50.7310   33.6250   41.1540 H   0  0  0  0  0  0  0  0  0  0  0  0
   50.6430   31.5400   41.6160 C   0  0  0  0  0  3  0  0  0  0  0  0
   50.0200   30.5450   42.3350 C   0  0  0  0  0  3  0  0  0  0  0  0
   48.9820   30.9120   43.1560 C   0  0  0  0  0  0  0  0  0  0  0  0
   48.3600   29.8950   43.8700 C   0  0  0  0  0  3  0  0  0  0  0  0
   47.2970   30.1970   44.7150 C   0  0  0  0  0  3  0  0  0  0  0  0
   46.8660   31.5040   44.8400 C   0  0  0  0  0  3  0  0  0  0  0  0
   47.5190   32.4910   44.1060 C   0  0  0  0  0  3  0  0  0  0  0  0
   48.5690   32.2240   43.2670 C   0  0  0  0  0  0  0  0  0  0  0  0
   47.9900   35.0790   41.4420 C   0  0  0  0  0  0  0  0  0  0  0  0
   48.2480   36.0700   41.0910 H   0  0  0  0  0  0  0  0  0  0  0  0
   48.2390   34.2790   40.6750 H   0  0  0  0  0  0  0  0  0  0  0  0
   45.7560   34.2270   40.8600 C   0  0  0  0  0  0  0  0  0  0  0  0
   46.5670   34.9720   41.7170 C   0  0  0  0  0  0  0  0  0  0  0  0
   45.9310   35.5720   42.8030 C   0  0  0  0  0  0  0  0  0  0  0  0
   44.5970   35.4000   42.9580 N   0  0  0  0  0  0  0  0  0  0  0  0
   43.8580   34.6770   42.1100 C   0  0  0  0  0  0  0  0  0  0  0  0
   44.4450   34.0890   41.0580 N   0  0  0  0  0  0  0  0  0  0  0  0
   46.2430   33.7490   40.0000 H   0  0  0  0  0  0  0  0  0  0  0  0
   46.5110   36.1610   43.5000 H   0  0  0  0  0  0  0  0  0  0  0  0
   42.7950   34.5710   42.2810 H   0  0  0  0  0  0  0  0  0  0  0  0
  1  3  1  0  0  0  0
  1  2  1  0  0  0  0
  4  1  1  0  0  0  0
  4 14  1  0  0  0  0
  5  4  2  0  0  0  0
  6  5  1  0  0  0  0
  7  5  1  0  0  0  0
  7  8  2  0  0  0  0
  8  9  1  0  0  0  0
  9 14  2  0  0  0  0
  9 10  1  0  0  0  0
 10 11  2  0  0  0  0
 11 12  1  0  0  0  0
 13 12  2  0  0  0  0
 14 13  1  0  0  0  0
 15 19  1  0  0  0  0
 15  1  1  0  0  0  0
 16 15  1  0  0  0  0
 17 15  1  0  0  0  0
 18 23  2  0  0  0  0
 18 19  1  0  0  0  0
 19 20  2  0  0  0  0
 20 21  1  0  0  0  0
 20 25  1  0  0  0  0
 22 26  1  0  0  0  0
 22 21  2  0  0  0  0
 23 22  1  0  0  0  0
 24 18  1  0  0  0  0
M  END
>  <minimizedAffinity>
-4.04405832

>  <minimizedRMSD>
5.13510323

$$$$
