
 OpenBabel03252506423D

 42 46  0  0  1  0  0  0  0  0999 V2000
   49.6100   33.4510   41.4850 N   0  0  1  0  0  0  0  0  0  0  0  0
   50.6980   32.9870   42.2700 C   0  0  0  0  0  0  0  0  0  0  0  0
   51.2140   31.6340   41.9620 C   0  0  0  0  0  0  0  0  0  0  0  0
   50.1390   30.6120   42.1830 C   0  0  0  0  0  0  0  0  0  0  0  0
   48.8070   31.1670   41.7820 C   0  0  0  0  0  0  0  0  0  0  0  0
   48.8830   32.3410   40.9030 C   0  0  2  0  0  0  0  0  0  0  0  0
   50.3960   32.9720   43.3550 H   0  0  0  0  0  0  0  0  0  0  0  0
   51.5170   33.7540   42.2330 H   0  0  0  0  0  0  0  0  0  0  0  0
   51.9750   31.4220   42.7920 H   0  0  0  0  0  0  0  0  0  0  0  0
   51.7990   31.4900   41.0620 H   0  0  0  0  0  0  0  0  0  0  0  0
   50.0690   30.4120   43.2770 H   0  0  0  0  0  0  0  0  0  0  0  0
   50.3850   29.6270   41.7350 H   0  0  0  0  0  0  0  0  0  0  0  0
   48.2840   30.3100   41.3280 H   0  0  0  0  0  0  0  0  0  0  0  0
   48.1670   31.4350   42.6750 H   0  0  0  0  0  0  0  0  0  0  0  0
   47.8350   32.8060   40.9430 H   0  0  0  0  0  0  0  0  0  0  0  0
   49.1140   32.1540   39.4650 C   0  0  0  0  0  0  0  0  0  0  0  0
   50.2760   31.7560   38.8300 C   0  0  0  0  0  0  0  0  0  0  0  0
   51.1370   31.5550   39.4490 H   0  0  0  0  0  0  0  0  0  0  0  0
   50.4680   31.6050   37.4980 C   0  0  0  0  0  0  0  0  0  0  0  0
   49.4360   31.8610   36.6480 C   0  0  0  0  0  0  0  0  0  0  0  0
   48.2290   32.2650   37.1780 C   0  0  0  0  0  0  0  0  0  0  0  0
   47.2240   32.5120   36.2690 C   0  0  0  0  0  0  0  0  0  0  0  0
   45.9920   32.9210   36.7250 C   0  0  0  0  0  0  0  0  0  0  0  0
   45.7870   33.0780   38.0780 C   0  0  0  0  0  0  0  0  0  0  0  0
   46.8360   32.8130   38.9310 C   0  0  0  0  0  0  0  0  0  0  0  0
   48.0920   32.4020   38.5440 C   0  0  0  0  0  0  0  0  0  0  0  0
   47.3880   34.6760   41.9600 C   0  0  1  0  0  0  0  0  0  0  0  0
   48.4420   35.6280   41.6860 C   0  0  0  0  0  0  0  0  0  0  0  0
   48.8260   34.3250   42.3150 C   0  0  2  0  0  0  0  0  0  0  0  0
   46.9840   34.0110   41.1820 H   0  0  0  0  0  0  0  0  0  0  0  0
   48.7030   35.7960   40.6070 H   0  0  0  0  0  0  0  0  0  0  0  0
   48.5340   36.5710   42.2730 H   0  0  0  0  0  0  0  0  0  0  0  0
   49.1360   34.4030   43.3730 H   0  0  0  0  0  0  0  0  0  0  0  0
   45.5890   36.0040   43.1220 C   0  0  0  0  0  0  0  0  0  0  0  0
   46.4260   34.8680   43.0860 C   0  0  0  0  0  0  0  0  0  0  0  0
   46.3240   33.9580   44.1210 C   0  0  0  0  0  0  0  0  0  0  0  0
   45.4180   34.2200   45.1050 N   0  0  0  0  0  0  0  0  0  0  0  0
   44.6290   35.3100   45.1160 C   0  0  0  0  0  0  0  0  0  0  0  0
   44.7040   36.2170   44.1240 N   0  0  0  0  0  0  0  0  0  0  0  0
   45.6760   36.7150   42.3030 H   0  0  0  0  0  0  0  0  0  0  0  0
   46.9320   33.0810   44.1470 H   0  0  0  0  0  0  0  0  0  0  0  0
   43.9220   35.4780   45.9190 H   0  0  0  0  0  0  0  0  0  0  0  0
  1  2  1  1  0  0  0
  1 29  1  0  0  0  0
  2  7  1  0  0  0  0
  3  4  1  0  0  0  0
  3  2  1  0  0  0  0
  3  9  1  0  0  0  0
  4 11  1  0  0  0  0
  5  4  1  0  0  0  0
  5 14  1  0  0  0  0
  6 15  1  1  0  0  0
  6  1  1  0  0  0  0
  6  5  1  0  0  0  0
  8  2  1  0  0  0  0
 10  3  1  0  0  0  0
 12  4  1  0  0  0  0
 13  5  1  0  0  0  0
 16  6  1  0  0  0  0
 17 18  1  0  0  0  0
 17 16  1  0  0  0  0
 19 17  2  0  0  0  0
 20 21  2  0  0  0  0
 20 19  1  0  0  0  0
 21 26  1  0  0  0  0
 22 23  2  0  0  0  0
 22 21  1  0  0  0  0
 23 24  1  0  0  0  0
 24 25  2  0  0  0  0
 26 25  1  0  0  0  0
 26 16  2  0  0  0  0
 27 30  1  6  0  0  0
 27 29  1  0  0  0  0
 27 35  1  0  0  0  0
 28 27  1  0  0  0  0
 28 32  1  0  0  0  0
 28 29  1  0  0  0  0
 29 33  1  1  0  0  0
 31 28  1  0  0  0  0
 34 39  1  0  0  0  0
 35 34  2  0  0  0  0
 35 36  1  0  0  0  0
 36 41  1  0  0  0  0
 36 37  2  0  0  0  0
 37 38  1  0  0  0  0
 38 42  1  0  0  0  0
 39 38  2  0  0  0  0
 40 34  1  0  0  0  0
M  END
>  <minimizedAffinity>
-5.80043411

>  <minimizedRMSD>
2.32677364

$$$$
