
 OpenBabel03252503133D

 36 40  0  0  0  0  0  0  0  0999 V2000
   46.5080   34.7930   41.8940 C   0  0  0  0  0  0  0  0  0  0  0  0
   47.7170   35.1600   41.8430 O   0  0  0  0  0  0  0  0  0  0  0  0
   45.2300   36.1370   43.5020 C   0  0  0  0  0  0  0  0  0  0  0  0
   45.8720   34.9290   43.1610 C   0  0  0  0  0  0  0  0  0  0  0  0
   45.8220   33.9470   44.1300 C   0  0  0  0  0  0  0  0  0  0  0  0
   45.2010   34.1290   45.3150 N   0  0  0  0  0  0  0  0  0  0  0  0
   44.5950   35.3070   45.6020 C   0  0  0  0  0  0  0  0  0  0  0  0
   44.6110   36.3060   44.6950 N   0  0  0  0  0  0  0  0  0  0  0  0
   45.2190   36.9710   42.7980 H   0  0  0  0  0  0  0  0  0  0  0  0
   44.0990   35.4520   46.5480 H   0  0  0  0  0  0  0  0  0  0  0  0
   46.4420   32.7130   43.8740 C   0  0  0  0  0  0  0  0  0  0  0  0
   47.7010   32.2160   44.0470 C   0  0  0  0  0  0  0  0  0  0  0  0
   48.0600   30.9870   43.7270 C   0  0  0  0  0  0  0  0  0  0  0  0
   47.0770   30.2030   43.1920 C   0  0  0  0  0  0  0  0  0  0  0  0
   45.6000   31.3140   43.1690 S   0  0  0  0  0  0  0  0  0  0  0  0
   48.4170   32.9390   44.4890 H   0  0  0  0  0  0  0  0  0  0  0  0
   49.0330   30.5320   43.8370 H   0  0  0  0  0  0  0  0  0  0  0  0
   47.0900   29.1490   42.8370 H   0  0  0  0  0  0  0  0  0  0  0  0
   45.7480   34.2440   40.7340 C   0  0  0  0  0  0  0  0  0  0  0  0
   44.4000   34.3280   40.5120 C   0  0  0  0  0  0  0  0  0  0  0  0
   44.1790   33.6930   39.3510 N   0  0  0  0  0  0  0  0  0  0  0  0
   45.3510   33.2240   38.8620 C   0  0  0  0  0  0  0  0  0  0  0  0
   46.2890   33.5750   39.7250 N   0  0  0  0  0  0  0  0  0  0  0  0
   43.7610   34.8320   41.2080 H   0  0  0  0  0  0  0  0  0  0  0  0
   43.2040   33.6530   39.0170 H   0  0  0  0  0  0  0  0  0  0  0  0
   45.3050   32.5030   37.5980 C   0  0  0  0  0  0  0  0  0  0  0  0
   44.2090   31.7620   37.2130 C   0  0  0  0  0  0  0  0  0  0  0  0
   43.3240   31.6760   37.8280 H   0  0  0  0  0  0  0  0  0  0  0  0
   44.1140   31.0620   36.0290 C   0  0  0  0  0  3  0  0  0  0  0  0
   45.1630   31.0790   35.1460 C   0  0  0  0  0  3  0  0  0  0  0  0
   46.2800   31.7960   35.4690 C   0  0  0  0  0  0  0  0  0  0  0  0
   47.3320   31.8100   34.5770 C   0  0  0  0  0  3  0  0  0  0  0  0
   48.4810   32.5110   34.8450 C   0  0  0  0  0  3  0  0  0  0  0  0
   48.5590   33.2140   36.0490 C   0  0  0  0  0  3  0  0  0  0  0  0
   47.4740   33.1600   36.8960 C   0  0  0  0  0  3  0  0  0  0  0  0
   46.3120   32.4710   36.6620 C   0  0  0  0  0  0  0  0  0  0  0  0
  1  4  1  0  0  0  0
  2  1  2  0  0  0  0
  3  8  1  0  0  0  0
  4  3  2  0  0  0  0
  4  5  1  0  0  0  0
  5  6  2  0  0  0  0
  6  7  1  0  0  0  0
  7 10  1  0  0  0  0
  8  7  2  0  0  0  0
  9  3  1  0  0  0  0
 11 12  2  0  0  0  0
 11  5  1  0  0  0  0
 12 16  1  0  0  0  0
 13 17  1  0  0  0  0
 13 12  1  0  0  0  0
 14 13  2  0  0  0  0
 15 14  1  0  0  0  0
 15 11  1  0  0  0  0
 18 14  1  0  0  0  0
 19  1  1  0  0  0  0
 20 19  2  0  0  0  0
 20 24  1  0  0  0  0
 21 20  1  0  0  0  0
 22 21  1  0  0  0  0
 22 23  2  0  0  0  0
 23 19  1  0  0  0  0
 25 21  1  0  0  0  0
 26 22  1  0  0  0  0
 27 26  1  0  0  0  0
 27 28  1  0  0  0  0
 29 27  2  0  0  0  0
 30 31  2  0  0  0  0
 30 29  1  0  0  0  0
 31 36  1  0  0  0  0
 32 33  2  0  0  0  0
 32 31  1  0  0  0  0
 33 34  1  0  0  0  0
 34 35  2  0  0  0  0
 36 35  1  0  0  0  0
 36 26  2  0  0  0  0
M  END
>  <minimizedAffinity>
-5.71379423

>  <minimizedRMSD>
0.563666105

$$$$
