
 OpenBabel03252508263D

 43 48  0  0  1  0  0  0  0  0999 V2000
   46.3630   32.4150   46.1690 C   0  0  1  0  0  0  0  0  0  0  0  0
   46.8030   32.6010   47.5580 C   0  0  0  0  0  0  0  0  0  0  0  0
   45.4310   31.9240   47.1640 C   0  0  2  0  0  0  0  0  0  0  0  0
   47.1970   31.8000   45.6720 H   0  0  0  0  0  0  0  0  0  0  0  0
   46.7370   33.5930   48.0050 H   0  0  0  0  0  0  0  0  0  0  0  0
   47.4450   31.9010   48.1140 H   0  0  0  0  0  0  0  0  0  0  0  0
   44.6780   32.5800   47.7040 H   0  0  0  0  0  0  0  0  0  0  0  0
   45.1970   30.5150   47.4830 C   0  0  0  0  0  0  0  0  0  0  0  0
   45.0790   29.9560   48.7200 C   0  0  0  0  0  0  0  0  0  0  0  0
   44.9850   28.5980   48.9940 C   0  0  0  0  0  0  0  0  0  0  0  0
   45.0200   27.7350   47.8800 C   0  0  0  0  0  0  0  0  0  0  0  0
   45.1370   28.2870   46.6140 C   0  0  0  0  0  0  0  0  0  0  0  0
   45.1090   27.4060   45.5530 C   0  0  0  0  0  0  0  0  0  0  0  0
   45.1590   27.9030   44.2470 C   0  0  0  0  0  0  0  0  0  0  0  0
   45.2320   29.2610   44.0220 C   0  0  0  0  0  0  0  0  0  0  0  0
   45.2590   30.0920   45.1160 C   0  0  0  0  0  0  0  0  0  0  0  0
   45.2220   29.6430   46.4240 C   0  0  0  0  0  0  0  0  0  0  0  0
   45.0580   30.6760   49.5450 H   0  0  0  0  0  0  0  0  0  0  0  0
   44.8920   28.2450   50.0130 H   0  0  0  0  0  0  0  0  0  0  0  0
   44.9500   26.6750   48.0890 H   0  0  0  0  0  0  0  0  0  0  0  0
   45.0490   26.3370   45.7470 H   0  0  0  0  0  0  0  0  0  0  0  0
   45.1320   27.1090   43.4850 H   0  0  0  0  0  0  0  0  0  0  0  0
   45.2570   29.4490   42.9720 H   0  0  0  0  0  0  0  0  0  0  0  0
   45.2300   31.0580   44.6960 H   0  0  0  0  0  0  0  0  0  0  0  0
   44.6780   35.4830   44.9990 C   0  0  0  0  0  0  0  0  0  0  0  0
   45.2400   35.6700   43.6970 C   0  0  0  0  0  0  0  0  0  0  0  0
   46.1960   34.7340   43.2610 C   0  0  0  0  0  0  0  0  0  0  0  0
   46.5210   33.7350   44.0850 N   0  0  0  0  0  0  0  0  0  0  0  0
   45.9760   33.5770   45.3180 C   0  0  0  0  0  0  0  0  0  0  0  0
   45.0710   34.4410   45.7580 N   0  0  0  0  0  0  0  0  0  0  0  0
   43.9460   36.2160   45.3060 H   0  0  0  0  0  0  0  0  0  0  0  0
   44.9400   36.5270   43.1430 H   0  0  0  0  0  0  0  0  0  0  0  0
   46.9410   34.7660   42.0270 C   0  0  0  0  0  0  0  0  0  0  0  0
   48.1400   35.4950   42.0310 C   0  0  0  0  0  0  0  0  0  0  0  0
   48.4490   36.0120   42.9530 H   0  0  0  0  0  0  0  0  0  0  0  0
   48.9890   35.6310   40.9600 C   0  0  0  0  0  3  0  0  0  0  0  0
   48.6610   35.0110   39.7770 C   0  0  0  0  0  3  0  0  0  0  0  0
   47.5010   34.2730   39.6960 C   0  0  0  0  0  0  0  0  0  0  0  0
   47.1720   33.6140   38.5320 C   0  0  0  0  0  3  0  0  0  0  0  0
   46.0290   32.8240   38.4170 C   0  0  0  0  0  3  0  0  0  0  0  0
   45.2400   32.7490   39.5720 C   0  0  0  0  0  3  0  0  0  0  0  0
   45.5920   33.4190   40.7190 C   0  0  0  0  0  3  0  0  0  0  0  0
   46.7070   34.1850   40.8090 C   0  0  0  0  0  0  0  0  0  0  0  0
  1  4  1  6  0  0  0
  1  3  1  0  0  0  0
  1  2  1  0  0  0  0
  2  5  1  0  0  0  0
  2  6  1  0  0  0  0
  3  8  1  0  0  0  0
  3  2  1  0  0  0  0
  3  7  1  1  0  0  0
  8  9  1  0  0  0  0
  9 10  2  0  0  0  0
  9 18  1  0  0  0  0
 10 19  1  0  0  0  0
 11 20  1  0  0  0  0
 11 10  1  0  0  0  0
 12 11  2  0  0  0  0
 13 21  1  0  0  0  0
 13 12  1  0  0  0  0
 14 13  2  0  0  0  0
 15 14  1  0  0  0  0
 15 16  2  0  0  0  0
 16 17  1  0  0  0  0
 17 12  1  0  0  0  0
 17  8  2  0  0  0  0
 22 14  1  0  0  0  0
 23 15  1  0  0  0  0
 24 16  1  0  0  0  0
 25 31  1  0  0  0  0
 25 30  1  0  0  0  0
 26 25  2  0  0  0  0
 27 26  1  0  0  0  0
 27 28  2  0  0  0  0
 28 29  1  0  0  0  0
 29 30  2  0  0  0  0
 29  1  1  0  0  0  0
 32 26  1  0  0  0  0
 33 34  1  0  0  0  0
 33 27  1  0  0  0  0
 34 35  1  0  0  0  0
 36 34  2  0  0  0  0
 37 36  1  0  0  0  0
 38 37  2  0  0  0  0
 38 43  1  0  0  0  0
 39 38  1  0  0  0  0
 40 39  2  0  0  0  0
 40 41  1  0  0  0  0
 41 42  2  0  0  0  0
 42 43  1  0  0  0  0
 43 33  2  0  0  0  0
M  END
>  <minimizedAffinity>
-6.91766119

>  <minimizedRMSD>
0.759918213

$$$$
