
 OpenBabel03252504333D

 42 45  0  0  0  0  0  0  0  0999 V2000
   45.8440   34.9800   42.9390 C   0  0  0  0  0  0  0  0  0  0  0  0
   45.9530   34.0610   43.5610 H   0  0  0  0  0  0  0  0  0  0  0  0
   45.6570   35.8140   43.6500 H   0  0  0  0  0  0  0  0  0  0  0  0
   44.0920   33.4390   42.2430 C   0  0  0  0  0  0  0  0  0  0  0  0
   44.5530   34.7720   42.2120 C   0  0  0  0  0  0  0  0  0  0  0  0
   43.8030   35.6790   41.5450 C   0  0  0  0  0  0  0  0  0  0  0  0
   42.6780   35.2270   40.9660 N   0  0  0  0  0  0  0  0  0  0  0  0
   42.2420   33.9920   40.9900 C   0  0  0  0  0  0  0  0  0  0  0  0
   42.9690   33.0460   41.6520 N   0  0  0  0  0  0  0  0  0  0  0  0
   44.6250   32.6420   42.7520 H   0  0  0  0  0  0  0  0  0  0  0  0
   44.1830   36.6760   41.5440 H   0  0  0  0  0  0  0  0  0  0  0  0
   40.9980   33.7870   40.2750 C   0  0  0  0  0  0  0  0  0  0  0  0
   39.9370   34.5930   40.5220 C   0  0  0  0  0  0  0  0  0  0  0  0
   39.9500   35.4140   41.2440 H   0  0  0  0  0  0  0  0  0  0  0  0
   38.6960   34.4910   39.8960 C   0  0  0  0  0  0  0  0  0  0  0  0
   38.4840   33.5120   38.9520 C   0  0  0  0  0  0  0  0  0  0  0  0
   39.5310   32.6640   38.6630 C   0  0  0  0  0  0  0  0  0  0  0  0
   39.3440   31.6790   37.7220 C   0  0  0  0  0  0  0  0  0  0  0  0
   40.3560   30.7920   37.3850 C   0  0  0  0  0  0  0  0  0  0  0  0
   41.5590   30.9560   38.0460 C   0  0  0  0  0  0  0  0  0  0  0  0
   41.7130   31.9520   38.9820 C   0  0  0  0  0  0  0  0  0  0  0  0
   40.7220   32.8370   39.3260 C   0  0  0  0  0  0  0  0  0  0  0  0
   46.8810   35.3000   42.1080 O   0  0  0  0  0  0  0  0  0  0  0  0
   47.7340   34.4480   41.4260 C   0  0  0  0  0  0  0  0  0  0  0  0
   47.4930   34.3020   40.1270 C   0  0  0  0  0  0  0  0  0  0  0  0
   48.2770   33.4350   39.1640 C   0  0  0  0  0  0  0  0  0  0  0  0
   49.1030   32.9090   39.6560 H   0  0  0  0  0  0  0  0  0  0  0  0
   48.6920   34.1620   38.4210 H   0  0  0  0  0  0  0  0  0  0  0  0
   47.3690   32.5880   38.5480 O   0  0  0  0  0  0  0  0  0  0  0  0
   45.4170   33.3720   36.9320 O   0  0  0  0  0  0  0  0  0  0  0  0
   46.9120   33.1890   37.0400 P   0  0  1  0  0  0  0  0  0  0  0  0
   47.6190   34.7110   36.7640 O   0  0  0  0  0  0  0  0  0  0  0  0
   48.5290   34.6460   37.1200 H   0  0  0  0  0  0  0  0  0  0  0  0
   47.4610   32.1480   35.8300 O   0  0  0  0  0  0  0  0  0  0  0  0
   48.6410   32.5860   35.2620 C   0  0  0  0  0  0  0  0  0  0  0  0
   48.7380   32.7400   33.7780 C   0  0  0  0  0  0  0  0  0  0  0  0
   49.3880   31.5450   34.4580 C   0  0  0  0  0  0  0  0  0  0  0  0
   49.1590   33.3750   35.8160 H   0  0  0  0  0  0  0  0  0  0  0  0
   49.3680   33.5220   33.3430 H   0  0  0  0  0  0  0  0  0  0  0  0
   47.7930   32.4910   33.2480 H   0  0  0  0  0  0  0  0  0  0  0  0
   50.5050   31.6340   34.5380 H   0  0  0  0  0  0  0  0  0  0  0  0
   48.9580   30.5400   34.3490 H   0  0  0  0  0  0  0  0  0  0  0  0
  1  2  1  0  0  0  0
  1  3  1  0  0  0  0
  4 10  1  0  0  0  0
  5  4  1  0  0  0  0
  5  1  1  0  0  0  0
  6  5  2  0  0  0  0
  7  8  2  0  0  0  0
  7  6  1  0  0  0  0
  8  9  1  0  0  0  0
  9  4  2  0  0  0  0
 11  6  1  0  0  0  0
 12 13  1  0  0  0  0
 12  8  1  0  0  0  0
 13 14  1  0  0  0  0
 15 13  2  0  0  0  0
 16 15  1  0  0  0  0
 17 16  2  0  0  0  0
 17 22  1  0  0  0  0
 18 17  1  0  0  0  0
 19 18  2  0  0  0  0
 19 20  1  0  0  0  0
 20 21  2  0  0  0  0
 21 22  1  0  0  0  0
 22 12  2  0  0  0  0
 23  1  1  0  0  0  0
 24 23  1  0  0  0  0
 25 24  2  0  0  0  0
 26 27  1  0  0  0  0
 26 25  1  0  0  0  0
 28 26  1  0  0  0  0
 29 26  1  0  0  0  0
 31 30  2  6  0  0  0
 31 29  1  0  0  0  0
 32 31  1  0  0  0  0
 32 33  1  0  0  0  0
 34 31  1  0  0  0  0
 35 38  1  0  0  0  0
 35 34  1  0  0  0  0
 36 37  1  0  0  0  0
 36 35  1  0  0  0  0
 37 41  1  0  0  0  0
 37 35  1  0  0  0  0
 39 36  1  0  0  0  0
 40 36  1  0  0  0  0
 42 37  1  0  0  0  0
M  END
>  <minimizedAffinity>
-5.72647333

>  <minimizedRMSD>
6.43520546

$$$$
