
 OpenBabel03252505373D

 35 38  0  0  0  0  0  0  0  0999 V2000
   44.5820   35.8180   45.6430 C   0  0  0  0  0  0  0  0  0  0  0  0
   45.2470   35.9190   44.3930 C   0  0  0  0  0  0  0  0  0  0  0  0
   45.8980   34.7940   43.9350 C   0  0  0  0  0  0  0  0  0  0  0  0
   45.8720   33.6590   44.6940 N   0  0  0  0  0  0  0  0  0  0  0  0
   45.2260   33.6070   45.8820 C   0  0  0  0  0  0  0  0  0  0  0  0
   44.5780   34.6920   46.3550 N   0  0  0  0  0  0  0  0  0  0  0  0
   45.2190   32.4240   46.6670 N   0  0  0  0  0  0  0  0  0  0  0  0
   44.0440   36.6370   46.0990 H   0  0  0  0  0  0  0  0  0  0  0  0
   46.1790   32.4490   47.0800 H   0  0  0  0  0  0  0  0  0  0  0  0
   44.4280   31.7400   46.7680 H   0  0  0  0  0  0  0  0  0  0  0  0
   45.1610   37.2390   43.8000 C   0  0  0  0  0  0  0  0  0  0  0  0
   45.1510   37.4050   42.4210 C   0  0  0  0  0  0  0  0  0  0  0  0
   45.1900   36.5890   41.7350 H   0  0  0  0  0  0  0  0  0  0  0  0
   45.0950   38.6260   41.7950 C   0  0  0  0  0  3  0  0  0  0  0  0
   45.0430   39.7850   42.5380 C   0  0  0  0  0  3  0  0  0  0  0  0
   45.0500   39.6890   43.9140 C   0  0  0  0  0  0  0  0  0  0  0  0
   45.0040   40.8360   44.6720 C   0  0  0  0  0  3  0  0  0  0  0  0
   45.0130   40.7860   46.0390 C   0  0  0  0  0  3  0  0  0  0  0  0
   45.0700   39.5440   46.6440 C   0  0  0  0  0  3  0  0  0  0  0  0
   45.1150   38.4160   45.8520 C   0  0  0  0  0  3  0  0  0  0  0  0
   45.1070   38.4370   44.4820 C   0  0  0  0  0  0  0  0  0  0  0  0
   46.6140   34.7480   42.6970 C   0  0  0  0  0  0  0  0  0  0  0  0
   47.9340   35.2170   42.6910 C   0  0  0  0  0  0  0  0  0  0  0  0
   48.7280   35.2080   41.5380 C   0  0  0  0  0  0  0  0  0  0  0  0
   48.2080   34.7270   40.3690 C   0  0  0  0  0  0  0  0  0  0  0  0
   46.9180   34.2680   40.3740 C   0  0  0  0  0  0  0  0  0  0  0  0
   46.1250   34.2740   41.5140 C   0  0  0  0  0  0  0  0  0  0  0  0
   48.3670   35.6020   43.6040 H   0  0  0  0  0  0  0  0  0  0  0  0
   49.7500   35.5890   41.6070 H   0  0  0  0  0  0  0  0  0  0  0  0
   48.7840   34.7020   39.4580 H   0  0  0  0  0  0  0  0  0  0  0  0
   46.4750   33.8760   39.4500 H   0  0  0  0  0  0  0  0  0  0  0  0
   44.7410   33.7660   41.5020 C   0  0  0  0  0  0  0  0  0  0  0  0
   44.5070   33.1870   40.2570 F   0  0  0  0  0  0  0  0  0  0  0  0
   43.8770   34.8240   41.7030 F   0  0  0  0  0  0  0  0  0  0  0  0
   44.4560   32.8450   42.4770 F   0  0  0  0  0  0  0  0  0  0  0  0
  1  8  1  0  0  0  0
  1  6  1  0  0  0  0
  2  1  2  0  0  0  0
  3  2  1  0  0  0  0
  3  4  2  0  0  0  0
  4  5  1  0  0  0  0
  5  6  2  0  0  0  0
  5  7  1  0  0  0  0
  7 10  1  0  0  0  0
  7  9  1  0  0  0  0
 11  2  1  0  0  0  0
 11 21  1  0  0  0  0
 12 11  2  0  0  0  0
 13 12  1  0  0  0  0
 14 12  1  0  0  0  0
 14 15  2  0  0  0  0
 15 16  1  0  0  0  0
 16 21  2  0  0  0  0
 16 17  1  0  0  0  0
 17 18  2  0  0  0  0
 18 19  1  0  0  0  0
 20 19  2  0  0  0  0
 21 20  1  0  0  0  0
 22  3  1  0  0  0  0
 23 22  1  0  0  0  0
 23 28  1  0  0  0  0
 24 29  1  0  0  0  0
 24 23  2  0  0  0  0
 25 26  2  0  0  0  0
 25 24  1  0  0  0  0
 26 27  1  0  0  0  0
 27 22  2  0  0  0  0
 30 25  1  0  0  0  0
 31 26  1  0  0  0  0
 32 27  1  0  0  0  0
 32 34  1  0  0  0  0
 32 35  1  0  0  0  0
 33 32  1  0  0  0  0
M  END
>  <minimizedAffinity>
1.82709229

>  <minimizedRMSD>
1.19463372

$$$$
