
 OpenBabel03252509253D

 29 32  0  0  1  0  0  0  0  0999 V2000
   38.6980   29.3850   42.5840 C   0  0  1  0  0  0  0  0  0  0  0  0
   37.3780   28.9240   43.2600 C   0  0  0  0  0  0  0  0  0  0  0  0
   38.1250   28.1730   42.1190 C   0  0  2  0  0  0  0  0  0  0  0  0
   39.5320   29.4890   43.3030 H   0  0  0  0  0  0  0  0  0  0  0  0
   36.4340   29.3580   42.9480 H   0  0  0  0  0  0  0  0  0  0  0  0
   37.4700   28.4670   44.2770 H   0  0  0  0  0  0  0  0  0  0  0  0
   37.6250   28.1910   41.1070 H   0  0  0  0  0  0  0  0  0  0  0  0
   38.6420   26.8150   42.4160 C   0  0  0  0  0  0  0  0  0  0  0  0
   39.6520   26.7310   43.3530 C   0  0  0  0  0  0  0  0  0  0  0  0
   40.0420   27.6240   43.8420 H   0  0  0  0  0  0  0  0  0  0  0  0
   40.1340   25.4610   43.6300 C   0  0  0  0  0  3  0  0  0  0  0  0
   39.6470   24.3510   43.0190 C   0  0  0  0  0  3  0  0  0  0  0  0
   38.6330   24.4490   42.0820 C   0  0  0  0  0  0  0  0  0  0  0  0
   38.1080   23.3350   41.4350 C   0  0  0  0  0  3  0  0  0  0  0  0
   37.0950   23.5290   40.5120 C   0  0  0  0  0  3  0  0  0  0  0  0
   36.5740   24.7430   40.1910 C   0  0  0  0  0  3  0  0  0  0  0  0
   37.1060   25.8500   40.8420 C   0  0  0  0  0  3  0  0  0  0  0  0
   38.1180   25.6930   41.7700 C   0  0  0  0  0  0  0  0  0  0  0  0
   39.1690   32.7410   40.9500 C   0  0  0  0  0  0  0  0  0  0  0  0
   39.4330   31.6020   41.7700 C   0  0  0  0  0  0  0  0  0  0  0  0
   38.4520   30.6480   41.7860 C   0  0  0  0  0  0  0  0  0  0  0  0
   37.2870   30.7980   41.0500 N   0  0  0  0  0  0  0  0  0  0  0  0
   37.0780   31.8830   40.2940 C   0  0  0  0  0  0  0  0  0  0  0  0
   38.0170   32.8580   40.2400 N   0  0  0  0  0  0  0  0  0  0  0  0
   39.9690   33.4760   40.9610 H   0  0  0  0  0  0  0  0  0  0  0  0
   36.1770   32.0170   39.7140 H   0  0  0  0  0  0  0  0  0  0  0  0
   40.6290   31.4820   42.5350 N   0  0  0  0  0  0  0  0  0  0  0  0
   41.6350   31.5710   42.2050 H   0  0  0  0  0  0  0  0  0  0  0  0
   40.5030   31.2770   43.5680 H   0  0  0  0  0  0  0  0  0  0  0  0
  1  2  1  0  0  0  0
  1  4  1  1  0  0  0
  2  6  1  0  0  0  0
  3  7  1  6  0  0  0
  3  8  1  0  0  0  0
  3  1  1  0  0  0  0
  3  2  1  0  0  0  0
  5  2  1  0  0  0  0
  8  9  1  0  0  0  0
  9 11  2  0  0  0  0
  9 10  1  0  0  0  0
 12 11  1  0  0  0  0
 13 12  2  0  0  0  0
 14 13  1  0  0  0  0
 15 14  2  0  0  0  0
 16 15  1  0  0  0  0
 16 17  2  0  0  0  0
 17 18  1  0  0  0  0
 18 13  1  0  0  0  0
 18  8  2  0  0  0  0
 19 25  1  0  0  0  0
 19 20  1  0  0  0  0
 20 21  2  0  0  0  0
 20 27  1  0  0  0  0
 21  1  1  0  0  0  0
 22 21  1  0  0  0  0
 23 22  2  0  0  0  0
 24 23  1  0  0  0  0
 24 19  2  0  0  0  0
 26 23  1  0  0  0  0
 27 29  1  0  0  0  0
 28 27  1  0  0  0  0
M  END
>  <minimizedAffinity>
-6.10318851

$$$$

 OpenBabel03252509253D

 29 32  0  0  1  0  0  0  0  0999 V2000
   35.8550   29.0080   39.2240 C   0  0  1  0  0  0  0  0  0  0  0  0
   35.0420   28.7940   37.9180 C   0  0  0  0  0  0  0  0  0  0  0  0
   36.2850   27.9670   38.3610 C   0  0  2  0  0  0  0  0  0  0  0  0
   35.2360   28.8980   40.1340 H   0  0  0  0  0  0  0  0  0  0  0  0
   35.2280   29.4290   37.0590 H   0  0  0  0  0  0  0  0  0  0  0  0
   34.0580   28.2720   38.0210 H   0  0  0  0  0  0  0  0  0  0  0  0
   37.2310   28.1440   37.7690 H   0  0  0  0  0  0  0  0  0  0  0  0
   36.0930   26.5180   38.6080 C   0  0  0  0  0  0  0  0  0  0  0  0
   35.4940   25.7940   37.5970 C   0  0  0  0  0  0  0  0  0  0  0  0
   35.1820   26.2750   36.6690 H   0  0  0  0  0  0  0  0  0  0  0  0
   35.3140   24.4400   37.8290 C   0  0  0  0  0  3  0  0  0  0  0  0
   35.7040   23.8440   38.9850 C   0  0  0  0  0  3  0  0  0  0  0  0
   36.3050   24.5800   39.9910 C   0  0  0  0  0  0  0  0  0  0  0  0
   36.7180   24.0060   41.1890 C   0  0  0  0  0  3  0  0  0  0  0  0
   37.3090   24.8210   42.1380 C   0  0  0  0  0  3  0  0  0  0  0  0
   37.5160   26.1560   41.9780 C   0  0  0  0  0  3  0  0  0  0  0  0
   37.1010   26.7200   40.7790 C   0  0  0  0  0  3  0  0  0  0  0  0
   36.5060   25.9350   39.8080 C   0  0  0  0  0  0  0  0  0  0  0  0
   37.2590   32.3690   40.1660 C   0  0  0  0  0  0  0  0  0  0  0  0
   36.5040   31.1590   40.2560 C   0  0  0  0  0  0  0  0  0  0  0  0
   36.5790   30.3360   39.1650 C   0  0  0  0  0  0  0  0  0  0  0  0
   37.3400   30.6730   38.0580 N   0  0  0  0  0  0  0  0  0  0  0  0
   38.0340   31.8170   38.0120 C   0  0  0  0  0  0  0  0  0  0  0  0
   37.9960   32.6690   39.0650 N   0  0  0  0  0  0  0  0  0  0  0  0
   37.1760   32.9960   41.0490 H   0  0  0  0  0  0  0  0  0  0  0  0
   38.6320   32.0960   37.1590 H   0  0  0  0  0  0  0  0  0  0  0  0
   35.7100   30.8470   41.3980 N   0  0  0  0  0  0  0  0  0  0  0  0
   36.0020   30.8290   42.4190 H   0  0  0  0  0  0  0  0  0  0  0  0
   34.6960   30.5990   41.2070 H   0  0  0  0  0  0  0  0  0  0  0  0
  1  4  1  1  0  0  0
  2  6  1  0  0  0  0
  2  3  1  0  0  0  0
  2  1  1  0  0  0  0
  3  7  1  6  0  0  0
  3  8  1  0  0  0  0
  3  1  1  0  0  0  0
  5  2  1  0  0  0  0
  8 18  1  0  0  0  0
  9 11  1  0  0  0  0
  9  8  2  0  0  0  0
 10  9  1  0  0  0  0
 11 12  2  0  0  0  0
 12 13  1  0  0  0  0
 13 14  1  0  0  0  0
 14 15  2  0  0  0  0
 16 15  1  0  0  0  0
 17 16  2  0  0  0  0
 18 13  2  0  0  0  0
 18 17  1  0  0  0  0
 19 20  1  0  0  0  0
 19 25  1  0  0  0  0
 20 27  1  0  0  0  0
 21  1  1  0  0  0  0
 21 20  2  0  0  0  0
 22 21  1  0  0  0  0
 23 22  2  0  0  0  0
 23 24  1  0  0  0  0
 24 19  2  0  0  0  0
 26 23  1  0  0  0  0
 27 28  1  0  0  0  0
 29 27  1  0  0  0  0
M  END
>  <minimizedAffinity>
-6.07359552

$$$$

 OpenBabel03252509253D

 29 32  0  0  1  0  0  0  0  0999 V2000
   36.5660   28.5590   40.0790 C   0  0  1  0  0  0  0  0  0  0  0  0
   36.0510   27.5630   39.0050 C   0  0  0  0  0  0  0  0  0  0  0  0
   37.3970   27.4490   39.7790 C   0  0  2  0  0  0  0  0  0  0  0  0
   35.8750   28.6550   40.9370 H   0  0  0  0  0  0  0  0  0  0  0  0
   36.1740   27.7960   37.9520 H   0  0  0  0  0  0  0  0  0  0  0  0
   35.2510   26.8500   39.3260 H   0  0  0  0  0  0  0  0  0  0  0  0
   38.3310   27.6500   39.1770 H   0  0  0  0  0  0  0  0  0  0  0  0
   37.5890   26.2650   40.6510 C   0  0  0  0  0  0  0  0  0  0  0  0
   36.7970   25.1680   40.3830 C   0  0  0  0  0  0  0  0  0  0  0  0
   36.0710   25.1820   39.5700 H   0  0  0  0  0  0  0  0  0  0  0  0
   36.9770   24.0620   41.1980 C   0  0  0  0  0  3  0  0  0  0  0  0
   37.8820   24.0460   42.2100 C   0  0  0  0  0  3  0  0  0  0  0  0
   38.6720   25.1530   42.4680 C   0  0  0  0  0  0  0  0  0  0  0  0
   39.6100   25.1750   43.4950 C   0  0  0  0  0  3  0  0  0  0  0  0
   40.3540   26.3280   43.6790 C   0  0  0  0  0  3  0  0  0  0  0  0
   40.2300   27.4480   42.9180 C   0  0  0  0  0  3  0  0  0  0  0  0
   39.2910   27.4160   41.8950 C   0  0  0  0  0  3  0  0  0  0  0  0
   38.5290   26.2820   41.6830 C   0  0  0  0  0  0  0  0  0  0  0  0
   36.9110   32.2560   39.4700 C   0  0  0  0  0  0  0  0  0  0  0  0
   36.5290   31.0320   40.1000 C   0  0  0  0  0  0  0  0  0  0  0  0
   36.8840   29.8910   39.4330 C   0  0  0  0  0  0  0  0  0  0  0  0
   37.5670   29.9420   38.2290 N   0  0  0  0  0  0  0  0  0  0  0  0
   37.9080   31.1100   37.6710 C   0  0  0  0  0  0  0  0  0  0  0  0
   37.5820   32.2720   38.2890 N   0  0  0  0  0  0  0  0  0  0  0  0
   36.6140   33.1400   40.0280 H   0  0  0  0  0  0  0  0  0  0  0  0
   38.4400   31.1700   36.7340 H   0  0  0  0  0  0  0  0  0  0  0  0
   35.8060   31.0070   41.3280 N   0  0  0  0  0  0  0  0  0  0  0  0
   36.0450   31.4910   42.2430 H   0  0  0  0  0  0  0  0  0  0  0  0
   34.9140   30.4330   41.3320 H   0  0  0  0  0  0  0  0  0  0  0  0
  1  4  1  1  0  0  0
  2  6  1  0  0  0  0
  2  3  1  0  0  0  0
  2  1  1  0  0  0  0
  3  7  1  6  0  0  0
  3  1  1  0  0  0  0
  3  8  1  0  0  0  0
  5  2  1  0  0  0  0
  8 18  1  0  0  0  0
  9  8  2  0  0  0  0
  9 11  1  0  0  0  0
 10  9  1  0  0  0  0
 11 12  2  0  0  0  0
 12 13  1  0  0  0  0
 13 14  1  0  0  0  0
 14 15  2  0  0  0  0
 16 15  1  0  0  0  0
 17 16  2  0  0  0  0
 18 17  1  0  0  0  0
 18 13  2  0  0  0  0
 19 25  1  0  0  0  0
 19 20  1  0  0  0  0
 20 27  1  0  0  0  0
 21  1  1  0  0  0  0
 21 20  2  0  0  0  0
 22 21  1  0  0  0  0
 23 22  2  0  0  0  0
 23 24  1  0  0  0  0
 24 19  2  0  0  0  0
 26 23  1  0  0  0  0
 27 29  1  0  0  0  0
 27 28  1  0  0  0  0
M  END
>  <minimizedAffinity>
-6.03800297

$$$$

 OpenBabel03252509253D

 29 32  0  0  1  0  0  0  0  0999 V2000
   38.4940   31.2960   40.9830 C   0  0  1  0  0  0  0  0  0  0  0  0
   37.1130   31.1020   40.3010 C   0  0  0  0  0  0  0  0  0  0  0  0
   38.1550   29.9790   40.5770 C   0  0  2  0  0  0  0  0  0  0  0  0
   38.4110   31.7140   42.0030 H   0  0  0  0  0  0  0  0  0  0  0  0
   36.9950   31.3360   39.2480 H   0  0  0  0  0  0  0  0  0  0  0  0
   36.2180   31.1020   40.9730 H   0  0  0  0  0  0  0  0  0  0  0  0
   38.6850   29.5650   39.6700 H   0  0  0  0  0  0  0  0  0  0  0  0
   37.7540   28.8800   41.4880 C   0  0  0  0  0  0  0  0  0  0  0  0
   37.6650   29.1930   42.8290 C   0  0  0  0  0  0  0  0  0  0  0  0
   37.8810   30.2000   43.1880 H   0  0  0  0  0  0  0  0  0  0  0  0
   37.2900   28.1650   43.6800 C   0  0  0  0  0  3  0  0  0  0  0  0
   37.0210   26.9130   43.2300 C   0  0  0  0  0  3  0  0  0  0  0  0
   37.1130   26.6120   41.8820 C   0  0  0  0  0  0  0  0  0  0  0  0
   36.8470   25.3410   41.3840 C   0  0  0  0  0  3  0  0  0  0  0  0
   36.9660   25.1330   40.0210 C   0  0  0  0  0  3  0  0  0  0  0  0
   37.3290   26.0930   39.1280 C   0  0  0  0  0  3  0  0  0  0  0  0
   37.5930   27.3590   39.6360 C   0  0  0  0  0  3  0  0  0  0  0  0
   37.4850   27.6020   40.9930 C   0  0  0  0  0  0  0  0  0  0  0  0
   40.4720   34.1470   39.5300 C   0  0  0  0  0  0  0  0  0  0  0  0
   39.5580   33.4430   40.3730 C   0  0  0  0  0  0  0  0  0  0  0  0
   39.3990   32.1140   40.0870 C   0  0  0  0  0  0  0  0  0  0  0  0
   40.0870   31.5120   39.0460 N   0  0  0  0  0  0  0  0  0  0  0  0
   40.9360   32.2080   38.2790 C   0  0  0  0  0  0  0  0  0  0  0  0
   41.1320   33.5270   38.5180 N   0  0  0  0  0  0  0  0  0  0  0  0
   40.5740   35.1980   39.7870 H   0  0  0  0  0  0  0  0  0  0  0  0
   41.4800   31.7570   37.4640 H   0  0  0  0  0  0  0  0  0  0  0  0
   38.8450   34.0910   41.4230 N   0  0  0  0  0  0  0  0  0  0  0  0
   39.2330   34.6850   42.2140 H   0  0  0  0  0  0  0  0  0  0  0  0
   37.7920   33.9650   41.4180 H   0  0  0  0  0  0  0  0  0  0  0  0
  1  4  1  1  0  0  0
  2  3  1  0  0  0  0
  2  6  1  0  0  0  0
  2  1  1  0  0  0  0
  3  7  1  6  0  0  0
  3  1  1  0  0  0  0
  3  8  1  0  0  0  0
  5  2  1  0  0  0  0
  8  9  1  0  0  0  0
  9 10  1  0  0  0  0
  9 11  2  0  0  0  0
 12 11  1  0  0  0  0
 13 12  2  0  0  0  0
 14 13  1  0  0  0  0
 15 14  2  0  0  0  0
 16 17  2  0  0  0  0
 16 15  1  0  0  0  0
 17 18  1  0  0  0  0
 18  8  2  0  0  0  0
 18 13  1  0  0  0  0
 19 25  1  0  0  0  0
 19 20  1  0  0  0  0
 20 27  1  0  0  0  0
 21 20  2  0  0  0  0
 21  1  1  0  0  0  0
 22 21  1  0  0  0  0
 23 24  1  0  0  0  0
 23 22  2  0  0  0  0
 24 19  2  0  0  0  0
 26 23  1  0  0  0  0
 27 28  1  0  0  0  0
 29 27  1  0  0  0  0
M  END
>  <minimizedAffinity>
-5.88147211

$$$$

 OpenBabel03252509253D

 29 32  0  0  1  0  0  0  0  0999 V2000
   35.9740   29.3170   38.8200 C   0  0  1  0  0  0  0  0  0  0  0  0
   34.6630   29.0480   39.6060 C   0  0  0  0  0  0  0  0  0  0  0  0
   35.8580   28.0600   39.4680 C   0  0  2  0  0  0  0  0  0  0  0  0
   36.5200   30.2040   39.1920 H   0  0  0  0  0  0  0  0  0  0  0  0
   33.7720   28.7290   39.0750 H   0  0  0  0  0  0  0  0  0  0  0  0
   34.5660   29.5460   40.6030 H   0  0  0  0  0  0  0  0  0  0  0  0
   35.6780   27.1560   38.8150 H   0  0  0  0  0  0  0  0  0  0  0  0
   36.5720   27.6680   40.7070 C   0  0  0  0  0  0  0  0  0  0  0  0
   36.8530   28.6800   41.6020 C   0  0  0  0  0  0  0  0  0  0  0  0
   36.5630   29.7100   41.3970 H   0  0  0  0  0  0  0  0  0  0  0  0
   37.5200   28.3120   42.7600 C   0  0  0  0  0  3  0  0  0  0  0  0
   37.8810   27.0290   43.0130 C   0  0  0  0  0  3  0  0  0  0  0  0
   37.5920   26.0220   42.1080 C   0  0  0  0  0  0  0  0  0  0  0  0
   37.9460   24.6960   42.3320 C   0  0  0  0  0  3  0  0  0  0  0  0
   37.6150   23.7570   41.3690 C   0  0  0  0  0  3  0  0  0  0  0  0
   36.9630   24.0460   40.2110 C   0  0  0  0  0  3  0  0  0  0  0  0
   36.6140   25.3740   39.9980 C   0  0  0  0  0  3  0  0  0  0  0  0
   36.9290   26.3370   40.9370 C   0  0  0  0  0  0  0  0  0  0  0  0
   36.3660   29.7580   35.1040 C   0  0  0  0  0  0  0  0  0  0  0  0
   36.6890   29.7670   36.4960 C   0  0  0  0  0  0  0  0  0  0  0  0
   35.6770   29.3920   37.3380 C   0  0  0  0  0  0  0  0  0  0  0  0
   34.4310   29.0330   36.8520 N   0  0  0  0  0  0  0  0  0  0  0  0
   34.1670   29.0380   35.5390 C   0  0  0  0  0  0  0  0  0  0  0  0
   35.1330   29.4000   34.6610 N   0  0  0  0  0  0  0  0  0  0  0  0
   37.1920   30.0600   34.4670 H   0  0  0  0  0  0  0  0  0  0  0  0
   33.2020   28.7610   35.1430 H   0  0  0  0  0  0  0  0  0  0  0  0
   37.9730   30.1620   36.9710 N   0  0  0  0  0  0  0  0  0  0  0  0
   38.9270   29.7990   36.6750 H   0  0  0  0  0  0  0  0  0  0  0  0
   37.9820   30.9170   37.7170 H   0  0  0  0  0  0  0  0  0  0  0  0
  1  4  1  1  0  0  0
  1  3  1  0  0  0  0
  1  2  1  0  0  0  0
  2  6  1  0  0  0  0
  3  7  1  6  0  0  0
  3  2  1  0  0  0  0
  3  8  1  0  0  0  0
  5  2  1  0  0  0  0
  8 18  2  0  0  0  0
  8  9  1  0  0  0  0
  9 11  2  0  0  0  0
 10  9  1  0  0  0  0
 11 12  1  0  0  0  0
 13 14  1  0  0  0  0
 13 12  2  0  0  0  0
 15 14  2  0  0  0  0
 16 15  1  0  0  0  0
 17 16  2  0  0  0  0
 17 18  1  0  0  0  0
 18 13  1  0  0  0  0
 19 20  1  0  0  0  0
 20 27  1  0  0  0  0
 20 21  2  0  0  0  0
 21  1  1  0  0  0  0
 22 21  1  0  0  0  0
 23 22  2  0  0  0  0
 24 19  2  0  0  0  0
 24 23  1  0  0  0  0
 25 19  1  0  0  0  0
 26 23  1  0  0  0  0
 27 29  1  0  0  0  0
 28 27  1  0  0  0  0
M  END
>  <minimizedAffinity>
-5.68258286

$$$$

 OpenBabel03252509253D

 29 32  0  0  1  0  0  0  0  0999 V2000
   36.9250   29.5230   41.4280 C   0  0  1  0  0  0  0  0  0  0  0  0
   35.5930   29.3060   40.6610 C   0  0  0  0  0  0  0  0  0  0  0  0
   36.9010   28.4860   40.4600 C   0  0  2  0  0  0  0  0  0  0  0  0
   36.8110   29.4090   42.5230 H   0  0  0  0  0  0  0  0  0  0  0  0
   35.3460   29.9440   39.8190 H   0  0  0  0  0  0  0  0  0  0  0  0
   34.7760   28.7790   41.2160 H   0  0  0  0  0  0  0  0  0  0  0  0
   37.4530   28.6680   39.4930 H   0  0  0  0  0  0  0  0  0  0  0  0
   36.8540   27.0350   40.7640 C   0  0  0  0  0  0  0  0  0  0  0  0
   37.1680   26.6650   42.0550 C   0  0  0  0  0  0  0  0  0  0  0  0
   37.4370   27.4100   42.8050 H   0  0  0  0  0  0  0  0  0  0  0  0
   37.1240   25.3090   42.3380 C   0  0  0  0  0  3  0  0  0  0  0  0
   36.7900   24.3840   41.4030 C   0  0  0  0  0  3  0  0  0  0  0  0
   36.4750   24.7680   40.1110 C   0  0  0  0  0  0  0  0  0  0  0  0
   36.1280   23.8490   39.1250 C   0  0  0  0  0  3  0  0  0  0  0  0
   35.8290   24.3260   37.8610 C   0  0  0  0  0  3  0  0  0  0  0  0
   35.8520   25.6400   37.5130 C   0  0  0  0  0  3  0  0  0  0  0  0
   36.2000   26.5500   38.5040 C   0  0  0  0  0  3  0  0  0  0  0  0
   36.5050   26.1090   39.7790 C   0  0  0  0  0  0  0  0  0  0  0  0
   39.3300   32.3900   41.0360 C   0  0  0  0  0  0  0  0  0  0  0  0
   38.7890   31.1470   41.4880 C   0  0  0  0  0  0  0  0  0  0  0  0
   37.5300   30.8550   41.0390 C   0  0  0  0  0  0  0  0  0  0  0  0
   36.8430   31.7210   40.2030 N   0  0  0  0  0  0  0  0  0  0  0  0
   37.3850   32.8770   39.8020 C   0  0  0  0  0  0  0  0  0  0  0  0
   38.6300   33.2170   40.2160 N   0  0  0  0  0  0  0  0  0  0  0  0
   40.3300   32.5880   41.4110 H   0  0  0  0  0  0  0  0  0  0  0  0
   36.8650   33.5640   39.1520 H   0  0  0  0  0  0  0  0  0  0  0  0
   39.5080   30.2850   42.3660 N   0  0  0  0  0  0  0  0  0  0  0  0
   40.4920   29.9020   42.2540 H   0  0  0  0  0  0  0  0  0  0  0  0
   38.9970   29.9850   43.2460 H   0  0  0  0  0  0  0  0  0  0  0  0
  1  4  1  1  0  0  0
  2  6  1  0  0  0  0
  2  1  1  0  0  0  0
  3  7  1  6  0  0  0
  3  2  1  0  0  0  0
  3  8  1  0  0  0  0
  3  1  1  0  0  0  0
  5  2  1  0  0  0  0
  8  9  1  0  0  0  0
  9 11  2  0  0  0  0
  9 10  1  0  0  0  0
 12 11  1  0  0  0  0
 13 12  2  0  0  0  0
 14 13  1  0  0  0  0
 15 14  2  0  0  0  0
 16 15  1  0  0  0  0
 16 17  2  0  0  0  0
 17 18  1  0  0  0  0
 18 13  1  0  0  0  0
 18  8  2  0  0  0  0
 19 25  1  0  0  0  0
 19 20  1  0  0  0  0
 20 27  1  0  0  0  0
 21  1  1  0  0  0  0
 21 20  2  0  0  0  0
 22 21  1  0  0  0  0
 23 22  2  0  0  0  0
 23 24  1  0  0  0  0
 24 19  2  0  0  0  0
 26 23  1  0  0  0  0
 27 29  1  0  0  0  0
 28 27  1  0  0  0  0
M  END
>  <minimizedAffinity>
-5.60958052

$$$$

 OpenBabel03252509253D

 29 32  0  0  1  0  0  0  0  0999 V2000
   38.3110   32.1630   40.3850 C   0  0  1  0  0  0  0  0  0  0  0  0
   37.4150   33.0800   39.5110 C   0  0  0  0  0  0  0  0  0  0  0  0
   37.7660   31.5950   39.2050 C   0  0  2  0  0  0  0  0  0  0  0  0
   37.9240   32.0450   41.4150 H   0  0  0  0  0  0  0  0  0  0  0  0
   37.8730   33.7850   38.8250 H   0  0  0  0  0  0  0  0  0  0  0  0
   36.3730   33.2610   39.8790 H   0  0  0  0  0  0  0  0  0  0  0  0
   38.4720   31.4230   38.3400 H   0  0  0  0  0  0  0  0  0  0  0  0
   36.6490   30.6200   39.1620 C   0  0  0  0  0  0  0  0  0  0  0  0
   36.0390   30.3290   40.3650 C   0  0  0  0  0  0  0  0  0  0  0  0
   36.3710   30.7960   41.2930 H   0  0  0  0  0  0  0  0  0  0  0  0
   34.9960   29.4180   40.3240 C   0  0  0  0  0  3  0  0  0  0  0  0
   34.5850   28.8370   39.1680 C   0  0  0  0  0  3  0  0  0  0  0  0
   35.2040   29.1390   37.9680 C   0  0  0  0  0  0  0  0  0  0  0  0
   34.8110   28.5640   36.7630 C   0  0  0  0  0  3  0  0  0  0  0  0
   35.4900   28.9260   35.6120 C   0  0  0  0  0  3  0  0  0  0  0  0
   36.5220   29.8110   35.5780 C   0  0  0  0  0  3  0  0  0  0  0  0
   36.9060   30.3800   36.7860 C   0  0  0  0  0  3  0  0  0  0  0  0
   36.2510   30.0410   37.9560 C   0  0  0  0  0  0  0  0  0  0  0  0
   41.9380   32.7060   41.2270 C   0  0  0  0  0  0  0  0  0  0  0  0
   40.5870   32.2570   41.3480 C   0  0  0  0  0  0  0  0  0  0  0  0
   39.7410   32.6590   40.3510 C   0  0  0  0  0  0  0  0  0  0  0  0
   40.1850   33.4490   39.3030 N   0  0  0  0  0  0  0  0  0  0  0  0
   41.4600   33.8500   39.2250 C   0  0  0  0  0  0  0  0  0  0  0  0
   42.3410   33.4800   40.1850 N   0  0  0  0  0  0  0  0  0  0  0  0
   42.5800   32.3670   42.0340 H   0  0  0  0  0  0  0  0  0  0  0  0
   41.8240   34.4660   38.4170 H   0  0  0  0  0  0  0  0  0  0  0  0
   40.1500   31.4620   42.4480 N   0  0  0  0  0  0  0  0  0  0  0  0
   40.5650   30.5540   42.8110 H   0  0  0  0  0  0  0  0  0  0  0  0
   39.3030   31.8220   42.9750 H   0  0  0  0  0  0  0  0  0  0  0  0
  1  4  1  1  0  0  0
  2  6  1  0  0  0  0
  2  1  1  0  0  0  0
  3  7  1  6  0  0  0
  3  2  1  0  0  0  0
  3  1  1  0  0  0  0
  5  2  1  0  0  0  0
  8  3  1  0  0  0  0
  8  9  1  0  0  0  0
  9 10  1  0  0  0  0
 11  9  2  0  0  0  0
 12 11  1  0  0  0  0
 13 12  2  0  0  0  0
 14 13  1  0  0  0  0
 15 14  2  0  0  0  0
 16 15  1  0  0  0  0
 16 17  2  0  0  0  0
 17 18  1  0  0  0  0
 18 13  1  0  0  0  0
 18  8  2  0  0  0  0
 19 20  1  0  0  0  0
 19 25  1  0  0  0  0
 20 27  1  0  0  0  0
 21  1  1  0  0  0  0
 21 20  2  0  0  0  0
 22 21  1  0  0  0  0
 23 22  2  0  0  0  0
 23 24  1  0  0  0  0
 24 19  2  0  0  0  0
 26 23  1  0  0  0  0
 27 28  1  0  0  0  0
 27 29  1  0  0  0  0
M  END
>  <minimizedAffinity>
-5.56175709

$$$$

 OpenBabel03252509253D

 29 32  0  0  1  0  0  0  0  0999 V2000
   37.2360   29.6350   37.8760 C   0  0  1  0  0  0  0  0  0  0  0  0
   37.3650   31.1820   37.8310 C   0  0  0  0  0  0  0  0  0  0  0  0
   36.9190   30.3430   39.0650 C   0  0  2  0  0  0  0  0  0  0  0  0
   38.1890   29.1210   37.6480 H   0  0  0  0  0  0  0  0  0  0  0  0
   36.5660   31.7760   37.3990 H   0  0  0  0  0  0  0  0  0  0  0  0
   38.4010   31.6000   37.8850 H   0  0  0  0  0  0  0  0  0  0  0  0
   35.8280   30.4200   39.3450 H   0  0  0  0  0  0  0  0  0  0  0  0
   37.7700   30.4010   40.2780 C   0  0  0  0  0  0  0  0  0  0  0  0
   38.7630   31.3590   40.2890 C   0  0  0  0  0  0  0  0  0  0  0  0
   38.9060   32.0320   39.4430 H   0  0  0  0  0  0  0  0  0  0  0  0
   39.5580   31.4120   41.4230 C   0  0  0  0  0  3  0  0  0  0  0  0
   39.3790   30.5730   42.4740 C   0  0  0  0  0  3  0  0  0  0  0  0
   38.3780   29.6170   42.4520 C   0  0  0  0  0  0  0  0  0  0  0  0
   38.1640   28.7390   43.5090 C   0  0  0  0  0  3  0  0  0  0  0  0
   37.1390   27.8140   43.3970 C   0  0  0  0  0  3  0  0  0  0  0  0
   36.3220   27.7050   42.3160 C   0  0  0  0  0  3  0  0  0  0  0  0
   36.5440   28.5870   41.2650 C   0  0  0  0  0  3  0  0  0  0  0  0
   37.5590   29.5220   41.3430 C   0  0  0  0  0  0  0  0  0  0  0  0
   35.3050   28.1880   34.9910 C   0  0  0  0  0  0  0  0  0  0  0  0
   36.4150   28.6490   35.7630 C   0  0  0  0  0  0  0  0  0  0  0  0
   36.1010   29.1890   36.9810 C   0  0  0  0  0  0  0  0  0  0  0  0
   34.7880   29.2740   37.4160 N   0  0  0  0  0  0  0  0  0  0  0  0
   33.7750   28.8310   36.6610 C   0  0  0  0  0  0  0  0  0  0  0  0
   34.0280   28.2860   35.4470 N   0  0  0  0  0  0  0  0  0  0  0  0
   35.5910   27.7650   34.0320 H   0  0  0  0  0  0  0  0  0  0  0  0
   32.7460   28.8890   36.9830 H   0  0  0  0  0  0  0  0  0  0  0  0
   37.7540   28.5690   35.2830 N   0  0  0  0  0  0  0  0  0  0  0  0
   38.2710   27.7200   34.9080 H   0  0  0  0  0  0  0  0  0  0  0  0
   38.3100   29.4730   35.3020 H   0  0  0  0  0  0  0  0  0  0  0  0
  1  4  1  6  0  0  0
  1  3  1  0  0  0  0
  2  1  1  0  0  0  0
  2  6  1  0  0  0  0
  2  3  1  0  0  0  0
  3  7  1  1  0  0  0
  3  8  1  0  0  0  0
  5  2  1  0  0  0  0
  8  9  2  0  0  0  0
  8 18  1  0  0  0  0
  9 11  1  0  0  0  0
 10  9  1  0  0  0  0
 11 12  2  0  0  0  0
 13 12  1  0  0  0  0
 13 14  1  0  0  0  0
 15 14  2  0  0  0  0
 16 15  1  0  0  0  0
 17 18  1  0  0  0  0
 17 16  2  0  0  0  0
 18 13  2  0  0  0  0
 19 24  2  0  0  0  0
 19 20  1  0  0  0  0
 20 21  2  0  0  0  0
 21 22  1  0  0  0  0
 21  1  1  0  0  0  0
 23 26  1  0  0  0  0
 23 22  2  0  0  0  0
 24 23  1  0  0  0  0
 25 19  1  0  0  0  0
 27 29  1  0  0  0  0
 27 20  1  0  0  0  0
 28 27  1  0  0  0  0
M  END
>  <minimizedAffinity>
-5.53475952

$$$$

 OpenBabel03252509253D

 29 32  0  0  1  0  0  0  0  0999 V2000
   40.0350   29.7460   38.1890 C   0  0  1  0  0  0  0  0  0  0  0  0
   40.4790   28.4260   38.8750 C   0  0  0  0  0  0  0  0  0  0  0  0
   39.6510   29.5630   39.5430 C   0  0  2  0  0  0  0  0  0  0  0  0
   39.4070   29.5710   37.2950 H   0  0  0  0  0  0  0  0  0  0  0  0
   41.4870   28.3360   39.2670 H   0  0  0  0  0  0  0  0  0  0  0  0
   39.9030   27.5050   38.6090 H   0  0  0  0  0  0  0  0  0  0  0  0
   40.1920   30.1750   40.3220 H   0  0  0  0  0  0  0  0  0  0  0  0
   38.2810   29.2320   40.0050 C   0  0  0  0  0  0  0  0  0  0  0  0
   37.2490   29.5310   39.1390 C   0  0  0  0  0  0  0  0  0  0  0  0
   37.4430   29.9880   38.1680 H   0  0  0  0  0  0  0  0  0  0  0  0
   35.9690   29.2210   39.5720 C   0  0  0  0  0  3  0  0  0  0  0  0
   35.7300   28.6530   40.7810 C   0  0  0  0  0  3  0  0  0  0  0  0
   36.7740   28.3560   41.6410 C   0  0  0  0  0  0  0  0  0  0  0  0
   36.5700   27.7740   42.8870 C   0  0  0  0  0  3  0  0  0  0  0  0
   37.6750   27.5150   43.6800 C   0  0  0  0  0  3  0  0  0  0  0  0
   38.9560   27.7920   43.3200 C   0  0  0  0  0  3  0  0  0  0  0  0
   39.1500   28.3730   42.0730 C   0  0  0  0  0  3  0  0  0  0  0  0
   38.0690   28.6470   41.2560 C   0  0  0  0  0  0  0  0  0  0  0  0
   42.2180   32.6190   37.1260 C   0  0  0  0  0  0  0  0  0  0  0  0
   41.0430   31.8300   37.3200 C   0  0  0  0  0  0  0  0  0  0  0  0
   41.2460   30.6050   37.8960 C   0  0  0  0  0  0  0  0  0  0  0  0
   42.5130   30.1780   38.2580 N   0  0  0  0  0  0  0  0  0  0  0  0
   43.5900   30.9490   38.0580 C   0  0  0  0  0  0  0  0  0  0  0  0
   43.4470   32.1720   37.4930 N   0  0  0  0  0  0  0  0  0  0  0  0
   42.0190   33.5840   36.6680 H   0  0  0  0  0  0  0  0  0  0  0  0
   44.5850   30.6340   38.3330 H   0  0  0  0  0  0  0  0  0  0  0  0
   39.7530   32.2830   36.9180 N   0  0  0  0  0  0  0  0  0  0  0  0
   39.2700   33.1970   37.1620 H   0  0  0  0  0  0  0  0  0  0  0  0
   39.2010   31.6240   36.2960 H   0  0  0  0  0  0  0  0  0  0  0  0
  1  4  1  6  0  0  0
  1  2  1  0  0  0  0
  1  3  1  0  0  0  0
  2  5  1  0  0  0  0
  2  3  1  0  0  0  0
  3  8  1  0  0  0  0
  3  7  1  1  0  0  0
  6  2  1  0  0  0  0
  8 18  1  0  0  0  0
  9 11  1  0  0  0  0
  9  8  2  0  0  0  0
 10  9  1  0  0  0  0
 11 12  2  0  0  0  0
 12 13  1  0  0  0  0
 13 14  1  0  0  0  0
 14 15  2  0  0  0  0
 16 15  1  0  0  0  0
 17 16  2  0  0  0  0
 18 13  2  0  0  0  0
 18 17  1  0  0  0  0
 19 20  2  0  0  0  0
 19 24  1  0  0  0  0
 20 21  1  0  0  0  0
 21  1  1  0  0  0  0
 21 22  2  0  0  0  0
 23 22  1  0  0  0  0
 23 26  1  0  0  0  0
 24 23  2  0  0  0  0
 25 19  1  0  0  0  0
 27 28  1  0  0  0  0
 27 20  1  0  0  0  0
 29 27  1  0  0  0  0
M  END
>  <minimizedAffinity>
-5.50136089

$$$$
