
 OpenBabel03252507263D

 29 32  0  0  0  0  0  0  0  0999 V2000
   46.0230   33.5500   45.6050 C   0  0  0  0  0  0  0  0  0  0  0  0
   45.0040   34.4480   45.9310 C   0  0  0  0  0  0  0  0  0  0  0  0
   44.6400   35.4020   44.9820 C   0  0  0  0  0  0  0  0  0  0  0  0
   45.2960   35.4130   43.7780 N   0  0  0  0  0  0  0  0  0  0  0  0
   46.2620   34.5420   43.4950 C   0  0  0  0  0  0  0  0  0  0  0  0
   46.6010   33.6410   44.4020 N   0  0  0  0  0  0  0  0  0  0  0  0
   44.4500   34.4410   46.8280 H   0  0  0  0  0  0  0  0  0  0  0  0
   43.8610   36.1090   45.2050 H   0  0  0  0  0  0  0  0  0  0  0  0
   46.4970   32.4450   46.4130 C   0  0  0  0  0  0  0  0  0  0  0  0
   47.2150   32.7510   47.5760 C   0  0  0  0  0  0  0  0  0  0  0  0
   47.4110   33.7910   47.8420 H   0  0  0  0  0  0  0  0  0  0  0  0
   47.7210   31.8280   48.4590 C   0  0  0  0  0  3  0  0  0  0  0  0
   47.5290   30.4860   48.2190 C   0  0  0  0  0  3  0  0  0  0  0  0
   46.8340   30.1170   47.1010 C   0  0  0  0  0  0  0  0  0  0  0  0
   46.5850   28.7860   46.8410 C   0  0  0  0  0  3  0  0  0  0  0  0
   45.8470   28.3460   45.7380 C   0  0  0  0  0  3  0  0  0  0  0  0
   45.3710   29.3670   44.9060 C   0  0  0  0  0  3  0  0  0  0  0  0
   45.6300   30.6690   45.1830 C   0  0  0  0  0  3  0  0  0  0  0  0
   46.3580   31.0920   46.2660 C   0  0  0  0  0  0  0  0  0  0  0  0
   46.9370   34.5840   42.1980 C   0  0  0  0  0  0  0  0  0  0  0  0
   48.0630   35.3460   42.0390 C   0  0  0  0  0  0  0  0  0  0  0  0
   48.7720   35.4560   40.8540 C   0  0  0  0  0  0  0  0  0  0  0  0
   48.2430   34.7130   39.8060 C   0  0  0  0  0  0  0  0  0  0  0  0
   47.1030   33.9360   39.9550 C   0  0  0  0  0  0  0  0  0  0  0  0
   46.4680   33.8870   41.1600 N   0  0  0  0  0  0  0  0  0  0  0  0
   48.4270   35.9070   42.9070 H   0  0  0  0  0  0  0  0  0  0  0  0
   49.6560   36.0490   40.7130 H   0  0  0  0  0  0  0  0  0  0  0  0
   48.7350   34.7370   38.8330 H   0  0  0  0  0  0  0  0  0  0  0  0
   46.7530   33.3850   39.0860 H   0  0  0  0  0  0  0  0  0  0  0  0
  1  2  1  0  0  0  0
  1  9  1  0  0  0  0
  2  7  1  0  0  0  0
  3  8  1  0  0  0  0
  3  2  2  0  0  0  0
  4  3  1  0  0  0  0
  5  4  2  0  0  0  0
  5  6  1  0  0  0  0
  6  1  2  0  0  0  0
  9 10  1  0  0  0  0
 10 11  1  0  0  0  0
 10 12  2  0  0  0  0
 13 12  1  0  0  0  0
 14 13  2  0  0  0  0
 15 14  1  0  0  0  0
 16 15  2  0  0  0  0
 17 18  2  0  0  0  0
 17 16  1  0  0  0  0
 18 19  1  0  0  0  0
 19  9  2  0  0  0  0
 19 14  1  0  0  0  0
 20  5  1  0  0  0  0
 21 20  1  0  0  0  0
 21 26  1  0  0  0  0
 22 21  2  0  0  0  0
 23 24  2  0  0  0  0
 23 22  1  0  0  0  0
 24 25  1  0  0  0  0
 25 20  2  0  0  0  0
 27 22  1  0  0  0  0
 28 23  1  0  0  0  0
 29 24  1  0  0  0  0
M  END
>  <minimizedAffinity>
-6.32725763

>  <minimizedRMSD>
2.56139541

$$$$
