
 OpenBabel03252501573D

 33 36  0  0  0  0  0  0  0  0999 V2000
   45.0340   34.9010   44.5210 C   0  0  0  0  0  0  0  0  0  0  0  0
   46.0930   34.6060   43.6450 C   0  0  0  0  0  0  0  0  0  0  0  0
   47.0430   33.6940   44.1070 C   0  0  0  0  0  0  0  0  0  0  0  0
   46.9040   33.1410   45.3550 N   0  0  0  0  0  0  0  0  0  0  0  0
   45.8640   33.4660   46.1440 C   0  0  0  0  0  0  0  0  0  0  0  0
   44.9140   34.3430   45.7510 N   0  0  0  0  0  0  0  0  0  0  0  0
   44.2690   35.6090   44.2020 H   0  0  0  0  0  0  0  0  0  0  0  0
   45.7010   33.0680   47.1300 H   0  0  0  0  0  0  0  0  0  0  0  0
   48.1470   33.3530   43.2310 C   0  0  0  0  0  0  0  0  0  0  0  0
   49.1860   34.1270   42.8020 C   0  0  0  0  0  0  0  0  0  0  0  0
   50.1540   33.6380   41.9580 C   0  0  0  0  0  0  0  0  0  0  0  0
   50.0740   32.3370   41.5380 C   0  0  0  0  0  0  0  0  0  0  0  0
   49.0470   31.5200   41.9450 C   0  0  0  0  0  0  0  0  0  0  0  0
   48.0740   32.0310   42.7990 C   0  0  0  0  0  0  0  0  0  0  0  0
   49.1910   35.1370   43.1780 H   0  0  0  0  0  0  0  0  0  0  0  0
   50.9670   34.2500   41.6250 H   0  0  0  0  0  0  0  0  0  0  0  0
   50.8260   31.9280   40.8740 H   0  0  0  0  0  0  0  0  0  0  0  0
   49.0170   30.4850   41.5880 H   0  0  0  0  0  0  0  0  0  0  0  0
   47.3160   31.3230   43.0590 H   0  0  0  0  0  0  0  0  0  0  0  0
   46.1280   35.2560   42.3480 C   0  0  0  0  0  0  0  0  0  0  0  0
   47.1760   35.6040   42.1310 H   0  0  0  0  0  0  0  0  0  0  0  0
   45.5490   36.2250   42.3860 H   0  0  0  0  0  0  0  0  0  0  0  0
   45.6220   34.5030   41.2060 C   0  0  0  0  0  0  0  0  0  0  0  0
   46.2810   33.6620   40.3680 C   0  0  0  0  0  0  0  0  0  0  0  0
   47.3510   33.5430   40.6130 H   0  0  0  0  0  0  0  0  0  0  0  0
   45.7660   32.9790   39.2980 C   0  0  0  0  0  0  0  0  0  0  0  0
   44.4190   33.1660   39.0380 C   0  0  0  0  0  0  0  0  0  0  0  0
   43.6940   34.0160   39.8630 C   0  0  0  0  0  0  0  0  0  0  0  0
   42.3550   34.1220   39.5000 C   0  0  0  0  0  0  0  0  0  0  0  0
   41.5310   34.9430   40.2480 C   0  0  0  0  0  0  0  0  0  0  0  0
   42.1150   35.6000   41.3100 C   0  0  0  0  0  0  0  0  0  0  0  0
   43.4430   35.4980   41.6750 C   0  0  0  0  0  0  0  0  0  0  0  0
   44.2610   34.6760   40.9250 C   0  0  0  0  0  0  0  0  0  0  0  0
  1  6  1  0  0  0  0
  2  3  1  0  0  0  0
  2  1  2  0  0  0  0
  3  4  2  0  0  0  0
  4  5  1  0  0  0  0
  5  8  1  0  0  0  0
  6  5  2  0  0  0  0
  7  1  1  0  0  0  0
  9  3  1  0  0  0  0
 10 15  1  0  0  0  0
 10  9  1  0  0  0  0
 11 10  2  0  0  0  0
 12 13  2  0  0  0  0
 12 11  1  0  0  0  0
 13 14  1  0  0  0  0
 14 19  1  0  0  0  0
 14  9  2  0  0  0  0
 16 11  1  0  0  0  0
 17 12  1  0  0  0  0
 18 13  1  0  0  0  0
 20 22  1  0  0  0  0
 20  2  1  0  0  0  0
 21 20  1  0  0  0  0
 23 20  1  0  0  0  0
 24 25  1  0  0  0  0
 24 23  2  0  0  0  0
 26 24  1  0  0  0  0
 27 26  2  0  0  0  0
 27 28  1  0  0  0  0
 28 33  1  0  0  0  0
 29 28  2  0  0  0  0
 29 30  1  0  0  0  0
 30 31  2  0  0  0  0
 31 32  1  0  0  0  0
 33 23  1  0  0  0  0
 33 32  2  0  0  0  0
M  END
>  <minimizedAffinity>
-6.12819338

>  <minimizedRMSD>
4.89225531

$$$$
