
 OpenBabel03252508333D

 34 37  0  0  1  0  0  0  0  0999 V2000
   39.3230   31.7730   40.3930 N   0  0  0  0  0  0  0  0  0  0  0  0
   38.0340   31.2960   40.5770 C   0  0  1  0  0  0  0  0  0  0  0  0
   36.9360   32.1080   39.9720 C   0  0  0  0  0  0  0  0  0  0  0  0
   37.0770   33.4970   40.0420 N   0  0  0  0  0  0  0  0  0  0  0  0
   38.3850   34.0180   40.0320 C   0  0  0  0  0  0  0  0  0  0  0  0
   39.3960   32.9690   39.5790 C   0  0  0  0  0  0  0  0  0  0  0  0
   37.8550   31.4720   41.7030 H   0  0  0  0  0  0  0  0  0  0  0  0
   36.7000   31.8300   38.9250 H   0  0  0  0  0  0  0  0  0  0  0  0
   35.9900   31.8330   40.5280 H   0  0  0  0  0  0  0  0  0  0  0  0
   36.4070   34.0240   40.6180 H   0  0  0  0  0  0  0  0  0  0  0  0
   38.5690   34.9130   39.4450 H   0  0  0  0  0  0  0  0  0  0  0  0
   38.6750   34.2510   41.0850 H   0  0  0  0  0  0  0  0  0  0  0  0
   40.3550   33.4670   39.5500 H   0  0  0  0  0  0  0  0  0  0  0  0
   39.0980   32.7340   38.5330 H   0  0  0  0  0  0  0  0  0  0  0  0
   37.6580   29.8850   40.3910 C   0  0  0  0  0  0  0  0  0  0  0  0
   37.5160   29.3850   39.0750 C   0  0  0  0  0  0  0  0  0  0  0  0
   37.6670   30.0760   38.2280 H   0  0  0  0  0  0  0  0  0  0  0  0
   37.2080   28.1170   38.7110 C   0  0  0  0  0  3  0  0  0  0  0  0
   37.0040   27.1900   39.7020 C   0  0  0  0  0  3  0  0  0  0  0  0
   37.1130   27.5560   41.0230 C   0  0  0  0  0  0  0  0  0  0  0  0
   36.9200   26.6710   42.0620 C   0  0  0  0  0  3  0  0  0  0  0  0
   37.0290   27.0340   43.4090 C   0  0  0  0  0  3  0  0  0  0  0  0
   37.3510   28.3690   43.6800 C   0  0  0  0  0  3  0  0  0  0  0  0
   37.5340   29.2120   42.6120 C   0  0  0  0  0  3  0  0  0  0  0  0
   37.4300   28.8640   41.2880 C   0  0  0  0  0  0  0  0  0  0  0  0
   41.3480   30.5170   40.1700 C   0  0  0  0  0  0  0  0  0  0  0  0
   40.4260   31.1450   40.9910 C   0  0  0  0  0  0  0  0  0  0  0  0
   40.6630   31.1170   42.3420 C   0  0  0  0  0  0  0  0  0  0  0  0
   41.7450   30.5070   42.8510 N   0  0  0  0  0  0  0  0  0  0  0  0
   42.6360   29.8970   42.0150 C   0  0  0  0  0  0  0  0  0  0  0  0
   42.4370   29.9050   40.7070 N   0  0  0  0  0  0  0  0  0  0  0  0
   41.3560   30.4230   39.0970 H   0  0  0  0  0  0  0  0  0  0  0  0
   40.0690   31.5580   43.0950 H   0  0  0  0  0  0  0  0  0  0  0  0
   43.5190   29.4010   42.4500 H   0  0  0  0  0  0  0  0  0  0  0  0
  1  2  1  0  0  0  0
  1 27  1  0  0  0  0
  2  7  1  1  0  0  0
  3  4  1  0  0  0  0
  3  9  1  0  0  0  0
  3  2  1  0  0  0  0
  4 10  1  0  0  0  0
  5  4  1  0  0  0  0
  5 12  1  0  0  0  0
  6  5  1  0  0  0  0
  6  1  1  0  0  0  0
  8  3  1  0  0  0  0
 11  5  1  0  0  0  0
 13  6  1  0  0  0  0
 14  6  1  0  0  0  0
 15  2  1  0  0  0  0
 15 25  1  0  0  0  0
 16 15  2  0  0  0  0
 17 16  1  0  0  0  0
 18 16  1  0  0  0  0
 18 19  2  0  0  0  0
 19 20  1  0  0  0  0
 20 25  2  0  0  0  0
 20 21  1  0  0  0  0
 21 22  2  0  0  0  0
 22 23  1  0  0  0  0
 24 23  2  0  0  0  0
 25 24  1  0  0  0  0
 26 31  2  0  0  0  0
 26 27  1  0  0  0  0
 27 28  2  0  0  0  0
 28 29  1  0  0  0  0
 28 33  1  0  0  0  0
 30 34  1  0  0  0  0
 30 29  2  0  0  0  0
 31 30  1  0  0  0  0
 32 26  1  0  0  0  0
M  END
>  <minimizedAffinity>
-5.79969788

$$$$

 OpenBabel03252508333D

 34 37  0  0  1  0  0  0  0  0999 V2000
   37.3660   30.2620   39.4160 N   0  0  0  0  0  0  0  0  0  0  0  0
   38.2650   29.4440   40.0850 C   0  0  1  0  0  0  0  0  0  0  0  0
   39.5900   30.0480   40.4150 C   0  0  0  0  0  0  0  0  0  0  0  0
   40.1490   30.8900   39.4490 N   0  0  0  0  0  0  0  0  0  0  0  0
   39.2650   31.6130   38.6280 C   0  0  0  0  0  0  0  0  0  0  0  0
   37.8500   31.6100   39.1990 C   0  0  0  0  0  0  0  0  0  0  0  0
   38.5580   28.6740   39.2770 H   0  0  0  0  0  0  0  0  0  0  0  0
   39.6110   30.5700   41.3930 H   0  0  0  0  0  0  0  0  0  0  0  0
   40.3050   29.1850   40.5730 H   0  0  0  0  0  0  0  0  0  0  0  0
   41.0180   30.5870   38.9870 H   0  0  0  0  0  0  0  0  0  0  0  0
   39.5150   32.6450   38.4000 H   0  0  0  0  0  0  0  0  0  0  0  0
   39.1740   31.0740   37.6540 H   0  0  0  0  0  0  0  0  0  0  0  0
   37.2570   32.2280   38.5390 H   0  0  0  0  0  0  0  0  0  0  0  0
   37.9460   32.1400   40.1730 H   0  0  0  0  0  0  0  0  0  0  0  0
   37.8930   28.6020   41.2340 C   0  0  0  0  0  0  0  0  0  0  0  0
   37.8250   29.1930   42.5180 C   0  0  0  0  0  0  0  0  0  0  0  0
   38.0760   30.2620   42.6220 H   0  0  0  0  0  0  0  0  0  0  0  0
   37.4740   28.5880   43.6790 C   0  0  0  0  0  3  0  0  0  0  0  0
   37.1440   27.2570   43.6420 C   0  0  0  0  0  3  0  0  0  0  0  0
   37.1740   26.5710   42.4500 C   0  0  0  0  0  0  0  0  0  0  0  0
   36.8540   25.2340   42.3500 C   0  0  0  0  0  3  0  0  0  0  0  0
   36.8810   24.5280   41.1420 C   0  0  0  0  0  3  0  0  0  0  0  0
   37.2570   25.2440   40.0000 C   0  0  0  0  0  3  0  0  0  0  0  0
   37.5660   26.5730   40.1500 C   0  0  0  0  0  3  0  0  0  0  0  0
   37.5410   27.2730   41.3310 C   0  0  0  0  0  0  0  0  0  0  0  0
   35.9780   29.4810   37.6300 C   0  0  0  0  0  0  0  0  0  0  0  0
   36.1260   29.7770   38.9750 C   0  0  0  0  0  0  0  0  0  0  0  0
   35.0450   29.5610   39.7920 C   0  0  0  0  0  0  0  0  0  0  0  0
   33.8860   29.0840   39.3090 N   0  0  0  0  0  0  0  0  0  0  0  0
   33.7720   28.8010   37.9770 C   0  0  0  0  0  0  0  0  0  0  0  0
   34.7960   28.9970   37.1630 N   0  0  0  0  0  0  0  0  0  0  0  0
   36.6890   29.5710   36.8270 H   0  0  0  0  0  0  0  0  0  0  0  0
   35.0010   29.7210   40.8340 H   0  0  0  0  0  0  0  0  0  0  0  0
   32.8130   28.4090   37.5980 H   0  0  0  0  0  0  0  0  0  0  0  0
  1  2  1  0  0  0  0
  2  7  1  6  0  0  0
  2  3  1  0  0  0  0
  2 15  1  0  0  0  0
  3  9  1  0  0  0  0
  3  8  1  0  0  0  0
  4  3  1  0  0  0  0
  5  6  1  0  0  0  0
  5  4  1  0  0  0  0
  6  1  1  0  0  0  0
  6 14  1  0  0  0  0
 10  4  1  0  0  0  0
 11  5  1  0  0  0  0
 12  5  1  0  0  0  0
 13  6  1  0  0  0  0
 15 25  2  0  0  0  0
 15 16  1  0  0  0  0
 16 17  1  0  0  0  0
 16 18  2  0  0  0  0
 19 18  1  0  0  0  0
 20 19  2  0  0  0  0
 21 20  1  0  0  0  0
 22 21  2  0  0  0  0
 23 24  2  0  0  0  0
 23 22  1  0  0  0  0
 24 25  1  0  0  0  0
 25 20  1  0  0  0  0
 26 27  1  0  0  0  0
 27  1  1  0  0  0  0
 27 28  2  0  0  0  0
 28 33  1  0  0  0  0
 29 28  1  0  0  0  0
 30 29  2  0  0  0  0
 31 26  2  0  0  0  0
 31 30  1  0  0  0  0
 32 26  1  0  0  0  0
 34 30  1  0  0  0  0
M  END
>  <minimizedAffinity>
-5.77061033

$$$$

 OpenBabel03252508333D

 34 37  0  0  1  0  0  0  0  0999 V2000
   39.0740   30.9290   40.6110 N   0  0  0  0  0  0  0  0  0  0  0  0
   37.9340   30.5750   41.3180 C   0  0  1  0  0  0  0  0  0  0  0  0
   36.6480   31.1650   40.8390 C   0  0  0  0  0  0  0  0  0  0  0  0
   36.6970   32.4930   40.4030 N   0  0  0  0  0  0  0  0  0  0  0  0
   37.9000   32.9460   39.8320 C   0  0  0  0  0  0  0  0  0  0  0  0
   38.8140   31.7800   39.4680 C   0  0  0  0  0  0  0  0  0  0  0  0
   38.0780   31.1230   42.3230 H   0  0  0  0  0  0  0  0  0  0  0  0
   36.1410   30.5580   40.0630 H   0  0  0  0  0  0  0  0  0  0  0  0
   35.9290   31.1170   41.7110 H   0  0  0  0  0  0  0  0  0  0  0  0
   36.1840   33.2000   40.9480 H   0  0  0  0  0  0  0  0  0  0  0  0
   37.8360   33.5860   38.9580 H   0  0  0  0  0  0  0  0  0  0  0  0
   38.4660   33.5100   40.6130 H   0  0  0  0  0  0  0  0  0  0  0  0
   39.6820   32.2140   38.9910 H   0  0  0  0  0  0  0  0  0  0  0  0
   38.2440   31.2150   38.6960 H   0  0  0  0  0  0  0  0  0  0  0  0
   37.6310   29.1930   41.7270 C   0  0  0  0  0  0  0  0  0  0  0  0
   37.5010   28.9040   43.1050 C   0  0  0  0  0  0  0  0  0  0  0  0
   37.6570   29.7170   43.8340 H   0  0  0  0  0  0  0  0  0  0  0  0
   37.1980   27.7070   43.6640 C   0  0  0  0  0  3  0  0  0  0  0  0
   36.9870   26.6380   42.8310 C   0  0  0  0  0  3  0  0  0  0  0  0
   37.0850   26.7940   41.4680 C   0  0  0  0  0  0  0  0  0  0  0  0
   36.8850   25.7590   40.5810 C   0  0  0  0  0  3  0  0  0  0  0  0
   36.9830   25.9080   39.1930 C   0  0  0  0  0  3  0  0  0  0  0  0
   37.3020   27.1840   38.7160 C   0  0  0  0  0  3  0  0  0  0  0  0
   37.4920   28.1830   39.6380 C   0  0  0  0  0  3  0  0  0  0  0  0
   37.3970   28.0450   41.0010 C   0  0  0  0  0  0  0  0  0  0  0  0
   40.8610   31.0270   42.1990 C   0  0  0  0  0  0  0  0  0  0  0  0
   40.3470   30.5080   41.0220 C   0  0  0  0  0  0  0  0  0  0  0  0
   41.1210   29.6030   40.3400 C   0  0  0  0  0  0  0  0  0  0  0  0
   42.3300   29.2330   40.7940 N   0  0  0  0  0  0  0  0  0  0  0  0
   42.8090   29.7620   41.9580 C   0  0  0  0  0  0  0  0  0  0  0  0
   42.0880   30.6380   42.6400 N   0  0  0  0  0  0  0  0  0  0  0  0
   40.4270   31.7380   42.8810 H   0  0  0  0  0  0  0  0  0  0  0  0
   40.8690   29.1090   39.4430 H   0  0  0  0  0  0  0  0  0  0  0  0
   43.8030   29.4460   42.3150 H   0  0  0  0  0  0  0  0  0  0  0  0
  1 27  1  0  0  0  0
  1  2  1  0  0  0  0
  2 15  1  0  0  0  0
  2  7  1  1  0  0  0
  3  2  1  0  0  0  0
  3  9  1  0  0  0  0
  4  3  1  0  0  0  0
  4 10  1  0  0  0  0
  5  4  1  0  0  0  0
  5 12  1  0  0  0  0
  6  5  1  0  0  0  0
  6  1  1  0  0  0  0
  8  3  1  0  0  0  0
 11  5  1  0  0  0  0
 13  6  1  0  0  0  0
 14  6  1  0  0  0  0
 15 16  1  0  0  0  0
 16 18  2  0  0  0  0
 16 17  1  0  0  0  0
 19 18  1  0  0  0  0
 20 19  2  0  0  0  0
 21 20  1  0  0  0  0
 22 21  2  0  0  0  0
 23 22  1  0  0  0  0
 23 24  2  0  0  0  0
 24 25  1  0  0  0  0
 25 20  1  0  0  0  0
 25 15  2  0  0  0  0
 26 31  1  0  0  0  0
 26 32  1  0  0  0  0
 27 26  2  0  0  0  0
 28 29  2  0  0  0  0
 28 27  1  0  0  0  0
 29 30  1  0  0  0  0
 30 34  1  0  0  0  0
 30 31  2  0  0  0  0
 33 28  1  0  0  0  0
M  END
>  <minimizedAffinity>
-5.72047234

$$$$

 OpenBabel03252508333D

 34 37  0  0  1  0  0  0  0  0999 V2000
   38.1730   30.3760   39.1630 N   0  0  0  0  0  0  0  0  0  0  0  0
   38.0220   30.4910   40.5370 C   0  0  1  0  0  0  0  0  0  0  0  0
   37.0030   31.4760   41.0100 C   0  0  0  0  0  0  0  0  0  0  0  0
   36.9140   32.6730   40.2940 N   0  0  0  0  0  0  0  0  0  0  0  0
   37.2280   32.6350   38.9230 C   0  0  0  0  0  0  0  0  0  0  0  0
   37.2580   31.2010   38.4010 C   0  0  0  0  0  0  0  0  0  0  0  0
   39.0030   31.0050   40.8590 H   0  0  0  0  0  0  0  0  0  0  0  0
   35.9850   31.0500   41.1120 H   0  0  0  0  0  0  0  0  0  0  0  0
   37.2790   31.7350   42.0770 H   0  0  0  0  0  0  0  0  0  0  0  0
   37.1780   33.5450   40.7730 H   0  0  0  0  0  0  0  0  0  0  0  0
   36.6040   33.2080   38.2440 H   0  0  0  0  0  0  0  0  0  0  0  0
   38.2750   33.0010   38.7950 H   0  0  0  0  0  0  0  0  0  0  0  0
   37.4510   31.2700   37.3390 H   0  0  0  0  0  0  0  0  0  0  0  0
   36.2150   30.8370   38.5380 H   0  0  0  0  0  0  0  0  0  0  0  0
   37.9330   29.3340   41.4420 C   0  0  0  0  0  0  0  0  0  0  0  0
   36.6840   28.6890   41.6040 C   0  0  0  0  0  0  0  0  0  0  0  0
   35.8090   29.0890   41.0650 H   0  0  0  0  0  0  0  0  0  0  0  0
   36.4190   27.5990   42.3650 C   0  0  0  0  0  3  0  0  0  0  0  0
   37.4520   27.0350   43.0700 C   0  0  0  0  0  3  0  0  0  0  0  0
   38.7150   27.5730   42.9940 C   0  0  0  0  0  0  0  0  0  0  0  0
   39.7910   27.0510   43.6790 C   0  0  0  0  0  3  0  0  0  0  0  0
   41.0800   27.5920   43.6090 C   0  0  0  0  0  3  0  0  0  0  0  0
   41.2500   28.7180   42.7950 C   0  0  0  0  0  3  0  0  0  0  0  0
   40.1480   29.2010   42.1330 C   0  0  0  0  0  3  0  0  0  0  0  0
   38.8810   28.6760   42.1960 C   0  0  0  0  0  0  0  0  0  0  0  0
   40.4570   30.0320   38.5360 C   0  0  0  0  0  0  0  0  0  0  0  0
   39.1600   29.5510   38.6050 C   0  0  0  0  0  0  0  0  0  0  0  0
   38.9310   28.2850   38.1270 C   0  0  0  0  0  0  0  0  0  0  0  0
   39.9240   27.5400   37.6140 N   0  0  0  0  0  0  0  0  0  0  0  0
   41.1920   28.0430   37.5610 C   0  0  0  0  0  0  0  0  0  0  0  0
   41.4460   29.2610   38.0120 N   0  0  0  0  0  0  0  0  0  0  0  0
   40.8510   30.9840   38.8510 H   0  0  0  0  0  0  0  0  0  0  0  0
   38.0100   27.7710   38.1210 H   0  0  0  0  0  0  0  0  0  0  0  0
   41.9950   27.4180   37.1360 H   0  0  0  0  0  0  0  0  0  0  0  0
  1  2  1  0  0  0  0
  2  7  1  1  0  0  0
  2  3  1  0  0  0  0
  2 15  1  0  0  0  0
  3  8  1  0  0  0  0
  3  9  1  0  0  0  0
  4 10  1  0  0  0  0
  4  3  1  0  0  0  0
  5  4  1  0  0  0  0
  6 14  1  0  0  0  0
  6  5  1  0  0  0  0
  6  1  1  0  0  0  0
 11  5  1  0  0  0  0
 12  5  1  0  0  0  0
 13  6  1  0  0  0  0
 15 16  2  0  0  0  0
 15 25  1  0  0  0  0
 16 18  1  0  0  0  0
 17 16  1  0  0  0  0
 18 19  2  0  0  0  0
 20 19  1  0  0  0  0
 20 21  1  0  0  0  0
 22 21  2  0  0  0  0
 23 22  1  0  0  0  0
 24 25  1  0  0  0  0
 24 23  2  0  0  0  0
 25 20  2  0  0  0  0
 26 27  1  0  0  0  0
 26 32  1  0  0  0  0
 27  1  1  0  0  0  0
 28 27  2  0  0  0  0
 29 28  1  0  0  0  0
 30 29  2  0  0  0  0
 30 31  1  0  0  0  0
 31 26  2  0  0  0  0
 33 28  1  0  0  0  0
 34 30  1  0  0  0  0
M  END
>  <minimizedAffinity>
-5.68745375

$$$$

 OpenBabel03252508333D

 34 37  0  0  1  0  0  0  0  0999 V2000
   39.9870   31.4610   39.4550 N   0  0  0  0  0  0  0  0  0  0  0  0
   39.1600   31.5020   40.5680 C   0  0  1  0  0  0  0  0  0  0  0  0
   38.7400   32.8590   41.0300 C   0  0  0  0  0  0  0  0  0  0  0  0
   39.7060   33.8670   40.9620 N   0  0  0  0  0  0  0  0  0  0  0  0
   40.6750   33.7710   39.9450 C   0  0  0  0  0  0  0  0  0  0  0  0
   40.2610   32.7620   38.8790 C   0  0  0  0  0  0  0  0  0  0  0  0
   39.8650   31.1780   41.4210 H   0  0  0  0  0  0  0  0  0  0  0  0
   37.8120   33.2280   40.5470 H   0  0  0  0  0  0  0  0  0  0  0  0
   38.4360   32.7490   42.1140 H   0  0  0  0  0  0  0  0  0  0  0  0
   40.0460   34.2730   41.8450 H   0  0  0  0  0  0  0  0  0  0  0  0
   40.9590   34.6830   39.4290 H   0  0  0  0  0  0  0  0  0  0  0  0
   41.6050   33.3430   40.3900 H   0  0  0  0  0  0  0  0  0  0  0  0
   41.0290   32.7930   38.1190 H   0  0  0  0  0  0  0  0  0  0  0  0
   39.3290   33.1880   38.4440 H   0  0  0  0  0  0  0  0  0  0  0  0
   37.9920   30.6240   40.7420 C   0  0  0  0  0  0  0  0  0  0  0  0
   36.8570   30.8280   39.9230 C   0  0  0  0  0  0  0  0  0  0  0  0
   36.8720   31.6570   39.1950 H   0  0  0  0  0  0  0  0  0  0  0  0
   35.7100   30.1060   39.9200 C   0  0  0  0  0  3  0  0  0  0  0  0
   35.6040   29.0540   40.7940 C   0  0  0  0  0  3  0  0  0  0  0  0
   36.6440   28.7550   41.6440 C   0  0  0  0  0  0  0  0  0  0  0  0
   36.5960   27.7120   42.5430 C   0  0  0  0  0  3  0  0  0  0  0  0
   37.6480   27.4010   43.4120 C   0  0  0  0  0  3  0  0  0  0  0  0
   38.7890   28.2080   43.3370 C   0  0  0  0  0  3  0  0  0  0  0  0
   38.7890   29.2340   42.4250 C   0  0  0  0  0  3  0  0  0  0  0  0
   37.7620   29.5460   41.5700 C   0  0  0  0  0  0  0  0  0  0  0  0
   40.1290   29.8060   37.7320 C   0  0  0  0  0  0  0  0  0  0  0  0
   40.5170   30.2510   38.9850 C   0  0  0  0  0  0  0  0  0  0  0  0
   41.4100   29.4750   39.6800 C   0  0  0  0  0  0  0  0  0  0  0  0
   41.8900   28.3300   39.1690 N   0  0  0  0  0  0  0  0  0  0  0  0
   41.4880   27.9190   37.9300 C   0  0  0  0  0  0  0  0  0  0  0  0
   40.6270   28.6430   37.2330 N   0  0  0  0  0  0  0  0  0  0  0  0
   39.4490   30.2550   37.0270 H   0  0  0  0  0  0  0  0  0  0  0  0
   41.8140   29.6800   40.6330 H   0  0  0  0  0  0  0  0  0  0  0  0
   41.8920   26.9760   37.5260 H   0  0  0  0  0  0  0  0  0  0  0  0
  1  2  1  0  0  0  0
  2 15  1  0  0  0  0
  2  3  1  0  0  0  0
  2  7  1  1  0  0  0
  3  9  1  0  0  0  0
  4  3  1  0  0  0  0
  4 10  1  0  0  0  0
  5 12  1  0  0  0  0
  5  4  1  0  0  0  0
  6  1  1  0  0  0  0
  6  5  1  0  0  0  0
  8  3  1  0  0  0  0
 11  5  1  0  0  0  0
 13  6  1  0  0  0  0
 14  6  1  0  0  0  0
 15 25  1  0  0  0  0
 16 15  2  0  0  0  0
 17 16  1  0  0  0  0
 18 16  1  0  0  0  0
 18 19  2  0  0  0  0
 19 20  1  0  0  0  0
 20 21  1  0  0  0  0
 21 22  2  0  0  0  0
 23 22  1  0  0  0  0
 24 23  2  0  0  0  0
 25 20  2  0  0  0  0
 25 24  1  0  0  0  0
 26 27  1  0  0  0  0
 27  1  1  0  0  0  0
 27 28  2  0  0  0  0
 28 33  1  0  0  0  0
 29 28  1  0  0  0  0
 30 29  2  0  0  0  0
 31 26  2  0  0  0  0
 31 30  1  0  0  0  0
 32 26  1  0  0  0  0
 34 30  1  0  0  0  0
M  END
>  <minimizedAffinity>
-5.6209712

$$$$

 OpenBabel03252508333D

 34 37  0  0  1  0  0  0  0  0999 V2000
   38.0320   29.6860   39.7770 N   0  0  0  0  0  0  0  0  0  0  0  0
   37.4920   28.9880   40.8480 C   0  0  1  0  0  0  0  0  0  0  0  0
   36.1300   29.4100   41.2930 C   0  0  0  0  0  0  0  0  0  0  0  0
   35.8670   30.7830   41.2770 N   0  0  0  0  0  0  0  0  0  0  0  0
   36.5300   31.5600   40.3100 C   0  0  0  0  0  0  0  0  0  0  0  0
   37.1430   30.6850   39.2210 C   0  0  0  0  0  0  0  0  0  0  0  0
   38.1420   29.3400   41.7340 H   0  0  0  0  0  0  0  0  0  0  0  0
   35.3070   28.8870   40.7660 H   0  0  0  0  0  0  0  0  0  0  0  0
   36.0170   29.0520   42.3610 H   0  0  0  0  0  0  0  0  0  0  0  0
   35.7080   31.2560   42.1780 H   0  0  0  0  0  0  0  0  0  0  0  0
   35.9620   32.3400   39.8110 H   0  0  0  0  0  0  0  0  0  0  0  0
   37.4050   32.0530   40.7990 H   0  0  0  0  0  0  0  0  0  0  0  0
   37.5800   31.3630   38.5000 H   0  0  0  0  0  0  0  0  0  0  0  0
   36.2690   30.1900   38.7420 H   0  0  0  0  0  0  0  0  0  0  0  0
   37.5310   27.5210   40.9610 C   0  0  0  0  0  0  0  0  0  0  0  0
   36.7220   26.7490   40.0950 C   0  0  0  0  0  0  0  0  0  0  0  0
   36.0670   27.2720   39.3780 H   0  0  0  0  0  0  0  0  0  0  0  0
   36.6490   25.3970   40.0330 C   0  0  0  0  0  3  0  0  0  0  0  0
   37.4310   24.6660   40.8900 C   0  0  0  0  0  3  0  0  0  0  0  0
   38.2620   25.3050   41.7810 C   0  0  0  0  0  0  0  0  0  0  0  0
   39.0710   24.6250   42.6660 C   0  0  0  0  0  3  0  0  0  0  0  0
   39.9180   25.2650   43.5770 C   0  0  0  0  0  3  0  0  0  0  0  0
   39.9200   26.6650   43.5620 C   0  0  0  0  0  3  0  0  0  0  0  0
   39.0980   27.2960   42.6620 C   0  0  0  0  0  3  0  0  0  0  0  0
   38.2640   26.6760   41.7660 C   0  0  0  0  0  0  0  0  0  0  0  0
   39.5120   28.9630   38.0410 C   0  0  0  0  0  0  0  0  0  0  0  0
   39.3380   29.4400   39.3300 C   0  0  0  0  0  0  0  0  0  0  0  0
   40.4660   29.6500   40.0820 C   0  0  0  0  0  0  0  0  0  0  0  0
   41.6920   29.4040   39.5900 N   0  0  0  0  0  0  0  0  0  0  0  0
   41.8290   28.9350   38.3150 C   0  0  0  0  0  0  0  0  0  0  0  0
   40.7610   28.7220   37.5630 N   0  0  0  0  0  0  0  0  0  0  0  0
   38.7730   28.7340   37.2910 H   0  0  0  0  0  0  0  0  0  0  0  0
   40.5050   30.0220   41.0690 H   0  0  0  0  0  0  0  0  0  0  0  0
   42.8430   28.7400   37.9280 H   0  0  0  0  0  0  0  0  0  0  0  0
  1  2  1  0  0  0  0
  2 15  1  0  0  0  0
  2  3  1  0  0  0  0
  2  7  1  1  0  0  0
  3  9  1  0  0  0  0
  4  3  1  0  0  0  0
  4 10  1  0  0  0  0
  5 12  1  0  0  0  0
  5  4  1  0  0  0  0
  6  1  1  0  0  0  0
  6  5  1  0  0  0  0
  8  3  1  0  0  0  0
 11  5  1  0  0  0  0
 13  6  1  0  0  0  0
 14  6  1  0  0  0  0
 15 25  1  0  0  0  0
 16 15  2  0  0  0  0
 17 16  1  0  0  0  0
 18 16  1  0  0  0  0
 18 19  2  0  0  0  0
 19 20  1  0  0  0  0
 20 21  1  0  0  0  0
 21 22  2  0  0  0  0
 23 22  1  0  0  0  0
 24 23  2  0  0  0  0
 25 20  2  0  0  0  0
 25 24  1  0  0  0  0
 26 27  1  0  0  0  0
 27  1  1  0  0  0  0
 27 28  2  0  0  0  0
 28 33  1  0  0  0  0
 29 28  1  0  0  0  0
 30 29  2  0  0  0  0
 31 26  2  0  0  0  0
 31 30  1  0  0  0  0
 32 26  1  0  0  0  0
 34 30  1  0  0  0  0
M  END
>  <minimizedAffinity>
-5.61465788

$$$$

 OpenBabel03252508333D

 34 37  0  0  1  0  0  0  0  0999 V2000
   39.0750   31.5100   40.0770 N   0  0  0  0  0  0  0  0  0  0  0  0
   37.7050   31.7290   40.1050 C   0  0  1  0  0  0  0  0  0  0  0  0
   37.2380   33.0580   39.6080 C   0  0  0  0  0  0  0  0  0  0  0  0
   38.0300   34.1610   39.9410 N   0  0  0  0  0  0  0  0  0  0  0  0
   39.4130   33.9470   40.0920 C   0  0  0  0  0  0  0  0  0  0  0  0
   39.8320   32.6030   39.5030 C   0  0  0  0  0  0  0  0  0  0  0  0
   37.4850   31.8160   41.2340 H   0  0  0  0  0  0  0  0  0  0  0  0
   37.0410   33.0820   38.5170 H   0  0  0  0  0  0  0  0  0  0  0  0
   36.2120   33.2250   40.0550 H   0  0  0  0  0  0  0  0  0  0  0  0
   37.6310   34.8710   40.5710 H   0  0  0  0  0  0  0  0  0  0  0  0
   40.0880   34.6960   39.6920 H   0  0  0  0  0  0  0  0  0  0  0  0
   39.6330   33.8550   41.1830 H   0  0  0  0  0  0  0  0  0  0  0  0
   40.9070   32.5470   39.6140 H   0  0  0  0  0  0  0  0  0  0  0  0
   39.6030   32.6950   38.4180 H   0  0  0  0  0  0  0  0  0  0  0  0
   36.7170   30.7410   39.6420 C   0  0  0  0  0  0  0  0  0  0  0  0
   35.8380   30.1630   40.5870 C   0  0  0  0  0  0  0  0  0  0  0  0
   35.9370   30.4510   41.6480 H   0  0  0  0  0  0  0  0  0  0  0  0
   34.8520   29.2650   40.3450 C   0  0  0  0  0  3  0  0  0  0  0  0
   34.6570   28.8510   39.0520 C   0  0  0  0  0  3  0  0  0  0  0  0
   35.4510   29.3430   38.0420 C   0  0  0  0  0  0  0  0  0  0  0  0
   35.3040   28.9640   36.7250 C   0  0  0  0  0  3  0  0  0  0  0  0
   36.1060   29.4590   35.6910 C   0  0  0  0  0  3  0  0  0  0  0  0
   37.0970   30.3810   36.0460 C   0  0  0  0  0  3  0  0  0  0  0  0
   37.2040   30.7270   37.3700 C   0  0  0  0  0  3  0  0  0  0  0  0
   36.4210   30.2470   38.3900 C   0  0  0  0  0  0  0  0  0  0  0  0
   40.1180   29.3870   39.7150 C   0  0  0  0  0  0  0  0  0  0  0  0
   39.6360   30.3360   40.6010 C   0  0  0  0  0  0  0  0  0  0  0  0
   39.7530   30.0660   41.9410 C   0  0  0  0  0  0  0  0  0  0  0  0
   40.3120   28.9260   42.3790 N   0  0  0  0  0  0  0  0  0  0  0  0
   40.7780   28.0090   41.4810 C   0  0  0  0  0  0  0  0  0  0  0  0
   40.6800   28.2400   40.1810 N   0  0  0  0  0  0  0  0  0  0  0  0
   40.1280   29.3980   38.6380 H   0  0  0  0  0  0  0  0  0  0  0  0
   39.4520   30.6880   42.7380 H   0  0  0  0  0  0  0  0  0  0  0  0
   41.2340   27.0790   41.8580 H   0  0  0  0  0  0  0  0  0  0  0  0
  1  2  1  0  0  0  0
  1 27  1  0  0  0  0
  2  7  1  1  0  0  0
  3  4  1  0  0  0  0
  3  9  1  0  0  0  0
  3  2  1  0  0  0  0
  4  5  1  0  0  0  0
  4 10  1  0  0  0  0
  5 12  1  0  0  0  0
  6 13  1  0  0  0  0
  6  1  1  0  0  0  0
  6  5  1  0  0  0  0
  8  3  1  0  0  0  0
 11  5  1  0  0  0  0
 14  6  1  0  0  0  0
 15  2  1  0  0  0  0
 15 16  1  0  0  0  0
 16 17  1  0  0  0  0
 18 16  2  0  0  0  0
 19 18  1  0  0  0  0
 20 25  1  0  0  0  0
 20 19  2  0  0  0  0
 21 20  1  0  0  0  0
 22 23  1  0  0  0  0
 22 21  2  0  0  0  0
 23 24  2  0  0  0  0
 24 25  1  0  0  0  0
 25 15  2  0  0  0  0
 26 31  2  0  0  0  0
 26 27  1  0  0  0  0
 27 28  2  0  0  0  0
 28 29  1  0  0  0  0
 28 33  1  0  0  0  0
 30 34  1  0  0  0  0
 30 29  2  0  0  0  0
 31 30  1  0  0  0  0
 32 26  1  0  0  0  0
M  END
>  <minimizedAffinity>
-5.60816526

$$$$

 OpenBabel03252508333D

 34 37  0  0  1  0  0  0  0  0999 V2000
   38.0580   29.4060   40.2520 N   0  0  0  0  0  0  0  0  0  0  0  0
   37.1290   28.7000   41.0030 C   0  0  1  0  0  0  0  0  0  0  0  0
   35.7450   29.2610   41.0400 C   0  0  0  0  0  0  0  0  0  0  0  0
   35.6390   30.6530   41.1070 N   0  0  0  0  0  0  0  0  0  0  0  0
   36.6570   31.4130   40.5020 C   0  0  0  0  0  0  0  0  0  0  0  0
   37.5050   30.5570   39.5670 C   0  0  0  0  0  0  0  0  0  0  0  0
   37.4810   28.8880   42.0850 H   0  0  0  0  0  0  0  0  0  0  0  0
   35.0940   28.8970   40.2190 H   0  0  0  0  0  0  0  0  0  0  0  0
   35.2510   28.8340   41.9640 H   0  0  0  0  0  0  0  0  0  0  0  0
   35.2400   31.0670   41.9610 H   0  0  0  0  0  0  0  0  0  0  0  0
   36.3660   32.2990   39.9480 H   0  0  0  0  0  0  0  0  0  0  0  0
   37.3660   31.7420   41.3000 H   0  0  0  0  0  0  0  0  0  0  0  0
   38.2210   31.2270   39.1100 H   0  0  0  0  0  0  0  0  0  0  0  0
   36.7940   30.2230   38.7790 H   0  0  0  0  0  0  0  0  0  0  0  0
   36.9840   27.2370   40.9440 C   0  0  0  0  0  0  0  0  0  0  0  0
   37.2090   26.4810   42.1190 C   0  0  0  0  0  0  0  0  0  0  0  0
   37.5130   27.0110   43.0380 H   0  0  0  0  0  0  0  0  0  0  0  0
   37.0950   25.1390   42.2630 C   0  0  0  0  0  3  0  0  0  0  0  0
   36.7200   24.4000   41.1690 C   0  0  0  0  0  3  0  0  0  0  0  0
   36.4730   25.0220   39.9670 C   0  0  0  0  0  0  0  0  0  0  0  0
   36.0950   24.3340   38.8350 C   0  0  0  0  0  3  0  0  0  0  0  0
   35.8410   24.9570   37.6080 C   0  0  0  0  0  3  0  0  0  0  0  0
   35.9880   26.3480   37.5640 C   0  0  0  0  0  3  0  0  0  0  0  0
   36.3660   26.9880   38.7170 C   0  0  0  0  0  3  0  0  0  0  0  0
   36.6160   26.3850   39.9240 C   0  0  0  0  0  0  0  0  0  0  0  0
   39.9370   28.5960   39.0110 C   0  0  0  0  0  0  0  0  0  0  0  0
   39.4070   29.0260   40.2160 C   0  0  0  0  0  0  0  0  0  0  0  0
   40.2500   29.0610   41.2990 C   0  0  0  0  0  0  0  0  0  0  0  0
   41.5380   28.6930   41.1960 N   0  0  0  0  0  0  0  0  0  0  0  0
   42.0300   28.2740   39.9930 C   0  0  0  0  0  0  0  0  0  0  0  0
   41.2430   28.2280   38.9300 N   0  0  0  0  0  0  0  0  0  0  0  0
   39.4590   28.4950   38.0510 H   0  0  0  0  0  0  0  0  0  0  0  0
   40.0080   29.3760   42.2760 H   0  0  0  0  0  0  0  0  0  0  0  0
   43.0900   27.9770   39.9270 H   0  0  0  0  0  0  0  0  0  0  0  0
  1  2  1  0  0  0  0
  2  3  1  0  0  0  0
  2  7  1  1  0  0  0
  3  4  1  0  0  0  0
  3  9  1  0  0  0  0
  4 10  1  0  0  0  0
  5  4  1  0  0  0  0
  5 12  1  0  0  0  0
  6  1  1  0  0  0  0
  6  5  1  0  0  0  0
  8  3  1  0  0  0  0
 11  5  1  0  0  0  0
 13  6  1  0  0  0  0
 14  6  1  0  0  0  0
 15  2  1  0  0  0  0
 15 16  1  0  0  0  0
 16 18  2  0  0  0  0
 16 17  1  0  0  0  0
 19 18  1  0  0  0  0
 20 19  2  0  0  0  0
 21 20  1  0  0  0  0
 22 21  2  0  0  0  0
 23 22  1  0  0  0  0
 23 24  2  0  0  0  0
 24 25  1  0  0  0  0
 25 20  1  0  0  0  0
 25 15  2  0  0  0  0
 26 27  1  0  0  0  0
 27  1  1  0  0  0  0
 27 28  2  0  0  0  0
 28 33  1  0  0  0  0
 29 28  1  0  0  0  0
 30 29  2  0  0  0  0
 31 26  2  0  0  0  0
 31 30  1  0  0  0  0
 32 26  1  0  0  0  0
 34 30  1  0  0  0  0
M  END
>  <minimizedAffinity>
-5.52706909

$$$$

 OpenBabel03252508333D

 34 37  0  0  1  0  0  0  0  0999 V2000
   41.8530   26.2830   41.1400 N   0  0  0  0  0  0  0  0  0  0  0  0
   41.1480   25.3250   41.8540 C   0  0  1  0  0  0  0  0  0  0  0  0
   41.6720   24.9940   43.2130 C   0  0  0  0  0  0  0  0  0  0  0  0
   43.0630   24.9410   43.3480 N   0  0  0  0  0  0  0  0  0  0  0  0
   43.8290   25.7780   42.5150 C   0  0  0  0  0  0  0  0  0  0  0  0
   42.9650   26.8570   41.8690 C   0  0  0  0  0  0  0  0  0  0  0  0
   41.3800   24.3550   41.2760 H   0  0  0  0  0  0  0  0  0  0  0  0
   41.2640   25.6380   44.0180 H   0  0  0  0  0  0  0  0  0  0  0  0
   41.2630   23.9720   43.4740 H   0  0  0  0  0  0  0  0  0  0  0  0
   43.4940   24.0300   43.5600 H   0  0  0  0  0  0  0  0  0  0  0  0
   44.6890   26.2760   42.9520 H   0  0  0  0  0  0  0  0  0  0  0  0
   44.2030   25.1680   41.6570 H   0  0  0  0  0  0  0  0  0  0  0  0
   43.6390   27.4800   41.2960 H   0  0  0  0  0  0  0  0  0  0  0  0
   42.5880   27.4570   42.7270 H   0  0  0  0  0  0  0  0  0  0  0  0
   39.6800   25.3120   41.9610 C   0  0  0  0  0  0  0  0  0  0  0  0
   38.9790   24.1430   41.5800 C   0  0  0  0  0  0  0  0  0  0  0  0
   39.5540   23.2860   41.1910 H   0  0  0  0  0  0  0  0  0  0  0  0
   37.6410   23.9370   41.6370 C   0  0  0  0  0  3  0  0  0  0  0  0
   36.8490   24.9520   42.1090 C   0  0  0  0  0  3  0  0  0  0  0  0
   37.4140   26.1400   42.5110 C   0  0  0  0  0  0  0  0  0  0  0  0
   36.6710   27.1950   42.9940 C   0  0  0  0  0  3  0  0  0  0  0  0
   37.2370   28.4070   43.4040 C   0  0  0  0  0  3  0  0  0  0  0  0
   38.6280   28.5200   43.3050 C   0  0  0  0  0  3  0  0  0  0  0  0
   39.3250   27.4420   42.8180 C   0  0  0  0  0  3  0  0  0  0  0  0
   38.7770   26.2500   42.4150 C   0  0  0  0  0  0  0  0  0  0  0  0
   41.0970   27.9050   39.5510 C   0  0  0  0  0  0  0  0  0  0  0  0
   41.5070   26.6100   39.8210 C   0  0  0  0  0  0  0  0  0  0  0  0
   41.5600   25.7330   38.7670 C   0  0  0  0  0  0  0  0  0  0  0  0
   41.2260   26.1120   37.5230 N   0  0  0  0  0  0  0  0  0  0  0  0
   40.8250   27.3960   37.2890 C   0  0  0  0  0  0  0  0  0  0  0  0
   40.7630   28.2670   38.2840 N   0  0  0  0  0  0  0  0  0  0  0  0
   40.9880   28.7420   40.2210 H   0  0  0  0  0  0  0  0  0  0  0  0
   41.8640   24.7230   38.8020 H   0  0  0  0  0  0  0  0  0  0  0  0
   40.5550   27.6900   36.2610 H   0  0  0  0  0  0  0  0  0  0  0  0
  1  2  1  0  0  0  0
  1  6  1  0  0  0  0
  2  7  1  6  0  0  0
  2 15  1  0  0  0  0
  2  3  1  0  0  0  0
  3  4  1  0  0  0  0
  3  9  1  0  0  0  0
  3  8  1  0  0  0  0
  4 10  1  0  0  0  0
  5 11  1  0  0  0  0
  5  4  1  0  0  0  0
  6  5  1  0  0  0  0
  6 14  1  0  0  0  0
 12  5  1  0  0  0  0
 13  6  1  0  0  0  0
 15 25  1  0  0  0  0
 16 18  1  0  0  0  0
 16 15  2  0  0  0  0
 17 16  1  0  0  0  0
 18 19  2  0  0  0  0
 19 20  1  0  0  0  0
 20 21  1  0  0  0  0
 21 22  2  0  0  0  0
 23 22  1  0  0  0  0
 24 23  2  0  0  0  0
 25 20  2  0  0  0  0
 25 24  1  0  0  0  0
 26 27  1  0  0  0  0
 26 32  1  0  0  0  0
 27  1  1  0  0  0  0
 28 33  1  0  0  0  0
 28 27  2  0  0  0  0
 29 28  1  0  0  0  0
 30 29  2  0  0  0  0
 30 31  1  0  0  0  0
 31 26  2  0  0  0  0
 34 30  1  0  0  0  0
M  END
>  <minimizedAffinity>
-5.51039839

$$$$
