
 OpenBabel03252506383D

 46 50  0  0  1  0  0  0  0  0999 V2000
   44.4810   35.7060   45.0150 C   0  0  0  0  0  0  0  0  0  0  0  0
   45.1190   35.6750   43.7670 C   0  0  0  0  0  0  0  0  0  0  0  0
   46.0100   34.6920   43.5030 C   0  0  0  0  0  0  0  0  0  0  0  0
   46.2350   33.7810   44.4830 N   0  0  0  0  0  0  0  0  0  0  0  0
   45.6300   33.8140   45.6610 C   0  0  0  0  0  0  0  0  0  0  0  0
   44.7470   34.7700   45.9480 N   0  0  0  0  0  0  0  0  0  0  0  0
   45.9460   32.7980   46.6280 N   0  0  0  0  0  0  0  0  0  0  0  0
   45.2150   32.5720   47.8240 C   0  0  0  0  0  0  0  0  0  0  0  0
   46.2970   32.2040   48.8240 C   0  0  0  0  0  0  0  0  0  0  0  0
   47.5640   32.0650   48.0380 C   0  0  0  0  0  0  0  0  0  0  0  0
   47.0430   31.8590   46.6170 C   0  0  1  0  0  0  0  0  0  0  0  0
   43.7560   36.4680   45.2900 H   0  0  0  0  0  0  0  0  0  0  0  0
   46.5020   34.6540   42.5620 H   0  0  0  0  0  0  0  0  0  0  0  0
   44.8900   33.6030   48.1830 H   0  0  0  0  0  0  0  0  0  0  0  0
   44.3660   31.9730   47.9140 H   0  0  0  0  0  0  0  0  0  0  0  0
   46.3500   32.8420   49.7020 H   0  0  0  0  0  0  0  0  0  0  0  0
   46.0350   31.1800   49.2050 H   0  0  0  0  0  0  0  0  0  0  0  0
   48.1860   31.2080   48.3660 H   0  0  0  0  0  0  0  0  0  0  0  0
   48.1150   33.0290   48.0610 H   0  0  0  0  0  0  0  0  0  0  0  0
   47.8460   32.1230   45.9060 H   0  0  0  0  0  0  0  0  0  0  0  0
   44.7690   36.7160   42.8380 N   0  0  0  0  0  0  0  0  0  0  0  0
   43.9530   36.3210   42.3260 H   0  0  0  0  0  0  0  0  0  0  0  0
   45.2830   37.6270   42.7700 H   0  0  0  0  0  0  0  0  0  0  0  0
   46.4860   30.1790   46.4460 S   0  0  0  0  0  0  0  0  0  0  0  0
   46.2120   30.5810   43.1450 O   0  0  0  0  0  0  0  0  0  0  0  0
   45.3810   30.0780   43.9180 C   0  0  0  0  0  0  0  0  0  0  0  0
   45.1440   29.8940   45.3700 C   0  0  1  0  0  0  0  0  0  0  0  0
   44.5570   28.5050   45.4170 C   0  0  0  0  0  0  0  0  0  0  0  0
   43.4510   28.7130   44.3760 C   0  0  0  0  0  0  0  0  0  0  0  0
   44.2200   29.4290   43.3650 N   0  0  0  0  0  0  0  0  0  0  0  0
   44.2170   30.5220   45.4920 H   0  0  0  0  0  0  0  0  0  0  0  0
   44.0840   28.3110   46.3940 H   0  0  0  0  0  0  0  0  0  0  0  0
   45.2430   27.7250   45.0820 H   0  0  0  0  0  0  0  0  0  0  0  0
   42.6150   29.2870   44.7880 H   0  0  0  0  0  0  0  0  0  0  0  0
   43.1600   27.7010   44.0190 H   0  0  0  0  0  0  0  0  0  0  0  0
   43.7280   29.3860   42.0110 C   0  0  0  0  0  0  0  0  0  0  0  0
   44.1520   28.2590   41.3130 C   0  0  0  0  0  0  0  0  0  0  0  0
   44.7830   27.4820   41.7150 H   0  0  0  0  0  0  0  0  0  0  0  0
   43.7760   28.0420   39.9870 C   0  0  0  0  0  3  0  0  0  0  0  0
   42.9620   29.0020   39.4020 C   0  0  0  0  0  3  0  0  0  0  0  0
   42.5480   30.1100   40.0950 C   0  0  0  0  0  0  0  0  0  0  0  0
   41.7340   31.0870   39.5400 C   0  0  0  0  0  3  0  0  0  0  0  0
   41.3480   32.1720   40.2690 C   0  0  0  0  0  3  0  0  0  0  0  0
   41.7400   32.3620   41.5960 C   0  0  0  0  0  3  0  0  0  0  0  0
   42.5580   31.3970   42.1820 C   0  0  0  0  0  3  0  0  0  0  0  0
   42.9230   30.3270   41.4220 C   0  0  0  0  0  0  0  0  0  0  0  0
  1 12  1  0  0  0  0
  1  6  1  0  0  0  0
  2  1  2  0  0  0  0
  3  2  1  0  0  0  0
  3  4  2  0  0  0  0
  4  5  1  0  0  0  0
  5  6  2  0  0  0  0
  5  7  1  0  0  0  0
  7  8  1  0  0  0  0
  8 15  1  0  0  0  0
  8 14  1  0  0  0  0
  8  9  1  0  0  0  0
  9 17  1  0  0  0  0
  9 16  1  0  0  0  0
 10 19  1  0  0  0  0
 10 18  1  0  0  0  0
 10  9  1  0  0  0  0
 11 20  1  6  0  0  0
 11  7  1  0  0  0  0
 11 10  1  0  0  0  0
 13  3  1  0  0  0  0
 21  2  1  0  0  0  0
 22 21  1  0  0  0  0
 23 21  1  0  0  0  0
 24 11  1  0  0  0  0
 25 26  2  0  0  0  0
 26 27  1  0  0  0  0
 27 28  1  0  0  0  0
 27 31  1  1  0  0  0
 27 24  1  0  0  0  0
 28 32  1  0  0  0  0
 29 34  1  0  0  0  0
 29 28  1  0  0  0  0
 30 26  1  0  0  0  0
 30 29  1  0  0  0  0
 33 28  1  0  0  0  0
 35 29  1  0  0  0  0
 36 30  1  0  0  0  0
 37 38  1  0  0  0  0
 37 36  2  0  0  0  0
 39 37  1  0  0  0  0
 40 39  2  0  0  0  0
 40 41  1  0  0  0  0
 41 46  1  0  0  0  0
 42 41  2  0  0  0  0
 42 43  1  0  0  0  0
 43 44  2  0  0  0  0
 44 45  1  0  0  0  0
 46 36  1  0  0  0  0
 46 45  2  0  0  0  0
M  END
>  <minimizedAffinity>
-5.59411287

>  <minimizedRMSD>
0.880653858

$$$$
