
 OpenBabel03252509213D

 27 30  0  0  0  0  0  0  0  0999 V2000
   43.6810   35.2250   42.3930 C   0  0  0  0  0  0  0  0  0  0  0  0
   43.2070   34.6740   41.2010 C   0  0  0  0  0  0  0  0  0  0  0  0
   44.2880   34.1900   40.4640 C   0  0  0  0  0  0  0  0  0  0  0  0
   45.6040   34.2780   40.9150 N   0  0  0  0  0  0  0  0  0  0  0  0
   45.9320   34.8300   42.0840 C   0  0  0  0  0  0  0  0  0  0  0  0
   44.9330   35.3160   42.8370 N   0  0  0  0  0  0  0  0  0  0  0  0
   42.9280   35.6530   43.0800 H   0  0  0  0  0  0  0  0  0  0  0  0
   46.9960   34.7830   42.2170 H   0  0  0  0  0  0  0  0  0  0  0  0
   41.8550   34.6080   40.7910 C   0  0  0  0  0  0  0  0  0  0  0  0
   41.2070   35.5970   40.0760 C   0  0  0  0  0  0  0  0  0  0  0  0
   41.7910   36.4870   39.8160 H   0  0  0  0  0  0  0  0  0  0  0  0
   39.8920   35.5640   39.6610 C   0  0  0  0  0  3  0  0  0  0  0  0
   39.2020   34.4080   40.0210 C   0  0  0  0  0  3  0  0  0  0  0  0
   39.7740   33.3590   40.7430 C   0  0  0  0  0  0  0  0  0  0  0  0
   39.0120   32.2520   41.0550 C   0  0  0  0  0  3  0  0  0  0  0  0
   39.5930   31.2070   41.7760 C   0  0  0  0  0  3  0  0  0  0  0  0
   40.9150   31.3510   42.1360 C   0  0  0  0  0  3  0  0  0  0  0  0
   41.6930   32.4450   41.8370 C   0  0  0  0  0  3  0  0  0  0  0  0
   41.1000   33.4710   41.1200 C   0  0  0  0  0  0  0  0  0  0  0  0
   44.0040   33.4710   39.1800 C   0  0  0  0  0  0  0  0  0  0  0  0
   45.2610   32.9750   38.5010 C   0  0  0  0  0  0  0  0  0  0  0  0
   44.2000   32.0550   39.1300 C   0  0  0  0  0  0  0  0  0  0  0  0
   43.3380   34.0050   38.5060 H   0  0  0  0  0  0  0  0  0  0  0  0
   45.3070   33.0520   37.3990 H   0  0  0  0  0  0  0  0  0  0  0  0
   46.1840   33.1890   39.0180 H   0  0  0  0  0  0  0  0  0  0  0  0
   43.7750   31.3610   38.3730 H   0  0  0  0  0  0  0  0  0  0  0  0
   44.5570   31.4620   40.0290 H   0  0  0  0  0  0  0  0  0  0  0  0
  1  6  1  0  0  0  0
  1  7  1  0  0  0  0
  2  1  2  0  0  0  0
  3  4  2  0  0  0  0
  3  2  1  0  0  0  0
  4  5  1  0  0  0  0
  5  8  1  0  0  0  0
  5  6  2  0  0  0  0
  9 19  1  0  0  0  0
  9  2  1  0  0  0  0
 10  9  2  0  0  0  0
 11 10  1  0  0  0  0
 12 13  2  0  0  0  0
 12 10  1  0  0  0  0
 13 14  1  0  0  0  0
 14 15  2  0  0  0  0
 14 19  1  0  0  0  0
 15 16  1  0  0  0  0
 16 17  2  0  0  0  0
 18 17  1  0  0  0  0
 19 18  2  0  0  0  0
 20  3  1  0  0  0  0
 21 25  1  0  0  0  0
 21 22  1  0  0  0  0
 21 20  1  0  0  0  0
 22 20  1  0  0  0  0
 22 27  1  0  0  0  0
 23 20  1  0  0  0  0
 24 21  1  0  0  0  0
 26 22  1  0  0  0  0
M  END
>  <minimizedAffinity>
-4.87807417

>  <minimizedRMSD>
4.88425303

$$$$
