
 OpenBabel03252508323D

 34 37  0  0  1  0  0  0  0  0999 V2000
   44.8880   34.3940   42.1780 N   0  0  0  0  0  0  0  0  0  0  0  0
   45.4050   33.3720   41.3940 C   0  0  1  0  0  0  0  0  0  0  0  0
   45.1900   33.4950   39.9210 C   0  0  0  0  0  0  0  0  0  0  0  0
   43.9520   33.9970   39.5120 N   0  0  0  0  0  0  0  0  0  0  0  0
   43.3080   34.9130   40.3650 C   0  0  0  0  0  0  0  0  0  0  0  0
   44.2680   35.4600   41.4170 C   0  0  0  0  0  0  0  0  0  0  0  0
   44.7190   32.4820   41.6530 H   0  0  0  0  0  0  0  0  0  0  0  0
   45.9900   34.0590   39.4000 H   0  0  0  0  0  0  0  0  0  0  0  0
   45.2950   32.4520   39.4940 H   0  0  0  0  0  0  0  0  0  0  0  0
   43.3200   33.3680   38.9980 H   0  0  0  0  0  0  0  0  0  0  0  0
   42.8120   35.7650   39.9110 H   0  0  0  0  0  0  0  0  0  0  0  0
   42.5360   34.3580   40.9520 H   0  0  0  0  0  0  0  0  0  0  0  0
   43.7080   36.1880   41.9870 H   0  0  0  0  0  0  0  0  0  0  0  0
   45.0400   36.0040   40.8280 H   0  0  0  0  0  0  0  0  0  0  0  0
   46.7580   32.8200   41.5730 C   0  0  0  0  0  0  0  0  0  0  0  0
   46.9450   31.4230   41.4450 C   0  0  0  0  0  0  0  0  0  0  0  0
   46.0670   30.7890   41.2400 H   0  0  0  0  0  0  0  0  0  0  0  0
   48.1130   30.7420   41.5460 C   0  0  0  0  0  3  0  0  0  0  0  0
   49.2580   31.4540   41.8000 C   0  0  0  0  0  3  0  0  0  0  0  0
   49.2030   32.8210   41.9450 C   0  0  0  0  0  0  0  0  0  0  0  0
   50.3180   33.5900   42.2000 C   0  0  0  0  0  3  0  0  0  0  0  0
   50.2720   34.9800   42.3510 C   0  0  0  0  0  3  0  0  0  0  0  0
   49.0180   35.5880   42.2290 C   0  0  0  0  0  3  0  0  0  0  0  0
   47.9380   34.7810   41.9730 C   0  0  0  0  0  3  0  0  0  0  0  0
   47.9750   33.4170   41.8250 C   0  0  0  0  0  0  0  0  0  0  0  0
   44.5200   35.4470   44.2950 C   0  0  0  0  0  0  0  0  0  0  0  0
   44.9500   34.3430   43.5780 C   0  0  0  0  0  0  0  0  0  0  0  0
   45.3990   33.2610   44.2930 C   0  0  0  0  0  0  0  0  0  0  0  0
   45.4220   33.2710   45.6360 N   0  0  0  0  0  0  0  0  0  0  0  0
   44.9910   34.3750   46.3140 C   0  0  0  0  0  0  0  0  0  0  0  0
   44.5520   35.4340   45.6540 N   0  0  0  0  0  0  0  0  0  0  0  0
   44.1330   36.3860   43.9380 H   0  0  0  0  0  0  0  0  0  0  0  0
   45.7430   32.3450   43.9000 H   0  0  0  0  0  0  0  0  0  0  0  0
   45.0170   34.3650   47.4170 H   0  0  0  0  0  0  0  0  0  0  0  0
  1 27  1  0  0  0  0
  2 15  1  0  0  0  0
  2  7  1  1  0  0  0
  2  1  1  0  0  0  0
  3  2  1  0  0  0  0
  4  3  1  0  0  0  0
  4  5  1  0  0  0  0
  5 12  1  0  0  0  0
  5  6  1  0  0  0  0
  6 13  1  0  0  0  0
  6  1  1  0  0  0  0
  8  3  1  0  0  0  0
  9  3  1  0  0  0  0
 10  4  1  0  0  0  0
 11  5  1  0  0  0  0
 14  6  1  0  0  0  0
 15 25  1  0  0  0  0
 16 18  1  0  0  0  0
 16 15  2  0  0  0  0
 17 16  1  0  0  0  0
 18 19  2  0  0  0  0
 19 20  1  0  0  0  0
 20 21  1  0  0  0  0
 21 22  2  0  0  0  0
 23 22  1  0  0  0  0
 24 23  2  0  0  0  0
 25 20  2  0  0  0  0
 25 24  1  0  0  0  0
 26 31  1  0  0  0  0
 27 28  1  0  0  0  0
 27 26  2  0  0  0  0
 28 29  2  0  0  0  0
 29 30  1  0  0  0  0
 30 34  1  0  0  0  0
 31 30  2  0  0  0  0
 32 26  1  0  0  0  0
 33 28  1  0  0  0  0
M  END
>  <minimizedAffinity>
-5.29527044

>  <minimizedRMSD>
1.54114306

$$$$
