
 OpenBabel03242521143D

 30 33  0  0  0  0  0  0  0  0999 V2000
   44.4690   36.0750   44.7860 C   0  0  0  0  0  0  0  0  0  0  0  0
   45.1080   35.9780   43.5110 C   0  0  0  0  0  0  0  0  0  0  0  0
   45.9160   34.8740   43.3370 C   0  0  0  0  0  0  0  0  0  0  0  0
   46.0200   34.0160   44.3690 N   0  0  0  0  0  0  0  0  0  0  0  0
   45.4310   34.1020   45.5480 C   0  0  0  0  0  0  0  0  0  0  0  0
   44.6380   35.1570   45.7580 N   0  0  0  0  0  0  0  0  0  0  0  0
   43.8180   36.9100   45.0020 H   0  0  0  0  0  0  0  0  0  0  0  0
   44.9340   36.7330   42.7860 H   0  0  0  0  0  0  0  0  0  0  0  0
   46.5840   34.7120   42.0890 N   0  0  0  0  0  0  0  0  0  0  0  0
   47.8440   35.1710   41.9830 C   0  0  0  0  0  0  0  0  0  0  0  0
   48.4920   35.0330   40.7530 C   0  0  0  0  0  0  0  0  0  0  0  0
   47.8150   34.4400   39.7280 C   0  0  0  0  0  0  0  0  0  0  0  0
   48.3920   34.3120   38.6040 O   0  0  0  0  0  0  0  0  0  0  0  0
   46.5610   33.9780   39.8200 N   0  0  0  0  0  0  0  0  0  0  0  0
   45.9670   34.1320   41.0310 C   0  0  0  0  0  0  0  0  0  0  0  0
   44.8010   33.7380   41.2320 O   0  0  0  0  0  0  0  0  0  0  0  0
   48.3550   35.6400   42.8250 H   0  0  0  0  0  0  0  0  0  0  0  0
   49.5070   35.3820   40.6020 H   0  0  0  0  0  0  0  0  0  0  0  0
   46.0520   33.5260   39.0320 H   0  0  0  0  0  0  0  0  0  0  0  0
   45.7810   32.9840   46.4150 C   0  0  0  0  0  0  0  0  0  0  0  0
   45.3230   32.8850   47.7090 C   0  0  0  0  0  0  0  0  0  0  0  0
   44.6710   33.6560   48.1360 H   0  0  0  0  0  0  0  0  0  0  0  0
   45.6250   31.8500   48.5660 C   0  0  0  0  0  0  0  0  0  0  0  0
   46.4350   30.8220   48.1460 C   0  0  0  0  0  0  0  0  0  0  0  0
   46.9150   30.8770   46.8630 C   0  0  0  0  0  0  0  0  0  0  0  0
   47.7240   29.8360   46.4670 C   0  0  0  0  0  0  0  0  0  0  0  0
   48.2530   29.8000   45.2020 C   0  0  0  0  0  0  0  0  0  0  0  0
   47.9270   30.8660   44.3570 C   0  0  0  0  0  0  0  0  0  0  0  0
   47.1120   31.8790   44.8120 C   0  0  0  0  0  0  0  0  0  0  0  0
   46.5850   31.9250   46.0600 C   0  0  0  0  0  0  0  0  0  0  0  0
  1  7  1  0  0  0  0
  1  6  1  0  0  0  0
  2  1  2  0  0  0  0
  3  2  1  0  0  0  0
  3  4  2  0  0  0  0
  4  5  1  0  0  0  0
  5  6  2  0  0  0  0
  5 20  1  0  0  0  0
  8  2  1  0  0  0  0
  9  3  1  0  0  0  0
 10  9  1  0  0  0  0
 10 17  1  0  0  0  0
 11 10  2  0  0  0  0
 12 14  1  0  0  0  0
 12 11  1  0  0  0  0
 13 12  2  0  0  0  0
 14 15  1  0  0  0  0
 15 16  2  0  0  0  0
 15  9  1  0  0  0  0
 18 11  1  0  0  0  0
 19 14  1  0  0  0  0
 20 21  1  0  0  0  0
 21 22  1  0  0  0  0
 21 23  2  0  0  0  0
 24 23  1  0  0  0  0
 25 24  2  0  0  0  0
 26 25  1  0  0  0  0
 27 26  2  0  0  0  0
 28 29  2  0  0  0  0
 28 27  1  0  0  0  0
 29 30  1  0  0  0  0
 30 20  2  0  0  0  0
 30 25  1  0  0  0  0
M  END
>  <minimizedAffinity>
-7.35048676

>  <minimizedRMSD>
0.71961838

$$$$
