
 OpenBabel03252503573D

 22 24  0  0  0  0  0  0  0  0999 V2000
   46.1460   34.8110   43.3660 C   0  0  0  0  0  0  0  0  0  0  0  0
   45.2760   35.8860   43.3940 C   0  0  0  0  0  0  0  0  0  0  0  0
   44.4990   35.9990   44.5710 C   0  0  0  0  0  0  0  0  0  0  0  0
   44.6490   35.0860   45.5560 N   0  0  0  0  0  0  0  0  0  0  0  0
   45.5010   34.0640   45.4870 C   0  0  0  0  0  0  0  0  0  0  0  0
   46.2190   33.9760   44.3800 N   0  0  0  0  0  0  0  0  0  0  0  0
   45.0790   36.6550   42.6830 H   0  0  0  0  0  0  0  0  0  0  0  0
   43.7740   36.7760   44.7550 H   0  0  0  0  0  0  0  0  0  0  0  0
   45.8000   32.9950   46.4370 C   0  0  0  0  0  0  0  0  0  0  0  0
   45.3340   32.9710   47.7460 C   0  0  0  0  0  0  0  0  0  0  0  0
   44.7060   33.8140   48.0750 H   0  0  0  0  0  0  0  0  0  0  0  0
   45.5970   31.9840   48.6530 C   0  0  0  0  0  0  0  0  0  0  0  0
   46.3780   30.9150   48.2840 C   0  0  0  0  0  0  0  0  0  0  0  0
   46.8690   30.8730   47.0100 C   0  0  0  0  0  0  0  0  0  0  0  0
   47.6420   29.7830   46.6960 C   0  0  0  0  0  0  0  0  0  0  0  0
   48.1780   29.6590   45.4350 C   0  0  0  0  0  0  0  0  0  0  0  0
   47.8980   30.6790   44.5210 C   0  0  0  0  0  0  0  0  0  0  0  0
   47.1170   31.7430   44.9020 C   0  0  0  0  0  0  0  0  0  0  0  0
   46.5700   31.8950   46.1430 C   0  0  0  0  0  0  0  0  0  0  0  0
   46.9090   34.7050   42.1690 C   0  0  0  0  0  0  0  0  0  0  0  0
   47.9270   35.3540   41.8410 O   0  0  0  0  0  0  0  0  0  0  0  0
   46.4870   33.9480   41.5220 H   0  0  0  0  0  0  0  0  0  0  0  0
  1  2  2  0  0  0  0
  1  6  1  0  0  0  0
  2  3  1  0  0  0  0
  3  8  1  0  0  0  0
  3  4  2  0  0  0  0
  5  4  1  0  0  0  0
  5  9  1  0  0  0  0
  6  5  2  0  0  0  0
  7  2  1  0  0  0  0
  9 10  1  0  0  0  0
 10 11  1  0  0  0  0
 10 12  2  0  0  0  0
 13 12  1  0  0  0  0
 14 13  2  0  0  0  0
 15 14  1  0  0  0  0
 16 15  2  0  0  0  0
 17 18  2  0  0  0  0
 17 16  1  0  0  0  0
 18 19  1  0  0  0  0
 19  9  2  0  0  0  0
 19 14  1  0  0  0  0
 20  1  1  0  0  0  0
 21 20  2  0  0  0  0
 22 20  1  0  0  0  0
M  END
>  <minimizedAffinity>
-5.48819685

>  <minimizedRMSD>
0.570449889

$$$$
