
 OpenBabel03242515343D

 42 46  0  0  1  0  0  0  0  0999 V2000
   38.8270   24.5850   40.9600 N   0  0  0  0  0  0  0  0  0  0  0  0
   38.0960   23.4120   41.3480 C   0  0  0  0  0  0  0  0  0  0  0  0
   37.0590   23.4150   40.2400 C   0  0  0  0  0  0  0  0  0  0  0  0
   36.5430   24.8520   40.4240 C   0  0  0  0  0  0  0  0  0  0  0  0
   37.8200   25.5960   40.6200 C   0  0  1  0  0  0  0  0  0  0  0  0
   38.6910   22.4740   41.2260 H   0  0  0  0  0  0  0  0  0  0  0  0
   37.5970   23.4700   42.3170 H   0  0  0  0  0  0  0  0  0  0  0  0
   36.2250   22.7350   40.4410 H   0  0  0  0  0  0  0  0  0  0  0  0
   37.5460   23.2990   39.2600 H   0  0  0  0  0  0  0  0  0  0  0  0
   35.9640   25.1790   39.5390 H   0  0  0  0  0  0  0  0  0  0  0  0
   35.8910   24.8230   41.2990 H   0  0  0  0  0  0  0  0  0  0  0  0
   38.1980   25.9830   39.6280 H   0  0  0  0  0  0  0  0  0  0  0  0
   39.2310   28.0300   40.2470 F   0  0  0  0  0  0  0  0  0  0  0  0
   38.4440   27.9120   41.3780 C   0  0  0  0  0  0  0  0  0  0  0  0
   37.7860   26.7230   41.5460 C   0  0  0  0  0  0  0  0  0  0  0  0
   37.0170   26.6470   42.6990 C   0  0  0  0  0  0  0  0  0  0  0  0
   36.9420   27.7030   43.5820 C   0  0  0  0  0  0  0  0  0  0  0  0
   37.6460   28.8980   43.3480 C   0  0  0  0  0  0  0  0  0  0  0  0
   38.4290   28.9950   42.1890 C   0  0  0  0  0  0  0  0  0  0  0  0
   36.4590   25.7570   42.9260 H   0  0  0  0  0  0  0  0  0  0  0  0
   36.3290   27.6040   44.4740 H   0  0  0  0  0  0  0  0  0  0  0  0
   37.5870   29.7130   44.0330 H   0  0  0  0  0  0  0  0  0  0  0  0
   39.1840   30.2070   41.8870 C   0  0  0  0  0  0  0  0  0  0  0  0
   40.4820   30.1850   42.4030 C   0  0  0  0  0  0  0  0  0  0  0  0
   40.9070   29.3680   42.9700 H   0  0  0  0  0  0  0  0  0  0  0  0
   41.2970   31.2990   42.1750 C   0  0  0  0  0  3  0  0  0  0  0  0
   40.8390   32.3910   41.4600 C   0  0  0  0  0  3  0  0  0  0  0  0
   39.5500   32.3740   40.9680 C   0  0  0  0  0  0  0  0  0  0  0  0
   39.0120   33.4310   40.2390 C   0  0  0  0  0  3  0  0  0  0  0  0
   37.7280   33.4380   39.7350 C   0  0  0  0  0  3  0  0  0  0  0  0
   36.9700   32.3140   39.9920 C   0  0  0  0  0  3  0  0  0  0  0  0
   37.4180   31.2090   40.7080 C   0  0  0  0  0  3  0  0  0  0  0  0
   38.7180   31.2920   41.1730 C   0  0  0  0  0  0  0  0  0  0  0  0
   42.3530   25.4100   41.8280 C   0  0  0  0  0  0  0  0  0  0  0  0
   40.9960   25.1730   41.9940 C   0  0  0  0  0  0  0  0  0  0  0  0
   40.2180   24.8390   40.8750 C   0  0  0  0  0  0  0  0  0  0  0  0
   40.8400   24.7670   39.6870 N   0  0  0  0  0  0  0  0  0  0  0  0
   42.1610   25.0000   39.5360 C   0  0  0  0  0  0  0  0  0  0  0  0
   42.9190   25.3240   40.6160 N   0  0  0  0  0  0  0  0  0  0  0  0
   42.9350   25.6660   42.7030 H   0  0  0  0  0  0  0  0  0  0  0  0
   40.5190   25.2370   42.9600 H   0  0  0  0  0  0  0  0  0  0  0  0
   42.6360   24.9330   38.5530 H   0  0  0  0  0  0  0  0  0  0  0  0
  1  2  1  0  0  0  0
  2  7  1  0  0  0  0
  3  4  1  0  0  0  0
  3  8  1  0  0  0  0
  3  2  1  0  0  0  0
  4  5  1  0  0  0  0
  4 11  1  0  0  0  0
  5 12  1  6  0  0  0
  5  1  1  0  0  0  0
  5 15  1  0  0  0  0
  6  2  1  0  0  0  0
  9  3  1  0  0  0  0
 10  4  1  0  0  0  0
 13 14  1  0  0  0  0
 14 15  2  0  0  0  0
 14 19  1  0  0  0  0
 15 16  1  0  0  0  0
 16 20  1  0  0  0  0
 16 17  2  0  0  0  0
 17 21  1  0  0  0  0
 18 17  1  0  0  0  0
 18 22  1  0  0  0  0
 19 18  2  0  0  0  0
 23 19  1  0  0  0  0
 23 24  1  0  0  0  0
 24 25  1  0  0  0  0
 26 24  2  0  0  0  0
 27 26  1  0  0  0  0
 28 33  1  0  0  0  0
 28 27  2  0  0  0  0
 29 28  1  0  0  0  0
 30 31  1  0  0  0  0
 30 29  2  0  0  0  0
 31 32  2  0  0  0  0
 32 33  1  0  0  0  0
 33 23  2  0  0  0  0
 34 35  1  0  0  0  0
 34 40  1  0  0  0  0
 35 41  1  0  0  0  0
 36  1  1  0  0  0  0
 36 35  2  0  0  0  0
 37 36  1  0  0  0  0
 38 37  2  0  0  0  0
 38 39  1  0  0  0  0
 39 34  2  0  0  0  0
 42 38  1  0  0  0  0
M  END
>  <minimizedAffinity>
-6.56361294

$$$$

 OpenBabel03242515343D

 42 46  0  0  1  0  0  0  0  0999 V2000
   39.8510   30.8070   41.5640 N   0  0  0  0  0  0  0  0  0  0  0  0
   40.4870   31.5280   42.6310 C   0  0  0  0  0  0  0  0  0  0  0  0
   41.8380   30.8380   42.5950 C   0  0  0  0  0  0  0  0  0  0  0  0
   41.3480   29.3850   42.7090 C   0  0  0  0  0  0  0  0  0  0  0  0
   40.1890   29.3950   41.7710 C   0  0  1  0  0  0  0  0  0  0  0  0
   40.6690   32.6000   42.3770 H   0  0  0  0  0  0  0  0  0  0  0  0
   40.0360   31.4000   43.6160 H   0  0  0  0  0  0  0  0  0  0  0  0
   42.4450   31.0540   43.4790 H   0  0  0  0  0  0  0  0  0  0  0  0
   42.3290   31.0080   41.6240 H   0  0  0  0  0  0  0  0  0  0  0  0
   42.1490   28.6760   42.4250 H   0  0  0  0  0  0  0  0  0  0  0  0
   41.0860   29.2420   43.7580 H   0  0  0  0  0  0  0  0  0  0  0  0
   40.5240   29.0780   40.7390 H   0  0  0  0  0  0  0  0  0  0  0  0
   39.2760   27.1660   40.2710 F   0  0  0  0  0  0  0  0  0  0  0  0
   38.5980   27.4760   41.4350 C   0  0  0  0  0  0  0  0  0  0  0  0
   39.0450   28.5660   42.1340 C   0  0  0  0  0  0  0  0  0  0  0  0
   38.3300   28.8450   43.2900 C   0  0  0  0  0  0  0  0  0  0  0  0
   37.2590   28.0660   43.6750 C   0  0  0  0  0  0  0  0  0  0  0  0
   36.8510   26.9590   42.9100 C   0  0  0  0  0  0  0  0  0  0  0  0
   37.5620   26.6610   41.7380 C   0  0  0  0  0  0  0  0  0  0  0  0
   38.5980   29.6780   43.9110 H   0  0  0  0  0  0  0  0  0  0  0  0
   36.7240   28.3180   44.5870 H   0  0  0  0  0  0  0  0  0  0  0  0
   36.0230   26.3590   43.2100 H   0  0  0  0  0  0  0  0  0  0  0  0
   37.1900   25.5260   40.8990 C   0  0  0  0  0  0  0  0  0  0  0  0
   37.5950   24.2980   41.4290 C   0  0  0  0  0  0  0  0  0  0  0  0
   38.1300   24.1750   42.3610 H   0  0  0  0  0  0  0  0  0  0  0  0
   37.2920   23.1400   40.7070 C   0  0  0  0  0  3  0  0  0  0  0  0
   36.6110   23.1990   39.5040 C   0  0  0  0  0  3  0  0  0  0  0  0
   36.2290   24.4320   39.0140 C   0  0  0  0  0  0  0  0  0  0  0  0
   35.5400   24.5790   37.8130 C   0  0  0  0  0  3  0  0  0  0  0  0
   35.1460   25.7980   37.3020 C   0  0  0  0  0  3  0  0  0  0  0  0
   35.4730   26.9070   38.0570 C   0  0  0  0  0  3  0  0  0  0  0  0
   36.1570   26.8600   39.2680 C   0  0  0  0  0  3  0  0  0  0  0  0
   36.5110   25.5960   39.7000 C   0  0  0  0  0  0  0  0  0  0  0  0
   38.3330   31.1850   38.1840 C   0  0  0  0  0  0  0  0  0  0  0  0
   39.1520   30.6980   39.1940 C   0  0  0  0  0  0  0  0  0  0  0  0
   39.0490   31.2460   40.4820 C   0  0  0  0  0  0  0  0  0  0  0  0
   38.1510   32.2270   40.6680 N   0  0  0  0  0  0  0  0  0  0  0  0
   37.3600   32.6940   39.6790 C   0  0  0  0  0  0  0  0  0  0  0  0
   37.4550   32.1670   38.4300 N   0  0  0  0  0  0  0  0  0  0  0  0
   38.4280   30.7490   37.1980 H   0  0  0  0  0  0  0  0  0  0  0  0
   39.8660   29.9080   39.0180 H   0  0  0  0  0  0  0  0  0  0  0  0
   36.6390   33.4940   39.8650 H   0  0  0  0  0  0  0  0  0  0  0  0
  1  5  1  0  0  0  0
  1  2  1  0  0  0  0
  2  7  1  0  0  0  0
  3  2  1  0  0  0  0
  3  4  1  0  0  0  0
  3  8  1  0  0  0  0
  4 11  1  0  0  0  0
  5 12  1  6  0  0  0
  5 15  1  0  0  0  0
  5  4  1  0  0  0  0
  6  2  1  0  0  0  0
  9  3  1  0  0  0  0
 10  4  1  0  0  0  0
 13 14  1  0  0  0  0
 14 19  2  0  0  0  0
 14 15  1  0  0  0  0
 15 16  2  0  0  0  0
 16 17  1  0  0  0  0
 16 20  1  0  0  0  0
 17 21  1  0  0  0  0
 18 22  1  0  0  0  0
 18 17  2  0  0  0  0
 19 18  1  0  0  0  0
 23 24  1  0  0  0  0
 23 19  1  0  0  0  0
 24 25  1  0  0  0  0
 26 24  2  0  0  0  0
 27 26  1  0  0  0  0
 28 27  2  0  0  0  0
 28 33  1  0  0  0  0
 29 28  1  0  0  0  0
 30 29  2  0  0  0  0
 30 31  1  0  0  0  0
 31 32  2  0  0  0  0
 32 33  1  0  0  0  0
 33 23  2  0  0  0  0
 34 39  2  0  0  0  0
 34 35  1  0  0  0  0
 35 36  2  0  0  0  0
 36 37  1  0  0  0  0
 36  1  1  0  0  0  0
 38 42  1  0  0  0  0
 38 37  2  0  0  0  0
 39 38  1  0  0  0  0
 40 34  1  0  0  0  0
 41 35  1  0  0  0  0
M  END
>  <minimizedAffinity>
-6.55448341

$$$$

 OpenBabel03242515343D

 42 46  0  0  1  0  0  0  0  0999 V2000
   39.1000   32.1040   38.7630 N   0  0  0  0  0  0  0  0  0  0  0  0
   37.7380   32.0330   38.3160 C   0  0  0  0  0  0  0  0  0  0  0  0
   37.2220   33.3070   38.9600 C   0  0  0  0  0  0  0  0  0  0  0  0
   37.6710   33.0220   40.4030 C   0  0  0  0  0  0  0  0  0  0  0  0
   39.0430   32.4830   40.1790 C   0  0  1  0  0  0  0  0  0  0  0  0
   37.6390   32.1720   37.2120 H   0  0  0  0  0  0  0  0  0  0  0  0
   37.1670   31.1790   38.6850 H   0  0  0  0  0  0  0  0  0  0  0  0
   36.1290   33.3670   38.9590 H   0  0  0  0  0  0  0  0  0  0  0  0
   37.7500   34.1820   38.5540 H   0  0  0  0  0  0  0  0  0  0  0  0
   37.6460   33.9460   41.0130 H   0  0  0  0  0  0  0  0  0  0  0  0
   36.9550   32.3020   40.8000 H   0  0  0  0  0  0  0  0  0  0  0  0
   39.8010   33.3190   40.2310 H   0  0  0  0  0  0  0  0  0  0  0  0
   37.5570   30.1420   40.7820 F   0  0  0  0  0  0  0  0  0  0  0  0
   38.7970   30.2850   41.3760 C   0  0  0  0  0  0  0  0  0  0  0  0
   39.4890   31.4300   41.0850 C   0  0  0  0  0  0  0  0  0  0  0  0
   40.7240   31.5340   41.7090 C   0  0  0  0  0  0  0  0  0  0  0  0
   41.1870   30.5440   42.5510 C   0  0  0  0  0  0  0  0  0  0  0  0
   40.4230   29.3920   42.8080 C   0  0  0  0  0  0  0  0  0  0  0  0
   39.1730   29.2680   42.1860 C   0  0  0  0  0  0  0  0  0  0  0  0
   41.3480   32.3930   41.5470 H   0  0  0  0  0  0  0  0  0  0  0  0
   42.1590   30.6630   43.0220 H   0  0  0  0  0  0  0  0  0  0  0  0
   40.7830   28.6290   43.4590 H   0  0  0  0  0  0  0  0  0  0  0  0
   38.3310   28.0960   42.4110 C   0  0  0  0  0  0  0  0  0  0  0  0
   37.3470   28.3090   43.3800 C   0  0  0  0  0  0  0  0  0  0  0  0
   37.2030   29.2340   43.9210 H   0  0  0  0  0  0  0  0  0  0  0  0
   36.4810   27.2520   43.6780 C   0  0  0  0  0  3  0  0  0  0  0  0
   36.5900   26.0310   43.0370 C   0  0  0  0  0  3  0  0  0  0  0  0
   37.5760   25.8610   42.0870 C   0  0  0  0  0  0  0  0  0  0  0  0
   37.7530   24.6650   41.3960 C   0  0  0  0  0  3  0  0  0  0  0  0
   38.7300   24.4700   40.4420 C   0  0  0  0  0  3  0  0  0  0  0  0
   39.5550   25.5480   40.1900 C   0  0  0  0  0  3  0  0  0  0  0  0
   39.4560   26.7800   40.8260 C   0  0  0  0  0  3  0  0  0  0  0  0
   38.4480   26.8820   41.7670 C   0  0  0  0  0  0  0  0  0  0  0  0
   41.9670   30.4760   37.0310 C   0  0  0  0  0  0  0  0  0  0  0  0
   40.7530   30.6080   37.6910 C   0  0  0  0  0  0  0  0  0  0  0  0
   40.3240   31.8860   38.0830 C   0  0  0  0  0  0  0  0  0  0  0  0
   41.1240   32.9240   37.7940 N   0  0  0  0  0  0  0  0  0  0  0  0
   42.3040   32.7850   37.1520 C   0  0  0  0  0  0  0  0  0  0  0  0
   42.7240   31.5500   36.7700 N   0  0  0  0  0  0  0  0  0  0  0  0
   42.2800   29.4830   36.7370 H   0  0  0  0  0  0  0  0  0  0  0  0
   40.1280   29.7570   37.9120 H   0  0  0  0  0  0  0  0  0  0  0  0
   42.9310   33.6530   36.9330 H   0  0  0  0  0  0  0  0  0  0  0  0
  1  5  1  0  0  0  0
  2  7  1  0  0  0  0
  2  1  1  0  0  0  0
  2  3  1  0  0  0  0
  3  4  1  0  0  0  0
  4 11  1  0  0  0  0
  4 10  1  0  0  0  0
  5 12  1  1  0  0  0
  5  4  1  0  0  0  0
  5 15  1  0  0  0  0
  6  2  1  0  0  0  0
  8  3  1  0  0  0  0
  9  3  1  0  0  0  0
 13 14  1  0  0  0  0
 14 19  1  0  0  0  0
 15 14  2  0  0  0  0
 15 16  1  0  0  0  0
 16 17  2  0  0  0  0
 17 18  1  0  0  0  0
 17 21  1  0  0  0  0
 18 22  1  0  0  0  0
 19 23  1  0  0  0  0
 19 18  2  0  0  0  0
 20 16  1  0  0  0  0
 23 24  1  0  0  0  0
 24 26  2  0  0  0  0
 24 25  1  0  0  0  0
 27 26  1  0  0  0  0
 28 27  2  0  0  0  0
 29 28  1  0  0  0  0
 30 29  2  0  0  0  0
 31 30  1  0  0  0  0
 31 32  2  0  0  0  0
 32 33  1  0  0  0  0
 33 28  1  0  0  0  0
 33 23  2  0  0  0  0
 34 35  1  0  0  0  0
 35 41  1  0  0  0  0
 35 36  2  0  0  0  0
 36  1  1  0  0  0  0
 37 36  1  0  0  0  0
 38 37  2  0  0  0  0
 39 34  2  0  0  0  0
 39 38  1  0  0  0  0
 40 34  1  0  0  0  0
 42 38  1  0  0  0  0
M  END
>  <minimizedAffinity>
-6.54818869

$$$$

 OpenBabel03242515343D

 42 46  0  0  1  0  0  0  0  0999 V2000
   42.5570   32.0400   39.2240 N   0  0  0  0  0  0  0  0  0  0  0  0
   42.8310   30.8560   38.4580 C   0  0  0  0  0  0  0  0  0  0  0  0
   42.9340   31.4950   37.0850 C   0  0  0  0  0  0  0  0  0  0  0  0
   41.5830   32.2300   37.0810 C   0  0  0  0  0  0  0  0  0  0  0  0
   41.5550   32.7930   38.4610 C   0  0  1  0  0  0  0  0  0  0  0  0
   43.8350   30.4210   38.6840 H   0  0  0  0  0  0  0  0  0  0  0  0
   42.0380   30.1060   38.4550 H   0  0  0  0  0  0  0  0  0  0  0  0
   42.9130   30.7590   36.2760 H   0  0  0  0  0  0  0  0  0  0  0  0
   43.7680   32.2120   37.0590 H   0  0  0  0  0  0  0  0  0  0  0  0
   41.5550   32.9960   36.2830 H   0  0  0  0  0  0  0  0  0  0  0  0
   40.8300   31.4660   36.8820 H   0  0  0  0  0  0  0  0  0  0  0  0
   41.9910   33.8350   38.4630 H   0  0  0  0  0  0  0  0  0  0  0  0
   39.8040   30.5850   38.7960 F   0  0  0  0  0  0  0  0  0  0  0  0
   39.4000   31.8060   39.3030 C   0  0  0  0  0  0  0  0  0  0  0  0
   40.2530   32.8610   39.1150 C   0  0  0  0  0  0  0  0  0  0  0  0
   39.8020   34.0670   39.6320 C   0  0  0  0  0  0  0  0  0  0  0  0
   38.5880   34.1610   40.2780 C   0  0  0  0  0  0  0  0  0  0  0  0
   37.7590   33.0360   40.4360 C   0  0  0  0  0  0  0  0  0  0  0  0
   38.1960   31.8080   39.9210 C   0  0  0  0  0  0  0  0  0  0  0  0
   40.3960   34.9580   39.5390 H   0  0  0  0  0  0  0  0  0  0  0  0
   38.2700   35.1250   40.6680 H   0  0  0  0  0  0  0  0  0  0  0  0
   36.8200   33.1120   40.9360 H   0  0  0  0  0  0  0  0  0  0  0  0
   37.3840   30.6020   40.0520 C   0  0  0  0  0  0  0  0  0  0  0  0
   36.5480   30.3850   38.9540 C   0  0  0  0  0  0  0  0  0  0  0  0
   36.4890   31.0270   38.0860 H   0  0  0  0  0  0  0  0  0  0  0  0
   35.7220   29.2560   38.9730 C   0  0  0  0  0  3  0  0  0  0  0  0
   35.7280   28.3780   40.0410 C   0  0  0  0  0  3  0  0  0  0  0  0
   36.5680   28.6280   41.1070 C   0  0  0  0  0  0  0  0  0  0  0  0
   36.6360   27.7950   42.2190 C   0  0  0  0  0  3  0  0  0  0  0  0
   37.4670   28.0220   43.2960 C   0  0  0  0  0  3  0  0  0  0  0  0
   38.2580   29.1510   43.2240 C   0  0  0  0  0  3  0  0  0  0  0  0
   38.2620   30.0420   42.1560 C   0  0  0  0  0  3  0  0  0  0  0  0
   37.3970   29.7320   41.1230 C   0  0  0  0  0  0  0  0  0  0  0  0
   44.1150   34.1610   41.8590 C   0  0  0  0  0  0  0  0  0  0  0  0
   43.6210   33.7840   40.6170 C   0  0  0  0  0  0  0  0  0  0  0  0
   43.0770   32.5000   40.4580 C   0  0  0  0  0  0  0  0  0  0  0  0
   43.0640   31.6960   41.5330 N   0  0  0  0  0  0  0  0  0  0  0  0
   43.5480   32.0710   42.7360 C   0  0  0  0  0  0  0  0  0  0  0  0
   44.0760   33.3130   42.8950 N   0  0  0  0  0  0  0  0  0  0  0  0
   44.5300   35.1550   41.9600 H   0  0  0  0  0  0  0  0  0  0  0  0
   43.6430   34.4500   39.7680 H   0  0  0  0  0  0  0  0  0  0  0  0
   43.5220   31.3900   43.5900 H   0  0  0  0  0  0  0  0  0  0  0  0
  1 36  1  0  0  0  0
  2  6  1  0  0  0  0
  2  1  1  0  0  0  0
  3  2  1  0  0  0  0
  4  3  1  0  0  0  0
  4  5  1  0  0  0  0
  5 12  1  6  0  0  0
  5 15  1  0  0  0  0
  5  1  1  0  0  0  0
  7  2  1  0  0  0  0
  8  3  1  0  0  0  0
  9  3  1  0  0  0  0
 10  4  1  0  0  0  0
 11  4  1  0  0  0  0
 13 14  1  0  0  0  0
 14 19  1  0  0  0  0
 15 14  2  0  0  0  0
 15 16  1  0  0  0  0
 16 17  2  0  0  0  0
 17 18  1  0  0  0  0
 17 21  1  0  0  0  0
 18 22  1  0  0  0  0
 19 23  1  0  0  0  0
 19 18  2  0  0  0  0
 20 16  1  0  0  0  0
 23 33  1  0  0  0  0
 24 26  1  0  0  0  0
 24 23  2  0  0  0  0
 25 24  1  0  0  0  0
 26 27  2  0  0  0  0
 27 28  1  0  0  0  0
 28 33  2  0  0  0  0
 28 29  1  0  0  0  0
 29 30  2  0  0  0  0
 31 30  1  0  0  0  0
 32 31  2  0  0  0  0
 33 32  1  0  0  0  0
 34 40  1  0  0  0  0
 34 39  1  0  0  0  0
 35 34  2  0  0  0  0
 36 35  1  0  0  0  0
 36 37  2  0  0  0  0
 37 38  1  0  0  0  0
 38 39  2  0  0  0  0
 38 42  1  0  0  0  0
 41 35  1  0  0  0  0
M  END
>  <minimizedAffinity>
-6.54155922

$$$$

 OpenBabel03242515343D

 42 46  0  0  1  0  0  0  0  0999 V2000
   38.8040   24.7230   41.1720 N   0  0  0  0  0  0  0  0  0  0  0  0
   37.9960   23.5870   41.5140 C   0  0  0  0  0  0  0  0  0  0  0  0
   37.1520   23.5230   40.2550 C   0  0  0  0  0  0  0  0  0  0  0  0
   36.6430   24.9750   40.2550 C   0  0  0  0  0  0  0  0  0  0  0  0
   37.8870   25.7180   40.6060 C   0  0  1  0  0  0  0  0  0  0  0  0
   38.5830   22.6370   41.5540 H   0  0  0  0  0  0  0  0  0  0  0  0
   37.3480   23.7180   42.3830 H   0  0  0  0  0  0  0  0  0  0  0  0
   36.2830   22.8670   40.3620 H   0  0  0  0  0  0  0  0  0  0  0  0
   37.7880   23.3340   39.3770 H   0  0  0  0  0  0  0  0  0  0  0  0
   36.2220   25.2440   39.2680 H   0  0  0  0  0  0  0  0  0  0  0  0
   35.8580   25.0130   41.0120 H   0  0  0  0  0  0  0  0  0  0  0  0
   38.4290   26.0310   39.6650 H   0  0  0  0  0  0  0  0  0  0  0  0
   38.4850   28.3610   39.7640 F   0  0  0  0  0  0  0  0  0  0  0  0
   37.9930   28.1920   41.0450 C   0  0  0  0  0  0  0  0  0  0  0  0
   37.7280   26.9070   41.4360 C   0  0  0  0  0  0  0  0  0  0  0  0
   37.2450   26.7850   42.7310 C   0  0  0  0  0  0  0  0  0  0  0  0
   37.0590   27.8910   43.5340 C   0  0  0  0  0  0  0  0  0  0  0  0
   37.3520   29.1850   43.0690 C   0  0  0  0  0  0  0  0  0  0  0  0
   37.8410   29.3290   41.7630 C   0  0  0  0  0  0  0  0  0  0  0  0
   37.0040   25.8190   43.1370 H   0  0  0  0  0  0  0  0  0  0  0  0
   36.6790   27.7530   44.5430 H   0  0  0  0  0  0  0  0  0  0  0  0
   37.2070   30.0380   43.6910 H   0  0  0  0  0  0  0  0  0  0  0  0
   38.1650   30.6450   41.2200 C   0  0  0  0  0  0  0  0  0  0  0  0
   37.0680   31.2780   40.6300 C   0  0  0  0  0  0  0  0  0  0  0  0
   36.0730   30.8590   40.5700 H   0  0  0  0  0  0  0  0  0  0  0  0
   37.2630   32.5460   40.0750 C   0  0  0  0  0  3  0  0  0  0  0  0
   38.5010   33.1620   40.1050 C   0  0  0  0  0  3  0  0  0  0  0  0
   39.5600   32.5030   40.6970 C   0  0  0  0  0  0  0  0  0  0  0  0
   40.8380   33.0520   40.7700 C   0  0  0  0  0  3  0  0  0  0  0  0
   41.9120   32.4140   41.3550 C   0  0  0  0  0  3  0  0  0  0  0  0
   41.6600   31.1650   41.8850 C   0  0  0  0  0  3  0  0  0  0  0  0
   40.4200   30.5360   41.8620 C   0  0  0  0  0  3  0  0  0  0  0  0
   39.4040   31.2500   41.2550 C   0  0  0  0  0  0  0  0  0  0  0  0
   42.3870   25.3760   40.3930 C   0  0  0  0  0  0  0  0  0  0  0  0
   41.0320   25.1570   40.1880 C   0  0  0  0  0  0  0  0  0  0  0  0
   40.1960   24.9570   41.2970 C   0  0  0  0  0  0  0  0  0  0  0  0
   40.7630   24.9890   42.5140 N   0  0  0  0  0  0  0  0  0  0  0  0
   42.0830   25.2030   42.7030 C   0  0  0  0  0  0  0  0  0  0  0  0
   42.8960   25.3970   41.6320 N   0  0  0  0  0  0  0  0  0  0  0  0
   43.0140   25.5280   39.5240 H   0  0  0  0  0  0  0  0  0  0  0  0
   40.6000   25.1350   39.1990 H   0  0  0  0  0  0  0  0  0  0  0  0
   42.5120   25.2230   43.7080 H   0  0  0  0  0  0  0  0  0  0  0  0
  1 36  1  0  0  0  0
  1  2  1  0  0  0  0
  2  6  1  0  0  0  0
  2  7  1  0  0  0  0
  3  8  1  0  0  0  0
  3  2  1  0  0  0  0
  4  3  1  0  0  0  0
  4  5  1  0  0  0  0
  4 11  1  0  0  0  0
  5 12  1  6  0  0  0
  5  1  1  0  0  0  0
  5 15  1  0  0  0  0
  9  3  1  0  0  0  0
 10  4  1  0  0  0  0
 13 14  1  0  0  0  0
 14 15  2  0  0  0  0
 14 19  1  0  0  0  0
 15 16  1  0  0  0  0
 16 20  1  0  0  0  0
 16 17  2  0  0  0  0
 17 21  1  0  0  0  0
 18 17  1  0  0  0  0
 18 22  1  0  0  0  0
 19 18  2  0  0  0  0
 23 33  1  0  0  0  0
 23 19  1  0  0  0  0
 24 23  2  0  0  0  0
 25 24  1  0  0  0  0
 26 27  2  0  0  0  0
 26 24  1  0  0  0  0
 27 28  1  0  0  0  0
 28 29  2  0  0  0  0
 28 33  1  0  0  0  0
 29 30  1  0  0  0  0
 30 31  2  0  0  0  0
 32 31  1  0  0  0  0
 33 32  2  0  0  0  0
 34 39  1  0  0  0  0
 35 34  2  0  0  0  0
 35 36  1  0  0  0  0
 36 37  2  0  0  0  0
 37 38  1  0  0  0  0
 38 42  1  0  0  0  0
 39 38  2  0  0  0  0
 40 34  1  0  0  0  0
 41 35  1  0  0  0  0
M  END
>  <minimizedAffinity>
-6.45332146

$$$$

 OpenBabel03242515343D

 42 46  0  0  1  0  0  0  0  0999 V2000
   41.8580   30.3720   38.5820 N   0  0  0  0  0  0  0  0  0  0  0  0
   42.6030   29.1490   38.6980 C   0  0  0  0  0  0  0  0  0  0  0  0
   42.6350   28.7640   37.2300 C   0  0  0  0  0  0  0  0  0  0  0  0
   41.1230   28.8290   36.9520 C   0  0  0  0  0  0  0  0  0  0  0  0
   40.7510   30.0860   37.6630 C   0  0  1  0  0  0  0  0  0  0  0  0
   43.6630   29.3190   39.0060 H   0  0  0  0  0  0  0  0  0  0  0  0
   42.1190   28.3590   39.2740 H   0  0  0  0  0  0  0  0  0  0  0  0
   42.9560   27.7300   37.0730 H   0  0  0  0  0  0  0  0  0  0  0  0
   43.1710   29.5270   36.6460 H   0  0  0  0  0  0  0  0  0  0  0  0
   40.9250   28.8530   35.8630 H   0  0  0  0  0  0  0  0  0  0  0  0
   40.7030   27.9190   37.3810 H   0  0  0  0  0  0  0  0  0  0  0  0
   40.8020   30.9620   36.9510 H   0  0  0  0  0  0  0  0  0  0  0  0
   40.0300   28.5420   39.9320 F   0  0  0  0  0  0  0  0  0  0  0  0
   39.0750   29.3920   39.4050 C   0  0  0  0  0  0  0  0  0  0  0  0
   39.4390   30.1150   38.3000 C   0  0  0  0  0  0  0  0  0  0  0  0
   38.4480   30.9470   37.8010 C   0  0  0  0  0  0  0  0  0  0  0  0
   37.2050   31.0180   38.3950 C   0  0  0  0  0  0  0  0  0  0  0  0
   36.8960   30.2470   39.5290 C   0  0  0  0  0  0  0  0  0  0  0  0
   37.8850   29.3990   40.0490 C   0  0  0  0  0  0  0  0  0  0  0  0
   38.6300   31.5580   36.9360 H   0  0  0  0  0  0  0  0  0  0  0  0
   36.4550   31.6820   37.9730 H   0  0  0  0  0  0  0  0  0  0  0  0
   35.9350   30.3030   39.9860 H   0  0  0  0  0  0  0  0  0  0  0  0
   37.6290   28.5730   41.2250 C   0  0  0  0  0  0  0  0  0  0  0  0
   37.7220   29.2840   42.4230 C   0  0  0  0  0  0  0  0  0  0  0  0
   37.9580   30.3370   42.5000 H   0  0  0  0  0  0  0  0  0  0  0  0
   37.4960   28.5900   43.6160 C   0  0  0  0  0  3  0  0  0  0  0  0
   37.1880   27.2420   43.6180 C   0  0  0  0  0  3  0  0  0  0  0  0
   37.1050   26.5750   42.4120 C   0  0  0  0  0  0  0  0  0  0  0  0
   36.8000   25.2200   42.3250 C   0  0  0  0  0  3  0  0  0  0  0  0
   36.7110   24.5310   41.1330 C   0  0  0  0  0  3  0  0  0  0  0  0
   36.9450   25.2660   39.9890 C   0  0  0  0  0  3  0  0  0  0  0  0
   37.2550   26.6220   39.9740 C   0  0  0  0  0  3  0  0  0  0  0  0
   37.3220   27.2270   41.2150 C   0  0  0  0  0  0  0  0  0  0  0  0
   42.0220   33.1730   41.0310 C   0  0  0  0  0  0  0  0  0  0  0  0
   41.8150   31.8940   40.5310 C   0  0  0  0  0  0  0  0  0  0  0  0
   42.0490   31.6460   39.1690 C   0  0  0  0  0  0  0  0  0  0  0  0
   42.4670   32.6760   38.4150 N   0  0  0  0  0  0  0  0  0  0  0  0
   42.6660   33.9160   38.9110 C   0  0  0  0  0  0  0  0  0  0  0  0
   42.4400   34.1610   40.2280 N   0  0  0  0  0  0  0  0  0  0  0  0
   41.8360   33.3430   42.0830 H   0  0  0  0  0  0  0  0  0  0  0  0
   41.4780   31.0840   41.1580 H   0  0  0  0  0  0  0  0  0  0  0  0
   43.0060   34.7310   38.2680 H   0  0  0  0  0  0  0  0  0  0  0  0
  1  2  1  0  0  0  0
  1 36  1  0  0  0  0
  2  6  1  0  0  0  0
  2  7  1  0  0  0  0
  3  2  1  0  0  0  0
  4  3  1  0  0  0  0
  4 11  1  0  0  0  0
  4  5  1  0  0  0  0
  5 12  1  6  0  0  0
  5 15  1  0  0  0  0
  5  1  1  0  0  0  0
  8  3  1  0  0  0  0
  9  3  1  0  0  0  0
 10  4  1  0  0  0  0
 14 13  1  0  0  0  0
 14 19  1  0  0  0  0
 15 14  2  0  0  0  0
 16 15  1  0  0  0  0
 16 17  2  0  0  0  0
 17 18  1  0  0  0  0
 18 22  1  0  0  0  0
 18 19  2  0  0  0  0
 19 23  1  0  0  0  0
 20 16  1  0  0  0  0
 21 17  1  0  0  0  0
 23 24  1  0  0  0  0
 24 25  1  0  0  0  0
 24 26  2  0  0  0  0
 26 27  1  0  0  0  0
 28 27  2  0  0  0  0
 29 28  1  0  0  0  0
 30 29  2  0  0  0  0
 31 30  1  0  0  0  0
 32 31  2  0  0  0  0
 32 33  1  0  0  0  0
 33 23  2  0  0  0  0
 33 28  1  0  0  0  0
 34 40  1  0  0  0  0
 35 34  1  0  0  0  0
 35 41  1  0  0  0  0
 36 35  2  0  0  0  0
 37 38  2  0  0  0  0
 37 36  1  0  0  0  0
 38 39  1  0  0  0  0
 39 34  2  0  0  0  0
 42 38  1  0  0  0  0
M  END
>  <minimizedAffinity>
-6.28608227

$$$$

 OpenBabel03242515343D

 42 46  0  0  1  0  0  0  0  0999 V2000
   41.3500   32.0280   38.5120 N   0  0  0  0  0  0  0  0  0  0  0  0
   41.5240   33.2280   37.7430 C   0  0  0  0  0  0  0  0  0  0  0  0
   42.1770   34.0870   38.8100 C   0  0  0  0  0  0  0  0  0  0  0  0
   41.1180   33.9150   39.9120 C   0  0  0  0  0  0  0  0  0  0  0  0
   40.8370   32.4540   39.8180 C   0  0  1  0  0  0  0  0  0  0  0  0
   42.2750   33.1100   36.9240 H   0  0  0  0  0  0  0  0  0  0  0  0
   40.6030   33.7040   37.4030 H   0  0  0  0  0  0  0  0  0  0  0  0
   42.2050   35.1470   38.5390 H   0  0  0  0  0  0  0  0  0  0  0  0
   43.1370   33.6470   39.1210 H   0  0  0  0  0  0  0  0  0  0  0  0
   41.5170   34.2340   40.8940 H   0  0  0  0  0  0  0  0  0  0  0  0
   40.2860   34.5610   39.6270 H   0  0  0  0  0  0  0  0  0  0  0  0
   41.5030   31.8850   40.5310 H   0  0  0  0  0  0  0  0  0  0  0  0
   40.1020   29.9830   41.0030 F   0  0  0  0  0  0  0  0  0  0  0  0
   39.0870   30.8550   40.6580 C   0  0  0  0  0  0  0  0  0  0  0  0
   39.4630   32.0340   40.0720 C   0  0  0  0  0  0  0  0  0  0  0  0
   38.4110   32.8730   39.7340 C   0  0  0  0  0  0  0  0  0  0  0  0
   37.1020   32.5180   39.9840 C   0  0  0  0  0  0  0  0  0  0  0  0
   36.7840   31.2890   40.5900 C   0  0  0  0  0  0  0  0  0  0  0  0
   37.8340   30.4270   40.9380 C   0  0  0  0  0  0  0  0  0  0  0  0
   38.5970   33.8240   39.2700 H   0  0  0  0  0  0  0  0  0  0  0  0
   36.3060   33.2030   39.7050 H   0  0  0  0  0  0  0  0  0  0  0  0
   35.7720   31.0170   40.7810 H   0  0  0  0  0  0  0  0  0  0  0  0
   37.5720   29.1370   41.5700 C   0  0  0  0  0  0  0  0  0  0  0  0
   37.5630   29.2040   42.9650 C   0  0  0  0  0  0  0  0  0  0  0  0
   37.7290   30.1040   43.5410 H   0  0  0  0  0  0  0  0  0  0  0  0
   37.3220   28.0240   43.6760 C   0  0  0  0  0  3  0  0  0  0  0  0
   37.0990   26.8250   43.0250 C   0  0  0  0  0  3  0  0  0  0  0  0
   37.1170   26.8000   41.6450 C   0  0  0  0  0  0  0  0  0  0  0  0
   36.9010   25.6360   40.9140 C   0  0  0  0  0  3  0  0  0  0  0  0
   36.9130   25.5860   39.5350 C   0  0  0  0  0  3  0  0  0  0  0  0
   37.1570   26.7790   38.8870 C   0  0  0  0  0  3  0  0  0  0  0  0
   37.3820   27.9920   39.5290 C   0  0  0  0  0  3  0  0  0  0  0  0
   37.3510   27.9450   40.9110 C   0  0  0  0  0  0  0  0  0  0  0  0
   42.9140   28.6570   38.2580 C   0  0  0  0  0  0  0  0  0  0  0  0
   42.7480   29.9900   38.6110 C   0  0  0  0  0  0  0  0  0  0  0  0
   41.5910   30.6680   38.1960 C   0  0  0  0  0  0  0  0  0  0  0  0
   40.6960   29.9790   37.4710 N   0  0  0  0  0  0  0  0  0  0  0  0
   40.8660   28.6830   37.1330 C   0  0  0  0  0  0  0  0  0  0  0  0
   41.9850   28.0220   37.5310 N   0  0  0  0  0  0  0  0  0  0  0  0
   43.8130   28.1530   38.5870 H   0  0  0  0  0  0  0  0  0  0  0  0
   43.4840   30.5210   39.1940 H   0  0  0  0  0  0  0  0  0  0  0  0
   40.1160   28.1530   36.5410 H   0  0  0  0  0  0  0  0  0  0  0  0
  1  5  1  0  0  0  0
  2  1  1  0  0  0  0
  2  3  1  0  0  0  0
  3  9  1  0  0  0  0
  3  4  1  0  0  0  0
  4 10  1  0  0  0  0
  5  4  1  0  0  0  0
  5 15  1  0  0  0  0
  5 12  1  1  0  0  0
  6  2  1  0  0  0  0
  7  2  1  0  0  0  0
  8  3  1  0  0  0  0
 11  4  1  0  0  0  0
 14 19  1  0  0  0  0
 14 13  1  0  0  0  0
 15 14  2  0  0  0  0
 16 17  2  0  0  0  0
 16 15  1  0  0  0  0
 17 18  1  0  0  0  0
 18 22  1  0  0  0  0
 18 19  2  0  0  0  0
 19 23  1  0  0  0  0
 20 16  1  0  0  0  0
 21 17  1  0  0  0  0
 23 24  1  0  0  0  0
 24 25  1  0  0  0  0
 24 26  2  0  0  0  0
 27 26  1  0  0  0  0
 28 27  2  0  0  0  0
 29 28  1  0  0  0  0
 30 29  2  0  0  0  0
 31 32  2  0  0  0  0
 31 30  1  0  0  0  0
 32 33  1  0  0  0  0
 33 23  2  0  0  0  0
 33 28  1  0  0  0  0
 34 40  1  0  0  0  0
 34 35  1  0  0  0  0
 35 41  1  0  0  0  0
 36  1  1  0  0  0  0
 36 35  2  0  0  0  0
 37 36  1  0  0  0  0
 38 37  2  0  0  0  0
 38 39  1  0  0  0  0
 39 34  2  0  0  0  0
 42 38  1  0  0  0  0
M  END
>  <minimizedAffinity>
-6.28211164

$$$$

 OpenBabel03242515343D

 42 46  0  0  1  0  0  0  0  0999 V2000
   40.2960   25.3110   41.7430 N   0  0  0  0  0  0  0  0  0  0  0  0
   41.6890   25.5460   41.4870 C   0  0  0  0  0  0  0  0  0  0  0  0
   42.2290   25.2320   42.8710 C   0  0  0  0  0  0  0  0  0  0  0  0
   41.3290   26.1810   43.6800 C   0  0  0  0  0  0  0  0  0  0  0  0
   40.0070   25.9510   43.0310 C   0  0  1  0  0  0  0  0  0  0  0  0
   42.1320   24.7910   40.7930 H   0  0  0  0  0  0  0  0  0  0  0  0
   41.9490   26.5710   41.2160 H   0  0  0  0  0  0  0  0  0  0  0  0
   43.2640   25.5620   43.0040 H   0  0  0  0  0  0  0  0  0  0  0  0
   42.0230   24.1830   43.1320 H   0  0  0  0  0  0  0  0  0  0  0  0
   41.3530   25.9230   44.7560 H   0  0  0  0  0  0  0  0  0  0  0  0
   41.7440   27.1800   43.5330 H   0  0  0  0  0  0  0  0  0  0  0  0
   39.4440   25.1380   43.5790 H   0  0  0  0  0  0  0  0  0  0  0  0
   40.4610   28.1820   41.3380 F   0  0  0  0  0  0  0  0  0  0  0  0
   39.3100   28.1820   42.1030 C   0  0  0  0  0  0  0  0  0  0  0  0
   39.1190   27.1040   42.9250 C   0  0  0  0  0  0  0  0  0  0  0  0
   37.9550   27.1510   43.6790 C   0  0  0  0  0  0  0  0  0  0  0  0
   37.0820   28.2130   43.5840 C   0  0  0  0  0  0  0  0  0  0  0  0
   37.3380   29.2910   42.7180 C   0  0  0  0  0  0  0  0  0  0  0  0
   38.5090   29.2620   41.9470 C   0  0  0  0  0  0  0  0  0  0  0  0
   37.7100   26.3540   44.3570 H   0  0  0  0  0  0  0  0  0  0  0  0
   36.1810   28.2130   44.1920 H   0  0  0  0  0  0  0  0  0  0  0  0
   36.6620   30.1110   42.6460 H   0  0  0  0  0  0  0  0  0  0  0  0
   38.8350   30.3490   41.0280 C   0  0  0  0  0  0  0  0  0  0  0  0
   39.6950   31.2980   41.5870 C   0  0  0  0  0  0  0  0  0  0  0  0
   40.0920   31.2540   42.5930 H   0  0  0  0  0  0  0  0  0  0  0  0
   40.0740   32.3860   40.7950 C   0  0  0  0  0  3  0  0  0  0  0  0
   39.6160   32.5260   39.4980 C   0  0  0  0  0  3  0  0  0  0  0  0
   38.7680   31.5670   38.9820 C   0  0  0  0  0  0  0  0  0  0  0  0
   38.2620   31.6320   37.6870 C   0  0  0  0  0  3  0  0  0  0  0  0
   37.4140   30.6870   37.1490 C   0  0  0  0  0  3  0  0  0  0  0  0
   37.0730   29.6360   37.9760 C   0  0  0  0  0  3  0  0  0  0  0  0
   37.5270   29.4840   39.2820 C   0  0  0  0  0  3  0  0  0  0  0  0
   38.3720   30.4790   39.7350 C   0  0  0  0  0  0  0  0  0  0  0  0
   37.2760   23.3440   40.8020 C   0  0  0  0  0  0  0  0  0  0  0  0
   38.2000   24.0050   41.6010 C   0  0  0  0  0  0  0  0  0  0  0  0
   39.3080   24.6210   40.9990 C   0  0  0  0  0  0  0  0  0  0  0  0
   39.4140   24.5340   39.6630 N   0  0  0  0  0  0  0  0  0  0  0  0
   38.5110   23.8890   38.8950 C   0  0  0  0  0  0  0  0  0  0  0  0
   37.4360   23.2910   39.4730 N   0  0  0  0  0  0  0  0  0  0  0  0
   36.4290   22.8760   41.2860 H   0  0  0  0  0  0  0  0  0  0  0  0
   38.0910   24.0600   42.6730 H   0  0  0  0  0  0  0  0  0  0  0  0
   38.6290   23.8380   37.8100 H   0  0  0  0  0  0  0  0  0  0  0  0
  1  5  1  0  0  0  0
  2  1  1  0  0  0  0
  2  3  1  0  0  0  0
  3  8  1  0  0  0  0
  3  9  1  0  0  0  0
  3  4  1  0  0  0  0
  4 10  1  0  0  0  0
  5 12  1  1  0  0  0
  5  4  1  0  0  0  0
  6  2  1  0  0  0  0
  7  2  1  0  0  0  0
 11  4  1  0  0  0  0
 13 14  1  0  0  0  0
 14 15  1  0  0  0  0
 15  5  1  0  0  0  0
 15 16  2  0  0  0  0
 16 20  1  0  0  0  0
 17 16  1  0  0  0  0
 17 21  1  0  0  0  0
 18 17  2  0  0  0  0
 19 14  2  0  0  0  0
 19 18  1  0  0  0  0
 22 18  1  0  0  0  0
 23 24  1  0  0  0  0
 23 19  1  0  0  0  0
 24 25  1  0  0  0  0
 26 24  2  0  0  0  0
 27 26  1  0  0  0  0
 28 27  2  0  0  0  0
 28 33  1  0  0  0  0
 29 28  1  0  0  0  0
 30 29  2  0  0  0  0
 30 31  1  0  0  0  0
 31 32  2  0  0  0  0
 32 33  1  0  0  0  0
 33 23  2  0  0  0  0
 34 40  1  0  0  0  0
 34 35  1  0  0  0  0
 35 41  1  0  0  0  0
 36 35  2  0  0  0  0
 36  1  1  0  0  0  0
 37 36  1  0  0  0  0
 38 39  1  0  0  0  0
 38 37  2  0  0  0  0
 39 34  2  0  0  0  0
 42 38  1  0  0  0  0
M  END
>  <minimizedAffinity>
-6.27582741

$$$$

 OpenBabel03242515343D

 42 46  0  0  1  0  0  0  0  0999 V2000
   37.8900   25.5330   39.2290 N   0  0  0  0  0  0  0  0  0  0  0  0
   39.2130   25.3270   38.7110 C   0  0  0  0  0  0  0  0  0  0  0  0
   39.5180   24.0040   39.3880 C   0  0  0  0  0  0  0  0  0  0  0  0
   39.2150   24.4230   40.8370 C   0  0  0  0  0  0  0  0  0  0  0  0
   37.9590   25.2040   40.6570 C   0  0  1  0  0  0  0  0  0  0  0  0
   39.2190   25.1310   37.6110 H   0  0  0  0  0  0  0  0  0  0  0  0
   39.9540   26.0710   39.0090 H   0  0  0  0  0  0  0  0  0  0  0  0
   40.5780   23.7370   39.3350 H   0  0  0  0  0  0  0  0  0  0  0  0
   38.8120   23.2300   39.0510 H   0  0  0  0  0  0  0  0  0  0  0  0
   39.1030   23.5340   41.4880 H   0  0  0  0  0  0  0  0  0  0  0  0
   40.0760   25.0080   41.1620 H   0  0  0  0  0  0  0  0  0  0  0  0
   37.0620   24.5290   40.7870 H   0  0  0  0  0  0  0  0  0  0  0  0
   39.3610   27.6590   40.4100 F   0  0  0  0  0  0  0  0  0  0  0  0
   38.4240   27.5540   41.4210 C   0  0  0  0  0  0  0  0  0  0  0  0
   37.7720   26.3560   41.5320 C   0  0  0  0  0  0  0  0  0  0  0  0
   36.8470   26.2940   42.5650 C   0  0  0  0  0  0  0  0  0  0  0  0
   36.6270   27.3740   43.3950 C   0  0  0  0  0  0  0  0  0  0  0  0
   37.3330   28.5780   43.2250 C   0  0  0  0  0  0  0  0  0  0  0  0
   38.2720   28.6600   42.1870 C   0  0  0  0  0  0  0  0  0  0  0  0
   36.2800   25.3990   42.7400 H   0  0  0  0  0  0  0  0  0  0  0  0
   35.8950   27.2860   44.1940 H   0  0  0  0  0  0  0  0  0  0  0  0
   37.1620   29.4100   43.8680 H   0  0  0  0  0  0  0  0  0  0  0  0
   39.0380   29.8810   41.9570 C   0  0  0  0  0  0  0  0  0  0  0  0
   40.2970   29.8580   42.5610 C   0  0  0  0  0  0  0  0  0  0  0  0
   40.6870   29.0340   43.1440 H   0  0  0  0  0  0  0  0  0  0  0  0
   41.1190   30.9790   42.4060 C   0  0  0  0  0  3  0  0  0  0  0  0
   40.7050   32.0800   41.6790 C   0  0  0  0  0  3  0  0  0  0  0  0
   39.4530   32.0630   41.0970 C   0  0  0  0  0  0  0  0  0  0  0  0
   38.9610   33.1290   40.3490 C   0  0  0  0  0  3  0  0  0  0  0  0
   37.7150   33.1370   39.7580 C   0  0  0  0  0  3  0  0  0  0  0  0
   36.9470   32.0050   39.9440 C   0  0  0  0  0  3  0  0  0  0  0  0
   37.3520   30.8920   40.6730 C   0  0  0  0  0  3  0  0  0  0  0  0
   38.6150   30.9740   41.2290 C   0  0  0  0  0  0  0  0  0  0  0  0
   35.1520   27.6390   37.8370 C   0  0  0  0  0  0  0  0  0  0  0  0
   36.3470   27.3070   38.4610 C   0  0  0  0  0  0  0  0  0  0  0  0
   36.6920   25.9540   38.6020 C   0  0  0  0  0  0  0  0  0  0  0  0
   35.8330   25.0420   38.1180 N   0  0  0  0  0  0  0  0  0  0  0  0
   34.6730   25.3760   37.5130 C   0  0  0  0  0  0  0  0  0  0  0  0
   34.3340   26.6850   37.3750 N   0  0  0  0  0  0  0  0  0  0  0  0
   34.9050   28.6880   37.7390 H   0  0  0  0  0  0  0  0  0  0  0  0
   37.0210   28.0590   38.8420 H   0  0  0  0  0  0  0  0  0  0  0  0
   33.9960   24.6070   37.1310 H   0  0  0  0  0  0  0  0  0  0  0  0
  1  5  1  0  0  0  0
  2  7  1  0  0  0  0
  2  1  1  0  0  0  0
  2  3  1  0  0  0  0
  3  4  1  0  0  0  0
  4 11  1  0  0  0  0
  4 10  1  0  0  0  0
  5 12  1  1  0  0  0
  5  4  1  0  0  0  0
  5 15  1  0  0  0  0
  6  2  1  0  0  0  0
  8  3  1  0  0  0  0
  9  3  1  0  0  0  0
 13 14  1  0  0  0  0
 14 15  2  0  0  0  0
 14 19  1  0  0  0  0
 15 16  1  0  0  0  0
 16 20  1  0  0  0  0
 16 17  2  0  0  0  0
 17 21  1  0  0  0  0
 18 17  1  0  0  0  0
 18 22  1  0  0  0  0
 19 18  2  0  0  0  0
 23 19  1  0  0  0  0
 23 24  1  0  0  0  0
 24 25  1  0  0  0  0
 26 24  2  0  0  0  0
 27 26  1  0  0  0  0
 28 33  1  0  0  0  0
 28 27  2  0  0  0  0
 29 28  1  0  0  0  0
 30 31  1  0  0  0  0
 30 29  2  0  0  0  0
 31 32  2  0  0  0  0
 32 33  1  0  0  0  0
 33 23  2  0  0  0  0
 34 35  1  0  0  0  0
 35 36  2  0  0  0  0
 35 41  1  0  0  0  0
 36  1  1  0  0  0  0
 37 36  1  0  0  0  0
 38 37  2  0  0  0  0
 39 38  1  0  0  0  0
 39 34  2  0  0  0  0
 40 34  1  0  0  0  0
 42 38  1  0  0  0  0
M  END
>  <minimizedAffinity>
-6.2316308

$$$$
