
 OpenBabel03252509243D

 29 32  0  0  1  0  0  0  0  0999 V2000
   46.5540   34.7540   42.0360 C   0  0  1  0  0  0  0  0  0  0  0  0
   47.9870   35.3510   42.0500 C   0  0  0  0  0  0  0  0  0  0  0  0
   47.6230   33.8690   41.7410 C   0  0  2  0  0  0  0  0  0  0  0  0
   45.8900   35.2550   41.3060 H   0  0  0  0  0  0  0  0  0  0  0  0
   48.5060   35.4840   42.9930 H   0  0  0  0  0  0  0  0  0  0  0  0
   48.2810   35.9680   41.1630 H   0  0  0  0  0  0  0  0  0  0  0  0
   47.9060   33.1170   42.5340 H   0  0  0  0  0  0  0  0  0  0  0  0
   47.9540   33.3480   40.3930 C   0  0  0  0  0  0  0  0  0  0  0  0
   47.0320   33.5890   39.3940 C   0  0  0  0  0  0  0  0  0  0  0  0
   46.1120   34.1360   39.5990 H   0  0  0  0  0  0  0  0  0  0  0  0
   47.3430   33.1010   38.1350 C   0  0  0  0  0  3  0  0  0  0  0  0
   48.4890   32.4200   37.8840 C   0  0  0  0  0  3  0  0  0  0  0  0
   49.4060   32.1840   38.8950 C   0  0  0  0  0  0  0  0  0  0  0  0
   50.5930   31.4900   38.6760 C   0  0  0  0  0  3  0  0  0  0  0  0
   51.4500   31.3020   39.7460 C   0  0  0  0  0  3  0  0  0  0  0  0
   51.2100   31.7520   41.0070 C   0  0  0  0  0  3  0  0  0  0  0  0
   50.0220   32.4450   41.2150 C   0  0  0  0  0  3  0  0  0  0  0  0
   49.1430   32.6500   40.1680 C   0  0  0  0  0  0  0  0  0  0  0  0
   44.5140   35.6180   45.0770 C   0  0  0  0  0  0  0  0  0  0  0  0
   45.0610   35.7090   43.7600 C   0  0  0  0  0  0  0  0  0  0  0  0
   45.9850   34.7530   43.4390 C   0  0  0  0  0  0  0  0  0  0  0  0
   46.3530   33.7720   44.3450 N   0  0  0  0  0  0  0  0  0  0  0  0
   45.8180   33.7200   45.5710 C   0  0  0  0  0  0  0  0  0  0  0  0
   44.8970   34.6420   45.9420 N   0  0  0  0  0  0  0  0  0  0  0  0
   43.7840   36.3910   45.2960 H   0  0  0  0  0  0  0  0  0  0  0  0
   46.0920   32.9640   46.2900 H   0  0  0  0  0  0  0  0  0  0  0  0
   44.6810   36.7420   42.8550 N   0  0  0  0  0  0  0  0  0  0  0  0
   43.7040   37.0260   42.5500 H   0  0  0  0  0  0  0  0  0  0  0  0
   45.4750   37.3020   42.4270 H   0  0  0  0  0  0  0  0  0  0  0  0
  1  4  1  6  0  0  0
  1  2  1  0  0  0  0
  1 21  1  0  0  0  0
  2  5  1  0  0  0  0
  3  1  1  0  0  0  0
  3  2  1  0  0  0  0
  3  7  1  1  0  0  0
  6  2  1  0  0  0  0
  8  3  1  0  0  0  0
  9 10  1  0  0  0  0
  9  8  2  0  0  0  0
 11  9  1  0  0  0  0
 12 11  2  0  0  0  0
 12 13  1  0  0  0  0
 13 18  1  0  0  0  0
 14 13  2  0  0  0  0
 14 15  1  0  0  0  0
 15 16  2  0  0  0  0
 16 17  1  0  0  0  0
 18  8  1  0  0  0  0
 18 17  2  0  0  0  0
 19 25  1  0  0  0  0
 19 24  1  0  0  0  0
 20 19  2  0  0  0  0
 21 20  1  0  0  0  0
 21 22  2  0  0  0  0
 22 23  1  0  0  0  0
 23 24  2  0  0  0  0
 23 26  1  0  0  0  0
 27 20  1  0  0  0  0
 28 27  1  0  0  0  0
 29 27  1  0  0  0  0
M  END
>  <minimizedAffinity>
-5.60125971

>  <minimizedRMSD>
0.901028812

$$$$
