
 OpenBabel03252505193D

 36 40  0  0  0  0  0  0  0  0999 V2000
   45.8930   32.9860   46.4910 C   0  0  0  0  0  0  0  0  0  0  0  0
   45.1300   32.9930   47.6270 C   0  0  0  0  0  0  0  0  0  0  0  0
   45.3360   32.0640   48.6230 C   0  0  0  0  0  0  0  0  0  0  0  0
   46.3330   31.1390   48.4230 C   0  0  0  0  0  0  0  0  0  0  0  0
   47.1010   31.1430   47.2610 C   0  0  0  0  0  0  0  0  0  0  0  0
   46.8620   32.0900   46.2940 N   0  0  0  0  0  0  0  0  0  0  0  0
   44.3650   33.7510   47.7110 H   0  0  0  0  0  0  0  0  0  0  0  0
   44.7340   32.0810   49.5020 H   0  0  0  0  0  0  0  0  0  0  0  0
   46.4870   30.4720   49.2400 H   0  0  0  0  0  0  0  0  0  0  0  0
   48.2240   30.2810   46.9490 C   0  0  0  0  0  0  0  0  0  0  0  0
   49.1140   29.9620   47.9900 C   0  0  0  0  0  0  0  0  0  0  0  0
   48.9290   30.3540   48.9860 H   0  0  0  0  0  0  0  0  0  0  0  0
   50.2230   29.1840   47.8800 C   0  0  0  0  0  3  0  0  0  0  0  0
   50.5430   28.6430   46.6590 C   0  0  0  0  0  3  0  0  0  0  0  0
   49.7180   28.9160   45.5920 C   0  0  0  0  0  0  0  0  0  0  0  0
   50.0460   28.4090   44.3580 C   0  0  0  0  0  3  0  0  0  0  0  0
   49.2820   28.6730   43.2210 C   0  0  0  0  0  3  0  0  0  0  0  0
   48.1610   29.4870   43.4230 C   0  0  0  0  0  3  0  0  0  0  0  0
   47.8700   29.9710   44.6750 C   0  0  0  0  0  3  0  0  0  0  0  0
   48.6140   29.7080   45.7700 C   0  0  0  0  0  0  0  0  0  0  0  0
   44.5660   35.8860   44.6530 C   0  0  0  0  0  0  0  0  0  0  0  0
   45.2200   35.8290   43.4180 C   0  0  0  0  0  0  0  0  0  0  0  0
   46.1080   34.7920   43.2500 C   0  0  0  0  0  0  0  0  0  0  0  0
   46.3090   33.8890   44.2660 N   0  0  0  0  0  0  0  0  0  0  0  0
   45.6510   33.9810   45.4530 C   0  0  0  0  0  0  0  0  0  0  0  0
   44.7830   34.9820   45.6370 N   0  0  0  0  0  0  0  0  0  0  0  0
   43.8530   36.6850   44.8430 H   0  0  0  0  0  0  0  0  0  0  0  0
   45.0430   36.5490   42.6420 H   0  0  0  0  0  0  0  0  0  0  0  0
   46.8460   34.6100   41.9550 C   0  0  0  0  0  0  0  0  0  0  0  0
   48.1950   35.3350   41.9400 C   0  0  0  0  0  0  0  0  0  0  0  0
   48.0200   33.7780   41.9190 C   0  0  0  0  0  0  0  0  0  0  0  0
   46.2700   34.8210   41.0150 H   0  0  0  0  0  0  0  0  0  0  0  0
   48.5720   35.7650   42.8760 H   0  0  0  0  0  0  0  0  0  0  0  0
   48.5670   35.7780   41.0150 H   0  0  0  0  0  0  0  0  0  0  0  0
   48.3020   33.2460   42.8630 H   0  0  0  0  0  0  0  0  0  0  0  0
   48.3560   33.2840   40.9840 H   0  0  0  0  0  0  0  0  0  0  0  0
  1  2  1  0  0  0  0
  2  7  1  0  0  0  0
  2  3  2  0  0  0  0
  3  8  1  0  0  0  0
  4  3  1  0  0  0  0
  4  9  1  0  0  0  0
  5  4  2  0  0  0  0
  6  1  2  0  0  0  0
  6  5  1  0  0  0  0
 10  5  1  0  0  0  0
 10 11  1  0  0  0  0
 11 12  1  0  0  0  0
 13 11  2  0  0  0  0
 14 13  1  0  0  0  0
 15 20  1  0  0  0  0
 15 14  2  0  0  0  0
 16 15  1  0  0  0  0
 17 18  1  0  0  0  0
 17 16  2  0  0  0  0
 18 19  2  0  0  0  0
 19 20  1  0  0  0  0
 20 10  2  0  0  0  0
 21 27  1  0  0  0  0
 21 26  1  0  0  0  0
 22 21  2  0  0  0  0
 23 22  1  0  0  0  0
 23 24  2  0  0  0  0
 24 25  1  0  0  0  0
 25 26  2  0  0  0  0
 25  1  1  0  0  0  0
 28 22  1  0  0  0  0
 29 23  1  0  0  0  0
 30 29  1  0  0  0  0
 30 33  1  0  0  0  0
 31 30  1  0  0  0  0
 31 29  1  0  0  0  0
 31 35  1  0  0  0  0
 32 29  1  0  0  0  0
 34 30  1  0  0  0  0
 36 31  1  0  0  0  0
M  END
>  <minimizedAffinity>
-6.1271615

>  <minimizedRMSD>
0.382186115

$$$$
