
 OpenBabel03252507323D

 51 55  0  0  1  0  0  0  0  0999 V2000
   46.9710   32.7410   45.5700 C   0  0  0  0  0  0  0  0  0  0  0  0
   45.8900   33.4230   46.1170 C   0  0  0  0  0  0  0  0  0  0  0  0
   45.2140   34.3930   45.3430 C   0  0  0  0  0  0  0  0  0  0  0  0
   45.6990   34.6010   44.0520 N   0  0  0  0  0  0  0  0  0  0  0  0
   46.7420   33.9140   43.5910 C   0  0  0  0  0  0  0  0  0  0  0  0
   47.3740   32.9970   44.3260 N   0  0  0  0  0  0  0  0  0  0  0  0
   45.3910   33.4500   47.0570 H   0  0  0  0  0  0  0  0  0  0  0  0
   44.3820   35.0010   45.5830 H   0  0  0  0  0  0  0  0  0  0  0  0
   47.6160   31.7390   46.3940 C   0  0  2  0  0  0  0  0  0  0  0  0
   47.3720   30.3040   45.8410 C   0  0  0  0  0  0  0  0  0  0  0  0
   48.1710   29.3230   46.6260 C   0  0  0  0  0  0  0  0  0  0  0  0
   48.1710   29.5060   48.1070 C   0  0  0  0  0  0  0  0  0  0  0  0
   48.1660   30.8810   48.5430 C   0  0  0  0  0  0  0  0  0  0  0  0
   47.1720   31.7770   47.7730 C   0  0  2  0  0  0  0  0  0  0  0  0
   48.7220   31.8390   46.2930 H   0  0  0  0  0  0  0  0  0  0  0  0
   46.3150   30.0590   45.7910 H   0  0  0  0  0  0  0  0  0  0  0  0
   47.7380   30.3530   44.7960 H   0  0  0  0  0  0  0  0  0  0  0  0
   47.6850   28.3190   46.4400 H   0  0  0  0  0  0  0  0  0  0  0  0
   49.1550   29.2360   46.1310 H   0  0  0  0  0  0  0  0  0  0  0  0
   47.8050   28.6870   48.7260 H   0  0  0  0  0  0  0  0  0  0  0  0
   49.2850   29.2500   48.3210 H   0  0  0  0  0  0  0  0  0  0  0  0
   49.1150   31.4630   48.5180 H   0  0  0  0  0  0  0  0  0  0  0  0
   47.8120   30.9330   49.6060 H   0  0  0  0  0  0  0  0  0  0  0  0
   47.2660   32.7160   48.3210 H   0  0  0  0  0  0  0  0  0  0  0  0
   45.8330   31.1910   47.8860 N   0  0  0  0  0  0  0  0  0  0  0  0
   45.1430   30.6490   48.9830 C   0  0  0  0  0  0  0  0  0  0  0  0
   44.5930   31.3710   49.8900 O   0  0  0  0  0  0  0  0  0  0  0  0
   45.0930   29.2230   49.0100 N   0  0  0  0  0  0  0  0  0  0  0  0
   45.1930   31.0430   47.0180 H   0  0  0  0  0  0  0  0  0  0  0  0
   44.7770   28.5580   48.2670 H   0  0  0  0  0  0  0  0  0  0  0  0
   45.3950   28.6500   49.8500 H   0  0  0  0  0  0  0  0  0  0  0  0
   47.2140   34.2020   42.2320 C   0  0  0  0  0  0  0  0  0  0  0  0
   48.1940   35.1050   41.9840 C   0  0  0  0  0  0  0  0  0  0  0  0
   48.6690   35.4090   40.7240 C   0  0  0  0  0  0  0  0  0  0  0  0
   48.0780   34.7250   39.6940 C   0  0  0  0  0  0  0  0  0  0  0  0
   47.0840   33.8000   39.9050 C   0  0  0  0  0  0  0  0  0  0  0  0
   46.6750   33.5650   41.1840 N   0  0  0  0  0  0  0  0  0  0  0  0
   48.6170   35.6080   42.8400 H   0  0  0  0  0  0  0  0  0  0  0  0
   49.4440   36.1260   40.5620 H   0  0  0  0  0  0  0  0  0  0  0  0
   48.4150   35.0010   38.7140 H   0  0  0  0  0  0  0  0  0  0  0  0
   46.3150   33.0490   38.9370 C   0  0  0  0  0  0  0  0  0  0  0  0
   47.0000   32.3090   37.9610 C   0  0  0  0  0  0  0  0  0  0  0  0
   48.0990   32.3100   37.9650 H   0  0  0  0  0  0  0  0  0  0  0  0
   46.4110   31.5590   36.9690 C   0  0  0  0  0  3  0  0  0  0  0  0
   45.0380   31.5100   36.9000 C   0  0  0  0  0  3  0  0  0  0  0  0
   44.3000   32.2150   37.8240 C   0  0  0  0  0  0  0  0  0  0  0  0
   42.9240   32.2040   37.7430 C   0  0  0  0  0  3  0  0  0  0  0  0
   42.1280   32.9190   38.6140 C   0  0  0  0  0  3  0  0  0  0  0  0
   42.8000   33.6630   39.5890 C   0  0  0  0  0  3  0  0  0  0  0  0
   44.1730   33.6460   39.6360 C   0  0  0  0  0  3  0  0  0  0  0  0
   44.9610   32.9380   38.7800 C   0  0  0  0  0  0  0  0  0  0  0  0
  1  2  1  0  0  0  0
  1  9  1  0  0  0  0
  2  7  1  0  0  0  0
  3  8  1  0  0  0  0
  3  2  2  0  0  0  0
  4  3  1  0  0  0  0
  5  4  2  0  0  0  0
  5  6  1  0  0  0  0
  6  1  2  0  0  0  0
  9 15  1  6  0  0  0
  9 14  1  0  0  0  0
 10  9  1  0  0  0  0
 10 11  1  0  0  0  0
 11 12  1  0  0  0  0
 12 21  1  0  0  0  0
 12 13  1  0  0  0  0
 12 20  1  0  0  0  0
 13 23  1  0  0  0  0
 14 25  1  0  0  0  0
 14 24  1  1  0  0  0
 14 13  1  0  0  0  0
 16 10  1  0  0  0  0
 17 10  1  0  0  0  0
 18 11  1  0  0  0  0
 19 11  1  0  0  0  0
 22 13  1  0  0  0  0
 25 26  1  0  0  0  0
 26 28  1  0  0  0  0
 26 27  2  0  0  0  0
 28 31  1  0  0  0  0
 29 25  1  0  0  0  0
 30 28  1  0  0  0  0
 32  5  1  0  0  0  0
 33 32  1  0  0  0  0
 33 38  1  0  0  0  0
 34 33  2  0  0  0  0
 35 36  2  0  0  0  0
 35 34  1  0  0  0  0
 36 37  1  0  0  0  0
 37 32  2  0  0  0  0
 39 34  1  0  0  0  0
 40 35  1  0  0  0  0
 41 36  1  0  0  0  0
 42 43  1  0  0  0  0
 42 41  2  0  0  0  0
 44 42  1  0  0  0  0
 45 44  2  0  0  0  0
 45 46  1  0  0  0  0
 46 51  1  0  0  0  0
 47 46  2  0  0  0  0
 47 48  1  0  0  0  0
 48 49  2  0  0  0  0
 49 50  1  0  0  0  0
 51 41  1  0  0  0  0
 51 50  2  0  0  0  0
M  END
>  <minimizedAffinity>
-6.9236474

>  <minimizedRMSD>
0.376786619

$$$$
