
 OpenBabel03252508333D

 34 37  0  0  1  0  0  0  0  0999 V2000
   45.1110   34.4600   42.1930 N   0  0  0  0  0  0  0  0  0  0  0  0
   46.1230   33.8700   41.4500 C   0  0  1  0  0  0  0  0  0  0  0  0
   45.9720   33.9290   39.9650 C   0  0  0  0  0  0  0  0  0  0  0  0
   44.6790   33.7570   39.4620 N   0  0  0  0  0  0  0  0  0  0  0  0
   43.6070   34.1890   40.2650 C   0  0  0  0  0  0  0  0  0  0  0  0
   44.0900   35.1000   41.3890 C   0  0  0  0  0  0  0  0  0  0  0  0
   45.9640   32.7460   41.6520 H   0  0  0  0  0  0  0  0  0  0  0  0
   46.4100   34.8390   39.5080 H   0  0  0  0  0  0  0  0  0  0  0  0
   46.6160   33.0980   39.5440 H   0  0  0  0  0  0  0  0  0  0  0  0
   44.4860   32.9170   38.8990 H   0  0  0  0  0  0  0  0  0  0  0  0
   42.7800   34.6950   39.7760 H   0  0  0  0  0  0  0  0  0  0  0  0
   43.1840   33.2980   40.7890 H   0  0  0  0  0  0  0  0  0  0  0  0
   43.2030   35.4240   41.9170 H   0  0  0  0  0  0  0  0  0  0  0  0
   44.5180   35.9820   40.8630 H   0  0  0  0  0  0  0  0  0  0  0  0
   47.5540   34.0650   41.7310 C   0  0  0  0  0  0  0  0  0  0  0  0
   48.0690   35.3830   41.7620 C   0  0  0  0  0  0  0  0  0  0  0  0
   47.3860   36.2220   41.5480 H   0  0  0  0  0  0  0  0  0  0  0  0
   49.3440   35.7560   42.0310 C   0  0  0  0  0  3  0  0  0  0  0  0
   50.2610   34.7750   42.3080 C   0  0  0  0  0  3  0  0  0  0  0  0
   49.8810   33.4530   42.3080 C   0  0  0  0  0  0  0  0  0  0  0  0
   50.7560   32.4240   42.5790 C   0  0  0  0  0  3  0  0  0  0  0  0
   50.3780   31.0770   42.5810 C   0  0  0  0  0  3  0  0  0  0  0  0
   49.0380   30.7960   42.2910 C   0  0  0  0  0  3  0  0  0  0  0  0
   48.2050   31.8550   42.0280 C   0  0  0  0  0  3  0  0  0  0  0  0
   48.5680   33.1780   42.0240 C   0  0  0  0  0  0  0  0  0  0  0  0
   44.5900   35.4650   44.3020 C   0  0  0  0  0  0  0  0  0  0  0  0
   45.0980   34.3890   43.5940 C   0  0  0  0  0  0  0  0  0  0  0  0
   45.5470   33.3130   44.3180 C   0  0  0  0  0  0  0  0  0  0  0  0
   45.4970   33.3020   45.6600 N   0  0  0  0  0  0  0  0  0  0  0  0
   44.9900   34.3790   46.3290 C   0  0  0  0  0  0  0  0  0  0  0  0
   44.5490   35.4330   45.6600 N   0  0  0  0  0  0  0  0  0  0  0  0
   44.1890   36.3960   43.9370 H   0  0  0  0  0  0  0  0  0  0  0  0
   45.9460   32.4160   43.9310 H   0  0  0  0  0  0  0  0  0  0  0  0
   44.9570   34.3530   47.4300 H   0  0  0  0  0  0  0  0  0  0  0  0
  1 27  1  0  0  0  0
  2  7  1  1  0  0  0
  2 15  1  0  0  0  0
  2  1  1  0  0  0  0
  3  2  1  0  0  0  0
  4  3  1  0  0  0  0
  4  5  1  0  0  0  0
  5 12  1  0  0  0  0
  5  6  1  0  0  0  0
  6 13  1  0  0  0  0
  6  1  1  0  0  0  0
  8  3  1  0  0  0  0
  9  3  1  0  0  0  0
 10  4  1  0  0  0  0
 11  5  1  0  0  0  0
 14  6  1  0  0  0  0
 15 16  2  0  0  0  0
 15 25  1  0  0  0  0
 16 18  1  0  0  0  0
 17 16  1  0  0  0  0
 18 19  2  0  0  0  0
 20 19  1  0  0  0  0
 20 21  1  0  0  0  0
 21 22  2  0  0  0  0
 23 22  1  0  0  0  0
 24 23  2  0  0  0  0
 25 24  1  0  0  0  0
 25 20  2  0  0  0  0
 26 31  1  0  0  0  0
 27 26  2  0  0  0  0
 27 28  1  0  0  0  0
 28 29  2  0  0  0  0
 29 30  1  0  0  0  0
 30 34  1  0  0  0  0
 31 30  2  0  0  0  0
 32 26  1  0  0  0  0
 33 28  1  0  0  0  0
M  END
>  <minimizedAffinity>
-5.91765356

>  <minimizedRMSD>
3.23189902

$$$$
