
 OpenBabel03252507083D

 26 28  0  0  0  0  0  0  0  0999 V2000
   44.5510   35.9130   44.6100 C   0  0  0  0  0  0  0  0  0  0  0  0
   45.1710   35.9880   43.3510 C   0  0  0  0  0  0  0  0  0  0  0  0
   46.0800   35.0050   43.0290 C   0  0  0  0  0  0  0  0  0  0  0  0
   46.3060   34.0530   43.9360 N   0  0  0  0  0  0  0  0  0  0  0  0
   45.7320   33.9530   45.1400 C   0  0  0  0  0  0  0  0  0  0  0  0
   44.8350   34.9190   45.4640 N   0  0  0  0  0  0  0  0  0  0  0  0
   43.8420   36.6870   44.8510 H   0  0  0  0  0  0  0  0  0  0  0  0
   44.9090   36.8060   42.7030 H   0  0  0  0  0  0  0  0  0  0  0  0
   45.9110   32.9670   46.1800 C   0  0  0  0  0  0  0  0  0  0  0  0
   45.3320   33.1040   47.4340 C   0  0  0  0  0  0  0  0  0  0  0  0
   44.7120   33.9870   47.6660 H   0  0  0  0  0  0  0  0  0  0  0  0
   45.4650   32.2030   48.4570 C   0  0  0  0  0  3  0  0  0  0  0  0
   46.2140   31.0630   48.2860 C   0  0  0  0  0  3  0  0  0  0  0  0
   46.8180   30.8650   47.0640 C   0  0  0  0  0  0  0  0  0  0  0  0
   47.5640   29.7190   46.9090 C   0  0  0  0  0  3  0  0  0  0  0  0
   48.1930   29.4610   45.7090 C   0  0  0  0  0  3  0  0  0  0  0  0
   48.0410   30.3870   44.6920 C   0  0  0  0  0  3  0  0  0  0  0  0
   47.2810   31.5130   44.9130 C   0  0  0  0  0  3  0  0  0  0  0  0
   46.6330   31.8170   46.0880 C   0  0  0  0  0  0  0  0  0  0  0  0
   46.7010   35.0580   41.7910 O   0  0  0  0  0  0  0  0  0  0  0  0
   48.4980   33.2840   41.0200 O   0  0  0  0  0  0  0  0  0  0  0  0
   48.3520   34.6700   41.6340 P   0  0  0  0  0  0  0  0  0  0  0  0
   49.0930   35.8600   40.7120 O   0  0  0  0  0  0  0  0  0  0  0  0
   48.4880   36.0400   39.9320 H   0  0  0  0  0  0  0  0  0  0  0  0
   48.9930   34.6010   43.2010 O   0  0  0  0  0  0  0  0  0  0  0  0
   49.0630   35.5670   43.4790 H   0  0  0  0  0  0  0  0  0  0  0  0
  1  7  1  0  0  0  0
  1  6  1  0  0  0  0
  2  1  2  0  0  0  0
  3  2  1  0  0  0  0
  3  4  2  0  0  0  0
  4  5  1  0  0  0  0
  5  6  2  0  0  0  0
  5  9  1  0  0  0  0
  8  2  1  0  0  0  0
  9 10  1  0  0  0  0
 10 11  1  0  0  0  0
 10 12  2  0  0  0  0
 13 12  1  0  0  0  0
 14 13  2  0  0  0  0
 15 14  1  0  0  0  0
 16 15  2  0  0  0  0
 17 18  2  0  0  0  0
 17 16  1  0  0  0  0
 18 19  1  0  0  0  0
 19  9  2  0  0  0  0
 19 14  1  0  0  0  0
 20  3  1  0  0  0  0
 21 22  2  0  0  0  0
 22 20  1  0  0  0  0
 22 25  1  0  0  0  0
 23 22  1  0  0  0  0
 24 23  1  0  0  0  0
 25 26  1  0  0  0  0
M  END
>  <minimizedAffinity>
-6.46676922

>  <minimizedRMSD>
0.870782733

$$$$
