
 OpenBabel03252501493D

 35 38  0  0  0  0  0  0  0  0999 V2000
   35.8200   27.4680   38.8030 C   0  0  0  0  0  0  0  0  0  0  0  0
   35.5970   28.8090   38.4660 C   0  0  0  0  0  0  0  0  0  0  0  0
   36.2570   29.8360   39.1830 C   0  0  0  0  0  0  0  0  0  0  0  0
   37.0930   29.4420   40.1880 N   0  0  0  0  0  0  0  0  0  0  0  0
   37.2830   28.1560   40.4830 C   0  0  0  0  0  0  0  0  0  0  0  0
   36.6530   27.1820   39.7980 N   0  0  0  0  0  0  0  0  0  0  0  0
   35.2960   26.7350   38.2280 H   0  0  0  0  0  0  0  0  0  0  0  0
   36.1080   30.8820   38.9490 H   0  0  0  0  0  0  0  0  0  0  0  0
   36.3370   27.5600   43.0190 F   0  0  0  0  0  0  0  0  0  0  0  0
   37.6890   27.5050   42.8360 C   0  0  0  0  0  0  0  0  0  0  0  0
   38.1890   27.8010   41.5690 C   0  0  0  0  0  0  0  0  0  0  0  0
   39.5370   27.7610   41.3220 C   0  0  0  0  0  0  0  0  0  0  0  0
   40.3890   27.4200   42.3680 C   0  0  0  0  0  0  0  0  0  0  0  0
   39.8950   27.1210   43.6430 C   0  0  0  0  0  0  0  0  0  0  0  0
   38.5260   27.1670   43.8700 C   0  0  0  0  0  0  0  0  0  0  0  0
   39.9470   27.9880   40.3450 H   0  0  0  0  0  0  0  0  0  0  0  0
   41.4540   27.3950   42.1510 H   0  0  0  0  0  0  0  0  0  0  0  0
   40.5650   26.8620   44.4330 H   0  0  0  0  0  0  0  0  0  0  0  0
   38.1000   26.9460   44.8320 H   0  0  0  0  0  0  0  0  0  0  0  0
   34.6900   29.1980   37.3790 C   0  0  0  0  0  3  0  0  0  0  0  0
   33.4350   28.7360   37.2750 C   0  0  0  0  0  3  0  0  0  0  0  0
   32.5620   29.1820   36.1350 C   0  0  0  0  0  0  0  0  0  0  0  0
   32.1360   28.2890   35.6830 H   0  0  0  0  0  0  0  0  0  0  0  0
   33.1440   29.7520   35.3950 H   0  0  0  0  0  0  0  0  0  0  0  0
   31.4420   30.0320   36.6580 C   0  0  0  0  0  0  0  0  0  0  0  0
   30.9700   30.0160   37.9680 C   0  0  0  0  0  0  0  0  0  0  0  0
   31.4820   29.3250   38.6070 H   0  0  0  0  0  0  0  0  0  0  0  0
   29.9380   30.8400   38.3360 C   0  0  0  0  0  3  0  0  0  0  0  0
   29.3480   31.6870   37.4490 C   0  0  0  0  0  3  0  0  0  0  0  0
   29.7870   31.7310   36.1470 C   0  0  0  0  0  0  0  0  0  0  0  0
   29.1370   32.6150   35.3140 C   0  0  0  0  0  3  0  0  0  0  0  0
   29.5660   32.6760   33.9860 C   0  0  0  0  0  3  0  0  0  0  0  0
   30.6110   31.8680   33.5400 C   0  0  0  0  0  3  0  0  0  0  0  0
   31.1950   31.0160   34.4540 C   0  0  0  0  0  3  0  0  0  0  0  0
   30.8240   30.9030   35.7760 C   0  0  0  0  0  0  0  0  0  0  0  0
  1  6  1  0  0  0  0
  2  1  2  0  0  0  0
  2  3  1  0  0  0  0
  3  4  2  0  0  0  0
  4  5  1  0  0  0  0
  5 11  1  0  0  0  0
  6  5  2  0  0  0  0
  7  1  1  0  0  0  0
  8  3  1  0  0  0  0
 10  9  1  0  0  0  0
 10 15  1  0  0  0  0
 11 10  2  0  0  0  0
 12 11  1  0  0  0  0
 12 13  2  0  0  0  0
 13 14  1  0  0  0  0
 14 15  2  0  0  0  0
 14 18  1  0  0  0  0
 15 19  1  0  0  0  0
 16 12  1  0  0  0  0
 17 13  1  0  0  0  0
 20  2  1  0  0  0  0
 21 20  2  0  0  0  0
 22 25  1  0  0  0  0
 22 21  1  0  0  0  0
 23 22  1  0  0  0  0
 24 22  1  0  0  0  0
 25 26  1  0  0  0  0
 26 28  2  0  0  0  0
 26 27  1  0  0  0  0
 29 28  1  0  0  0  0
 30 29  2  0  0  0  0
 31 30  1  0  0  0  0
 32 31  2  0  0  0  0
 33 32  1  0  0  0  0
 33 34  2  0  0  0  0
 34 35  1  0  0  0  0
 35 30  1  0  0  0  0
 35 25  2  0  0  0  0
M  END
>  <minimizedAffinity>
-6.67354298

$$$$

 OpenBabel03252501493D

 35 38  0  0  0  0  0  0  0  0999 V2000
   31.6660   29.6480   37.1080 C   0  0  0  0  0  0  0  0  0  0  0  0
   32.9560   29.1480   36.8900 C   0  0  0  0  0  0  0  0  0  0  0  0
   33.5180   29.1900   35.5910 C   0  0  0  0  0  0  0  0  0  0  0  0
   32.7450   29.7310   34.6050 N   0  0  0  0  0  0  0  0  0  0  0  0
   31.5190   30.1980   34.8470 C   0  0  0  0  0  0  0  0  0  0  0  0
   30.9890   30.1560   36.0840 N   0  0  0  0  0  0  0  0  0  0  0  0
   31.2920   29.5910   38.1070 H   0  0  0  0  0  0  0  0  0  0  0  0
   34.5120   28.8130   35.3870 H   0  0  0  0  0  0  0  0  0  0  0  0
   31.0120   32.9180   34.6850 F   0  0  0  0  0  0  0  0  0  0  0  0
   30.5020   32.1350   33.6900 C   0  0  0  0  0  0  0  0  0  0  0  0
   30.7430   30.7630   33.7500 C   0  0  0  0  0  0  0  0  0  0  0  0
   30.2580   29.9250   32.7790 C   0  0  0  0  0  0  0  0  0  0  0  0
   29.5200   30.4790   31.7380 C   0  0  0  0  0  0  0  0  0  0  0  0
   29.2730   31.8550   31.6700 C   0  0  0  0  0  0  0  0  0  0  0  0
   29.7750   32.6850   32.6630 C   0  0  0  0  0  0  0  0  0  0  0  0
   30.4340   28.8560   32.8070 H   0  0  0  0  0  0  0  0  0  0  0  0
   29.1460   29.7960   30.9790 H   0  0  0  0  0  0  0  0  0  0  0  0
   28.7050   32.2610   30.8630 H   0  0  0  0  0  0  0  0  0  0  0  0
   29.6110   33.7480   32.6540 H   0  0  0  0  0  0  0  0  0  0  0  0
   33.7610   28.5710   37.9730 C   0  0  0  0  0  3  0  0  0  0  0  0
   35.0790   28.3530   37.8670 C   0  0  0  0  0  3  0  0  0  0  0  0
   35.8390   27.7600   39.0210 C   0  0  0  0  0  0  0  0  0  0  0  0
   36.5880   27.0880   38.6080 H   0  0  0  0  0  0  0  0  0  0  0  0
   35.1620   27.2180   39.6990 H   0  0  0  0  0  0  0  0  0  0  0  0
   36.5410   28.8500   39.7770 C   0  0  0  0  0  0  0  0  0  0  0  0
   36.7920   30.1290   39.2880 C   0  0  0  0  0  0  0  0  0  0  0  0
   36.4340   30.2920   38.2910 H   0  0  0  0  0  0  0  0  0  0  0  0
   37.4430   31.0480   40.0690 C   0  0  0  0  0  3  0  0  0  0  0  0
   37.8610   30.7460   41.3290 C   0  0  0  0  0  3  0  0  0  0  0  0
   37.6320   29.4930   41.8460 C   0  0  0  0  0  0  0  0  0  0  0  0
   38.0870   29.2700   43.1270 C   0  0  0  0  0  3  0  0  0  0  0  0
   37.8670   28.0030   43.6720 C   0  0  0  0  0  3  0  0  0  0  0  0
   37.2100   27.0180   42.9360 C   0  0  0  0  0  3  0  0  0  0  0  0
   36.7930   27.3430   41.6620 C   0  0  0  0  0  3  0  0  0  0  0  0
   36.9780   28.5690   41.0610 C   0  0  0  0  0  0  0  0  0  0  0  0
  1  7  1  0  0  0  0
  2  1  1  0  0  0  0
  2 20  1  0  0  0  0
  3  2  2  0  0  0  0
  4  5  2  0  0  0  0
  4  3  1  0  0  0  0
  5  6  1  0  0  0  0
  6  1  2  0  0  0  0
  8  3  1  0  0  0  0
 10 11  1  0  0  0  0
 10  9  1  0  0  0  0
 11  5  1  0  0  0  0
 12 16  1  0  0  0  0
 12 11  2  0  0  0  0
 13 12  1  0  0  0  0
 14 13  2  0  0  0  0
 14 15  1  0  0  0  0
 15 10  2  0  0  0  0
 17 13  1  0  0  0  0
 18 14  1  0  0  0  0
 19 15  1  0  0  0  0
 21 20  2  0  0  0  0
 21 22  1  0  0  0  0
 22 24  1  0  0  0  0
 22 25  1  0  0  0  0
 23 22  1  0  0  0  0
 25 35  1  0  0  0  0
 26 25  2  0  0  0  0
 26 28  1  0  0  0  0
 27 26  1  0  0  0  0
 28 29  2  0  0  0  0
 29 30  1  0  0  0  0
 30 31  1  0  0  0  0
 31 32  2  0  0  0  0
 33 32  1  0  0  0  0
 34 33  2  0  0  0  0
 35 34  1  0  0  0  0
 35 30  2  0  0  0  0
M  END
>  <minimizedAffinity>
-6.5886941

$$$$

 OpenBabel03252501493D

 35 38  0  0  0  0  0  0  0  0999 V2000
   31.5520   29.6660   37.0360 C   0  0  0  0  0  0  0  0  0  0  0  0
   32.8540   29.1900   36.8360 C   0  0  0  0  0  0  0  0  0  0  0  0
   33.4430   29.2660   35.5510 C   0  0  0  0  0  0  0  0  0  0  0  0
   32.6830   29.8150   34.5590 N   0  0  0  0  0  0  0  0  0  0  0  0
   31.4450   30.2600   34.7840 C   0  0  0  0  0  0  0  0  0  0  0  0
   30.8890   30.1850   36.0080 N   0  0  0  0  0  0  0  0  0  0  0  0
   31.1580   29.5850   38.0260 H   0  0  0  0  0  0  0  0  0  0  0  0
   34.4470   28.9080   35.3610 H   0  0  0  0  0  0  0  0  0  0  0  0
   30.4750   28.6850   32.7200 F   0  0  0  0  0  0  0  0  0  0  0  0
   30.2070   30.0220   32.6550 C   0  0  0  0  0  0  0  0  0  0  0  0
   30.6840   30.8350   33.6820 C   0  0  0  0  0  0  0  0  0  0  0  0
   30.4460   32.1850   33.6730 C   0  0  0  0  0  0  0  0  0  0  0  0
   29.7170   32.7190   32.6150 C   0  0  0  0  0  0  0  0  0  0  0  0
   29.2340   31.9100   31.5800 C   0  0  0  0  0  0  0  0  0  0  0  0
   29.4860   30.5460   31.6100 C   0  0  0  0  0  0  0  0  0  0  0  0
   30.8090   32.8360   34.4600 H   0  0  0  0  0  0  0  0  0  0  0  0
   29.5400   33.7920   32.6280 H   0  0  0  0  0  0  0  0  0  0  0  0
   28.6760   32.3380   30.7770 H   0  0  0  0  0  0  0  0  0  0  0  0
   29.1360   29.8840   30.8380 H   0  0  0  0  0  0  0  0  0  0  0  0
   33.6450   28.6040   37.9250 C   0  0  0  0  0  3  0  0  0  0  0  0
   34.9820   28.5050   37.8850 C   0  0  0  0  0  3  0  0  0  0  0  0
   35.7240   27.8940   39.0420 C   0  0  0  0  0  0  0  0  0  0  0  0
   36.4290   27.1740   38.6310 H   0  0  0  0  0  0  0  0  0  0  0  0
   35.0290   27.4020   39.7390 H   0  0  0  0  0  0  0  0  0  0  0  0
   36.4960   28.9580   39.7650 C   0  0  0  0  0  0  0  0  0  0  0  0
   36.8080   30.2120   39.2480 C   0  0  0  0  0  0  0  0  0  0  0  0
   36.4460   30.3750   38.2530 H   0  0  0  0  0  0  0  0  0  0  0  0
   37.5200   31.1090   40.0020 C   0  0  0  0  0  3  0  0  0  0  0  0
   37.9400   30.8090   41.2610 C   0  0  0  0  0  3  0  0  0  0  0  0
   37.6500   29.5800   41.8070 C   0  0  0  0  0  0  0  0  0  0  0  0
   38.1110   29.3570   43.0850 C   0  0  0  0  0  3  0  0  0  0  0  0
   37.8300   28.1150   43.6590 C   0  0  0  0  0  3  0  0  0  0  0  0
   37.1100   27.1530   42.9510 C   0  0  0  0  0  3  0  0  0  0  0  0
   36.6930   27.4760   41.6770 C   0  0  0  0  0  3  0  0  0  0  0  0
   36.9350   28.6780   41.0490 C   0  0  0  0  0  0  0  0  0  0  0  0
  1  7  1  0  0  0  0
  2  1  1  0  0  0  0
  2 20  1  0  0  0  0
  3  2  2  0  0  0  0
  4  5  2  0  0  0  0
  4  3  1  0  0  0  0
  5  6  1  0  0  0  0
  6  1  2  0  0  0  0
  8  3  1  0  0  0  0
 10  9  1  0  0  0  0
 10 11  1  0  0  0  0
 11  5  1  0  0  0  0
 12 11  2  0  0  0  0
 12 16  1  0  0  0  0
 13 17  1  0  0  0  0
 13 12  1  0  0  0  0
 14 15  1  0  0  0  0
 14 13  2  0  0  0  0
 15 10  2  0  0  0  0
 18 14  1  0  0  0  0
 19 15  1  0  0  0  0
 21 20  2  0  0  0  0
 21 22  1  0  0  0  0
 22 24  1  0  0  0  0
 22 25  1  0  0  0  0
 23 22  1  0  0  0  0
 25 35  1  0  0  0  0
 26 25  2  0  0  0  0
 26 28  1  0  0  0  0
 27 26  1  0  0  0  0
 28 29  2  0  0  0  0
 29 30  1  0  0  0  0
 30 31  1  0  0  0  0
 31 32  2  0  0  0  0
 33 32  1  0  0  0  0
 34 33  2  0  0  0  0
 35 34  1  0  0  0  0
 35 30  2  0  0  0  0
M  END
>  <minimizedAffinity>
-6.47625923

$$$$

 OpenBabel03252501493D

 35 38  0  0  0  0  0  0  0  0999 V2000
   36.4610   28.9770   38.3030 C   0  0  0  0  0  0  0  0  0  0  0  0
   35.1940   29.0120   38.9000 C   0  0  0  0  0  0  0  0  0  0  0  0
   35.0720   29.3200   40.2760 C   0  0  0  0  0  0  0  0  0  0  0  0
   36.2300   29.5710   40.9540 N   0  0  0  0  0  0  0  0  0  0  0  0
   37.4200   29.5310   40.3540 C   0  0  0  0  0  0  0  0  0  0  0  0
   37.5320   29.2370   39.0450 N   0  0  0  0  0  0  0  0  0  0  0  0
   36.4940   28.7400   37.2610 H   0  0  0  0  0  0  0  0  0  0  0  0
   34.1090   29.3550   40.7690 H   0  0  0  0  0  0  0  0  0  0  0  0
   38.6370   27.5670   41.8850 F   0  0  0  0  0  0  0  0  0  0  0  0
   39.2130   28.8040   41.8960 C   0  0  0  0  0  0  0  0  0  0  0  0
   38.6200   29.8090   41.1340 C   0  0  0  0  0  0  0  0  0  0  0  0
   39.1540   31.0710   41.1040 C   0  0  0  0  0  0  0  0  0  0  0  0
   40.2990   31.3210   41.8540 C   0  0  0  0  0  0  0  0  0  0  0  0
   40.9020   30.3180   42.6210 C   0  0  0  0  0  0  0  0  0  0  0  0
   40.3450   29.0470   42.6360 C   0  0  0  0  0  0  0  0  0  0  0  0
   38.7080   31.8680   40.5200 H   0  0  0  0  0  0  0  0  0  0  0  0
   40.7050   32.3290   41.8150 H   0  0  0  0  0  0  0  0  0  0  0  0
   41.7810   30.5290   43.1890 H   0  0  0  0  0  0  0  0  0  0  0  0
   40.7720   28.2440   43.2100 H   0  0  0  0  0  0  0  0  0  0  0  0
   33.9690   28.7350   38.1420 C   0  0  0  0  0  3  0  0  0  0  0  0
   33.8680   28.9320   36.8190 C   0  0  0  0  0  3  0  0  0  0  0  0
   32.5790   28.6220   36.1090 C   0  0  0  0  0  0  0  0  0  0  0  0
   31.9450   28.0800   36.8080 H   0  0  0  0  0  0  0  0  0  0  0  0
   32.7630   28.0200   35.2060 H   0  0  0  0  0  0  0  0  0  0  0  0
   31.8890   29.9000   35.7320 C   0  0  0  0  0  0  0  0  0  0  0  0
   32.1110   30.6120   34.5560 C   0  0  0  0  0  0  0  0  0  0  0  0
   32.8410   30.1680   33.9090 H   0  0  0  0  0  0  0  0  0  0  0  0
   31.4210   31.7710   34.3140 C   0  0  0  0  0  3  0  0  0  0  0  0
   30.5100   32.2580   35.2010 C   0  0  0  0  0  3  0  0  0  0  0  0
   30.2640   31.5830   36.3730 C   0  0  0  0  0  0  0  0  0  0  0  0
   29.3280   32.1430   37.2140 C   0  0  0  0  0  3  0  0  0  0  0  0
   29.0630   31.4750   38.4110 C   0  0  0  0  0  3  0  0  0  0  0  0
   29.7270   30.2890   38.7250 C   0  0  0  0  0  3  0  0  0  0  0  0
   30.6460   29.8120   37.8140 C   0  0  0  0  0  3  0  0  0  0  0  0
   30.9570   30.4180   36.6170 C   0  0  0  0  0  0  0  0  0  0  0  0
  1  2  2  0  0  0  0
  1  6  1  0  0  0  0
  2  3  1  0  0  0  0
  3  8  1  0  0  0  0
  3  4  2  0  0  0  0
  5  4  1  0  0  0  0
  5 11  1  0  0  0  0
  6  5  2  0  0  0  0
  7  1  1  0  0  0  0
  9 10  1  0  0  0  0
 10 15  1  0  0  0  0
 11 10  2  0  0  0  0
 12 11  1  0  0  0  0
 12 13  2  0  0  0  0
 13 14  1  0  0  0  0
 14 15  2  0  0  0  0
 14 18  1  0  0  0  0
 15 19  1  0  0  0  0
 16 12  1  0  0  0  0
 17 13  1  0  0  0  0
 20  2  1  0  0  0  0
 21 20  2  0  0  0  0
 22 23  1  0  0  0  0
 22 21  1  0  0  0  0
 24 22  1  0  0  0  0
 25 22  1  0  0  0  0
 25 35  1  0  0  0  0
 26 25  2  0  0  0  0
 27 26  1  0  0  0  0
 28 26  1  0  0  0  0
 28 29  2  0  0  0  0
 29 30  1  0  0  0  0
 30 35  2  0  0  0  0
 30 31  1  0  0  0  0
 31 32  2  0  0  0  0
 32 33  1  0  0  0  0
 34 33  2  0  0  0  0
 35 34  1  0  0  0  0
M  END
>  <minimizedAffinity>
-6.45398951

$$$$

 OpenBabel03252501493D

 35 38  0  0  0  0  0  0  0  0999 V2000
   33.6730   29.2530   35.6630 C   0  0  0  0  0  0  0  0  0  0  0  0
   33.1540   29.1480   36.9590 C   0  0  0  0  0  0  0  0  0  0  0  0
   31.8270   29.5610   37.2230 C   0  0  0  0  0  0  0  0  0  0  0  0
   31.1150   30.0510   36.1660 N   0  0  0  0  0  0  0  0  0  0  0  0
   31.6400   30.1370   34.9430 C   0  0  0  0  0  0  0  0  0  0  0  0
   32.9040   29.7420   34.6970 N   0  0  0  0  0  0  0  0  0  0  0  0
   34.6810   28.9250   35.5210 H   0  0  0  0  0  0  0  0  0  0  0  0
   31.3940   29.4940   38.2130 H   0  0  0  0  0  0  0  0  0  0  0  0
   31.1320   32.8520   34.7140 F   0  0  0  0  0  0  0  0  0  0  0  0
   30.5870   32.0400   33.7630 C   0  0  0  0  0  0  0  0  0  0  0  0
   30.8280   30.6700   33.8560 C   0  0  0  0  0  0  0  0  0  0  0  0
   30.3080   29.8040   32.9290 C   0  0  0  0  0  0  0  0  0  0  0  0
   29.5350   30.3280   31.8970 C   0  0  0  0  0  0  0  0  0  0  0  0
   29.2890   31.7020   31.7960 C   0  0  0  0  0  0  0  0  0  0  0  0
   29.8250   32.5600   32.7450 C   0  0  0  0  0  0  0  0  0  0  0  0
   30.4820   28.7350   32.9830 H   0  0  0  0  0  0  0  0  0  0  0  0
   29.1330   29.6230   31.1740 H   0  0  0  0  0  0  0  0  0  0  0  0
   28.6940   32.0840   30.9960 H   0  0  0  0  0  0  0  0  0  0  0  0
   29.6640   33.6230   32.7090 H   0  0  0  0  0  0  0  0  0  0  0  0
   33.9480   28.6170   38.0740 C   0  0  0  0  0  3  0  0  0  0  0  0
   35.2610   28.3620   37.9800 C   0  0  0  0  0  3  0  0  0  0  0  0
   36.0090   27.8210   39.1670 C   0  0  0  0  0  0  0  0  0  0  0  0
   35.4110   28.0320   40.0520 H   0  0  0  0  0  0  0  0  0  0  0  0
   37.0020   28.2880   39.2510 H   0  0  0  0  0  0  0  0  0  0  0  0
   36.1590   26.3340   39.0360 C   0  0  0  0  0  0  0  0  0  0  0  0
   35.7660   25.5840   37.9310 C   0  0  0  0  0  0  0  0  0  0  0  0
   35.3270   26.1650   37.1440 H   0  0  0  0  0  0  0  0  0  0  0  0
   35.9530   24.2270   37.9190 C   0  0  0  0  0  3  0  0  0  0  0  0
   36.5210   23.5750   38.9710 C   0  0  0  0  0  3  0  0  0  0  0  0
   36.9230   24.2820   40.0800 C   0  0  0  0  0  0  0  0  0  0  0  0
   37.4870   23.5470   41.0990 C   0  0  0  0  0  3  0  0  0  0  0  0
   37.9010   24.2440   42.2360 C   0  0  0  0  0  3  0  0  0  0  0  0
   37.7430   25.6270   42.3190 C   0  0  0  0  0  3  0  0  0  0  0  0
   37.1660   26.2690   41.2430 C   0  0  0  0  0  3  0  0  0  0  0  0
   36.7340   25.6470   40.0920 C   0  0  0  0  0  0  0  0  0  0  0  0
  1  2  1  0  0  0  0
  2  3  2  0  0  0  0
  2 20  1  0  0  0  0
  3  8  1  0  0  0  0
  4  3  1  0  0  0  0
  5  4  2  0  0  0  0
  6  5  1  0  0  0  0
  6  1  2  0  0  0  0
  7  1  1  0  0  0  0
 10 11  1  0  0  0  0
 10  9  1  0  0  0  0
 11  5  1  0  0  0  0
 12 16  1  0  0  0  0
 12 11  2  0  0  0  0
 13 12  1  0  0  0  0
 14 13  2  0  0  0  0
 14 15  1  0  0  0  0
 15 10  2  0  0  0  0
 17 13  1  0  0  0  0
 18 14  1  0  0  0  0
 19 15  1  0  0  0  0
 21 20  2  0  0  0  0
 21 22  1  0  0  0  0
 22 24  1  0  0  0  0
 22 23  1  0  0  0  0
 25 22  1  0  0  0  0
 25 35  1  0  0  0  0
 26 25  2  0  0  0  0
 27 26  1  0  0  0  0
 28 26  1  0  0  0  0
 28 29  2  0  0  0  0
 29 30  1  0  0  0  0
 30 35  2  0  0  0  0
 30 31  1  0  0  0  0
 31 32  2  0  0  0  0
 32 33  1  0  0  0  0
 34 33  2  0  0  0  0
 35 34  1  0  0  0  0
M  END
>  <minimizedAffinity>
-6.11666012

$$$$

 OpenBabel03252501493D

 35 38  0  0  0  0  0  0  0  0999 V2000
   36.1820   27.1210   39.1880 C   0  0  0  0  0  0  0  0  0  0  0  0
   36.1130   27.8580   40.3760 C   0  0  0  0  0  0  0  0  0  0  0  0
   35.2700   28.9920   40.4540 C   0  0  0  0  0  0  0  0  0  0  0  0
   34.5570   29.3050   39.3330 N   0  0  0  0  0  0  0  0  0  0  0  0
   34.6460   28.5810   38.2160 C   0  0  0  0  0  0  0  0  0  0  0  0
   35.4500   27.5020   38.1470 N   0  0  0  0  0  0  0  0  0  0  0  0
   36.8340   26.2740   39.1860 H   0  0  0  0  0  0  0  0  0  0  0  0
   35.1920   29.5850   41.3570 H   0  0  0  0  0  0  0  0  0  0  0  0
   35.8240   28.9700   35.7380 F   0  0  0  0  0  0  0  0  0  0  0  0
   34.4750   29.1570   35.8160 C   0  0  0  0  0  0  0  0  0  0  0  0
   33.8590   28.9680   37.0520 C   0  0  0  0  0  0  0  0  0  0  0  0
   32.5060   29.1400   37.1930 C   0  0  0  0  0  0  0  0  0  0  0  0
   31.7670   29.5080   36.0730 C   0  0  0  0  0  0  0  0  0  0  0  0
   32.3780   29.7010   34.8280 C   0  0  0  0  0  0  0  0  0  0  0  0
   33.7490   29.5200   34.7080 C   0  0  0  0  0  0  0  0  0  0  0  0
   32.0070   28.9990   38.1450 H   0  0  0  0  0  0  0  0  0  0  0  0
   30.6970   29.6390   36.2070 H   0  0  0  0  0  0  0  0  0  0  0  0
   31.7950   29.9830   33.9800 H   0  0  0  0  0  0  0  0  0  0  0  0
   34.2620   29.6560   33.7730 H   0  0  0  0  0  0  0  0  0  0  0  0
   36.8940   27.4950   41.5640 C   0  0  0  0  0  3  0  0  0  0  0  0
   36.7340   28.0920   42.7540 C   0  0  0  0  0  3  0  0  0  0  0  0
   37.5710   27.6640   43.9280 C   0  0  0  0  0  0  0  0  0  0  0  0
   37.1710   26.7170   44.2850 H   0  0  0  0  0  0  0  0  0  0  0  0
   37.5430   28.4220   44.7270 H   0  0  0  0  0  0  0  0  0  0  0  0
   38.9880   27.4470   43.4870 C   0  0  0  0  0  0  0  0  0  0  0  0
   39.6390   26.2160   43.4620 C   0  0  0  0  0  0  0  0  0  0  0  0
   39.0330   25.3970   43.7940 H   0  0  0  0  0  0  0  0  0  0  0  0
   40.9390   26.1350   43.0370 C   0  0  0  0  0  3  0  0  0  0  0  0
   41.6290   27.2370   42.6330 C   0  0  0  0  0  3  0  0  0  0  0  0
   41.0200   28.4700   42.6440 C   0  0  0  0  0  0  0  0  0  0  0  0
   41.7880   29.5320   42.2200 C   0  0  0  0  0  3  0  0  0  0  0  0
   41.1900   30.7940   42.2240 C   0  0  0  0  0  3  0  0  0  0  0  0
   39.8690   30.9530   42.6420 C   0  0  0  0  0  3  0  0  0  0  0  0
   39.1870   29.8250   43.0480 C   0  0  0  0  0  3  0  0  0  0  0  0
   39.7130   28.5520   43.0710 C   0  0  0  0  0  0  0  0  0  0  0  0
  1  2  1  0  0  0  0
  2  3  2  0  0  0  0
  2 20  1  0  0  0  0
  3  8  1  0  0  0  0
  4  3  1  0  0  0  0
  5  4  2  0  0  0  0
  6  5  1  0  0  0  0
  6  1  2  0  0  0  0
  7  1  1  0  0  0  0
  9 10  1  0  0  0  0
 10 11  1  0  0  0  0
 11 12  2  0  0  0  0
 11  5  1  0  0  0  0
 12 16  1  0  0  0  0
 13 17  1  0  0  0  0
 13 12  1  0  0  0  0
 14 13  2  0  0  0  0
 15 14  1  0  0  0  0
 15 10  2  0  0  0  0
 18 14  1  0  0  0  0
 19 15  1  0  0  0  0
 20 21  2  0  0  0  0
 21 22  1  0  0  0  0
 22 23  1  0  0  0  0
 22 24  1  0  0  0  0
 25 22  1  0  0  0  0
 26 25  1  0  0  0  0
 26 27  1  0  0  0  0
 28 26  2  0  0  0  0
 29 30  2  0  0  0  0
 29 28  1  0  0  0  0
 30 35  1  0  0  0  0
 31 32  2  0  0  0  0
 31 30  1  0  0  0  0
 32 33  1  0  0  0  0
 33 34  2  0  0  0  0
 34 35  1  0  0  0  0
 35 25  2  0  0  0  0
M  END
>  <minimizedAffinity>
-6.09063387

$$$$

 OpenBabel03252501493D

 35 38  0  0  0  0  0  0  0  0999 V2000
   33.4780   28.5910   37.4060 C   0  0  0  0  0  0  0  0  0  0  0  0
   34.7270   28.2870   36.8490 C   0  0  0  0  0  0  0  0  0  0  0  0
   35.0120   28.6550   35.5120 C   0  0  0  0  0  0  0  0  0  0  0  0
   34.0220   29.3020   34.8300 N   0  0  0  0  0  0  0  0  0  0  0  0
   32.8430   29.5770   35.3910 C   0  0  0  0  0  0  0  0  0  0  0  0
   32.5770   29.2250   36.6630 N   0  0  0  0  0  0  0  0  0  0  0  0
   33.3190   28.2910   38.4190 H   0  0  0  0  0  0  0  0  0  0  0  0
   35.9660   28.4350   35.0510 H   0  0  0  0  0  0  0  0  0  0  0  0
   31.1210   28.1990   33.7120 F   0  0  0  0  0  0  0  0  0  0  0  0
   30.9730   29.5540   33.7710 C   0  0  0  0  0  0  0  0  0  0  0  0
   31.8270   30.2700   34.6080 C   0  0  0  0  0  0  0  0  0  0  0  0
   31.7260   31.6330   34.7110 C   0  0  0  0  0  0  0  0  0  0  0  0
   30.7510   32.2810   33.9590 C   0  0  0  0  0  0  0  0  0  0  0  0
   29.8880   31.5700   33.1160 C   0  0  0  0  0  0  0  0  0  0  0  0
   30.0090   30.1900   33.0280 C   0  0  0  0  0  0  0  0  0  0  0  0
   32.3800   32.2090   35.3550 H   0  0  0  0  0  0  0  0  0  0  0  0
   30.6880   33.3620   34.0560 H   0  0  0  0  0  0  0  0  0  0  0  0
   29.1460   32.0850   32.5470 H   0  0  0  0  0  0  0  0  0  0  0  0
   29.3700   29.6010   32.3950 H   0  0  0  0  0  0  0  0  0  0  0  0
   35.7690   27.5880   37.6110 C   0  0  0  0  0  3  0  0  0  0  0  0
   35.7190   27.4300   38.9410 C   0  0  0  0  0  3  0  0  0  0  0  0
   36.8240   26.6990   39.6530 C   0  0  0  0  0  0  0  0  0  0  0  0
   37.6760   26.6600   38.9770 H   0  0  0  0  0  0  0  0  0  0  0  0
   36.5060   25.6840   39.9350 H   0  0  0  0  0  0  0  0  0  0  0  0
   37.2250   27.4620   40.8810 C   0  0  0  0  0  0  0  0  0  0  0  0
   36.7910   28.7450   41.2040 C   0  0  0  0  0  0  0  0  0  0  0  0
   36.1220   29.1720   40.4850 H   0  0  0  0  0  0  0  0  0  0  0  0
   37.2220   29.3460   42.3580 C   0  0  0  0  0  3  0  0  0  0  0  0
   38.0760   28.7210   43.2130 C   0  0  0  0  0  3  0  0  0  0  0  0
   38.5270   27.4530   42.9290 C   0  0  0  0  0  0  0  0  0  0  0  0
   39.3890   26.8920   43.8460 C   0  0  0  0  0  3  0  0  0  0  0  0
   39.8600   25.6050   43.5760 C   0  0  0  0  0  3  0  0  0  0  0  0
   39.4630   24.9310   42.4210 C   0  0  0  0  0  3  0  0  0  0  0  0
   38.5970   25.5810   41.5680 C   0  0  0  0  0  3  0  0  0  0  0  0
   38.0940   26.8480   41.7690 C   0  0  0  0  0  0  0  0  0  0  0  0
  1  7  1  0  0  0  0
  2  1  1  0  0  0  0
  2 20  1  0  0  0  0
  3  2  2  0  0  0  0
  4  5  2  0  0  0  0
  4  3  1  0  0  0  0
  5  6  1  0  0  0  0
  6  1  2  0  0  0  0
  8  3  1  0  0  0  0
  9 10  1  0  0  0  0
 10 11  1  0  0  0  0
 11 12  2  0  0  0  0
 11  5  1  0  0  0  0
 12 16  1  0  0  0  0
 13 17  1  0  0  0  0
 13 12  1  0  0  0  0
 14 13  2  0  0  0  0
 15 14  1  0  0  0  0
 15 10  2  0  0  0  0
 18 14  1  0  0  0  0
 19 15  1  0  0  0  0
 20 21  2  0  0  0  0
 21 22  1  0  0  0  0
 22 24  1  0  0  0  0
 22 25  1  0  0  0  0
 23 22  1  0  0  0  0
 25 26  2  0  0  0  0
 25 35  1  0  0  0  0
 26 28  1  0  0  0  0
 27 26  1  0  0  0  0
 28 29  2  0  0  0  0
 30 29  1  0  0  0  0
 30 31  1  0  0  0  0
 32 31  2  0  0  0  0
 33 32  1  0  0  0  0
 34 35  1  0  0  0  0
 34 33  2  0  0  0  0
 35 30  2  0  0  0  0
M  END
>  <minimizedAffinity>
-5.95696735

$$$$

 OpenBabel03252501493D

 35 38  0  0  0  0  0  0  0  0999 V2000
   37.2470   28.1810   38.5400 C   0  0  0  0  0  0  0  0  0  0  0  0
   36.1330   29.0310   38.5420 C   0  0  0  0  0  0  0  0  0  0  0  0
   36.1020   30.1510   39.4070 C   0  0  0  0  0  0  0  0  0  0  0  0
   37.1920   30.3390   40.2070 N   0  0  0  0  0  0  0  0  0  0  0  0
   38.2380   29.5110   40.1790 C   0  0  0  0  0  0  0  0  0  0  0  0
   38.2620   28.4460   39.3550 N   0  0  0  0  0  0  0  0  0  0  0  0
   37.2170   27.3520   37.8670 H   0  0  0  0  0  0  0  0  0  0  0  0
   35.2580   30.8280   39.4340 H   0  0  0  0  0  0  0  0  0  0  0  0
   39.7800   31.7990   39.9250 F   0  0  0  0  0  0  0  0  0  0  0  0
   40.1320   30.9240   40.9120 C   0  0  0  0  0  0  0  0  0  0  0  0
   39.3710   29.7660   41.0600 C   0  0  0  0  0  0  0  0  0  0  0  0
   39.6740   28.8500   42.0340 C   0  0  0  0  0  0  0  0  0  0  0  0
   40.7590   29.1070   42.8670 C   0  0  0  0  0  0  0  0  0  0  0  0
   41.5270   30.2690   42.7260 C   0  0  0  0  0  0  0  0  0  0  0  0
   41.2020   31.1820   41.7330 C   0  0  0  0  0  0  0  0  0  0  0  0
   39.0970   27.9420   42.1660 H   0  0  0  0  0  0  0  0  0  0  0  0
   40.9810   28.3680   43.6320 H   0  0  0  0  0  0  0  0  0  0  0  0
   42.3550   30.4490   43.3750 H   0  0  0  0  0  0  0  0  0  0  0  0
   41.7630   32.0880   41.5860 H   0  0  0  0  0  0  0  0  0  0  0  0
   34.9760   28.7990   37.6690 C   0  0  0  0  0  3  0  0  0  0  0  0
   33.7090   28.9520   38.0810 C   0  0  0  0  0  3  0  0  0  0  0  0
   32.5740   28.6990   37.1280 C   0  0  0  0  0  0  0  0  0  0  0  0
   32.1570   27.7230   37.3700 H   0  0  0  0  0  0  0  0  0  0  0  0
   32.9240   28.7230   36.0840 H   0  0  0  0  0  0  0  0  0  0  0  0
   31.5070   29.7350   37.3250 C   0  0  0  0  0  0  0  0  0  0  0  0
   30.7570   29.9000   38.4860 C   0  0  0  0  0  0  0  0  0  0  0  0
   31.0020   29.2060   39.2650 H   0  0  0  0  0  0  0  0  0  0  0  0
   29.8050   30.8840   38.5560 C   0  0  0  0  0  3  0  0  0  0  0  0
   29.5650   31.7210   37.5090 C   0  0  0  0  0  3  0  0  0  0  0  0
   30.2860   31.5890   36.3460 C   0  0  0  0  0  0  0  0  0  0  0  0
   29.9800   32.4740   35.3360 C   0  0  0  0  0  3  0  0  0  0  0  0
   30.6990   32.3580   34.1440 C   0  0  0  0  0  3  0  0  0  0  0  0
   31.6830   31.3800   34.0010 C   0  0  0  0  0  3  0  0  0  0  0  0
   31.9120   30.5430   35.0730 C   0  0  0  0  0  3  0  0  0  0  0  0
   31.2420   30.5990   36.2750 C   0  0  0  0  0  0  0  0  0  0  0  0
  1  2  2  0  0  0  0
  1  6  1  0  0  0  0
  2  3  1  0  0  0  0
  3  8  1  0  0  0  0
  3  4  2  0  0  0  0
  5  4  1  0  0  0  0
  5 11  1  0  0  0  0
  6  5  2  0  0  0  0
  7  1  1  0  0  0  0
  9 10  1  0  0  0  0
 10 11  2  0  0  0  0
 10 15  1  0  0  0  0
 11 12  1  0  0  0  0
 12 16  1  0  0  0  0
 12 13  2  0  0  0  0
 13 17  1  0  0  0  0
 14 13  1  0  0  0  0
 14 18  1  0  0  0  0
 15 14  2  0  0  0  0
 19 15  1  0  0  0  0
 20 21  2  0  0  0  0
 20  2  1  0  0  0  0
 22 25  1  0  0  0  0
 22 23  1  0  0  0  0
 22 21  1  0  0  0  0
 24 22  1  0  0  0  0
 25 26  1  0  0  0  0
 26 28  2  0  0  0  0
 26 27  1  0  0  0  0
 29 28  1  0  0  0  0
 30 29  2  0  0  0  0
 31 30  1  0  0  0  0
 32 31  2  0  0  0  0
 33 32  1  0  0  0  0
 33 34  2  0  0  0  0
 34 35  1  0  0  0  0
 35 30  1  0  0  0  0
 35 25  2  0  0  0  0
M  END
>  <minimizedAffinity>
-5.89869213

$$$$

 OpenBabel03252501493D

 35 38  0  0  0  0  0  0  0  0999 V2000
   35.3510   29.0440   36.3200 C   0  0  0  0  0  0  0  0  0  0  0  0
   35.0070   28.9160   37.6720 C   0  0  0  0  0  0  0  0  0  0  0  0
   33.6450   28.9470   38.0580 C   0  0  0  0  0  0  0  0  0  0  0  0
   32.7270   29.1050   37.0600 N   0  0  0  0  0  0  0  0  0  0  0  0
   33.0900   29.2240   35.7820 C   0  0  0  0  0  0  0  0  0  0  0  0
   34.3870   29.1930   35.4190 N   0  0  0  0  0  0  0  0  0  0  0  0
   36.3940   29.0130   36.0860 H   0  0  0  0  0  0  0  0  0  0  0  0
   33.3430   28.8510   39.0940 H   0  0  0  0  0  0  0  0  0  0  0  0
   31.9560   27.0430   34.5010 F   0  0  0  0  0  0  0  0  0  0  0  0
   31.5060   28.2780   34.1330 C   0  0  0  0  0  0  0  0  0  0  0  0
   32.0610   29.3900   34.7630 C   0  0  0  0  0  0  0  0  0  0  0  0
   31.6490   30.6570   34.4370 C   0  0  0  0  0  0  0  0  0  0  0  0
   30.6650   30.8000   33.4630 C   0  0  0  0  0  0  0  0  0  0  0  0
   30.1030   29.6880   32.8260 C   0  0  0  0  0  0  0  0  0  0  0  0
   30.5350   28.4150   33.1720 C   0  0  0  0  0  0  0  0  0  0  0  0
   32.0680   31.5350   34.9130 H   0  0  0  0  0  0  0  0  0  0  0  0
   30.3540   31.8120   33.2200 H   0  0  0  0  0  0  0  0  0  0  0  0
   29.3490   29.8180   32.0810 H   0  0  0  0  0  0  0  0  0  0  0  0
   30.1330   27.5310   32.7110 H   0  0  0  0  0  0  0  0  0  0  0  0
   36.0190   28.7500   38.7210 C   0  0  0  0  0  3  0  0  0  0  0  0
   35.7790   28.1040   39.8720 C   0  0  0  0  0  3  0  0  0  0  0  0
   36.8690   27.9700   40.9000 C   0  0  0  0  0  0  0  0  0  0  0  0
   36.4700   28.3320   41.8450 H   0  0  0  0  0  0  0  0  0  0  0  0
   37.7580   28.5490   40.6070 H   0  0  0  0  0  0  0  0  0  0  0  0
   37.2380   26.5250   41.0600 C   0  0  0  0  0  0  0  0  0  0  0  0
   36.6640   25.4700   40.3570 C   0  0  0  0  0  0  0  0  0  0  0  0
   35.9050   25.7700   39.6630 H   0  0  0  0  0  0  0  0  0  0  0  0
   37.0820   24.1840   40.5850 C   0  0  0  0  0  3  0  0  0  0  0  0
   38.0570   23.9000   41.4920 C   0  0  0  0  0  3  0  0  0  0  0  0
   38.6480   24.9160   42.2050 C   0  0  0  0  0  0  0  0  0  0  0  0
   39.6250   24.5430   43.1020 C   0  0  0  0  0  3  0  0  0  0  0  0
   40.2380   25.5590   43.8390 C   0  0  0  0  0  3  0  0  0  0  0  0
   39.8640   26.8910   43.6600 C   0  0  0  0  0  3  0  0  0  0  0  0
   38.8750   27.1580   42.7360 C   0  0  0  0  0  3  0  0  0  0  0  0
   38.2280   26.2090   41.9770 C   0  0  0  0  0  0  0  0  0  0  0  0
  1  2  1  0  0  0  0
  2  3  2  0  0  0  0
  2 20  1  0  0  0  0
  3  8  1  0  0  0  0
  4  3  1  0  0  0  0
  5  4  2  0  0  0  0
  6  5  1  0  0  0  0
  6  1  2  0  0  0  0
  7  1  1  0  0  0  0
 10  9  1  0  0  0  0
 10 11  1  0  0  0  0
 11  5  1  0  0  0  0
 12 11  2  0  0  0  0
 12 16  1  0  0  0  0
 13 12  1  0  0  0  0
 14 15  1  0  0  0  0
 14 13  2  0  0  0  0
 15 10  2  0  0  0  0
 17 13  1  0  0  0  0
 18 14  1  0  0  0  0
 19 15  1  0  0  0  0
 20 21  2  0  0  0  0
 21 22  1  0  0  0  0
 22 25  1  0  0  0  0
 22 23  1  0  0  0  0
 24 22  1  0  0  0  0
 25 35  1  0  0  0  0
 26 28  1  0  0  0  0
 26 25  2  0  0  0  0
 27 26  1  0  0  0  0
 28 29  2  0  0  0  0
 29 30  1  0  0  0  0
 30 31  1  0  0  0  0
 31 32  2  0  0  0  0
 33 32  1  0  0  0  0
 34 33  2  0  0  0  0
 35 30  2  0  0  0  0
 35 34  1  0  0  0  0
M  END
>  <minimizedAffinity>
-5.87647676

$$$$
