
 OpenBabel03242521153D

 30 33  0  0  0  0  0  0  0  0999 V2000
   36.2480   30.8400   41.0130 C   0  0  0  0  0  0  0  0  0  0  0  0
   37.1620   31.5610   40.1830 C   0  0  0  0  0  0  0  0  0  0  0  0
   38.4300   31.0250   40.0960 C   0  0  0  0  0  0  0  0  0  0  0  0
   38.6730   29.8970   40.7910 N   0  0  0  0  0  0  0  0  0  0  0  0
   37.8310   29.2290   41.5580 C   0  0  0  0  0  0  0  0  0  0  0  0
   36.5900   29.7140   41.6690 N   0  0  0  0  0  0  0  0  0  0  0  0
   35.2330   31.1930   41.1330 H   0  0  0  0  0  0  0  0  0  0  0  0
   36.8310   32.4410   39.6920 H   0  0  0  0  0  0  0  0  0  0  0  0
   39.3930   31.6910   39.2850 N   0  0  0  0  0  0  0  0  0  0  0  0
   40.3330   32.4310   39.9000 C   0  0  0  0  0  0  0  0  0  0  0  0
   41.2650   33.1020   39.1050 C   0  0  0  0  0  0  0  0  0  0  0  0
   41.1730   32.9700   37.7500 C   0  0  0  0  0  0  0  0  0  0  0  0
   42.0120   33.5790   37.0160 O   0  0  0  0  0  0  0  0  0  0  0  0
   40.2440   32.2360   37.1240 N   0  0  0  0  0  0  0  0  0  0  0  0
   39.3570   31.6010   37.9330 C   0  0  0  0  0  0  0  0  0  0  0  0
   38.4490   30.8890   37.4610 O   0  0  0  0  0  0  0  0  0  0  0  0
   40.3760   32.5130   40.9870 H   0  0  0  0  0  0  0  0  0  0  0  0
   42.0470   33.7150   39.5380 H   0  0  0  0  0  0  0  0  0  0  0  0
   40.1820   32.1410   36.0900 H   0  0  0  0  0  0  0  0  0  0  0  0
   38.4520   28.0510   42.1500 C   0  0  0  0  0  0  0  0  0  0  0  0
   39.4540   28.1430   43.0900 C   0  0  0  0  0  0  0  0  0  0  0  0
   39.8220   29.1190   43.4270 H   0  0  0  0  0  0  0  0  0  0  0  0
   40.0710   27.0620   43.6790 C   0  0  0  0  0  3  0  0  0  0  0  0
   39.6960   25.7840   43.3380 C   0  0  0  0  0  3  0  0  0  0  0  0
   38.7010   25.6430   42.4060 C   0  0  0  0  0  0  0  0  0  0  0  0
   38.3430   24.3540   42.0820 C   0  0  0  0  0  3  0  0  0  0  0  0
   37.3580   24.1090   41.1610 C   0  0  0  0  0  3  0  0  0  0  0  0
   36.7510   25.2290   40.5810 C   0  0  0  0  0  3  0  0  0  0  0  0
   37.1520   26.4940   40.9470 C   0  0  0  0  0  3  0  0  0  0  0  0
   38.1250   26.7470   41.8560 C   0  0  0  0  0  0  0  0  0  0  0  0
  1  7  1  0  0  0  0
  1  6  1  0  0  0  0
  2  1  2  0  0  0  0
  3  2  1  0  0  0  0
  3  4  2  0  0  0  0
  4  5  1  0  0  0  0
  5  6  2  0  0  0  0
  5 20  1  0  0  0  0
  8  2  1  0  0  0  0
  9 10  1  0  0  0  0
  9  3  1  0  0  0  0
 10 17  1  0  0  0  0
 11 18  1  0  0  0  0
 11 10  2  0  0  0  0
 12 11  1  0  0  0  0
 13 12  2  0  0  0  0
 14 12  1  0  0  0  0
 14 15  1  0  0  0  0
 15  9  1  0  0  0  0
 16 15  2  0  0  0  0
 19 14  1  0  0  0  0
 20 21  1  0  0  0  0
 21 22  1  0  0  0  0
 21 23  2  0  0  0  0
 24 23  1  0  0  0  0
 25 24  2  0  0  0  0
 26 25  1  0  0  0  0
 27 26  2  0  0  0  0
 28 29  2  0  0  0  0
 28 27  1  0  0  0  0
 29 30  1  0  0  0  0
 30 20  2  0  0  0  0
 30 25  1  0  0  0  0
M  END
>  <minimizedAffinity>
-7.04609919

$$$$

 OpenBabel03242521153D

 30 33  0  0  0  0  0  0  0  0999 V2000
   36.2030   30.8760   41.0290 C   0  0  0  0  0  0  0  0  0  0  0  0
   37.2150   31.5600   40.2880 C   0  0  0  0  0  0  0  0  0  0  0  0
   38.2120   30.7600   39.7700 C   0  0  0  0  0  0  0  0  0  0  0  0
   38.1310   29.4380   40.0140 N   0  0  0  0  0  0  0  0  0  0  0  0
   37.1970   28.8030   40.6990 C   0  0  0  0  0  0  0  0  0  0  0  0
   36.2120   29.5420   41.2170 N   0  0  0  0  0  0  0  0  0  0  0  0
   35.3850   31.4310   41.4670 H   0  0  0  0  0  0  0  0  0  0  0  0
   37.1510   32.6130   40.1750 H   0  0  0  0  0  0  0  0  0  0  0  0
   39.2540   31.3750   39.0180 N   0  0  0  0  0  0  0  0  0  0  0  0
   40.4190   31.6250   39.6420 C   0  0  0  0  0  0  0  0  0  0  0  0
   41.4340   32.2480   38.9110 C   0  0  0  0  0  0  0  0  0  0  0  0
   41.1900   32.5670   37.6070 C   0  0  0  0  0  0  0  0  0  0  0  0
   42.1030   33.1380   36.9340 O   0  0  0  0  0  0  0  0  0  0  0  0
   40.0350   32.3230   36.9740 N   0  0  0  0  0  0  0  0  0  0  0  0
   39.0750   31.7180   37.7190 C   0  0  0  0  0  0  0  0  0  0  0  0
   37.9600   31.4420   37.2340 O   0  0  0  0  0  0  0  0  0  0  0  0
   40.5790   31.3540   40.6860 H   0  0  0  0  0  0  0  0  0  0  0  0
   42.3960   32.4770   39.3540 H   0  0  0  0  0  0  0  0  0  0  0  0
   39.8580   32.5700   35.9790 H   0  0  0  0  0  0  0  0  0  0  0  0
   37.4430   27.3670   40.7520 C   0  0  0  0  0  0  0  0  0  0  0  0
   36.9000   26.4940   39.8370 C   0  0  0  0  0  0  0  0  0  0  0  0
   36.2560   26.8560   39.0270 H   0  0  0  0  0  0  0  0  0  0  0  0
   37.1030   25.1320   39.8440 C   0  0  0  0  0  3  0  0  0  0  0  0
   37.8930   24.5580   40.8110 C   0  0  0  0  0  3  0  0  0  0  0  0
   38.4560   25.3890   41.7450 C   0  0  0  0  0  0  0  0  0  0  0  0
   39.2430   24.7900   42.7030 C   0  0  0  0  0  3  0  0  0  0  0  0
   39.8500   25.5360   43.6790 C   0  0  0  0  0  3  0  0  0  0  0  0
   39.6240   26.9170   43.6440 C   0  0  0  0  0  3  0  0  0  0  0  0
   38.8270   27.4570   42.6600 C   0  0  0  0  0  3  0  0  0  0  0  0
   38.2210   26.7280   41.6900 C   0  0  0  0  0  0  0  0  0  0  0  0
  1  6  1  0  0  0  0
  1  7  1  0  0  0  0
  2  1  2  0  0  0  0
  3  4  2  0  0  0  0
  3  2  1  0  0  0  0
  4  5  1  0  0  0  0
  5 20  1  0  0  0  0
  5  6  2  0  0  0  0
  8  2  1  0  0  0  0
  9 10  1  0  0  0  0
  9  3  1  0  0  0  0
 10 17  1  0  0  0  0
 11 18  1  0  0  0  0
 11 10  2  0  0  0  0
 12 11  1  0  0  0  0
 13 12  2  0  0  0  0
 14 12  1  0  0  0  0
 14 15  1  0  0  0  0
 15  9  1  0  0  0  0
 16 15  2  0  0  0  0
 19 14  1  0  0  0  0
 20 30  1  0  0  0  0
 21 23  1  0  0  0  0
 21 20  2  0  0  0  0
 22 21  1  0  0  0  0
 23 24  2  0  0  0  0
 24 25  1  0  0  0  0
 25 26  1  0  0  0  0
 26 27  2  0  0  0  0
 28 27  1  0  0  0  0
 29 28  2  0  0  0  0
 30 25  2  0  0  0  0
 30 29  1  0  0  0  0
M  END
>  <minimizedAffinity>
-6.88527775

$$$$

 OpenBabel03242521153D

 30 33  0  0  0  0  0  0  0  0999 V2000
   36.1870   30.1270   37.8840 C   0  0  0  0  0  0  0  0  0  0  0  0
   37.2980   30.9980   37.6640 C   0  0  0  0  0  0  0  0  0  0  0  0
   38.2590   30.9930   38.6520 C   0  0  0  0  0  0  0  0  0  0  0  0
   38.0550   30.1830   39.7080 N   0  0  0  0  0  0  0  0  0  0  0  0
   37.0300   29.3760   39.9150 C   0  0  0  0  0  0  0  0  0  0  0  0
   36.0750   29.3490   38.9800 N   0  0  0  0  0  0  0  0  0  0  0  0
   35.3900   30.0710   37.1560 H   0  0  0  0  0  0  0  0  0  0  0  0
   37.3280   31.5850   36.7790 H   0  0  0  0  0  0  0  0  0  0  0  0
   39.3960   31.8370   38.4970 N   0  0  0  0  0  0  0  0  0  0  0  0
   40.3820   31.4250   37.6810 C   0  0  0  0  0  0  0  0  0  0  0  0
   41.5080   32.2410   37.5450 C   0  0  0  0  0  0  0  0  0  0  0  0
   41.5450   33.4120   38.2460 C   0  0  0  0  0  0  0  0  0  0  0  0
   42.5650   34.1610   38.1330 O   0  0  0  0  0  0  0  0  0  0  0  0
   40.5710   33.8360   39.0610 N   0  0  0  0  0  0  0  0  0  0  0  0
   39.4950   33.0130   39.1650 C   0  0  0  0  0  0  0  0  0  0  0  0
   38.5280   33.3060   39.8950 O   0  0  0  0  0  0  0  0  0  0  0  0
   40.3160   30.4820   37.1360 H   0  0  0  0  0  0  0  0  0  0  0  0
   42.3360   31.9670   36.9040 H   0  0  0  0  0  0  0  0  0  0  0  0
   40.6080   34.7300   39.5900 H   0  0  0  0  0  0  0  0  0  0  0  0
   37.1540   28.6500   41.1730 C   0  0  0  0  0  0  0  0  0  0  0  0
   37.3840   29.2900   42.3710 C   0  0  0  0  0  0  0  0  0  0  0  0
   37.4830   30.3800   42.4170 H   0  0  0  0  0  0  0  0  0  0  0  0
   37.5080   28.6500   43.5840 C   0  0  0  0  0  3  0  0  0  0  0  0
   37.4020   27.2820   43.6550 C   0  0  0  0  0  3  0  0  0  0  0  0
   37.1730   26.6020   42.4870 C   0  0  0  0  0  0  0  0  0  0  0  0
   37.0720   25.2330   42.5860 C   0  0  0  0  0  3  0  0  0  0  0  0
   36.8420   24.4640   41.4740 C   0  0  0  0  0  3  0  0  0  0  0  0
   36.7210   25.1440   40.2570 C   0  0  0  0  0  3  0  0  0  0  0  0
   36.8320   26.5160   40.2230 C   0  0  0  0  0  3  0  0  0  0  0  0
   37.0590   27.2850   41.3160 C   0  0  0  0  0  0  0  0  0  0  0  0
  1  6  1  0  0  0  0
  2  1  2  0  0  0  0
  2  3  1  0  0  0  0
  3  4  2  0  0  0  0
  4  5  1  0  0  0  0
  5 20  1  0  0  0  0
  6  5  2  0  0  0  0
  7  1  1  0  0  0  0
  8  2  1  0  0  0  0
  9  3  1  0  0  0  0
  9 15  1  0  0  0  0
 10  9  1  0  0  0  0
 11 10  2  0  0  0  0
 11 12  1  0  0  0  0
 12 14  1  0  0  0  0
 13 12  2  0  0  0  0
 14 15  1  0  0  0  0
 14 19  1  0  0  0  0
 15 16  2  0  0  0  0
 17 10  1  0  0  0  0
 18 11  1  0  0  0  0
 20 30  2  0  0  0  0
 20 21  1  0  0  0  0
 21 22  1  0  0  0  0
 21 23  2  0  0  0  0
 23 24  1  0  0  0  0
 25 26  1  0  0  0  0
 25 24  2  0  0  0  0
 27 26  2  0  0  0  0
 28 27  1  0  0  0  0
 29 28  2  0  0  0  0
 29 30  1  0  0  0  0
 30 25  1  0  0  0  0
M  END
>  <minimizedAffinity>
-6.65210724

$$$$

 OpenBabel03242521153D

 30 33  0  0  0  0  0  0  0  0999 V2000
   37.2620   27.5820   43.5490 C   0  0  0  0  0  0  0  0  0  0  0  0
   37.5620   28.9260   43.1650 C   0  0  0  0  0  0  0  0  0  0  0  0
   37.5740   29.1640   41.8070 C   0  0  0  0  0  0  0  0  0  0  0  0
   37.3090   28.1230   40.9950 N   0  0  0  0  0  0  0  0  0  0  0  0
   37.0320   26.8800   41.3460 C   0  0  0  0  0  0  0  0  0  0  0  0
   37.0090   26.6070   42.6540 N   0  0  0  0  0  0  0  0  0  0  0  0
   37.2320   27.3130   44.5960 H   0  0  0  0  0  0  0  0  0  0  0  0
   37.7520   29.6490   43.9180 H   0  0  0  0  0  0  0  0  0  0  0  0
   37.8630   30.4820   41.3520 N   0  0  0  0  0  0  0  0  0  0  0  0
   39.1410   30.9010   41.4000 C   0  0  0  0  0  0  0  0  0  0  0  0
   39.4230   32.2010   40.9750 C   0  0  0  0  0  0  0  0  0  0  0  0
   38.3900   32.9760   40.5330 C   0  0  0  0  0  0  0  0  0  0  0  0
   38.6330   34.1610   40.1470 O   0  0  0  0  0  0  0  0  0  0  0  0
   37.1140   32.5710   40.4780 N   0  0  0  0  0  0  0  0  0  0  0  0
   36.8820   31.3020   40.9000 C   0  0  0  0  0  0  0  0  0  0  0  0
   35.7330   30.8190   40.8940 O   0  0  0  0  0  0  0  0  0  0  0  0
   39.9410   30.2530   41.7590 H   0  0  0  0  0  0  0  0  0  0  0  0
   40.4310   32.5990   40.9890 H   0  0  0  0  0  0  0  0  0  0  0  0
   36.3330   33.1690   40.1380 H   0  0  0  0  0  0  0  0  0  0  0  0
   36.7990   26.0260   40.1880 C   0  0  0  0  0  0  0  0  0  0  0  0
   36.1420   26.4740   39.0640 C   0  0  0  0  0  0  0  0  0  0  0  0
   35.7680   27.5030   39.0040 H   0  0  0  0  0  0  0  0  0  0  0  0
   35.8990   25.7080   37.9460 C   0  0  0  0  0  3  0  0  0  0  0  0
   36.3210   24.4010   37.9020 C   0  0  0  0  0  3  0  0  0  0  0  0
   36.9800   23.9100   39.0000 C   0  0  0  0  0  0  0  0  0  0  0  0
   37.3920   22.5980   38.9300 C   0  0  0  0  0  3  0  0  0  0  0  0
   38.0600   22.0160   39.9770 C   0  0  0  0  0  3  0  0  0  0  0  0
   38.2910   22.8220   41.0970 C   0  0  0  0  0  3  0  0  0  0  0  0
   37.8540   24.1270   41.1060 C   0  0  0  0  0  3  0  0  0  0  0  0
   37.1930   24.7130   40.0780 C   0  0  0  0  0  0  0  0  0  0  0  0
  1  7  1  0  0  0  0
  2  1  1  0  0  0  0
  2  8  1  0  0  0  0
  3  2  2  0  0  0  0
  4  5  2  0  0  0  0
  4  3  1  0  0  0  0
  5  6  1  0  0  0  0
  6  1  2  0  0  0  0
  9 10  1  0  0  0  0
  9  3  1  0  0  0  0
 10 17  1  0  0  0  0
 11 18  1  0  0  0  0
 11 10  2  0  0  0  0
 12 11  1  0  0  0  0
 13 12  2  0  0  0  0
 14 12  1  0  0  0  0
 14 15  1  0  0  0  0
 15  9  1  0  0  0  0
 16 15  2  0  0  0  0
 19 14  1  0  0  0  0
 20  5  1  0  0  0  0
 21 20  2  0  0  0  0
 22 21  1  0  0  0  0
 23 21  1  0  0  0  0
 24 23  2  0  0  0  0
 24 25  1  0  0  0  0
 25 30  1  0  0  0  0
 26 25  2  0  0  0  0
 26 27  1  0  0  0  0
 27 28  2  0  0  0  0
 28 29  1  0  0  0  0
 30 20  1  0  0  0  0
 30 29  2  0  0  0  0
M  END
>  <minimizedAffinity>
-6.43588066

$$$$

 OpenBabel03242521153D

 30 33  0  0  0  0  0  0  0  0999 V2000
   38.8350   34.1610   40.5990 C   0  0  0  0  0  0  0  0  0  0  0  0
   40.1050   33.9840   39.9680 C   0  0  0  0  0  0  0  0  0  0  0  0
   40.3400   32.7270   39.4520 C   0  0  0  0  0  0  0  0  0  0  0  0
   39.3640   31.8100   39.5950 N   0  0  0  0  0  0  0  0  0  0  0  0
   38.1900   31.9690   40.1770 C   0  0  0  0  0  0  0  0  0  0  0  0
   37.9220   33.1740   40.6900 N   0  0  0  0  0  0  0  0  0  0  0  0
   38.5730   35.1180   41.0290 H   0  0  0  0  0  0  0  0  0  0  0  0
   40.7810   34.8020   39.9280 H   0  0  0  0  0  0  0  0  0  0  0  0
   41.5850   32.4800   38.8070 N   0  0  0  0  0  0  0  0  0  0  0  0
   42.6960   32.4620   39.5650 C   0  0  0  0  0  0  0  0  0  0  0  0
   43.9210   32.2420   38.9300 C   0  0  0  0  0  0  0  0  0  0  0  0
   43.9250   32.0560   37.5780 C   0  0  0  0  0  0  0  0  0  0  0  0
   45.0330   31.8590   36.9890 O   0  0  0  0  0  0  0  0  0  0  0  0
   42.8270   32.0710   36.8110 N   0  0  0  0  0  0  0  0  0  0  0  0
   41.6580   32.2890   37.4670 C   0  0  0  0  0  0  0  0  0  0  0  0
   40.5720   32.3230   36.8550 O   0  0  0  0  0  0  0  0  0  0  0  0
   42.6540   32.6130   40.6440 H   0  0  0  0  0  0  0  0  0  0  0  0
   44.8530   32.2150   39.4840 H   0  0  0  0  0  0  0  0  0  0  0  0
   42.8390   31.9280   35.7810 H   0  0  0  0  0  0  0  0  0  0  0  0
   37.3940   30.7490   40.1400 C   0  0  0  0  0  0  0  0  0  0  0  0
   36.5800   30.4340   39.0750 C   0  0  0  0  0  0  0  0  0  0  0  0
   36.5040   31.1010   38.2080 H   0  0  0  0  0  0  0  0  0  0  0  0
   35.8110   29.2950   38.9930 C   0  0  0  0  0  3  0  0  0  0  0  0
   35.8220   28.3810   40.0190 C   0  0  0  0  0  3  0  0  0  0  0  0
   36.6180   28.6520   41.1020 C   0  0  0  0  0  0  0  0  0  0  0  0
   36.6110   27.7210   42.1150 C   0  0  0  0  0  3  0  0  0  0  0  0
   37.3740   27.9020   43.2400 C   0  0  0  0  0  3  0  0  0  0  0  0
   38.1450   29.0690   43.2920 C   0  0  0  0  0  3  0  0  0  0  0  0
   38.1090   29.9630   42.2450 C   0  0  0  0  0  3  0  0  0  0  0  0
   37.3580   29.7940   41.1300 C   0  0  0  0  0  0  0  0  0  0  0  0
  1  6  1  0  0  0  0
  1  7  1  0  0  0  0
  2  1  2  0  0  0  0
  3  4  2  0  0  0  0
  3  2  1  0  0  0  0
  4  5  1  0  0  0  0
  5  6  2  0  0  0  0
  8  2  1  0  0  0  0
  9  3  1  0  0  0  0
  9 10  1  0  0  0  0
 10 17  1  0  0  0  0
 11 18  1  0  0  0  0
 11 10  2  0  0  0  0
 12 11  1  0  0  0  0
 13 12  2  0  0  0  0
 14 15  1  0  0  0  0
 14 12  1  0  0  0  0
 15  9  1  0  0  0  0
 16 15  2  0  0  0  0
 19 14  1  0  0  0  0
 20  5  1  0  0  0  0
 20 30  1  0  0  0  0
 21 20  2  0  0  0  0
 22 21  1  0  0  0  0
 23 21  1  0  0  0  0
 23 24  2  0  0  0  0
 24 25  1  0  0  0  0
 25 30  2  0  0  0  0
 25 26  1  0  0  0  0
 26 27  2  0  0  0  0
 27 28  1  0  0  0  0
 29 28  2  0  0  0  0
 30 29  1  0  0  0  0
M  END
>  <minimizedAffinity>
-6.27687168

$$$$

 OpenBabel03242521153D

 30 33  0  0  0  0  0  0  0  0999 V2000
   36.2230   30.0410   37.6990 C   0  0  0  0  0  0  0  0  0  0  0  0
   37.5170   30.4310   37.2340 C   0  0  0  0  0  0  0  0  0  0  0  0
   38.5660   30.1130   38.0690 C   0  0  0  0  0  0  0  0  0  0  0  0
   38.2700   29.4790   39.2190 N   0  0  0  0  0  0  0  0  0  0  0  0
   37.0750   29.1160   39.6520 C   0  0  0  0  0  0  0  0  0  0  0  0
   36.0300   29.4050   38.8710 N   0  0  0  0  0  0  0  0  0  0  0  0
   35.3460   30.2530   37.1020 H   0  0  0  0  0  0  0  0  0  0  0  0
   37.6020   30.9280   36.3000 H   0  0  0  0  0  0  0  0  0  0  0  0
   39.8850   30.4710   37.6680 N   0  0  0  0  0  0  0  0  0  0  0  0
   40.2180   31.7740   37.6830 C   0  0  0  0  0  0  0  0  0  0  0  0
   41.5040   32.1290   37.2690 C   0  0  0  0  0  0  0  0  0  0  0  0
   42.3530   31.1360   36.8720 C   0  0  0  0  0  0  0  0  0  0  0  0
   43.5240   31.4460   36.4900 O   0  0  0  0  0  0  0  0  0  0  0  0
   42.0350   29.8340   36.8530 N   0  0  0  0  0  0  0  0  0  0  0  0
   40.7770   29.5330   37.2630 C   0  0  0  0  0  0  0  0  0  0  0  0
   40.3710   28.3540   37.2870 O   0  0  0  0  0  0  0  0  0  0  0  0
   39.5130   32.5400   38.0070 H   0  0  0  0  0  0  0  0  0  0  0  0
   41.8350   33.1600   37.2570 H   0  0  0  0  0  0  0  0  0  0  0  0
   42.6890   29.0850   36.5500 H   0  0  0  0  0  0  0  0  0  0  0  0
   37.1450   28.4490   40.9460 C   0  0  0  0  0  0  0  0  0  0  0  0
   37.3390   29.1400   42.1210 C   0  0  0  0  0  0  0  0  0  0  0  0
   37.4500   30.2310   42.1200 H   0  0  0  0  0  0  0  0  0  0  0  0
   37.4120   28.5570   43.3660 C   0  0  0  0  0  3  0  0  0  0  0  0
   37.2870   27.1940   43.4960 C   0  0  0  0  0  3  0  0  0  0  0  0
   37.0920   26.4630   42.3520 C   0  0  0  0  0  0  0  0  0  0  0  0
   36.9710   25.1010   42.5100 C   0  0  0  0  0  3  0  0  0  0  0  0
   36.7730   24.2840   41.4260 C   0  0  0  0  0  3  0  0  0  0  0  0
   36.7040   24.9080   40.1760 C   0  0  0  0  0  3  0  0  0  0  0  0
   36.8330   26.2760   40.0840 C   0  0  0  0  0  3  0  0  0  0  0  0
   37.0290   27.0930   41.1480 C   0  0  0  0  0  0  0  0  0  0  0  0
  1  6  1  0  0  0  0
  2  1  2  0  0  0  0
  2  3  1  0  0  0  0
  3  4  2  0  0  0  0
  4  5  1  0  0  0  0
  5 20  1  0  0  0  0
  6  5  2  0  0  0  0
  7  1  1  0  0  0  0
  8  2  1  0  0  0  0
  9 10  1  0  0  0  0
  9  3  1  0  0  0  0
 10 17  1  0  0  0  0
 11 10  2  0  0  0  0
 12 11  1  0  0  0  0
 13 12  2  0  0  0  0
 14 12  1  0  0  0  0
 14 15  1  0  0  0  0
 15 16  2  0  0  0  0
 15  9  1  0  0  0  0
 18 11  1  0  0  0  0
 19 14  1  0  0  0  0
 20 30  2  0  0  0  0
 20 21  1  0  0  0  0
 21 23  2  0  0  0  0
 22 21  1  0  0  0  0
 23 24  1  0  0  0  0
 25 26  1  0  0  0  0
 25 24  2  0  0  0  0
 27 26  2  0  0  0  0
 28 27  1  0  0  0  0
 29 28  2  0  0  0  0
 29 30  1  0  0  0  0
 30 25  1  0  0  0  0
M  END
>  <minimizedAffinity>
-6.27583218

$$$$

 OpenBabel03242521153D

 30 33  0  0  0  0  0  0  0  0999 V2000
   35.7810   24.5300   38.3800 C   0  0  0  0  0  0  0  0  0  0  0  0
   35.7680   25.4340   37.2730 C   0  0  0  0  0  0  0  0  0  0  0  0
   36.2230   26.7070   37.5430 C   0  0  0  0  0  0  0  0  0  0  0  0
   36.6250   26.9650   38.8020 N   0  0  0  0  0  0  0  0  0  0  0  0
   36.6390   26.1320   39.8280 C   0  0  0  0  0  0  0  0  0  0  0  0
   36.2060   24.8870   39.6080 N   0  0  0  0  0  0  0  0  0  0  0  0
   35.4410   23.5120   38.2510 H   0  0  0  0  0  0  0  0  0  0  0  0
   35.4220   25.0910   36.3300 H   0  0  0  0  0  0  0  0  0  0  0  0
   36.2390   27.6610   36.4850 N   0  0  0  0  0  0  0  0  0  0  0  0
   35.0970   28.3150   36.2070 C   0  0  0  0  0  0  0  0  0  0  0  0
   35.1060   29.2340   35.1550 C   0  0  0  0  0  0  0  0  0  0  0  0
   36.2710   29.4200   34.4680 C   0  0  0  0  0  0  0  0  0  0  0  0
   36.2910   30.2500   33.5070 O   0  0  0  0  0  0  0  0  0  0  0  0
   37.4150   28.7760   34.7350 N   0  0  0  0  0  0  0  0  0  0  0  0
   37.3640   27.8920   35.7640 C   0  0  0  0  0  0  0  0  0  0  0  0
   38.3690   27.2360   36.1020 O   0  0  0  0  0  0  0  0  0  0  0  0
   34.1850   28.1410   36.7790 H   0  0  0  0  0  0  0  0  0  0  0  0
   34.2200   29.7940   34.8800 H   0  0  0  0  0  0  0  0  0  0  0  0
   38.2980   28.9250   34.2060 H   0  0  0  0  0  0  0  0  0  0  0  0
   37.1420   26.7690   41.0390 C   0  0  0  0  0  0  0  0  0  0  0  0
   36.6010   27.9320   41.5370 C   0  0  0  0  0  0  0  0  0  0  0  0
   35.7620   28.4250   41.0320 H   0  0  0  0  0  0  0  0  0  0  0  0
   37.0400   28.5710   42.6750 C   0  0  0  0  0  3  0  0  0  0  0  0
   38.0870   28.0490   43.3970 C   0  0  0  0  0  3  0  0  0  0  0  0
   38.6580   26.8900   42.9390 C   0  0  0  0  0  0  0  0  0  0  0  0
   39.7040   26.3890   43.6790 C   0  0  0  0  0  3  0  0  0  0  0  0
   40.3400   25.2340   43.3030 C   0  0  0  0  0  3  0  0  0  0  0  0
   39.8700   24.6100   42.1420 C   0  0  0  0  0  3  0  0  0  0  0  0
   38.8190   25.1610   41.4440 C   0  0  0  0  0  3  0  0  0  0  0  0
   38.1830   26.3020   41.8070 C   0  0  0  0  0  0  0  0  0  0  0  0
  1  6  1  0  0  0  0
  2  3  1  0  0  0  0
  2  1  2  0  0  0  0
  3  4  2  0  0  0  0
  4  5  1  0  0  0  0
  5 20  1  0  0  0  0
  6  5  2  0  0  0  0
  7  1  1  0  0  0  0
  8  2  1  0  0  0  0
  9  3  1  0  0  0  0
 10  9  1  0  0  0  0
 10 17  1  0  0  0  0
 11 10  2  0  0  0  0
 12 14  1  0  0  0  0
 12 11  1  0  0  0  0
 13 12  2  0  0  0  0
 14 15  1  0  0  0  0
 15 16  2  0  0  0  0
 15  9  1  0  0  0  0
 18 11  1  0  0  0  0
 19 14  1  0  0  0  0
 20 21  2  0  0  0  0
 20 30  1  0  0  0  0
 21 23  1  0  0  0  0
 22 21  1  0  0  0  0
 23 24  2  0  0  0  0
 25 24  1  0  0  0  0
 25 26  1  0  0  0  0
 27 26  2  0  0  0  0
 28 27  1  0  0  0  0
 29 30  1  0  0  0  0
 29 28  2  0  0  0  0
 30 25  2  0  0  0  0
M  END
>  <minimizedAffinity>
-6.19448471

$$$$

 OpenBabel03242521153D

 30 33  0  0  0  0  0  0  0  0999 V2000
   36.7830   27.4880   43.3560 C   0  0  0  0  0  0  0  0  0  0  0  0
   38.0810   26.9840   43.6790 C   0  0  0  0  0  0  0  0  0  0  0  0
   39.0300   27.1130   42.6880 C   0  0  0  0  0  0  0  0  0  0  0  0
   38.6430   27.6900   41.5340 N   0  0  0  0  0  0  0  0  0  0  0  0
   37.4450   28.1580   41.2320 C   0  0  0  0  0  0  0  0  0  0  0  0
   36.4960   28.0530   42.1670 N   0  0  0  0  0  0  0  0  0  0  0  0
   35.9830   27.4260   44.0800 H   0  0  0  0  0  0  0  0  0  0  0  0
   38.2440   26.5500   44.6350 H   0  0  0  0  0  0  0  0  0  0  0  0
   40.3470   26.6320   42.9420 N   0  0  0  0  0  0  0  0  0  0  0  0
   41.2650   27.5110   43.3820 C   0  0  0  0  0  0  0  0  0  0  0  0
   42.5630   27.0460   43.6110 C   0  0  0  0  0  0  0  0  0  0  0  0
   42.8280   25.7280   43.3770 C   0  0  0  0  0  0  0  0  0  0  0  0
   44.0040   25.2930   43.5780 O   0  0  0  0  0  0  0  0  0  0  0  0
   41.9230   24.8420   42.9400 N   0  0  0  0  0  0  0  0  0  0  0  0
   40.6750   25.3340   42.7300 C   0  0  0  0  0  0  0  0  0  0  0  0
   39.7520   24.6010   42.3230 O   0  0  0  0  0  0  0  0  0  0  0  0
   41.0160   28.5580   43.5580 H   0  0  0  0  0  0  0  0  0  0  0  0
   43.3490   27.7020   43.9650 H   0  0  0  0  0  0  0  0  0  0  0  0
   42.1340   23.8380   42.7660 H   0  0  0  0  0  0  0  0  0  0  0  0
   37.4020   28.7140   39.8850 C   0  0  0  0  0  0  0  0  0  0  0  0
   37.3800   27.9190   38.7620 C   0  0  0  0  0  0  0  0  0  0  0  0
   37.3940   26.8260   38.8450 H   0  0  0  0  0  0  0  0  0  0  0  0
   37.3380   28.3960   37.4700 C   0  0  0  0  0  3  0  0  0  0  0  0
   37.3170   29.7500   37.2370 C   0  0  0  0  0  3  0  0  0  0  0  0
   37.3390   30.5820   38.3260 C   0  0  0  0  0  0  0  0  0  0  0  0
   37.3170   31.9330   38.0650 C   0  0  0  0  0  3  0  0  0  0  0  0
   37.3350   32.8460   39.0880 C   0  0  0  0  0  3  0  0  0  0  0  0
   37.3770   32.3290   40.3880 C   0  0  0  0  0  3  0  0  0  0  0  0
   37.3970   30.9670   40.5840 C   0  0  0  0  0  3  0  0  0  0  0  0
   37.3800   30.0560   39.5810 C   0  0  0  0  0  0  0  0  0  0  0  0
  1  2  1  0  0  0  0
  1  7  1  0  0  0  0
  2  8  1  0  0  0  0
  3  9  1  0  0  0  0
  3  2  2  0  0  0  0
  4  3  1  0  0  0  0
  5  4  2  0  0  0  0
  5  6  1  0  0  0  0
  6  1  2  0  0  0  0
  9 10  1  0  0  0  0
 10 17  1  0  0  0  0
 10 11  2  0  0  0  0
 11 18  1  0  0  0  0
 12 13  2  0  0  0  0
 12 11  1  0  0  0  0
 14 12  1  0  0  0  0
 15 14  1  0  0  0  0
 15  9  1  0  0  0  0
 16 15  2  0  0  0  0
 19 14  1  0  0  0  0
 20  5  1  0  0  0  0
 21 22  1  0  0  0  0
 21 20  2  0  0  0  0
 23 21  1  0  0  0  0
 24 23  2  0  0  0  0
 24 25  1  0  0  0  0
 25 30  1  0  0  0  0
 26 25  2  0  0  0  0
 26 27  1  0  0  0  0
 27 28  2  0  0  0  0
 28 29  1  0  0  0  0
 30 20  1  0  0  0  0
 30 29  2  0  0  0  0
M  END
>  <minimizedAffinity>
-6.16849232

$$$$

 OpenBabel03242521153D

 30 33  0  0  0  0  0  0  0  0999 V2000
   33.7550   26.6730   36.7470 C   0  0  0  0  0  0  0  0  0  0  0  0
   34.7300   27.1430   37.6800 C   0  0  0  0  0  0  0  0  0  0  0  0
   34.6860   28.4950   37.9510 C   0  0  0  0  0  0  0  0  0  0  0  0
   33.7450   29.2210   37.3190 N   0  0  0  0  0  0  0  0  0  0  0  0
   32.8420   28.7900   36.4560 C   0  0  0  0  0  0  0  0  0  0  0  0
   32.8500   27.4850   36.1660 N   0  0  0  0  0  0  0  0  0  0  0  0
   33.7220   25.6250   36.4810 H   0  0  0  0  0  0  0  0  0  0  0  0
   35.4160   26.4530   38.1040 H   0  0  0  0  0  0  0  0  0  0  0  0
   35.6280   29.0320   38.8740 N   0  0  0  0  0  0  0  0  0  0  0  0
   35.3640   28.9150   40.1880 C   0  0  0  0  0  0  0  0  0  0  0  0
   36.2760   29.4610   41.0930 C   0  0  0  0  0  0  0  0  0  0  0  0
   37.3860   30.0830   40.5980 C   0  0  0  0  0  0  0  0  0  0  0  0
   38.2210   30.5880   41.4110 O   0  0  0  0  0  0  0  0  0  0  0  0
   37.6620   30.2070   39.2930 N   0  0  0  0  0  0  0  0  0  0  0  0
   36.7510   29.6630   38.4470 C   0  0  0  0  0  0  0  0  0  0  0  0
   36.9040   29.7170   37.2110 O   0  0  0  0  0  0  0  0  0  0  0  0
   34.4660   28.4100   40.5470 H   0  0  0  0  0  0  0  0  0  0  0  0
   36.1220   29.4010   42.1640 H   0  0  0  0  0  0  0  0  0  0  0  0
   38.5110   30.6810   38.9250 H   0  0  0  0  0  0  0  0  0  0  0  0
   31.9880   29.8690   35.9770 C   0  0  0  0  0  0  0  0  0  0  0  0
   32.1570   30.4460   34.7390 C   0  0  0  0  0  0  0  0  0  0  0  0
   32.9520   30.1080   34.0640 H   0  0  0  0  0  0  0  0  0  0  0  0
   31.3780   31.4670   34.2420 C   0  0  0  0  0  3  0  0  0  0  0  0
   30.3480   31.9760   34.9960 C   0  0  0  0  0  3  0  0  0  0  0  0
   30.1400   31.4320   36.2370 C   0  0  0  0  0  0  0  0  0  0  0  0
   29.1030   31.9600   36.9710 C   0  0  0  0  0  3  0  0  0  0  0  0
   28.8160   31.4820   38.2240 C   0  0  0  0  0  3  0  0  0  0  0  0
   29.6270   30.4460   38.7000 C   0  0  0  0  0  3  0  0  0  0  0  0
   30.6500   29.9600   37.9170 C   0  0  0  0  0  3  0  0  0  0  0  0
   30.9430   30.4250   36.6780 C   0  0  0  0  0  0  0  0  0  0  0  0
  1  2  1  0  0  0  0
  2  3  2  0  0  0  0
  2  8  1  0  0  0  0
  3  9  1  0  0  0  0
  4  3  1  0  0  0  0
  5  4  2  0  0  0  0
  6  5  1  0  0  0  0
  6  1  2  0  0  0  0
  7  1  1  0  0  0  0
  9 10  1  0  0  0  0
 10 17  1  0  0  0  0
 10 11  2  0  0  0  0
 11 18  1  0  0  0  0
 12 11  1  0  0  0  0
 12 13  2  0  0  0  0
 14 12  1  0  0  0  0
 15  9  1  0  0  0  0
 15 14  1  0  0  0  0
 16 15  2  0  0  0  0
 19 14  1  0  0  0  0
 20  5  1  0  0  0  0
 20 30  1  0  0  0  0
 21 20  2  0  0  0  0
 22 21  1  0  0  0  0
 23 21  1  0  0  0  0
 23 24  2  0  0  0  0
 24 25  1  0  0  0  0
 25 30  2  0  0  0  0
 25 26  1  0  0  0  0
 26 27  2  0  0  0  0
 27 28  1  0  0  0  0
 29 28  2  0  0  0  0
 30 29  1  0  0  0  0
M  END
>  <minimizedAffinity>
-5.98605013

$$$$
