
 OpenBabel03252503133D

 36 40  0  0  0  0  0  0  0  0999 V2000
   46.5450   34.8540   41.8950 C   0  0  0  0  0  0  0  0  0  0  0  0
   47.7280   35.2990   41.8440 O   0  0  0  0  0  0  0  0  0  0  0  0
   45.2480   36.1740   43.5070 C   0  0  0  0  0  0  0  0  0  0  0  0
   45.8930   34.9710   43.1550 C   0  0  0  0  0  0  0  0  0  0  0  0
   45.8270   33.9730   44.1070 C   0  0  0  0  0  0  0  0  0  0  0  0
   45.1910   34.1370   45.2860 N   0  0  0  0  0  0  0  0  0  0  0  0
   44.5830   35.3110   45.5840 C   0  0  0  0  0  0  0  0  0  0  0  0
   44.6130   36.3250   44.6940 N   0  0  0  0  0  0  0  0  0  0  0  0
   45.2480   37.0200   42.8160 H   0  0  0  0  0  0  0  0  0  0  0  0
   44.0740   35.4410   46.5260 H   0  0  0  0  0  0  0  0  0  0  0  0
   46.4500   32.7430   43.8390 C   0  0  0  0  0  0  0  0  0  0  0  0
   47.7130   32.2520   43.9900 C   0  0  0  0  0  0  0  0  0  0  0  0
   48.0730   31.0250   43.6620 C   0  0  0  0  0  0  0  0  0  0  0  0
   47.0850   30.2370   43.1440 C   0  0  0  0  0  0  0  0  0  0  0  0
   45.6020   31.3400   43.1480 S   0  0  0  0  0  0  0  0  0  0  0  0
   48.4340   32.9780   44.4200 H   0  0  0  0  0  0  0  0  0  0  0  0
   49.0490   30.5740   43.7550 H   0  0  0  0  0  0  0  0  0  0  0  0
   47.0960   29.1820   42.7880 H   0  0  0  0  0  0  0  0  0  0  0  0
   45.8310   34.2370   40.7400 C   0  0  0  0  0  0  0  0  0  0  0  0
   44.4880   34.2740   40.4800 C   0  0  0  0  0  0  0  0  0  0  0  0
   44.3150   33.5850   39.3420 N   0  0  0  0  0  0  0  0  0  0  0  0
   45.5110   33.1280   38.9030 C   0  0  0  0  0  0  0  0  0  0  0  0
   46.4170   33.5410   39.7740 N   0  0  0  0  0  0  0  0  0  0  0  0
   43.8170   34.7890   41.1380 H   0  0  0  0  0  0  0  0  0  0  0  0
   43.3510   33.5040   38.9850 H   0  0  0  0  0  0  0  0  0  0  0  0
   45.5180   32.3540   37.6700 C   0  0  0  0  0  0  0  0  0  0  0  0
   45.5330   32.9480   36.4270 C   0  0  0  0  0  0  0  0  0  0  0  0
   45.5400   34.0210   36.3000 H   0  0  0  0  0  0  0  0  0  0  0  0
   45.5400   32.2620   35.2330 C   0  0  0  0  0  3  0  0  0  0  0  0
   45.5320   30.8910   35.2370 C   0  0  0  0  0  3  0  0  0  0  0  0
   45.5170   30.2410   36.4390 C   0  0  0  0  0  0  0  0  0  0  0  0
   45.5090   28.8620   36.4390 C   0  0  0  0  0  3  0  0  0  0  0  0
   45.4930   28.1510   37.6120 C   0  0  0  0  0  3  0  0  0  0  0  0
   45.4870   28.8620   38.8140 C   0  0  0  0  0  3  0  0  0  0  0  0
   45.4950   30.2380   38.7460 C   0  0  0  0  0  3  0  0  0  0  0  0
   45.5110   30.9810   37.5930 C   0  0  0  0  0  0  0  0  0  0  0  0
  1  4  1  0  0  0  0
  2  1  2  0  0  0  0
  3  8  1  0  0  0  0
  4  3  2  0  0  0  0
  4  5  1  0  0  0  0
  5  6  2  0  0  0  0
  6  7  1  0  0  0  0
  7 10  1  0  0  0  0
  8  7  2  0  0  0  0
  9  3  1  0  0  0  0
 11 12  2  0  0  0  0
 11  5  1  0  0  0  0
 12 16  1  0  0  0  0
 13 17  1  0  0  0  0
 13 12  1  0  0  0  0
 14 15  1  0  0  0  0
 14 13  2  0  0  0  0
 15 11  1  0  0  0  0
 18 14  1  0  0  0  0
 19  1  1  0  0  0  0
 20 19  2  0  0  0  0
 20 24  1  0  0  0  0
 21 20  1  0  0  0  0
 22 21  1  0  0  0  0
 22 23  2  0  0  0  0
 23 19  1  0  0  0  0
 25 21  1  0  0  0  0
 26 22  1  0  0  0  0
 27 26  2  0  0  0  0
 28 27  1  0  0  0  0
 29 30  2  0  0  0  0
 29 27  1  0  0  0  0
 30 31  1  0  0  0  0
 31 36  1  0  0  0  0
 32 31  2  0  0  0  0
 32 33  1  0  0  0  0
 33 34  2  0  0  0  0
 35 34  1  0  0  0  0
 36 26  1  0  0  0  0
 36 35  2  0  0  0  0
M  END
>  <minimizedAffinity>
-4.97691488

>  <minimizedRMSD>
0.154714912

$$$$
