
 OpenBabel03252509243D

 29 32  0  0  1  0  0  0  0  0999 V2000
   47.3710   34.5430   41.0660 C   0  0  1  0  0  0  0  0  0  0  0  0
   48.5330   35.4260   41.5970 C   0  0  0  0  0  0  0  0  0  0  0  0
   48.3890   33.8900   41.8090 C   0  0  2  0  0  0  0  0  0  0  0  0
   47.2780   34.5790   39.9640 H   0  0  0  0  0  0  0  0  0  0  0  0
   48.3980   36.0040   42.5050 H   0  0  0  0  0  0  0  0  0  0  0  0
   49.3070   35.7370   40.8510 H   0  0  0  0  0  0  0  0  0  0  0  0
   48.1320   33.5590   42.8580 H   0  0  0  0  0  0  0  0  0  0  0  0
   49.4400   33.0170   41.2340 C   0  0  0  0  0  0  0  0  0  0  0  0
   50.6070   32.8950   41.9620 C   0  0  0  0  0  0  0  0  0  0  0  0
   50.7370   33.4190   42.9090 H   0  0  0  0  0  0  0  0  0  0  0  0
   51.5880   32.0770   41.4230 C   0  0  0  0  0  3  0  0  0  0  0  0
   51.4240   31.4270   40.2440 C   0  0  0  0  0  3  0  0  0  0  0  0
   50.2490   31.5570   39.5240 C   0  0  0  0  0  0  0  0  0  0  0  0
   50.0430   30.9050   38.3120 C   0  0  0  0  0  3  0  0  0  0  0  0
   48.8360   31.0950   37.6620 C   0  0  0  0  0  3  0  0  0  0  0  0
   47.8300   31.8810   38.1300 C   0  0  0  0  0  3  0  0  0  0  0  0
   48.0440   32.5270   39.3420 C   0  0  0  0  0  3  0  0  0  0  0  0
   49.2390   32.3600   40.0190 C   0  0  0  0  0  0  0  0  0  0  0  0
   43.7220   34.9230   41.8990 C   0  0  0  0  0  0  0  0  0  0  0  0
   44.9010   34.6140   41.1540 C   0  0  0  0  0  0  0  0  0  0  0  0
   46.0850   34.9070   41.7750 C   0  0  0  0  0  0  0  0  0  0  0  0
   46.1150   35.4670   43.0420 N   0  0  0  0  0  0  0  0  0  0  0  0
   44.9870   35.7430   43.7080 C   0  0  0  0  0  0  0  0  0  0  0  0
   43.7870   35.4720   43.1410 N   0  0  0  0  0  0  0  0  0  0  0  0
   42.8030   34.6770   41.3760 H   0  0  0  0  0  0  0  0  0  0  0  0
   44.9910   36.1790   44.6950 H   0  0  0  0  0  0  0  0  0  0  0  0
   44.8420   34.0590   39.8430 N   0  0  0  0  0  0  0  0  0  0  0  0
   44.3170   33.1950   39.5160 H   0  0  0  0  0  0  0  0  0  0  0  0
   45.3920   34.5720   39.0940 H   0  0  0  0  0  0  0  0  0  0  0  0
  1  4  1  6  0  0  0
  1  2  1  0  0  0  0
  1 21  1  0  0  0  0
  1  3  1  0  0  0  0
  2  3  1  0  0  0  0
  2  5  1  0  0  0  0
  3  7  1  1  0  0  0
  6  2  1  0  0  0  0
  8  3  1  0  0  0  0
  8  9  1  0  0  0  0
  9 10  1  0  0  0  0
 11  9  2  0  0  0  0
 12 11  1  0  0  0  0
 13 18  1  0  0  0  0
 13 12  2  0  0  0  0
 14 13  1  0  0  0  0
 15 16  1  0  0  0  0
 15 14  2  0  0  0  0
 16 17  2  0  0  0  0
 17 18  1  0  0  0  0
 18  8  2  0  0  0  0
 19 24  1  0  0  0  0
 20 21  1  0  0  0  0
 20 19  2  0  0  0  0
 21 22  2  0  0  0  0
 22 23  1  0  0  0  0
 23 26  1  0  0  0  0
 24 23  2  0  0  0  0
 25 19  1  0  0  0  0
 27 20  1  0  0  0  0
 28 27  1  0  0  0  0
 29 27  1  0  0  0  0
M  END
>  <minimizedAffinity>
-5.07790136

>  <minimizedRMSD>
3.53250408

$$$$
