
 OpenBabel03252500303D

 30 33  0  0  1  0  0  0  0  0999 V2000
   36.7970   31.1220   38.7020 C   0  0  1  0  0  0  0  0  0  0  0  0
   36.8790   30.1940   37.6000 C   0  0  0  0  0  0  0  0  0  0  0  0
   36.8040   29.6190   38.9810 C   0  0  1  0  0  0  0  0  0  0  0  0
   35.8310   31.5850   39.0390 H   0  0  0  0  0  0  0  0  0  0  0  0
   36.0180   30.1030   36.9200 H   0  0  0  0  0  0  0  0  0  0  0  0
   37.8510   30.1330   37.0400 H   0  0  0  0  0  0  0  0  0  0  0  0
   35.8300   29.1080   39.1860 H   0  0  0  0  0  0  0  0  0  0  0  0
   37.9070   32.5640   40.4380 C   0  0  0  0  0  0  0  0  0  0  0  0
   37.9590   31.9160   39.1670 C   0  0  0  0  0  0  0  0  0  0  0  0
   39.0970   32.0550   38.3930 C   0  0  0  0  0  0  0  0  0  0  0  0
   40.1200   32.8140   38.8880 N   0  0  0  0  0  0  0  0  0  0  0  0
   40.0450   33.4240   40.1080 C   0  0  0  0  0  0  0  0  0  0  0  0
   38.9350   33.3040   40.8950 N   0  0  0  0  0  0  0  0  0  0  0  0
   37.0390   32.4820   41.0760 H   0  0  0  0  0  0  0  0  0  0  0  0
   39.1390   31.5660   37.4320 H   0  0  0  0  0  0  0  0  0  0  0  0
   40.9330   33.9920   40.3710 H   0  0  0  0  0  0  0  0  0  0  0  0
   37.9950   29.0070   39.6040 C   0  0  0  0  0  0  0  0  0  0  0  0
   38.7870   29.7680   39.7500 H   0  0  0  0  0  0  0  0  0  0  0  0
   38.4770   28.2180   38.9790 H   0  0  0  0  0  0  0  0  0  0  0  0
   37.6810   28.4490   40.9620 C   0  0  0  0  0  0  0  0  0  0  0  0
   37.6860   29.2620   42.0820 C   0  0  0  0  0  0  0  0  0  0  0  0
   37.9120   30.3150   42.0180 H   0  0  0  0  0  0  0  0  0  0  0  0
   37.3860   28.6610   43.3000 C   0  0  0  0  0  3  0  0  0  0  0  0
   37.0880   27.3120   43.4380 C   0  0  0  0  0  3  0  0  0  0  0  0
   37.0860   26.5230   42.3270 C   0  0  0  0  0  0  0  0  0  0  0  0
   36.7930   25.1730   42.4300 C   0  0  0  0  0  3  0  0  0  0  0  0
   36.7820   24.3520   41.3300 C   0  0  0  0  0  3  0  0  0  0  0  0
   37.0730   24.8960   40.0910 C   0  0  0  0  0  3  0  0  0  0  0  0
   37.3640   26.2460   40.0160 C   0  0  0  0  0  3  0  0  0  0  0  0
   37.3830   27.0970   41.0990 C   0  0  0  0  0  0  0  0  0  0  0  0
  1  3  1  0  0  0  0
  1  4  1  1  0  0  0
  1  9  1  0  0  0  0
  2  1  1  0  0  0  0
  2  3  1  0  0  0  0
  3  7  1  1  0  0  0
  3 17  1  0  0  0  0
  5  2  1  0  0  0  0
  6  2  1  0  0  0  0
  8 13  1  0  0  0  0
  8 14  1  0  0  0  0
  9  8  2  0  0  0  0
 10 11  2  0  0  0  0
 10  9  1  0  0  0  0
 11 12  1  0  0  0  0
 12 16  1  0  0  0  0
 12 13  2  0  0  0  0
 15 10  1  0  0  0  0
 17 18  1  0  0  0  0
 17 20  1  0  0  0  0
 19 17  1  0  0  0  0
 20 30  2  0  0  0  0
 20 21  1  0  0  0  0
 21 23  2  0  0  0  0
 22 21  1  0  0  0  0
 23 24  1  0  0  0  0
 25 26  1  0  0  0  0
 25 24  2  0  0  0  0
 27 26  2  0  0  0  0
 28 27  1  0  0  0  0
 29 28  2  0  0  0  0
 29 30  1  0  0  0  0
 30 25  1  0  0  0  0
M  END
>  <minimizedAffinity>
-5.76782036

$$$$

 OpenBabel03252500303D

 30 33  0  0  1  0  0  0  0  0999 V2000
   37.4050   30.9010   37.5540 C   0  0  1  0  0  0  0  0  0  0  0  0
   37.7420   29.5050   37.4090 C   0  0  0  0  0  0  0  0  0  0  0  0
   36.3400   29.8360   37.8180 C   0  0  1  0  0  0  0  0  0  0  0  0
   37.1110   31.5510   36.6870 H   0  0  0  0  0  0  0  0  0  0  0  0
   37.9400   29.1120   36.3990 H   0  0  0  0  0  0  0  0  0  0  0  0
   38.4360   29.0530   38.1670 H   0  0  0  0  0  0  0  0  0  0  0  0
   35.5900   29.6180   37.0180 H   0  0  0  0  0  0  0  0  0  0  0  0
   38.9810   31.2810   39.4760 C   0  0  0  0  0  0  0  0  0  0  0  0
   37.8640   31.7180   38.7010 C   0  0  0  0  0  0  0  0  0  0  0  0
   37.2290   32.8960   39.0510 C   0  0  0  0  0  0  0  0  0  0  0  0
   37.7070   33.5860   40.1300 N   0  0  0  0  0  0  0  0  0  0  0  0
   38.7780   33.1450   40.8550 C   0  0  0  0  0  0  0  0  0  0  0  0
   39.4250   31.9870   40.5330 N   0  0  0  0  0  0  0  0  0  0  0  0
   39.5070   30.3670   39.2390 H   0  0  0  0  0  0  0  0  0  0  0  0
   36.3850   33.2300   38.4680 H   0  0  0  0  0  0  0  0  0  0  0  0
   39.0460   33.7960   41.6840 H   0  0  0  0  0  0  0  0  0  0  0  0
   35.8890   29.5980   39.2050 C   0  0  0  0  0  0  0  0  0  0  0  0
   34.7860   29.6830   39.2710 H   0  0  0  0  0  0  0  0  0  0  0  0
   36.2730   30.3460   39.9400 H   0  0  0  0  0  0  0  0  0  0  0  0
   36.2400   28.2130   39.6670 C   0  0  0  0  0  0  0  0  0  0  0  0
   36.0250   27.1160   38.8520 C   0  0  0  0  0  0  0  0  0  0  0  0
   35.6020   27.2180   37.8640 H   0  0  0  0  0  0  0  0  0  0  0  0
   36.3760   25.8710   39.3610 C   0  0  0  0  0  3  0  0  0  0  0  0
   36.9220   25.6850   40.6240 C   0  0  0  0  0  3  0  0  0  0  0  0
   37.1290   26.7740   41.4170 C   0  0  0  0  0  0  0  0  0  0  0  0
   37.6720   26.6220   42.6830 C   0  0  0  0  0  3  0  0  0  0  0  0
   37.8940   27.6980   43.5050 C   0  0  0  0  0  3  0  0  0  0  0  0
   37.5620   28.9630   43.0500 C   0  0  0  0  0  3  0  0  0  0  0  0
   37.0210   29.0860   41.7840 C   0  0  0  0  0  3  0  0  0  0  0  0
   36.7860   28.0280   40.9340 C   0  0  0  0  0  0  0  0  0  0  0  0
  1  4  1  6  0  0  0
  1  3  1  0  0  0  0
  1  9  1  0  0  0  0
  2  1  1  0  0  0  0
  2  3  1  0  0  0  0
  2  6  1  0  0  0  0
  3  7  1  6  0  0  0
  3 17  1  0  0  0  0
  5  2  1  0  0  0  0
  8 13  1  0  0  0  0
  9 10  1  0  0  0  0
  9  8  2  0  0  0  0
 10 11  2  0  0  0  0
 11 12  1  0  0  0  0
 12 16  1  0  0  0  0
 13 12  2  0  0  0  0
 14  8  1  0  0  0  0
 15 10  1  0  0  0  0
 17 18  1  0  0  0  0
 17 20  1  0  0  0  0
 17 19  1  0  0  0  0
 20 30  1  0  0  0  0
 21 23  1  0  0  0  0
 21 20  2  0  0  0  0
 22 21  1  0  0  0  0
 23 24  2  0  0  0  0
 24 25  1  0  0  0  0
 25 26  1  0  0  0  0
 26 27  2  0  0  0  0
 28 27  1  0  0  0  0
 29 28  2  0  0  0  0
 30 25  2  0  0  0  0
 30 29  1  0  0  0  0
M  END
>  <minimizedAffinity>
-5.70800686

$$$$

 OpenBabel03252500303D

 30 33  0  0  1  0  0  0  0  0999 V2000
   36.9430   31.1730   38.9400 C   0  0  1  0  0  0  0  0  0  0  0  0
   37.1280   29.7420   38.9820 C   0  0  0  0  0  0  0  0  0  0  0  0
   36.2620   30.3560   40.0390 C   0  0  1  0  0  0  0  0  0  0  0  0
   36.1810   31.6710   38.2840 H   0  0  0  0  0  0  0  0  0  0  0  0
   36.6730   29.1280   38.1890 H   0  0  0  0  0  0  0  0  0  0  0  0
   38.1420   29.3540   39.2690 H   0  0  0  0  0  0  0  0  0  0  0  0
   35.1810   30.0950   39.9200 H   0  0  0  0  0  0  0  0  0  0  0  0
   39.3740   31.7860   39.1420 C   0  0  0  0  0  0  0  0  0  0  0  0
   38.0020   32.1270   39.3460 C   0  0  0  0  0  0  0  0  0  0  0  0
   37.6970   33.3430   39.9300 C   0  0  0  0  0  0  0  0  0  0  0  0
   38.7320   34.1610   40.2850 N   0  0  0  0  0  0  0  0  0  0  0  0
   40.0360   33.8110   40.0800 C   0  0  0  0  0  0  0  0  0  0  0  0
   40.3690   32.6170   39.5050 N   0  0  0  0  0  0  0  0  0  0  0  0
   39.6590   30.8470   38.6890 H   0  0  0  0  0  0  0  0  0  0  0  0
   36.6610   33.6040   40.0850 H   0  0  0  0  0  0  0  0  0  0  0  0
   40.7510   34.5590   40.4110 H   0  0  0  0  0  0  0  0  0  0  0  0
   36.7470   30.4730   41.4290 C   0  0  0  0  0  0  0  0  0  0  0  0
   35.9230   30.7850   42.1000 H   0  0  0  0  0  0  0  0  0  0  0  0
   37.5330   31.2540   41.5690 H   0  0  0  0  0  0  0  0  0  0  0  0
   37.2480   29.1570   41.9500 C   0  0  0  0  0  0  0  0  0  0  0  0
   36.3980   28.0720   42.0750 C   0  0  0  0  0  0  0  0  0  0  0  0
   35.3550   28.1350   41.8050 H   0  0  0  0  0  0  0  0  0  0  0  0
   36.9460   26.8930   42.5680 C   0  0  0  0  0  3  0  0  0  0  0  0
   38.2800   26.7590   42.9320 C   0  0  0  0  0  3  0  0  0  0  0  0
   39.1060   27.8350   42.8020 C   0  0  0  0  0  0  0  0  0  0  0  0
   40.4420   27.7350   43.1560 C   0  0  0  0  0  3  0  0  0  0  0  0
   41.3010   28.7990   43.0370 C   0  0  0  0  0  3  0  0  0  0  0  0
   40.8100   29.9990   42.5510 C   0  0  0  0  0  3  0  0  0  0  0  0
   39.4730   30.0720   42.2070 C   0  0  0  0  0  3  0  0  0  0  0  0
   38.5850   29.0240   42.3140 C   0  0  0  0  0  0  0  0  0  0  0  0
  1  4  1  6  0  0  0
  1  2  1  0  0  0  0
  1  9  1  0  0  0  0
  1  3  1  0  0  0  0
  2  6  1  0  0  0  0
  2  3  1  0  0  0  0
  3  7  1  6  0  0  0
  3 17  1  0  0  0  0
  5  2  1  0  0  0  0
  8  9  2  0  0  0  0
  8 13  1  0  0  0  0
  9 10  1  0  0  0  0
 10 15  1  0  0  0  0
 10 11  2  0  0  0  0
 12 11  1  0  0  0  0
 12 16  1  0  0  0  0
 13 12  2  0  0  0  0
 14  8  1  0  0  0  0
 17 19  1  0  0  0  0
 17 20  1  0  0  0  0
 17 18  1  0  0  0  0
 20 21  2  0  0  0  0
 20 30  1  0  0  0  0
 21 23  1  0  0  0  0
 22 21  1  0  0  0  0
 23 24  2  0  0  0  0
 25 24  1  0  0  0  0
 25 26  1  0  0  0  0
 27 26  2  0  0  0  0
 28 27  1  0  0  0  0
 29 30  1  0  0  0  0
 29 28  2  0  0  0  0
 30 25  2  0  0  0  0
M  END
>  <minimizedAffinity>
-5.70239496

$$$$

 OpenBabel03252500303D

 30 33  0  0  1  0  0  0  0  0999 V2000
   37.6560   28.4490   43.6300 C   0  0  1  0  0  0  0  0  0  0  0  0
   36.6280   27.4650   43.3940 C   0  0  0  0  0  0  0  0  0  0  0  0
   38.0510   27.0250   43.2380 C   0  0  1  0  0  0  0  0  0  0  0  0
   38.0370   28.6990   44.6560 H   0  0  0  0  0  0  0  0  0  0  0  0
   36.0340   27.1060   44.2480 H   0  0  0  0  0  0  0  0  0  0  0  0
   35.9930   27.5820   42.4740 H   0  0  0  0  0  0  0  0  0  0  0  0
   38.3790   26.3190   44.0410 H   0  0  0  0  0  0  0  0  0  0  0  0
   36.9500   29.9640   41.7520 C   0  0  0  0  0  0  0  0  0  0  0  0
   37.9560   29.5380   42.6710 C   0  0  0  0  0  0  0  0  0  0  0  0
   39.1950   30.1500   42.6340 C   0  0  0  0  0  0  0  0  0  0  0  0
   39.3950   31.1380   41.7110 N   0  0  0  0  0  0  0  0  0  0  0  0
   38.4150   31.5270   40.8430 C   0  0  0  0  0  0  0  0  0  0  0  0
   37.1810   30.9420   40.8550 N   0  0  0  0  0  0  0  0  0  0  0  0
   35.9670   29.5140   41.7450 H   0  0  0  0  0  0  0  0  0  0  0  0
   39.9580   29.8310   43.3280 H   0  0  0  0  0  0  0  0  0  0  0  0
   38.7160   32.3240   40.1670 H   0  0  0  0  0  0  0  0  0  0  0  0
   38.6170   26.7790   41.8960 C   0  0  0  0  0  0  0  0  0  0  0  0
   39.6910   26.5200   41.9710 H   0  0  0  0  0  0  0  0  0  0  0  0
   38.5890   27.6700   41.2230 H   0  0  0  0  0  0  0  0  0  0  0  0
   37.9440   25.6190   41.2200 C   0  0  0  0  0  0  0  0  0  0  0  0
   38.1230   24.3260   41.6800 C   0  0  0  0  0  0  0  0  0  0  0  0
   38.7470   24.1110   42.5350 H   0  0  0  0  0  0  0  0  0  0  0  0
   37.4650   23.3130   40.9930 C   0  0  0  0  0  3  0  0  0  0  0  0
   36.6520   23.5360   39.8890 C   0  0  0  0  0  3  0  0  0  0  0  0
   36.4840   24.8140   39.4460 C   0  0  0  0  0  0  0  0  0  0  0  0
   35.6790   25.0710   38.3480 C   0  0  0  0  0  3  0  0  0  0  0  0
   35.4880   26.3460   37.8770 C   0  0  0  0  0  3  0  0  0  0  0  0
   36.1200   27.3950   38.5230 C   0  0  0  0  0  3  0  0  0  0  0  0
   36.9180   27.1110   39.6150 C   0  0  0  0  0  3  0  0  0  0  0  0
   37.1300   25.8440   40.1130 C   0  0  0  0  0  0  0  0  0  0  0  0
  1  4  1  1  0  0  0
  2  1  1  0  0  0  0
  2  5  1  0  0  0  0
  3  2  1  0  0  0  0
  3  1  1  0  0  0  0
  3  7  1  1  0  0  0
  6  2  1  0  0  0  0
  8  9  1  0  0  0  0
  9  1  1  0  0  0  0
 10  9  2  0  0  0  0
 10 15  1  0  0  0  0
 11 10  1  0  0  0  0
 12 13  1  0  0  0  0
 12 11  2  0  0  0  0
 13  8  2  0  0  0  0
 14  8  1  0  0  0  0
 16 12  1  0  0  0  0
 17 18  1  0  0  0  0
 17  3  1  0  0  0  0
 19 17  1  0  0  0  0
 20 21  1  0  0  0  0
 20 17  1  0  0  0  0
 21 22  1  0  0  0  0
 23 21  2  0  0  0  0
 24 23  1  0  0  0  0
 25 24  2  0  0  0  0
 25 30  1  0  0  0  0
 26 25  1  0  0  0  0
 27 26  2  0  0  0  0
 27 28  1  0  0  0  0
 28 29  2  0  0  0  0
 29 30  1  0  0  0  0
 30 20  2  0  0  0  0
M  END
>  <minimizedAffinity>
-5.62057972

$$$$

 OpenBabel03252500303D

 30 33  0  0  1  0  0  0  0  0999 V2000
   38.1400   31.1290   38.6440 C   0  0  1  0  0  0  0  0  0  0  0  0
   37.0870   32.0730   38.9270 C   0  0  0  0  0  0  0  0  0  0  0  0
   37.3410   31.0010   39.9420 C   0  0  1  0  0  0  0  0  0  0  0  0
   39.2210   31.3370   38.8620 H   0  0  0  0  0  0  0  0  0  0  0  0
   37.3590   33.1160   39.1530 H   0  0  0  0  0  0  0  0  0  0  0  0
   36.1540   32.0200   38.3030 H   0  0  0  0  0  0  0  0  0  0  0  0
   37.7890   31.3950   40.8870 H   0  0  0  0  0  0  0  0  0  0  0  0
   38.8770   28.9280   37.6770 C   0  0  0  0  0  0  0  0  0  0  0  0
   37.9980   30.0520   37.6370 C   0  0  0  0  0  0  0  0  0  0  0  0
   37.0360   30.1110   36.6440 C   0  0  0  0  0  0  0  0  0  0  0  0
   36.9770   29.0830   35.7460 N   0  0  0  0  0  0  0  0  0  0  0  0
   37.8310   28.0190   35.8070 C   0  0  0  0  0  0  0  0  0  0  0  0
   38.7910   27.9320   36.7750 N   0  0  0  0  0  0  0  0  0  0  0  0
   39.6430   28.8400   38.4340 H   0  0  0  0  0  0  0  0  0  0  0  0
   36.3690   30.9580   36.6110 H   0  0  0  0  0  0  0  0  0  0  0  0
   37.6680   27.2770   35.0290 H   0  0  0  0  0  0  0  0  0  0  0  0
   36.3950   29.8770   40.0970 C   0  0  0  0  0  0  0  0  0  0  0  0
   36.3720   29.2620   39.1760 H   0  0  0  0  0  0  0  0  0  0  0  0
   35.3350   30.1960   40.2460 H   0  0  0  0  0  0  0  0  0  0  0  0
   36.8060   28.9610   41.2130 C   0  0  0  0  0  0  0  0  0  0  0  0
   37.1750   29.4670   42.4470 C   0  0  0  0  0  0  0  0  0  0  0  0
   37.1780   30.5280   42.6470 H   0  0  0  0  0  0  0  0  0  0  0  0
   37.5450   28.5480   43.4230 C   0  0  0  0  0  3  0  0  0  0  0  0
   37.5590   27.1750   43.2170 C   0  0  0  0  0  3  0  0  0  0  0  0
   37.1940   26.6900   41.9970 C   0  0  0  0  0  0  0  0  0  0  0  0
   37.1970   25.3250   41.7600 C   0  0  0  0  0  3  0  0  0  0  0  0
   36.8340   24.8040   40.5430 C   0  0  0  0  0  3  0  0  0  0  0  0
   36.4560   25.6740   39.5330 C   0  0  0  0  0  3  0  0  0  0  0  0
   36.4630   27.0310   39.7970 C   0  0  0  0  0  3  0  0  0  0  0  0
   36.8210   27.5850   41.0060 C   0  0  0  0  0  0  0  0  0  0  0  0
  1  4  1  1  0  0  0
  1  2  1  0  0  0  0
  1  3  1  0  0  0  0
  2  5  1  0  0  0  0
  2  3  1  0  0  0  0
  3 17  1  0  0  0  0
  3  7  1  1  0  0  0
  6  2  1  0  0  0  0
  8 14  1  0  0  0  0
  9  8  1  0  0  0  0
  9  1  1  0  0  0  0
 10  9  2  0  0  0  0
 11 12  2  0  0  0  0
 11 10  1  0  0  0  0
 12 13  1  0  0  0  0
 13  8  2  0  0  0  0
 15 10  1  0  0  0  0
 16 12  1  0  0  0  0
 17 19  1  0  0  0  0
 17 20  1  0  0  0  0
 18 17  1  0  0  0  0
 20 21  1  0  0  0  0
 21 22  1  0  0  0  0
 21 23  2  0  0  0  0
 24 23  1  0  0  0  0
 25 24  2  0  0  0  0
 26 25  1  0  0  0  0
 27 26  2  0  0  0  0
 28 29  2  0  0  0  0
 28 27  1  0  0  0  0
 29 30  1  0  0  0  0
 30 20  2  0  0  0  0
 30 25  1  0  0  0  0
M  END
>  <minimizedAffinity>
-5.37923765

$$$$

 OpenBabel03252500303D

 30 33  0  0  1  0  0  0  0  0999 V2000
   35.9790   30.3390   40.5880 C   0  0  1  0  0  0  0  0  0  0  0  0
   35.0270   29.2890   40.3170 C   0  0  0  0  0  0  0  0  0  0  0  0
   36.2150   28.9420   41.1610 C   0  0  1  0  0  0  0  0  0  0  0  0
   35.8420   31.0900   41.4110 H   0  0  0  0  0  0  0  0  0  0  0  0
   34.0280   29.3500   40.7760 H   0  0  0  0  0  0  0  0  0  0  0  0
   34.9720   28.8900   39.2690 H   0  0  0  0  0  0  0  0  0  0  0  0
   35.9480   28.7490   42.2300 H   0  0  0  0  0  0  0  0  0  0  0  0
   36.6890   30.5650   38.1860 C   0  0  0  0  0  0  0  0  0  0  0  0
   36.9310   30.8370   39.5670 C   0  0  0  0  0  0  0  0  0  0  0  0
   38.0610   31.5530   39.9180 C   0  0  0  0  0  0  0  0  0  0  0  0
   38.8950   31.9660   38.9170 N   0  0  0  0  0  0  0  0  0  0  0  0
   38.6400   31.6930   37.6040 C   0  0  0  0  0  0  0  0  0  0  0  0
   37.5330   30.9890   37.2260 N   0  0  0  0  0  0  0  0  0  0  0  0
   35.8190   30.0100   37.8650 H   0  0  0  0  0  0  0  0  0  0  0  0
   38.2460   31.7600   40.9610 H   0  0  0  0  0  0  0  0  0  0  0  0
   39.3890   32.0840   36.9190 H   0  0  0  0  0  0  0  0  0  0  0  0
   37.3080   28.1130   40.6120 C   0  0  0  0  0  0  0  0  0  0  0  0
   38.2590   28.3350   41.1330 H   0  0  0  0  0  0  0  0  0  0  0  0
   37.5260   28.3100   39.5340 H   0  0  0  0  0  0  0  0  0  0  0  0
   37.0410   26.6490   40.8110 C   0  0  0  0  0  0  0  0  0  0  0  0
   37.2680   26.0460   42.0360 C   0  0  0  0  0  0  0  0  0  0  0  0
   37.6400   26.6030   42.8820 H   0  0  0  0  0  0  0  0  0  0  0  0
   36.9970   24.6850   42.1310 C   0  0  0  0  0  3  0  0  0  0  0  0
   36.5190   23.9230   41.0740 C   0  0  0  0  0  3  0  0  0  0  0  0
   36.2990   24.5290   39.8730 C   0  0  0  0  0  0  0  0  0  0  0  0
   35.8210   23.7960   38.7990 C   0  0  0  0  0  3  0  0  0  0  0  0
   35.5890   24.3770   37.5770 C   0  0  0  0  0  3  0  0  0  0  0  0
   35.8410   25.7300   37.4250 C   0  0  0  0  0  3  0  0  0  0  0  0
   36.3180   26.4370   38.5120 C   0  0  0  0  0  3  0  0  0  0  0  0
   36.5620   25.8850   39.7510 C   0  0  0  0  0  0  0  0  0  0  0  0
  1  3  1  0  0  0  0
  1  4  1  1  0  0  0
  2  1  1  0  0  0  0
  2  5  1  0  0  0  0
  2  3  1  0  0  0  0
  3  7  1  1  0  0  0
  6  2  1  0  0  0  0
  8  9  1  0  0  0  0
  9 10  2  0  0  0  0
  9  1  1  0  0  0  0
 10 15  1  0  0  0  0
 11 10  1  0  0  0  0
 12 11  2  0  0  0  0
 13 12  1  0  0  0  0
 13  8  2  0  0  0  0
 14  8  1  0  0  0  0
 16 12  1  0  0  0  0
 17 20  1  0  0  0  0
 17 18  1  0  0  0  0
 17  3  1  0  0  0  0
 19 17  1  0  0  0  0
 20 21  1  0  0  0  0
 21 23  2  0  0  0  0
 21 22  1  0  0  0  0
 24 23  1  0  0  0  0
 25 24  2  0  0  0  0
 26 25  1  0  0  0  0
 27 26  2  0  0  0  0
 28 27  1  0  0  0  0
 28 29  2  0  0  0  0
 29 30  1  0  0  0  0
 30 25  1  0  0  0  0
 30 20  2  0  0  0  0
M  END
>  <minimizedAffinity>
-5.35219049

$$$$

 OpenBabel03252500303D

 30 33  0  0  1  0  0  0  0  0999 V2000
   37.1680   26.7730   42.4920 C   0  0  1  0  0  0  0  0  0  0  0  0
   36.5770   27.3460   43.6770 C   0  0  0  0  0  0  0  0  0  0  0  0
   36.9310   28.2820   42.5620 C   0  0  1  0  0  0  0  0  0  0  0  0
   36.5590   26.3120   41.6690 H   0  0  0  0  0  0  0  0  0  0  0  0
   35.5200   27.1310   43.8980 H   0  0  0  0  0  0  0  0  0  0  0  0
   37.1960   27.3610   44.6150 H   0  0  0  0  0  0  0  0  0  0  0  0
   36.0320   28.7070   42.0500 H   0  0  0  0  0  0  0  0  0  0  0  0
   39.3010   26.1460   43.6660 C   0  0  0  0  0  0  0  0  0  0  0  0
   38.5700   26.2950   42.4490 C   0  0  0  0  0  0  0  0  0  0  0  0
   39.1970   25.9970   41.2530 C   0  0  0  0  0  0  0  0  0  0  0  0
   40.4960   25.5740   41.2980 N   0  0  0  0  0  0  0  0  0  0  0  0
   41.1730   25.4400   42.4770 C   0  0  0  0  0  0  0  0  0  0  0  0
   40.5800   25.7260   43.6740 N   0  0  0  0  0  0  0  0  0  0  0  0
   38.8510   26.3670   44.6240 H   0  0  0  0  0  0  0  0  0  0  0  0
   38.6470   26.1080   40.3310 H   0  0  0  0  0  0  0  0  0  0  0  0
   42.1970   25.0940   42.3600 H   0  0  0  0  0  0  0  0  0  0  0  0
   38.0910   29.1880   42.6840 C   0  0  0  0  0  0  0  0  0  0  0  0
   39.0270   28.6510   42.4330 H   0  0  0  0  0  0  0  0  0  0  0  0
   38.2580   29.5720   43.7200 H   0  0  0  0  0  0  0  0  0  0  0  0
   37.9890   30.3430   41.7300 C   0  0  0  0  0  0  0  0  0  0  0  0
   36.7940   30.6410   41.1000 C   0  0  0  0  0  0  0  0  0  0  0  0
   35.9020   30.0590   41.2730 H   0  0  0  0  0  0  0  0  0  0  0  0
   36.7900   31.7260   40.2310 C   0  0  0  0  0  3  0  0  0  0  0  0
   37.9100   32.5060   39.9730 C   0  0  0  0  0  3  0  0  0  0  0  0
   39.0810   32.2030   40.6010 C   0  0  0  0  0  0  0  0  0  0  0  0
   40.2150   32.9620   40.3660 C   0  0  0  0  0  3  0  0  0  0  0  0
   41.4100   32.6830   40.9820 C   0  0  0  0  0  3  0  0  0  0  0  0
   41.4720   31.6120   41.8590 C   0  0  0  0  0  3  0  0  0  0  0  0
   40.3250   30.8710   42.0740 C   0  0  0  0  0  3  0  0  0  0  0  0
   39.1120   31.1240   41.4730 C   0  0  0  0  0  0  0  0  0  0  0  0
  1  4  1  6  0  0  0
  1  3  1  0  0  0  0
  1  2  1  0  0  0  0
  2  5  1  0  0  0  0
  2  6  1  0  0  0  0
  3  7  1  6  0  0  0
  3 17  1  0  0  0  0
  3  2  1  0  0  0  0
  8 13  1  0  0  0  0
  8 14  1  0  0  0  0
  9  1  1  0  0  0  0
  9  8  2  0  0  0  0
 10 11  2  0  0  0  0
 10  9  1  0  0  0  0
 11 12  1  0  0  0  0
 12 13  2  0  0  0  0
 15 10  1  0  0  0  0
 16 12  1  0  0  0  0
 17 19  1  0  0  0  0
 18 17  1  0  0  0  0
 20 17  1  0  0  0  0
 21 22  1  0  0  0  0
 21 20  2  0  0  0  0
 23 21  1  0  0  0  0
 24 23  2  0  0  0  0
 24 25  1  0  0  0  0
 25 30  1  0  0  0  0
 26 25  2  0  0  0  0
 26 27  1  0  0  0  0
 27 28  2  0  0  0  0
 28 29  1  0  0  0  0
 30 20  1  0  0  0  0
 30 29  2  0  0  0  0
M  END
>  <minimizedAffinity>
-5.30352688

$$$$

 OpenBabel03252500303D

 30 33  0  0  1  0  0  0  0  0999 V2000
   38.9650   26.6640   43.6200 C   0  0  1  0  0  0  0  0  0  0  0  0
   40.3270   27.1380   43.6790 C   0  0  0  0  0  0  0  0  0  0  0  0
   39.3030   28.0560   43.0860 C   0  0  1  0  0  0  0  0  0  0  0  0
   38.2570   26.7310   44.4880 H   0  0  0  0  0  0  0  0  0  0  0  0
   40.7640   27.3670   44.6640 H   0  0  0  0  0  0  0  0  0  0  0  0
   41.0800   26.6540   43.0010 H   0  0  0  0  0  0  0  0  0  0  0  0
   39.0890   28.9440   43.7320 H   0  0  0  0  0  0  0  0  0  0  0  0
   39.4880   24.8520   41.9560 C   0  0  0  0  0  0  0  0  0  0  0  0
   38.5180   25.6410   42.6450 C   0  0  0  0  0  0  0  0  0  0  0  0
   37.1770   25.4350   42.3760 C   0  0  0  0  0  0  0  0  0  0  0  0
   36.8470   24.4800   41.4550 N   0  0  0  0  0  0  0  0  0  0  0  0
   37.7960   23.7390   40.8090 C   0  0  0  0  0  0  0  0  0  0  0  0
   39.1270   23.9190   41.0550 N   0  0  0  0  0  0  0  0  0  0  0  0
   40.5460   24.9780   42.1350 H   0  0  0  0  0  0  0  0  0  0  0  0
   36.4410   26.0290   42.8950 H   0  0  0  0  0  0  0  0  0  0  0  0
   37.3870   23.0180   40.1060 H   0  0  0  0  0  0  0  0  0  0  0  0
   39.2680   28.2970   41.6290 C   0  0  0  0  0  0  0  0  0  0  0  0
   39.1100   27.3460   41.0850 H   0  0  0  0  0  0  0  0  0  0  0  0
   40.2230   28.7020   41.2150 H   0  0  0  0  0  0  0  0  0  0  0  0
   38.1320   29.2030   41.2490 C   0  0  0  0  0  0  0  0  0  0  0  0
   36.8380   28.7210   41.1620 C   0  0  0  0  0  0  0  0  0  0  0  0
   36.6030   27.6870   41.3640 H   0  0  0  0  0  0  0  0  0  0  0  0
   35.8480   29.6280   40.8000 C   0  0  0  0  0  3  0  0  0  0  0  0
   36.0960   30.9670   40.5290 C   0  0  0  0  0  3  0  0  0  0  0  0
   37.3750   31.4290   40.6190 C   0  0  0  0  0  0  0  0  0  0  0  0
   37.6560   32.7590   40.3550 C   0  0  0  0  0  3  0  0  0  0  0  0
   38.9330   33.2560   40.4380 C   0  0  0  0  0  3  0  0  0  0  0  0
   39.9600   32.3970   40.7930 C   0  0  0  0  0  3  0  0  0  0  0  0
   39.6520   31.0740   41.0500 C   0  0  0  0  0  3  0  0  0  0  0  0
   38.3820   30.5440   40.9770 C   0  0  0  0  0  0  0  0  0  0  0  0
  1  2  1  0  0  0  0
  1  4  1  1  0  0  0
  2  5  1  0  0  0  0
  3  1  1  0  0  0  0
  3  2  1  0  0  0  0
  3  7  1  1  0  0  0
  6  2  1  0  0  0  0
  8 14  1  0  0  0  0
  8  9  1  0  0  0  0
  9  1  1  0  0  0  0
 10  9  2  0  0  0  0
 10 15  1  0  0  0  0
 11 10  1  0  0  0  0
 12 13  1  0  0  0  0
 12 11  2  0  0  0  0
 13  8  2  0  0  0  0
 16 12  1  0  0  0  0
 17  3  1  0  0  0  0
 18 17  1  0  0  0  0
 19 17  1  0  0  0  0
 20 17  1  0  0  0  0
 21 20  1  0  0  0  0
 21 22  1  0  0  0  0
 23 21  2  0  0  0  0
 24 25  2  0  0  0  0
 24 23  1  0  0  0  0
 25 30  1  0  0  0  0
 26 27  2  0  0  0  0
 26 25  1  0  0  0  0
 27 28  1  0  0  0  0
 28 29  2  0  0  0  0
 30 29  1  0  0  0  0
 30 20  2  0  0  0  0
M  END
>  <minimizedAffinity>
-5.23032141

$$$$

 OpenBabel03252500303D

 30 33  0  0  1  0  0  0  0  0999 V2000
   38.1140   24.9360   41.2190 C   0  0  1  0  0  0  0  0  0  0  0  0
   37.1030   24.4700   42.1380 C   0  0  0  0  0  0  0  0  0  0  0  0
   36.9990   25.8850   41.6590 C   0  0  1  0  0  0  0  0  0  0  0  0
   38.0660   24.7500   40.1140 H   0  0  0  0  0  0  0  0  0  0  0  0
   36.3780   23.7180   41.7890 H   0  0  0  0  0  0  0  0  0  0  0  0
   37.4100   24.2780   43.2010 H   0  0  0  0  0  0  0  0  0  0  0  0
   36.1330   26.0480   40.9710 H   0  0  0  0  0  0  0  0  0  0  0  0
   40.3340   26.0420   40.8030 C   0  0  0  0  0  0  0  0  0  0  0  0
   39.4980   25.2500   41.6470 C   0  0  0  0  0  0  0  0  0  0  0  0
   40.0080   24.7870   42.8460 C   0  0  0  0  0  0  0  0  0  0  0  0
   41.2980   25.1120   43.1620 N   0  0  0  0  0  0  0  0  0  0  0  0
   42.0770   25.8710   42.3360 C   0  0  0  0  0  0  0  0  0  0  0  0
   41.6000   26.3430   41.1460 N   0  0  0  0  0  0  0  0  0  0  0  0
   39.9760   26.4260   39.8570 H   0  0  0  0  0  0  0  0  0  0  0  0
   39.3790   24.1890   43.4870 H   0  0  0  0  0  0  0  0  0  0  0  0
   43.0790   26.0500   42.7170 H   0  0  0  0  0  0  0  0  0  0  0  0
   37.3240   27.0080   42.5630 C   0  0  0  0  0  0  0  0  0  0  0  0
   38.3910   26.9700   42.8560 H   0  0  0  0  0  0  0  0  0  0  0  0
   36.7650   26.9850   43.5300 H   0  0  0  0  0  0  0  0  0  0  0  0
   37.1110   28.3340   41.8910 C   0  0  0  0  0  0  0  0  0  0  0  0
   35.9260   28.6150   41.2340 C   0  0  0  0  0  0  0  0  0  0  0  0
   35.1210   27.8980   41.1840 H   0  0  0  0  0  0  0  0  0  0  0  0
   35.8150   29.8660   40.6370 C   0  0  0  0  0  3  0  0  0  0  0  0
   36.8200   30.8240   40.6720 C   0  0  0  0  0  3  0  0  0  0  0  0
   37.9820   30.5340   41.3230 C   0  0  0  0  0  0  0  0  0  0  0  0
   39.0030   31.4690   41.3760 C   0  0  0  0  0  3  0  0  0  0  0  0
   40.1850   31.2080   42.0230 C   0  0  0  0  0  3  0  0  0  0  0  0
   40.3510   29.9770   42.6360 C   0  0  0  0  0  3  0  0  0  0  0  0
   39.3160   29.0630   42.5670 C   0  0  0  0  0  3  0  0  0  0  0  0
   38.1190   29.2930   41.9260 C   0  0  0  0  0  0  0  0  0  0  0  0
  1  4  1  6  0  0  0
  1  9  1  0  0  0  0
  1  3  1  0  0  0  0
  1  2  1  0  0  0  0
  2  6  1  0  0  0  0
  3  7  1  6  0  0  0
  3  2  1  0  0  0  0
  3 17  1  0  0  0  0
  5  2  1  0  0  0  0
  8 13  2  0  0  0  0
  8  9  1  0  0  0  0
  9 10  2  0  0  0  0
 10 11  1  0  0  0  0
 10 15  1  0  0  0  0
 12 16  1  0  0  0  0
 12 11  2  0  0  0  0
 13 12  1  0  0  0  0
 14  8  1  0  0  0  0
 17 18  1  0  0  0  0
 17 19  1  0  0  0  0
 20 30  1  0  0  0  0
 20 17  1  0  0  0  0
 21 20  2  0  0  0  0
 22 21  1  0  0  0  0
 23 24  2  0  0  0  0
 23 21  1  0  0  0  0
 24 25  1  0  0  0  0
 25 26  2  0  0  0  0
 25 30  1  0  0  0  0
 26 27  1  0  0  0  0
 27 28  2  0  0  0  0
 29 28  1  0  0  0  0
 30 29  2  0  0  0  0
M  END
>  <minimizedAffinity>
-5.22688532

$$$$
