
 OpenBabel03242515233D

 23 25  0  0  0  0  0  0  0  0999 V2000
   43.3550   35.5410   40.9020 C   0  0  0  0  0  0  0  0  0  0  0  0
   43.8440   35.8950   39.9500 H   0  0  0  0  0  0  0  0  0  0  0  0
   42.8600   36.3980   41.3330 H   0  0  0  0  0  0  0  0  0  0  0  0
   42.4190   34.4340   40.6860 C   0  0  0  0  0  0  0  0  0  0  0  0
   42.3880   33.3180   41.4980 C   0  0  0  0  0  0  0  0  0  0  0  0
   43.0720   33.2520   42.3560 H   0  0  0  0  0  0  0  0  0  0  0  0
   41.5300   32.2380   41.3020 C   0  0  0  0  0  3  0  0  0  0  0  0
   40.6390   32.2780   40.2220 C   0  0  0  0  0  3  0  0  0  0  0  0
   40.6240   33.3700   39.3800 C   0  0  0  0  0  0  0  0  0  0  0  0
   39.7310   33.4140   38.3130 C   0  0  0  0  0  3  0  0  0  0  0  0
   39.7570   34.5280   37.5170 C   0  0  0  0  0  3  0  0  0  0  0  0
   40.6040   35.6120   37.6950 C   0  0  0  0  0  3  0  0  0  0  0  0
   41.4780   35.5140   38.7800 C   0  0  0  0  0  3  0  0  0  0  0  0
   41.5120   34.4090   39.6390 C   0  0  0  0  0  0  0  0  0  0  0  0
   44.3940   35.4110   43.0930 C   0  0  0  0  0  0  0  0  0  0  0  0
   44.5000   35.0580   41.7300 C   0  0  0  0  0  0  0  0  0  0  0  0
   45.6010   34.3360   41.3230 C   0  0  0  0  0  0  0  0  0  0  0  0
   46.5090   34.0150   42.2610 N   0  0  0  0  0  0  0  0  0  0  0  0
   46.4100   34.3500   43.5550 C   0  0  0  0  0  0  0  0  0  0  0  0
   45.3360   35.0630   43.9980 N   0  0  0  0  0  0  0  0  0  0  0  0
   43.5460   35.9840   43.4870 H   0  0  0  0  0  0  0  0  0  0  0  0
   45.6230   34.0960   40.2780 H   0  0  0  0  0  0  0  0  0  0  0  0
   47.1530   34.0810   44.2910 H   0  0  0  0  0  0  0  0  0  0  0  0
  1  3  1  0  0  0  0
  1 16  1  0  0  0  0
  2  1  1  0  0  0  0
  4  1  1  0  0  0  0
  4  5  1  0  0  0  0
  5  6  1  0  0  0  0
  7  5  2  0  0  0  0
  8  7  1  0  0  0  0
  9 14  1  0  0  0  0
  9  8  2  0  0  0  0
 10  9  1  0  0  0  0
 11 12  1  0  0  0  0
 11 10  2  0  0  0  0
 12 13  2  0  0  0  0
 13 14  1  0  0  0  0
 14  4  2  0  0  0  0
 15 21  1  0  0  0  0
 15 20  1  0  0  0  0
 16 15  2  0  0  0  0
 17 16  1  0  0  0  0
 17 18  2  0  0  0  0
 18 19  1  0  0  0  0
 19 20  2  0  0  0  0
 19 23  1  0  0  0  0
 22 17  1  0  0  0  0
M  END
>  <minimizedAffinity>
-4.89558077

>  <minimizedRMSD>
1.96724534

$$$$
