
 OpenBabel03242520103D

 31 34  0  0  0  0  0  0  0  0999 V2000
   46.1580   32.5850   47.0870 C   0  0  0  0  0  0  0  0  0  0  0  0
   45.1550   32.4550   47.9790 C   0  0  0  0  0  0  0  0  0  0  0  0
   45.3290   31.6910   49.0990 C   0  0  0  0  0  0  0  0  0  0  0  0
   46.5480   31.0600   49.2960 C   0  0  0  0  0  0  0  0  0  0  0  0
   47.5740   31.1880   48.3950 C   0  0  0  0  0  0  0  0  0  0  0  0
   47.3050   31.9400   47.3550 N   0  0  0  0  0  0  0  0  0  0  0  0
   44.2180   32.9580   47.8000 H   0  0  0  0  0  0  0  0  0  0  0  0
   44.5180   31.5910   49.8120 H   0  0  0  0  0  0  0  0  0  0  0  0
   46.5890   30.4490   50.1590 H   0  0  0  0  0  0  0  0  0  0  0  0
   44.9800   34.9740   44.5720 C   0  0  0  0  0  0  0  0  0  0  0  0
   45.9360   34.8080   43.5510 C   0  0  0  0  0  0  0  0  0  0  0  0
   46.9690   33.8820   43.7400 C   0  0  0  0  0  0  0  0  0  0  0  0
   46.9740   33.2030   44.9060 N   0  0  0  0  0  0  0  0  0  0  0  0
   46.0510   33.3790   45.8640 C   0  0  0  0  0  0  0  0  0  0  0  0
   45.0660   34.2550   45.6960 N   0  0  0  0  0  0  0  0  0  0  0  0
   43.9310   35.9130   44.3800 N   0  0  0  0  0  0  0  0  0  0  0  0
   45.8900   35.3760   42.6310 H   0  0  0  0  0  0  0  0  0  0  0  0
   47.7290   33.7170   42.9870 H   0  0  0  0  0  0  0  0  0  0  0  0
   43.5820   36.5380   45.1660 H   0  0  0  0  0  0  0  0  0  0  0  0
   43.4720   36.0090   43.4320 H   0  0  0  0  0  0  0  0  0  0  0  0
   48.8710   30.5510   48.4000 C   0  0  0  0  0  0  0  0  0  0  0  0
   49.0060   29.3700   47.6550 C   0  0  0  0  0  0  0  0  0  0  0  0
   48.1360   28.9710   47.1120 H   0  0  0  0  0  0  0  0  0  0  0  0
   50.1490   28.6430   47.5320 C   0  0  0  0  0  0  0  0  0  0  0  0
   51.2880   29.0580   48.1690 C   0  0  0  0  0  0  0  0  0  0  0  0
   51.2300   30.2120   48.9180 C   0  0  0  0  0  0  0  0  0  0  0  0
   52.3610   30.6810   49.5430 C   0  0  0  0  0  0  0  0  0  0  0  0
   52.3830   31.8590   50.2830 C   0  0  0  0  0  0  0  0  0  0  0  0
   51.1710   32.5520   50.3550 C   0  0  0  0  0  0  0  0  0  0  0  0
   50.0600   32.0550   49.7190 C   0  0  0  0  0  0  0  0  0  0  0  0
   50.0470   30.8930   48.9970 C   0  0  0  0  0  0  0  0  0  0  0  0
  1  6  2  0  0  0  0
  1  2  1  0  0  0  0
  2  3  2  0  0  0  0
  3  4  1  0  0  0  0
  3  8  1  0  0  0  0
  4  9  1  0  0  0  0
  5 21  1  0  0  0  0
  5  4  2  0  0  0  0
  6  5  1  0  0  0  0
  7  2  1  0  0  0  0
 10 15  1  0  0  0  0
 11 12  1  0  0  0  0
 11 10  2  0  0  0  0
 12 13  2  0  0  0  0
 13 14  1  0  0  0  0
 14  1  1  0  0  0  0
 15 14  2  0  0  0  0
 16 10  1  0  0  0  0
 16 19  1  0  0  0  0
 17 11  1  0  0  0  0
 18 12  1  0  0  0  0
 20 16  1  0  0  0  0
 21 31  1  0  0  0  0
 22 21  2  0  0  0  0
 23 22  1  0  0  0  0
 24 22  1  0  0  0  0
 24 25  2  0  0  0  0
 25 26  1  0  0  0  0
 26 31  2  0  0  0  0
 26 27  1  0  0  0  0
 27 28  2  0  0  0  0
 28 29  1  0  0  0  0
 30 29  2  0  0  0  0
 31 30  1  0  0  0  0
M  END
>  <minimizedAffinity>
-6.96788883

>  <minimizedRMSD>
0.405867755

$$$$
