
 OpenBabel03242515413D

 38 42  0  0  0  0  0  0  0  0999 V2000
   35.2680   28.1610   36.6830 C   0  0  0  0  0  0  0  0  0  0  0  0
   35.3320   27.3410   37.7900 C   0  0  0  0  0  0  0  0  0  0  0  0
   36.4090   27.4950   38.6680 C   0  0  0  0  0  0  0  0  0  0  0  0
   37.3240   28.4620   38.3560 N   0  0  0  0  0  0  0  0  0  0  0  0
   37.2360   29.2390   37.2800 C   0  0  0  0  0  0  0  0  0  0  0  0
   36.2090   29.0610   36.4780 N   0  0  0  0  0  0  0  0  0  0  0  0
   34.5380   26.6470   37.9680 H   0  0  0  0  0  0  0  0  0  0  0  0
   36.6550   26.8250   39.8990 C   0  0  0  0  0  0  0  0  0  0  0  0
   36.5870   25.4210   39.8980 C   0  0  0  0  0  0  0  0  0  0  0  0
   36.3620   24.8900   38.9680 H   0  0  0  0  0  0  0  0  0  0  0  0
   36.7800   24.6020   40.9830 C   0  0  0  0  0  3  0  0  0  0  0  0
   37.0660   25.1670   42.2010 C   0  0  0  0  0  3  0  0  0  0  0  0
   37.1480   26.5340   42.2840 C   0  0  0  0  0  0  0  0  0  0  0  0
   37.3980   27.1070   43.5070 C   0  0  0  0  0  3  0  0  0  0  0  0
   37.4560   28.4950   43.6720 C   0  0  0  0  0  3  0  0  0  0  0  0
   37.2420   29.2450   42.5230 C   0  0  0  0  0  3  0  0  0  0  0  0
   36.9940   28.6290   41.3200 C   0  0  0  0  0  3  0  0  0  0  0  0
   36.9420   27.2830   41.1570 C   0  0  0  0  0  0  0  0  0  0  0  0
   33.8540   27.9130   35.5810 S   0  0  0  0  0  0  0  0  0  0  0  0
   32.3390   29.9880   34.7630 C   0  0  0  0  0  0  0  0  0  0  0  0
   32.6280   29.1790   35.8480 C   0  0  0  0  0  0  0  0  0  0  0  0
   31.9790   29.3770   37.0470 C   0  0  0  0  0  0  0  0  0  0  0  0
   31.0320   30.3740   37.2110 C   0  0  0  0  0  0  0  0  0  0  0  0
   30.7510   31.1910   36.0920 C   0  0  0  0  0  0  0  0  0  0  0  0
   31.3930   31.0030   34.8850 C   0  0  0  0  0  0  0  0  0  0  0  0
   29.7700   32.1180   36.5020 O   0  0  0  0  0  0  0  0  0  0  0  0
   29.7490   32.0730   37.9150 C   0  0  0  0  0  0  0  0  0  0  0  0
   30.2380   30.7950   38.2780 O   0  0  0  0  0  0  0  0  0  0  0  0
   32.7930   29.9140   33.7780 H   0  0  0  0  0  0  0  0  0  0  0  0
   32.2210   28.7340   37.8740 H   0  0  0  0  0  0  0  0  0  0  0  0
   31.1480   31.6530   34.0510 H   0  0  0  0  0  0  0  0  0  0  0  0
   28.6920   32.2330   38.2230 H   0  0  0  0  0  0  0  0  0  0  0  0
   30.4340   32.8600   38.3100 H   0  0  0  0  0  0  0  0  0  0  0  0
   38.1420   30.2170   36.9450 O   0  0  0  0  0  0  0  0  0  0  0  0
   37.9190   31.5360   37.3440 C   0  0  0  0  0  0  0  0  0  0  0  0
   36.9520   31.6720   38.2860 F   0  0  0  0  0  0  0  0  0  0  0  0
   39.1770   32.0060   37.7660 F   0  0  0  0  0  0  0  0  0  0  0  0
   37.5170   32.2390   36.2060 F   0  0  0  0  0  0  0  0  0  0  0  0
  1  2  1  0  0  0  0
  2  7  1  0  0  0  0
  2  3  2  0  0  0  0
  3  8  1  0  0  0  0
  4  3  1  0  0  0  0
  5  4  2  0  0  0  0
  6  1  2  0  0  0  0
  6  5  1  0  0  0  0
  8 18  1  0  0  0  0
  9  8  2  0  0  0  0
  9 11  1  0  0  0  0
 10  9  1  0  0  0  0
 11 12  2  0  0  0  0
 12 13  1  0  0  0  0
 13 14  1  0  0  0  0
 14 15  2  0  0  0  0
 16 15  1  0  0  0  0
 17 16  2  0  0  0  0
 18 17  1  0  0  0  0
 18 13  2  0  0  0  0
 19 21  1  0  0  0  0
 19  1  1  0  0  0  0
 20 25  2  0  0  0  0
 20 21  1  0  0  0  0
 21 22  2  0  0  0  0
 22 23  1  0  0  0  0
 22 30  1  0  0  0  0
 23 28  1  0  0  0  0
 24 26  1  0  0  0  0
 24 23  2  0  0  0  0
 25 24  1  0  0  0  0
 26 27  1  0  0  0  0
 27 32  1  0  0  0  0
 27 28  1  0  0  0  0
 27 33  1  0  0  0  0
 29 20  1  0  0  0  0
 31 25  1  0  0  0  0
 34  5  1  0  0  0  0
 34 35  1  0  0  0  0
 35 37  1  0  0  0  0
 35 36  1  0  0  0  0
 38 35  1  0  0  0  0
M  END
>  <minimizedAffinity>
-7.09401608

$$$$

 OpenBabel03242515413D

 38 42  0  0  0  0  0  0  0  0999 V2000
   35.1270   28.9390   37.4480 C   0  0  0  0  0  0  0  0  0  0  0  0
   35.3020   27.9920   38.4370 C   0  0  0  0  0  0  0  0  0  0  0  0
   36.2260   28.2560   39.4510 C   0  0  0  0  0  0  0  0  0  0  0  0
   36.8910   29.4490   39.3830 N   0  0  0  0  0  0  0  0  0  0  0  0
   36.7020   30.3440   38.4180 C   0  0  0  0  0  0  0  0  0  0  0  0
   35.8240   30.0570   37.4800 N   0  0  0  0  0  0  0  0  0  0  0  0
   34.6970   27.1110   38.4230 H   0  0  0  0  0  0  0  0  0  0  0  0
   36.5280   27.4770   40.6030 C   0  0  0  0  0  0  0  0  0  0  0  0
   36.4360   28.1100   41.8550 C   0  0  0  0  0  0  0  0  0  0  0  0
   36.1310   29.1590   41.9110 H   0  0  0  0  0  0  0  0  0  0  0  0
   36.6990   27.5330   43.0730 C   0  0  0  0  0  3  0  0  0  0  0  0
   37.0920   26.2180   43.1160 C   0  0  0  0  0  3  0  0  0  0  0  0
   37.2070   25.5320   41.9340 C   0  0  0  0  0  0  0  0  0  0  0  0
   37.6340   24.2280   41.9670 C   0  0  0  0  0  3  0  0  0  0  0  0
   37.8120   23.4800   40.7980 C   0  0  0  0  0  3  0  0  0  0  0  0
   37.5300   24.1460   39.6130 C   0  0  0  0  0  3  0  0  0  0  0  0
   37.1050   25.4530   39.6260 C   0  0  0  0  0  3  0  0  0  0  0  0
   36.9280   26.1780   40.7590 C   0  0  0  0  0  0  0  0  0  0  0  0
   33.9210   28.5400   36.1600 S   0  0  0  0  0  0  0  0  0  0  0  0
   31.9960   30.2260   35.3070 C   0  0  0  0  0  0  0  0  0  0  0  0
   32.4260   29.4850   36.3940 C   0  0  0  0  0  0  0  0  0  0  0  0
   31.7090   29.5060   37.5700 C   0  0  0  0  0  0  0  0  0  0  0  0
   30.5530   30.2550   37.7080 C   0  0  0  0  0  0  0  0  0  0  0  0
   30.1280   31.0060   36.5880 C   0  0  0  0  0  0  0  0  0  0  0  0
   30.8380   30.9930   35.4040 C   0  0  0  0  0  0  0  0  0  0  0  0
   28.9470   31.6740   36.9700 O   0  0  0  0  0  0  0  0  0  0  0  0
   28.8890   31.5990   38.3820 C   0  0  0  0  0  0  0  0  0  0  0  0
   29.6480   30.4620   38.7490 O   0  0  0  0  0  0  0  0  0  0  0  0
   32.4880   30.2760   34.3390 H   0  0  0  0  0  0  0  0  0  0  0  0
   32.0650   28.9220   38.3990 H   0  0  0  0  0  0  0  0  0  0  0  0
   30.4770   31.5840   34.5670 H   0  0  0  0  0  0  0  0  0  0  0  0
   27.8140   31.5070   38.6510 H   0  0  0  0  0  0  0  0  0  0  0  0
   29.3600   32.5160   38.8090 H   0  0  0  0  0  0  0  0  0  0  0  0
   37.3560   31.5490   38.3280 O   0  0  0  0  0  0  0  0  0  0  0  0
   37.3600   32.4200   39.4190 C   0  0  0  0  0  0  0  0  0  0  0  0
   36.5550   32.0310   40.4390 F   0  0  0  0  0  0  0  0  0  0  0  0
   38.7130   32.5310   39.7910 F   0  0  0  0  0  0  0  0  0  0  0  0
   36.9020   33.6540   38.9520 F   0  0  0  0  0  0  0  0  0  0  0  0
  1  6  2  0  0  0  0
  1  2  1  0  0  0  0
  2  3  2  0  0  0  0
  3  8  1  0  0  0  0
  4  3  1  0  0  0  0
  5  4  2  0  0  0  0
  6  5  1  0  0  0  0
  7  2  1  0  0  0  0
  8 18  2  0  0  0  0
  8  9  1  0  0  0  0
  9 10  1  0  0  0  0
  9 11  2  0  0  0  0
 11 12  1  0  0  0  0
 13 14  1  0  0  0  0
 13 12  2  0  0  0  0
 15 14  2  0  0  0  0
 16 17  2  0  0  0  0
 16 15  1  0  0  0  0
 17 18  1  0  0  0  0
 18 13  1  0  0  0  0
 19 21  1  0  0  0  0
 19  1  1  0  0  0  0
 20 25  2  0  0  0  0
 20 21  1  0  0  0  0
 21 22  2  0  0  0  0
 22 23  1  0  0  0  0
 22 30  1  0  0  0  0
 23 28  1  0  0  0  0
 24 26  1  0  0  0  0
 24 23  2  0  0  0  0
 25 24  1  0  0  0  0
 26 27  1  0  0  0  0
 27 32  1  0  0  0  0
 27 28  1  0  0  0  0
 27 33  1  0  0  0  0
 29 20  1  0  0  0  0
 31 25  1  0  0  0  0
 34  5  1  0  0  0  0
 34 35  1  0  0  0  0
 35 37  1  0  0  0  0
 35 36  1  0  0  0  0
 38 35  1  0  0  0  0
M  END
>  <minimizedAffinity>
-7.0521307

$$$$

 OpenBabel03242515413D

 38 42  0  0  0  0  0  0  0  0999 V2000
   34.3960   29.0840   36.2250 C   0  0  0  0  0  0  0  0  0  0  0  0
   35.2250   29.1890   37.3230 C   0  0  0  0  0  0  0  0  0  0  0  0
   36.5520   29.5740   37.1200 C   0  0  0  0  0  0  0  0  0  0  0  0
   36.9290   29.8230   35.8290 N   0  0  0  0  0  0  0  0  0  0  0  0
   36.1080   29.7160   34.7870 C   0  0  0  0  0  0  0  0  0  0  0  0
   34.8670   29.3480   35.0220 N   0  0  0  0  0  0  0  0  0  0  0  0
   34.8170   29.0170   38.2970 H   0  0  0  0  0  0  0  0  0  0  0  0
   37.5660   29.8170   38.0880 C   0  0  0  0  0  0  0  0  0  0  0  0
   38.4330   28.7540   38.3990 C   0  0  0  0  0  0  0  0  0  0  0  0
   38.3140   27.7920   37.8920 H   0  0  0  0  0  0  0  0  0  0  0  0
   39.4590   28.7890   39.3110 C   0  0  0  0  0  3  0  0  0  0  0  0
   39.6930   29.9510   40.0050 C   0  0  0  0  0  3  0  0  0  0  0  0
   38.8880   31.0340   39.7580 C   0  0  0  0  0  0  0  0  0  0  0  0
   39.0940   32.1860   40.4740 C   0  0  0  0  0  3  0  0  0  0  0  0
   38.2870   33.3150   40.3030 C   0  0  0  0  0  3  0  0  0  0  0  0
   37.2700   33.1880   39.3650 C   0  0  0  0  0  3  0  0  0  0  0  0
   37.0990   32.0140   38.6710 C   0  0  0  0  0  3  0  0  0  0  0  0
   37.8840   30.9200   38.8330 C   0  0  0  0  0  0  0  0  0  0  0  0
   32.6900   28.5770   36.5500 S   0  0  0  0  0  0  0  0  0  0  0  0
   30.8390   30.4380   37.1690 C   0  0  0  0  0  0  0  0  0  0  0  0
   31.5600   29.8890   36.1240 C   0  0  0  0  0  0  0  0  0  0  0  0
   31.3830   30.3610   34.8410 C   0  0  0  0  0  0  0  0  0  0  0  0
   30.4930   31.3820   34.5540 C   0  0  0  0  0  0  0  0  0  0  0  0
   29.7640   31.9310   35.6340 C   0  0  0  0  0  0  0  0  0  0  0  0
   29.9340   31.4670   36.9230 C   0  0  0  0  0  0  0  0  0  0  0  0
   28.9370   32.9380   35.0970 O   0  0  0  0  0  0  0  0  0  0  0  0
   28.9200   32.7320   33.6980 C   0  0  0  0  0  0  0  0  0  0  0  0
   30.1170   32.0430   33.3850 O   0  0  0  0  0  0  0  0  0  0  0  0
   30.9060   30.1380   38.2120 H   0  0  0  0  0  0  0  0  0  0  0  0
   31.9560   29.9180   34.0470 H   0  0  0  0  0  0  0  0  0  0  0  0
   29.3540   31.9160   37.7250 H   0  0  0  0  0  0  0  0  0  0  0  0
   28.8670   33.7390   33.2290 H   0  0  0  0  0  0  0  0  0  0  0  0
   28.0430   32.0920   33.4400 H   0  0  0  0  0  0  0  0  0  0  0  0
   36.4630   29.9600   33.4830 O   0  0  0  0  0  0  0  0  0  0  0  0
   36.3250   31.2460   32.9550 C   0  0  0  0  0  0  0  0  0  0  0  0
   36.3870   31.2960   31.6010 F   0  0  0  0  0  0  0  0  0  0  0  0
   35.1070   31.7230   33.4740 F   0  0  0  0  0  0  0  0  0  0  0  0
   37.3790   32.0070   33.4650 F   0  0  0  0  0  0  0  0  0  0  0  0
  1 19  1  0  0  0  0
  1  2  1  0  0  0  0
  2  7  1  0  0  0  0
  3  2  2  0  0  0  0
  3  8  1  0  0  0  0
  4  3  1  0  0  0  0
  5  6  1  0  0  0  0
  5  4  2  0  0  0  0
  6  1  2  0  0  0  0
  8  9  2  0  0  0  0
  8 18  1  0  0  0  0
  9 11  1  0  0  0  0
 10  9  1  0  0  0  0
 11 12  2  0  0  0  0
 13 12  1  0  0  0  0
 13 14  1  0  0  0  0
 15 14  2  0  0  0  0
 16 15  1  0  0  0  0
 17 18  1  0  0  0  0
 17 16  2  0  0  0  0
 18 13  2  0  0  0  0
 20 29  1  0  0  0  0
 21 19  1  0  0  0  0
 21 20  2  0  0  0  0
 22 21  1  0  0  0  0
 23 22  2  0  0  0  0
 23 24  1  0  0  0  0
 24 25  2  0  0  0  0
 25 20  1  0  0  0  0
 25 31  1  0  0  0  0
 26 24  1  0  0  0  0
 27 26  1  0  0  0  0
 28 27  1  0  0  0  0
 28 23  1  0  0  0  0
 30 22  1  0  0  0  0
 32 27  1  0  0  0  0
 33 27  1  0  0  0  0
 34  5  1  0  0  0  0
 35 38  1  0  0  0  0
 35 37  1  0  0  0  0
 35 34  1  0  0  0  0
 36 35  1  0  0  0  0
M  END
>  <minimizedAffinity>
-6.88533878

$$$$

 OpenBabel03242515413D

 38 42  0  0  0  0  0  0  0  0999 V2000
   34.9530   28.2460   36.8470 C   0  0  0  0  0  0  0  0  0  0  0  0
   35.0590   27.5700   38.0440 C   0  0  0  0  0  0  0  0  0  0  0  0
   36.1720   27.8190   38.8520 C   0  0  0  0  0  0  0  0  0  0  0  0
   37.0790   28.7300   38.3840 N   0  0  0  0  0  0  0  0  0  0  0  0
   36.9520   29.3680   37.2240 C   0  0  0  0  0  0  0  0  0  0  0  0
   35.8910   29.1030   36.4930 N   0  0  0  0  0  0  0  0  0  0  0  0
   34.2690   26.9120   38.3390 H   0  0  0  0  0  0  0  0  0  0  0  0
   36.4650   27.3060   40.1460 C   0  0  0  0  0  0  0  0  0  0  0  0
   36.3660   28.1920   41.2320 C   0  0  0  0  0  0  0  0  0  0  0  0
   36.0630   29.2290   41.0600 H   0  0  0  0  0  0  0  0  0  0  0  0
   36.6200   27.8890   42.5480 C   0  0  0  0  0  3  0  0  0  0  0  0
   37.0100   26.6140   42.8730 C   0  0  0  0  0  3  0  0  0  0  0  0
   37.1320   25.6900   41.8660 C   0  0  0  0  0  0  0  0  0  0  0  0
   37.5570   24.4230   42.1810 C   0  0  0  0  0  3  0  0  0  0  0  0
   37.7410   23.4430   41.2010 C   0  0  0  0  0  3  0  0  0  0  0  0
   37.4670   23.8390   39.8980 C   0  0  0  0  0  3  0  0  0  0  0  0
   37.0440   25.1190   39.6290 C   0  0  0  0  0  3  0  0  0  0  0  0
   36.8610   26.0690   40.5790 C   0  0  0  0  0  0  0  0  0  0  0  0
   33.4940   27.8780   35.8420 S   0  0  0  0  0  0  0  0  0  0  0  0
   31.7380   29.5420   37.0340 C   0  0  0  0  0  0  0  0  0  0  0  0
   32.3760   29.2680   35.8380 C   0  0  0  0  0  0  0  0  0  0  0  0
   32.1330   30.0520   34.7310 C   0  0  0  0  0  0  0  0  0  0  0  0
   31.2560   31.1220   34.7720 C   0  0  0  0  0  0  0  0  0  0  0  0
   30.6120   31.3870   36.0020 C   0  0  0  0  0  0  0  0  0  0  0  0
   30.8480   30.6100   37.1180 C   0  0  0  0  0  0  0  0  0  0  0  0
   29.7810   32.5080   35.7930 O   0  0  0  0  0  0  0  0  0  0  0  0
   29.6710   32.6630   34.3920 C   0  0  0  0  0  0  0  0  0  0  0  0
   30.8260   32.0630   33.8350 O   0  0  0  0  0  0  0  0  0  0  0  0
   31.8620   28.9870   37.9610 H   0  0  0  0  0  0  0  0  0  0  0  0
   32.6420   29.8180   33.8130 H   0  0  0  0  0  0  0  0  0  0  0  0
   30.3330   30.8480   38.0440 H   0  0  0  0  0  0  0  0  0  0  0  0
   29.6170   33.7570   34.1970 H   0  0  0  0  0  0  0  0  0  0  0  0
   28.7620   32.1200   34.0410 H   0  0  0  0  0  0  0  0  0  0  0  0
   37.8480   30.2860   36.7340 O   0  0  0  0  0  0  0  0  0  0  0  0
   37.7800   31.6170   37.1520 C   0  0  0  0  0  0  0  0  0  0  0  0
   36.8790   31.8380   38.1430 F   0  0  0  0  0  0  0  0  0  0  0  0
   39.0980   31.9530   37.5140 F   0  0  0  0  0  0  0  0  0  0  0  0
   37.3950   32.3700   36.0420 F   0  0  0  0  0  0  0  0  0  0  0  0
  1  2  1  0  0  0  0
  2  7  1  0  0  0  0
  2  3  2  0  0  0  0
  3  8  1  0  0  0  0
  4  3  1  0  0  0  0
  5  4  2  0  0  0  0
  6  1  2  0  0  0  0
  6  5  1  0  0  0  0
  8 18  2  0  0  0  0
  8  9  1  0  0  0  0
  9 11  2  0  0  0  0
 10  9  1  0  0  0  0
 11 12  1  0  0  0  0
 13 14  1  0  0  0  0
 13 12  2  0  0  0  0
 15 14  2  0  0  0  0
 16 15  1  0  0  0  0
 17 16  2  0  0  0  0
 17 18  1  0  0  0  0
 18 13  1  0  0  0  0
 19  1  1  0  0  0  0
 20 25  1  0  0  0  0
 20 29  1  0  0  0  0
 21 19  1  0  0  0  0
 21 20  2  0  0  0  0
 22 23  2  0  0  0  0
 22 21  1  0  0  0  0
 23 24  1  0  0  0  0
 24 25  2  0  0  0  0
 25 31  1  0  0  0  0
 26 24  1  0  0  0  0
 27 26  1  0  0  0  0
 28 27  1  0  0  0  0
 28 23  1  0  0  0  0
 30 22  1  0  0  0  0
 32 27  1  0  0  0  0
 33 27  1  0  0  0  0
 34 35  1  0  0  0  0
 34  5  1  0  0  0  0
 35 37  1  0  0  0  0
 35 36  1  0  0  0  0
 38 35  1  0  0  0  0
M  END
>  <minimizedAffinity>
-6.77162504

$$$$

 OpenBabel03242515413D

 38 42  0  0  0  0  0  0  0  0999 V2000
   36.6150   28.7280   41.3280 C   0  0  0  0  0  0  0  0  0  0  0  0
   36.3340   28.2570   40.0620 C   0  0  0  0  0  0  0  0  0  0  0  0
   36.3040   29.1720   39.0050 C   0  0  0  0  0  0  0  0  0  0  0  0
   36.5620   30.4780   39.3150 N   0  0  0  0  0  0  0  0  0  0  0  0
   36.8310   30.9050   40.5460 C   0  0  0  0  0  0  0  0  0  0  0  0
   36.8480   30.0130   41.5120 N   0  0  0  0  0  0  0  0  0  0  0  0
   36.1920   27.2070   39.9190 H   0  0  0  0  0  0  0  0  0  0  0  0
   36.1090   28.9210   37.6180 C   0  0  0  0  0  0  0  0  0  0  0  0
   37.2520   28.6820   36.8360 C   0  0  0  0  0  0  0  0  0  0  0  0
   38.2400   28.6830   37.3070 H   0  0  0  0  0  0  0  0  0  0  0  0
   37.2700   28.4350   35.4860 C   0  0  0  0  0  3  0  0  0  0  0  0
   36.0830   28.4130   34.7970 C   0  0  0  0  0  3  0  0  0  0  0  0
   34.9210   28.6400   35.4910 C   0  0  0  0  0  0  0  0  0  0  0  0
   33.7340   28.6550   34.8020 C   0  0  0  0  0  3  0  0  0  0  0  0
   32.5160   28.9190   35.4380 C   0  0  0  0  0  3  0  0  0  0  0  0
   32.5940   29.1640   36.8030 C   0  0  0  0  0  3  0  0  0  0  0  0
   33.8050   29.1400   37.4520 C   0  0  0  0  0  3  0  0  0  0  0  0
   34.9850   28.8790   36.8370 C   0  0  0  0  0  0  0  0  0  0  0  0
   36.6360   27.4990   42.6550 S   0  0  0  0  0  0  0  0  0  0  0  0
   38.2530   25.3560   42.4050 C   0  0  0  0  0  0  0  0  0  0  0  0
   38.2270   26.6990   42.7370 C   0  0  0  0  0  0  0  0  0  0  0  0
   39.3900   27.3410   43.1030 C   0  0  0  0  0  0  0  0  0  0  0  0
   40.6060   26.6800   43.1530 C   0  0  0  0  0  0  0  0  0  0  0  0
   40.6130   25.3080   42.8110 C   0  0  0  0  0  0  0  0  0  0  0  0
   39.4550   24.6540   42.4420 C   0  0  0  0  0  0  0  0  0  0  0  0
   41.9460   24.8650   42.9370 O   0  0  0  0  0  0  0  0  0  0  0  0
   42.6250   25.8590   43.6790 C   0  0  0  0  0  0  0  0  0  0  0  0
   41.9070   27.0620   43.4790 O   0  0  0  0  0  0  0  0  0  0  0  0
   37.3950   24.7600   42.1030 H   0  0  0  0  0  0  0  0  0  0  0  0
   39.3430   28.3850   43.3560 H   0  0  0  0  0  0  0  0  0  0  0  0
   39.5050   23.5990   42.1870 H   0  0  0  0  0  0  0  0  0  0  0  0
   43.6620   25.9030   43.2780 H   0  0  0  0  0  0  0  0  0  0  0  0
   42.5960   25.5820   44.7600 H   0  0  0  0  0  0  0  0  0  0  0  0
   37.0940   32.2110   40.8820 O   0  0  0  0  0  0  0  0  0  0  0  0
   38.1300   32.8970   40.2440 C   0  0  0  0  0  0  0  0  0  0  0  0
   38.9250   32.1080   39.4790 F   0  0  0  0  0  0  0  0  0  0  0  0
   37.4950   33.9200   39.5160 F   0  0  0  0  0  0  0  0  0  0  0  0
   38.9190   33.4600   41.2490 F   0  0  0  0  0  0  0  0  0  0  0  0
  1  6  1  0  0  0  0
  1 19  1  0  0  0  0
  2  1  2  0  0  0  0
  3  4  2  0  0  0  0
  3  2  1  0  0  0  0
  4  5  1  0  0  0  0
  5 34  1  0  0  0  0
  5  6  2  0  0  0  0
  7  2  1  0  0  0  0
  8  3  1  0  0  0  0
  9 10  1  0  0  0  0
  9  8  2  0  0  0  0
 11  9  1  0  0  0  0
 12 11  2  0  0  0  0
 12 13  1  0  0  0  0
 13 18  1  0  0  0  0
 14 15  1  0  0  0  0
 14 13  2  0  0  0  0
 15 16  2  0  0  0  0
 16 17  1  0  0  0  0
 18 17  2  0  0  0  0
 18  8  1  0  0  0  0
 19 21  1  0  0  0  0
 20 25  2  0  0  0  0
 20 21  1  0  0  0  0
 21 22  2  0  0  0  0
 22 23  1  0  0  0  0
 22 30  1  0  0  0  0
 23 28  1  0  0  0  0
 24 26  1  0  0  0  0
 24 23  2  0  0  0  0
 25 24  1  0  0  0  0
 26 27  1  0  0  0  0
 27 33  1  0  0  0  0
 28 27  1  0  0  0  0
 29 20  1  0  0  0  0
 31 25  1  0  0  0  0
 32 27  1  0  0  0  0
 35 34  1  0  0  0  0
 35 38  1  0  0  0  0
 36 35  1  0  0  0  0
 37 35  1  0  0  0  0
M  END
>  <minimizedAffinity>
-6.54601526

$$$$

 OpenBabel03242515413D

 38 42  0  0  0  0  0  0  0  0999 V2000
   36.6760   30.0590   39.5140 C   0  0  0  0  0  0  0  0  0  0  0  0
   36.9880   28.9440   40.2650 C   0  0  0  0  0  0  0  0  0  0  0  0
   36.8160   27.6840   39.6860 C   0  0  0  0  0  0  0  0  0  0  0  0
   36.3480   27.6570   38.4010 N   0  0  0  0  0  0  0  0  0  0  0  0
   36.0560   28.7480   37.6990 C   0  0  0  0  0  0  0  0  0  0  0  0
   36.2300   29.9150   38.2820 N   0  0  0  0  0  0  0  0  0  0  0  0
   37.3920   29.0770   41.2460 H   0  0  0  0  0  0  0  0  0  0  0  0
   37.1300   26.4060   40.2270 C   0  0  0  0  0  0  0  0  0  0  0  0
   36.4670   25.2920   39.6840 C   0  0  0  0  0  0  0  0  0  0  0  0
   35.7500   25.4320   38.8700 H   0  0  0  0  0  0  0  0  0  0  0  0
   36.6250   23.9860   40.0790 C   0  0  0  0  0  3  0  0  0  0  0  0
   37.5020   23.7000   41.0960 C   0  0  0  0  0  3  0  0  0  0  0  0
   38.1870   24.7360   41.6790 C   0  0  0  0  0  0  0  0  0  0  0  0
   39.0380   24.4600   42.7200 C   0  0  0  0  0  3  0  0  0  0  0  0
   39.7380   25.4720   43.3870 C   0  0  0  0  0  3  0  0  0  0  0  0
   39.5120   26.7620   42.9250 C   0  0  0  0  0  3  0  0  0  0  0  0
   38.6510   26.9910   41.8790 C   0  0  0  0  0  3  0  0  0  0  0  0
   37.9740   26.0120   41.2290 C   0  0  0  0  0  0  0  0  0  0  0  0
   36.9150   31.6620   40.3190 S   0  0  0  0  0  0  0  0  0  0  0  0
   38.8620   33.5200   40.4880 C   0  0  0  0  0  0  0  0  0  0  0  0
   38.4460   32.4040   39.7840 C   0  0  0  0  0  0  0  0  0  0  0  0
   39.2040   31.9280   38.7370 C   0  0  0  0  0  0  0  0  0  0  0  0
   40.3870   32.5360   38.3540 C   0  0  0  0  0  0  0  0  0  0  0  0
   40.7970   33.6750   39.0850 C   0  0  0  0  0  0  0  0  0  0  0  0
   40.0470   34.1610   40.1370 C   0  0  0  0  0  0  0  0  0  0  0  0
   42.0120   34.1080   38.5150 O   0  0  0  0  0  0  0  0  0  0  0  0
   42.1160   33.4580   37.2630 C   0  0  0  0  0  0  0  0  0  0  0  0
   41.3340   32.2820   37.3620 O   0  0  0  0  0  0  0  0  0  0  0  0
   38.3390   33.9720   41.3270 H   0  0  0  0  0  0  0  0  0  0  0  0
   38.8580   31.0590   38.2060 H   0  0  0  0  0  0  0  0  0  0  0  0
   40.3970   35.0390   40.6720 H   0  0  0  0  0  0  0  0  0  0  0  0
   43.1960   33.2460   37.1040 H   0  0  0  0  0  0  0  0  0  0  0  0
   41.6890   34.1240   36.4760 H   0  0  0  0  0  0  0  0  0  0  0  0
   35.5860   28.7460   36.4080 O   0  0  0  0  0  0  0  0  0  0  0  0
   36.4640   28.9840   35.3490 C   0  0  0  0  0  0  0  0  0  0  0  0
   37.7150   28.4970   35.5490 F   0  0  0  0  0  0  0  0  0  0  0  0
   35.8280   28.4370   34.2190 F   0  0  0  0  0  0  0  0  0  0  0  0
   36.5580   30.3700   35.2060 F   0  0  0  0  0  0  0  0  0  0  0  0
  1  2  1  0  0  0  0
  1 19  1  0  0  0  0
  2  7  1  0  0  0  0
  3  8  1  0  0  0  0
  3  2  2  0  0  0  0
  4  3  1  0  0  0  0
  5  6  1  0  0  0  0
  5  4  2  0  0  0  0
  6  1  2  0  0  0  0
  8 18  1  0  0  0  0
  9 11  1  0  0  0  0
  9  8  2  0  0  0  0
 10  9  1  0  0  0  0
 11 12  2  0  0  0  0
 12 13  1  0  0  0  0
 13 14  1  0  0  0  0
 14 15  2  0  0  0  0
 16 15  1  0  0  0  0
 17 16  2  0  0  0  0
 18 13  2  0  0  0  0
 18 17  1  0  0  0  0
 20 29  1  0  0  0  0
 21 19  1  0  0  0  0
 21 20  2  0  0  0  0
 22 21  1  0  0  0  0
 23 22  2  0  0  0  0
 23 24  1  0  0  0  0
 24 25  2  0  0  0  0
 25 20  1  0  0  0  0
 25 31  1  0  0  0  0
 26 24  1  0  0  0  0
 27 28  1  0  0  0  0
 27 26  1  0  0  0  0
 28 23  1  0  0  0  0
 30 22  1  0  0  0  0
 32 27  1  0  0  0  0
 33 27  1  0  0  0  0
 34  5  1  0  0  0  0
 35 36  1  0  0  0  0
 35 34  1  0  0  0  0
 37 35  1  0  0  0  0
 38 35  1  0  0  0  0
M  END
>  <minimizedAffinity>
-6.45315742

$$$$

 OpenBabel03242515413D

 38 42  0  0  0  0  0  0  0  0999 V2000
   33.8930   28.7500   36.0770 C   0  0  0  0  0  0  0  0  0  0  0  0
   34.3600   28.8890   37.3670 C   0  0  0  0  0  0  0  0  0  0  0  0
   35.6350   29.4310   37.5570 C   0  0  0  0  0  0  0  0  0  0  0  0
   36.3250   29.7880   36.4320 N   0  0  0  0  0  0  0  0  0  0  0  0
   35.8480   29.6440   35.1980 C   0  0  0  0  0  0  0  0  0  0  0  0
   34.6460   29.1270   35.0630 N   0  0  0  0  0  0  0  0  0  0  0  0
   33.7210   28.6220   38.1820 H   0  0  0  0  0  0  0  0  0  0  0  0
   36.2990   29.7350   38.7780 C   0  0  0  0  0  0  0  0  0  0  0  0
   36.6560   31.0760   39.0050 C   0  0  0  0  0  0  0  0  0  0  0  0
   36.4090   31.8360   38.2580 H   0  0  0  0  0  0  0  0  0  0  0  0
   37.3100   31.5620   40.1100 C   0  0  0  0  0  3  0  0  0  0  0  0
   37.6680   30.6900   41.1080 C   0  0  0  0  0  3  0  0  0  0  0  0
   37.3560   29.3620   40.9590 C   0  0  0  0  0  0  0  0  0  0  0  0
   37.7430   28.4800   41.9380 C   0  0  0  0  0  3  0  0  0  0  0  0
   37.4930   27.1080   41.8330 C   0  0  0  0  0  3  0  0  0  0  0  0
   36.8330   26.7050   40.6790 C   0  0  0  0  0  3  0  0  0  0  0  0
   36.4640   27.6230   39.7250 C   0  0  0  0  0  3  0  0  0  0  0  0
   36.7020   28.9550   39.8270 C   0  0  0  0  0  0  0  0  0  0  0  0
   32.2390   28.0390   35.8940 S   0  0  0  0  0  0  0  0  0  0  0  0
   30.8890   28.6810   33.6490 C   0  0  0  0  0  0  0  0  0  0  0  0
   31.2020   29.1180   34.9240 C   0  0  0  0  0  0  0  0  0  0  0  0
   30.7170   30.3260   35.3770 C   0  0  0  0  0  0  0  0  0  0  0  0
   29.9150   31.1330   34.5890 C   0  0  0  0  0  0  0  0  0  0  0  0
   29.6050   30.6710   33.2900 C   0  0  0  0  0  0  0  0  0  0  0  0
   30.0840   29.4620   32.8250 C   0  0  0  0  0  0  0  0  0  0  0  0
   28.7880   31.6520   32.6920 O   0  0  0  0  0  0  0  0  0  0  0  0
   28.9190   32.8140   33.4880 C   0  0  0  0  0  0  0  0  0  0  0  0
   29.2970   32.3700   34.7780 O   0  0  0  0  0  0  0  0  0  0  0  0
   31.2190   27.7470   33.2000 H   0  0  0  0  0  0  0  0  0  0  0  0
   30.9750   30.6420   36.3710 H   0  0  0  0  0  0  0  0  0  0  0  0
   29.8230   29.1440   31.8200 H   0  0  0  0  0  0  0  0  0  0  0  0
   27.9280   33.3190   33.4780 H   0  0  0  0  0  0  0  0  0  0  0  0
   29.7290   33.4520   33.0610 H   0  0  0  0  0  0  0  0  0  0  0  0
   36.5220   29.9950   34.0530 O   0  0  0  0  0  0  0  0  0  0  0  0
   36.4500   31.3060   33.5800 C   0  0  0  0  0  0  0  0  0  0  0  0
   37.1420   31.5170   32.4320 F   0  0  0  0  0  0  0  0  0  0  0  0
   35.0740   31.5740   33.4560 F   0  0  0  0  0  0  0  0  0  0  0  0
   36.9970   32.1230   34.5710 F   0  0  0  0  0  0  0  0  0  0  0  0
  1  2  1  0  0  0  0
  2  3  2  0  0  0  0
  2  7  1  0  0  0  0
  3  8  1  0  0  0  0
  4  3  1  0  0  0  0
  5  4  2  0  0  0  0
  6  5  1  0  0  0  0
  6  1  2  0  0  0  0
  8  9  2  0  0  0  0
  8 18  1  0  0  0  0
  9 11  1  0  0  0  0
 10  9  1  0  0  0  0
 11 12  2  0  0  0  0
 13 12  1  0  0  0  0
 13 14  1  0  0  0  0
 15 14  2  0  0  0  0
 16 15  1  0  0  0  0
 17 18  1  0  0  0  0
 17 16  2  0  0  0  0
 18 13  2  0  0  0  0
 19  1  1  0  0  0  0
 20 21  1  0  0  0  0
 21 22  2  0  0  0  0
 21 19  1  0  0  0  0
 22 30  1  0  0  0  0
 23 28  1  0  0  0  0
 23 22  1  0  0  0  0
 24 23  2  0  0  0  0
 25 24  1  0  0  0  0
 25 20  2  0  0  0  0
 26 24  1  0  0  0  0
 26 27  1  0  0  0  0
 27 28  1  0  0  0  0
 29 20  1  0  0  0  0
 31 25  1  0  0  0  0
 32 27  1  0  0  0  0
 33 27  1  0  0  0  0
 34  5  1  0  0  0  0
 35 34  1  0  0  0  0
 35 38  1  0  0  0  0
 36 35  1  0  0  0  0
 37 35  1  0  0  0  0
M  END
>  <minimizedAffinity>
-6.38528299

$$$$

 OpenBabel03242515413D

 38 42  0  0  0  0  0  0  0  0999 V2000
   37.6420   27.8580   36.3590 C   0  0  0  0  0  0  0  0  0  0  0  0
   38.0790   28.6620   37.3910 C   0  0  0  0  0  0  0  0  0  0  0  0
   37.7380   30.0170   37.3680 C   0  0  0  0  0  0  0  0  0  0  0  0
   36.9840   30.4430   36.3100 N   0  0  0  0  0  0  0  0  0  0  0  0
   36.5740   29.6450   35.3280 C   0  0  0  0  0  0  0  0  0  0  0  0
   36.9190   28.3760   35.3860 N   0  0  0  0  0  0  0  0  0  0  0  0
   38.6260   28.2190   38.1970 H   0  0  0  0  0  0  0  0  0  0  0  0
   38.0080   31.0190   38.3410 C   0  0  0  0  0  0  0  0  0  0  0  0
   37.0490   31.2170   39.3500 C   0  0  0  0  0  0  0  0  0  0  0  0
   36.1440   30.6020   39.3660 H   0  0  0  0  0  0  0  0  0  0  0  0
   37.1220   32.1400   40.3650 C   0  0  0  0  0  3  0  0  0  0  0  0
   38.2170   32.9650   40.4350 C   0  0  0  0  0  3  0  0  0  0  0  0
   39.1970   32.8340   39.4840 C   0  0  0  0  0  0  0  0  0  0  0  0
   40.2770   33.6800   39.5290 C   0  0  0  0  0  3  0  0  0  0  0  0
   41.2940   33.6290   38.5700 C   0  0  0  0  0  3  0  0  0  0  0  0
   41.1330   32.6700   37.5770 C   0  0  0  0  0  3  0  0  0  0  0  0
   40.0350   31.8440   37.5720 C   0  0  0  0  0  3  0  0  0  0  0  0
   39.0510   31.8900   38.5030 C   0  0  0  0  0  0  0  0  0  0  0  0
   38.1180   26.1150   36.4410 S   0  0  0  0  0  0  0  0  0  0  0  0
   36.6390   25.2320   38.5160 C   0  0  0  0  0  0  0  0  0  0  0  0
   37.9330   25.4970   38.1040 C   0  0  0  0  0  0  0  0  0  0  0  0
   38.9880   25.2790   38.9630 C   0  0  0  0  0  0  0  0  0  0  0  0
   38.7980   24.7980   40.2470 C   0  0  0  0  0  0  0  0  0  0  0  0
   37.4690   24.5340   40.6510 C   0  0  0  0  0  0  0  0  0  0  0  0
   36.4040   24.7470   39.8000 C   0  0  0  0  0  0  0  0  0  0  0  0
   37.5340   24.0610   41.9780 O   0  0  0  0  0  0  0  0  0  0  0  0
   38.8270   24.3850   42.4510 C   0  0  0  0  0  0  0  0  0  0  0  0
   39.6520   24.4910   41.3060 O   0  0  0  0  0  0  0  0  0  0  0  0
   35.7420   25.3690   37.9170 H   0  0  0  0  0  0  0  0  0  0  0  0
   39.9830   25.4920   38.6180 H   0  0  0  0  0  0  0  0  0  0  0  0
   35.3980   24.5320   40.1500 H   0  0  0  0  0  0  0  0  0  0  0  0
   39.1340   23.5590   43.1300 H   0  0  0  0  0  0  0  0  0  0  0  0
   38.7820   25.3720   42.9710 H   0  0  0  0  0  0  0  0  0  0  0  0
   35.8160   30.0480   34.2550 O   0  0  0  0  0  0  0  0  0  0  0  0
   36.2170   31.1500   33.4970 C   0  0  0  0  0  0  0  0  0  0  0  0
   37.0650   31.9870   34.1450 F   0  0  0  0  0  0  0  0  0  0  0  0
   36.7660   30.6020   32.3220 F   0  0  0  0  0  0  0  0  0  0  0  0
   35.0610   31.8650   33.1810 F   0  0  0  0  0  0  0  0  0  0  0  0
  1 19  1  0  0  0  0
  1  2  1  0  0  0  0
  2  7  1  0  0  0  0
  3  2  2  0  0  0  0
  3  8  1  0  0  0  0
  4  3  1  0  0  0  0
  5  6  1  0  0  0  0
  5  4  2  0  0  0  0
  6  1  2  0  0  0  0
  8 18  2  0  0  0  0
  8  9  1  0  0  0  0
  9 10  1  0  0  0  0
  9 11  2  0  0  0  0
 11 12  1  0  0  0  0
 13 14  1  0  0  0  0
 13 12  2  0  0  0  0
 15 14  2  0  0  0  0
 16 15  1  0  0  0  0
 17 16  2  0  0  0  0
 17 18  1  0  0  0  0
 18 13  1  0  0  0  0
 19 21  1  0  0  0  0
 20 25  1  0  0  0  0
 21 20  2  0  0  0  0
 21 22  1  0  0  0  0
 22 23  2  0  0  0  0
 23 24  1  0  0  0  0
 23 28  1  0  0  0  0
 24 26  1  0  0  0  0
 25 31  1  0  0  0  0
 25 24  2  0  0  0  0
 26 27  1  0  0  0  0
 27 33  1  0  0  0  0
 27 32  1  0  0  0  0
 28 27  1  0  0  0  0
 29 20  1  0  0  0  0
 30 22  1  0  0  0  0
 34  5  1  0  0  0  0
 35 36  1  0  0  0  0
 35 34  1  0  0  0  0
 37 35  1  0  0  0  0
 38 35  1  0  0  0  0
M  END
>  <minimizedAffinity>
-6.38268566

$$$$

 OpenBabel03242515413D

 38 42  0  0  0  0  0  0  0  0999 V2000
   36.4210   29.5290   36.9920 C   0  0  0  0  0  0  0  0  0  0  0  0
   36.8950   28.9560   38.1540 C   0  0  0  0  0  0  0  0  0  0  0  0
   36.2130   27.8530   38.6760 C   0  0  0  0  0  0  0  0  0  0  0  0
   35.1160   27.4230   37.9810 N   0  0  0  0  0  0  0  0  0  0  0  0
   34.6810   27.9960   36.8620 C   0  0  0  0  0  0  0  0  0  0  0  0
   35.3500   29.0320   36.4050 N   0  0  0  0  0  0  0  0  0  0  0  0
   37.7900   29.3400   38.5940 H   0  0  0  0  0  0  0  0  0  0  0  0
   36.5440   27.0570   39.8070 C   0  0  0  0  0  0  0  0  0  0  0  0
   36.4840   25.6600   39.6570 C   0  0  0  0  0  0  0  0  0  0  0  0
   36.2010   25.2310   38.6910 H   0  0  0  0  0  0  0  0  0  0  0  0
   36.7530   24.7300   40.6310 C   0  0  0  0  0  3  0  0  0  0  0  0
   37.1170   25.1630   41.8820 C   0  0  0  0  0  3  0  0  0  0  0  0
   37.1960   26.5140   42.1090 C   0  0  0  0  0  0  0  0  0  0  0  0
   37.5240   26.9530   43.3670 C   0  0  0  0  0  3  0  0  0  0  0  0
   37.5840   28.3150   43.6800 C   0  0  0  0  0  3  0  0  0  0  0  0
   37.2900   29.1830   42.6360 C   0  0  0  0  0  3  0  0  0  0  0  0
   36.9660   28.6990   41.3910 C   0  0  0  0  0  3  0  0  0  0  0  0
   36.9110   27.3790   41.0860 C   0  0  0  0  0  0  0  0  0  0  0  0
   37.3420   30.9550   36.3670 S   0  0  0  0  0  0  0  0  0  0  0  0
   37.3320   32.4160   38.6330 C   0  0  0  0  0  0  0  0  0  0  0  0
   38.1570   31.8050   37.7060 C   0  0  0  0  0  0  0  0  0  0  0  0
   39.5260   31.8740   37.8500 C   0  0  0  0  0  0  0  0  0  0  0  0
   40.1170   32.5450   38.9060 C   0  0  0  0  0  0  0  0  0  0  0  0
   39.2590   33.1640   39.8440 C   0  0  0  0  0  0  0  0  0  0  0  0
   37.8860   33.1020   39.7110 C   0  0  0  0  0  0  0  0  0  0  0  0
   40.0850   33.7740   40.8100 O   0  0  0  0  0  0  0  0  0  0  0  0
   41.3830   33.8160   40.2520 C   0  0  0  0  0  0  0  0  0  0  0  0
   41.4370   32.7740   39.2960 O   0  0  0  0  0  0  0  0  0  0  0  0
   36.2450   32.4190   38.6100 H   0  0  0  0  0  0  0  0  0  0  0  0
   40.1440   31.3900   37.1160 H   0  0  0  0  0  0  0  0  0  0  0  0
   37.2630   33.5910   40.4540 H   0  0  0  0  0  0  0  0  0  0  0  0
   42.0960   33.6690   41.0920 H   0  0  0  0  0  0  0  0  0  0  0  0
   41.5220   34.7990   39.7400 H   0  0  0  0  0  0  0  0  0  0  0  0
   33.5830   27.5820   36.1470 O   0  0  0  0  0  0  0  0  0  0  0  0
   32.4280   28.3670   36.1340 C   0  0  0  0  0  0  0  0  0  0  0  0
   32.2920   29.1670   37.2200 F   0  0  0  0  0  0  0  0  0  0  0  0
   32.4860   29.0790   34.9220 F   0  0  0  0  0  0  0  0  0  0  0  0
   31.3440   27.4870   36.1060 F   0  0  0  0  0  0  0  0  0  0  0  0
  1  2  1  0  0  0  0
  2  7  1  0  0  0  0
  2  3  2  0  0  0  0
  3  8  1  0  0  0  0
  4  3  1  0  0  0  0
  5  4  2  0  0  0  0
  6  5  1  0  0  0  0
  6  1  2  0  0  0  0
  8 18  1  0  0  0  0
  9  8  2  0  0  0  0
  9 11  1  0  0  0  0
 10  9  1  0  0  0  0
 11 12  2  0  0  0  0
 12 13  1  0  0  0  0
 13 14  1  0  0  0  0
 14 15  2  0  0  0  0
 16 15  1  0  0  0  0
 17 16  2  0  0  0  0
 18 17  1  0  0  0  0
 18 13  2  0  0  0  0
 19  1  1  0  0  0  0
 19 21  1  0  0  0  0
 20 25  1  0  0  0  0
 21 22  1  0  0  0  0
 21 20  2  0  0  0  0
 22 23  2  0  0  0  0
 23 28  1  0  0  0  0
 23 24  1  0  0  0  0
 24 26  1  0  0  0  0
 25 24  2  0  0  0  0
 25 31  1  0  0  0  0
 27 26  1  0  0  0  0
 27 32  1  0  0  0  0
 28 27  1  0  0  0  0
 29 20  1  0  0  0  0
 30 22  1  0  0  0  0
 33 27  1  0  0  0  0
 34  5  1  0  0  0  0
 35 34  1  0  0  0  0
 35 36  1  0  0  0  0
 37 35  1  0  0  0  0
 38 35  1  0  0  0  0
M  END
>  <minimizedAffinity>
-6.37835455

$$$$
