
 OpenBabel03252500293D

 30 33  0  0  1  0  0  0  0  0999 V2000
   44.8710   32.1490   39.5970 C   0  0  1  0  0  0  0  0  0  0  0  0
   45.0530   31.1190   40.5910 C   0  0  0  0  0  0  0  0  0  0  0  0
   46.1590   32.1150   40.4200 C   0  0  1  0  0  0  0  0  0  0  0  0
   44.2970   33.0930   39.7940 H   0  0  0  0  0  0  0  0  0  0  0  0
   44.4290   31.1450   41.4980 H   0  0  0  0  0  0  0  0  0  0  0  0
   45.2100   30.0670   40.2320 H   0  0  0  0  0  0  0  0  0  0  0  0
   46.2570   32.8100   41.2900 H   0  0  0  0  0  0  0  0  0  0  0  0
   44.7510   30.5590   37.6520 C   0  0  0  0  0  0  0  0  0  0  0  0
   44.9730   31.8810   38.1430 C   0  0  0  0  0  0  0  0  0  0  0  0
   45.2900   32.8830   37.2430 C   0  0  0  0  0  0  0  0  0  0  0  0
   45.3770   32.5520   35.9200 N   0  0  0  0  0  0  0  0  0  0  0  0
   45.1600   31.2780   35.4760 C   0  0  0  0  0  0  0  0  0  0  0  0
   44.8440   30.2690   36.3400 N   0  0  0  0  0  0  0  0  0  0  0  0
   44.5000   29.7460   38.3180 H   0  0  0  0  0  0  0  0  0  0  0  0
   45.4580   33.8830   37.6100 H   0  0  0  0  0  0  0  0  0  0  0  0
   45.2620   31.1630   34.4000 H   0  0  0  0  0  0  0  0  0  0  0  0
   47.4230   31.7240   39.7630 C   0  0  0  0  0  0  0  0  0  0  0  0
   47.6290   32.3860   38.8990 H   0  0  0  0  0  0  0  0  0  0  0  0
   47.4080   30.6950   39.3290 H   0  0  0  0  0  0  0  0  0  0  0  0
   48.5920   31.8590   40.6950 C   0  0  0  0  0  0  0  0  0  0  0  0
   49.3440   30.7550   41.0560 C   0  0  0  0  0  0  0  0  0  0  0  0
   49.1180   29.7680   40.6810 H   0  0  0  0  0  0  0  0  0  0  0  0
   50.4070   30.9700   41.9270 C   0  0  0  0  0  3  0  0  0  0  0  0
   50.7390   32.2180   42.4380 C   0  0  0  0  0  3  0  0  0  0  0  0
   49.9900   33.2970   42.0740 C   0  0  0  0  0  0  0  0  0  0  0  0
   50.2960   34.5550   42.5670 C   0  0  0  0  0  3  0  0  0  0  0  0
   49.5620   35.6620   42.2200 C   0  0  0  0  0  3  0  0  0  0  0  0
   48.4910   35.5070   41.3550 C   0  0  0  0  0  3  0  0  0  0  0  0
   48.2080   34.2400   40.8800 C   0  0  0  0  0  3  0  0  0  0  0  0
   48.9240   33.1100   41.2080 C   0  0  0  0  0  0  0  0  0  0  0  0
  1  4  1  1  0  0  0
  1  3  1  0  0  0  0
  1  2  1  0  0  0  0
  2  5  1  0  0  0  0
  3  2  1  0  0  0  0
  3  7  1  1  0  0  0
  6  2  1  0  0  0  0
  8  9  1  0  0  0  0
  8 14  1  0  0  0  0
  9  1  1  0  0  0  0
 10 15  1  0  0  0  0
 10  9  2  0  0  0  0
 11 10  1  0  0  0  0
 12 11  2  0  0  0  0
 12 13  1  0  0  0  0
 13  8  2  0  0  0  0
 16 12  1  0  0  0  0
 17  3  1  0  0  0  0
 17 20  1  0  0  0  0
 18 17  1  0  0  0  0
 19 17  1  0  0  0  0
 20 21  2  0  0  0  0
 20 30  1  0  0  0  0
 21 23  1  0  0  0  0
 22 21  1  0  0  0  0
 23 24  2  0  0  0  0
 25 24  1  0  0  0  0
 25 26  1  0  0  0  0
 27 26  2  0  0  0  0
 28 27  1  0  0  0  0
 29 30  1  0  0  0  0
 29 28  2  0  0  0  0
 30 25  2  0  0  0  0
M  END
>  <minimizedAffinity>
-4.00818634

>  <minimizedRMSD>
5.93755436

$$$$
