
 OpenBabel03242511473D

 46 49  0  0  0  0  0  0  0  0999 V2000
   44.6610   35.7720   44.7710 C   0  0  0  0  0  0  0  0  0  0  0  0
   44.1020   35.9840   43.4990 C   0  0  0  0  0  0  0  0  0  0  0  0
   44.1790   34.9410   42.6100 C   0  0  0  0  0  0  0  0  0  0  0  0
   44.7710   33.7820   42.9670 N   0  0  0  0  0  0  0  0  0  0  0  0
   45.2890   33.6430   44.2060 C   0  0  0  0  0  0  0  0  0  0  0  0
   45.2450   34.5950   45.0910 N   0  0  0  0  0  0  0  0  0  0  0  0
   44.6050   36.5890   45.4840 H   0  0  0  0  0  0  0  0  0  0  0  0
   43.6320   36.9310   43.2400 H   0  0  0  0  0  0  0  0  0  0  0  0
   45.9210   32.3420   44.5280 C   0  0  0  0  0  0  0  0  0  0  0  0
   46.5060   31.9410   43.6730 H   0  0  0  0  0  0  0  0  0  0  0  0
   45.1150   31.5940   44.7310 H   0  0  0  0  0  0  0  0  0  0  0  0
   46.7240   32.4880   45.7880 C   0  0  0  0  0  0  0  0  0  0  0  0
   46.8450   33.5640   46.0730 H   0  0  0  0  0  0  0  0  0  0  0  0
   47.7540   32.1210   45.5700 H   0  0  0  0  0  0  0  0  0  0  0  0
   46.1390   31.7860   46.9070 C   0  0  0  0  0  0  0  0  0  0  0  0
   45.3850   32.2790   47.9400 C   0  0  0  0  0  0  0  0  0  0  0  0
   44.8830   31.5260   48.9460 C   0  0  0  0  0  0  0  0  0  0  0  0
   45.1450   30.1690   48.9350 C   0  0  0  0  0  0  0  0  0  0  0  0
   45.9010   29.6560   47.9060 C   0  0  0  0  0  0  0  0  0  0  0  0
   46.4000   30.4460   46.8960 C   0  0  0  0  0  0  0  0  0  0  0  0
   45.2040   33.3590   47.9040 H   0  0  0  0  0  0  0  0  0  0  0  0
   44.2980   32.0140   49.7130 H   0  0  0  0  0  0  0  0  0  0  0  0
   44.7150   29.6110   49.7710 H   0  0  0  0  0  0  0  0  0  0  0  0
   46.0150   28.5710   48.0490 H   0  0  0  0  0  0  0  0  0  0  0  0
   48.4890   29.3470   46.3840 C   0  0  0  0  0  0  0  0  0  0  0  0
   49.3120   29.6710   47.3170 O   0  0  0  0  0  0  0  0  0  0  0  0
   47.1370   29.5940   46.0000 N   0  0  0  0  0  0  0  0  0  0  0  0
   49.2470   28.7340   45.8990 H   0  0  0  0  0  0  0  0  0  0  0  0
   46.8980   29.1090   45.1170 H   0  0  0  0  0  0  0  0  0  0  0  0
   43.5850   35.1690   41.2570 C   0  0  0  0  0  0  0  0  0  0  0  0
   44.0490   36.1170   40.8510 H   0  0  0  0  0  0  0  0  0  0  0  0
   43.9450   34.3710   40.5970 H   0  0  0  0  0  0  0  0  0  0  0  0
   42.0910   35.3210   41.3300 C   0  0  0  0  0  0  0  0  0  0  0  0
   41.7300   34.4630   41.9720 H   0  0  0  0  0  0  0  0  0  0  0  0
   41.8330   36.2200   41.9080 H   0  0  0  0  0  0  0  0  0  0  0  0
   41.4430   35.2620   40.0150 C   0  0  0  0  0  0  0  0  0  0  0  0
   42.0620   35.9570   38.9850 C   0  0  0  0  0  0  0  0  0  0  0  0
   42.9660   36.5250   39.1290 H   0  0  0  0  0  0  0  0  0  0  0  0
   41.5700   35.9840   37.6820 C   0  0  0  0  0  0  0  0  0  0  0  0
   40.4140   35.2870   37.3980 C   0  0  0  0  0  0  0  0  0  0  0  0
   39.7840   34.5870   38.4140 C   0  0  0  0  0  0  0  0  0  0  0  0
   38.6210   33.8980   38.0980 C   0  0  0  0  0  0  0  0  0  0  0  0
   38.0140   33.2080   39.1500 C   0  0  0  0  0  0  0  0  0  0  0  0
   38.5110   33.1930   40.4260 C   0  0  0  0  0  0  0  0  0  0  0  0
   39.6680   33.8900   40.6970 C   0  0  0  0  0  0  0  0  0  0  0  0
   40.3010   34.5850   39.6930 C   0  0  0  0  0  0  0  0  0  0  0  0
  1  6  1  0  0  0  0
  1  7  1  0  0  0  0
  2  1  2  0  0  0  0
  3  4  2  0  0  0  0
  3  2  1  0  0  0  0
  4  5  1  0  0  0  0
  5  9  1  0  0  0  0
  5  6  2  0  0  0  0
  8  2  1  0  0  0  0
  9 11  1  0  0  0  0
  9 12  1  0  0  0  0
 10  9  1  0  0  0  0
 12 13  1  0  0  0  0
 12 15  1  0  0  0  0
 14 12  1  0  0  0  0
 15 16  1  0  0  0  0
 16 17  2  0  0  0  0
 17 22  1  0  0  0  0
 18 17  1  0  0  0  0
 18 23  1  0  0  0  0
 19 24  1  0  0  0  0
 19 18  2  0  0  0  0
 20 15  2  0  0  0  0
 20 19  1  0  0  0  0
 21 16  1  0  0  0  0
 25 26  2  0  0  0  0
 27 25  1  0  0  0  0
 27 20  1  0  0  0  0
 28 25  1  0  0  0  0
 29 27  1  0  0  0  0
 30 33  1  0  0  0  0
 30  3  1  0  0  0  0
 31 30  1  0  0  0  0
 32 30  1  0  0  0  0
 33 35  1  0  0  0  0
 33 34  1  0  0  0  0
 36 33  1  0  0  0  0
 37 38  1  0  0  0  0
 37 36  2  0  0  0  0
 39 37  1  0  0  0  0
 40 39  2  0  0  0  0
 40 41  1  0  0  0  0
 41 46  1  0  0  0  0
 42 41  2  0  0  0  0
 42 43  1  0  0  0  0
 43 44  2  0  0  0  0
 44 45  1  0  0  0  0
 46 36  1  0  0  0  0
 46 45  2  0  0  0  0
M  END
>  <minimizedAffinity>
-7.2022357

>  <minimizedRMSD>
0.701673985

$$$$
