
 OpenBabel03242511383D

 44 48  0  0  1  0  0  0  0  0999 V2000
   33.8170   29.1740   35.8490 C   0  0  0  0  0  0  0  0  0  0  0  0
   34.9720   29.1210   35.0280 C   0  0  0  0  0  0  0  0  0  0  0  0
   36.2410   29.1610   35.5880 C   0  0  0  0  0  0  0  0  0  0  0  0
   36.2910   29.2520   36.9330 N   0  0  0  0  0  0  0  0  0  0  0  0
   35.1920   29.3020   37.7150 C   0  0  0  0  0  0  0  0  0  0  0  0
   33.9890   29.2630   37.1750 N   0  0  0  0  0  0  0  0  0  0  0  0
   34.9410   29.0490   33.9510 H   0  0  0  0  0  0  0  0  0  0  0  0
   37.1330   29.1240   34.9860 H   0  0  0  0  0  0  0  0  0  0  0  0
   35.3090   29.3830   39.2200 C   0  0  2  0  0  0  0  0  0  0  0  0
   36.1220   30.4230   39.8510 C   0  0  0  0  0  0  0  0  0  0  0  0
   36.6220   29.0600   39.8560 C   0  0  1  0  0  0  0  0  0  0  0  0
   34.3330   29.0460   39.6300 H   0  0  0  0  0  0  0  0  0  0  0  0
   36.5090   31.1830   39.1340 H   0  0  0  0  0  0  0  0  0  0  0  0
   35.8300   31.0080   40.7400 H   0  0  0  0  0  0  0  0  0  0  0  0
   37.4100   28.9090   39.0890 H   0  0  0  0  0  0  0  0  0  0  0  0
   36.8960   28.1890   40.9700 C   0  0  0  0  0  0  0  0  0  0  0  0
   37.1720   28.9060   42.1440 C   0  0  0  0  0  0  0  0  0  0  0  0
   37.2180   30.0050   42.2230 H   0  0  0  0  0  0  0  0  0  0  0  0
   37.4190   28.3440   43.3610 C   0  0  0  0  0  3  0  0  0  0  0  0
   37.4090   26.9550   43.4950 C   0  0  0  0  0  3  0  0  0  0  0  0
   37.1450   26.2150   42.3620 C   0  0  0  0  0  0  0  0  0  0  0  0
   37.1200   24.8110   42.3700 C   0  0  0  0  0  3  0  0  0  0  0  0
   36.8600   24.1570   41.1890 C   0  0  0  0  0  3  0  0  0  0  0  0
   36.6160   24.7570   39.9730 C   0  0  0  0  0  3  0  0  0  0  0  0
   36.6400   26.1320   39.9720 C   0  0  0  0  0  3  0  0  0  0  0  0
   36.8970   26.8180   41.1400 C   0  0  0  0  0  0  0  0  0  0  0  0
   32.5210   29.1300   35.2010 C   0  0  0  0  0  3  0  0  0  0  0  0
   32.0480   30.2540   34.6800 C   0  0  0  0  0  3  0  0  0  0  0  0
   30.7430   30.3320   33.9970 C   0  0  0  0  0  0  0  0  0  0  0  0
   30.8940   30.9510   33.0830 H   0  0  0  0  0  0  0  0  0  0  0  0
   30.3640   29.3600   33.6210 H   0  0  0  0  0  0  0  0  0  0  0  0
   29.3900   31.7150   37.0370 C   0  0  1  0  0  0  0  0  0  0  0  0
   30.3200   31.9660   35.8420 C   0  0  0  0  0  0  0  0  0  0  0  0
   29.7030   31.0650   34.8380 C   0  0  2  0  0  0  0  0  0  0  0  0
   28.8520   30.1970   35.4720 O   0  0  0  0  0  0  0  0  0  0  0  0
   29.0430   30.2660   36.8230 C   0  0  0  0  0  0  0  0  0  0  0  0
   28.4940   32.3610   36.9320 H   0  0  0  0  0  0  0  0  0  0  0  0
   30.3630   33.0340   35.5760 H   0  0  0  0  0  0  0  0  0  0  0  0
   31.3180   31.5590   36.1670 H   0  0  0  0  0  0  0  0  0  0  0  0
   29.0810   31.6560   34.1270 H   0  0  0  0  0  0  0  0  0  0  0  0
   29.8950   29.6410   37.1640 H   0  0  0  0  0  0  0  0  0  0  0  0
   28.0920   30.0270   37.3360 H   0  0  0  0  0  0  0  0  0  0  0  0
   30.0900   31.9340   38.2240 O   0  0  0  0  0  0  0  0  0  0  0  0
   29.6610   32.5750   38.8320 H   0  0  0  0  0  0  0  0  0  0  0  0
  1  6  1  0  0  0  0
  2  3  1  0  0  0  0
  2  1  2  0  0  0  0
  3  4  2  0  0  0  0
  4  5  1  0  0  0  0
  5  9  1  0  0  0  0
  6  5  2  0  0  0  0
  7  2  1  0  0  0  0
  8  3  1  0  0  0  0
  9 12  1  1  0  0  0
  9 10  1  0  0  0  0
  9 11  1  0  0  0  0
 10 11  1  0  0  0  0
 10 14  1  0  0  0  0
 11 15  1  6  0  0  0
 11 16  1  0  0  0  0
 13 10  1  0  0  0  0
 16 26  2  0  0  0  0
 16 17  1  0  0  0  0
 17 18  1  0  0  0  0
 17 19  2  0  0  0  0
 19 20  1  0  0  0  0
 21 22  1  0  0  0  0
 21 20  2  0  0  0  0
 23 22  2  0  0  0  0
 24 23  1  0  0  0  0
 25 24  2  0  0  0  0
 25 26  1  0  0  0  0
 26 21  1  0  0  0  0
 27  1  1  0  0  0  0
 28 27  2  0  0  0  0
 29 28  1  0  0  0  0
 29 34  1  0  0  0  0
 30 29  1  0  0  0  0
 31 29  1  0  0  0  0
 32 37  1  6  0  0  0
 32 43  1  0  0  0  0
 33 39  1  0  0  0  0
 33 32  1  0  0  0  0
 34 40  1  6  0  0  0
 34 35  1  0  0  0  0
 34 33  1  0  0  0  0
 35 36  1  0  0  0  0
 36 32  1  0  0  0  0
 36 41  1  0  0  0  0
 36 42  1  0  0  0  0
 38 33  1  0  0  0  0
 43 44  1  0  0  0  0
M  END
>  <minimizedAffinity>
-6.63472033

$$$$

 OpenBabel03242511383D

 44 48  0  0  1  0  0  0  0  0999 V2000
   36.6230   29.5020   37.2350 C   0  0  0  0  0  0  0  0  0  0  0  0
   37.4080   28.5670   36.5130 C   0  0  0  0  0  0  0  0  0  0  0  0
   36.8120   27.6530   35.6570 C   0  0  0  0  0  0  0  0  0  0  0  0
   35.4670   27.7190   35.5650 N   0  0  0  0  0  0  0  0  0  0  0  0
   34.7190   28.6080   36.2520 C   0  0  0  0  0  0  0  0  0  0  0  0
   35.2950   29.4740   37.0650 N   0  0  0  0  0  0  0  0  0  0  0  0
   38.4850   28.5070   36.5800 H   0  0  0  0  0  0  0  0  0  0  0  0
   37.3860   26.9330   35.0980 H   0  0  0  0  0  0  0  0  0  0  0  0
   33.2160   28.6490   36.0950 C   0  0  2  0  0  0  0  0  0  0  0  0
   32.5850   28.2430   34.8390 C   0  0  0  0  0  0  0  0  0  0  0  0
   32.6190   29.6580   35.1680 C   0  0  1  0  0  0  0  0  0  0  0  0
   32.7890   28.4100   37.0920 H   0  0  0  0  0  0  0  0  0  0  0  0
   33.2960   27.7980   34.1060 H   0  0  0  0  0  0  0  0  0  0  0  0
   31.6780   27.6210   34.7550 H   0  0  0  0  0  0  0  0  0  0  0  0
   33.4090   30.1910   34.5990 H   0  0  0  0  0  0  0  0  0  0  0  0
   31.5300   30.5700   35.4040 C   0  0  0  0  0  0  0  0  0  0  0  0
   31.2880   31.3990   34.2970 C   0  0  0  0  0  0  0  0  0  0  0  0
   31.8720   31.3990   33.3620 H   0  0  0  0  0  0  0  0  0  0  0  0
   30.2890   32.3230   34.2200 C   0  0  0  0  0  3  0  0  0  0  0  0
   29.4210   32.4930   35.2980 C   0  0  0  0  0  3  0  0  0  0  0  0
   29.6280   31.6980   36.4060 C   0  0  0  0  0  0  0  0  0  0  0  0
   28.8270   31.7870   37.5560 C   0  0  0  0  0  3  0  0  0  0  0  0
   29.1160   30.9620   38.6170 C   0  0  0  0  0  3  0  0  0  0  0  0
   30.1370   30.0380   38.6640 C   0  0  0  0  0  3  0  0  0  0  0  0
   30.9170   29.9550   37.5340 C   0  0  0  0  0  3  0  0  0  0  0  0
   30.6520   30.7670   36.4520 C   0  0  0  0  0  0  0  0  0  0  0  0
   37.3090   30.4270   38.1150 C   0  0  0  0  0  3  0  0  0  0  0  0
   36.7760   30.6640   39.3060 C   0  0  0  0  0  3  0  0  0  0  0  0
   37.3830   31.5860   40.2850 C   0  0  0  0  0  0  0  0  0  0  0  0
   36.5570   32.2140   40.6920 H   0  0  0  0  0  0  0  0  0  0  0  0
   37.8220   31.0860   41.1730 H   0  0  0  0  0  0  0  0  0  0  0  0
   40.1540   33.8880   40.2290 C   0  0  1  0  0  0  0  0  0  0  0  0
   39.7390   32.4120   40.1640 C   0  0  0  0  0  0  0  0  0  0  0  0
   38.3640   32.5500   39.6270 C   0  0  2  0  0  0  0  0  0  0  0  0
   37.9600   33.8540   39.7500 O   0  0  0  0  0  0  0  0  0  0  0  0
   38.8340   34.5360   40.5500 C   0  0  0  0  0  0  0  0  0  0  0  0
   40.5210   34.1980   39.2290 H   0  0  0  0  0  0  0  0  0  0  0  0
   40.4410   31.8180   39.5580 H   0  0  0  0  0  0  0  0  0  0  0  0
   39.7060   32.0780   41.2390 H   0  0  0  0  0  0  0  0  0  0  0  0
   38.3550   32.3160   38.5380 H   0  0  0  0  0  0  0  0  0  0  0  0
   38.6200   34.3940   41.6290 H   0  0  0  0  0  0  0  0  0  0  0  0
   38.8530   35.5990   40.2430 H   0  0  0  0  0  0  0  0  0  0  0  0
   41.1000   34.0610   41.2390 O   0  0  0  0  0  0  0  0  0  0  0  0
   41.9310   34.4940   40.9440 H   0  0  0  0  0  0  0  0  0  0  0  0
  1 27  1  0  0  0  0
  2  7  1  0  0  0  0
  2  1  2  0  0  0  0
  3  2  1  0  0  0  0
  4  3  2  0  0  0  0
  4  5  1  0  0  0  0
  5  6  2  0  0  0  0
  6  1  1  0  0  0  0
  8  3  1  0  0  0  0
  9  5  1  0  0  0  0
  9 12  1  1  0  0  0
 10 11  1  0  0  0  0
 10  9  1  0  0  0  0
 11 15  1  6  0  0  0
 11 16  1  0  0  0  0
 11  9  1  0  0  0  0
 13 10  1  0  0  0  0
 14 10  1  0  0  0  0
 16 26  1  0  0  0  0
 17 16  2  0  0  0  0
 18 17  1  0  0  0  0
 19 17  1  0  0  0  0
 19 20  2  0  0  0  0
 20 21  1  0  0  0  0
 21 26  2  0  0  0  0
 21 22  1  0  0  0  0
 22 23  2  0  0  0  0
 23 24  1  0  0  0  0
 25 24  2  0  0  0  0
 26 25  1  0  0  0  0
 27 28  2  0  0  0  0
 28 29  1  0  0  0  0
 29 30  1  0  0  0  0
 29 31  1  0  0  0  0
 32 37  1  6  0  0  0
 32 36  1  0  0  0  0
 32 43  1  0  0  0  0
 33 32  1  0  0  0  0
 33 39  1  0  0  0  0
 34 40  1  6  0  0  0
 34 35  1  0  0  0  0
 34 33  1  0  0  0  0
 34 29  1  0  0  0  0
 35 36  1  0  0  0  0
 36 41  1  0  0  0  0
 38 33  1  0  0  0  0
 42 36  1  0  0  0  0
 44 43  1  0  0  0  0
M  END
>  <minimizedAffinity>
-6.54976654

$$$$

 OpenBabel03242511383D

 44 48  0  0  1  0  0  0  0  0999 V2000
   38.8350   27.5010   42.9760 C   0  0  0  0  0  0  0  0  0  0  0  0
   39.8630   26.7790   43.6360 C   0  0  0  0  0  0  0  0  0  0  0  0
   39.9210   25.3950   43.5520 C   0  0  0  0  0  0  0  0  0  0  0  0
   38.9560   24.8060   42.8170 N   0  0  0  0  0  0  0  0  0  0  0  0
   37.9780   25.4930   42.1890 C   0  0  0  0  0  0  0  0  0  0  0  0
   37.9290   26.8080   42.2740 N   0  0  0  0  0  0  0  0  0  0  0  0
   40.6400   27.2420   44.2260 H   0  0  0  0  0  0  0  0  0  0  0  0
   40.6910   24.8240   44.0440 H   0  0  0  0  0  0  0  0  0  0  0  0
   36.9320   24.7800   41.3620 C   0  0  2  0  0  0  0  0  0  0  0  0
   37.2640   23.5580   40.6290 C   0  0  0  0  0  0  0  0  0  0  0  0
   37.0710   24.7830   39.8730 C   0  0  1  0  0  0  0  0  0  0  0  0
   35.9630   24.9280   41.8830 H   0  0  0  0  0  0  0  0  0  0  0  0
   38.2830   23.1660   40.8540 H   0  0  0  0  0  0  0  0  0  0  0  0
   36.6290   22.6570   40.5740 H   0  0  0  0  0  0  0  0  0  0  0  0
   38.0380   25.2310   39.5650 H   0  0  0  0  0  0  0  0  0  0  0  0
   36.0830   25.0960   38.8740 C   0  0  0  0  0  0  0  0  0  0  0  0
   35.4910   23.9410   38.3380 C   0  0  0  0  0  0  0  0  0  0  0  0
   35.7610   22.9060   38.6040 H   0  0  0  0  0  0  0  0  0  0  0  0
   34.4920   23.9360   37.4110 C   0  0  0  0  0  3  0  0  0  0  0  0
   33.9910   25.1460   36.9290 C   0  0  0  0  0  3  0  0  0  0  0  0
   34.5480   26.3030   37.4300 C   0  0  0  0  0  0  0  0  0  0  0  0
   34.1360   27.5790   37.0130 C   0  0  0  0  0  3  0  0  0  0  0  0
   34.7580   28.6770   37.5590 C   0  0  0  0  0  3  0  0  0  0  0  0
   35.7690   28.6470   38.4950 C   0  0  0  0  0  3  0  0  0  0  0  0
   36.1670   27.3940   38.9000 C   0  0  0  0  0  3  0  0  0  0  0  0
   35.5630   26.2740   38.3730 C   0  0  0  0  0  0  0  0  0  0  0  0
   38.8300   28.9450   43.1070 C   0  0  0  0  0  3  0  0  0  0  0  0
   39.5800   29.6470   42.2700 C   0  0  0  0  0  3  0  0  0  0  0  0
   39.6550   31.1200   42.3070 C   0  0  0  0  0  0  0  0  0  0  0  0
   38.7680   31.4740   42.8810 H   0  0  0  0  0  0  0  0  0  0  0  0
   40.5290   31.5200   42.8610 H   0  0  0  0  0  0  0  0  0  0  0  0
   37.9970   32.9550   39.6860 C   0  0  1  0  0  0  0  0  0  0  0  0
   38.8750   33.0630   40.9400 C   0  0  0  0  0  0  0  0  0  0  0  0
   39.5300   31.7330   40.9150 C   0  0  2  0  0  0  0  0  0  0  0  0
   38.8510   30.9110   40.0540 O   0  0  0  0  0  0  0  0  0  0  0  0
   37.6620   31.4880   39.7040 C   0  0  0  0  0  0  0  0  0  0  0  0
   38.6100   33.2160   38.7990 H   0  0  0  0  0  0  0  0  0  0  0  0
   39.5450   33.9360   40.8940 H   0  0  0  0  0  0  0  0  0  0  0  0
   38.1460   33.1220   41.7950 H   0  0  0  0  0  0  0  0  0  0  0  0
   40.5660   31.8250   40.5170 H   0  0  0  0  0  0  0  0  0  0  0  0
   36.8680   31.3120   40.4580 H   0  0  0  0  0  0  0  0  0  0  0  0
   37.3830   31.1530   38.6870 H   0  0  0  0  0  0  0  0  0  0  0  0
   36.8720   33.7670   39.8350 O   0  0  0  0  0  0  0  0  0  0  0  0
   36.7390   34.4090   39.1030 H   0  0  0  0  0  0  0  0  0  0  0  0
  1 27  1  0  0  0  0
  1  2  1  0  0  0  0
  2  7  1  0  0  0  0
  3  2  2  0  0  0  0
  3  8  1  0  0  0  0
  4  3  1  0  0  0  0
  5  6  1  0  0  0  0
  5  4  2  0  0  0  0
  6  1  2  0  0  0  0
  9 12  1  1  0  0  0
  9  5  1  0  0  0  0
 10 13  1  0  0  0  0
 10  9  1  0  0  0  0
 11 15  1  6  0  0  0
 11 10  1  0  0  0  0
 11  9  1  0  0  0  0
 14 10  1  0  0  0  0
 16 11  1  0  0  0  0
 17 18  1  0  0  0  0
 17 16  2  0  0  0  0
 19 17  1  0  0  0  0
 20 19  2  0  0  0  0
 20 21  1  0  0  0  0
 21 26  1  0  0  0  0
 22 21  2  0  0  0  0
 22 23  1  0  0  0  0
 23 24  2  0  0  0  0
 24 25  1  0  0  0  0
 26 16  1  0  0  0  0
 26 25  2  0  0  0  0
 28 29  1  0  0  0  0
 28 27  2  0  0  0  0
 29 31  1  0  0  0  0
 29 30  1  0  0  0  0
 32 37  1  6  0  0  0
 32 36  1  0  0  0  0
 32 43  1  0  0  0  0
 32 33  1  0  0  0  0
 33 39  1  0  0  0  0
 34 40  1  6  0  0  0
 34 33  1  0  0  0  0
 34 29  1  0  0  0  0
 35 34  1  0  0  0  0
 36 35  1  0  0  0  0
 36 41  1  0  0  0  0
 38 33  1  0  0  0  0
 42 36  1  0  0  0  0
 44 43  1  0  0  0  0
M  END
>  <minimizedAffinity>
-6.53837013

$$$$

 OpenBabel03242511383D

 44 48  0  0  1  0  0  0  0  0999 V2000
   34.3770   26.3920   37.2350 C   0  0  0  0  0  0  0  0  0  0  0  0
   33.4070   25.4010   36.9380 C   0  0  0  0  0  0  0  0  0  0  0  0
   33.5640   24.0980   37.3880 C   0  0  0  0  0  0  0  0  0  0  0  0
   34.6780   23.8520   38.1090 N   0  0  0  0  0  0  0  0  0  0  0  0
   35.6020   24.7950   38.3920 C   0  0  0  0  0  0  0  0  0  0  0  0
   35.4440   26.0310   37.9600 N   0  0  0  0  0  0  0  0  0  0  0  0
   32.5130   25.5880   36.3620 H   0  0  0  0  0  0  0  0  0  0  0  0
   32.8420   23.3270   37.1750 H   0  0  0  0  0  0  0  0  0  0  0  0
   36.8220   24.4660   39.2220 C   0  0  2  0  0  0  0  0  0  0  0  0
   36.8680   23.2490   40.0340 C   0  0  0  0  0  0  0  0  0  0  0  0
   36.7140   24.5240   40.7120 C   0  0  1  0  0  0  0  0  0  0  0  0
   37.6990   24.8520   38.6600 H   0  0  0  0  0  0  0  0  0  0  0  0
   36.0020   22.5690   39.8660 H   0  0  0  0  0  0  0  0  0  0  0  0
   37.7370   22.5740   40.1180 H   0  0  0  0  0  0  0  0  0  0  0  0
   35.6630   24.6950   41.0280 H   0  0  0  0  0  0  0  0  0  0  0  0
   37.5860   25.1710   41.6570 C   0  0  0  0  0  0  0  0  0  0  0  0
   38.5250   24.2810   42.2010 C   0  0  0  0  0  0  0  0  0  0  0  0
   38.5840   23.2020   41.9790 H   0  0  0  0  0  0  0  0  0  0  0  0
   39.5050   24.6250   43.0840 C   0  0  0  0  0  3  0  0  0  0  0  0
   39.6190   25.9500   43.5070 C   0  0  0  0  0  3  0  0  0  0  0  0
   38.7130   26.8550   42.9960 C   0  0  0  0  0  0  0  0  0  0  0  0
   38.7200   28.2120   43.3560 C   0  0  0  0  0  3  0  0  0  0  0  0
   37.7690   29.0380   42.8050 C   0  0  0  0  0  3  0  0  0  0  0  0
   36.7880   28.6560   41.9150 C   0  0  0  0  0  3  0  0  0  0  0  0
   36.7880   27.3260   41.5650 C   0  0  0  0  0  3  0  0  0  0  0  0
   37.7280   26.4720   42.0990 C   0  0  0  0  0  0  0  0  0  0  0  0
   34.1530   27.7330   36.7330 C   0  0  0  0  0  3  0  0  0  0  0  0
   32.9010   28.1480   36.6060 C   0  0  0  0  0  3  0  0  0  0  0  0
   32.5500   29.4910   36.1050 C   0  0  0  0  0  0  0  0  0  0  0  0
   33.1470   30.2220   36.6980 H   0  0  0  0  0  0  0  0  0  0  0  0
   32.8420   29.6770   35.0510 H   0  0  0  0  0  0  0  0  0  0  0  0
   29.8440   31.3130   37.6350 C   0  0  1  0  0  0  0  0  0  0  0  0
   30.8570   31.2910   36.4830 C   0  0  0  0  0  0  0  0  0  0  0  0
   31.0860   29.8310   36.3630 C   0  0  2  0  0  0  0  0  0  0  0  0
   30.6050   29.2050   37.4840 O   0  0  0  0  0  0  0  0  0  0  0  0
   30.3150   30.1340   38.4440 C   0  0  0  0  0  0  0  0  0  0  0  0
   28.8300   31.1360   37.2210 H   0  0  0  0  0  0  0  0  0  0  0  0
   30.4650   31.7980   35.5870 H   0  0  0  0  0  0  0  0  0  0  0  0
   31.7740   31.7960   36.8990 H   0  0  0  0  0  0  0  0  0  0  0  0
   30.5110   29.4240   35.5000 H   0  0  0  0  0  0  0  0  0  0  0  0
   31.2100   30.4350   39.0270 H   0  0  0  0  0  0  0  0  0  0  0  0
   29.4880   29.7560   39.0750 H   0  0  0  0  0  0  0  0  0  0  0  0
   29.9520   32.5200   38.3270 O   0  0  0  0  0  0  0  0  0  0  0  0
   29.1070   33.0130   38.4120 H   0  0  0  0  0  0  0  0  0  0  0  0
  1  6  1  0  0  0  0
  2  1  2  0  0  0  0
  2  3  1  0  0  0  0
  3  4  2  0  0  0  0
  4  5  1  0  0  0  0
  5  9  1  0  0  0  0
  6  5  2  0  0  0  0
  7  2  1  0  0  0  0
  8  3  1  0  0  0  0
  9 12  1  6  0  0  0
  9 10  1  0  0  0  0
  9 11  1  0  0  0  0
 10 14  1  0  0  0  0
 10 11  1  0  0  0  0
 11 15  1  1  0  0  0
 11 16  1  0  0  0  0
 13 10  1  0  0  0  0
 16 26  2  0  0  0  0
 16 17  1  0  0  0  0
 17 19  2  0  0  0  0
 18 17  1  0  0  0  0
 19 20  1  0  0  0  0
 21 22  1  0  0  0  0
 21 20  2  0  0  0  0
 23 22  2  0  0  0  0
 24 23  1  0  0  0  0
 25 24  2  0  0  0  0
 25 26  1  0  0  0  0
 26 21  1  0  0  0  0
 27  1  1  0  0  0  0
 28 27  2  0  0  0  0
 29 34  1  0  0  0  0
 29 28  1  0  0  0  0
 29 30  1  0  0  0  0
 31 29  1  0  0  0  0
 32 37  1  6  0  0  0
 32 43  1  0  0  0  0
 32 36  1  0  0  0  0
 33 39  1  0  0  0  0
 33 32  1  0  0  0  0
 34 40  1  6  0  0  0
 34 33  1  0  0  0  0
 34 35  1  0  0  0  0
 35 36  1  0  0  0  0
 36 41  1  0  0  0  0
 36 42  1  0  0  0  0
 38 33  1  0  0  0  0
 43 44  1  0  0  0  0
M  END
>  <minimizedAffinity>
-6.50591564

$$$$

 OpenBabel03242511383D

 44 48  0  0  1  0  0  0  0  0999 V2000
   35.5110   26.2470   37.8700 C   0  0  0  0  0  0  0  0  0  0  0  0
   34.9960   24.9260   37.9110 C   0  0  0  0  0  0  0  0  0  0  0  0
   33.7810   24.6220   37.3140 C   0  0  0  0  0  0  0  0  0  0  0  0
   33.1460   25.6470   36.7090 N   0  0  0  0  0  0  0  0  0  0  0  0
   33.6360   26.9040   36.6700 C   0  0  0  0  0  0  0  0  0  0  0  0
   34.7920   27.1850   37.2400 N   0  0  0  0  0  0  0  0  0  0  0  0
   35.4970   24.1000   38.3930 H   0  0  0  0  0  0  0  0  0  0  0  0
   33.3680   23.6270   37.3320 H   0  0  0  0  0  0  0  0  0  0  0  0
   32.8900   28.0100   35.9590 C   0  0  2  0  0  0  0  0  0  0  0  0
   33.5850   29.2250   35.5310 C   0  0  0  0  0  0  0  0  0  0  0  0
   32.6870   29.3100   36.6690 C   0  0  1  0  0  0  0  0  0  0  0  0
   32.1010   27.5180   35.3520 H   0  0  0  0  0  0  0  0  0  0  0  0
   34.6900   29.1750   35.6630 H   0  0  0  0  0  0  0  0  0  0  0  0
   33.4450   29.7280   34.5590 H   0  0  0  0  0  0  0  0  0  0  0  0
   33.2440   29.3290   37.6300 H   0  0  0  0  0  0  0  0  0  0  0  0
   31.4770   30.0740   36.8270 C   0  0  0  0  0  0  0  0  0  0  0  0
   30.9130   29.9110   38.1020 C   0  0  0  0  0  0  0  0  0  0  0  0
   31.3080   29.2510   38.8930 H   0  0  0  0  0  0  0  0  0  0  0  0
   29.7950   30.5500   38.5480 C   0  0  0  0  0  3  0  0  0  0  0  0
   29.1270   31.4400   37.7060 C   0  0  0  0  0  3  0  0  0  0  0  0
   29.6500   31.6260   36.4440 C   0  0  0  0  0  0  0  0  0  0  0  0
   29.0590   32.4870   35.5040 C   0  0  0  0  0  3  0  0  0  0  0  0
   29.6440   32.5990   34.2650 C   0  0  0  0  0  3  0  0  0  0  0  0
   30.7750   31.9360   33.8450 C   0  0  0  0  0  3  0  0  0  0  0  0
   31.3500   31.0950   34.7700 C   0  0  0  0  0  3  0  0  0  0  0  0
   30.7900   30.9610   36.0220 C   0  0  0  0  0  0  0  0  0  0  0  0
   36.7840   26.4990   38.5160 C   0  0  0  0  0  3  0  0  0  0  0  0
   36.7900   26.6790   39.8300 C   0  0  0  0  0  3  0  0  0  0  0  0
   38.0230   26.9420   40.5960 C   0  0  0  0  0  0  0  0  0  0  0  0
   38.1470   26.0950   41.3090 H   0  0  0  0  0  0  0  0  0  0  0  0
   38.9500   26.9370   39.9860 H   0  0  0  0  0  0  0  0  0  0  0  0
   36.6440   30.1390   41.5240 C   0  0  1  0  0  0  0  0  0  0  0  0
   36.4970   28.6170   41.6530 C   0  0  0  0  0  0  0  0  0  0  0  0
   37.9060   28.2010   41.4500 C   0  0  2  0  0  0  0  0  0  0  0  0
   38.6140   29.2470   40.9190 O   0  0  0  0  0  0  0  0  0  0  0  0
   37.7550   30.2290   40.5120 C   0  0  0  0  0  0  0  0  0  0  0  0
   36.9600   30.5500   42.5050 H   0  0  0  0  0  0  0  0  0  0  0  0
   36.0390   28.3320   42.6120 H   0  0  0  0  0  0  0  0  0  0  0  0
   35.8710   28.3150   40.7670 H   0  0  0  0  0  0  0  0  0  0  0  0
   38.3780   27.9620   42.4300 H   0  0  0  0  0  0  0  0  0  0  0  0
   37.3350   30.0340   39.5040 H   0  0  0  0  0  0  0  0  0  0  0  0
   38.2600   31.2100   40.5950 H   0  0  0  0  0  0  0  0  0  0  0  0
   35.4460   30.6840   41.0610 O   0  0  0  0  0  0  0  0  0  0  0  0
   35.0840   31.4010   41.6270 H   0  0  0  0  0  0  0  0  0  0  0  0
  1  2  1  0  0  0  0
  1 27  1  0  0  0  0
  2  7  1  0  0  0  0
  3  8  1  0  0  0  0
  3  2  2  0  0  0  0
  4  3  1  0  0  0  0
  5  4  2  0  0  0  0
  5  6  1  0  0  0  0
  6  1  2  0  0  0  0
  9 12  1  6  0  0  0
  9 11  1  0  0  0  0
  9  5  1  0  0  0  0
 10 13  1  0  0  0  0
 10  9  1  0  0  0  0
 10 11  1  0  0  0  0
 11 16  1  0  0  0  0
 11 15  1  1  0  0  0
 14 10  1  0  0  0  0
 16 17  1  0  0  0  0
 17 19  2  0  0  0  0
 17 18  1  0  0  0  0
 20 19  1  0  0  0  0
 21 20  2  0  0  0  0
 22 21  1  0  0  0  0
 23 22  2  0  0  0  0
 24 23  1  0  0  0  0
 24 25  2  0  0  0  0
 25 26  1  0  0  0  0
 26 21  1  0  0  0  0
 26 16  2  0  0  0  0
 27 28  2  0  0  0  0
 28 29  1  0  0  0  0
 29 30  1  0  0  0  0
 29 34  1  0  0  0  0
 31 29  1  0  0  0  0
 32 33  1  0  0  0  0
 32 37  1  1  0  0  0
 33 38  1  0  0  0  0
 34 33  1  0  0  0  0
 34 40  1  1  0  0  0
 35 34  1  0  0  0  0
 36 42  1  0  0  0  0
 36 35  1  0  0  0  0
 36 32  1  0  0  0  0
 39 33  1  0  0  0  0
 41 36  1  0  0  0  0
 43 32  1  0  0  0  0
 43 44  1  0  0  0  0
M  END
>  <minimizedAffinity>
-6.49355841

$$$$

 OpenBabel03242511383D

 44 48  0  0  1  0  0  0  0  0999 V2000
   40.5560   33.3450   40.6690 C   0  0  0  0  0  0  0  0  0  0  0  0
   39.8480   34.5340   40.3550 C   0  0  0  0  0  0  0  0  0  0  0  0
   38.4910   34.4960   40.0730 C   0  0  0  0  0  0  0  0  0  0  0  0
   37.9110   33.2780   40.1180 N   0  0  0  0  0  0  0  0  0  0  0  0
   38.5840   32.1470   40.4170 C   0  0  0  0  0  0  0  0  0  0  0  0
   39.8750   32.1920   40.6840 N   0  0  0  0  0  0  0  0  0  0  0  0
   40.3040   35.5120   40.3160 H   0  0  0  0  0  0  0  0  0  0  0  0
   37.9310   35.3840   39.8310 H   0  0  0  0  0  0  0  0  0  0  0  0
   37.8780   30.8110   40.4730 C   0  0  2  0  0  0  0  0  0  0  0  0
   36.5200   30.7060   41.0110 C   0  0  0  0  0  0  0  0  0  0  0  0
   37.6200   30.1910   41.8090 C   0  0  1  0  0  0  0  0  0  0  0  0
   38.2250   30.2340   39.5910 H   0  0  0  0  0  0  0  0  0  0  0  0
   36.0510   31.6920   41.2320 H   0  0  0  0  0  0  0  0  0  0  0  0
   35.7070   30.1060   40.5690 H   0  0  0  0  0  0  0  0  0  0  0  0
   37.8910   30.8880   42.6300 H   0  0  0  0  0  0  0  0  0  0  0  0
   37.8830   28.8450   42.2460 C   0  0  0  0  0  0  0  0  0  0  0  0
   36.7320   28.0430   42.2030 C   0  0  0  0  0  0  0  0  0  0  0  0
   35.7260   28.3880   41.9110 H   0  0  0  0  0  0  0  0  0  0  0  0
   36.6940   26.7160   42.5140 C   0  0  0  0  0  3  0  0  0  0  0  0
   37.8640   26.0670   42.9120 C   0  0  0  0  0  3  0  0  0  0  0  0
   39.0150   26.8220   42.9690 C   0  0  0  0  0  0  0  0  0  0  0  0
   40.2490   26.2840   43.3670 C   0  0  0  0  0  3  0  0  0  0  0  0
   41.3430   27.1160   43.4060 C   0  0  0  0  0  3  0  0  0  0  0  0
   41.3460   28.4570   43.0870 C   0  0  0  0  0  3  0  0  0  0  0  0
   40.1340   28.9780   42.6970 C   0  0  0  0  0  3  0  0  0  0  0  0
   39.0200   28.1700   42.6450 C   0  0  0  0  0  0  0  0  0  0  0  0
   41.9730   33.4540   40.9500 C   0  0  0  0  0  3  0  0  0  0  0  0
   42.7530   33.9900   40.0210 C   0  0  0  0  0  3  0  0  0  0  0  0
   44.2090   34.1530   40.1950 C   0  0  0  0  0  0  0  0  0  0  0  0
   44.3820   35.2130   40.4910 H   0  0  0  0  0  0  0  0  0  0  0  0
   44.6410   33.5540   41.0230 H   0  0  0  0  0  0  0  0  0  0  0  0
   44.8920   32.5630   37.0340 C   0  0  1  0  0  0  0  0  0  0  0  0
   44.0600   33.6340   37.7540 C   0  0  0  0  0  0  0  0  0  0  0  0
   44.9650   33.9490   38.8860 C   0  0  2  0  0  0  0  0  0  0  0  0
   45.9160   32.9680   38.9910 O   0  0  0  0  0  0  0  0  0  0  0  0
   45.5740   31.9050   38.2030 C   0  0  0  0  0  0  0  0  0  0  0  0
   45.6260   33.0680   36.3730 H   0  0  0  0  0  0  0  0  0  0  0  0
   43.8070   34.4710   37.0850 H   0  0  0  0  0  0  0  0  0  0  0  0
   43.1490   33.0860   38.1250 H   0  0  0  0  0  0  0  0  0  0  0  0
   45.5090   34.9000   38.6850 H   0  0  0  0  0  0  0  0  0  0  0  0
   44.8530   31.2240   38.7000 H   0  0  0  0  0  0  0  0  0  0  0  0
   46.4950   31.3950   37.8630 H   0  0  0  0  0  0  0  0  0  0  0  0
   44.0400   31.6970   36.3480 O   0  0  0  0  0  0  0  0  0  0  0  0
   44.2490   31.6000   35.3920 H   0  0  0  0  0  0  0  0  0  0  0  0
  1  6  1  0  0  0  0
  1 27  1  0  0  0  0
  2  1  2  0  0  0  0
  3  4  2  0  0  0  0
  3  2  1  0  0  0  0
  4  5  1  0  0  0  0
  5  9  1  0  0  0  0
  5  6  2  0  0  0  0
  7  2  1  0  0  0  0
  8  3  1  0  0  0  0
  9 12  1  6  0  0  0
  9 10  1  0  0  0  0
  9 11  1  0  0  0  0
 10 13  1  0  0  0  0
 10 11  1  0  0  0  0
 11 16  1  0  0  0  0
 11 15  1  1  0  0  0
 14 10  1  0  0  0  0
 16 26  1  0  0  0  0
 17 16  2  0  0  0  0
 17 19  1  0  0  0  0
 18 17  1  0  0  0  0
 19 20  2  0  0  0  0
 20 21  1  0  0  0  0
 21 22  1  0  0  0  0
 22 23  2  0  0  0  0
 24 23  1  0  0  0  0
 25 24  2  0  0  0  0
 26 25  1  0  0  0  0
 26 21  2  0  0  0  0
 28 29  1  0  0  0  0
 28 27  2  0  0  0  0
 29 30  1  0  0  0  0
 29 31  1  0  0  0  0
 32 37  1  6  0  0  0
 32 33  1  0  0  0  0
 32 36  1  0  0  0  0
 33 39  1  0  0  0  0
 33 34  1  0  0  0  0
 34 40  1  6  0  0  0
 34 35  1  0  0  0  0
 34 29  1  0  0  0  0
 36 41  1  0  0  0  0
 36 35  1  0  0  0  0
 38 33  1  0  0  0  0
 42 36  1  0  0  0  0
 43 32  1  0  0  0  0
 44 43  1  0  0  0  0
M  END
>  <minimizedAffinity>
-6.47001266

$$$$

 OpenBabel03242511383D

 44 48  0  0  1  0  0  0  0  0999 V2000
   36.6200   29.5280   37.2140 C   0  0  0  0  0  0  0  0  0  0  0  0
   37.4540   28.6500   36.4750 C   0  0  0  0  0  0  0  0  0  0  0  0
   36.9060   27.7070   35.6180 C   0  0  0  0  0  0  0  0  0  0  0  0
   35.5590   27.6890   35.5410 N   0  0  0  0  0  0  0  0  0  0  0  0
   34.7650   28.5250   36.2430 C   0  0  0  0  0  0  0  0  0  0  0  0
   35.2940   29.4190   37.0570 N   0  0  0  0  0  0  0  0  0  0  0  0
   38.5320   28.6570   36.5300 H   0  0  0  0  0  0  0  0  0  0  0  0
   37.5170   27.0280   35.0470 H   0  0  0  0  0  0  0  0  0  0  0  0
   33.2600   28.4730   36.1030 C   0  0  2  0  0  0  0  0  0  0  0  0
   32.6390   28.2740   34.7930 C   0  0  0  0  0  0  0  0  0  0  0  0
   32.5670   29.5930   35.3960 C   0  0  1  0  0  0  0  0  0  0  0  0
   32.8730   28.0070   37.0330 H   0  0  0  0  0  0  0  0  0  0  0  0
   33.3690   28.0420   33.9840 H   0  0  0  0  0  0  0  0  0  0  0  0
   31.7830   27.6080   34.5900 H   0  0  0  0  0  0  0  0  0  0  0  0
   33.3000   30.2910   34.9420 H   0  0  0  0  0  0  0  0  0  0  0  0
   31.4140   30.3480   35.8130 C   0  0  0  0  0  0  0  0  0  0  0  0
   31.1620   30.2090   37.1870 C   0  0  0  0  0  0  0  0  0  0  0  0
   31.7390   29.5730   37.8790 H   0  0  0  0  0  0  0  0  0  0  0  0
   30.1660   30.8470   37.8650 C   0  0  0  0  0  3  0  0  0  0  0  0
   29.3080   31.7090   37.1820 C   0  0  0  0  0  3  0  0  0  0  0  0
   29.5220   31.8700   35.8300 C   0  0  0  0  0  0  0  0  0  0  0  0
   28.7170   32.7020   35.0340 C   0  0  0  0  0  3  0  0  0  0  0  0
   28.9980   32.7900   33.6910 C   0  0  0  0  0  3  0  0  0  0  0  0
   30.0130   32.1290   33.0350 C   0  0  0  0  0  3  0  0  0  0  0  0
   30.7990   31.3170   33.8200 C   0  0  0  0  0  3  0  0  0  0  0  0
   30.5450   31.2080   35.1700 C   0  0  0  0  0  0  0  0  0  0  0  0
   37.2560   30.4880   38.0940 C   0  0  0  0  0  3  0  0  0  0  0  0
   36.6890   30.7250   39.2690 C   0  0  0  0  0  3  0  0  0  0  0  0
   37.2450   31.6800   40.2470 C   0  0  0  0  0  0  0  0  0  0  0  0
   36.4000   32.3220   40.5860 H   0  0  0  0  0  0  0  0  0  0  0  0
   37.6350   31.2110   41.1730 H   0  0  0  0  0  0  0  0  0  0  0  0
   40.1430   33.8220   40.2240 C   0  0  1  0  0  0  0  0  0  0  0  0
   39.6410   32.3770   40.0960 C   0  0  0  0  0  0  0  0  0  0  0  0
   38.2620   32.6210   39.6090 C   0  0  2  0  0  0  0  0  0  0  0  0
   37.9380   33.9380   39.8110 O   0  0  0  0  0  0  0  0  0  0  0  0
   38.8710   34.5260   40.6170 C   0  0  0  0  0  0  0  0  0  0  0  0
   40.4990   34.1640   39.2300 H   0  0  0  0  0  0  0  0  0  0  0  0
   40.2900   31.7770   39.4390 H   0  0  0  0  0  0  0  0  0  0  0  0
   39.6180   31.9890   41.1530 H   0  0  0  0  0  0  0  0  0  0  0  0
   38.2090   32.4460   38.5100 H   0  0  0  0  0  0  0  0  0  0  0  0
   38.6790   34.3390   41.6940 H   0  0  0  0  0  0  0  0  0  0  0  0
   38.9430   35.6010   40.3650 H   0  0  0  0  0  0  0  0  0  0  0  0
   41.1250   33.8880   41.2120 O   0  0  0  0  0  0  0  0  0  0  0  0
   41.9710   34.2890   40.9130 H   0  0  0  0  0  0  0  0  0  0  0  0
  1 27  1  0  0  0  0
  2  7  1  0  0  0  0
  2  1  2  0  0  0  0
  3  2  1  0  0  0  0
  4  3  2  0  0  0  0
  4  5  1  0  0  0  0
  5  6  2  0  0  0  0
  6  1  1  0  0  0  0
  8  3  1  0  0  0  0
  9  5  1  0  0  0  0
  9 12  1  1  0  0  0
 10 11  1  0  0  0  0
 10  9  1  0  0  0  0
 11 15  1  6  0  0  0
 11 16  1  0  0  0  0
 11  9  1  0  0  0  0
 13 10  1  0  0  0  0
 14 10  1  0  0  0  0
 16 17  1  0  0  0  0
 17 19  2  0  0  0  0
 17 18  1  0  0  0  0
 20 19  1  0  0  0  0
 21 20  2  0  0  0  0
 22 21  1  0  0  0  0
 23 22  2  0  0  0  0
 24 23  1  0  0  0  0
 24 25  2  0  0  0  0
 25 26  1  0  0  0  0
 26 16  2  0  0  0  0
 26 21  1  0  0  0  0
 27 28  2  0  0  0  0
 28 29  1  0  0  0  0
 29 30  1  0  0  0  0
 29 31  1  0  0  0  0
 32 37  1  6  0  0  0
 32 36  1  0  0  0  0
 32 43  1  0  0  0  0
 33 32  1  0  0  0  0
 33 39  1  0  0  0  0
 34 40  1  6  0  0  0
 34 35  1  0  0  0  0
 34 33  1  0  0  0  0
 34 29  1  0  0  0  0
 35 36  1  0  0  0  0
 36 41  1  0  0  0  0
 38 33  1  0  0  0  0
 42 36  1  0  0  0  0
 44 43  1  0  0  0  0
M  END
>  <minimizedAffinity>
-6.46239853

$$$$

 OpenBabel03242511383D

 44 48  0  0  1  0  0  0  0  0999 V2000
   37.2580   30.2260   36.8500 C   0  0  0  0  0  0  0  0  0  0  0  0
   36.5570   30.2820   35.6180 C   0  0  0  0  0  0  0  0  0  0  0  0
   36.0030   29.1370   35.0660 C   0  0  0  0  0  0  0  0  0  0  0  0
   36.1760   27.9980   35.7680 N   0  0  0  0  0  0  0  0  0  0  0  0
   36.8420   27.9440   36.9410 C   0  0  0  0  0  0  0  0  0  0  0  0
   37.3660   29.0370   37.4600 N   0  0  0  0  0  0  0  0  0  0  0  0
   36.4140   31.1890   35.0490 H   0  0  0  0  0  0  0  0  0  0  0  0
   35.4680   29.1530   34.1310 H   0  0  0  0  0  0  0  0  0  0  0  0
   36.9880   26.6420   37.6950 C   0  0  2  0  0  0  0  0  0  0  0  0
   35.8290   25.7790   37.9270 C   0  0  0  0  0  0  0  0  0  0  0  0
   36.3680   26.5240   39.0510 C   0  0  1  0  0  0  0  0  0  0  0  0
   37.9970   26.2470   37.4510 H   0  0  0  0  0  0  0  0  0  0  0  0
   34.9100   26.1130   37.3920 H   0  0  0  0  0  0  0  0  0  0  0  0
   35.8230   24.6800   37.8240 H   0  0  0  0  0  0  0  0  0  0  0  0
   35.7500   27.4170   39.2840 H   0  0  0  0  0  0  0  0  0  0  0  0
   36.9540   26.0420   40.2740 C   0  0  0  0  0  0  0  0  0  0  0  0
   36.7900   24.6560   40.4260 C   0  0  0  0  0  0  0  0  0  0  0  0
   36.2460   23.9990   39.7260 H   0  0  0  0  0  0  0  0  0  0  0  0
   37.2840   23.9220   41.4620 C   0  0  0  0  0  3  0  0  0  0  0  0
   38.0110   24.5540   42.4710 C   0  0  0  0  0  3  0  0  0  0  0  0
   38.1930   25.9160   42.3590 C   0  0  0  0  0  0  0  0  0  0  0  0
   38.8960   26.6630   43.3170 C   0  0  0  0  0  3  0  0  0  0  0  0
   39.0150   28.0190   43.1280 C   0  0  0  0  0  3  0  0  0  0  0  0
   38.5010   28.7330   42.0680 C   0  0  0  0  0  3  0  0  0  0  0  0
   37.8140   27.9950   41.1320 C   0  0  0  0  0  3  0  0  0  0  0  0
   37.6780   26.6330   41.2910 C   0  0  0  0  0  0  0  0  0  0  0  0
   37.8150   31.4580   37.3710 C   0  0  0  0  0  3  0  0  0  0  0  0
   38.6080   31.3830   38.4310 C   0  0  0  0  0  3  0  0  0  0  0  0
   39.2320   32.5690   39.0490 C   0  0  0  0  0  0  0  0  0  0  0  0
   38.8990   33.4530   38.4580 H   0  0  0  0  0  0  0  0  0  0  0  0
   38.8940   32.7760   40.0850 H   0  0  0  0  0  0  0  0  0  0  0  0
   42.4160   33.4050   37.5840 C   0  0  1  0  0  0  0  0  0  0  0  0
   41.3220   33.8520   38.5620 C   0  0  0  0  0  0  0  0  0  0  0  0
   40.7530   32.5350   38.9380 C   0  0  2  0  0  0  0  0  0  0  0  0
   41.1800   31.5870   38.0450 O   0  0  0  0  0  0  0  0  0  0  0  0
   41.7650   32.1950   36.9700 C   0  0  0  0  0  0  0  0  0  0  0  0
   43.3190   33.1230   38.1650 H   0  0  0  0  0  0  0  0  0  0  0  0
   41.7330   34.4580   39.3850 H   0  0  0  0  0  0  0  0  0  0  0  0
   40.5890   34.4260   37.9270 H   0  0  0  0  0  0  0  0  0  0  0  0
   41.1350   32.2260   39.9370 H   0  0  0  0  0  0  0  0  0  0  0  0
   41.0230   32.5320   36.2170 H   0  0  0  0  0  0  0  0  0  0  0  0
   42.5390   31.5230   36.5510 H   0  0  0  0  0  0  0  0  0  0  0  0
   42.6540   34.4190   36.6570 O   0  0  0  0  0  0  0  0  0  0  0  0
   43.5950   34.6970   36.5960 H   0  0  0  0  0  0  0  0  0  0  0  0
  1 27  1  0  0  0  0
  1  6  1  0  0  0  0
  2  1  2  0  0  0  0
  3  2  1  0  0  0  0
  3  4  2  0  0  0  0
  4  5  1  0  0  0  0
  5  6  2  0  0  0  0
  5  9  1  0  0  0  0
  7  2  1  0  0  0  0
  8  3  1  0  0  0  0
  9 12  1  6  0  0  0
  9 10  1  0  0  0  0
  9 11  1  0  0  0  0
 10 11  1  0  0  0  0
 11 15  1  1  0  0  0
 11 16  1  0  0  0  0
 13 10  1  0  0  0  0
 14 10  1  0  0  0  0
 16 17  2  0  0  0  0
 16 26  1  0  0  0  0
 17 19  1  0  0  0  0
 18 17  1  0  0  0  0
 19 20  2  0  0  0  0
 21 20  1  0  0  0  0
 21 22  1  0  0  0  0
 23 22  2  0  0  0  0
 24 23  1  0  0  0  0
 25 26  1  0  0  0  0
 25 24  2  0  0  0  0
 26 21  2  0  0  0  0
 27 28  2  0  0  0  0
 28 29  1  0  0  0  0
 29 31  1  0  0  0  0
 30 29  1  0  0  0  0
 32 37  1  1  0  0  0
 32 33  1  0  0  0  0
 33 34  1  0  0  0  0
 33 38  1  0  0  0  0
 34 29  1  0  0  0  0
 34 40  1  1  0  0  0
 35 34  1  0  0  0  0
 36 32  1  0  0  0  0
 36 35  1  0  0  0  0
 39 33  1  0  0  0  0
 41 36  1  0  0  0  0
 42 36  1  0  0  0  0
 43 32  1  0  0  0  0
 44 43  1  0  0  0  0
M  END
>  <minimizedAffinity>
-6.43177605

$$$$

 OpenBabel03242511383D

 44 48  0  0  1  0  0  0  0  0999 V2000
   39.2730   31.9400   40.3160 C   0  0  0  0  0  0  0  0  0  0  0  0
   38.3250   32.9220   39.9310 C   0  0  0  0  0  0  0  0  0  0  0  0
   37.0930   32.5520   39.4120 C   0  0  0  0  0  0  0  0  0  0  0  0
   36.8720   31.2260   39.3030 N   0  0  0  0  0  0  0  0  0  0  0  0
   37.7730   30.2910   39.6700 C   0  0  0  0  0  0  0  0  0  0  0  0
   38.9420   30.6510   40.1630 N   0  0  0  0  0  0  0  0  0  0  0  0
   38.4940   33.9860   40.0140 H   0  0  0  0  0  0  0  0  0  0  0  0
   36.3570   33.2790   39.1110 H   0  0  0  0  0  0  0  0  0  0  0  0
   37.4620   28.8160   39.5450 C   0  0  2  0  0  0  0  0  0  0  0  0
   36.0830   28.3340   39.6300 C   0  0  0  0  0  0  0  0  0  0  0  0
   36.9720   28.0810   40.7510 C   0  0  1  0  0  0  0  0  0  0  0  0
   38.2070   28.3960   38.8370 H   0  0  0  0  0  0  0  0  0  0  0  0
   35.3260   29.1510   39.6580 H   0  0  0  0  0  0  0  0  0  0  0  0
   35.6370   27.5670   38.9740 H   0  0  0  0  0  0  0  0  0  0  0  0
   36.7790   28.7800   41.5910 H   0  0  0  0  0  0  0  0  0  0  0  0
   37.4290   26.8290   41.2940 C   0  0  0  0  0  0  0  0  0  0  0  0
   36.6970   25.7400   40.7950 C   0  0  0  0  0  0  0  0  0  0  0  0
   35.8430   25.8120   40.1000 H   0  0  0  0  0  0  0  0  0  0  0  0
   36.9400   24.4330   41.0970 C   0  0  0  0  0  3  0  0  0  0  0  0
   37.9830   24.1080   41.9630 C   0  0  0  0  0  3  0  0  0  0  0  0
   38.7250   25.1500   42.4760 C   0  0  0  0  0  0  0  0  0  0  0  0
   39.7910   24.9480   43.3670 C   0  0  0  0  0  3  0  0  0  0  0  0
   40.4670   26.0500   43.8370 C   0  0  0  0  0  3  0  0  0  0  0  0
   40.1930   27.3610   43.5140 C   0  0  0  0  0  3  0  0  0  0  0  0
   39.1480   27.5520   42.6390 C   0  0  0  0  0  3  0  0  0  0  0  0
   38.4520   26.4690   42.1490 C   0  0  0  0  0  0  0  0  0  0  0  0
   40.5420   32.3940   40.8500 C   0  0  0  0  0  3  0  0  0  0  0  0
   40.9720   33.5960   40.4920 C   0  0  0  0  0  3  0  0  0  0  0  0
   42.2480   34.1640   40.9700 C   0  0  0  0  0  0  0  0  0  0  0  0
   42.0600   35.2410   41.1850 H   0  0  0  0  0  0  0  0  0  0  0  0
   42.6050   33.7410   41.9310 H   0  0  0  0  0  0  0  0  0  0  0  0
   43.6670   33.1910   37.8040 C   0  0  1  0  0  0  0  0  0  0  0  0
   42.7600   34.1990   38.5230 C   0  0  0  0  0  0  0  0  0  0  0  0
   43.3260   34.1290   39.8920 C   0  0  2  0  0  0  0  0  0  0  0  0
   44.1190   33.0150   39.9970 O   0  0  0  0  0  0  0  0  0  0  0  0
   43.9260   32.2060   38.9130 C   0  0  0  0  0  0  0  0  0  0  0  0
   44.6010   33.7060   37.5000 H   0  0  0  0  0  0  0  0  0  0  0  0
   42.7830   35.1870   38.0370 H   0  0  0  0  0  0  0  0  0  0  0  0
   41.7370   33.7290   38.5010 H   0  0  0  0  0  0  0  0  0  0  0  0
   43.9860   35.0070   40.0770 H   0  0  0  0  0  0  0  0  0  0  0  0
   43.0360   31.5530   39.0240 H   0  0  0  0  0  0  0  0  0  0  0  0
   44.8580   31.6460   38.7080 H   0  0  0  0  0  0  0  0  0  0  0  0
   42.9760   32.6270   36.7310 O   0  0  0  0  0  0  0  0  0  0  0  0
   43.4400   32.7030   35.8680 H   0  0  0  0  0  0  0  0  0  0  0  0
  1 27  1  0  0  0  0
  2  7  1  0  0  0  0
  2  1  2  0  0  0  0
  3  2  1  0  0  0  0
  4  3  2  0  0  0  0
  4  5  1  0  0  0  0
  5  6  2  0  0  0  0
  6  1  1  0  0  0  0
  8  3  1  0  0  0  0
  9 12  1  6  0  0  0
  9 10  1  0  0  0  0
  9  5  1  0  0  0  0
  9 11  1  0  0  0  0
 10 13  1  0  0  0  0
 10 11  1  0  0  0  0
 11 16  1  0  0  0  0
 11 15  1  1  0  0  0
 14 10  1  0  0  0  0
 16 26  1  0  0  0  0
 17 19  1  0  0  0  0
 17 16  2  0  0  0  0
 18 17  1  0  0  0  0
 19 20  2  0  0  0  0
 20 21  1  0  0  0  0
 21 22  1  0  0  0  0
 22 23  2  0  0  0  0
 24 23  1  0  0  0  0
 25 24  2  0  0  0  0
 26 21  2  0  0  0  0
 26 25  1  0  0  0  0
 28 27  2  0  0  0  0
 28 29  1  0  0  0  0
 29 30  1  0  0  0  0
 29 31  1  0  0  0  0
 32 37  1  6  0  0  0
 32 33  1  0  0  0  0
 32 36  1  0  0  0  0
 33 34  1  0  0  0  0
 34 35  1  0  0  0  0
 34 40  1  1  0  0  0
 34 29  1  0  0  0  0
 36 41  1  0  0  0  0
 36 35  1  0  0  0  0
 38 33  1  0  0  0  0
 39 33  1  0  0  0  0
 42 36  1  0  0  0  0
 43 32  1  0  0  0  0
 44 43  1  0  0  0  0
M  END
>  <minimizedAffinity>
-6.38811827

$$$$
