
 OpenBabel03242520423D

 41 45  0  0  1  0  0  0  0  0999 V2000
   45.8910   33.5170   45.8340 C   0  0  0  0  0  0  0  0  0  0  0  0
   46.6680   33.6410   44.6520 C   0  0  0  0  0  0  0  0  0  0  0  0
   47.2960   32.4660   44.1380 C   0  0  0  0  0  0  0  0  0  0  0  0
   47.1240   31.2800   44.7990 N   0  0  0  0  0  0  0  0  0  0  0  0
   46.3620   31.2320   45.9290 C   0  0  0  0  0  0  0  0  0  0  0  0
   45.7580   32.3370   46.4340 N   0  0  0  0  0  0  0  0  0  0  0  0
   46.2460   29.9760   46.5370 N   0  0  0  0  0  0  0  0  0  0  0  0
   47.3970   29.2700   46.9960 C   0  0  2  0  0  0  0  0  0  0  0  0
   47.1680   27.8490   47.3780 C   0  0  0  0  0  0  0  0  0  0  0  0
   45.8810   27.5310   47.8820 N   0  0  0  0  0  0  0  0  0  0  0  0
   45.0060   28.6360   48.0240 C   0  0  0  0  0  0  0  0  0  0  0  0
   44.9340   29.3790   46.7110 C   0  0  0  0  0  0  0  0  0  0  0  0
   45.4550   34.4450   46.1530 H   0  0  0  0  0  0  0  0  0  0  0  0
   46.7980   34.5880   44.1370 H   0  0  0  0  0  0  0  0  0  0  0  0
   47.8920   32.5120   43.2490 H   0  0  0  0  0  0  0  0  0  0  0  0
   48.0880   29.2110   46.1050 H   0  0  0  0  0  0  0  0  0  0  0  0
   47.3640   27.1470   46.5410 H   0  0  0  0  0  0  0  0  0  0  0  0
   47.9600   27.5920   48.1370 H   0  0  0  0  0  0  0  0  0  0  0  0
   45.9610   27.0520   48.7970 H   0  0  0  0  0  0  0  0  0  0  0  0
   45.1500   29.2500   48.9060 H   0  0  0  0  0  0  0  0  0  0  0  0
   43.9680   28.1970   48.1480 H   0  0  0  0  0  0  0  0  0  0  0  0
   44.6560   28.6780   45.9260 H   0  0  0  0  0  0  0  0  0  0  0  0
   44.1980   30.2130   46.8380 H   0  0  0  0  0  0  0  0  0  0  0  0
   48.1320   30.0440   48.0460 C   0  0  0  0  0  0  0  0  0  0  0  0
   47.7170   30.7990   49.1110 C   0  0  0  0  0  0  0  0  0  0  0  0
   48.7760   31.2870   49.7610 N   0  0  0  0  0  0  0  0  0  0  0  0
   49.8560   30.8730   49.1490 C   0  0  0  0  0  0  0  0  0  0  0  0
   49.4640   30.1250   48.1210 N   0  0  0  0  0  0  0  0  0  0  0  0
   46.6650   30.9460   49.3450 H   0  0  0  0  0  0  0  0  0  0  0  0
   48.6570   31.8410   50.5960 H   0  0  0  0  0  0  0  0  0  0  0  0
   51.2740   31.0880   49.2900 C   0  0  0  0  0  0  0  0  0  0  0  0
   52.2040   30.1320   48.8530 C   0  0  0  0  0  0  0  0  0  0  0  0
   51.8310   29.1960   48.4040 H   0  0  0  0  0  0  0  0  0  0  0  0
   53.5660   30.2440   48.9290 C   0  0  0  0  0  0  0  0  0  0  0  0
   54.1230   31.3770   49.4730 C   0  0  0  0  0  0  0  0  0  0  0  0
   53.2840   32.3480   49.9140 C   0  0  0  0  0  0  0  0  0  0  0  0
   53.8770   33.4740   50.4210 C   0  0  0  0  0  0  0  0  0  0  0  0
   53.1160   34.5320   50.8660 C   0  0  0  0  0  0  0  0  0  0  0  0
   51.7360   34.3840   50.7670 C   0  0  0  0  0  0  0  0  0  0  0  0
   51.1960   33.2320   50.2510 C   0  0  0  0  0  0  0  0  0  0  0  0
   51.9330   32.1680   49.8060 C   0  0  0  0  0  0  0  0  0  0  0  0
  1 13  1  0  0  0  0
  1  6  1  0  0  0  0
  2  1  2  0  0  0  0
  3  2  1  0  0  0  0
  3  4  2  0  0  0  0
  4  5  1  0  0  0  0
  5  6  2  0  0  0  0
  5  7  1  0  0  0  0
  7 12  1  0  0  0  0
  7  8  1  0  0  0  0
  8 16  1  6  0  0  0
  8  9  1  0  0  0  0
  8 24  1  0  0  0  0
  9 10  1  0  0  0  0
  9 18  1  0  0  0  0
 10 11  1  0  0  0  0
 10 19  1  0  0  0  0
 11 21  1  0  0  0  0
 11 20  1  0  0  0  0
 12 23  1  0  0  0  0
 12 11  1  0  0  0  0
 14  2  1  0  0  0  0
 15  3  1  0  0  0  0
 17  9  1  0  0  0  0
 22 12  1  0  0  0  0
 24 28  1  0  0  0  0
 24 25  2  0  0  0  0
 25 29  1  0  0  0  0
 25 26  1  0  0  0  0
 26 30  1  0  0  0  0
 27 31  1  0  0  0  0
 27 26  1  0  0  0  0
 28 27  2  0  0  0  0
 31 41  1  0  0  0  0
 32 34  1  0  0  0  0
 32 31  2  0  0  0  0
 33 32  1  0  0  0  0
 34 35  2  0  0  0  0
 35 36  1  0  0  0  0
 36 37  1  0  0  0  0
 37 38  2  0  0  0  0
 39 38  1  0  0  0  0
 40 39  2  0  0  0  0
 41 36  2  0  0  0  0
 41 40  1  0  0  0  0
M  END
>  <minimizedAffinity>
-6.02512932

>  <minimizedRMSD>
0.286799461

$$$$
