
 OpenBabel03252506593D

 26 28  0  0  0  0  0  0  0  0999 V2000
   46.1140   33.1300   41.4950 C   0  0  0  0  0  0  0  0  0  0  0  0
   46.2920   32.0430   41.3930 H   0  0  0  0  0  0  0  0  0  0  0  0
   45.4410   33.2980   42.3520 H   0  0  0  0  0  0  0  0  0  0  0  0
   47.3730   33.8600   41.7440 C   0  0  0  0  0  0  0  0  0  0  0  0
   47.4780   35.2270   41.7850 C   0  0  0  0  0  0  0  0  0  0  0  0
   46.5860   35.8330   41.6360 H   0  0  0  0  0  0  0  0  0  0  0  0
   48.6790   35.8730   42.0110 C   0  0  0  0  0  3  0  0  0  0  0  0
   49.8380   35.1920   42.2060 C   0  0  0  0  0  3  0  0  0  0  0  0
   49.7430   33.8080   42.1660 C   0  0  0  0  0  0  0  0  0  0  0  0
   50.9260   33.0950   42.3700 C   0  0  0  0  0  3  0  0  0  0  0  0
   50.9420   31.7150   42.3560 C   0  0  0  0  0  3  0  0  0  0  0  0
   49.7550   31.0410   42.1330 C   0  0  0  0  0  3  0  0  0  0  0  0
   48.6160   31.7950   41.9370 C   0  0  0  0  0  3  0  0  0  0  0  0
   48.5500   33.1700   41.9430 C   0  0  0  0  0  0  0  0  0  0  0  0
   45.4190   33.5970   40.2280 C   0  0  0  0  0  0  0  0  0  0  0  0
   45.5050   32.9290   39.3860 H   0  0  0  0  0  0  0  0  0  0  0  0
   45.9920   34.5270   39.9250 H   0  0  0  0  0  0  0  0  0  0  0  0
   44.0410   33.9730   40.5650 C   0  0  0  0  0  0  0  0  0  0  0  0
   43.7350   35.1830   41.1660 C   0  0  0  0  0  0  0  0  0  0  0  0
   42.3750   35.4510   41.4510 C   0  0  0  0  0  0  0  0  0  0  0  0
   41.4700   34.5060   41.1160 N   0  0  0  0  0  0  0  0  0  0  0  0
   41.8130   33.3470   40.5340 C   0  0  0  0  0  0  0  0  0  0  0  0
   43.0870   33.0810   40.2590 N   0  0  0  0  0  0  0  0  0  0  0  0
   44.4960   35.9050   41.4140 H   0  0  0  0  0  0  0  0  0  0  0  0
   42.0670   36.3770   41.9200 H   0  0  0  0  0  0  0  0  0  0  0  0
   41.0590   32.5880   40.2680 H   0  0  0  0  0  0  0  0  0  0  0  0
  1  4  1  0  0  0  0
  1  3  1  0  0  0  0
  2  1  1  0  0  0  0
  4  5  2  0  0  0  0
  4 14  1  0  0  0  0
  5  7  1  0  0  0  0
  6  5  1  0  0  0  0
  7  8  2  0  0  0  0
  9  8  1  0  0  0  0
  9 10  1  0  0  0  0
 11 10  2  0  0  0  0
 12 11  1  0  0  0  0
 13 14  1  0  0  0  0
 13 12  2  0  0  0  0
 14  9  2  0  0  0  0
 15 18  1  0  0  0  0
 15  1  1  0  0  0  0
 16 15  1  0  0  0  0
 17 15  1  0  0  0  0
 18 19  1  0  0  0  0
 19 24  1  0  0  0  0
 19 20  2  0  0  0  0
 20 25  1  0  0  0  0
 21 20  1  0  0  0  0
 22 21  2  0  0  0  0
 23 22  1  0  0  0  0
 23 18  2  0  0  0  0
 26 22  1  0  0  0  0
M  END
>  <minimizedAffinity>
-4.63418674

>  <minimizedRMSD>
4.71413374

$$$$
