
 OpenBabel03252505193D

 36 40  0  0  0  0  0  0  0  0999 V2000
   46.0920   32.6620   47.0790 C   0  0  0  0  0  0  0  0  0  0  0  0
   44.9920   32.3600   47.8340 C   0  0  0  0  0  0  0  0  0  0  0  0
   45.1000   31.5620   48.9520 C   0  0  0  0  0  0  0  0  0  0  0  0
   46.3510   31.0880   49.2680 C   0  0  0  0  0  0  0  0  0  0  0  0
   47.4610   31.4020   48.4880 C   0  0  0  0  0  0  0  0  0  0  0  0
   47.3080   32.2030   47.3830 N   0  0  0  0  0  0  0  0  0  0  0  0
   44.0430   32.7690   47.5220 H   0  0  0  0  0  0  0  0  0  0  0  0
   44.2340   31.3350   49.5310 H   0  0  0  0  0  0  0  0  0  0  0  0
   46.3920   30.5160   50.1670 H   0  0  0  0  0  0  0  0  0  0  0  0
   48.8410   31.0360   48.7400 C   0  0  0  0  0  0  0  0  0  0  0  0
   49.6230   31.9160   49.5100 C   0  0  0  0  0  0  0  0  0  0  0  0
   49.1710   32.8240   49.9000 H   0  0  0  0  0  0  0  0  0  0  0  0
   50.9320   31.7450   49.8340 C   0  0  0  0  0  3  0  0  0  0  0  0
   51.5890   30.6250   49.3860 C   0  0  0  0  0  3  0  0  0  0  0  0
   50.8890   29.7210   48.6230 C   0  0  0  0  0  0  0  0  0  0  0  0
   51.5450   28.6140   48.1400 C   0  0  0  0  0  3  0  0  0  0  0  0
   50.9150   27.6730   47.3280 C   0  0  0  0  0  3  0  0  0  0  0  0
   49.5690   27.9300   47.0390 C   0  0  0  0  0  3  0  0  0  0  0  0
   48.9510   29.0490   47.5440 C   0  0  0  0  0  3  0  0  0  0  0  0
   49.5700   29.9530   48.3320 C   0  0  0  0  0  0  0  0  0  0  0  0
   44.8810   35.2160   44.7210 C   0  0  0  0  0  0  0  0  0  0  0  0
   45.7150   35.0670   43.6070 C   0  0  0  0  0  0  0  0  0  0  0  0
   46.6800   34.0920   43.6990 C   0  0  0  0  0  0  0  0  0  0  0  0
   46.7810   33.3310   44.8380 N   0  0  0  0  0  0  0  0  0  0  0  0
   45.9480   33.5070   45.8990 C   0  0  0  0  0  0  0  0  0  0  0  0
   45.0030   34.4520   45.8310 N   0  0  0  0  0  0  0  0  0  0  0  0
   44.1000   35.9720   44.7050 H   0  0  0  0  0  0  0  0  0  0  0  0
   45.6120   35.6770   42.7300 H   0  0  0  0  0  0  0  0  0  0  0  0
   47.6130   33.8190   42.5540 C   0  0  0  0  0  0  0  0  0  0  0  0
   48.9580   34.5350   42.7090 C   0  0  0  0  0  0  0  0  0  0  0  0
   48.7640   32.9820   42.7620 C   0  0  0  0  0  0  0  0  0  0  0  0
   47.1990   33.9690   41.5210 H   0  0  0  0  0  0  0  0  0  0  0  0
   49.1870   35.0250   43.6640 H   0  0  0  0  0  0  0  0  0  0  0  0
   49.4800   34.9130   41.8300 H   0  0  0  0  0  0  0  0  0  0  0  0
   48.8830   32.5120   43.7720 H   0  0  0  0  0  0  0  0  0  0  0  0
   49.2380   32.4240   41.9280 H   0  0  0  0  0  0  0  0  0  0  0  0
  1  6  2  0  0  0  0
  1  2  1  0  0  0  0
  2  3  2  0  0  0  0
  3  4  1  0  0  0  0
  3  8  1  0  0  0  0
  4  9  1  0  0  0  0
  5 10  1  0  0  0  0
  5  4  2  0  0  0  0
  6  5  1  0  0  0  0
  7  2  1  0  0  0  0
 10 11  1  0  0  0  0
 11 13  2  0  0  0  0
 11 12  1  0  0  0  0
 14 13  1  0  0  0  0
 15 14  2  0  0  0  0
 16 15  1  0  0  0  0
 17 16  2  0  0  0  0
 18 17  1  0  0  0  0
 18 19  2  0  0  0  0
 19 20  1  0  0  0  0
 20 15  1  0  0  0  0
 20 10  2  0  0  0  0
 21 26  1  0  0  0  0
 22 23  1  0  0  0  0
 22 21  2  0  0  0  0
 23 24  2  0  0  0  0
 24 25  1  0  0  0  0
 25  1  1  0  0  0  0
 26 25  2  0  0  0  0
 27 21  1  0  0  0  0
 28 22  1  0  0  0  0
 29 30  1  0  0  0  0
 29 31  1  0  0  0  0
 29 23  1  0  0  0  0
 30 31  1  0  0  0  0
 30 33  1  0  0  0  0
 31 35  1  0  0  0  0
 32 29  1  0  0  0  0
 34 30  1  0  0  0  0
 36 31  1  0  0  0  0
M  END
>  <minimizedAffinity>
-6.62317944

>  <minimizedRMSD>
1.998384

$$$$
