
 OpenBabel03252509243D

 29 32  0  0  1  0  0  0  0  0999 V2000
   46.5480   34.7580   42.0440 C   0  0  1  0  0  0  0  0  0  0  0  0
   47.9800   35.3590   42.0580 C   0  0  0  0  0  0  0  0  0  0  0  0
   47.6190   33.8750   41.7510 C   0  0  2  0  0  0  0  0  0  0  0  0
   45.8840   35.2570   41.3140 H   0  0  0  0  0  0  0  0  0  0  0  0
   48.4980   35.4930   43.0020 H   0  0  0  0  0  0  0  0  0  0  0  0
   48.2730   35.9750   41.1710 H   0  0  0  0  0  0  0  0  0  0  0  0
   47.9030   33.1240   42.5450 H   0  0  0  0  0  0  0  0  0  0  0  0
   47.9520   33.3530   40.4030 C   0  0  0  0  0  0  0  0  0  0  0  0
   47.0310   33.5930   39.4040 C   0  0  0  0  0  0  0  0  0  0  0  0
   46.1100   34.1400   39.6070 H   0  0  0  0  0  0  0  0  0  0  0  0
   47.3440   33.1040   38.1460 C   0  0  0  0  0  3  0  0  0  0  0  0
   48.4920   32.4240   37.8960 C   0  0  0  0  0  3  0  0  0  0  0  0
   49.4070   32.1900   38.9070 C   0  0  0  0  0  0  0  0  0  0  0  0
   50.5950   31.4970   38.6910 C   0  0  0  0  0  3  0  0  0  0  0  0
   51.4500   31.3100   39.7620 C   0  0  0  0  0  3  0  0  0  0  0  0
   51.2090   31.7610   41.0220 C   0  0  0  0  0  3  0  0  0  0  0  0
   50.0200   32.4520   41.2280 C   0  0  0  0  0  3  0  0  0  0  0  0
   49.1420   32.6570   40.1800 C   0  0  0  0  0  0  0  0  0  0  0  0
   44.5090   35.6240   45.0860 C   0  0  0  0  0  0  0  0  0  0  0  0
   45.0560   35.7150   43.7690 C   0  0  0  0  0  0  0  0  0  0  0  0
   45.9790   34.7570   43.4470 C   0  0  0  0  0  0  0  0  0  0  0  0
   46.3440   33.7740   44.3520 N   0  0  0  0  0  0  0  0  0  0  0  0
   45.8080   33.7230   45.5780 C   0  0  0  0  0  0  0  0  0  0  0  0
   44.8890   34.6460   45.9500 N   0  0  0  0  0  0  0  0  0  0  0  0
   43.7810   36.3990   45.3050 H   0  0  0  0  0  0  0  0  0  0  0  0
   46.0810   32.9650   46.2960 H   0  0  0  0  0  0  0  0  0  0  0  0
   44.6800   36.7500   42.8640 N   0  0  0  0  0  0  0  0  0  0  0  0
   43.7030   37.0360   42.5600 H   0  0  0  0  0  0  0  0  0  0  0  0
   45.4750   37.3080   42.4380 H   0  0  0  0  0  0  0  0  0  0  0  0
  1  4  1  6  0  0  0
  1  2  1  0  0  0  0
  1 21  1  0  0  0  0
  2  5  1  0  0  0  0
  3  1  1  0  0  0  0
  3  2  1  0  0  0  0
  3  7  1  1  0  0  0
  6  2  1  0  0  0  0
  8  3  1  0  0  0  0
  9 10  1  0  0  0  0
  9  8  2  0  0  0  0
 11  9  1  0  0  0  0
 12 11  2  0  0  0  0
 12 13  1  0  0  0  0
 13 18  1  0  0  0  0
 14 13  2  0  0  0  0
 14 15  1  0  0  0  0
 15 16  2  0  0  0  0
 16 17  1  0  0  0  0
 18  8  1  0  0  0  0
 18 17  2  0  0  0  0
 19 25  1  0  0  0  0
 19 24  1  0  0  0  0
 20 19  2  0  0  0  0
 21 20  1  0  0  0  0
 21 22  2  0  0  0  0
 22 23  1  0  0  0  0
 23 24  2  0  0  0  0
 23 26  1  0  0  0  0
 27 20  1  0  0  0  0
 28 27  1  0  0  0  0
 29 27  1  0  0  0  0
M  END
>  <minimizedAffinity>
-5.60813665

>  <minimizedRMSD>
1.50585973

$$$$
