
 OpenBabel03252507273D

 29 32  0  0  0  0  0  0  0  0999 V2000
   37.2540   28.4570   41.5380 C   0  0  0  0  0  0  0  0  0  0  0  0
   35.9000   28.4620   41.1950 C   0  0  0  0  0  0  0  0  0  0  0  0
   35.3640   29.6260   40.6470 C   0  0  0  0  0  0  0  0  0  0  0  0
   36.1900   30.7070   40.4690 N   0  0  0  0  0  0  0  0  0  0  0  0
   37.4770   30.6720   40.8040 C   0  0  0  0  0  0  0  0  0  0  0  0
   37.9760   29.5630   41.3240 N   0  0  0  0  0  0  0  0  0  0  0  0
   35.2480   27.6370   41.2780 H   0  0  0  0  0  0  0  0  0  0  0  0
   34.3250   29.6610   40.3750 H   0  0  0  0  0  0  0  0  0  0  0  0
   38.0170   27.3360   42.0480 C   0  0  0  0  0  0  0  0  0  0  0  0
   38.9370   27.5880   43.0750 C   0  0  0  0  0  0  0  0  0  0  0  0
   39.0700   28.6030   43.4550 H   0  0  0  0  0  0  0  0  0  0  0  0
   39.7270   26.6400   43.6790 C   0  0  0  0  0  3  0  0  0  0  0  0
   39.6380   25.3280   43.2740 C   0  0  0  0  0  3  0  0  0  0  0  0
   38.7570   25.0100   42.2790 C   0  0  0  0  0  0  0  0  0  0  0  0
   38.6080   23.7040   41.8680 C   0  0  0  0  0  3  0  0  0  0  0  0
   37.6960   23.3100   40.8830 C   0  0  0  0  0  3  0  0  0  0  0  0
   36.9340   24.3510   40.3380 C   0  0  0  0  0  3  0  0  0  0  0  0
   37.1010   25.6280   40.7590 C   0  0  0  0  0  3  0  0  0  0  0  0
   38.0010   26.0080   41.7220 C   0  0  0  0  0  0  0  0  0  0  0  0
   38.3260   31.8440   40.5970 C   0  0  0  0  0  0  0  0  0  0  0  0
   37.7860   32.9990   40.0950 C   0  0  0  0  0  0  0  0  0  0  0  0
   38.5020   34.1590   39.8590 C   0  0  0  0  0  0  0  0  0  0  0  0
   39.8510   34.0680   40.1780 C   0  0  0  0  0  0  0  0  0  0  0  0
   40.4110   32.9050   40.6870 C   0  0  0  0  0  0  0  0  0  0  0  0
   39.6290   31.8070   40.8880 N   0  0  0  0  0  0  0  0  0  0  0  0
   36.7150   33.0020   39.8650 H   0  0  0  0  0  0  0  0  0  0  0  0
   38.0930   35.0720   39.4660 H   0  0  0  0  0  0  0  0  0  0  0  0
   40.4960   34.9340   40.0260 H   0  0  0  0  0  0  0  0  0  0  0  0
   41.4740   32.9150   40.9120 H   0  0  0  0  0  0  0  0  0  0  0  0
  1  9  1  0  0  0  0
  2  7  1  0  0  0  0
  2  1  2  0  0  0  0
  3  2  1  0  0  0  0
  4  3  2  0  0  0  0
  4  5  1  0  0  0  0
  5  6  2  0  0  0  0
  6  1  1  0  0  0  0
  8  3  1  0  0  0  0
  9 10  1  0  0  0  0
 10 11  1  0  0  0  0
 10 12  2  0  0  0  0
 13 12  1  0  0  0  0
 14 13  2  0  0  0  0
 15 14  1  0  0  0  0
 16 15  2  0  0  0  0
 17 18  2  0  0  0  0
 17 16  1  0  0  0  0
 18 19  1  0  0  0  0
 19  9  2  0  0  0  0
 19 14  1  0  0  0  0
 20  5  1  0  0  0  0
 20 25  1  0  0  0  0
 21 20  2  0  0  0  0
 22 21  1  0  0  0  0
 22 23  2  0  0  0  0
 23 24  1  0  0  0  0
 24 25  2  0  0  0  0
 24 29  1  0  0  0  0
 26 21  1  0  0  0  0
 27 22  1  0  0  0  0
 28 23  1  0  0  0  0
M  END
>  <minimizedAffinity>
-6.41015339

$$$$

 OpenBabel03252507273D

 29 32  0  0  0  0  0  0  0  0999 V2000
   37.1560   29.4050   39.7420 C   0  0  0  0  0  0  0  0  0  0  0  0
   36.2300   29.2880   38.7030 C   0  0  0  0  0  0  0  0  0  0  0  0
   36.3960   30.0970   37.5800 C   0  0  0  0  0  0  0  0  0  0  0  0
   37.4570   30.9650   37.5490 N   0  0  0  0  0  0  0  0  0  0  0  0
   38.3250   31.0530   38.5540 C   0  0  0  0  0  0  0  0  0  0  0  0
   38.1580   30.2810   39.6160 N   0  0  0  0  0  0  0  0  0  0  0  0
   35.4300   28.6010   38.6750 H   0  0  0  0  0  0  0  0  0  0  0  0
   35.6980   30.0310   36.7650 H   0  0  0  0  0  0  0  0  0  0  0  0
   37.2070   28.6110   40.9530 C   0  0  0  0  0  0  0  0  0  0  0  0
   37.3760   29.2890   42.1680 C   0  0  0  0  0  0  0  0  0  0  0  0
   37.4770   30.3760   42.1810 H   0  0  0  0  0  0  0  0  0  0  0  0
   37.4300   28.6920   43.4050 C   0  0  0  0  0  3  0  0  0  0  0  0
   37.3120   27.3250   43.5020 C   0  0  0  0  0  3  0  0  0  0  0  0
   37.1410   26.6020   42.3550 C   0  0  0  0  0  0  0  0  0  0  0  0
   36.9810   25.2340   42.4090 C   0  0  0  0  0  3  0  0  0  0  0  0
   36.7620   24.4440   41.2760 C   0  0  0  0  0  3  0  0  0  0  0  0
   36.7160   25.1490   40.0680 C   0  0  0  0  0  3  0  0  0  0  0  0
   36.8780   26.4950   40.0420 C   0  0  0  0  0  3  0  0  0  0  0  0
   37.0960   27.2630   41.1570 C   0  0  0  0  0  0  0  0  0  0  0  0
   39.4450   31.9900   38.4830 C   0  0  0  0  0  0  0  0  0  0  0  0
   39.5900   32.9560   39.4420 C   0  0  0  0  0  0  0  0  0  0  0  0
   40.6110   33.8910   39.4630 C   0  0  0  0  0  0  0  0  0  0  0  0
   41.5080   33.7740   38.4090 C   0  0  0  0  0  0  0  0  0  0  0  0
   41.3730   32.8000   37.4310 C   0  0  0  0  0  0  0  0  0  0  0  0
   40.3350   31.9190   37.4890 N   0  0  0  0  0  0  0  0  0  0  0  0
   38.8460   32.9910   40.2460 H   0  0  0  0  0  0  0  0  0  0  0  0
   40.7370   34.6540   40.2090 H   0  0  0  0  0  0  0  0  0  0  0  0
   42.3470   34.4680   38.3420 H   0  0  0  0  0  0  0  0  0  0  0  0
   42.1170   32.7750   36.6390 H   0  0  0  0  0  0  0  0  0  0  0  0
  1  9  1  0  0  0  0
  2  1  2  0  0  0  0
  3  2  1  0  0  0  0
  4  3  2  0  0  0  0
  4  5  1  0  0  0  0
  5  6  2  0  0  0  0
  6  1  1  0  0  0  0
  7  2  1  0  0  0  0
  8  3  1  0  0  0  0
  9 19  2  0  0  0  0
  9 10  1  0  0  0  0
 10 11  1  0  0  0  0
 10 12  2  0  0  0  0
 12 13  1  0  0  0  0
 14 15  1  0  0  0  0
 14 13  2  0  0  0  0
 16 15  2  0  0  0  0
 17 16  1  0  0  0  0
 18 17  2  0  0  0  0
 18 19  1  0  0  0  0
 19 14  1  0  0  0  0
 20  5  1  0  0  0  0
 20 21  1  0  0  0  0
 21 22  2  0  0  0  0
 21 26  1  0  0  0  0
 22 27  1  0  0  0  0
 23 22  1  0  0  0  0
 24 25  1  0  0  0  0
 24 23  2  0  0  0  0
 25 20  2  0  0  0  0
 28 23  1  0  0  0  0
 29 24  1  0  0  0  0
M  END
>  <minimizedAffinity>
-6.35312796

$$$$

 OpenBabel03252507273D

 29 32  0  0  0  0  0  0  0  0999 V2000
   38.5040   31.8000   40.1350 C   0  0  0  0  0  0  0  0  0  0  0  0
   38.4150   33.1060   40.6220 C   0  0  0  0  0  0  0  0  0  0  0  0
   39.4120   34.0120   40.2650 C   0  0  0  0  0  0  0  0  0  0  0  0
   40.4290   33.5790   39.4520 N   0  0  0  0  0  0  0  0  0  0  0  0
   40.4870   32.3280   39.0010 C   0  0  0  0  0  0  0  0  0  0  0  0
   39.5350   31.4760   39.3470 N   0  0  0  0  0  0  0  0  0  0  0  0
   37.6260   33.4830   41.2120 H   0  0  0  0  0  0  0  0  0  0  0  0
   39.3720   35.0230   40.6270 H   0  0  0  0  0  0  0  0  0  0  0  0
   37.5420   30.7340   40.3250 C   0  0  0  0  0  0  0  0  0  0  0  0
   36.5440   30.5770   39.3540 C   0  0  0  0  0  0  0  0  0  0  0  0
   36.5020   31.2530   38.4960 H   0  0  0  0  0  0  0  0  0  0  0  0
   35.5660   29.6120   39.3730 C   0  0  0  0  0  3  0  0  0  0  0  0
   35.5290   28.7080   40.4090 C   0  0  0  0  0  3  0  0  0  0  0  0
   36.4760   28.8010   41.3910 C   0  0  0  0  0  0  0  0  0  0  0  0
   36.4990   27.8940   42.4280 C   0  0  0  0  0  3  0  0  0  0  0  0
   37.4650   27.9120   43.4390 C   0  0  0  0  0  3  0  0  0  0  0  0
   38.4190   28.9290   43.3220 C   0  0  0  0  0  3  0  0  0  0  0  0
   38.3730   29.8100   42.2920 C   0  0  0  0  0  3  0  0  0  0  0  0
   37.4210   29.7890   41.3060 C   0  0  0  0  0  0  0  0  0  0  0  0
   41.5860   31.9060   38.1350 C   0  0  0  0  0  0  0  0  0  0  0  0
   41.4480   30.7910   37.3510 C   0  0  0  0  0  0  0  0  0  0  0  0
   42.4280   30.3060   36.5010 C   0  0  0  0  0  0  0  0  0  0  0  0
   43.5970   31.0550   36.4990 C   0  0  0  0  0  0  0  0  0  0  0  0
   43.7500   32.1860   37.2880 C   0  0  0  0  0  0  0  0  0  0  0  0
   42.7310   32.5920   38.0970 N   0  0  0  0  0  0  0  0  0  0  0  0
   40.4980   30.2470   37.4010 H   0  0  0  0  0  0  0  0  0  0  0  0
   42.3350   29.4330   35.8810 H   0  0  0  0  0  0  0  0  0  0  0  0
   44.4260   30.7490   35.8600 H   0  0  0  0  0  0  0  0  0  0  0  0
   44.6960   32.7170   37.2280 H   0  0  0  0  0  0  0  0  0  0  0  0
  1  9  1  0  0  0  0
  1  2  1  0  0  0  0
  2  7  1  0  0  0  0
  3  2  2  0  0  0  0
  3  8  1  0  0  0  0
  4  3  1  0  0  0  0
  5  6  1  0  0  0  0
  5  4  2  0  0  0  0
  6  1  2  0  0  0  0
  9 19  1  0  0  0  0
 10 12  1  0  0  0  0
 10  9  2  0  0  0  0
 11 10  1  0  0  0  0
 12 13  2  0  0  0  0
 13 14  1  0  0  0  0
 14 15  1  0  0  0  0
 15 16  2  0  0  0  0
 17 16  1  0  0  0  0
 18 17  2  0  0  0  0
 19 14  2  0  0  0  0
 19 18  1  0  0  0  0
 20  5  1  0  0  0  0
 21 26  1  0  0  0  0
 21 20  2  0  0  0  0
 22 21  1  0  0  0  0
 23 22  2  0  0  0  0
 23 24  1  0  0  0  0
 24 25  2  0  0  0  0
 25 20  1  0  0  0  0
 27 22  1  0  0  0  0
 28 23  1  0  0  0  0
 29 24  1  0  0  0  0
M  END
>  <minimizedAffinity>
-6.07878494

$$$$

 OpenBabel03252507273D

 29 32  0  0  0  0  0  0  0  0999 V2000
   37.6820   29.7940   40.1200 C   0  0  0  0  0  0  0  0  0  0  0  0
   36.6780   30.6500   39.6610 C   0  0  0  0  0  0  0  0  0  0  0  0
   36.9370   31.4190   38.5270 C   0  0  0  0  0  0  0  0  0  0  0  0
   38.1610   31.2980   37.9190 N   0  0  0  0  0  0  0  0  0  0  0  0
   39.0970   30.4720   38.3790 C   0  0  0  0  0  0  0  0  0  0  0  0
   38.8420   29.7470   39.4550 N   0  0  0  0  0  0  0  0  0  0  0  0
   35.7130   30.7350   40.0780 H   0  0  0  0  0  0  0  0  0  0  0  0
   36.1850   32.0880   38.1510 H   0  0  0  0  0  0  0  0  0  0  0  0
   37.5910   28.8640   41.2270 C   0  0  0  0  0  0  0  0  0  0  0  0
   37.7490   29.3750   42.5220 C   0  0  0  0  0  0  0  0  0  0  0  0
   37.9460   30.4380   42.6710 H   0  0  0  0  0  0  0  0  0  0  0  0
   37.6770   28.6350   43.6780 C   0  0  0  0  0  3  0  0  0  0  0  0
   37.4310   27.2840   43.6020 C   0  0  0  0  0  3  0  0  0  0  0  0
   37.2630   26.7190   42.3690 C   0  0  0  0  0  0  0  0  0  0  0  0
   36.9780   25.3770   42.2480 C   0  0  0  0  0  3  0  0  0  0  0  0
   36.7560   24.7490   41.0180 C   0  0  0  0  0  3  0  0  0  0  0  0
   36.8440   25.5920   39.9040 C   0  0  0  0  0  3  0  0  0  0  0  0
   37.1270   26.9100   40.0500 C   0  0  0  0  0  3  0  0  0  0  0  0
   37.3480   27.5180   41.2590 C   0  0  0  0  0  0  0  0  0  0  0  0
   40.3880   30.3690   37.7010 C   0  0  0  0  0  0  0  0  0  0  0  0
   41.1420   31.4940   37.4910 C   0  0  0  0  0  0  0  0  0  0  0  0
   42.3720   31.5040   36.8580 C   0  0  0  0  0  0  0  0  0  0  0  0
   42.8040   30.2530   36.4370 C   0  0  0  0  0  0  0  0  0  0  0  0
   42.0510   29.1060   36.6430 C   0  0  0  0  0  0  0  0  0  0  0  0
   40.8480   29.1890   37.2770 N   0  0  0  0  0  0  0  0  0  0  0  0
   40.7420   32.4490   37.8490 H   0  0  0  0  0  0  0  0  0  0  0  0
   42.9740   32.3770   36.6860 H   0  0  0  0  0  0  0  0  0  0  0  0
   43.7640   30.1620   35.9270 H   0  0  0  0  0  0  0  0  0  0  0  0
   42.4590   28.1640   36.2840 H   0  0  0  0  0  0  0  0  0  0  0  0
  1  9  1  0  0  0  0
  2  7  1  0  0  0  0
  2  1  1  0  0  0  0
  3  2  2  0  0  0  0
  4  5  2  0  0  0  0
  4  3  1  0  0  0  0
  5  6  1  0  0  0  0
  6  1  2  0  0  0  0
  8  3  1  0  0  0  0
  9 19  2  0  0  0  0
  9 10  1  0  0  0  0
 10 11  1  0  0  0  0
 10 12  2  0  0  0  0
 13 12  1  0  0  0  0
 14 13  2  0  0  0  0
 15 14  1  0  0  0  0
 16 15  2  0  0  0  0
 17 18  2  0  0  0  0
 17 16  1  0  0  0  0
 18 19  1  0  0  0  0
 19 14  1  0  0  0  0
 20  5  1  0  0  0  0
 21 20  1  0  0  0  0
 21 26  1  0  0  0  0
 22 21  2  0  0  0  0
 23 24  2  0  0  0  0
 23 22  1  0  0  0  0
 24 25  1  0  0  0  0
 25 20  2  0  0  0  0
 27 22  1  0  0  0  0
 28 23  1  0  0  0  0
 29 24  1  0  0  0  0
M  END
>  <minimizedAffinity>
-5.93922853

$$$$

 OpenBabel03252507273D

 29 32  0  0  0  0  0  0  0  0999 V2000
   37.0170   28.1470   40.9660 C   0  0  0  0  0  0  0  0  0  0  0  0
   36.8440   29.2710   41.7770 C   0  0  0  0  0  0  0  0  0  0  0  0
   36.3570   30.4380   41.1900 C   0  0  0  0  0  0  0  0  0  0  0  0
   36.0700   30.4250   39.8490 N   0  0  0  0  0  0  0  0  0  0  0  0
   36.2430   29.3380   39.1010 C   0  0  0  0  0  0  0  0  0  0  0  0
   36.7070   28.2360   39.6680 N   0  0  0  0  0  0  0  0  0  0  0  0
   37.0130   29.3030   42.8180 H   0  0  0  0  0  0  0  0  0  0  0  0
   36.2150   31.3190   41.7880 H   0  0  0  0  0  0  0  0  0  0  0  0
   37.4380   26.8270   41.3890 C   0  0  0  0  0  0  0  0  0  0  0  0
   36.6740   25.7330   40.9630 C   0  0  0  0  0  0  0  0  0  0  0  0
   35.7880   25.8900   40.3440 H   0  0  0  0  0  0  0  0  0  0  0  0
   36.9410   24.4180   41.2610 C   0  0  0  0  0  3  0  0  0  0  0  0
   38.0350   24.1090   42.0340 C   0  0  0  0  0  3  0  0  0  0  0  0
   38.8280   25.1290   42.4810 C   0  0  0  0  0  0  0  0  0  0  0  0
   39.9550   24.8620   43.2270 C   0  0  0  0  0  3  0  0  0  0  0  0
   40.8270   25.8580   43.6800 C   0  0  0  0  0  3  0  0  0  0  0  0
   40.4690   27.1610   43.3160 C   0  0  0  0  0  3  0  0  0  0  0  0
   39.3540   27.3970   42.5820 C   0  0  0  0  0  3  0  0  0  0  0  0
   38.5010   26.4160   42.1460 C   0  0  0  0  0  0  0  0  0  0  0  0
   35.9230   29.3640   37.6750 C   0  0  0  0  0  0  0  0  0  0  0  0
   34.6770   28.9900   37.2480 C   0  0  0  0  0  0  0  0  0  0  0  0
   34.2760   28.9760   35.9230 C   0  0  0  0  0  0  0  0  0  0  0  0
   35.2590   29.3810   35.0280 C   0  0  0  0  0  0  0  0  0  0  0  0
   36.5250   29.7620   35.4480 C   0  0  0  0  0  0  0  0  0  0  0  0
   36.8340   29.7460   36.7750 N   0  0  0  0  0  0  0  0  0  0  0  0
   33.9490   28.6820   38.0060 H   0  0  0  0  0  0  0  0  0  0  0  0
   33.3030   28.6860   35.5720 H   0  0  0  0  0  0  0  0  0  0  0  0
   35.0350   29.4020   33.9620 H   0  0  0  0  0  0  0  0  0  0  0  0
   37.2380   30.0670   34.6860 H   0  0  0  0  0  0  0  0  0  0  0  0
  1  9  1  0  0  0  0
  1  2  1  0  0  0  0
  2  7  1  0  0  0  0
  3  2  2  0  0  0  0
  3  8  1  0  0  0  0
  4  3  1  0  0  0  0
  5  6  1  0  0  0  0
  5  4  2  0  0  0  0
  6  1  2  0  0  0  0
  9 19  1  0  0  0  0
 10 12  1  0  0  0  0
 10  9  2  0  0  0  0
 11 10  1  0  0  0  0
 12 13  2  0  0  0  0
 13 14  1  0  0  0  0
 14 15  1  0  0  0  0
 15 16  2  0  0  0  0
 17 16  1  0  0  0  0
 18 17  2  0  0  0  0
 19 14  2  0  0  0  0
 19 18  1  0  0  0  0
 20  5  1  0  0  0  0
 21 20  1  0  0  0  0
 21 26  1  0  0  0  0
 22 21  2  0  0  0  0
 23 24  2  0  0  0  0
 23 22  1  0  0  0  0
 24 25  1  0  0  0  0
 25 20  2  0  0  0  0
 27 22  1  0  0  0  0
 28 23  1  0  0  0  0
 29 24  1  0  0  0  0
M  END
>  <minimizedAffinity>
-5.89912128

$$$$

 OpenBabel03252507273D

 29 32  0  0  0  0  0  0  0  0999 V2000
   37.5570   29.0820   39.7090 C   0  0  0  0  0  0  0  0  0  0  0  0
   38.5760   29.9520   39.3170 C   0  0  0  0  0  0  0  0  0  0  0  0
   38.4520   30.5990   38.0880 C   0  0  0  0  0  0  0  0  0  0  0  0
   37.3380   30.3510   37.3270 N   0  0  0  0  0  0  0  0  0  0  0  0
   36.3810   29.5180   37.7290 C   0  0  0  0  0  0  0  0  0  0  0  0
   36.5090   28.9080   38.8960 N   0  0  0  0  0  0  0  0  0  0  0  0
   39.4230   30.1980   39.8950 H   0  0  0  0  0  0  0  0  0  0  0  0
   39.2210   31.2730   37.7580 H   0  0  0  0  0  0  0  0  0  0  0  0
   37.4570   28.3730   40.9690 C   0  0  0  0  0  0  0  0  0  0  0  0
   37.5480   29.1260   42.1480 C   0  0  0  0  0  0  0  0  0  0  0  0
   37.7030   30.2060   42.0980 H   0  0  0  0  0  0  0  0  0  0  0  0
   37.4600   28.6160   43.4210 C   0  0  0  0  0  3  0  0  0  0  0  0
   37.2650   27.2660   43.5960 C   0  0  0  0  0  3  0  0  0  0  0  0
   37.1620   26.4720   42.4880 C   0  0  0  0  0  0  0  0  0  0  0  0
   36.9290   25.1200   42.6160 C   0  0  0  0  0  3  0  0  0  0  0  0
   36.7760   24.2620   41.5210 C   0  0  0  0  0  3  0  0  0  0  0  0
   36.8750   24.8830   40.2710 C   0  0  0  0  0  3  0  0  0  0  0  0
   37.1060   26.2150   40.1720 C   0  0  0  0  0  3  0  0  0  0  0  0
   37.2600   27.0490   41.2500 C   0  0  0  0  0  0  0  0  0  0  0  0
   35.2070   29.2820   36.8900 C   0  0  0  0  0  0  0  0  0  0  0  0
   33.9890   29.0460   37.4710 C   0  0  0  0  0  0  0  0  0  0  0  0
   32.8210   28.8080   36.7680 C   0  0  0  0  0  0  0  0  0  0  0  0
   32.9750   28.8270   35.3880 C   0  0  0  0  0  0  0  0  0  0  0  0
   34.2030   29.0650   34.7870 C   0  0  0  0  0  0  0  0  0  0  0  0
   35.3040   29.2900   35.5580 N   0  0  0  0  0  0  0  0  0  0  0  0
   33.9380   29.0450   38.5650 H   0  0  0  0  0  0  0  0  0  0  0  0
   31.8590   28.6210   37.2090 H   0  0  0  0  0  0  0  0  0  0  0  0
   32.1080   28.6500   34.7500 H   0  0  0  0  0  0  0  0  0  0  0  0
   34.2400   29.0630   33.7000 H   0  0  0  0  0  0  0  0  0  0  0  0
  1  9  1  0  0  0  0
  2  1  1  0  0  0  0
  2  7  1  0  0  0  0
  3  2  2  0  0  0  0
  4  5  2  0  0  0  0
  4  3  1  0  0  0  0
  5  6  1  0  0  0  0
  6  1  2  0  0  0  0
  8  3  1  0  0  0  0
  9 19  2  0  0  0  0
  9 10  1  0  0  0  0
 10 12  2  0  0  0  0
 11 10  1  0  0  0  0
 12 13  1  0  0  0  0
 14 15  1  0  0  0  0
 14 13  2  0  0  0  0
 16 15  2  0  0  0  0
 17 16  1  0  0  0  0
 18 17  2  0  0  0  0
 18 19  1  0  0  0  0
 19 14  1  0  0  0  0
 20 21  1  0  0  0  0
 20  5  1  0  0  0  0
 21 26  1  0  0  0  0
 22 27  1  0  0  0  0
 22 21  2  0  0  0  0
 23 22  1  0  0  0  0
 24 23  2  0  0  0  0
 24 25  1  0  0  0  0
 25 20  2  0  0  0  0
 28 23  1  0  0  0  0
 29 24  1  0  0  0  0
M  END
>  <minimizedAffinity>
-5.80812836

$$$$

 OpenBabel03252507273D

 29 32  0  0  0  0  0  0  0  0999 V2000
   37.4280   27.9270   40.9870 C   0  0  0  0  0  0  0  0  0  0  0  0
   37.6020   27.5920   42.3310 C   0  0  0  0  0  0  0  0  0  0  0  0
   38.0330   28.5860   43.2070 C   0  0  0  0  0  0  0  0  0  0  0  0
   38.2650   29.8430   42.7080 N   0  0  0  0  0  0  0  0  0  0  0  0
   38.0890   30.1330   41.4210 C   0  0  0  0  0  0  0  0  0  0  0  0
   37.6790   29.1820   40.5990 N   0  0  0  0  0  0  0  0  0  0  0  0
   37.3920   26.6490   42.7560 H   0  0  0  0  0  0  0  0  0  0  0  0
   38.1790   28.3580   44.2470 H   0  0  0  0  0  0  0  0  0  0  0  0
   36.9200   27.0680   39.9360 C   0  0  0  0  0  0  0  0  0  0  0  0
   37.4740   25.7870   39.8180 C   0  0  0  0  0  0  0  0  0  0  0  0
   38.2690   25.4680   40.4960 H   0  0  0  0  0  0  0  0  0  0  0  0
   37.0990   24.8450   38.8900 C   0  0  0  0  0  3  0  0  0  0  0  0
   36.1040   25.1440   37.9890 C   0  0  0  0  0  3  0  0  0  0  0  0
   35.5160   26.3760   38.0490 C   0  0  0  0  0  0  0  0  0  0  0  0
   34.4900   26.7040   37.1900 C   0  0  0  0  0  3  0  0  0  0  0  0
   33.8230   27.9330   37.2290 C   0  0  0  0  0  3  0  0  0  0  0  0
   34.2760   28.8170   38.2150 C   0  0  0  0  0  3  0  0  0  0  0  0
   35.2880   28.4700   39.0470 C   0  0  0  0  0  3  0  0  0  0  0  0
   35.9410   27.2650   39.0010 C   0  0  0  0  0  0  0  0  0  0  0  0
   38.3440   31.4860   40.9280 C   0  0  0  0  0  0  0  0  0  0  0  0
   37.3640   32.1610   40.2490 C   0  0  0  0  0  0  0  0  0  0  0  0
   37.5060   33.4400   39.7390 C   0  0  0  0  0  0  0  0  0  0  0  0
   38.7510   34.0090   39.9730 C   0  0  0  0  0  0  0  0  0  0  0  0
   39.7520   33.3360   40.6590 C   0  0  0  0  0  0  0  0  0  0  0  0
   39.5250   32.0770   41.1270 N   0  0  0  0  0  0  0  0  0  0  0  0
   36.4050   31.6530   40.1000 H   0  0  0  0  0  0  0  0  0  0  0  0
   36.7480   33.9830   39.2050 H   0  0  0  0  0  0  0  0  0  0  0  0
   38.9560   35.0160   39.6080 H   0  0  0  0  0  0  0  0  0  0  0  0
   40.6990   33.8510   40.8010 H   0  0  0  0  0  0  0  0  0  0  0  0
  1  2  1  0  0  0  0
  2  7  1  0  0  0  0
  2  3  2  0  0  0  0
  3  8  1  0  0  0  0
  4  3  1  0  0  0  0
  5  4  2  0  0  0  0
  6  1  2  0  0  0  0
  6  5  1  0  0  0  0
  9  1  1  0  0  0  0
 10  9  1  0  0  0  0
 10 11  1  0  0  0  0
 12 10  2  0  0  0  0
 13 14  2  0  0  0  0
 13 12  1  0  0  0  0
 14 19  1  0  0  0  0
 15 16  2  0  0  0  0
 15 14  1  0  0  0  0
 16 17  1  0  0  0  0
 17 18  2  0  0  0  0
 19 18  1  0  0  0  0
 19  9  2  0  0  0  0
 20 25  1  0  0  0  0
 20  5  1  0  0  0  0
 21 20  2  0  0  0  0
 22 23  2  0  0  0  0
 22 21  1  0  0  0  0
 23 24  1  0  0  0  0
 24 29  1  0  0  0  0
 24 25  2  0  0  0  0
 26 21  1  0  0  0  0
 27 22  1  0  0  0  0
 28 23  1  0  0  0  0
M  END
>  <minimizedAffinity>
-5.79263639

$$$$

 OpenBabel03252507273D

 29 32  0  0  0  0  0  0  0  0999 V2000
   37.8900   31.4080   40.1910 C   0  0  0  0  0  0  0  0  0  0  0  0
   37.0930   32.5440   40.0310 C   0  0  0  0  0  0  0  0  0  0  0  0
   37.7250   33.7790   39.9050 C   0  0  0  0  0  0  0  0  0  0  0  0
   39.0960   33.8200   39.9440 N   0  0  0  0  0  0  0  0  0  0  0  0
   39.8290   32.7210   40.0960 C   0  0  0  0  0  0  0  0  0  0  0  0
   39.2190   31.5530   40.2150 N   0  0  0  0  0  0  0  0  0  0  0  0
   36.0410   32.5430   39.9540 H   0  0  0  0  0  0  0  0  0  0  0  0
   37.1380   34.6710   39.7830 H   0  0  0  0  0  0  0  0  0  0  0  0
   37.4390   30.0330   40.2640 C   0  0  0  0  0  0  0  0  0  0  0  0
   37.0400   29.4150   39.0720 C   0  0  0  0  0  0  0  0  0  0  0  0
   37.0630   29.9700   38.1320 H   0  0  0  0  0  0  0  0  0  0  0  0
   36.6010   28.1170   38.9620 C   0  0  0  0  0  3  0  0  0  0  0  0
   36.5340   27.3290   40.0880 C   0  0  0  0  0  3  0  0  0  0  0  0
   36.9120   27.8680   41.2850 C   0  0  0  0  0  0  0  0  0  0  0  0
   36.8960   27.1030   42.4310 C   0  0  0  0  0  3  0  0  0  0  0  0
   37.3090   27.5850   43.6790 C   0  0  0  0  0  3  0  0  0  0  0  0
   37.7450   28.9150   43.6800 C   0  0  0  0  0  3  0  0  0  0  0  0
   37.7490   29.6460   42.5380 C   0  0  0  0  0  3  0  0  0  0  0  0
   37.3390   29.1690   41.3200 C   0  0  0  0  0  0  0  0  0  0  0  0
   41.2890   32.8050   40.1290 C   0  0  0  0  0  0  0  0  0  0  0  0
   41.8970   33.9710   40.5150 C   0  0  0  0  0  0  0  0  0  0  0  0
   43.2670   34.1550   40.5760 C   0  0  0  0  0  0  0  0  0  0  0  0
   44.0060   33.0370   40.2090 C   0  0  0  0  0  0  0  0  0  0  0  0
   43.4030   31.8510   39.8170 C   0  0  0  0  0  0  0  0  0  0  0  0
   42.0440   31.7590   39.7860 N   0  0  0  0  0  0  0  0  0  0  0  0
   41.2540   34.8140   40.7920 H   0  0  0  0  0  0  0  0  0  0  0  0
   43.7590   35.0620   40.8760 H   0  0  0  0  0  0  0  0  0  0  0  0
   45.0950   33.0870   40.2270 H   0  0  0  0  0  0  0  0  0  0  0  0
   44.0520   31.0220   39.5460 H   0  0  0  0  0  0  0  0  0  0  0  0
  1  6  1  0  0  0  0
  1  9  1  0  0  0  0
  2  1  2  0  0  0  0
  3  4  2  0  0  0  0
  3  2  1  0  0  0  0
  4  5  1  0  0  0  0
  5 20  1  0  0  0  0
  5  6  2  0  0  0  0
  7  2  1  0  0  0  0
  8  3  1  0  0  0  0
  9 19  1  0  0  0  0
 10  9  2  0  0  0  0
 11 10  1  0  0  0  0
 12 10  1  0  0  0  0
 12 13  2  0  0  0  0
 13 14  1  0  0  0  0
 14 19  2  0  0  0  0
 14 15  1  0  0  0  0
 15 16  2  0  0  0  0
 16 17  1  0  0  0  0
 18 17  2  0  0  0  0
 19 18  1  0  0  0  0
 20 21  1  0  0  0  0
 21 22  2  0  0  0  0
 21 26  1  0  0  0  0
 22 27  1  0  0  0  0
 23 28  1  0  0  0  0
 23 22  1  0  0  0  0
 24 23  2  0  0  0  0
 25 24  1  0  0  0  0
 25 20  2  0  0  0  0
 29 24  1  0  0  0  0
M  END
>  <minimizedAffinity>
-5.74365854

$$$$

 OpenBabel03252507273D

 29 32  0  0  0  0  0  0  0  0999 V2000
   37.5440   30.4340   41.1260 C   0  0  0  0  0  0  0  0  0  0  0  0
   36.5750   31.2330   40.5140 C   0  0  0  0  0  0  0  0  0  0  0  0
   36.9650   32.4740   40.0150 C   0  0  0  0  0  0  0  0  0  0  0  0
   38.2780   32.8500   40.1460 N   0  0  0  0  0  0  0  0  0  0  0  0
   39.1790   32.0670   40.7320 C   0  0  0  0  0  0  0  0  0  0  0  0
   38.7990   30.8910   41.2040 N   0  0  0  0  0  0  0  0  0  0  0  0
   35.5690   30.9570   40.3580 H   0  0  0  0  0  0  0  0  0  0  0  0
   36.2410   33.1120   39.5410 H   0  0  0  0  0  0  0  0  0  0  0  0
   37.3650   29.0920   41.6410 C   0  0  0  0  0  0  0  0  0  0  0  0
   37.2690   28.9350   43.0300 C   0  0  0  0  0  0  0  0  0  0  0  0
   37.3420   29.8040   43.6870 H   0  0  0  0  0  0  0  0  0  0  0  0
   37.0840   27.7380   43.6800 C   0  0  0  0  0  3  0  0  0  0  0  0
   36.9780   26.5800   42.9450 C   0  0  0  0  0  3  0  0  0  0  0  0
   37.0590   26.6600   41.5830 C   0  0  0  0  0  0  0  0  0  0  0  0
   36.9210   25.5310   40.8070 C   0  0  0  0  0  3  0  0  0  0  0  0
   36.9550   25.5540   39.4090 C   0  0  0  0  0  3  0  0  0  0  0  0
   37.1400   26.8220   38.8470 C   0  0  0  0  0  3  0  0  0  0  0  0
   37.2740   27.9180   39.6330 C   0  0  0  0  0  3  0  0  0  0  0  0
   37.2440   27.8880   41.0040 C   0  0  0  0  0  0  0  0  0  0  0  0
   40.5700   32.5020   40.8510 C   0  0  0  0  0  0  0  0  0  0  0  0
   41.5350   31.6080   41.2320 C   0  0  0  0  0  0  0  0  0  0  0  0
   42.8760   31.9200   41.3770 C   0  0  0  0  0  0  0  0  0  0  0  0
   43.1840   33.2460   41.0990 C   0  0  0  0  0  0  0  0  0  0  0  0
   42.2160   34.1610   40.7120 C   0  0  0  0  0  0  0  0  0  0  0  0
   40.9170   33.7660   40.5940 N   0  0  0  0  0  0  0  0  0  0  0  0
   41.2240   30.5780   41.4360 H   0  0  0  0  0  0  0  0  0  0  0  0
   43.6450   31.2300   41.6760 H   0  0  0  0  0  0  0  0  0  0  0  0
   44.2160   33.5840   41.1860 H   0  0  0  0  0  0  0  0  0  0  0  0
   42.5380   35.1800   40.5120 H   0  0  0  0  0  0  0  0  0  0  0  0
  1  6  1  0  0  0  0
  1  9  1  0  0  0  0
  2  1  2  0  0  0  0
  3  4  2  0  0  0  0
  3  2  1  0  0  0  0
  4  5  1  0  0  0  0
  5 20  1  0  0  0  0
  5  6  2  0  0  0  0
  7  2  1  0  0  0  0
  8  3  1  0  0  0  0
  9 10  1  0  0  0  0
 10 12  2  0  0  0  0
 10 11  1  0  0  0  0
 13 12  1  0  0  0  0
 14 13  2  0  0  0  0
 15 14  1  0  0  0  0
 16 15  2  0  0  0  0
 17 16  1  0  0  0  0
 17 18  2  0  0  0  0
 18 19  1  0  0  0  0
 19 14  1  0  0  0  0
 19  9  2  0  0  0  0
 20 21  1  0  0  0  0
 21 22  2  0  0  0  0
 21 26  1  0  0  0  0
 22 27  1  0  0  0  0
 23 28  1  0  0  0  0
 23 22  1  0  0  0  0
 24 23  2  0  0  0  0
 25 24  1  0  0  0  0
 25 20  2  0  0  0  0
 29 24  1  0  0  0  0
M  END
>  <minimizedAffinity>
-5.74010277

$$$$
