
 OpenBabel03252506403D

 46 50  0  0  1  0  0  0  0  0999 V2000
   39.1780   34.1610   40.4360 C   0  0  0  0  0  0  0  0  0  0  0  0
   38.3000   33.3980   39.6530 C   0  0  0  0  0  0  0  0  0  0  0  0
   38.7540   32.2740   39.0540 C   0  0  0  0  0  0  0  0  0  0  0  0
   40.0560   31.9500   39.2530 N   0  0  0  0  0  0  0  0  0  0  0  0
   40.8820   32.6730   39.9930 C   0  0  0  0  0  0  0  0  0  0  0  0
   40.4620   33.7850   40.5950 N   0  0  0  0  0  0  0  0  0  0  0  0
   42.2460   32.2370   40.1330 N   0  0  0  0  0  0  0  0  0  0  0  0
   43.1680   32.7730   41.0700 C   0  0  0  0  0  0  0  0  0  0  0  0
   44.4790   32.7660   40.3040 C   0  0  0  0  0  0  0  0  0  0  0  0
   44.2150   32.0300   39.0280 C   0  0  0  0  0  0  0  0  0  0  0  0
   42.9520   31.2390   39.3650 C   0  0  1  0  0  0  0  0  0  0  0  0
   38.8770   35.0740   40.9440 H   0  0  0  0  0  0  0  0  0  0  0  0
   38.1020   31.6840   38.4580 H   0  0  0  0  0  0  0  0  0  0  0  0
   42.9280   33.8840   41.1340 H   0  0  0  0  0  0  0  0  0  0  0  0
   43.2800   32.4620   42.0590 H   0  0  0  0  0  0  0  0  0  0  0  0
   44.9600   33.7350   40.2030 H   0  0  0  0  0  0  0  0  0  0  0  0
   45.1880   32.1340   40.9040 H   0  0  0  0  0  0  0  0  0  0  0  0
   45.0450   31.3550   38.7360 H   0  0  0  0  0  0  0  0  0  0  0  0
   43.9560   32.7590   38.2320 H   0  0  0  0  0  0  0  0  0  0  0  0
   42.4460   30.9650   38.4220 H   0  0  0  0  0  0  0  0  0  0  0  0
   36.9490   33.8810   39.5430 N   0  0  0  0  0  0  0  0  0  0  0  0
   36.4660   33.4370   40.3520 H   0  0  0  0  0  0  0  0  0  0  0  0
   36.6260   34.5270   38.7850 H   0  0  0  0  0  0  0  0  0  0  0  0
   43.4010   29.8290   40.3500 S   0  0  0  0  0  0  0  0  0  0  0  0
   40.2180   28.8670   40.0730 O   0  0  0  0  0  0  0  0  0  0  0  0
   40.9300   28.8440   41.0900 C   0  0  0  0  0  0  0  0  0  0  0  0
   42.2570   29.3090   41.5590 C   0  0  1  0  0  0  0  0  0  0  0  0
   42.7040   28.1550   42.4230 C   0  0  0  0  0  0  0  0  0  0  0  0
   41.4540   28.0630   43.3060 C   0  0  0  0  0  0  0  0  0  0  0  0
   40.4350   28.1880   42.2720 N   0  0  0  0  0  0  0  0  0  0  0  0
   41.9330   30.0500   42.3420 H   0  0  0  0  0  0  0  0  0  0  0  0
   43.5580   28.4480   43.0580 H   0  0  0  0  0  0  0  0  0  0  0  0
   42.8440   27.2220   41.8750 H   0  0  0  0  0  0  0  0  0  0  0  0
   41.4310   28.8620   44.0530 H   0  0  0  0  0  0  0  0  0  0  0  0
   41.4570   27.0430   43.7490 H   0  0  0  0  0  0  0  0  0  0  0  0
   39.1280   27.6570   42.5690 C   0  0  0  0  0  0  0  0  0  0  0  0
   38.3350   28.5360   43.2980 C   0  0  0  0  0  0  0  0  0  0  0  0
   38.6370   29.5200   43.6240 H   0  0  0  0  0  0  0  0  0  0  0  0
   37.0360   28.1980   43.6800 C   0  0  0  0  0  3  0  0  0  0  0  0
   36.5770   26.9470   43.2960 C   0  0  0  0  0  3  0  0  0  0  0  0
   37.3630   26.0830   42.5770 C   0  0  0  0  0  0  0  0  0  0  0  0
   36.9350   24.8260   42.1770 C   0  0  0  0  0  3  0  0  0  0  0  0
   37.7540   24.0030   41.4630 C   0  0  0  0  0  3  0  0  0  0  0  0
   39.0500   24.3690   41.0960 C   0  0  0  0  0  3  0  0  0  0  0  0
   39.5090   25.6270   41.4820 C   0  0  0  0  0  3  0  0  0  0  0  0
   38.6620   26.4210   42.1950 C   0  0  0  0  0  0  0  0  0  0  0  0
  1  6  1  0  0  0  0
  1 12  1  0  0  0  0
  2  1  2  0  0  0  0
  3  4  2  0  0  0  0
  3  2  1  0  0  0  0
  4  5  1  0  0  0  0
  5  7  1  0  0  0  0
  5  6  2  0  0  0  0
  7  8  1  0  0  0  0
  8 14  1  0  0  0  0
  8 15  1  0  0  0  0
  9 17  1  0  0  0  0
  9  8  1  0  0  0  0
 10 11  1  0  0  0  0
 10  9  1  0  0  0  0
 11 20  1  6  0  0  0
 11  7  1  0  0  0  0
 11 24  1  0  0  0  0
 13  3  1  0  0  0  0
 16  9  1  0  0  0  0
 18 10  1  0  0  0  0
 19 10  1  0  0  0  0
 21  2  1  0  0  0  0
 21 22  1  0  0  0  0
 23 21  1  0  0  0  0
 24 27  1  0  0  0  0
 25 26  2  0  0  0  0
 26 27  1  0  0  0  0
 26 30  1  0  0  0  0
 27 31  1  1  0  0  0
 27 28  1  0  0  0  0
 28 32  1  0  0  0  0
 28 29  1  0  0  0  0
 29 35  1  0  0  0  0
 29 34  1  0  0  0  0
 30 36  1  0  0  0  0
 30 29  1  0  0  0  0
 33 28  1  0  0  0  0
 36 37  1  0  0  0  0
 37 38  1  0  0  0  0
 37 39  2  0  0  0  0
 40 39  1  0  0  0  0
 41 40  2  0  0  0  0
 42 41  1  0  0  0  0
 43 42  2  0  0  0  0
 44 43  1  0  0  0  0
 44 45  2  0  0  0  0
 45 46  1  0  0  0  0
 46 36  2  0  0  0  0
 46 41  1  0  0  0  0
M  END
>  <minimizedAffinity>
-6.78552437

$$$$

 OpenBabel03252506403D

 46 50  0  0  1  0  0  0  0  0999 V2000
   39.5920   33.0540   39.9160 C   0  0  0  0  0  0  0  0  0  0  0  0
   38.3370   32.5170   39.5990 C   0  0  0  0  0  0  0  0  0  0  0  0
   38.2630   31.4420   38.7810 C   0  0  0  0  0  0  0  0  0  0  0  0
   39.4340   30.9420   38.3100 N   0  0  0  0  0  0  0  0  0  0  0  0
   40.6180   31.4520   38.6130 C   0  0  0  0  0  0  0  0  0  0  0  0
   40.7200   32.5110   39.4160 N   0  0  0  0  0  0  0  0  0  0  0  0
   41.7950   30.8430   38.0540 N   0  0  0  0  0  0  0  0  0  0  0  0
   43.1220   31.1300   38.4690 C   0  0  0  0  0  0  0  0  0  0  0  0
   43.9080   31.0750   37.1720 C   0  0  0  0  0  0  0  0  0  0  0  0
   42.9620   30.5620   36.1300 C   0  0  0  0  0  0  0  0  0  0  0  0
   41.8840   29.8860   36.9760 C   0  0  1  0  0  0  0  0  0  0  0  0
   39.7210   33.9160   40.5670 H   0  0  0  0  0  0  0  0  0  0  0  0
   37.3200   31.0230   38.5310 H   0  0  0  0  0  0  0  0  0  0  0  0
   43.1320   32.2410   38.7160 H   0  0  0  0  0  0  0  0  0  0  0  0
   43.6230   30.6720   39.2610 H   0  0  0  0  0  0  0  0  0  0  0  0
   44.4440   31.9850   36.9190 H   0  0  0  0  0  0  0  0  0  0  0  0
   44.6940   30.2860   37.3150 H   0  0  0  0  0  0  0  0  0  0  0  0
   43.4350   29.8410   35.4330 H   0  0  0  0  0  0  0  0  0  0  0  0
   42.4940   31.4210   35.6070 H   0  0  0  0  0  0  0  0  0  0  0  0
   40.9620   29.8090   36.3730 H   0  0  0  0  0  0  0  0  0  0  0  0
   37.1930   33.1660   40.1810 N   0  0  0  0  0  0  0  0  0  0  0  0
   37.0700   32.6740   41.0900 H   0  0  0  0  0  0  0  0  0  0  0  0
   36.6710   33.9470   39.7150 H   0  0  0  0  0  0  0  0  0  0  0  0
   42.4900   28.3090   37.5280 S   0  0  0  0  0  0  0  0  0  0  0  0
   39.3430   27.6590   38.4260 O   0  0  0  0  0  0  0  0  0  0  0  0
   40.3780   27.4110   39.0640 C   0  0  0  0  0  0  0  0  0  0  0  0
   41.8350   27.6850   39.0190 C   0  0  1  0  0  0  0  0  0  0  0  0
   42.4130   26.3710   39.4840 C   0  0  0  0  0  0  0  0  0  0  0  0
   41.5950   26.2300   40.7730 C   0  0  0  0  0  0  0  0  0  0  0  0
   40.2860   26.6060   40.2550 N   0  0  0  0  0  0  0  0  0  0  0  0
   41.9390   28.3070   39.9510 H   0  0  0  0  0  0  0  0  0  0  0  0
   43.4760   26.4850   39.7570 H   0  0  0  0  0  0  0  0  0  0  0  0
   42.2030   25.5350   38.8150 H   0  0  0  0  0  0  0  0  0  0  0  0
   41.9690   26.8920   41.5600 H   0  0  0  0  0  0  0  0  0  0  0  0
   41.6260   25.1540   41.0490 H   0  0  0  0  0  0  0  0  0  0  0  0
   39.1320   26.1380   40.9790 C   0  0  0  0  0  0  0  0  0  0  0  0
   38.7890   24.8260   40.6700 C   0  0  0  0  0  0  0  0  0  0  0  0
   39.3110   24.1980   39.9650 H   0  0  0  0  0  0  0  0  0  0  0  0
   37.6980   24.1980   41.2730 C   0  0  0  0  0  3  0  0  0  0  0  0
   36.9770   24.9450   42.1930 C   0  0  0  0  0  3  0  0  0  0  0  0
   37.3180   26.2380   42.4950 C   0  0  0  0  0  0  0  0  0  0  0  0
   36.6190   27.0120   43.4090 C   0  0  0  0  0  3  0  0  0  0  0  0
   36.9990   28.2940   43.6760 C   0  0  0  0  0  3  0  0  0  0  0  0
   38.0950   28.8950   43.0560 C   0  0  0  0  0  3  0  0  0  0  0  0
   38.8190   28.1430   42.1320 C   0  0  0  0  0  3  0  0  0  0  0  0
   38.4100   26.8660   41.8920 C   0  0  0  0  0  0  0  0  0  0  0  0
  1 12  1  0  0  0  0
  2  1  1  0  0  0  0
  2 21  1  0  0  0  0
  3  2  2  0  0  0  0
  4  5  2  0  0  0  0
  4  3  1  0  0  0  0
  5  6  1  0  0  0  0
  6  1  2  0  0  0  0
  7  8  1  0  0  0  0
  7  5  1  0  0  0  0
  8 14  1  0  0  0  0
  8 15  1  0  0  0  0
  9 17  1  0  0  0  0
  9  8  1  0  0  0  0
 10 11  1  0  0  0  0
 10  9  1  0  0  0  0
 11 20  1  6  0  0  0
 11 24  1  0  0  0  0
 11  7  1  0  0  0  0
 13  3  1  0  0  0  0
 16  9  1  0  0  0  0
 18 10  1  0  0  0  0
 19 10  1  0  0  0  0
 21 22  1  0  0  0  0
 23 21  1  0  0  0  0
 24 27  1  0  0  0  0
 25 26  2  0  0  0  0
 26 30  1  0  0  0  0
 27 26  1  0  0  0  0
 27 28  1  0  0  0  0
 27 31  1  1  0  0  0
 28 32  1  0  0  0  0
 28 29  1  0  0  0  0
 29 35  1  0  0  0  0
 29 34  1  0  0  0  0
 30 29  1  0  0  0  0
 30 36  1  0  0  0  0
 33 28  1  0  0  0  0
 36 46  1  0  0  0  0
 37 36  2  0  0  0  0
 37 39  1  0  0  0  0
 38 37  1  0  0  0  0
 39 40  2  0  0  0  0
 40 41  1  0  0  0  0
 41 42  1  0  0  0  0
 42 43  2  0  0  0  0
 44 43  1  0  0  0  0
 45 44  2  0  0  0  0
 46 45  1  0  0  0  0
 46 41  2  0  0  0  0
M  END
>  <minimizedAffinity>
-6.46238565

$$$$

 OpenBabel03252506403D

 46 50  0  0  1  0  0  0  0  0999 V2000
   42.1050   29.2900   41.8780 C   0  0  0  0  0  0  0  0  0  0  0  0
   41.2560   28.6250   42.7740 C   0  0  0  0  0  0  0  0  0  0  0  0
   39.9730   29.0340   42.8980 C   0  0  0  0  0  0  0  0  0  0  0  0
   39.5820   30.0840   42.1330 N   0  0  0  0  0  0  0  0  0  0  0  0
   40.3860   30.7090   41.2870 C   0  0  0  0  0  0  0  0  0  0  0  0
   41.6550   30.3270   41.1440 N   0  0  0  0  0  0  0  0  0  0  0  0
   39.8660   31.8140   40.5270 N   0  0  0  0  0  0  0  0  0  0  0  0
   40.5330   32.4180   39.4290 C   0  0  0  0  0  0  0  0  0  0  0  0
   40.1900   33.8890   39.5850 C   0  0  0  0  0  0  0  0  0  0  0  0
   39.1740   33.9670   40.6820 C   0  0  0  0  0  0  0  0  0  0  0  0
   38.6340   32.5390   40.7270 C   0  0  1  0  0  0  0  0  0  0  0  0
   43.1450   29.0110   41.7300 H   0  0  0  0  0  0  0  0  0  0  0  0
   39.3170   28.5420   43.5720 H   0  0  0  0  0  0  0  0  0  0  0  0
   41.6410   32.3950   39.6940 H   0  0  0  0  0  0  0  0  0  0  0  0
   40.4850   32.0990   38.4370 H   0  0  0  0  0  0  0  0  0  0  0  0
   41.0430   34.5540   39.6800 H   0  0  0  0  0  0  0  0  0  0  0  0
   39.6700   34.1910   38.6370 H   0  0  0  0  0  0  0  0  0  0  0  0
   38.3650   34.6960   40.4720 H   0  0  0  0  0  0  0  0  0  0  0  0
   39.6900   34.1650   41.6450 H   0  0  0  0  0  0  0  0  0  0  0  0
   38.1740   32.3680   41.7160 H   0  0  0  0  0  0  0  0  0  0  0  0
   41.8280   27.5310   43.5120 N   0  0  0  0  0  0  0  0  0  0  0  0
   41.6650   26.7090   42.8930 H   0  0  0  0  0  0  0  0  0  0  0  0
   42.2810   27.6400   44.4500 H   0  0  0  0  0  0  0  0  0  0  0  0
   37.4950   32.3120   39.3800 S   0  0  0  0  0  0  0  0  0  0  0  0
   38.4000   29.1680   38.7210 O   0  0  0  0  0  0  0  0  0  0  0  0
   37.2980   29.5690   39.1300 C   0  0  0  0  0  0  0  0  0  0  0  0
   36.5660   30.8360   39.3680 C   0  0  1  0  0  0  0  0  0  0  0  0
   35.8180   30.5290   40.6420 C   0  0  0  0  0  0  0  0  0  0  0  0
   35.1630   29.2190   40.1860 C   0  0  0  0  0  0  0  0  0  0  0  0
   36.3150   28.6010   39.5410 N   0  0  0  0  0  0  0  0  0  0  0  0
   35.7450   30.7260   38.6060 H   0  0  0  0  0  0  0  0  0  0  0  0
   35.0230   31.2720   40.8200 H   0  0  0  0  0  0  0  0  0  0  0  0
   36.4660   30.3430   41.5000 H   0  0  0  0  0  0  0  0  0  0  0  0
   34.3220   29.4050   39.5120 H   0  0  0  0  0  0  0  0  0  0  0  0
   34.8770   28.6720   41.1110 H   0  0  0  0  0  0  0  0  0  0  0  0
   36.3040   27.1650   39.4130 C   0  0  0  0  0  0  0  0  0  0  0  0
   35.7430   26.7280   38.2180 C   0  0  0  0  0  0  0  0  0  0  0  0
   35.3450   27.3710   37.4480 H   0  0  0  0  0  0  0  0  0  0  0  0
   35.6450   25.3700   37.9140 C   0  0  0  0  0  3  0  0  0  0  0  0
   36.1350   24.4810   38.8590 C   0  0  0  0  0  3  0  0  0  0  0  0
   36.6890   24.9160   40.0370 C   0  0  0  0  0  0  0  0  0  0  0  0
   37.1890   24.0550   41.0010 C   0  0  0  0  0  3  0  0  0  0  0  0
   37.7300   24.5370   42.1560 C   0  0  0  0  0  3  0  0  0  0  0  0
   37.8130   25.9030   42.4320 C   0  0  0  0  0  3  0  0  0  0  0  0
   37.3200   26.7940   41.4810 C   0  0  0  0  0  3  0  0  0  0  0  0
   36.7870   26.2760   40.3400 C   0  0  0  0  0  0  0  0  0  0  0  0
  1  2  1  0  0  0  0
  2  3  2  0  0  0  0
  2 21  1  0  0  0  0
  3 13  1  0  0  0  0
  4  3  1  0  0  0  0
  5  4  2  0  0  0  0
  6  5  1  0  0  0  0
  6  1  2  0  0  0  0
  7 11  1  0  0  0  0
  7  5  1  0  0  0  0
  8  9  1  0  0  0  0
  8 14  1  0  0  0  0
  8  7  1  0  0  0  0
  9 16  1  0  0  0  0
  9 10  1  0  0  0  0
 10 11  1  0  0  0  0
 10 19  1  0  0  0  0
 11 20  1  1  0  0  0
 12  1  1  0  0  0  0
 15  8  1  0  0  0  0
 17  9  1  0  0  0  0
 18 10  1  0  0  0  0
 21 23  1  0  0  0  0
 22 21  1  0  0  0  0
 24 11  1  0  0  0  0
 25 26  2  0  0  0  0
 26 27  1  0  0  0  0
 26 30  1  0  0  0  0
 27 31  1  6  0  0  0
 27 24  1  0  0  0  0
 27 28  1  0  0  0  0
 28 32  1  0  0  0  0
 28 33  1  0  0  0  0
 29 28  1  0  0  0  0
 29 35  1  0  0  0  0
 30 29  1  0  0  0  0
 34 29  1  0  0  0  0
 36 30  1  0  0  0  0
 36 46  1  0  0  0  0
 37 36  2  0  0  0  0
 38 37  1  0  0  0  0
 39 37  1  0  0  0  0
 39 40  2  0  0  0  0
 40 41  1  0  0  0  0
 41 46  2  0  0  0  0
 41 42  1  0  0  0  0
 42 43  2  0  0  0  0
 43 44  1  0  0  0  0
 45 44  2  0  0  0  0
 46 45  1  0  0  0  0
M  END
>  <minimizedAffinity>
-6.40953541

$$$$

 OpenBabel03252506403D

 46 50  0  0  1  0  0  0  0  0999 V2000
   38.1650   26.4320   36.1500 C   0  0  0  0  0  0  0  0  0  0  0  0
   37.6570   27.7300   36.3030 C   0  0  0  0  0  0  0  0  0  0  0  0
   37.2150   28.1290   37.5170 C   0  0  0  0  0  0  0  0  0  0  0  0
   37.2910   27.2290   38.5300 N   0  0  0  0  0  0  0  0  0  0  0  0
   37.7720   26.0040   38.3810 C   0  0  0  0  0  0  0  0  0  0  0  0
   38.2150   25.5840   37.1960 N   0  0  0  0  0  0  0  0  0  0  0  0
   37.8030   25.1310   39.5240 N   0  0  0  0  0  0  0  0  0  0  0  0
   38.4960   23.8930   39.5690 C   0  0  0  0  0  0  0  0  0  0  0  0
   37.5750   23.0140   40.3970 C   0  0  0  0  0  0  0  0  0  0  0  0
   36.4990   23.9120   40.9220 C   0  0  0  0  0  0  0  0  0  0  0  0
   37.1390   25.2930   40.7960 C   0  0  1  0  0  0  0  0  0  0  0  0
   38.5370   26.0500   35.2020 H   0  0  0  0  0  0  0  0  0  0  0  0
   36.8270   29.1090   37.6500 H   0  0  0  0  0  0  0  0  0  0  0  0
   38.3920   23.4450   38.5270 H   0  0  0  0  0  0  0  0  0  0  0  0
   39.5010   23.7670   39.8190 H   0  0  0  0  0  0  0  0  0  0  0  0
   37.2380   22.1060   39.9040 H   0  0  0  0  0  0  0  0  0  0  0  0
   38.1780   22.6750   41.2820 H   0  0  0  0  0  0  0  0  0  0  0  0
   36.2250   23.6920   41.9730 H   0  0  0  0  0  0  0  0  0  0  0  0
   35.6270   23.8780   40.2350 H   0  0  0  0  0  0  0  0  0  0  0  0
   36.3370   26.0530   40.7830 H   0  0  0  0  0  0  0  0  0  0  0  0
   37.6450   28.5600   35.1280 N   0  0  0  0  0  0  0  0  0  0  0  0
   38.5770   29.0230   35.1480 H   0  0  0  0  0  0  0  0  0  0  0  0
   36.8330   28.6160   34.4680 H   0  0  0  0  0  0  0  0  0  0  0  0
   38.2920   25.5180   42.1300 S   0  0  0  0  0  0  0  0  0  0  0  0
   39.8860   27.8880   40.4050 O   0  0  0  0  0  0  0  0  0  0  0  0
   39.3330   28.0000   41.5100 C   0  0  0  0  0  0  0  0  0  0  0  0
   38.7020   27.1590   42.5560 C   0  0  1  0  0  0  0  0  0  0  0  0
   37.5460   28.0240   42.9960 C   0  0  0  0  0  0  0  0  0  0  0  0
   38.3420   29.3050   43.2740 C   0  0  0  0  0  0  0  0  0  0  0  0
   39.1860   29.3120   42.0860 N   0  0  0  0  0  0  0  0  0  0  0  0
   39.4290   27.3280   43.3990 H   0  0  0  0  0  0  0  0  0  0  0  0
   37.1260   27.6620   43.9490 H   0  0  0  0  0  0  0  0  0  0  0  0
   36.8080   28.2060   42.2130 H   0  0  0  0  0  0  0  0  0  0  0  0
   38.8970   29.2360   44.2140 H   0  0  0  0  0  0  0  0  0  0  0  0
   37.6090   30.1410   43.2530 H   0  0  0  0  0  0  0  0  0  0  0  0
   39.7320   30.5800   41.6740 C   0  0  0  0  0  0  0  0  0  0  0  0
   41.0640   30.7450   42.0370 C   0  0  0  0  0  0  0  0  0  0  0  0
   41.6560   30.0180   42.5730 H   0  0  0  0  0  0  0  0  0  0  0  0
   41.7650   31.9110   41.7240 C   0  0  0  0  0  3  0  0  0  0  0  0
   41.0690   32.8920   41.0340 C   0  0  0  0  0  3  0  0  0  0  0  0
   39.7550   32.7250   40.6780 C   0  0  0  0  0  0  0  0  0  0  0  0
   39.0310   33.6860   39.9870 C   0  0  0  0  0  3  0  0  0  0  0  0
   37.7250   33.4730   39.6550 C   0  0  0  0  0  3  0  0  0  0  0  0
   37.0510   32.2950   39.9830 C   0  0  0  0  0  3  0  0  0  0  0  0
   37.7530   31.3100   40.6760 C   0  0  0  0  0  3  0  0  0  0  0  0
   39.0540   31.5590   40.9900 C   0  0  0  0  0  0  0  0  0  0  0  0
  1  2  2  0  0  0  0
  1  6  1  0  0  0  0
  2  3  1  0  0  0  0
  3 13  1  0  0  0  0
  3  4  2  0  0  0  0
  5  4  1  0  0  0  0
  5  7  1  0  0  0  0
  6  5  2  0  0  0  0
  7  8  1  0  0  0  0
  7 11  1  0  0  0  0
  8 15  1  0  0  0  0
  8  9  1  0  0  0  0
  9 10  1  0  0  0  0
  9 17  1  0  0  0  0
 10 18  1  0  0  0  0
 11 20  1  6  0  0  0
 11 10  1  0  0  0  0
 11 24  1  0  0  0  0
 12  1  1  0  0  0  0
 14  8  1  0  0  0  0
 16  9  1  0  0  0  0
 19 10  1  0  0  0  0
 21 22  1  0  0  0  0
 21  2  1  0  0  0  0
 23 21  1  0  0  0  0
 24 27  1  0  0  0  0
 25 26  2  0  0  0  0
 26 30  1  0  0  0  0
 26 27  1  0  0  0  0
 27 28  1  0  0  0  0
 27 31  1  1  0  0  0
 28 29  1  0  0  0  0
 28 32  1  0  0  0  0
 29 34  1  0  0  0  0
 30 29  1  0  0  0  0
 33 28  1  0  0  0  0
 35 29  1  0  0  0  0
 36 37  1  0  0  0  0
 36 30  1  0  0  0  0
 37 38  1  0  0  0  0
 39 37  2  0  0  0  0
 40 39  1  0  0  0  0
 41 46  1  0  0  0  0
 41 40  2  0  0  0  0
 42 41  1  0  0  0  0
 43 44  1  0  0  0  0
 43 42  2  0  0  0  0
 44 45  2  0  0  0  0
 45 46  1  0  0  0  0
 46 36  2  0  0  0  0
M  END
>  <minimizedAffinity>
-6.37501717

$$$$

 OpenBabel03252506403D

 46 50  0  0  1  0  0  0  0  0999 V2000
   40.0810   32.6500   38.9810 C   0  0  0  0  0  0  0  0  0  0  0  0
   40.0170   31.7670   37.8940 C   0  0  0  0  0  0  0  0  0  0  0  0
   40.4050   30.4810   38.0610 C   0  0  0  0  0  0  0  0  0  0  0  0
   40.8400   30.1220   39.2950 N   0  0  0  0  0  0  0  0  0  0  0  0
   40.8990   30.9600   40.3190 C   0  0  0  0  0  0  0  0  0  0  0  0
   40.5230   32.2310   40.1830 N   0  0  0  0  0  0  0  0  0  0  0  0
   41.3800   30.4710   41.5840 N   0  0  0  0  0  0  0  0  0  0  0  0
   41.2780   31.1800   42.8090 C   0  0  0  0  0  0  0  0  0  0  0  0
   42.5790   30.8380   43.5140 C   0  0  0  0  0  0  0  0  0  0  0  0
   43.2400   29.7830   42.6820 C   0  0  0  0  0  0  0  0  0  0  0  0
   42.0730   29.2360   41.8630 C   0  0  1  0  0  0  0  0  0  0  0  0
   39.7850   33.6940   38.9130 H   0  0  0  0  0  0  0  0  0  0  0  0
   40.3620   29.7990   37.2480 H   0  0  0  0  0  0  0  0  0  0  0  0
   41.4260   32.2770   42.5420 H   0  0  0  0  0  0  0  0  0  0  0  0
   40.4580   31.1660   43.4540 H   0  0  0  0  0  0  0  0  0  0  0  0
   43.1970   31.6900   43.7800 H   0  0  0  0  0  0  0  0  0  0  0  0
   42.2900   30.3540   44.4850 H   0  0  0  0  0  0  0  0  0  0  0  0
   43.7130   28.9850   43.2890 H   0  0  0  0  0  0  0  0  0  0  0  0
   43.9510   30.2650   41.9790 H   0  0  0  0  0  0  0  0  0  0  0  0
   42.4760   28.7400   40.9630 H   0  0  0  0  0  0  0  0  0  0  0  0
   39.5320   32.3060   36.6520 N   0  0  0  0  0  0  0  0  0  0  0  0
   38.5030   32.1630   36.7100 H   0  0  0  0  0  0  0  0  0  0  0  0
   40.1550   32.7260   35.9210 H   0  0  0  0  0  0  0  0  0  0  0  0
   41.1120   28.1460   42.8880 S   0  0  0  0  0  0  0  0  0  0  0  0
   39.9230   27.0640   39.9640 O   0  0  0  0  0  0  0  0  0  0  0  0
   39.2940   27.2340   41.0200 C   0  0  0  0  0  0  0  0  0  0  0  0
   39.4790   27.8080   42.3750 C   0  0  1  0  0  0  0  0  0  0  0  0
   38.7170   26.8310   43.2350 C   0  0  0  0  0  0  0  0  0  0  0  0
   37.3970   26.8550   42.4550 C   0  0  0  0  0  0  0  0  0  0  0  0
   37.9310   26.7750   41.1010 N   0  0  0  0  0  0  0  0  0  0  0  0
   38.7480   28.6620   42.3210 H   0  0  0  0  0  0  0  0  0  0  0  0
   38.5350   27.2500   44.2390 H   0  0  0  0  0  0  0  0  0  0  0  0
   39.1330   25.8220   43.2320 H   0  0  0  0  0  0  0  0  0  0  0  0
   36.8300   27.7690   42.6550 H   0  0  0  0  0  0  0  0  0  0  0  0
   36.8520   25.9270   42.7290 H   0  0  0  0  0  0  0  0  0  0  0  0
   37.0540   26.2670   40.0770 C   0  0  0  0  0  0  0  0  0  0  0  0
   37.0560   24.8790   39.9950 C   0  0  0  0  0  0  0  0  0  0  0  0
   37.6440   24.2210   40.6180 H   0  0  0  0  0  0  0  0  0  0  0  0
   36.2680   24.2040   39.0620 C   0  0  0  0  0  3  0  0  0  0  0  0
   35.4840   24.9830   38.2250 C   0  0  0  0  0  3  0  0  0  0  0  0
   35.4850   26.3520   38.3090 C   0  0  0  0  0  0  0  0  0  0  0  0
   34.7130   27.1600   37.4880 C   0  0  0  0  0  3  0  0  0  0  0  0
   34.7470   28.5180   37.6110 C   0  0  0  0  0  3  0  0  0  0  0  0
   35.5470   29.1650   38.5540 C   0  0  0  0  0  3  0  0  0  0  0  0
   36.3340   28.3800   39.3950 C   0  0  0  0  0  3  0  0  0  0  0  0
   36.2730   27.0280   39.2430 C   0  0  0  0  0  0  0  0  0  0  0  0
  1  6  1  0  0  0  0
  2  3  1  0  0  0  0
  2  1  2  0  0  0  0
  3  4  2  0  0  0  0
  4  5  1  0  0  0  0
  5  7  1  0  0  0  0
  6  5  2  0  0  0  0
  7 11  1  0  0  0  0
  7  8  1  0  0  0  0
  8 15  1  0  0  0  0
  8  9  1  0  0  0  0
  9 16  1  0  0  0  0
  9 17  1  0  0  0  0
 10 18  1  0  0  0  0
 10  9  1  0  0  0  0
 11 20  1  6  0  0  0
 11 10  1  0  0  0  0
 11 24  1  0  0  0  0
 12  1  1  0  0  0  0
 13  3  1  0  0  0  0
 14  8  1  0  0  0  0
 19 10  1  0  0  0  0
 21 22  1  0  0  0  0
 21  2  1  0  0  0  0
 23 21  1  0  0  0  0
 25 26  2  0  0  0  0
 26 30  1  0  0  0  0
 26 27  1  0  0  0  0
 27 31  1  1  0  0  0
 27 24  1  0  0  0  0
 27 28  1  0  0  0  0
 28 32  1  0  0  0  0
 29 34  1  0  0  0  0
 29 35  1  0  0  0  0
 29 28  1  0  0  0  0
 30 29  1  0  0  0  0
 33 28  1  0  0  0  0
 36 30  1  0  0  0  0
 37 36  1  0  0  0  0
 37 38  1  0  0  0  0
 39 37  2  0  0  0  0
 40 41  2  0  0  0  0
 40 39  1  0  0  0  0
 41 46  1  0  0  0  0
 42 43  2  0  0  0  0
 42 41  1  0  0  0  0
 43 44  1  0  0  0  0
 44 45  2  0  0  0  0
 46 45  1  0  0  0  0
 46 36  2  0  0  0  0
M  END
>  <minimizedAffinity>
-6.14824009

$$$$

 OpenBabel03252506403D

 46 50  0  0  1  0  0  0  0  0999 V2000
   42.4190   29.1730   36.1610 C   0  0  0  0  0  0  0  0  0  0  0  0
   42.2700   28.1280   37.0840 C   0  0  0  0  0  0  0  0  0  0  0  0
   42.2120   28.4150   38.4050 C   0  0  0  0  0  0  0  0  0  0  0  0
   42.3040   29.7220   38.7590 N   0  0  0  0  0  0  0  0  0  0  0  0
   42.4440   30.7060   37.8840 C   0  0  0  0  0  0  0  0  0  0  0  0
   42.5040   30.4530   36.5760 N   0  0  0  0  0  0  0  0  0  0  0  0
   42.5350   32.0560   38.3710 N   0  0  0  0  0  0  0  0  0  0  0  0
   42.4510   33.2120   37.5520 C   0  0  0  0  0  0  0  0  0  0  0  0
   43.4480   34.1610   38.1940 C   0  0  0  0  0  0  0  0  0  0  0  0
   43.8840   33.5100   39.4690 C   0  0  0  0  0  0  0  0  0  0  0  0
   42.7590   32.5080   39.7240 C   0  0  1  0  0  0  0  0  0  0  0  0
   42.4720   29.0110   35.0870 H   0  0  0  0  0  0  0  0  0  0  0  0
   42.1000   27.6360   39.1180 H   0  0  0  0  0  0  0  0  0  0  0  0
   42.9700   32.9350   36.5770 H   0  0  0  0  0  0  0  0  0  0  0  0
   41.5710   33.6920   37.2640 H   0  0  0  0  0  0  0  0  0  0  0  0
   44.2440   34.5060   37.5400 H   0  0  0  0  0  0  0  0  0  0  0  0
   42.8670   35.0790   38.4790 H   0  0  0  0  0  0  0  0  0  0  0  0
   43.9820   34.2250   40.3100 H   0  0  0  0  0  0  0  0  0  0  0  0
   44.8160   32.9340   39.2860 H   0  0  0  0  0  0  0  0  0  0  0  0
   43.1360   31.7200   40.3980 H   0  0  0  0  0  0  0  0  0  0  0  0
   42.1890   26.7980   36.5450 N   0  0  0  0  0  0  0  0  0  0  0  0
   41.1700   26.6670   36.3730 H   0  0  0  0  0  0  0  0  0  0  0  0
   43.0230   26.1810   36.3970 H   0  0  0  0  0  0  0  0  0  0  0  0
   41.3540   33.3760   40.3820 S   0  0  0  0  0  0  0  0  0  0  0  0
   39.6810   30.4910   40.2820 O   0  0  0  0  0  0  0  0  0  0  0  0
   39.2820   31.6100   39.9220 C   0  0  0  0  0  0  0  0  0  0  0  0
   39.7940   32.9850   39.7090 C   0  0  1  0  0  0  0  0  0  0  0  0
   38.6430   33.8260   40.2050 C   0  0  0  0  0  0  0  0  0  0  0  0
   37.5350   33.1730   39.3700 C   0  0  0  0  0  0  0  0  0  0  0  0
   37.8960   31.7740   39.5680 N   0  0  0  0  0  0  0  0  0  0  0  0
   39.6550   33.0680   38.5950 H   0  0  0  0  0  0  0  0  0  0  0  0
   38.7530   34.8740   39.8770 H   0  0  0  0  0  0  0  0  0  0  0  0
   38.4320   33.7020   41.2680 H   0  0  0  0  0  0  0  0  0  0  0  0
   37.5740   33.4980   38.3260 H   0  0  0  0  0  0  0  0  0  0  0  0
   36.5760   33.4170   39.8750 H   0  0  0  0  0  0  0  0  0  0  0  0
   36.8540   30.7940   39.3880 C   0  0  0  0  0  0  0  0  0  0  0  0
   36.2170   30.4510   40.5740 C   0  0  0  0  0  0  0  0  0  0  0  0
   36.4540   30.8570   41.5460 H   0  0  0  0  0  0  0  0  0  0  0  0
   35.1800   29.5170   40.5990 C   0  0  0  0  0  3  0  0  0  0  0  0
   34.8190   28.9510   39.3860 C   0  0  0  0  0  3  0  0  0  0  0  0
   35.4510   29.2930   38.2170 C   0  0  0  0  0  0  0  0  0  0  0  0
   35.1140   28.7470   36.9880 C   0  0  0  0  0  3  0  0  0  0  0  0
   35.7720   29.1190   35.8530 C   0  0  0  0  0  3  0  0  0  0  0  0
   36.8060   30.0570   35.8600 C   0  0  0  0  0  3  0  0  0  0  0  0
   37.1670   30.6240   37.0810 C   0  0  0  0  0  3  0  0  0  0  0  0
   36.4870   30.2280   38.1920 C   0  0  0  0  0  0  0  0  0  0  0  0
  1  6  2  0  0  0  0
  1  2  1  0  0  0  0
  2  3  2  0  0  0  0
  3  4  1  0  0  0  0
  3 13  1  0  0  0  0
  5  7  1  0  0  0  0
  5  4  2  0  0  0  0
  6  5  1  0  0  0  0
  7 11  1  0  0  0  0
  8  9  1  0  0  0  0
  8  7  1  0  0  0  0
  9 17  1  0  0  0  0
  9 10  1  0  0  0  0
 10 11  1  0  0  0  0
 10 18  1  0  0  0  0
 11 24  1  0  0  0  0
 11 20  1  1  0  0  0
 12  1  1  0  0  0  0
 14  8  1  0  0  0  0
 15  8  1  0  0  0  0
 16  9  1  0  0  0  0
 19 10  1  0  0  0  0
 21  2  1  0  0  0  0
 22 21  1  0  0  0  0
 23 21  1  0  0  0  0
 26 25  2  0  0  0  0
 27 31  1  6  0  0  0
 27 26  1  0  0  0  0
 27 28  1  0  0  0  0
 27 24  1  0  0  0  0
 28 33  1  0  0  0  0
 29 30  1  0  0  0  0
 29 35  1  0  0  0  0
 29 28  1  0  0  0  0
 30 26  1  0  0  0  0
 32 28  1  0  0  0  0
 34 29  1  0  0  0  0
 36 30  1  0  0  0  0
 36 37  1  0  0  0  0
 37 39  2  0  0  0  0
 37 38  1  0  0  0  0
 40 39  1  0  0  0  0
 41 40  2  0  0  0  0
 42 41  1  0  0  0  0
 43 44  1  0  0  0  0
 43 42  2  0  0  0  0
 44 45  2  0  0  0  0
 45 46  1  0  0  0  0
 46 41  1  0  0  0  0
 46 36  2  0  0  0  0
M  END
>  <minimizedAffinity>
-6.14692497

$$$$

 OpenBabel03252506403D

 46 50  0  0  1  0  0  0  0  0999 V2000
   39.2300   33.6670   40.7130 C   0  0  0  0  0  0  0  0  0  0  0  0
   38.3440   32.8650   39.9790 C   0  0  0  0  0  0  0  0  0  0  0  0
   38.8330   32.0400   39.0260 C   0  0  0  0  0  0  0  0  0  0  0  0
   40.1770   32.0410   38.8360 N   0  0  0  0  0  0  0  0  0  0  0  0
   41.0100   32.7990   39.5320 C   0  0  0  0  0  0  0  0  0  0  0  0
   40.5570   33.6220   40.4770 N   0  0  0  0  0  0  0  0  0  0  0  0
   42.4180   32.7220   39.2450 N   0  0  0  0  0  0  0  0  0  0  0  0
   43.4350   33.2910   40.0550 C   0  0  0  0  0  0  0  0  0  0  0  0
   44.4510   33.7810   39.0390 C   0  0  0  0  0  0  0  0  0  0  0  0
   43.9960   33.2630   37.7100 C   0  0  0  0  0  0  0  0  0  0  0  0
   43.0700   32.1160   38.1080 C   0  0  1  0  0  0  0  0  0  0  0  0
   38.9030   34.3510   41.4920 H   0  0  0  0  0  0  0  0  0  0  0  0
   38.1760   31.4250   38.4610 H   0  0  0  0  0  0  0  0  0  0  0  0
   42.9990   34.2650   40.4550 H   0  0  0  0  0  0  0  0  0  0  0  0
   43.8810   32.8350   40.8810 H   0  0  0  0  0  0  0  0  0  0  0  0
   44.6730   34.8430   39.0840 H   0  0  0  0  0  0  0  0  0  0  0  0
   45.4140   33.2560   39.2810 H   0  0  0  0  0  0  0  0  0  0  0  0
   44.8310   32.9020   37.0760 H   0  0  0  0  0  0  0  0  0  0  0  0
   43.3800   34.0380   37.2070 H   0  0  0  0  0  0  0  0  0  0  0  0
   42.3870   31.9060   37.2650 H   0  0  0  0  0  0  0  0  0  0  0  0
   36.9480   32.9830   40.3030 N   0  0  0  0  0  0  0  0  0  0  0  0
   36.8130   32.2800   41.0580 H   0  0  0  0  0  0  0  0  0  0  0  0
   36.2990   33.6560   39.8290 H   0  0  0  0  0  0  0  0  0  0  0  0
   44.0570   30.7120   38.5710 S   0  0  0  0  0  0  0  0  0  0  0  0
   42.7720   30.0500   41.5790 O   0  0  0  0  0  0  0  0  0  0  0  0
   42.6700   29.3690   40.5460 C   0  0  0  0  0  0  0  0  0  0  0  0
   43.2100   29.3080   39.1660 C   0  0  1  0  0  0  0  0  0  0  0  0
   41.9930   28.8990   38.3730 C   0  0  0  0  0  0  0  0  0  0  0  0
   41.6050   27.6740   39.2080 C   0  0  0  0  0  0  0  0  0  0  0  0
   41.7730   28.2430   40.5400 N   0  0  0  0  0  0  0  0  0  0  0  0
   43.7670   28.3310   39.2240 H   0  0  0  0  0  0  0  0  0  0  0  0
   42.2800   28.5560   37.3640 H   0  0  0  0  0  0  0  0  0  0  0  0
   41.1870   29.6340   38.3910 H   0  0  0  0  0  0  0  0  0  0  0  0
   42.2620   26.8230   39.0030 H   0  0  0  0  0  0  0  0  0  0  0  0
   40.5350   27.4700   38.9890 H   0  0  0  0  0  0  0  0  0  0  0  0
   41.0450   27.6220   41.6170 C   0  0  0  0  0  0  0  0  0  0  0  0
   41.6720   26.4850   42.1160 C   0  0  0  0  0  0  0  0  0  0  0  0
   42.6060   26.0830   41.7540 H   0  0  0  0  0  0  0  0  0  0  0  0
   41.1170   25.7480   43.1630 C   0  0  0  0  0  3  0  0  0  0  0  0
   39.9140   26.2040   43.6800 C   0  0  0  0  0  3  0  0  0  0  0  0
   39.2980   27.3260   43.1850 C   0  0  0  0  0  0  0  0  0  0  0  0
   38.0960   27.8100   43.6800 C   0  0  0  0  0  3  0  0  0  0  0  0
   37.5240   28.9300   43.1540 C   0  0  0  0  0  3  0  0  0  0  0  0
   38.1040   29.6470   42.1060 C   0  0  0  0  0  3  0  0  0  0  0  0
   39.3130   29.1860   41.5880 C   0  0  0  0  0  3  0  0  0  0  0  0
   39.8540   28.0640   42.1380 C   0  0  0  0  0  0  0  0  0  0  0  0
  1 12  1  0  0  0  0
  2 21  1  0  0  0  0
  2  1  2  0  0  0  0
  3  2  1  0  0  0  0
  4  3  2  0  0  0  0
  4  5  1  0  0  0  0
  5  6  2  0  0  0  0
  6  1  1  0  0  0  0
  7  5  1  0  0  0  0
  7  8  1  0  0  0  0
  8 14  1  0  0  0  0
  8 15  1  0  0  0  0
  9 16  1  0  0  0  0
  9 17  1  0  0  0  0
  9  8  1  0  0  0  0
 10 11  1  0  0  0  0
 10  9  1  0  0  0  0
 11 20  1  6  0  0  0
 11 24  1  0  0  0  0
 11  7  1  0  0  0  0
 13  3  1  0  0  0  0
 18 10  1  0  0  0  0
 19 10  1  0  0  0  0
 21 22  1  0  0  0  0
 23 21  1  0  0  0  0
 24 27  1  0  0  0  0
 26 25  2  0  0  0  0
 27 31  1  6  0  0  0
 27 26  1  0  0  0  0
 28 33  1  0  0  0  0
 28 27  1  0  0  0  0
 28 29  1  0  0  0  0
 29 30  1  0  0  0  0
 30 26  1  0  0  0  0
 30 36  1  0  0  0  0
 32 28  1  0  0  0  0
 34 29  1  0  0  0  0
 35 29  1  0  0  0  0
 36 37  2  0  0  0  0
 36 46  1  0  0  0  0
 37 39  1  0  0  0  0
 38 37  1  0  0  0  0
 39 40  2  0  0  0  0
 41 40  1  0  0  0  0
 41 42  1  0  0  0  0
 43 42  2  0  0  0  0
 44 43  1  0  0  0  0
 45 44  2  0  0  0  0
 45 46  1  0  0  0  0
 46 41  2  0  0  0  0
M  END
>  <minimizedAffinity>
-6.13511324

$$$$

 OpenBabel03252506403D

 46 50  0  0  1  0  0  0  0  0999 V2000
   39.4440   32.4760   38.9630 C   0  0  0  0  0  0  0  0  0  0  0  0
   39.0960   32.8390   40.2720 C   0  0  0  0  0  0  0  0  0  0  0  0
   38.0870   32.1870   40.8940 C   0  0  0  0  0  0  0  0  0  0  0  0
   37.4640   31.2030   40.1970 N   0  0  0  0  0  0  0  0  0  0  0  0
   37.7970   30.8640   38.9610 C   0  0  0  0  0  0  0  0  0  0  0  0
   38.7860   31.4890   38.3240 N   0  0  0  0  0  0  0  0  0  0  0  0
   37.0650   29.8060   38.3150 N   0  0  0  0  0  0  0  0  0  0  0  0
   37.4570   29.1860   37.1000 C   0  0  0  0  0  0  0  0  0  0  0  0
   36.1330   28.9360   36.3990 C   0  0  0  0  0  0  0  0  0  0  0  0
   35.0640   29.2770   37.3900 C   0  0  0  0  0  0  0  0  0  0  0  0
   35.8170   29.2040   38.7170 C   0  0  1  0  0  0  0  0  0  0  0  0
   40.2440   32.9600   38.4080 H   0  0  0  0  0  0  0  0  0  0  0  0
   37.8110   32.4490   41.8850 H   0  0  0  0  0  0  0  0  0  0  0  0
   37.9170   30.0130   36.4670 H   0  0  0  0  0  0  0  0  0  0  0  0
   38.1150   28.3800   37.0130 H   0  0  0  0  0  0  0  0  0  0  0  0
   36.0370   29.3950   35.4190 H   0  0  0  0  0  0  0  0  0  0  0  0
   36.0760   27.8280   36.2250 H   0  0  0  0  0  0  0  0  0  0  0  0
   34.2140   28.5660   37.3720 H   0  0  0  0  0  0  0  0  0  0  0  0
   34.7470   30.3300   37.2380 H   0  0  0  0  0  0  0  0  0  0  0  0
   35.2620   29.7920   39.4690 H   0  0  0  0  0  0  0  0  0  0  0  0
   39.8560   33.9040   40.8700 N   0  0  0  0  0  0  0  0  0  0  0  0
   40.6550   33.4110   41.3190 H   0  0  0  0  0  0  0  0  0  0  0  0
   39.5820   34.9140   40.8100 H   0  0  0  0  0  0  0  0  0  0  0  0
   36.0130   27.4970   39.1750 S   0  0  0  0  0  0  0  0  0  0  0  0
   39.3180   27.5100   39.6310 O   0  0  0  0  0  0  0  0  0  0  0  0
   38.4370   27.3560   40.4910 C   0  0  0  0  0  0  0  0  0  0  0  0
   36.9700   27.1610   40.5930 C   0  0  1  0  0  0  0  0  0  0  0  0
   36.6320   27.9810   41.8140 C   0  0  0  0  0  0  0  0  0  0  0  0
   37.6590   27.3620   42.7690 C   0  0  0  0  0  0  0  0  0  0  0  0
   38.8140   27.3420   41.8800 N   0  0  0  0  0  0  0  0  0  0  0  0
   36.9470   26.1200   41.0210 H   0  0  0  0  0  0  0  0  0  0  0  0
   35.6220   27.7360   42.1840 H   0  0  0  0  0  0  0  0  0  0  0  0
   36.8270   29.0480   41.6970 H   0  0  0  0  0  0  0  0  0  0  0  0
   37.3440   26.3710   43.1110 H   0  0  0  0  0  0  0  0  0  0  0  0
   37.8000   28.0910   43.5960 H   0  0  0  0  0  0  0  0  0  0  0  0
   40.1170   27.3120   42.4950 C   0  0  0  0  0  0  0  0  0  0  0  0
   40.5400   26.0270   42.8160 C   0  0  0  0  0  0  0  0  0  0  0  0
   39.9740   25.1250   42.6380 H   0  0  0  0  0  0  0  0  0  0  0  0
   41.7780   25.7970   43.4180 C   0  0  0  0  0  3  0  0  0  0  0  0
   42.5620   26.9110   43.6790 C   0  0  0  0  0  3  0  0  0  0  0  0
   42.1410   28.1770   43.3610 C   0  0  0  0  0  0  0  0  0  0  0  0
   42.9010   29.3110   43.6080 C   0  0  0  0  0  3  0  0  0  0  0  0
   42.4380   30.5490   43.2720 C   0  0  0  0  0  3  0  0  0  0  0  0
   41.1950   30.7460   42.6700 C   0  0  0  0  0  3  0  0  0  0  0  0
   40.4080   29.6260   42.4090 C   0  0  0  0  0  3  0  0  0  0  0  0
   40.9030   28.4060   42.7580 C   0  0  0  0  0  0  0  0  0  0  0  0
  1  2  1  0  0  0  0
  2 21  1  0  0  0  0
  2  3  2  0  0  0  0
  3 13  1  0  0  0  0
  4  3  1  0  0  0  0
  5  4  2  0  0  0  0
  6  5  1  0  0  0  0
  6  1  2  0  0  0  0
  7 11  1  0  0  0  0
  7  5  1  0  0  0  0
  8  7  1  0  0  0  0
  9  8  1  0  0  0  0
  9 10  1  0  0  0  0
 10 11  1  0  0  0  0
 11 24  1  0  0  0  0
 11 20  1  1  0  0  0
 12  1  1  0  0  0  0
 14  8  1  0  0  0  0
 15  8  1  0  0  0  0
 16  9  1  0  0  0  0
 17  9  1  0  0  0  0
 18 10  1  0  0  0  0
 19 10  1  0  0  0  0
 21 22  1  0  0  0  0
 23 21  1  0  0  0  0
 24 27  1  0  0  0  0
 25 26  2  0  0  0  0
 26 27  1  0  0  0  0
 26 30  1  0  0  0  0
 27 31  1  1  0  0  0
 27 28  1  0  0  0  0
 28 32  1  0  0  0  0
 28 29  1  0  0  0  0
 29 34  1  0  0  0  0
 29 35  1  0  0  0  0
 30 36  1  0  0  0  0
 30 29  1  0  0  0  0
 33 28  1  0  0  0  0
 36 46  2  0  0  0  0
 36 37  1  0  0  0  0
 37 39  2  0  0  0  0
 38 37  1  0  0  0  0
 39 40  1  0  0  0  0
 41 42  1  0  0  0  0
 41 40  2  0  0  0  0
 43 42  2  0  0  0  0
 44 43  1  0  0  0  0
 45 44  2  0  0  0  0
 45 46  1  0  0  0  0
 46 41  1  0  0  0  0
M  END
>  <minimizedAffinity>
-6.12540483

$$$$

 OpenBabel03252506403D

 46 50  0  0  1  0  0  0  0  0999 V2000
   30.7490   31.1870   34.3470 C   0  0  0  0  0  0  0  0  0  0  0  0
   29.9610   31.6080   35.4270 C   0  0  0  0  0  0  0  0  0  0  0  0
   30.2850   31.2090   36.6780 C   0  0  0  0  0  0  0  0  0  0  0  0
   31.3750   30.4110   36.8110 N   0  0  0  0  0  0  0  0  0  0  0  0
   32.1170   30.0160   35.7880 C   0  0  0  0  0  0  0  0  0  0  0  0
   31.8210   30.3940   34.5440 N   0  0  0  0  0  0  0  0  0  0  0  0
   33.2500   29.1670   36.0430 N   0  0  0  0  0  0  0  0  0  0  0  0
   34.2560   28.8630   35.0900 C   0  0  0  0  0  0  0  0  0  0  0  0
   34.5880   27.4120   35.3910 C   0  0  0  0  0  0  0  0  0  0  0  0
   33.8520   27.0670   36.6480 C   0  0  0  0  0  0  0  0  0  0  0  0
   33.5740   28.4430   37.2490 C   0  0  1  0  0  0  0  0  0  0  0  0
   30.5440   31.4710   33.3180 H   0  0  0  0  0  0  0  0  0  0  0  0
   29.6980   31.5180   37.5080 H   0  0  0  0  0  0  0  0  0  0  0  0
   33.7180   28.7890   34.0890 H   0  0  0  0  0  0  0  0  0  0  0  0
   35.1070   29.4370   34.8990 H   0  0  0  0  0  0  0  0  0  0  0  0
   34.4550   26.7270   34.5580 H   0  0  0  0  0  0  0  0  0  0  0  0
   35.6840   27.3860   35.6360 H   0  0  0  0  0  0  0  0  0  0  0  0
   34.4490   26.4390   37.3410 H   0  0  0  0  0  0  0  0  0  0  0  0
   32.8760   26.6070   36.3860 H   0  0  0  0  0  0  0  0  0  0  0  0
   32.7280   28.3540   37.9540 H   0  0  0  0  0  0  0  0  0  0  0  0
   28.8390   32.4520   35.1160 N   0  0  0  0  0  0  0  0  0  0  0  0
   29.2390   33.4120   35.1550 H   0  0  0  0  0  0  0  0  0  0  0  0
   27.8780   32.0860   34.9130 H   0  0  0  0  0  0  0  0  0  0  0  0
   35.0600   29.0480   38.0160 S   0  0  0  0  0  0  0  0  0  0  0  0
   37.6020   27.0310   38.7940 O   0  0  0  0  0  0  0  0  0  0  0  0
   36.7810   27.5470   39.5690 C   0  0  0  0  0  0  0  0  0  0  0  0
   35.5190   28.3250   39.5350 C   0  0  1  0  0  0  0  0  0  0  0  0
   35.7170   29.2890   40.6790 C   0  0  0  0  0  0  0  0  0  0  0  0
   36.0740   28.2590   41.7570 C   0  0  0  0  0  0  0  0  0  0  0  0
   36.9970   27.4340   40.9880 N   0  0  0  0  0  0  0  0  0  0  0  0
   34.8220   27.5760   40.0050 H   0  0  0  0  0  0  0  0  0  0  0  0
   34.7630   29.7690   40.9580 H   0  0  0  0  0  0  0  0  0  0  0  0
   36.5480   29.9810   40.5340 H   0  0  0  0  0  0  0  0  0  0  0  0
   35.1880   27.7240   42.1100 H   0  0  0  0  0  0  0  0  0  0  0  0
   36.6040   28.8150   42.5610 H   0  0  0  0  0  0  0  0  0  0  0  0
   37.9570   26.6540   41.7280 C   0  0  0  0  0  0  0  0  0  0  0  0
   37.5850   25.3210   41.8680 C   0  0  0  0  0  0  0  0  0  0  0  0
   36.6790   24.8860   41.4750 H   0  0  0  0  0  0  0  0  0  0  0  0
   38.3890   24.4100   42.5540 C   0  0  0  0  0  3  0  0  0  0  0  0
   39.5720   24.8990   43.0890 C   0  0  0  0  0  3  0  0  0  0  0  0
   39.9340   26.2140   42.9490 C   0  0  0  0  0  0  0  0  0  0  0  0
   41.1090   26.7340   43.4700 C   0  0  0  0  0  3  0  0  0  0  0  0
   41.4260   28.0500   43.3050 C   0  0  0  0  0  3  0  0  0  0  0  0
   40.6010   28.9380   42.6120 C   0  0  0  0  0  3  0  0  0  0  0  0
   39.4130   28.4450   42.0760 C   0  0  0  0  0  3  0  0  0  0  0  0
   39.1310   27.1260   42.2610 C   0  0  0  0  0  0  0  0  0  0  0  0
  1  6  2  0  0  0  0
  1  2  1  0  0  0  0
  2  3  2  0  0  0  0
  3  4  1  0  0  0  0
  3 13  1  0  0  0  0
  5  7  1  0  0  0  0
  5  4  2  0  0  0  0
  6  5  1  0  0  0  0
  7 11  1  0  0  0  0
  8  9  1  0  0  0  0
  8  7  1  0  0  0  0
  9 17  1  0  0  0  0
  9 10  1  0  0  0  0
 10 11  1  0  0  0  0
 10 18  1  0  0  0  0
 11 20  1  1  0  0  0
 11 24  1  0  0  0  0
 12  1  1  0  0  0  0
 14  8  1  0  0  0  0
 15  8  1  0  0  0  0
 16  9  1  0  0  0  0
 19 10  1  0  0  0  0
 21 22  1  0  0  0  0
 21  2  1  0  0  0  0
 23 21  1  0  0  0  0
 24 27  1  0  0  0  0
 25 26  2  0  0  0  0
 26 30  1  0  0  0  0
 27 26  1  0  0  0  0
 27 31  1  1  0  0  0
 27 28  1  0  0  0  0
 28 32  1  0  0  0  0
 28 29  1  0  0  0  0
 29 34  1  0  0  0  0
 29 35  1  0  0  0  0
 30 36  1  0  0  0  0
 30 29  1  0  0  0  0
 33 28  1  0  0  0  0
 36 37  2  0  0  0  0
 36 46  1  0  0  0  0
 37 39  1  0  0  0  0
 38 37  1  0  0  0  0
 39 40  2  0  0  0  0
 41 40  1  0  0  0  0
 41 42  1  0  0  0  0
 43 42  2  0  0  0  0
 44 43  1  0  0  0  0
 45 46  1  0  0  0  0
 45 44  2  0  0  0  0
 46 41  2  0  0  0  0
M  END
>  <minimizedAffinity>
-6.11033869

$$$$
