
 OpenBabel03242519473D

 41 43  0  0  1  0  0  0  0  0999 V2000
   46.6210   32.5720   46.5120 C   0  0  2  0  0  0  0  0  0  0  0  0
   47.1530   32.6700   45.1360 C   0  0  1  0  0  0  0  0  0  0  0  0
   46.8470   31.3530   44.5530 O   0  0  0  0  0  0  0  0  0  0  0  0
   47.4800   30.5970   45.5630 C   0  0  0  0  0  0  0  0  0  0  0  0
   46.6710   31.0710   46.7810 C   0  0  2  0  0  0  0  0  0  0  0  0
   47.1690   33.1380   47.2740 H   0  0  0  0  0  0  0  0  0  0  0  0
   48.2670   32.7030   45.1640 H   0  0  0  0  0  0  0  0  0  0  0  0
   47.5550   29.5580   45.4060 H   0  0  0  0  0  0  0  0  0  0  0  0
   48.4770   31.0860   45.7070 H   0  0  0  0  0  0  0  0  0  0  0  0
   47.2700   30.8250   47.6860 H   0  0  0  0  0  0  0  0  0  0  0  0
   44.8080   35.2500   44.0750 C   0  0  0  0  0  0  0  0  0  0  0  0
   45.3600   35.7410   42.8900 C   0  0  0  0  0  0  0  0  0  0  0  0
   46.5700   35.1700   42.4330 C   0  0  0  0  0  0  0  0  0  0  0  0
   47.1370   34.1760   43.1620 N   0  0  0  0  0  0  0  0  0  0  0  0
   46.5820   33.7200   44.3040 C   0  0  0  0  0  0  0  0  0  0  0  0
   45.4190   34.2510   44.7680 N   0  0  0  0  0  0  0  0  0  0  0  0
   44.8780   36.5320   42.3410 H   0  0  0  0  0  0  0  0  0  0  0  0
   47.0340   35.5190   41.5180 H   0  0  0  0  0  0  0  0  0  0  0  0
   43.6120   35.7780   44.5780 O   0  0  0  0  0  0  0  0  0  0  0  0
   43.1550   36.5100   44.0390 H   0  0  0  0  0  0  0  0  0  0  0  0
   45.2350   32.9700   46.5100 O   0  0  0  0  0  0  0  0  0  0  0  0
   44.7580   32.2160   46.0550 H   0  0  0  0  0  0  0  0  0  0  0  0
   45.4450   30.5110   46.7280 O   0  0  0  0  0  0  0  0  0  0  0  0
   45.1130   29.5730   47.6620 C   0  0  0  0  0  0  0  0  0  0  0  0
   43.9560   29.4110   47.5960 H   0  0  0  0  0  0  0  0  0  0  0  0
   45.3530   29.8280   48.6560 H   0  0  0  0  0  0  0  0  0  0  0  0
   45.5540   28.1650   47.3000 C   0  0  0  0  0  0  0  0  0  0  0  0
   46.2000   27.7250   48.0790 H   0  0  0  0  0  0  0  0  0  0  0  0
   46.1270   28.0950   46.3660 H   0  0  0  0  0  0  0  0  0  0  0  0
   44.0580   26.3040   47.9060 C   0  0  0  0  0  0  0  0  0  0  0  0
   44.3210   27.3800   47.0640 C   0  0  0  0  0  0  0  0  0  0  0  0
   43.4070   27.6380   46.0650 C   0  0  0  0  0  0  0  0  0  0  0  0
   43.5600   28.4530   45.3780 H   0  0  0  0  0  0  0  0  0  0  0  0
   42.2580   26.9130   45.8400 C   0  0  0  0  0  0  0  0  0  0  0  0
   41.5670   27.1600   45.0330 H   0  0  0  0  0  0  0  0  0  0  0  0
   41.9610   25.8400   46.6510 C   0  0  0  0  0  0  0  0  0  0  0  0
   42.8830   25.5780   47.6600 C   0  0  0  0  0  0  0  0  0  0  0  0
   46.1330   26.4960   49.4530 H   0  0  0  0  0  0  0  0  0  0  0  0
   45.0140   25.7290   49.2340 S   0  0  0  0  0  0  0  0  0  0  0  0
   44.1700   25.8660   50.4990 O   0  0  0  0  0  0  0  0  0  0  0  0
   45.4020   24.3030   49.1610 O   0  0  0  0  0  0  0  0  0  0  0  0
  1  5  1  0  0  0  0
  1  6  1  1  0  0  0
  2  7  1  1  0  0  0
  2  1  1  0  0  0  0
  3  2  1  0  0  0  0
  3  4  1  0  0  0  0
  4  9  1  0  0  0  0
  4  5  1  0  0  0  0
  5 10  1  1  0  0  0
  8  4  1  0  0  0  0
 11 19  1  0  0  0  0
 11 16  1  0  0  0  0
 12 11  2  0  0  0  0
 13 12  1  0  0  0  0
 13 14  2  0  0  0  0
 14 15  1  0  0  0  0
 15 16  2  0  0  0  0
 15  2  1  0  0  0  0
 17 12  1  0  0  0  0
 18 13  1  0  0  0  0
 20 19  1  0  0  0  0
 21  1  1  0  0  0  0
 22 21  1  0  0  0  0
 23  5  1  0  0  0  0
 23 24  1  0  0  0  0
 24 26  1  0  0  0  0
 25 24  1  0  0  0  0
 27 24  1  0  0  0  0
 27 28  1  0  0  0  0
 29 27  1  0  0  0  0
 30 39  1  0  0  0  0
 31 27  1  0  0  0  0
 31 30  2  0  0  0  0
 32 31  1  0  0  0  0
 33 32  1  0  0  0  0
 34 32  2  0  0  0  0
 34 36  1  0  0  0  0
 35 34  1  0  0  0  0
 36 37  2  0  0  0  0
 37 30  1  0  0  0  0
 39 38  1  0  0  0  0
 39 40  2  0  0  0  0
 41 39  2  0  0  0  0
M  END
>  <minimizedAffinity>
-6.03584385

>  <minimizedRMSD>
1.90680528

$$$$
