
 OpenBabel03242515343D

 43 46  0  0  1  0  0  0  0  0999 V2000
   38.4820   27.6040   39.7100 F   0  0  0  0  0  0  0  0  0  0  0  0
   38.1310   27.8820   41.0160 C   0  0  0  0  0  0  0  0  0  0  0  0
   38.1530   29.2000   41.3910 C   0  0  0  0  0  0  0  0  0  0  0  0
   37.7860   29.4360   42.7060 C   0  0  0  0  0  0  0  0  0  0  0  0
   37.4290   28.4060   43.5490 C   0  0  0  0  0  0  0  0  0  0  0  0
   37.4270   27.0760   43.1000 C   0  0  0  0  0  0  0  0  0  0  0  0
   37.7970   26.8100   41.7690 C   0  0  0  0  0  0  0  0  0  0  0  0
   37.7540   30.4210   43.1460 H   0  0  0  0  0  0  0  0  0  0  0  0
   37.1410   28.5910   44.5770 H   0  0  0  0  0  0  0  0  0  0  0  0
   37.1480   26.2570   43.7550 H   0  0  0  0  0  0  0  0  0  0  0  0
   37.4320   30.9340   39.8170 N   0  0  0  0  0  0  0  0  0  0  0  0
   37.2870   32.2540   40.3700 C   0  0  0  0  0  0  0  0  0  0  0  0
   38.7550   32.6430   40.4140 C   0  0  0  0  0  0  0  0  0  0  0  0
   39.2790   31.4360   41.1970 C   0  0  0  0  0  0  0  0  0  0  0  0
   38.5500   30.3170   40.5360 C   0  0  1  0  0  0  0  0  0  0  0  0
   36.8950   32.2720   41.4000 H   0  0  0  0  0  0  0  0  0  0  0  0
   36.7240   32.9400   39.6990 H   0  0  0  0  0  0  0  0  0  0  0  0
   38.9230   33.5750   40.9750 H   0  0  0  0  0  0  0  0  0  0  0  0
   39.1580   32.6360   39.3840 H   0  0  0  0  0  0  0  0  0  0  0  0
   40.3730   31.3530   41.1640 H   0  0  0  0  0  0  0  0  0  0  0  0
   38.9220   31.5990   42.2410 H   0  0  0  0  0  0  0  0  0  0  0  0
   39.1770   29.9030   39.6970 H   0  0  0  0  0  0  0  0  0  0  0  0
   34.8840   28.9370   37.9780 C   0  0  0  0  0  0  0  0  0  0  0  0
   35.5240   29.5760   39.0300 C   0  0  0  0  0  0  0  0  0  0  0  0
   36.7190   30.2610   38.7940 C   0  0  0  0  0  0  0  0  0  0  0  0
   37.1920   30.2620   37.5370 N   0  0  0  0  0  0  0  0  0  0  0  0
   36.5670   29.6390   36.5160 C   0  0  0  0  0  0  0  0  0  0  0  0
   35.4090   28.9750   36.7400 N   0  0  0  0  0  0  0  0  0  0  0  0
   33.9570   28.4200   38.2230 H   0  0  0  0  0  0  0  0  0  0  0  0
   35.1310   29.5650   40.0370 H   0  0  0  0  0  0  0  0  0  0  0  0
   37.0170   29.6910   35.5350 H   0  0  0  0  0  0  0  0  0  0  0  0
   38.9890   24.7260   41.1720 C   0  0  0  0  0  0  0  0  0  0  0  0
   37.8160   25.4490   41.2420 C   0  0  0  0  0  0  0  0  0  0  0  0
   36.5940   24.9540   40.8300 C   0  0  0  0  0  0  0  0  0  0  0  0
   35.6770   25.5570   40.8990 H   0  0  0  0  0  0  0  0  0  0  0  0
   36.4820   23.6810   40.3130 C   0  0  0  0  0  0  0  0  0  0  0  0
   35.5790   23.2330   39.9760 H   0  0  0  0  0  0  0  0  0  0  0  0
   37.6500   22.9210   40.2280 C   0  0  0  0  0  3  0  0  0  0  0  0
   38.8770   23.4320   40.6490 C   0  0  0  0  0  3  0  0  0  0  0  0
   40.4490   26.7440   41.8070 H   0  0  0  0  0  0  0  0  0  0  0  0
   40.4940   25.3870   41.7010 S   0  0  0  0  0  0  0  0  0  0  0  0
   40.9770   24.7240   42.9790 O   0  0  0  0  0  0  0  0  0  0  0  0
   41.5370   25.0480   40.6500 O   0  0  0  0  0  0  0  0  0  0  0  0
  1  2  1  0  0  0  0
  2  3  2  0  0  0  0
  2  7  1  0  0  0  0
  3  4  1  0  0  0  0
  4  8  1  0  0  0  0
  4  5  2  0  0  0  0
  5  9  1  0  0  0  0
  6  5  1  0  0  0  0
  6 10  1  0  0  0  0
  7  6  2  0  0  0  0
 11 12  1  0  0  0  0
 11 15  1  0  0  0  0
 12 13  1  0  0  0  0
 12 16  1  0  0  0  0
 13 18  1  0  0  0  0
 13 14  1  0  0  0  0
 14 21  1  0  0  0  0
 15 22  1  6  0  0  0
 15 14  1  0  0  0  0
 15  3  1  0  0  0  0
 17 12  1  0  0  0  0
 19 13  1  0  0  0  0
 20 14  1  0  0  0  0
 23 29  1  0  0  0  0
 23 24  1  0  0  0  0
 24 30  1  0  0  0  0
 25 24  2  0  0  0  0
 25 11  1  0  0  0  0
 26 25  1  0  0  0  0
 27 28  1  0  0  0  0
 27 26  2  0  0  0  0
 28 23  2  0  0  0  0
 31 27  1  0  0  0  0
 32 33  1  0  0  0  0
 32 41  1  0  0  0  0
 33  7  1  0  0  0  0
 34 35  1  0  0  0  0
 34 33  2  0  0  0  0
 36 34  1  0  0  0  0
 37 36  1  0  0  0  0
 38 36  2  0  0  0  0
 38 39  1  0  0  0  0
 39 32  2  0  0  0  0
 41 40  1  0  0  0  0
 41 42  2  0  0  0  0
 43 41  2  0  0  0  0
M  END
>  <minimizedAffinity>
-5.9739666

$$$$

 OpenBabel03242515343D

 43 46  0  0  1  0  0  0  0  0999 V2000
   39.9110   30.1620   39.6590 F   0  0  0  0  0  0  0  0  0  0  0  0
   39.1310   31.3010   39.6930 C   0  0  0  0  0  0  0  0  0  0  0  0
   37.8030   31.1460   39.3970 C   0  0  0  0  0  0  0  0  0  0  0  0
   37.0560   32.3110   39.4520 C   0  0  0  0  0  0  0  0  0  0  0  0
   37.6300   33.5190   39.7830 C   0  0  0  0  0  0  0  0  0  0  0  0
   39.0000   33.6080   40.0770 C   0  0  0  0  0  0  0  0  0  0  0  0
   39.7810   32.4390   40.0270 C   0  0  0  0  0  0  0  0  0  0  0  0
   35.9970   32.3470   39.2440 H   0  0  0  0  0  0  0  0  0  0  0  0
   37.0450   34.4300   39.8260 H   0  0  0  0  0  0  0  0  0  0  0  0
   39.4630   34.5540   40.3380 H   0  0  0  0  0  0  0  0  0  0  0  0
   36.5410   29.1800   40.1380 N   0  0  0  0  0  0  0  0  0  0  0  0
   35.1230   29.2250   39.8990 C   0  0  0  0  0  0  0  0  0  0  0  0
   35.1340   28.8900   38.4170 C   0  0  0  0  0  0  0  0  0  0  0  0
   36.1180   29.9680   37.9550 C   0  0  0  0  0  0  0  0  0  0  0  0
   37.1610   29.8890   39.0150 C   0  0  1  0  0  0  0  0  0  0  0  0
   34.6750   30.2250   40.0230 H   0  0  0  0  0  0  0  0  0  0  0  0
   34.5680   28.4480   40.4690 H   0  0  0  0  0  0  0  0  0  0  0  0
   34.1480   29.0350   37.9490 H   0  0  0  0  0  0  0  0  0  0  0  0
   35.5750   27.8850   38.2810 H   0  0  0  0  0  0  0  0  0  0  0  0
   36.4880   29.7940   36.9350 H   0  0  0  0  0  0  0  0  0  0  0  0
   35.5420   30.9210   38.0140 H   0  0  0  0  0  0  0  0  0  0  0  0
   37.9690   29.1720   38.6970 H   0  0  0  0  0  0  0  0  0  0  0  0
   38.1010   28.5220   43.4540 C   0  0  0  0  0  0  0  0  0  0  0  0
   37.3340   29.1410   42.4780 C   0  0  0  0  0  0  0  0  0  0  0  0
   37.2970   28.6040   41.1890 C   0  0  0  0  0  0  0  0  0  0  0  0
   38.0220   27.4970   40.9600 N   0  0  0  0  0  0  0  0  0  0  0  0
   38.7680   26.8980   41.9120 C   0  0  0  0  0  0  0  0  0  0  0  0
   38.8060   27.4140   43.1630 N   0  0  0  0  0  0  0  0  0  0  0  0
   38.0910   28.9870   44.4390 H   0  0  0  0  0  0  0  0  0  0  0  0
   36.7560   30.0330   42.6770 H   0  0  0  0  0  0  0  0  0  0  0  0
   39.3210   26.0090   41.6420 H   0  0  0  0  0  0  0  0  0  0  0  0
   42.1350   32.7780   39.3460 C   0  0  0  0  0  0  0  0  0  0  0  0
   41.2100   32.4650   40.3210 C   0  0  0  0  0  0  0  0  0  0  0  0
   41.5550   32.1610   41.6230 C   0  0  0  0  0  0  0  0  0  0  0  0
   40.7920   31.9160   42.3770 H   0  0  0  0  0  0  0  0  0  0  0  0
   42.8740   32.1520   42.0240 C   0  0  0  0  0  0  0  0  0  0  0  0
   43.2150   31.9280   43.0070 H   0  0  0  0  0  0  0  0  0  0  0  0
   43.8360   32.4640   41.0630 C   0  0  0  0  0  3  0  0  0  0  0  0
   43.4750   32.7710   39.7520 C   0  0  0  0  0  3  0  0  0  0  0  0
   40.3520   33.5430   37.6580 H   0  0  0  0  0  0  0  0  0  0  0  0
   41.6550   33.1540   37.7300 S   0  0  0  0  0  0  0  0  0  0  0  0
   42.5950   34.1600   37.0890 O   0  0  0  0  0  0  0  0  0  0  0  0
   41.7960   31.8860   36.9050 O   0  0  0  0  0  0  0  0  0  0  0  0
  1  2  1  0  0  0  0
  2  7  1  0  0  0  0
  3  4  1  0  0  0  0
  3  2  2  0  0  0  0
  4  5  2  0  0  0  0
  5  9  1  0  0  0  0
  5  6  1  0  0  0  0
  6 10  1  0  0  0  0
  7  6  2  0  0  0  0
  7 33  1  0  0  0  0
  8  4  1  0  0  0  0
 11 25  1  0  0  0  0
 12 16  1  0  0  0  0
 12 11  1  0  0  0  0
 12 17  1  0  0  0  0
 13 12  1  0  0  0  0
 14 21  1  0  0  0  0
 14 13  1  0  0  0  0
 14 15  1  0  0  0  0
 15 22  1  6  0  0  0
 15  3  1  0  0  0  0
 15 11  1  0  0  0  0
 18 13  1  0  0  0  0
 19 13  1  0  0  0  0
 20 14  1  0  0  0  0
 23 29  1  0  0  0  0
 24 30  1  0  0  0  0
 24 23  2  0  0  0  0
 25 24  1  0  0  0  0
 26 25  2  0  0  0  0
 26 27  1  0  0  0  0
 27 28  2  0  0  0  0
 28 23  1  0  0  0  0
 31 27  1  0  0  0  0
 32 39  2  0  0  0  0
 32 33  1  0  0  0  0
 33 34  2  0  0  0  0
 34 36  1  0  0  0  0
 34 35  1  0  0  0  0
 36 37  1  0  0  0  0
 38 36  2  0  0  0  0
 39 38  1  0  0  0  0
 40 41  1  0  0  0  0
 41 32  1  0  0  0  0
 42 41  2  0  0  0  0
 43 41  2  0  0  0  0
M  END
>  <minimizedAffinity>
-5.96132374

$$$$

 OpenBabel03242515343D

 43 46  0  0  1  0  0  0  0  0999 V2000
   38.4670   28.2920   39.8210 F   0  0  0  0  0  0  0  0  0  0  0  0
   37.8920   28.0670   41.0550 C   0  0  0  0  0  0  0  0  0  0  0  0
   37.6150   26.7630   41.3750 C   0  0  0  0  0  0  0  0  0  0  0  0
   37.0480   26.5810   42.6250 C   0  0  0  0  0  0  0  0  0  0  0  0
   36.7920   27.6450   43.4630 C   0  0  0  0  0  0  0  0  0  0  0  0
   37.1020   28.9580   43.0720 C   0  0  0  0  0  0  0  0  0  0  0  0
   37.6790   29.1700   41.8070 C   0  0  0  0  0  0  0  0  0  0  0  0
   36.7750   25.6130   43.0180 H   0  0  0  0  0  0  0  0  0  0  0  0
   36.3490   27.5020   44.4410 H   0  0  0  0  0  0  0  0  0  0  0  0
   36.9050   29.8030   43.7230 H   0  0  0  0  0  0  0  0  0  0  0  0
   38.7880   24.6350   41.0610 N   0  0  0  0  0  0  0  0  0  0  0  0
   38.0160   23.4530   41.3370 C   0  0  0  0  0  0  0  0  0  0  0  0
   37.2040   23.4090   40.0540 C   0  0  0  0  0  0  0  0  0  0  0  0
   36.6420   24.8320   40.0990 C   0  0  0  0  0  0  0  0  0  0  0  0
   37.8450   25.6110   40.5060 C   0  0  1  0  0  0  0  0  0  0  0  0
   37.3160   23.5580   42.1840 H   0  0  0  0  0  0  0  0  0  0  0  0
   38.6460   22.5410   41.4300 H   0  0  0  0  0  0  0  0  0  0  0  0
   36.3920   22.6670   40.0990 H   0  0  0  0  0  0  0  0  0  0  0  0
   37.8940   23.2970   39.1980 H   0  0  0  0  0  0  0  0  0  0  0  0
   36.1980   25.1430   39.1440 H   0  0  0  0  0  0  0  0  0  0  0  0
   35.8750   24.8090   40.9090 H   0  0  0  0  0  0  0  0  0  0  0  0
   38.3880   25.9740   39.5890 H   0  0  0  0  0  0  0  0  0  0  0  0
   42.3620   25.4510   40.4150 C   0  0  0  0  0  0  0  0  0  0  0  0
   41.0240   25.1860   40.1650 C   0  0  0  0  0  0  0  0  0  0  0  0
   40.1650   24.9180   41.2350 C   0  0  0  0  0  0  0  0  0  0  0  0
   40.6930   24.9310   42.4700 N   0  0  0  0  0  0  0  0  0  0  0  0
   41.9970   25.1900   42.7080 C   0  0  0  0  0  0  0  0  0  0  0  0
   42.8320   25.4500   41.6750 N   0  0  0  0  0  0  0  0  0  0  0  0
   42.9830   25.6520   39.5420 H   0  0  0  0  0  0  0  0  0  0  0  0
   40.6140   25.1770   39.1660 H   0  0  0  0  0  0  0  0  0  0  0  0
   42.3390   25.1810   43.7340 H   0  0  0  0  0  0  0  0  0  0  0  0
   39.2660   31.0550   41.5880 C   0  0  0  0  0  0  0  0  0  0  0  0
   38.0230   30.5100   41.3430 C   0  0  0  0  0  0  0  0  0  0  0  0
   37.0270   31.1730   40.6530 C   0  0  0  0  0  0  0  0  0  0  0  0
   36.0460   30.7110   40.4730 H   0  0  0  0  0  0  0  0  0  0  0  0
   37.2310   32.4460   40.1630 C   0  0  0  0  0  0  0  0  0  0  0  0
   36.5140   33.0180   39.6240 H   0  0  0  0  0  0  0  0  0  0  0  0
   38.4780   33.0280   40.3940 C   0  0  0  0  0  3  0  0  0  0  0  0
   39.4750   32.3470   41.0910 C   0  0  0  0  0  3  0  0  0  0  0  0
   39.9730   29.5440   43.5450 H   0  0  0  0  0  0  0  0  0  0  0  0
   40.4800   30.1860   42.4560 S   0  0  0  0  0  0  0  0  0  0  0  0
   41.2570   29.2520   41.5450 O   0  0  0  0  0  0  0  0  0  0  0  0
   41.4960   31.1980   42.9590 O   0  0  0  0  0  0  0  0  0  0  0  0
  1  2  1  0  0  0  0
  2  3  2  0  0  0  0
  2  7  1  0  0  0  0
  3  4  1  0  0  0  0
  4  8  1  0  0  0  0
  4  5  2  0  0  0  0
  5  9  1  0  0  0  0
  6  5  1  0  0  0  0
  6 10  1  0  0  0  0
  7  6  2  0  0  0  0
 11 25  1  0  0  0  0
 11 12  1  0  0  0  0
 12 17  1  0  0  0  0
 12 16  1  0  0  0  0
 13 14  1  0  0  0  0
 13 18  1  0  0  0  0
 13 12  1  0  0  0  0
 14 15  1  0  0  0  0
 14 21  1  0  0  0  0
 15 22  1  6  0  0  0
 15 11  1  0  0  0  0
 15  3  1  0  0  0  0
 19 13  1  0  0  0  0
 20 14  1  0  0  0  0
 23 28  1  0  0  0  0
 24 23  2  0  0  0  0
 24 25  1  0  0  0  0
 25 26  2  0  0  0  0
 26 27  1  0  0  0  0
 27 31  1  0  0  0  0
 28 27  2  0  0  0  0
 29 23  1  0  0  0  0
 30 24  1  0  0  0  0
 32 41  1  0  0  0  0
 33 32  1  0  0  0  0
 33  7  1  0  0  0  0
 34 33  2  0  0  0  0
 35 34  1  0  0  0  0
 36 38  2  0  0  0  0
 36 34  1  0  0  0  0
 37 36  1  0  0  0  0
 38 39  1  0  0  0  0
 39 32  2  0  0  0  0
 41 43  2  0  0  0  0
 41 40  1  0  0  0  0
 42 41  2  0  0  0  0
M  END
>  <minimizedAffinity>
-5.89507246

$$$$

 OpenBabel03242515343D

 43 46  0  0  1  0  0  0  0  0999 V2000
   39.4530   27.0060   40.3670 F   0  0  0  0  0  0  0  0  0  0  0  0
   38.7350   27.4030   41.4780 C   0  0  0  0  0  0  0  0  0  0  0  0
   39.2700   28.4210   42.2240 C   0  0  0  0  0  0  0  0  0  0  0  0
   38.5140   28.7930   43.3230 C   0  0  0  0  0  0  0  0  0  0  0  0
   37.3200   28.1720   43.6200 C   0  0  0  0  0  0  0  0  0  0  0  0
   36.8280   27.1350   42.8110 C   0  0  0  0  0  0  0  0  0  0  0  0
   37.5770   26.7370   41.6890 C   0  0  0  0  0  0  0  0  0  0  0  0
   38.8040   29.5790   44.0040 H   0  0  0  0  0  0  0  0  0  0  0  0
   36.7280   28.4650   44.4790 H   0  0  0  0  0  0  0  0  0  0  0  0
   35.8900   26.6390   43.0360 H   0  0  0  0  0  0  0  0  0  0  0  0
   40.4320   30.5430   41.8350 N   0  0  0  0  0  0  0  0  0  0  0  0
   41.1250   31.0890   42.9720 C   0  0  0  0  0  0  0  0  0  0  0  0
   42.3530   30.1960   42.9390 C   0  0  0  0  0  0  0  0  0  0  0  0
   41.6400   28.8410   42.9370 C   0  0  0  0  0  0  0  0  0  0  0  0
   40.5440   29.0860   41.9590 C   0  0  1  0  0  0  0  0  0  0  0  0
   40.6090   30.9310   43.9340 H   0  0  0  0  0  0  0  0  0  0  0  0
   41.4140   32.1530   42.8260 H   0  0  0  0  0  0  0  0  0  0  0  0
   42.9750   30.3080   43.8400 H   0  0  0  0  0  0  0  0  0  0  0  0
   42.8820   30.3510   41.9810 H   0  0  0  0  0  0  0  0  0  0  0  0
   42.3100   28.0110   42.6750 H   0  0  0  0  0  0  0  0  0  0  0  0
   41.2470   28.7260   43.9750 H   0  0  0  0  0  0  0  0  0  0  0  0
   40.8830   28.7830   40.9280 H   0  0  0  0  0  0  0  0  0  0  0  0
   39.1920   31.4060   38.4330 C   0  0  0  0  0  0  0  0  0  0  0  0
   39.8850   30.7420   39.4340 C   0  0  0  0  0  0  0  0  0  0  0  0
   39.7550   31.1680   40.7590 C   0  0  0  0  0  0  0  0  0  0  0  0
   38.9530   32.2190   40.9950 N   0  0  0  0  0  0  0  0  0  0  0  0
   38.2810   32.8630   40.0170 C   0  0  0  0  0  0  0  0  0  0  0  0
   38.4030   32.4540   38.7330 N   0  0  0  0  0  0  0  0  0  0  0  0
   39.3330   31.0300   37.4210 H   0  0  0  0  0  0  0  0  0  0  0  0
   40.5280   29.8980   39.2290 H   0  0  0  0  0  0  0  0  0  0  0  0
   37.6560   33.7000   40.2950 H   0  0  0  0  0  0  0  0  0  0  0  0
   36.4670   25.9390   39.6270 C   0  0  0  0  0  0  0  0  0  0  0  0
   37.1210   25.6650   40.8110 C   0  0  0  0  0  0  0  0  0  0  0  0
   37.3910   24.3830   41.2480 C   0  0  0  0  0  0  0  0  0  0  0  0
   37.9150   24.1980   42.1970 H   0  0  0  0  0  0  0  0  0  0  0  0
   37.0100   23.2850   40.5060 C   0  0  0  0  0  0  0  0  0  0  0  0
   37.1830   22.2710   40.7770 H   0  0  0  0  0  0  0  0  0  0  0  0
   36.3460   23.5270   39.3020 C   0  0  0  0  0  3  0  0  0  0  0  0
   36.0810   24.8260   38.8720 C   0  0  0  0  0  3  0  0  0  0  0  0
   35.7700   28.3560   40.1580 H   0  0  0  0  0  0  0  0  0  0  0  0
   36.1520   27.5600   39.1210 S   0  0  0  0  0  0  0  0  0  0  0  0
   37.3240   28.1410   38.3490 O   0  0  0  0  0  0  0  0  0  0  0  0
   34.9990   27.5150   38.1340 O   0  0  0  0  0  0  0  0  0  0  0  0
  1  2  1  0  0  0  0
  2  7  2  0  0  0  0
  2  3  1  0  0  0  0
  3  4  2  0  0  0  0
  4  5  1  0  0  0  0
  4  8  1  0  0  0  0
  5  9  1  0  0  0  0
  6 10  1  0  0  0  0
  6  5  2  0  0  0  0
  7  6  1  0  0  0  0
 11 15  1  0  0  0  0
 11 12  1  0  0  0  0
 12 16  1  0  0  0  0
 13 12  1  0  0  0  0
 13 18  1  0  0  0  0
 14 13  1  0  0  0  0
 14 21  1  0  0  0  0
 15 22  1  6  0  0  0
 15  3  1  0  0  0  0
 15 14  1  0  0  0  0
 17 12  1  0  0  0  0
 19 13  1  0  0  0  0
 20 14  1  0  0  0  0
 23 28  2  0  0  0  0
 23 24  1  0  0  0  0
 24 25  2  0  0  0  0
 25 26  1  0  0  0  0
 25 11  1  0  0  0  0
 27 31  1  0  0  0  0
 27 26  2  0  0  0  0
 28 27  1  0  0  0  0
 29 23  1  0  0  0  0
 30 24  1  0  0  0  0
 32 33  1  0  0  0  0
 33 34  2  0  0  0  0
 33  7  1  0  0  0  0
 34 35  1  0  0  0  0
 36 37  1  0  0  0  0
 36 34  1  0  0  0  0
 38 36  2  0  0  0  0
 39 38  1  0  0  0  0
 39 32  2  0  0  0  0
 41 32  1  0  0  0  0
 41 40  1  0  0  0  0
 42 41  2  0  0  0  0
 43 41  2  0  0  0  0
M  END
>  <minimizedAffinity>
-5.78749561

$$$$

 OpenBabel03242515343D

 43 46  0  0  1  0  0  0  0  0999 V2000
   39.2730   27.9330   40.1850 F   0  0  0  0  0  0  0  0  0  0  0  0
   38.4580   27.8340   41.2950 C   0  0  0  0  0  0  0  0  0  0  0  0
   37.7830   26.6520   41.4580 C   0  0  0  0  0  0  0  0  0  0  0  0
   36.9840   26.5910   42.5880 C   0  0  0  0  0  0  0  0  0  0  0  0
   36.8950   27.6500   43.4650 C   0  0  0  0  0  0  0  0  0  0  0  0
   37.6160   28.8340   43.2390 C   0  0  0  0  0  0  0  0  0  0  0  0
   38.4340   28.9220   42.0980 C   0  0  0  0  0  0  0  0  0  0  0  0
   36.3930   25.7270   42.8500 H   0  0  0  0  0  0  0  0  0  0  0  0
   36.2710   27.6020   44.3490 H   0  0  0  0  0  0  0  0  0  0  0  0
   37.5530   29.6740   43.9220 H   0  0  0  0  0  0  0  0  0  0  0  0
   38.8470   24.5210   40.8840 N   0  0  0  0  0  0  0  0  0  0  0  0
   38.1260   23.3400   41.2790 C   0  0  0  0  0  0  0  0  0  0  0  0
   37.0850   23.3310   40.1720 C   0  0  0  0  0  0  0  0  0  0  0  0
   36.5610   24.7580   40.3510 C   0  0  0  0  0  0  0  0  0  0  0  0
   37.8290   25.5170   40.5380 C   0  0  1  0  0  0  0  0  0  0  0  0
   37.6020   23.4330   42.2440 H   0  0  0  0  0  0  0  0  0  0  0  0
   38.7510   22.4210   41.2320 H   0  0  0  0  0  0  0  0  0  0  0  0
   36.2870   22.5960   40.3560 H   0  0  0  0  0  0  0  0  0  0  0  0
   37.5990   23.2320   39.1980 H   0  0  0  0  0  0  0  0  0  0  0  0
   35.9470   25.0930   39.5040 H   0  0  0  0  0  0  0  0  0  0  0  0
   35.9600   24.7240   41.2910 H   0  0  0  0  0  0  0  0  0  0  0  0
   38.1920   25.8950   39.5420 H   0  0  0  0  0  0  0  0  0  0  0  0
   42.3610   25.4000   41.7460 C   0  0  0  0  0  0  0  0  0  0  0  0
   41.0060   25.1500   41.9080 C   0  0  0  0  0  0  0  0  0  0  0  0
   40.2360   24.7880   40.7990 C   0  0  0  0  0  0  0  0  0  0  0  0
   40.8620   24.7020   39.6140 N   0  0  0  0  0  0  0  0  0  0  0  0
   42.1800   24.9460   39.4600 C   0  0  0  0  0  0  0  0  0  0  0  0
   42.9300   25.2960   40.5320 N   0  0  0  0  0  0  0  0  0  0  0  0
   42.9080   25.6780   42.6460 H   0  0  0  0  0  0  0  0  0  0  0  0
   40.5160   25.2250   42.8690 H   0  0  0  0  0  0  0  0  0  0  0  0
   42.6040   24.8530   38.4700 H   0  0  0  0  0  0  0  0  0  0  0  0
   38.7190   31.1010   40.9630 C   0  0  0  0  0  0  0  0  0  0  0  0
   39.2070   30.1250   41.8060 C   0  0  0  0  0  0  0  0  0  0  0  0
   40.4360   30.2060   42.4290 C   0  0  0  0  0  0  0  0  0  0  0  0
   40.7970   29.4100   43.0970 H   0  0  0  0  0  0  0  0  0  0  0  0
   41.2600   31.2940   42.2330 C   0  0  0  0  0  0  0  0  0  0  0  0
   42.2180   31.4270   42.6770 H   0  0  0  0  0  0  0  0  0  0  0  0
   40.7970   32.3010   41.3850 C   0  0  0  0  0  3  0  0  0  0  0  0
   39.5540   32.2080   40.7630 C   0  0  0  0  0  3  0  0  0  0  0  0
   37.0560   29.7990   39.4970 H   0  0  0  0  0  0  0  0  0  0  0  0
   37.1730   30.9560   40.2060 S   0  0  0  0  0  0  0  0  0  0  0  0
   36.0440   31.1370   41.2050 O   0  0  0  0  0  0  0  0  0  0  0  0
   37.0340   32.1060   39.2250 O   0  0  0  0  0  0  0  0  0  0  0  0
  1  2  1  0  0  0  0
  2  3  2  0  0  0  0
  2  7  1  0  0  0  0
  3  4  1  0  0  0  0
  4  8  1  0  0  0  0
  4  5  2  0  0  0  0
  5  9  1  0  0  0  0
  6  5  1  0  0  0  0
  6 10  1  0  0  0  0
  7  6  2  0  0  0  0
 11 12  1  0  0  0  0
 12 16  1  0  0  0  0
 13 14  1  0  0  0  0
 13 18  1  0  0  0  0
 13 12  1  0  0  0  0
 14 15  1  0  0  0  0
 14 21  1  0  0  0  0
 15 22  1  6  0  0  0
 15 11  1  0  0  0  0
 15  3  1  0  0  0  0
 17 12  1  0  0  0  0
 19 13  1  0  0  0  0
 20 14  1  0  0  0  0
 23 24  1  0  0  0  0
 23 29  1  0  0  0  0
 24 30  1  0  0  0  0
 25 11  1  0  0  0  0
 25 24  2  0  0  0  0
 26 25  1  0  0  0  0
 27 26  2  0  0  0  0
 27 28  1  0  0  0  0
 28 23  2  0  0  0  0
 31 27  1  0  0  0  0
 32 33  1  0  0  0  0
 33  7  1  0  0  0  0
 33 34  2  0  0  0  0
 34 35  1  0  0  0  0
 36 34  1  0  0  0  0
 36 37  1  0  0  0  0
 38 36  2  0  0  0  0
 39 32  2  0  0  0  0
 39 38  1  0  0  0  0
 40 41  1  0  0  0  0
 41 32  1  0  0  0  0
 41 42  2  0  0  0  0
 43 41  2  0  0  0  0
M  END
>  <minimizedAffinity>
-5.74573755

$$$$

 OpenBabel03242515343D

 43 46  0  0  1  0  0  0  0  0999 V2000
   36.4120   26.6540   38.5880 F   0  0  0  0  0  0  0  0  0  0  0  0
   36.5020   27.1320   39.8810 C   0  0  0  0  0  0  0  0  0  0  0  0
   35.9350   28.3560   40.1230 C   0  0  0  0  0  0  0  0  0  0  0  0
   36.0380   28.7940   41.4330 C   0  0  0  0  0  0  0  0  0  0  0  0
   36.6680   28.0370   42.3980 C   0  0  0  0  0  0  0  0  0  0  0  0
   37.2280   26.7890   42.0810 C   0  0  0  0  0  0  0  0  0  0  0  0
   37.1370   26.3220   40.7580 C   0  0  0  0  0  0  0  0  0  0  0  0
   35.6400   29.7370   41.7770 H   0  0  0  0  0  0  0  0  0  0  0  0
   36.7480   28.3800   43.4220 H   0  0  0  0  0  0  0  0  0  0  0  0
   37.7260   26.1850   42.8320 H   0  0  0  0  0  0  0  0  0  0  0  0
   36.2100   29.7800   38.1480 N   0  0  0  0  0  0  0  0  0  0  0  0
   35.8930   29.1630   36.8880 C   0  0  0  0  0  0  0  0  0  0  0  0
   34.3790   29.2490   36.9690 C   0  0  0  0  0  0  0  0  0  0  0  0
   34.1920   28.5710   38.3280 C   0  0  0  0  0  0  0  0  0  0  0  0
   35.2820   29.2000   39.1240 C   0  0  1  0  0  0  0  0  0  0  0  0
   36.1750   28.0980   36.8220 H   0  0  0  0  0  0  0  0  0  0  0  0
   36.2690   29.7460   36.0190 H   0  0  0  0  0  0  0  0  0  0  0  0
   33.8850   28.6700   36.1730 H   0  0  0  0  0  0  0  0  0  0  0  0
   34.0830   30.3130   37.0280 H   0  0  0  0  0  0  0  0  0  0  0  0
   33.1830   28.7160   38.7390 H   0  0  0  0  0  0  0  0  0  0  0  0
   34.3940   27.4900   38.1370 H   0  0  0  0  0  0  0  0  0  0  0  0
   34.8860   30.1130   39.6510 H   0  0  0  0  0  0  0  0  0  0  0  0
   37.8860   32.7660   39.6100 C   0  0  0  0  0  0  0  0  0  0  0  0
   36.8850   31.8530   39.3110 C   0  0  0  0  0  0  0  0  0  0  0  0
   37.1780   30.7530   38.5000 C   0  0  0  0  0  0  0  0  0  0  0  0
   38.4360   30.6390   38.0440 N   0  0  0  0  0  0  0  0  0  0  0  0
   39.4070   31.5300   38.3360 C   0  0  0  0  0  0  0  0  0  0  0  0
   39.1280   32.5960   39.1220 N   0  0  0  0  0  0  0  0  0  0  0  0
   37.5980   33.6020   40.2460 H   0  0  0  0  0  0  0  0  0  0  0  0
   35.8770   31.9580   39.6850 H   0  0  0  0  0  0  0  0  0  0  0  0
   40.3930   31.3610   37.9280 H   0  0  0  0  0  0  0  0  0  0  0  0
   39.0050   24.9260   39.9310 C   0  0  0  0  0  0  0  0  0  0  0  0
   37.6990   25.0340   40.3650 C   0  0  0  0  0  0  0  0  0  0  0  0
   36.8410   23.9570   40.4610 C   0  0  0  0  0  0  0  0  0  0  0  0
   35.8050   24.0760   40.8110 H   0  0  0  0  0  0  0  0  0  0  0  0
   37.2550   22.6870   40.1180 C   0  0  0  0  0  0  0  0  0  0  0  0
   36.6540   21.8110   40.1660 H   0  0  0  0  0  0  0  0  0  0  0  0
   38.5710   22.5420   39.6750 C   0  0  0  0  0  3  0  0  0  0  0  0
   39.4280   23.6380   39.5840 C   0  0  0  0  0  3  0  0  0  0  0  0
   41.2690   25.9860   39.3310 H   0  0  0  0  0  0  0  0  0  0  0  0
   40.0410   26.3040   39.8280 S   0  0  0  0  0  0  0  0  0  0  0  0
   39.3850   27.4400   39.0630 O   0  0  0  0  0  0  0  0  0  0  0  0
   40.2440   26.8300   41.2380 O   0  0  0  0  0  0  0  0  0  0  0  0
  1  2  1  0  0  0  0
  2  3  2  0  0  0  0
  2  7  1  0  0  0  0
  3  4  1  0  0  0  0
  4  8  1  0  0  0  0
  4  5  2  0  0  0  0
  5  9  1  0  0  0  0
  6  5  1  0  0  0  0
  6 10  1  0  0  0  0
  7  6  2  0  0  0  0
 11 25  1  0  0  0  0
 11 15  1  0  0  0  0
 12 13  1  0  0  0  0
 12 11  1  0  0  0  0
 13 19  1  0  0  0  0
 13 14  1  0  0  0  0
 14 20  1  0  0  0  0
 14 15  1  0  0  0  0
 15 22  1  1  0  0  0
 15  3  1  0  0  0  0
 16 12  1  0  0  0  0
 17 12  1  0  0  0  0
 18 13  1  0  0  0  0
 21 14  1  0  0  0  0
 23 29  1  0  0  0  0
 24 23  1  0  0  0  0
 24 30  1  0  0  0  0
 25 24  2  0  0  0  0
 26 27  2  0  0  0  0
 26 25  1  0  0  0  0
 27 28  1  0  0  0  0
 28 23  2  0  0  0  0
 31 27  1  0  0  0  0
 32 33  1  0  0  0  0
 33 34  2  0  0  0  0
 33  7  1  0  0  0  0
 34 35  1  0  0  0  0
 36 37  1  0  0  0  0
 36 34  1  0  0  0  0
 38 36  2  0  0  0  0
 39 38  1  0  0  0  0
 39 32  2  0  0  0  0
 40 41  1  0  0  0  0
 41 32  1  0  0  0  0
 41 43  2  0  0  0  0
 42 41  2  0  0  0  0
M  END
>  <minimizedAffinity>
-5.70671082

$$$$

 OpenBabel03242515343D

 43 46  0  0  1  0  0  0  0  0999 V2000
   39.8280   30.2550   38.6490 F   0  0  0  0  0  0  0  0  0  0  0  0
   39.0420   31.3160   39.0530 C   0  0  0  0  0  0  0  0  0  0  0  0
   37.7090   31.0590   39.2350 C   0  0  0  0  0  0  0  0  0  0  0  0
   36.9590   32.1470   39.6490 C   0  0  0  0  0  0  0  0  0  0  0  0
   37.5360   33.3820   39.8550 C   0  0  0  0  0  0  0  0  0  0  0  0
   38.9110   33.5770   39.6500 C   0  0  0  0  0  0  0  0  0  0  0  0
   39.6950   32.4870   39.2290 C   0  0  0  0  0  0  0  0  0  0  0  0
   35.8970   32.1000   39.8350 H   0  0  0  0  0  0  0  0  0  0  0  0
   36.9490   34.2330   40.1800 H   0  0  0  0  0  0  0  0  0  0  0  0
   39.3760   34.5450   39.8090 H   0  0  0  0  0  0  0  0  0  0  0  0
   36.5500   29.1390   40.2240 N   0  0  0  0  0  0  0  0  0  0  0  0
   35.1160   29.1550   40.1130 C   0  0  0  0  0  0  0  0  0  0  0  0
   34.9970   28.7160   38.6640 C   0  0  0  0  0  0  0  0  0  0  0  0
   35.9180   29.7670   38.0390 C   0  0  0  0  0  0  0  0  0  0  0  0
   37.0550   29.7720   39.0030 C   0  0  1  0  0  0  0  0  0  0  0  0
   34.6660   30.1570   40.2080 H   0  0  0  0  0  0  0  0  0  0  0  0
   34.6260   28.4150   40.7840 H   0  0  0  0  0  0  0  0  0  0  0  0
   33.9710   28.8190   38.2800 H   0  0  0  0  0  0  0  0  0  0  0  0
   35.4390   27.7080   38.5580 H   0  0  0  0  0  0  0  0  0  0  0  0
   36.1960   29.5250   37.0050 H   0  0  0  0  0  0  0  0  0  0  0  0
   35.3360   30.7180   38.0850 H   0  0  0  0  0  0  0  0  0  0  0  0
   37.8410   29.0430   38.6620 H   0  0  0  0  0  0  0  0  0  0  0  0
   39.3110   27.3950   42.0100 C   0  0  0  0  0  0  0  0  0  0  0  0
   38.5200   27.8440   40.9640 C   0  0  0  0  0  0  0  0  0  0  0  0
   37.4080   28.6450   41.2380 C   0  0  0  0  0  0  0  0  0  0  0  0
   37.1610   28.9400   42.5250 N   0  0  0  0  0  0  0  0  0  0  0  0
   37.9330   28.5010   43.5400 C   0  0  0  0  0  0  0  0  0  0  0  0
   39.0120   27.7250   43.2790 N   0  0  0  0  0  0  0  0  0  0  0  0
   40.1630   26.7740   41.7350 H   0  0  0  0  0  0  0  0  0  0  0  0
   38.7300   27.5970   39.9330 H   0  0  0  0  0  0  0  0  0  0  0  0
   37.6630   28.7860   44.5470 H   0  0  0  0  0  0  0  0  0  0  0  0
   42.0440   32.3470   39.9920 C   0  0  0  0  0  0  0  0  0  0  0  0
   41.1280   32.6250   38.9970 C   0  0  0  0  0  0  0  0  0  0  0  0
   41.4890   33.0450   37.7320 C   0  0  0  0  0  0  0  0  0  0  0  0
   40.7340   33.2580   36.9610 H   0  0  0  0  0  0  0  0  0  0  0  0
   42.8140   33.2140   37.3910 C   0  0  0  0  0  0  0  0  0  0  0  0
   43.1670   33.5330   36.4390 H   0  0  0  0  0  0  0  0  0  0  0  0
   43.7660   32.9410   38.3740 C   0  0  0  0  0  3  0  0  0  0  0  0
   43.3900   32.5170   39.6470 C   0  0  0  0  0  3  0  0  0  0  0  0
   40.4670   32.5200   42.0160 H   0  0  0  0  0  0  0  0  0  0  0  0
   41.5450   31.8240   41.5600 S   0  0  0  0  0  0  0  0  0  0  0  0
   41.3230   30.3220   41.6030 O   0  0  0  0  0  0  0  0  0  0  0  0
   42.6940   32.0900   42.5180 O   0  0  0  0  0  0  0  0  0  0  0  0
  1  2  1  0  0  0  0
  2  7  2  0  0  0  0
  2  3  1  0  0  0  0
  3  4  2  0  0  0  0
  4  8  1  0  0  0  0
  4  5  1  0  0  0  0
  5  9  1  0  0  0  0
  6 10  1  0  0  0  0
  6  5  2  0  0  0  0
  7  6  1  0  0  0  0
 11 25  1  0  0  0  0
 12 16  1  0  0  0  0
 12 11  1  0  0  0  0
 12 17  1  0  0  0  0
 13 12  1  0  0  0  0
 14 21  1  0  0  0  0
 14 13  1  0  0  0  0
 14 15  1  0  0  0  0
 15 22  1  6  0  0  0
 15  3  1  0  0  0  0
 15 11  1  0  0  0  0
 18 13  1  0  0  0  0
 19 13  1  0  0  0  0
 20 14  1  0  0  0  0
 23 28  1  0  0  0  0
 24 25  1  0  0  0  0
 24 23  2  0  0  0  0
 25 26  2  0  0  0  0
 26 27  1  0  0  0  0
 27 31  1  0  0  0  0
 28 27  2  0  0  0  0
 29 23  1  0  0  0  0
 30 24  1  0  0  0  0
 32 41  1  0  0  0  0
 33  7  1  0  0  0  0
 33 32  2  0  0  0  0
 34 33  1  0  0  0  0
 35 34  1  0  0  0  0
 36 34  2  0  0  0  0
 36 38  1  0  0  0  0
 37 36  1  0  0  0  0
 38 39  2  0  0  0  0
 39 32  1  0  0  0  0
 41 42  2  0  0  0  0
 41 40  1  0  0  0  0
 41 43  2  0  0  0  0
M  END
>  <minimizedAffinity>
-5.70609426

$$$$

 OpenBabel03242515343D

 43 46  0  0  1  0  0  0  0  0999 V2000
   38.8290   28.7620   39.7430 F   0  0  0  0  0  0  0  0  0  0  0  0
   38.3550   28.4920   41.0120 C   0  0  0  0  0  0  0  0  0  0  0  0
   39.2250   28.7020   42.0500 C   0  0  0  0  0  0  0  0  0  0  0  0
   38.7070   28.4280   43.3050 C   0  0  0  0  0  0  0  0  0  0  0  0
   37.4140   27.9800   43.4680 C   0  0  0  0  0  0  0  0  0  0  0  0
   36.5740   27.7860   42.3600 C   0  0  0  0  0  0  0  0  0  0  0  0
   37.0760   28.0570   41.0740 C   0  0  0  0  0  0  0  0  0  0  0  0
   39.2710   28.5450   44.2180 H   0  0  0  0  0  0  0  0  0  0  0  0
   37.0090   27.7660   44.4500 H   0  0  0  0  0  0  0  0  0  0  0  0
   35.5550   27.4340   42.4770 H   0  0  0  0  0  0  0  0  0  0  0  0
   40.7770   30.5990   42.0640 N   0  0  0  0  0  0  0  0  0  0  0  0
   41.5140   30.7890   43.2840 C   0  0  0  0  0  0  0  0  0  0  0  0
   42.5550   29.7000   43.0920 C   0  0  0  0  0  0  0  0  0  0  0  0
   41.6030   28.5280   42.8370 C   0  0  0  0  0  0  0  0  0  0  0  0
   40.6100   29.1500   41.9170 C   0  0  1  0  0  0  0  0  0  0  0  0
   40.9410   30.5610   44.1980 H   0  0  0  0  0  0  0  0  0  0  0  0
   42.0020   31.7870   43.3380 H   0  0  0  0  0  0  0  0  0  0  0  0
   43.1510   29.5280   44.0000 H   0  0  0  0  0  0  0  0  0  0  0  0
   43.1410   29.9220   42.1810 H   0  0  0  0  0  0  0  0  0  0  0  0
   42.1160   27.6470   42.4290 H   0  0  0  0  0  0  0  0  0  0  0  0
   41.1550   28.3050   43.8340 H   0  0  0  0  0  0  0  0  0  0  0  0
   40.9260   28.9790   40.8500 H   0  0  0  0  0  0  0  0  0  0  0  0
   40.2850   32.6270   38.9810 C   0  0  0  0  0  0  0  0  0  0  0  0
   40.8350   31.6970   39.8510 C   0  0  0  0  0  0  0  0  0  0  0  0
   40.2700   31.5250   41.1180 C   0  0  0  0  0  0  0  0  0  0  0  0
   39.2070   32.2830   41.4300 N   0  0  0  0  0  0  0  0  0  0  0  0
   38.6750   33.1870   40.5800 C   0  0  0  0  0  0  0  0  0  0  0  0
   39.2180   33.3570   39.3510 N   0  0  0  0  0  0  0  0  0  0  0  0
   40.7670   32.7170   38.0080 H   0  0  0  0  0  0  0  0  0  0  0  0
   41.6920   31.0940   39.5860 H   0  0  0  0  0  0  0  0  0  0  0  0
   37.8180   33.7560   40.9110 H   0  0  0  0  0  0  0  0  0  0  0  0
   36.2670   26.6880   39.1790 C   0  0  0  0  0  0  0  0  0  0  0  0
   36.2540   27.8750   39.8820 C   0  0  0  0  0  0  0  0  0  0  0  0
   35.4790   28.9600   39.5230 C   0  0  0  0  0  0  0  0  0  0  0  0
   35.4910   29.8930   40.1060 H   0  0  0  0  0  0  0  0  0  0  0  0
   34.6600   28.9110   38.4160 C   0  0  0  0  0  0  0  0  0  0  0  0
   34.0360   29.7040   38.0780 H   0  0  0  0  0  0  0  0  0  0  0  0
   34.6490   27.7240   37.6810 C   0  0  0  0  0  3  0  0  0  0  0  0
   35.4350   26.6360   38.0550 C   0  0  0  0  0  3  0  0  0  0  0  0
   38.5140   25.7480   40.0040 H   0  0  0  0  0  0  0  0  0  0  0  0
   37.2530   25.3570   39.6670 S   0  0  0  0  0  0  0  0  0  0  0  0
   36.5890   24.5430   40.7640 O   0  0  0  0  0  0  0  0  0  0  0  0
   37.3720   24.4160   38.4810 O   0  0  0  0  0  0  0  0  0  0  0  0
  1  2  1  0  0  0  0
  2  7  2  0  0  0  0
  2  3  1  0  0  0  0
  3  4  2  0  0  0  0
  4  5  1  0  0  0  0
  4  8  1  0  0  0  0
  5  9  1  0  0  0  0
  6 10  1  0  0  0  0
  6  5  2  0  0  0  0
  7  6  1  0  0  0  0
 11 12  1  0  0  0  0
 12 17  1  0  0  0  0
 12 16  1  0  0  0  0
 13 12  1  0  0  0  0
 13 18  1  0  0  0  0
 14 13  1  0  0  0  0
 14 21  1  0  0  0  0
 15 22  1  6  0  0  0
 15  3  1  0  0  0  0
 15 11  1  0  0  0  0
 15 14  1  0  0  0  0
 19 13  1  0  0  0  0
 20 14  1  0  0  0  0
 23 28  2  0  0  0  0
 23 24  1  0  0  0  0
 24 25  2  0  0  0  0
 25 26  1  0  0  0  0
 25 11  1  0  0  0  0
 27 31  1  0  0  0  0
 27 26  2  0  0  0  0
 28 27  1  0  0  0  0
 29 23  1  0  0  0  0
 30 24  1  0  0  0  0
 32 41  1  0  0  0  0
 32 33  1  0  0  0  0
 33  7  1  0  0  0  0
 34 33  2  0  0  0  0
 34 35  1  0  0  0  0
 36 34  1  0  0  0  0
 37 36  1  0  0  0  0
 38 39  1  0  0  0  0
 38 36  2  0  0  0  0
 39 32  2  0  0  0  0
 41 40  1  0  0  0  0
 41 42  2  0  0  0  0
 43 41  2  0  0  0  0
M  END
>  <minimizedAffinity>
-5.61261749

$$$$

 OpenBabel03242515343D

 43 46  0  0  1  0  0  0  0  0999 V2000
   39.7020   28.6590   40.3040 F   0  0  0  0  0  0  0  0  0  0  0  0
   38.9640   28.4210   41.4470 C   0  0  0  0  0  0  0  0  0  0  0  0
   39.2160   27.2470   42.1070 C   0  0  0  0  0  0  0  0  0  0  0  0
   38.4620   27.0520   43.2520 C   0  0  0  0  0  0  0  0  0  0  0  0
   37.5380   27.9840   43.6730 C   0  0  0  0  0  0  0  0  0  0  0  0
   37.3300   29.1690   42.9490 C   0  0  0  0  0  0  0  0  0  0  0  0
   38.0830   29.3900   41.7820 C   0  0  0  0  0  0  0  0  0  0  0  0
   38.5480   26.1760   43.8770 H   0  0  0  0  0  0  0  0  0  0  0  0
   36.9490   27.8310   44.5700 H   0  0  0  0  0  0  0  0  0  0  0  0
   36.6050   29.9090   43.2710 H   0  0  0  0  0  0  0  0  0  0  0  0
   39.8250   25.6010   40.3970 N   0  0  0  0  0  0  0  0  0  0  0  0
   40.8490   26.0140   39.4740 C   0  0  0  0  0  0  0  0  0  0  0  0
   42.0580   25.8060   40.3700 C   0  0  0  0  0  0  0  0  0  0  0  0
   41.5920   26.6410   41.5650 C   0  0  0  0  0  0  0  0  0  0  0  0
   40.1670   26.2220   41.6800 C   0  0  1  0  0  0  0  0  0  0  0  0
   40.8040   27.0800   39.1960 H   0  0  0  0  0  0  0  0  0  0  0  0
   40.9100   25.3550   38.5800 H   0  0  0  0  0  0  0  0  0  0  0  0
   42.9770   26.2270   39.9340 H   0  0  0  0  0  0  0  0  0  0  0  0
   42.1170   24.7380   40.6480 H   0  0  0  0  0  0  0  0  0  0  0  0
   42.1950   26.4640   42.4660 H   0  0  0  0  0  0  0  0  0  0  0  0
   41.6830   27.7000   41.2240 H   0  0  0  0  0  0  0  0  0  0  0  0
   40.0850   25.3570   42.3950 H   0  0  0  0  0  0  0  0  0  0  0  0
   36.3720   24.3980   39.6980 C   0  0  0  0  0  0  0  0  0  0  0  0
   37.4410   25.2700   39.8380 C   0  0  0  0  0  0  0  0  0  0  0  0
   38.6880   24.7730   40.2290 C   0  0  0  0  0  0  0  0  0  0  0  0
   38.7840   23.4530   40.4520 N   0  0  0  0  0  0  0  0  0  0  0  0
   37.7410   22.6070   40.3150 C   0  0  0  0  0  0  0  0  0  0  0  0
   36.5320   23.0830   39.9370 N   0  0  0  0  0  0  0  0  0  0  0  0
   35.4260   24.8430   39.3920 H   0  0  0  0  0  0  0  0  0  0  0  0
   37.3480   26.3310   39.6560 H   0  0  0  0  0  0  0  0  0  0  0  0
   37.9070   21.5570   40.5150 H   0  0  0  0  0  0  0  0  0  0  0  0
   37.0150   30.6480   39.9380 C   0  0  0  0  0  0  0  0  0  0  0  0
   37.9130   30.6010   40.9850 C   0  0  0  0  0  0  0  0  0  0  0  0
   38.7020   31.6720   41.3550 C   0  0  0  0  0  0  0  0  0  0  0  0
   39.4070   31.6030   42.1960 H   0  0  0  0  0  0  0  0  0  0  0  0
   38.6330   32.8710   40.6790 C   0  0  0  0  0  0  0  0  0  0  0  0
   39.2070   33.7380   40.9050 H   0  0  0  0  0  0  0  0  0  0  0  0
   37.7350   32.9530   39.6130 C   0  0  0  0  0  3  0  0  0  0  0  0
   36.9430   31.8650   39.2500 C   0  0  0  0  0  3  0  0  0  0  0  0
   36.7410   28.1120   39.6070 H   0  0  0  0  0  0  0  0  0  0  0  0
   36.0490   29.2820   39.5120 S   0  0  0  0  0  0  0  0  0  0  0  0
   34.7500   29.2490   40.2990 O   0  0  0  0  0  0  0  0  0  0  0  0
   35.6370   29.4470   38.0590 O   0  0  0  0  0  0  0  0  0  0  0  0
  1  2  1  0  0  0  0
  2  7  2  0  0  0  0
  2  3  1  0  0  0  0
  3  4  2  0  0  0  0
  4  5  1  0  0  0  0
  4  8  1  0  0  0  0
  5  9  1  0  0  0  0
  6 10  1  0  0  0  0
  6  5  2  0  0  0  0
  7  6  1  0  0  0  0
 11 15  1  0  0  0  0
 12 13  1  0  0  0  0
 12 11  1  0  0  0  0
 13 19  1  0  0  0  0
 13 14  1  0  0  0  0
 14 15  1  0  0  0  0
 14 20  1  0  0  0  0
 15  3  1  0  0  0  0
 15 22  1  1  0  0  0
 16 12  1  0  0  0  0
 17 12  1  0  0  0  0
 18 13  1  0  0  0  0
 21 14  1  0  0  0  0
 23 24  2  0  0  0  0
 23 28  1  0  0  0  0
 24 25  1  0  0  0  0
 25 11  1  0  0  0  0
 25 26  2  0  0  0  0
 27 26  1  0  0  0  0
 27 31  1  0  0  0  0
 28 27  2  0  0  0  0
 29 23  1  0  0  0  0
 30 24  1  0  0  0  0
 32 33  1  0  0  0  0
 33 34  2  0  0  0  0
 33  7  1  0  0  0  0
 34 35  1  0  0  0  0
 36 37  1  0  0  0  0
 36 34  1  0  0  0  0
 38 36  2  0  0  0  0
 39 38  1  0  0  0  0
 39 32  2  0  0  0  0
 41 40  1  0  0  0  0
 41 32  1  0  0  0  0
 41 42  2  0  0  0  0
 43 41  2  0  0  0  0
M  END
>  <minimizedAffinity>
-5.55536032

$$$$
