
 OpenBabel03242512593D

 38 41  0  0  0  0  0  0  0  0999 V2000
   45.4160   32.8730   41.4670 F   0  0  0  0  0  0  0  0  0  0  0  0
   46.4800   33.6850   41.2030 C   0  0  0  0  0  0  0  0  0  0  0  0
   46.8620   34.6670   42.0810 C   0  0  0  0  0  0  0  0  0  0  0  0
   47.9390   35.4340   41.7360 C   0  0  0  0  0  0  0  0  0  0  0  0
   48.6560   35.2740   40.5630 C   0  0  0  0  0  0  0  0  0  0  0  0
   48.2290   34.2820   39.7290 C   0  0  0  0  0  0  0  0  0  0  0  0
   47.1550   33.4830   40.0240 C   0  0  0  0  0  0  0  0  0  0  0  0
   48.2260   36.2080   42.4470 H   0  0  0  0  0  0  0  0  0  0  0  0
   49.5060   35.9090   40.3330 H   0  0  0  0  0  0  0  0  0  0  0  0
   48.7430   34.1010   38.7940 H   0  0  0  0  0  0  0  0  0  0  0  0
   44.4740   35.9490   44.7330 C   0  0  0  0  0  0  0  0  0  0  0  0
   45.1840   35.8430   43.5320 C   0  0  0  0  0  0  0  0  0  0  0  0
   46.0950   34.8240   43.3160 C   0  0  0  0  0  0  0  0  0  0  0  0
   46.2420   33.9410   44.3580 N   0  0  0  0  0  0  0  0  0  0  0  0
   45.5490   34.0590   45.5070 C   0  0  0  0  0  0  0  0  0  0  0  0
   44.6760   35.0480   45.6970 N   0  0  0  0  0  0  0  0  0  0  0  0
   43.7710   36.7610   44.8630 H   0  0  0  0  0  0  0  0  0  0  0  0
   45.0560   36.5520   42.7160 H   0  0  0  0  0  0  0  0  0  0  0  0
   45.8000   33.2680   46.2120 H   0  0  0  0  0  0  0  0  0  0  0  0
   46.7170   32.4250   39.1130 C   0  0  0  0  0  0  0  0  0  0  0  0
   46.9660   31.0680   39.2420 C   0  0  0  0  0  0  0  0  0  0  0  0
   46.3670   30.4210   38.1550 C   0  0  0  0  0  0  0  0  0  0  0  0
   45.7970   31.3870   37.4320 N   0  0  0  0  0  0  0  0  0  0  0  0
   45.9910   32.5820   37.9820 N   0  0  0  0  0  0  0  0  0  0  0  0
   47.5370   30.6810   40.0800 H   0  0  0  0  0  0  0  0  0  0  0  0
   46.4440   29.3600   38.0660 H   0  0  0  0  0  0  0  0  0  0  0  0
   45.6400   30.8650   34.9750 C   0  0  0  0  0  0  0  0  0  0  0  0
   45.1000   31.0290   36.2440 C   0  0  0  0  0  0  0  0  0  0  0  0
   43.7320   30.8280   36.4060 C   0  0  0  0  0  0  0  0  0  0  0  0
   43.2310   30.9400   37.3810 H   0  0  0  0  0  0  0  0  0  0  0  0
   42.9060   30.4740   35.3410 C   0  0  0  0  0  0  0  0  0  0  0  0
   41.8290   30.3220   35.4980 H   0  0  0  0  0  0  0  0  0  0  0  0
   43.4720   30.3150   34.0740 C   0  0  0  0  0  3  0  0  0  0  0  0
   44.8260   30.5130   33.9190 C   0  0  0  0  0  3  0  0  0  0  0  0
   48.0560   30.3780   35.7710 H   0  0  0  0  0  0  0  0  0  0  0  0
   47.3620   31.1310   34.8420 S   0  0  0  0  0  0  0  0  0  0  0  0
   47.7040   32.5940   34.9360 O   0  0  0  0  0  0  0  0  0  0  0  0
   47.7720   30.6170   33.4810 O   0  0  0  0  0  0  0  0  0  0  0  0
  2  1  1  0  0  0  0
  2  3  1  0  0  0  0
  3 13  1  0  0  0  0
  4  3  2  0  0  0  0
  4  8  1  0  0  0  0
  5  4  1  0  0  0  0
  6  7  1  0  0  0  0
  6  5  2  0  0  0  0
  7  2  2  0  0  0  0
  9  5  1  0  0  0  0
 10  6  1  0  0  0  0
 11 17  1  0  0  0  0
 11 16  1  0  0  0  0
 12 11  2  0  0  0  0
 13 12  1  0  0  0  0
 13 14  2  0  0  0  0
 14 15  1  0  0  0  0
 15 16  2  0  0  0  0
 15 19  1  0  0  0  0
 18 12  1  0  0  0  0
 20 21  1  0  0  0  0
 20  7  1  0  0  0  0
 21 25  1  0  0  0  0
 22 21  2  0  0  0  0
 23 24  1  0  0  0  0
 23 22  1  0  0  0  0
 24 20  2  0  0  0  0
 26 22  1  0  0  0  0
 27 28  1  0  0  0  0
 28 29  2  0  0  0  0
 28 23  1  0  0  0  0
 29 30  1  0  0  0  0
 31 32  1  0  0  0  0
 31 29  1  0  0  0  0
 33 31  2  0  0  0  0
 34 33  1  0  0  0  0
 34 27  2  0  0  0  0
 36 37  2  0  0  0  0
 36 27  1  0  0  0  0
 36 35  1  0  0  0  0
 38 36  2  0  0  0  0
M  END
>  <minimizedAffinity>
-5.9857707

>  <minimizedRMSD>
1.39889014

$$$$
