
 OpenBabel03252509243D

 30 32  0  0  1  0  0  0  0  0999 V2000
   46.6630   34.7620   42.0000 C   0  0  1  0  0  0  0  0  0  0  0  0
   48.1030   35.3250   42.0600 C   0  0  0  0  0  0  0  0  0  0  0  0
   47.7160   33.8530   41.7240 C   0  0  2  0  0  0  0  0  0  0  0  0
   46.0300   35.2580   41.2590 H   0  0  0  0  0  0  0  0  0  0  0  0
   48.3340   35.9790   41.2250 H   0  0  0  0  0  0  0  0  0  0  0  0
   48.5680   35.5310   43.0210 H   0  0  0  0  0  0  0  0  0  0  0  0
   48.0170   33.1590   42.5760 H   0  0  0  0  0  0  0  0  0  0  0  0
   44.5330   35.6160   44.9790 C   0  0  0  0  0  0  0  0  0  0  0  0
   45.1000   35.7170   43.6830 C   0  0  0  0  0  0  0  0  0  0  0  0
   46.0620   34.7610   43.3970 C   0  0  0  0  0  0  0  0  0  0  0  0
   46.4200   33.7980   44.3220 N   0  0  0  0  0  0  0  0  0  0  0  0
   45.8470   33.7590   45.5280 C   0  0  0  0  0  0  0  0  0  0  0  0
   44.8940   34.6740   45.8600 N   0  0  0  0  0  0  0  0  0  0  0  0
   43.7800   36.3400   45.2420 H   0  0  0  0  0  0  0  0  0  0  0  0
   46.2450   32.9470   46.1160 H   0  0  0  0  0  0  0  0  0  0  0  0
   44.7460   36.7330   42.7430 N   0  0  0  0  0  0  0  0  0  0  0  0
   45.4010   37.5220   42.9410 H   0  0  0  0  0  0  0  0  0  0  0  0
   43.9870   36.6170   42.0520 H   0  0  0  0  0  0  0  0  0  0  0  0
   49.1520   32.5480   39.9720 C   0  0  0  0  0  0  0  0  0  0  0  0
   48.1480   33.3550   40.3980 C   0  0  0  0  0  0  0  0  0  0  0  0
   47.2760   33.8350   39.4100 C   0  0  0  0  0  0  0  0  0  0  0  0
   46.4080   34.4950   39.5490 H   0  0  0  0  0  0  0  0  0  0  0  0
   47.4300   33.5040   38.0710 C   0  0  0  0  0  0  0  0  0  0  0  0
   46.7880   33.8460   37.2740 H   0  0  0  0  0  0  0  0  0  0  0  0
   48.4530   32.6900   37.6880 C   0  0  0  0  0  3  0  0  0  0  0  0
   49.3180   32.2110   38.6480 C   0  0  0  0  0  3  0  0  0  0  0  0
   50.4100   32.8850   42.1930 H   0  0  0  0  0  0  0  0  0  0  0  0
   50.2460   31.9760   41.1840 S   0  0  0  0  0  0  0  0  0  0  0  0
   51.6380   31.8290   40.5740 O   0  0  0  0  0  0  0  0  0  0  0  0
   49.8070   30.6830   41.7900 O   0  0  0  0  0  0  0  0  0  0  0  0
  1  4  1  6  0  0  0
  1  2  1  0  0  0  0
  1 10  1  0  0  0  0
  2  6  1  0  0  0  0
  3  1  1  0  0  0  0
  3  2  1  0  0  0  0
  3  7  1  1  0  0  0
  5  2  1  0  0  0  0
  8 14  1  0  0  0  0
  8 13  1  0  0  0  0
  9  8  2  0  0  0  0
 10  9  1  0  0  0  0
 10 11  2  0  0  0  0
 11 12  1  0  0  0  0
 12 13  2  0  0  0  0
 12 15  1  0  0  0  0
 16 17  1  0  0  0  0
 16  9  1  0  0  0  0
 18 16  1  0  0  0  0
 19 20  1  0  0  0  0
 19 28  1  0  0  0  0
 20  3  1  0  0  0  0
 21 22  1  0  0  0  0
 21 20  2  0  0  0  0
 23 21  1  0  0  0  0
 24 23  1  0  0  0  0
 25 23  2  0  0  0  0
 25 26  1  0  0  0  0
 26 19  2  0  0  0  0
 28 30  2  0  0  0  0
 28 27  1  0  0  0  0
 29 28  2  0  0  0  0
M  END
>  <minimizedAffinity>
-5.12573957

>  <minimizedRMSD>
1.30466092

$$$$
