
 OpenBabel03252506123D

 39 41  0  0  0  0  0  0  0  0999 V2000
   45.3370   33.3540   41.2290 F   0  0  0  0  0  0  0  0  0  0  0  0
   46.4830   34.0210   41.1020 C   0  0  0  0  0  0  0  0  0  0  0  0
   46.9090   34.8460   42.1400 C   0  0  0  0  0  0  0  0  0  0  0  0
   48.0920   35.5750   42.0910 C   0  0  0  0  0  0  0  0  0  0  0  0
   48.9010   35.4880   40.9580 C   0  0  0  0  0  0  0  0  0  0  0  0
   48.4430   34.6580   39.9470 C   0  0  0  0  0  0  0  0  0  0  0  0
   47.2900   33.9390   39.9790 C   0  0  0  0  0  0  0  0  0  0  0  0
   48.3580   36.2020   42.9490 H   0  0  0  0  0  0  0  0  0  0  0  0
   49.7890   36.0690   40.9850 H   0  0  0  0  0  0  0  0  0  0  0  0
   49.1670   34.6800   39.1390 H   0  0  0  0  0  0  0  0  0  0  0  0
   45.4870   34.1550   45.4520 C   0  0  0  0  0  0  0  0  0  0  0  0
   44.5720   35.2100   45.6020 C   0  0  0  0  0  0  0  0  0  0  0  0
   44.4450   36.1590   44.5620 C   0  0  0  0  0  0  0  0  0  0  0  0
   45.2370   35.9820   43.4600 N   0  0  0  0  0  0  0  0  0  0  0  0
   46.0960   34.9680   43.3510 C   0  0  0  0  0  0  0  0  0  0  0  0
   46.2160   34.0650   44.3400 N   0  0  0  0  0  0  0  0  0  0  0  0
   43.9480   35.3470   46.4720 H   0  0  0  0  0  0  0  0  0  0  0  0
   43.7550   36.9880   44.6310 H   0  0  0  0  0  0  0  0  0  0  0  0
   45.6050   33.2080   46.5000 N   0  0  0  0  0  0  0  0  0  0  0  0
   44.9290   32.4540   46.8180 H   0  0  0  0  0  0  0  0  0  0  0  0
   46.4730   33.2140   47.0760 H   0  0  0  0  0  0  0  0  0  0  0  0
   46.9400   33.1510   38.9180 O   0  0  0  0  0  0  0  0  0  0  0  0
   48.1320   34.6530   37.0910 O   0  0  0  0  0  0  0  0  0  0  0  0
   47.1990   33.4780   37.2910 P   0  0  2  0  0  0  0  0  0  0  0  0
   45.6850   33.8070   36.5640 O   0  0  0  0  0  0  0  0  0  0  0  0
   45.7540   34.6020   35.9810 H   0  0  0  0  0  0  0  0  0  0  0  0
   47.8160   32.1630   36.4280 O   0  0  0  0  0  0  0  0  0  0  0  0
   47.5630   31.5150   34.2200 C   0  0  0  0  0  0  0  0  0  0  0  0
   47.1430   31.3640   35.5460 C   0  0  0  0  0  0  0  0  0  0  0  0
   46.1350   30.4560   35.7750 C   0  0  0  0  0  0  0  0  0  0  0  0
   45.8460   30.3750   36.8120 H   0  0  0  0  0  0  0  0  0  0  0  0
   45.5600   29.7260   34.7630 C   0  0  0  0  0  0  0  0  0  0  0  0
   44.7720   29.0230   34.9800 H   0  0  0  0  0  0  0  0  0  0  0  0
   45.9630   29.8620   33.4450 C   0  0  0  0  0  3  0  0  0  0  0  0
   46.9740   30.7750   33.2170 C   0  0  0  0  0  3  0  0  0  0  0  0
   49.0340   33.5030   34.7810 H   0  0  0  0  0  0  0  0  0  0  0  0
   48.8450   32.6410   33.7540 S   0  0  0  0  0  0  0  0  0  0  0  0
   50.1060   31.8360   33.4670 O   0  0  0  0  0  0  0  0  0  0  0  0
   48.4730   33.2990   32.4670 O   0  0  0  0  0  0  0  0  0  0  0  0
  2  1  1  0  0  0  0
  2  3  1  0  0  0  0
  3 15  1  0  0  0  0
  4  3  2  0  0  0  0
  4  8  1  0  0  0  0
  5  9  1  0  0  0  0
  5  4  1  0  0  0  0
  6  7  1  0  0  0  0
  6  5  2  0  0  0  0
  7  2  2  0  0  0  0
 10  6  1  0  0  0  0
 11 12  1  0  0  0  0
 11 19  1  0  0  0  0
 12 17  1  0  0  0  0
 13 18  1  0  0  0  0
 13 12  2  0  0  0  0
 14 13  1  0  0  0  0
 15 14  2  0  0  0  0
 15 16  1  0  0  0  0
 16 11  2  0  0  0  0
 19 20  1  0  0  0  0
 19 21  1  0  0  0  0
 22  7  1  0  0  0  0
 24 23  2  6  0  0  0
 24 22  1  0  0  0  0
 25 24  1  0  0  0  0
 26 25  1  0  0  0  0
 27 24  1  0  0  0  0
 28 29  1  0  0  0  0
 29 30  2  0  0  0  0
 29 27  1  0  0  0  0
 30 31  1  0  0  0  0
 32 33  1  0  0  0  0
 32 30  1  0  0  0  0
 34 32  2  0  0  0  0
 35 34  1  0  0  0  0
 35 28  2  0  0  0  0
 37 28  1  0  0  0  0
 37 36  1  0  0  0  0
 38 37  2  0  0  0  0
 39 37  2  0  0  0  0
M  END
>  <minimizedAffinity>
-6.84292555

>  <minimizedRMSD>
1.27937138

$$$$
