
 OpenBabel03252506343D

 36 38  0  0  1  0  0  0  0  0999 V2000
   44.4970   35.5380   45.0490 C   0  0  0  0  0  0  0  0  0  0  0  0
   45.2030   35.5530   43.8350 C   0  0  0  0  0  0  0  0  0  0  0  0
   46.1710   34.6190   43.6330 C   0  0  0  0  0  0  0  0  0  0  0  0
   46.3850   33.7340   44.6290 N   0  0  0  0  0  0  0  0  0  0  0  0
   45.7180   33.7210   45.7790 C   0  0  0  0  0  0  0  0  0  0  0  0
   44.7530   34.6210   46.0240 N   0  0  0  0  0  0  0  0  0  0  0  0
   46.0460   32.7340   46.7460 N   0  0  0  0  0  0  0  0  0  0  0  0
   45.2170   32.3910   47.8980 C   0  0  0  0  0  0  0  0  0  0  0  0
   46.2830   32.1520   48.9620 C   0  0  0  0  0  0  0  0  0  0  0  0
   47.6110   32.0820   48.2560 C   0  0  0  0  0  0  0  0  0  0  0  0
   47.2170   31.8880   46.8100 C   0  0  1  0  0  0  0  0  0  0  0  0
   43.7050   36.2540   45.2860 H   0  0  0  0  0  0  0  0  0  0  0  0
   46.6810   34.6600   42.7060 H   0  0  0  0  0  0  0  0  0  0  0  0
   44.5960   31.5000   47.7150 H   0  0  0  0  0  0  0  0  0  0  0  0
   44.6120   33.2410   48.2450 H   0  0  0  0  0  0  0  0  0  0  0  0
   46.0610   31.1700   49.4230 H   0  0  0  0  0  0  0  0  0  0  0  0
   46.2380   32.8960   49.7710 H   0  0  0  0  0  0  0  0  0  0  0  0
   48.2410   31.2370   48.6310 H   0  0  0  0  0  0  0  0  0  0  0  0
   48.1070   33.0630   48.3900 H   0  0  0  0  0  0  0  0  0  0  0  0
   48.0480   32.2560   46.1990 H   0  0  0  0  0  0  0  0  0  0  0  0
   44.7920   36.5930   42.9430 N   0  0  0  0  0  0  0  0  0  0  0  0
   43.8540   36.7770   42.5590 H   0  0  0  0  0  0  0  0  0  0  0  0
   45.6970   37.1130   42.7860 H   0  0  0  0  0  0  0  0  0  0  0  0
   46.8100   30.1490   46.5680 S   0  0  0  0  0  0  0  0  0  0  0  0
   46.5510   30.0170   43.7470 C   0  0  0  0  0  0  0  0  0  0  0  0
   46.0120   29.8520   45.0020 C   0  0  0  0  0  0  0  0  0  0  0  0
   44.6950   29.4020   45.1300 C   0  0  0  0  0  0  0  0  0  0  0  0
   44.1870   29.2430   46.0810 H   0  0  0  0  0  0  0  0  0  0  0  0
   43.9560   29.1310   43.9930 C   0  0  0  0  0  0  0  0  0  0  0  0
   42.9360   28.7820   44.0740 H   0  0  0  0  0  0  0  0  0  0  0  0
   44.4820   29.2920   42.7340 C   0  0  0  0  0  3  0  0  0  0  0  0
   45.7840   29.7370   42.6320 C   0  0  0  0  0  3  0  0  0  0  0  0
   48.6110   30.9170   44.9710 H   0  0  0  0  0  0  0  0  0  0  0  0
   48.2030   30.5820   43.7110 S   0  0  0  0  0  0  0  0  0  0  0  0
   49.1010   29.4420   43.2540 O   0  0  0  0  0  0  0  0  0  0  0  0
   48.4220   31.6830   42.7240 O   0  0  0  0  0  0  0  0  0  0  0  0
  1 12  1  0  0  0  0
  1  6  1  0  0  0  0
  2  1  2  0  0  0  0
  3  2  1  0  0  0  0
  3  4  2  0  0  0  0
  4  5  1  0  0  0  0
  5  6  2  0  0  0  0
  5  7  1  0  0  0  0
  7 11  1  0  0  0  0
  7  8  1  0  0  0  0
  8 15  1  0  0  0  0
  8  9  1  0  0  0  0
  9 16  1  0  0  0  0
  9 17  1  0  0  0  0
 10 19  1  0  0  0  0
 10 18  1  0  0  0  0
 10  9  1  0  0  0  0
 11 20  1  6  0  0  0
 11 10  1  0  0  0  0
 13  3  1  0  0  0  0
 14  8  1  0  0  0  0
 21  2  1  0  0  0  0
 22 21  1  0  0  0  0
 23 21  1  0  0  0  0
 24 11  1  0  0  0  0
 25 26  1  0  0  0  0
 26 27  2  0  0  0  0
 26 24  1  0  0  0  0
 27 28  1  0  0  0  0
 29 30  1  0  0  0  0
 29 27  1  0  0  0  0
 31 29  2  0  0  0  0
 32 31  1  0  0  0  0
 32 25  2  0  0  0  0
 34 25  1  0  0  0  0
 34 33  1  0  0  0  0
 35 34  2  0  0  0  0
 36 34  2  0  0  0  0
M  END
>  <minimizedAffinity>
-4.89976835

>  <minimizedRMSD>
0.474979609

$$$$
