
 OpenBabel03252509253D

 30 32  0  0  1  0  0  0  0  0999 V2000
   36.2270   28.6480   39.8770 C   0  0  1  0  0  0  0  0  0  0  0  0
   35.7530   27.7550   38.7060 C   0  0  0  0  0  0  0  0  0  0  0  0
   37.0270   27.5180   39.5710 C   0  0  2  0  0  0  0  0  0  0  0  0
   35.5020   28.7210   40.6930 H   0  0  0  0  0  0  0  0  0  0  0  0
   34.8710   27.1730   38.9520 H   0  0  0  0  0  0  0  0  0  0  0  0
   35.8800   28.0920   37.6790 H   0  0  0  0  0  0  0  0  0  0  0  0
   37.9660   27.7170   38.9580 H   0  0  0  0  0  0  0  0  0  0  0  0
   36.9560   32.3280   39.6150 C   0  0  0  0  0  0  0  0  0  0  0  0
   36.4660   31.1080   40.1500 C   0  0  0  0  0  0  0  0  0  0  0  0
   36.6620   30.0020   39.3390 C   0  0  0  0  0  0  0  0  0  0  0  0
   37.2870   30.1090   38.1110 N   0  0  0  0  0  0  0  0  0  0  0  0
   37.7250   31.2890   37.6640 C   0  0  0  0  0  0  0  0  0  0  0  0
   37.5600   32.4090   38.4230 N   0  0  0  0  0  0  0  0  0  0  0  0
   36.8240   33.2130   40.2140 H   0  0  0  0  0  0  0  0  0  0  0  0
   38.1850   31.1870   36.6940 H   0  0  0  0  0  0  0  0  0  0  0  0
   35.7950   31.0110   41.4070 N   0  0  0  0  0  0  0  0  0  0  0  0
   34.7850   31.1600   41.1840 H   0  0  0  0  0  0  0  0  0  0  0  0
   36.2900   30.8300   42.2940 H   0  0  0  0  0  0  0  0  0  0  0  0
   37.1970   25.8940   41.6140 C   0  0  0  0  0  0  0  0  0  0  0  0
   37.0830   26.2320   40.3040 C   0  0  0  0  0  0  0  0  0  0  0  0
   36.9630   25.1690   39.3970 C   0  0  0  0  0  0  0  0  0  0  0  0
   36.8610   25.2320   38.3050 H   0  0  0  0  0  0  0  0  0  0  0  0
   36.9600   23.8460   39.8140 C   0  0  0  0  0  0  0  0  0  0  0  0
   36.8690   22.9940   39.1570 H   0  0  0  0  0  0  0  0  0  0  0  0
   37.0770   23.5530   41.1390 C   0  0  0  0  0  3  0  0  0  0  0  0
   37.1960   24.5870   42.0410 C   0  0  0  0  0  3  0  0  0  0  0  0
   37.5730   28.3960   42.0960 H   0  0  0  0  0  0  0  0  0  0  0  0
   37.3750   27.2010   42.7330 S   0  0  0  0  0  0  0  0  0  0  0  0
   38.6450   26.9900   43.5530 O   0  0  0  0  0  0  0  0  0  0  0  0
   36.1940   27.3480   43.6360 O   0  0  0  0  0  0  0  0  0  0  0  0
  1  4  1  1  0  0  0
  2  5  1  0  0  0  0
  2  3  1  0  0  0  0
  2  1  1  0  0  0  0
  3  7  1  6  0  0  0
  3  1  1  0  0  0  0
  3 20  1  0  0  0  0
  6  2  1  0  0  0  0
  8  9  1  0  0  0  0
  8 14  1  0  0  0  0
  9 16  1  0  0  0  0
 10  1  1  0  0  0  0
 10  9  2  0  0  0  0
 11 10  1  0  0  0  0
 12 11  2  0  0  0  0
 12 13  1  0  0  0  0
 13  8  2  0  0  0  0
 15 12  1  0  0  0  0
 16 18  1  0  0  0  0
 17 16  1  0  0  0  0
 19 26  1  0  0  0  0
 19 28  1  0  0  0  0
 20 19  2  0  0  0  0
 21 23  2  0  0  0  0
 21 20  1  0  0  0  0
 22 21  1  0  0  0  0
 23 25  1  0  0  0  0
 24 23  1  0  0  0  0
 25 26  2  0  0  0  0
 27 28  1  0  0  0  0
 28 29  2  0  0  0  0
 28 30  2  0  0  0  0
M  END
>  <minimizedAffinity>
-5.5341177

$$$$

 OpenBabel03252509253D

 30 32  0  0  1  0  0  0  0  0999 V2000
   38.2130   31.3930   40.6470 C   0  0  1  0  0  0  0  0  0  0  0  0
   37.0800   30.9240   39.7030 C   0  0  0  0  0  0  0  0  0  0  0  0
   38.1290   30.0000   40.3910 C   0  0  2  0  0  0  0  0  0  0  0  0
   37.8510   31.9050   41.5430 H   0  0  0  0  0  0  0  0  0  0  0  0
   36.0990   30.9860   40.1610 H   0  0  0  0  0  0  0  0  0  0  0  0
   37.1620   31.0890   38.6310 H   0  0  0  0  0  0  0  0  0  0  0  0
   38.8590   29.5850   39.6220 H   0  0  0  0  0  0  0  0  0  0  0  0
   40.5190   34.1610   39.5710 C   0  0  0  0  0  0  0  0  0  0  0  0
   39.5180   33.4830   40.3130 C   0  0  0  0  0  0  0  0  0  0  0  0
   39.2260   32.2070   39.8580 C   0  0  0  0  0  0  0  0  0  0  0  0
   39.8740   31.6650   38.7640 N   0  0  0  0  0  0  0  0  0  0  0  0
   40.8090   32.3570   38.1080 C   0  0  0  0  0  0  0  0  0  0  0  0
   41.1360   33.6160   38.5150 N   0  0  0  0  0  0  0  0  0  0  0  0
   40.7770   35.1560   39.8920 H   0  0  0  0  0  0  0  0  0  0  0  0
   41.2080   31.7830   37.2870 H   0  0  0  0  0  0  0  0  0  0  0  0
   38.8310   34.0620   41.4240 N   0  0  0  0  0  0  0  0  0  0  0  0
   38.0030   34.5430   41.0070 H   0  0  0  0  0  0  0  0  0  0  0  0
   39.1620   33.9690   42.3980 H   0  0  0  0  0  0  0  0  0  0  0  0
   37.0020   27.7440   41.0830 C   0  0  0  0  0  0  0  0  0  0  0  0
   37.5840   28.9540   41.2870 C   0  0  0  0  0  0  0  0  0  0  0  0
   37.7570   29.3430   42.6240 C   0  0  0  0  0  0  0  0  0  0  0  0
   38.2030   30.2750   42.9940 H   0  0  0  0  0  0  0  0  0  0  0  0
   37.3570   28.5370   43.6800 C   0  0  0  0  0  0  0  0  0  0  0  0
   37.4680   28.7900   44.7230 H   0  0  0  0  0  0  0  0  0  0  0  0
   36.7770   27.3300   43.4290 C   0  0  0  0  0  3  0  0  0  0  0  0
   36.6000   26.9350   42.1210 C   0  0  0  0  0  3  0  0  0  0  0  0
   37.7310   27.7770   38.6140 H   0  0  0  0  0  0  0  0  0  0  0  0
   36.7610   27.2730   39.4370 S   0  0  0  0  0  0  0  0  0  0  0  0
   35.4640   27.8920   38.9230 O   0  0  0  0  0  0  0  0  0  0  0  0
   36.7310   25.7890   39.2630 O   0  0  0  0  0  0  0  0  0  0  0  0
  1  4  1  1  0  0  0
  2  5  1  0  0  0  0
  2  3  1  0  0  0  0
  2  1  1  0  0  0  0
  3  7  1  6  0  0  0
  3  1  1  0  0  0  0
  3 20  1  0  0  0  0
  6  2  1  0  0  0  0
  8 14  1  0  0  0  0
  8  9  1  0  0  0  0
  9 16  1  0  0  0  0
 10  9  2  0  0  0  0
 10  1  1  0  0  0  0
 11 10  1  0  0  0  0
 12 13  1  0  0  0  0
 12 11  2  0  0  0  0
 13  8  2  0  0  0  0
 15 12  1  0  0  0  0
 16 18  1  0  0  0  0
 17 16  1  0  0  0  0
 19 20  2  0  0  0  0
 19 26  1  0  0  0  0
 20 21  1  0  0  0  0
 21 22  1  0  0  0  0
 21 23  2  0  0  0  0
 23 24  1  0  0  0  0
 25 23  1  0  0  0  0
 26 25  2  0  0  0  0
 27 28  1  0  0  0  0
 28 19  1  0  0  0  0
 29 28  2  0  0  0  0
 30 28  2  0  0  0  0
M  END
>  <minimizedAffinity>
-5.19790983

$$$$

 OpenBabel03252509253D

 30 32  0  0  1  0  0  0  0  0999 V2000
   36.0280   29.7780   38.8960 C   0  0  1  0  0  0  0  0  0  0  0  0
   34.8270   29.2740   39.7310 C   0  0  0  0  0  0  0  0  0  0  0  0
   36.2660   28.6750   39.7550 C   0  0  2  0  0  0  0  0  0  0  0  0
   36.2940   30.8200   39.0970 H   0  0  0  0  0  0  0  0  0  0  0  0
   34.5600   29.9520   40.5340 H   0  0  0  0  0  0  0  0  0  0  0  0
   34.0360   28.6990   39.2550 H   0  0  0  0  0  0  0  0  0  0  0  0
   36.2770   27.6480   39.2650 H   0  0  0  0  0  0  0  0  0  0  0  0
   36.5210   29.4260   35.1850 C   0  0  0  0  0  0  0  0  0  0  0  0
   36.7990   29.7740   36.5320 C   0  0  0  0  0  0  0  0  0  0  0  0
   35.7740   29.4970   37.4230 C   0  0  0  0  0  0  0  0  0  0  0  0
   34.5860   28.9290   37.0040 N   0  0  0  0  0  0  0  0  0  0  0  0
   34.3870   28.6250   35.7190 C   0  0  0  0  0  0  0  0  0  0  0  0
   35.3620   28.8740   34.8000 N   0  0  0  0  0  0  0  0  0  0  0  0
   37.2910   29.6230   34.4590 H   0  0  0  0  0  0  0  0  0  0  0  0
   33.4110   28.1910   35.5730 H   0  0  0  0  0  0  0  0  0  0  0  0
   38.0180   30.3890   36.9520 N   0  0  0  0  0  0  0  0  0  0  0  0
   37.8440   31.4150   36.8670 H   0  0  0  0  0  0  0  0  0  0  0  0
   38.8420   29.8480   37.2580 H   0  0  0  0  0  0  0  0  0  0  0  0
   37.8670   29.5110   41.6470 C   0  0  0  0  0  0  0  0  0  0  0  0
   36.9530   28.6910   41.0680 C   0  0  0  0  0  0  0  0  0  0  0  0
   36.5020   27.6150   41.8470 C   0  0  0  0  0  0  0  0  0  0  0  0
   35.7710   26.8470   41.5620 H   0  0  0  0  0  0  0  0  0  0  0  0
   36.9630   27.4000   43.1370 C   0  0  0  0  0  0  0  0  0  0  0  0
   36.6480   26.5900   43.7760 H   0  0  0  0  0  0  0  0  0  0  0  0
   37.8810   28.2490   43.6790 C   0  0  0  0  0  3  0  0  0  0  0  0
   38.3330   29.3100   42.9250 C   0  0  0  0  0  3  0  0  0  0  0  0
   37.4470   31.3930   39.9400 H   0  0  0  0  0  0  0  0  0  0  0  0
   38.4470   30.8220   40.6790 S   0  0  0  0  0  0  0  0  0  0  0  0
   39.4300   30.2840   39.6430 O   0  0  0  0  0  0  0  0  0  0  0  0
   39.0910   31.8960   41.4950 O   0  0  0  0  0  0  0  0  0  0  0  0
  1  4  1  1  0  0  0
  1  2  1  0  0  0  0
  1  3  1  0  0  0  0
  2  3  1  0  0  0  0
  2  5  1  0  0  0  0
  3  7  1  6  0  0  0
  3 20  1  0  0  0  0
  6  2  1  0  0  0  0
  8  9  1  0  0  0  0
  9 16  1  0  0  0  0
  9 10  2  0  0  0  0
 10  1  1  0  0  0  0
 11 10  1  0  0  0  0
 12 11  2  0  0  0  0
 13  8  2  0  0  0  0
 13 12  1  0  0  0  0
 14  8  1  0  0  0  0
 15 12  1  0  0  0  0
 16 18  1  0  0  0  0
 17 16  1  0  0  0  0
 19 26  1  0  0  0  0
 20 19  2  0  0  0  0
 20 21  1  0  0  0  0
 21 23  2  0  0  0  0
 22 21  1  0  0  0  0
 23 25  1  0  0  0  0
 23 24  1  0  0  0  0
 26 25  2  0  0  0  0
 27 28  1  0  0  0  0
 28 30  2  0  0  0  0
 28 19  1  0  0  0  0
 29 28  2  0  0  0  0
M  END
>  <minimizedAffinity>
-5.01899481

$$$$

 OpenBabel03252509253D

 30 32  0  0  1  0  0  0  0  0999 V2000
   38.1560   29.4730   42.2560 C   0  0  1  0  0  0  0  0  0  0  0  0
   36.7730   28.7820   42.2300 C   0  0  0  0  0  0  0  0  0  0  0  0
   38.0760   28.2280   41.5810 C   0  0  2  0  0  0  0  0  0  0  0  0
   38.5460   29.6350   43.2650 H   0  0  0  0  0  0  0  0  0  0  0  0
   36.4890   28.3750   43.1950 H   0  0  0  0  0  0  0  0  0  0  0  0
   35.9890   29.1570   41.5770 H   0  0  0  0  0  0  0  0  0  0  0  0
   38.0060   28.2750   40.4450 H   0  0  0  0  0  0  0  0  0  0  0  0
   39.0720   32.7730   40.7010 C   0  0  0  0  0  0  0  0  0  0  0  0
   39.1500   31.6430   41.5550 C   0  0  0  0  0  0  0  0  0  0  0  0
   38.1030   30.7440   41.4230 C   0  0  0  0  0  0  0  0  0  0  0  0
   37.0770   30.9600   40.5230 N   0  0  0  0  0  0  0  0  0  0  0  0
   37.0620   32.0470   39.7470 C   0  0  0  0  0  0  0  0  0  0  0  0
   38.0680   32.9620   39.8350 N   0  0  0  0  0  0  0  0  0  0  0  0
   39.8660   33.4960   40.7720 H   0  0  0  0  0  0  0  0  0  0  0  0
   36.1920   32.0520   39.1090 H   0  0  0  0  0  0  0  0  0  0  0  0
   40.1990   31.4420   42.5040 N   0  0  0  0  0  0  0  0  0  0  0  0
   39.8640   31.9070   43.3780 H   0  0  0  0  0  0  0  0  0  0  0  0
   41.0680   30.9320   42.2800 H   0  0  0  0  0  0  0  0  0  0  0  0
   38.2320   25.6240   41.7590 C   0  0  0  0  0  0  0  0  0  0  0  0
   38.5370   26.9090   42.0730 C   0  0  0  0  0  0  0  0  0  0  0  0
   39.5180   27.0910   43.0580 C   0  0  0  0  0  0  0  0  0  0  0  0
   39.9020   28.0440   43.4480 H   0  0  0  0  0  0  0  0  0  0  0  0
   40.1440   26.0200   43.6780 C   0  0  0  0  0  0  0  0  0  0  0  0
   40.9040   26.1070   44.4390 H   0  0  0  0  0  0  0  0  0  0  0  0
   39.8070   24.7460   43.3320 C   0  0  0  0  0  3  0  0  0  0  0  0
   38.8430   24.5510   42.3660 C   0  0  0  0  0  3  0  0  0  0  0  0
   35.9560   26.2610   40.7370 H   0  0  0  0  0  0  0  0  0  0  0  0
   37.0010   25.3940   40.5660 S   0  0  0  0  0  0  0  0  0  0  0  0
   36.3830   24.0100   40.7430 O   0  0  0  0  0  0  0  0  0  0  0  0
   37.5150   25.5570   39.1730 O   0  0  0  0  0  0  0  0  0  0  0  0
  1  4  1  1  0  0  0
  2  1  1  0  0  0  0
  2  5  1  0  0  0  0
  3  7  1  6  0  0  0
  3 20  1  0  0  0  0
  3  2  1  0  0  0  0
  3  1  1  0  0  0  0
  6  2  1  0  0  0  0
  8 14  1  0  0  0  0
  8  9  1  0  0  0  0
  9 16  1  0  0  0  0
 10  9  2  0  0  0  0
 10  1  1  0  0  0  0
 11 10  1  0  0  0  0
 12 13  1  0  0  0  0
 12 11  2  0  0  0  0
 13  8  2  0  0  0  0
 15 12  1  0  0  0  0
 16 17  1  0  0  0  0
 18 16  1  0  0  0  0
 19 20  2  0  0  0  0
 19 26  1  0  0  0  0
 20 21  1  0  0  0  0
 21 22  1  0  0  0  0
 21 23  2  0  0  0  0
 23 24  1  0  0  0  0
 25 23  1  0  0  0  0
 26 25  2  0  0  0  0
 28 27  1  0  0  0  0
 28 29  2  0  0  0  0
 28 19  1  0  0  0  0
 30 28  2  0  0  0  0
M  END
>  <minimizedAffinity>
-4.97010899

$$$$

 OpenBabel03252509253D

 30 32  0  0  1  0  0  0  0  0999 V2000
   36.1490   29.5180   39.0460 C   0  0  1  0  0  0  0  0  0  0  0  0
   34.8950   29.1390   39.8690 C   0  0  0  0  0  0  0  0  0  0  0  0
   36.1900   28.2820   39.7420 C   0  0  2  0  0  0  0  0  0  0  0  0
   36.6170   30.4530   39.3670 H   0  0  0  0  0  0  0  0  0  0  0  0
   34.7840   29.7390   40.7660 H   0  0  0  0  0  0  0  0  0  0  0  0
   33.9950   28.7950   39.3630 H   0  0  0  0  0  0  0  0  0  0  0  0
   35.9890   27.3490   39.1220 H   0  0  0  0  0  0  0  0  0  0  0  0
   36.4390   29.7610   35.3050 C   0  0  0  0  0  0  0  0  0  0  0  0
   36.8010   29.8700   36.6730 C   0  0  0  0  0  0  0  0  0  0  0  0
   35.8090   29.4950   37.5650 C   0  0  0  0  0  0  0  0  0  0  0  0
   34.5740   29.0550   37.1270 N   0  0  0  0  0  0  0  0  0  0  0  0
   34.2960   28.9760   35.8230 C   0  0  0  0  0  0  0  0  0  0  0  0
   35.2360   29.3310   34.9030 N   0  0  0  0  0  0  0  0  0  0  0  0
   37.1820   30.0430   34.5780 H   0  0  0  0  0  0  0  0  0  0  0  0
   33.2920   28.6150   35.6650 H   0  0  0  0  0  0  0  0  0  0  0  0
   38.0690   30.3540   37.1170 N   0  0  0  0  0  0  0  0  0  0  0  0
   37.9450   31.3870   37.2100 H   0  0  0  0  0  0  0  0  0  0  0  0
   38.8790   29.7350   37.2840 H   0  0  0  0  0  0  0  0  0  0  0  0
   37.3540   26.8510   41.5950 C   0  0  0  0  0  0  0  0  0  0  0  0
   36.9000   27.9880   41.0080 C   0  0  0  0  0  0  0  0  0  0  0  0
   37.1510   29.1850   41.6950 C   0  0  0  0  0  0  0  0  0  0  0  0
   36.8680   30.2010   41.3890 H   0  0  0  0  0  0  0  0  0  0  0  0
   37.8270   29.2070   42.9060 C   0  0  0  0  0  0  0  0  0  0  0  0
   38.0460   30.0990   43.4720 H   0  0  0  0  0  0  0  0  0  0  0  0
   38.2660   28.0420   43.4590 C   0  0  0  0  0  3  0  0  0  0  0  0
   38.0250   26.8590   42.7960 C   0  0  0  0  0  3  0  0  0  0  0  0
   35.9010   25.4630   39.9860 H   0  0  0  0  0  0  0  0  0  0  0  0
   37.0210   25.3700   40.7660 S   0  0  0  0  0  0  0  0  0  0  0  0
   36.6860   24.2870   41.7890 O   0  0  0  0  0  0  0  0  0  0  0  0
   38.1550   24.9310   39.8980 O   0  0  0  0  0  0  0  0  0  0  0  0
  1  4  1  1  0  0  0
  1  3  1  0  0  0  0
  1  2  1  0  0  0  0
  2  5  1  0  0  0  0
  3  7  1  6  0  0  0
  3  2  1  0  0  0  0
  3 20  1  0  0  0  0
  6  2  1  0  0  0  0
  8  9  1  0  0  0  0
  9 16  1  0  0  0  0
  9 10  2  0  0  0  0
 10  1  1  0  0  0  0
 11 10  1  0  0  0  0
 12 11  2  0  0  0  0
 13  8  2  0  0  0  0
 13 12  1  0  0  0  0
 14  8  1  0  0  0  0
 15 12  1  0  0  0  0
 16 17  1  0  0  0  0
 16 18  1  0  0  0  0
 19 26  1  0  0  0  0
 20 19  2  0  0  0  0
 20 21  1  0  0  0  0
 21 23  2  0  0  0  0
 22 21  1  0  0  0  0
 23 25  1  0  0  0  0
 23 24  1  0  0  0  0
 26 25  2  0  0  0  0
 27 28  1  0  0  0  0
 28 19  1  0  0  0  0
 28 29  2  0  0  0  0
 30 28  2  0  0  0  0
M  END
>  <minimizedAffinity>
-4.91740608

$$$$

 OpenBabel03252509253D

 30 32  0  0  1  0  0  0  0  0999 V2000
   37.2650   26.5940   41.4150 C   0  0  1  0  0  0  0  0  0  0  0  0
   36.5570   27.7980   42.0800 C   0  0  0  0  0  0  0  0  0  0  0  0
   37.3350   27.8340   40.7300 C   0  0  2  0  0  0  0  0  0  0  0  0
   36.5910   25.7660   41.1800 H   0  0  0  0  0  0  0  0  0  0  0  0
   35.4760   27.7320   42.0270 H   0  0  0  0  0  0  0  0  0  0  0  0
   37.0030   28.2810   42.9470 H   0  0  0  0  0  0  0  0  0  0  0  0
   38.3050   28.4190   40.8460 H   0  0  0  0  0  0  0  0  0  0  0  0
   39.9110   24.5070   43.0850 C   0  0  0  0  0  0  0  0  0  0  0  0
   38.7490   24.8220   42.3340 C   0  0  0  0  0  0  0  0  0  0  0  0
   38.4560   26.1750   42.2630 C   0  0  0  0  0  0  0  0  0  0  0  0
   39.2500   27.1190   42.8860 N   0  0  0  0  0  0  0  0  0  0  0  0
   40.3330   26.7560   43.5790 C   0  0  0  0  0  0  0  0  0  0  0  0
   40.6670   25.4390   43.6800 N   0  0  0  0  0  0  0  0  0  0  0  0
   40.1750   23.4670   43.1650 H   0  0  0  0  0  0  0  0  0  0  0  0
   40.8310   27.6180   43.9940 H   0  0  0  0  0  0  0  0  0  0  0  0
   37.9160   23.8380   41.7180 N   0  0  0  0  0  0  0  0  0  0  0  0
   37.2110   23.5900   42.4480 H   0  0  0  0  0  0  0  0  0  0  0  0
   38.0610   23.5070   40.7520 H   0  0  0  0  0  0  0  0  0  0  0  0
   36.2850   29.4440   38.9580 C   0  0  0  0  0  0  0  0  0  0  0  0
   36.5540   28.2490   39.5420 C   0  0  0  0  0  0  0  0  0  0  0  0
   36.0220   27.1150   38.9100 C   0  0  0  0  0  0  0  0  0  0  0  0
   36.1260   26.0670   39.2230 H   0  0  0  0  0  0  0  0  0  0  0  0
   35.2630   27.2080   37.7530 C   0  0  0  0  0  0  0  0  0  0  0  0
   34.8330   26.3680   37.2300 H   0  0  0  0  0  0  0  0  0  0  0  0
   35.0170   28.4290   37.2010 C   0  0  0  0  0  3  0  0  0  0  0  0
   35.5330   29.5520   37.8100 C   0  0  0  0  0  3  0  0  0  0  0  0
   38.1880   30.6470   40.2070 H   0  0  0  0  0  0  0  0  0  0  0  0
   36.9140   30.8470   39.7490 S   0  0  0  0  0  0  0  0  0  0  0  0
   36.0940   31.1240   41.0070 O   0  0  0  0  0  0  0  0  0  0  0  0
   36.9240   32.0500   38.8620 O   0  0  0  0  0  0  0  0  0  0  0  0
  1  4  1  6  0  0  0
  1  2  1  0  0  0  0
  1 10  1  0  0  0  0
  2  6  1  0  0  0  0
  3  7  1  1  0  0  0
  3  1  1  0  0  0  0
  3  2  1  0  0  0  0
  5  2  1  0  0  0  0
  8 14  1  0  0  0  0
  8 13  1  0  0  0  0
  9  8  2  0  0  0  0
 10  9  1  0  0  0  0
 10 11  2  0  0  0  0
 11 12  1  0  0  0  0
 12 13  2  0  0  0  0
 12 15  1  0  0  0  0
 16  9  1  0  0  0  0
 16 17  1  0  0  0  0
 18 16  1  0  0  0  0
 19 20  1  0  0  0  0
 19 28  1  0  0  0  0
 20  3  1  0  0  0  0
 21 22  1  0  0  0  0
 21 20  2  0  0  0  0
 23 21  1  0  0  0  0
 24 23  1  0  0  0  0
 25 23  2  0  0  0  0
 25 26  1  0  0  0  0
 26 19  2  0  0  0  0
 28 27  1  0  0  0  0
 28 29  2  0  0  0  0
 30 28  2  0  0  0  0
M  END
>  <minimizedAffinity>
-4.91675186

$$$$

 OpenBabel03252509253D

 30 32  0  0  1  0  0  0  0  0999 V2000
   36.3180   28.5910   39.7760 C   0  0  1  0  0  0  0  0  0  0  0  0
   35.6580   27.7780   38.6370 C   0  0  0  0  0  0  0  0  0  0  0  0
   37.0280   27.4570   39.3060 C   0  0  2  0  0  0  0  0  0  0  0  0
   35.7120   28.6400   40.6860 H   0  0  0  0  0  0  0  0  0  0  0  0
   34.7980   27.2090   38.9710 H   0  0  0  0  0  0  0  0  0  0  0  0
   35.6580   28.1670   37.6210 H   0  0  0  0  0  0  0  0  0  0  0  0
   37.8830   27.6620   38.5820 H   0  0  0  0  0  0  0  0  0  0  0  0
   36.9620   32.2890   39.5510 C   0  0  0  0  0  0  0  0  0  0  0  0
   36.4970   31.0540   40.0710 C   0  0  0  0  0  0  0  0  0  0  0  0
   36.7250   29.9590   39.2530 C   0  0  0  0  0  0  0  0  0  0  0  0
   37.3580   30.0910   38.0310 N   0  0  0  0  0  0  0  0  0  0  0  0
   37.7720   31.2850   37.5980 C   0  0  0  0  0  0  0  0  0  0  0  0
   37.5730   32.3940   38.3640 N   0  0  0  0  0  0  0  0  0  0  0  0
   36.8040   33.1660   40.1560 H   0  0  0  0  0  0  0  0  0  0  0  0
   38.2420   31.2020   36.6310 H   0  0  0  0  0  0  0  0  0  0  0  0
   35.8170   30.9300   41.3220 N   0  0  0  0  0  0  0  0  0  0  0  0
   34.8060   31.0560   41.0910 H   0  0  0  0  0  0  0  0  0  0  0  0
   36.3090   30.7520   42.2120 H   0  0  0  0  0  0  0  0  0  0  0  0
   37.3420   24.8680   39.5060 C   0  0  0  0  0  0  0  0  0  0  0  0
   37.1360   26.1310   39.9590 C   0  0  0  0  0  0  0  0  0  0  0  0
   37.0150   26.2800   41.3480 C   0  0  0  0  0  0  0  0  0  0  0  0
   36.8460   27.2110   41.9070 H   0  0  0  0  0  0  0  0  0  0  0  0
   37.1020   25.1980   42.2130 C   0  0  0  0  0  0  0  0  0  0  0  0
   37.0160   25.2600   43.2860 H   0  0  0  0  0  0  0  0  0  0  0  0
   37.3100   23.9480   41.7140 C   0  0  0  0  0  3  0  0  0  0  0  0
   37.4300   23.7860   40.3510 C   0  0  0  0  0  3  0  0  0  0  0  0
   37.9850   25.7870   37.1880 H   0  0  0  0  0  0  0  0  0  0  0  0
   37.4630   24.6750   37.7910 S   0  0  0  0  0  0  0  0  0  0  0  0
   36.0610   24.5420   37.2020 O   0  0  0  0  0  0  0  0  0  0  0  0
   38.3020   23.5010   37.4030 O   0  0  0  0  0  0  0  0  0  0  0  0
  1  4  1  1  0  0  0
  2  5  1  0  0  0  0
  2  3  1  0  0  0  0
  2  1  1  0  0  0  0
  3  7  1  6  0  0  0
  3  1  1  0  0  0  0
  3 20  1  0  0  0  0
  6  2  1  0  0  0  0
  8  9  1  0  0  0  0
  8 14  1  0  0  0  0
  9 16  1  0  0  0  0
 10  1  1  0  0  0  0
 10  9  2  0  0  0  0
 11 10  1  0  0  0  0
 12 11  2  0  0  0  0
 12 13  1  0  0  0  0
 13  8  2  0  0  0  0
 15 12  1  0  0  0  0
 16 18  1  0  0  0  0
 17 16  1  0  0  0  0
 19 20  2  0  0  0  0
 19 26  1  0  0  0  0
 20 21  1  0  0  0  0
 21 22  1  0  0  0  0
 21 23  2  0  0  0  0
 23 24  1  0  0  0  0
 25 23  1  0  0  0  0
 26 25  2  0  0  0  0
 27 28  1  0  0  0  0
 28 19  1  0  0  0  0
 29 28  2  0  0  0  0
 30 28  2  0  0  0  0
M  END
>  <minimizedAffinity>
-4.87291861

$$$$

 OpenBabel03252509253D

 30 32  0  0  1  0  0  0  0  0999 V2000
   39.5880   30.6630   40.1910 C   0  0  1  0  0  0  0  0  0  0  0  0
   40.4860   29.4150   40.3560 C   0  0  0  0  0  0  0  0  0  0  0  0
   39.5640   30.0230   41.4560 C   0  0  2  0  0  0  0  0  0  0  0  0
   38.8360   30.5600   39.4020 H   0  0  0  0  0  0  0  0  0  0  0  0
   40.1110   28.5530   39.8160 H   0  0  0  0  0  0  0  0  0  0  0  0
   41.5630   29.5300   40.4630 H   0  0  0  0  0  0  0  0  0  0  0  0
   40.1890   30.5060   42.2760 H   0  0  0  0  0  0  0  0  0  0  0  0
   40.7290   34.1600   39.4070 C   0  0  0  0  0  0  0  0  0  0  0  0
   39.8810   33.0240   39.4660 C   0  0  0  0  0  0  0  0  0  0  0  0
   40.4600   31.8980   40.0290 C   0  0  0  0  0  0  0  0  0  0  0  0
   41.7650   31.9100   40.4860 N   0  0  0  0  0  0  0  0  0  0  0  0
   42.5120   33.0130   40.4000 C   0  0  0  0  0  0  0  0  0  0  0  0
   41.9910   34.1490   39.8570 N   0  0  0  0  0  0  0  0  0  0  0  0
   40.3180   35.0570   38.9770 H   0  0  0  0  0  0  0  0  0  0  0  0
   43.4980   32.8430   40.8030 H   0  0  0  0  0  0  0  0  0  0  0  0
   38.5430   33.0120   38.9640 N   0  0  0  0  0  0  0  0  0  0  0  0
   38.6340   32.7210   37.9650 H   0  0  0  0  0  0  0  0  0  0  0  0
   37.7240   33.2550   39.5450 H   0  0  0  0  0  0  0  0  0  0  0  0
   37.2080   28.9110   41.6810 C   0  0  0  0  0  0  0  0  0  0  0  0
   38.5120   29.1260   41.9880 C   0  0  0  0  0  0  0  0  0  0  0  0
   39.0470   28.3330   43.0150 C   0  0  0  0  0  0  0  0  0  0  0  0
   40.0720   28.3550   43.4080 H   0  0  0  0  0  0  0  0  0  0  0  0
   38.2860   27.3830   43.6800 C   0  0  0  0  0  0  0  0  0  0  0  0
   38.6490   26.7490   44.4740 H   0  0  0  0  0  0  0  0  0  0  0  0
   36.9800   27.2000   43.3380 C   0  0  0  0  0  3  0  0  0  0  0  0
   36.4410   27.9720   42.3320 C   0  0  0  0  0  3  0  0  0  0  0  0
   37.4310   30.1310   39.4240 H   0  0  0  0  0  0  0  0  0  0  0  0
   36.5370   29.9050   40.4350 S   0  0  0  0  0  0  0  0  0  0  0  0
   36.2430   31.2910   41.0030 O   0  0  0  0  0  0  0  0  0  0  0  0
   35.2990   29.3190   39.8360 O   0  0  0  0  0  0  0  0  0  0  0  0
  1  4  1  6  0  0  0
  1  2  1  0  0  0  0
  1  3  1  0  0  0  0
  2  6  1  0  0  0  0
  2  3  1  0  0  0  0
  3 20  1  0  0  0  0
  3  7  1  1  0  0  0
  5  2  1  0  0  0  0
  8  9  2  0  0  0  0
  8 13  1  0  0  0  0
  9 10  1  0  0  0  0
 10  1  1  0  0  0  0
 10 11  2  0  0  0  0
 12 11  1  0  0  0  0
 12 15  1  0  0  0  0
 13 12  2  0  0  0  0
 14  8  1  0  0  0  0
 16  9  1  0  0  0  0
 16 18  1  0  0  0  0
 17 16  1  0  0  0  0
 19 20  2  0  0  0  0
 19 26  1  0  0  0  0
 20 21  1  0  0  0  0
 21 22  1  0  0  0  0
 21 23  2  0  0  0  0
 23 24  1  0  0  0  0
 25 23  1  0  0  0  0
 26 25  2  0  0  0  0
 27 28  1  0  0  0  0
 28 29  2  0  0  0  0
 28 19  1  0  0  0  0
 30 28  2  0  0  0  0
M  END
>  <minimizedAffinity>
-4.84703302

$$$$

 OpenBabel03252509253D

 30 32  0  0  1  0  0  0  0  0999 V2000
   36.9340   29.1370   41.4310 C   0  0  1  0  0  0  0  0  0  0  0  0
   35.6450   29.0370   40.5810 C   0  0  0  0  0  0  0  0  0  0  0  0
   36.9490   28.2140   40.3540 C   0  0  2  0  0  0  0  0  0  0  0  0
   36.7830   28.8930   42.4860 H   0  0  0  0  0  0  0  0  0  0  0  0
   34.8340   28.5450   41.1060 H   0  0  0  0  0  0  0  0  0  0  0  0
   35.4000   29.8230   39.8700 H   0  0  0  0  0  0  0  0  0  0  0  0
   37.4750   28.5570   39.4040 H   0  0  0  0  0  0  0  0  0  0  0  0
   39.4160   31.9630   41.4410 C   0  0  0  0  0  0  0  0  0  0  0  0
   38.8480   30.6960   41.7340 C   0  0  0  0  0  0  0  0  0  0  0  0
   37.5780   30.4980   41.2170 C   0  0  0  0  0  0  0  0  0  0  0  0
   36.9390   31.4760   40.4780 N   0  0  0  0  0  0  0  0  0  0  0  0
   37.5300   32.6500   40.2370 C   0  0  0  0  0  0  0  0  0  0  0  0
   38.7800   32.8960   40.7210 N   0  0  0  0  0  0  0  0  0  0  0  0
   40.4030   32.1570   41.8240 H   0  0  0  0  0  0  0  0  0  0  0  0
   36.8910   33.2880   39.6480 H   0  0  0  0  0  0  0  0  0  0  0  0
   39.5030   29.7020   42.5240 N   0  0  0  0  0  0  0  0  0  0  0  0
   39.2130   29.9060   43.5070 H   0  0  0  0  0  0  0  0  0  0  0  0
   40.1140   28.9750   42.1180 H   0  0  0  0  0  0  0  0  0  0  0  0
   36.5310   25.7690   39.5260 C   0  0  0  0  0  0  0  0  0  0  0  0
   36.8080   26.7410   40.4320 C   0  0  0  0  0  0  0  0  0  0  0  0
   37.0490   26.3150   41.7460 C   0  0  0  0  0  0  0  0  0  0  0  0
   37.2880   26.9420   42.6170 H   0  0  0  0  0  0  0  0  0  0  0  0
   37.0070   24.9750   42.1030 C   0  0  0  0  0  0  0  0  0  0  0  0
   37.1860   24.5970   43.0970 H   0  0  0  0  0  0  0  0  0  0  0  0
   36.7260   24.0330   41.1610 C   0  0  0  0  0  3  0  0  0  0  0  0
   36.4860   24.4360   39.8650 C   0  0  0  0  0  3  0  0  0  0  0  0
   37.0260   27.3190   37.5300 H   0  0  0  0  0  0  0  0  0  0  0  0
   36.2050   26.2920   37.9100 S   0  0  0  0  0  0  0  0  0  0  0  0
   34.7990   26.8830   37.8480 O   0  0  0  0  0  0  0  0  0  0  0  0
   36.3480   25.1910   36.9110 O   0  0  0  0  0  0  0  0  0  0  0  0
  1  4  1  1  0  0  0
  2  5  1  0  0  0  0
  2  1  1  0  0  0  0
  3  7  1  6  0  0  0
  3 20  1  0  0  0  0
  3  2  1  0  0  0  0
  3  1  1  0  0  0  0
  6  2  1  0  0  0  0
  8  9  1  0  0  0  0
  8 14  1  0  0  0  0
  9 16  1  0  0  0  0
 10  1  1  0  0  0  0
 10  9  2  0  0  0  0
 11 10  1  0  0  0  0
 12 11  2  0  0  0  0
 12 13  1  0  0  0  0
 13  8  2  0  0  0  0
 15 12  1  0  0  0  0
 16 17  1  0  0  0  0
 18 16  1  0  0  0  0
 19 26  2  0  0  0  0
 19 20  1  0  0  0  0
 20 21  2  0  0  0  0
 21 23  1  0  0  0  0
 21 22  1  0  0  0  0
 23 24  1  0  0  0  0
 25 23  2  0  0  0  0
 26 25  1  0  0  0  0
 27 28  1  0  0  0  0
 28 19  1  0  0  0  0
 29 28  2  0  0  0  0
 30 28  2  0  0  0  0
M  END
>  <minimizedAffinity>
-4.84419155

$$$$
