
 OpenBabel03242521583D

 36 38  0  0  0  0  0  0  0  0999 V2000
   46.8660   34.8820   42.1210 C   0  0  0  0  0  0  0  0  0  0  0  0
   48.0630   35.5700   41.9370 C   0  0  0  0  0  0  0  0  0  0  0  0
   48.8730   35.4600   40.8090 C   0  0  0  0  0  0  0  0  0  0  0  0
   48.4660   34.6110   39.8000 C   0  0  0  0  0  0  0  0  0  0  0  0
   47.3030   33.9530   39.9950 C   0  0  0  0  0  0  0  0  0  0  0  0
   46.5480   34.0790   41.0870 N   0  0  0  0  0  0  0  0  0  0  0  0
   48.3170   36.2250   42.7850 H   0  0  0  0  0  0  0  0  0  0  0  0
   49.7610   36.0860   40.8720 H   0  0  0  0  0  0  0  0  0  0  0  0
   49.2160   34.6440   39.0320 H   0  0  0  0  0  0  0  0  0  0  0  0
   44.4520   35.9480   44.7950 C   0  0  0  0  0  0  0  0  0  0  0  0
   45.1400   35.9970   43.5700 C   0  0  0  0  0  0  0  0  0  0  0  0
   46.0550   35.0100   43.3160 C   0  0  0  0  0  0  0  0  0  0  0  0
   46.2440   34.0350   44.2670 N   0  0  0  0  0  0  0  0  0  0  0  0
   45.5700   34.0120   45.4330 C   0  0  0  0  0  0  0  0  0  0  0  0
   44.6760   34.9750   45.6860 N   0  0  0  0  0  0  0  0  0  0  0  0
   43.7490   36.7570   44.9240 H   0  0  0  0  0  0  0  0  0  0  0  0
   45.0150   36.7420   42.8090 H   0  0  0  0  0  0  0  0  0  0  0  0
   45.8040   33.1960   46.1030 H   0  0  0  0  0  0  0  0  0  0  0  0
   46.8770   33.0980   38.9950 O   0  0  0  0  0  0  0  0  0  0  0  0
   48.0560   34.6010   37.1720 O   0  0  0  0  0  0  0  0  0  0  0  0
   47.2850   33.3070   37.3530 P   0  0  1  0  0  0  0  0  0  0  0  0
   48.2430   32.0090   36.8530 O   0  0  0  0  0  0  0  0  0  0  0  0
   49.1910   32.1320   37.0740 H   0  0  0  0  0  0  0  0  0  0  0  0
   45.8400   33.3810   36.4680 O   0  0  0  0  0  0  0  0  0  0  0  0
   44.6290   31.4830   35.8220 C   0  0  0  0  0  0  0  0  0  0  0  0
   44.8130   32.4970   36.7690 C   0  0  0  0  0  0  0  0  0  0  0  0
   44.0010   32.5450   37.8820 C   0  0  0  0  0  0  0  0  0  0  0  0
   44.1780   33.3350   38.5790 H   0  0  0  0  0  0  0  0  0  0  0  0
   43.0020   31.6180   38.0980 C   0  0  0  0  0  0  0  0  0  0  0  0
   42.3890   31.6960   38.9890 H   0  0  0  0  0  0  0  0  0  0  0  0
   42.7890   30.5910   37.1730 C   0  0  0  0  0  0  0  0  0  0  0  0
   43.6190   30.5750   36.0720 C   0  0  0  0  0  0  0  0  0  0  0  0
   45.8410   32.4850   33.7700 H   0  0  0  0  0  0  0  0  0  0  0  0
   45.5710   31.2810   34.3590 S   0  0  0  0  0  0  0  0  0  0  0  0
   46.8590   30.6090   34.7420 O   0  0  0  0  0  0  0  0  0  0  0  0
   44.8640   30.3560   33.4080 O   0  0  0  0  0  0  0  0  0  0  0  0
  1 12  1  0  0  0  0
  2  1  1  0  0  0  0
  2  7  1  0  0  0  0
  3  8  1  0  0  0  0
  3  2  2  0  0  0  0
  4  5  2  0  0  0  0
  4  3  1  0  0  0  0
  5  6  1  0  0  0  0
  6  1  2  0  0  0  0
  9  4  1  0  0  0  0
 10 16  1  0  0  0  0
 10 15  1  0  0  0  0
 11 10  2  0  0  0  0
 12 11  1  0  0  0  0
 12 13  2  0  0  0  0
 13 14  1  0  0  0  0
 14 15  2  0  0  0  0
 14 18  1  0  0  0  0
 17 11  1  0  0  0  0
 19  5  1  0  0  0  0
 21 20  2  6  0  0  0
 21 19  1  0  0  0  0
 22 23  1  0  0  0  0
 22 21  1  0  0  0  0
 24 26  1  0  0  0  0
 24 21  1  0  0  0  0
 25 32  2  0  0  0  0
 25 26  1  0  0  0  0
 26 27  2  0  0  0  0
 27 29  1  0  0  0  0
 27 28  1  0  0  0  0
 29 30  1  0  0  0  0
 31 29  2  0  0  0  0
 32 31  1  0  0  0  0
 33 34  1  0  0  0  0
 34 35  2  0  0  0  0
 34 25  1  0  0  0  0
 36 34  2  0  0  0  0
M  END
>  <minimizedAffinity>
-5.64741516

>  <minimizedRMSD>
0.752237618

$$$$
