
 OpenBabel03252505033D

 37 39  0  0  1  0  0  0  0  0999 V2000
   44.4670   35.8080   44.4630 C   0  0  0  0  0  0  0  0  0  0  0  0
   44.8920   35.6450   43.1420 C   0  0  0  0  0  0  0  0  0  0  0  0
   45.8020   34.6410   42.8490 C   0  0  0  0  0  0  0  0  0  0  0  0
   46.2320   33.8650   43.9000 N   0  0  0  0  0  0  0  0  0  0  0  0
   45.8080   34.0470   45.1510 C   0  0  0  0  0  0  0  0  0  0  0  0
   44.9180   35.0220   45.4530 N   0  0  0  0  0  0  0  0  0  0  0  0
   43.7530   36.6110   44.6250 H   0  0  0  0  0  0  0  0  0  0  0  0
   44.5570   36.2920   42.3720 H   0  0  0  0  0  0  0  0  0  0  0  0
   46.3500   33.1680   46.2180 C   0  0  2  0  0  0  0  0  0  0  0  0
   46.9870   32.0030   45.5460 C   0  0  0  0  0  0  0  0  0  0  0  0
   46.2200   30.7460   45.6250 C   0  0  0  0  0  0  0  0  0  0  0  0
   46.0050   30.4810   47.1030 C   0  0  0  0  0  0  0  0  0  0  0  0
   45.1230   31.4880   47.7250 C   0  0  0  0  0  0  0  0  0  0  0  0
   45.3410   32.8840   47.2280 C   0  0  0  0  0  0  0  0  0  0  0  0
   47.1610   33.7930   46.7010 H   0  0  0  0  0  0  0  0  0  0  0  0
   47.2190   32.2190   44.4650 H   0  0  0  0  0  0  0  0  0  0  0  0
   47.9760   31.8210   46.0180 H   0  0  0  0  0  0  0  0  0  0  0  0
   46.7540   29.9200   45.1680 H   0  0  0  0  0  0  0  0  0  0  0  0
   45.1970   30.9250   45.1940 H   0  0  0  0  0  0  0  0  0  0  0  0
   46.9780   30.4990   47.5920 H   0  0  0  0  0  0  0  0  0  0  0  0
   45.4430   29.5390   47.1580 H   0  0  0  0  0  0  0  0  0  0  0  0
   44.3550   31.4760   48.4530 H   0  0  0  0  0  0  0  0  0  0  0  0
   44.5590   33.9540   47.7390 N   0  0  0  0  0  0  0  0  0  0  0  0
   45.2610   34.3790   48.4100 H   0  0  0  0  0  0  0  0  0  0  0  0
   43.6230   34.4220   47.6860 H   0  0  0  0  0  0  0  0  0  0  0  0
   47.7140   34.4940   41.1750 C   0  0  0  0  0  0  0  0  0  0  0  0
   46.4200   34.3080   41.5820 C   0  0  0  0  0  0  0  0  0  0  0  0
   45.6220   33.7530   40.5920 C   0  0  0  0  0  0  0  0  0  0  0  0
   44.5580   33.5520   40.7880 H   0  0  0  0  0  0  0  0  0  0  0  0
   46.0300   33.4050   39.3290 C   0  0  0  0  0  0  0  0  0  0  0  0
   45.3520   32.9740   38.6070 H   0  0  0  0  0  0  0  0  0  0  0  0
   47.3410   33.6120   38.9760 C   0  0  0  0  0  0  0  0  0  0  0  0
   48.1640   34.1630   39.9310 C   0  0  0  0  0  0  0  0  0  0  0  0
   48.3660   35.6060   43.3800 H   0  0  0  0  0  0  0  0  0  0  0  0
   48.8970   35.2600   42.1920 S   0  0  0  0  0  0  0  0  0  0  0  0
   50.0490   34.3450   42.3770 O   0  0  0  0  0  0  0  0  0  0  0  0
   49.3570   36.5610   41.5290 O   0  0  0  0  0  0  0  0  0  0  0  0
  1  7  1  0  0  0  0
  1  6  1  0  0  0  0
  2  1  2  0  0  0  0
  3  2  1  0  0  0  0
  3  4  2  0  0  0  0
  4  5  1  0  0  0  0
  5  6  2  0  0  0  0
  5  9  1  0  0  0  0
  8  2  1  0  0  0  0
  9 15  1  1  0  0  0
  9 14  1  0  0  0  0
 10 11  1  0  0  0  0
 10 17  1  0  0  0  0
 10  9  1  0  0  0  0
 11 12  1  0  0  0  0
 12 21  1  0  0  0  0
 12 20  1  0  0  0  0
 12 13  1  0  0  0  0
 13 22  1  0  0  0  0
 14 13  2  0  0  0  0
 14 23  1  0  0  0  0
 16 10  1  0  0  0  0
 18 11  1  0  0  0  0
 19 11  1  0  0  0  0
 23 24  1  0  0  0  0
 25 23  1  0  0  0  0
 26 27  1  0  0  0  0
 26 35  1  0  0  0  0
 27  3  1  0  0  0  0
 28 29  1  0  0  0  0
 28 27  2  0  0  0  0
 30 28  1  0  0  0  0
 31 30  1  0  0  0  0
 32 30  2  0  0  0  0
 32 33  1  0  0  0  0
 33 26  2  0  0  0  0
 35 36  2  0  0  0  0
 35 34  1  0  0  0  0
 37 35  2  0  0  0  0
M  END
>  <minimizedAffinity>
-6.96531487

>  <minimizedRMSD>
1.60688853

$$$$
