
 OpenBabel03252508073D

 47 50  0  0  0  0  0  0  0  0999 V2000
   45.1470   35.5560   43.3200 C   0  0  0  0  0  0  0  0  0  0  0  0
   45.5270   34.2240   43.3670 C   0  0  0  0  0  0  0  0  0  0  0  0
   45.4440   33.5260   44.5460 C   0  0  0  0  0  0  0  0  0  0  0  0
   44.9700   34.2150   45.6450 N   0  0  0  0  0  0  0  0  0  0  0  0
   44.6060   35.4930   45.5960 C   0  0  0  0  0  0  0  0  0  0  0  0
   44.7000   36.1530   44.4220 N   0  0  0  0  0  0  0  0  0  0  0  0
   45.1980   36.1400   42.4080 H   0  0  0  0  0  0  0  0  0  0  0  0
   44.2370   36.0050   46.4790 H   0  0  0  0  0  0  0  0  0  0  0  0
   45.7910   32.1720   44.7590 C   0  0  0  0  0  0  0  0  0  0  0  0
   45.4300   31.1280   43.9000 C   0  0  0  0  0  0  0  0  0  0  0  0
   45.7060   29.8070   44.1370 C   0  0  0  0  0  0  0  0  0  0  0  0
   46.3790   29.4450   45.2820 C   0  0  0  0  0  0  0  0  0  0  0  0
   46.7520   30.4870   46.1610 C   0  0  0  0  0  0  0  0  0  0  0  0
   47.4200   30.1440   47.3110 C   0  0  0  0  0  0  0  0  0  0  0  0
   47.8150   31.1070   48.2170 C   0  0  0  0  0  0  0  0  0  0  0  0
   47.5290   32.4560   47.9530 C   0  0  0  0  0  0  0  0  0  0  0  0
   46.8430   32.7650   46.7650 C   0  0  0  0  0  0  0  0  0  0  0  0
   46.4620   31.7860   45.8900 C   0  0  0  0  0  0  0  0  0  0  0  0
   44.8990   31.4140   42.9960 H   0  0  0  0  0  0  0  0  0  0  0  0
   45.3990   29.0410   43.4290 H   0  0  0  0  0  0  0  0  0  0  0  0
   46.6270   28.4210   45.5320 H   0  0  0  0  0  0  0  0  0  0  0  0
   47.6330   29.0970   47.4970 H   0  0  0  0  0  0  0  0  0  0  0  0
   48.3360   30.7630   49.1040 H   0  0  0  0  0  0  0  0  0  0  0  0
   47.8750   33.1380   48.7120 H   0  0  0  0  0  0  0  0  0  0  0  0
   46.7410   33.8290   46.7340 H   0  0  0  0  0  0  0  0  0  0  0  0
   45.9750   33.6600   42.2030 O   0  0  0  0  0  0  0  0  0  0  0  0
   48.1500   32.2270   41.9500 O   0  0  0  0  0  0  0  0  0  0  0  0
   47.6000   33.5930   41.7320 P   0  0  1  0  0  0  0  0  0  0  0  0
   47.7640   33.9300   40.0790 O   0  0  0  0  0  0  0  0  0  0  0  0
   46.9300   32.3620   38.5270 C   0  0  0  0  0  0  0  0  0  0  0  0
   48.0210   32.8860   39.1990 C   0  0  0  0  0  0  0  0  0  0  0  0
   49.2710   32.3620   38.9680 C   0  0  0  0  0  0  0  0  0  0  0  0
   50.1100   32.7640   39.4850 H   0  0  0  0  0  0  0  0  0  0  0  0
   49.4360   31.3210   38.0730 C   0  0  0  0  0  0  0  0  0  0  0  0
   50.4340   30.9220   37.9070 H   0  0  0  0  0  0  0  0  0  0  0  0
   48.3590   30.7820   37.3900 C   0  0  0  0  0  3  0  0  0  0  0  0
   47.1070   31.3140   37.6280 C   0  0  0  0  0  3  0  0  0  0  0  0
   45.2320   34.1990   39.1900 H   0  0  0  0  0  0  0  0  0  0  0  0
   45.2820   32.9180   38.7110 S   0  0  0  0  0  0  0  0  0  0  0  0
   44.5480   31.9780   39.6470 O   0  0  0  0  0  0  0  0  0  0  0  0
   44.5630   32.9000   37.3920 O   0  0  0  0  0  0  0  0  0  0  0  0
   48.4520   34.7420   42.6060 O   0  0  0  0  0  0  0  0  0  0  0  0
   49.6550   35.3310   42.2500 C   0  0  0  0  0  0  0  0  0  0  0  0
   49.3300   36.3660   41.6380 O   0  0  0  0  0  0  0  0  0  0  0  0
   50.7690   34.5420   42.7120 N   0  0  0  0  0  0  0  0  0  0  0  0
   50.9180   34.5350   43.7650 H   0  0  0  0  0  0  0  0  0  0  0  0
   51.4550   33.9740   42.1560 H   0  0  0  0  0  0  0  0  0  0  0  0
  1  2  2  0  0  0  0
  1  6  1  0  0  0  0
  2  3  1  0  0  0  0
  3  9  1  0  0  0  0
  3  4  2  0  0  0  0
  5  4  1  0  0  0  0
  5  8  1  0  0  0  0
  6  5  2  0  0  0  0
  7  1  1  0  0  0  0
  9 18  1  0  0  0  0
 10 11  1  0  0  0  0
 10  9  2  0  0  0  0
 11 12  2  0  0  0  0
 12 21  1  0  0  0  0
 12 13  1  0  0  0  0
 13 14  1  0  0  0  0
 14 22  1  0  0  0  0
 14 15  2  0  0  0  0
 15 23  1  0  0  0  0
 16 15  1  0  0  0  0
 16 24  1  0  0  0  0
 17 16  2  0  0  0  0
 18 13  2  0  0  0  0
 18 17  1  0  0  0  0
 19 10  1  0  0  0  0
 20 11  1  0  0  0  0
 25 17  1  0  0  0  0
 26  2  1  0  0  0  0
 28 27  2  1  0  0  0
 28 26  1  0  0  0  0
 28 42  1  0  0  0  0
 29 28  1  0  0  0  0
 30 39  1  0  0  0  0
 30 31  1  0  0  0  0
 31 29  1  0  0  0  0
 32 31  2  0  0  0  0
 32 33  1  0  0  0  0
 34 32  1  0  0  0  0
 35 34  1  0  0  0  0
 36 37  1  0  0  0  0
 36 34  2  0  0  0  0
 37 30  2  0  0  0  0
 39 38  1  0  0  0  0
 39 40  2  0  0  0  0
 41 39  2  0  0  0  0
 43 42  1  0  0  0  0
 43 45  1  0  0  0  0
 44 43  2  0  0  0  0
 45 46  1  0  0  0  0
 47 45  1  0  0  0  0
M  END
>  <minimizedAffinity>
-5.9516468

>  <minimizedRMSD>
1.60997629

$$$$
