
 OpenBabel03252506073D

 46 50  0  0  0  0  0  0  0  0999 V2000
   40.6090   31.1840   42.9490 Cl  0  0  0  0  0  0  0  0  0  0  0  0
   39.2790   30.7190   41.9370 C   0  0  0  0  0  0  0  0  0  0  0  0
   38.7990   31.5830   40.9770 C   0  0  0  0  0  0  0  0  0  0  0  0
   37.7390   31.1220   40.2240 C   0  0  0  0  0  0  0  0  0  0  0  0
   37.1490   29.8760   40.3740 C   0  0  0  0  0  0  0  0  0  0  0  0
   37.6570   29.0470   41.3390 C   0  0  0  0  0  0  0  0  0  0  0  0
   36.8790   27.4810   41.4930 Cl  0  0  0  0  0  0  0  0  0  0  0  0
   38.7050   29.4600   42.1100 C   0  0  0  0  0  0  0  0  0  0  0  0
   37.3690   31.8180   39.4670 H   0  0  0  0  0  0  0  0  0  0  0  0
   39.0490   28.7550   42.8470 H   0  0  0  0  0  0  0  0  0  0  0  0
   36.0300   29.5730   39.4720 C   0  0  0  0  0  0  0  0  0  0  0  0
   34.7450   29.3820   39.9000 C   0  0  0  0  0  0  0  0  0  0  0  0
   33.6890   29.0990   39.0570 C   0  0  0  0  0  0  0  0  0  0  0  0
   33.9110   28.9940   37.7070 C   0  0  0  0  0  0  0  0  0  0  0  0
   32.8770   28.7180   36.9040 N   0  0  0  0  0  0  0  0  0  0  0  0
   33.0090   28.5980   35.5630 C   0  0  0  0  0  0  0  0  0  0  0  0
   34.2890   28.7790   35.0540 C   0  0  0  0  0  0  0  0  0  0  0  0
   35.3520   29.0630   35.8660 C   0  0  0  0  0  0  0  0  0  0  0  0
   35.1830   29.1780   37.2340 C   0  0  0  0  0  0  0  0  0  0  0  0
   36.2270   29.4620   38.0870 C   0  0  0  0  0  0  0  0  0  0  0  0
   34.5900   29.4680   40.9640 H   0  0  0  0  0  0  0  0  0  0  0  0
   32.6840   28.9530   39.4300 H   0  0  0  0  0  0  0  0  0  0  0  0
   32.1520   28.3770   34.9700 H   0  0  0  0  0  0  0  0  0  0  0  0
   34.4240   28.6900   33.9800 H   0  0  0  0  0  0  0  0  0  0  0  0
   36.3290   29.1980   35.4480 H   0  0  0  0  0  0  0  0  0  0  0  0
   37.2180   29.5990   37.6640 H   0  0  0  0  0  0  0  0  0  0  0  0
   39.0720   35.1500   40.2970 C   0  0  0  0  0  0  0  0  0  0  0  0
   40.4530   35.3790   40.3640 C   0  0  0  0  0  0  0  0  0  0  0  0
   41.3110   34.2980   40.6470 C   0  0  0  0  0  0  0  0  0  0  0  0
   40.6860   33.1220   40.8280 N   0  0  0  0  0  0  0  0  0  0  0  0
   39.3690   32.9030   40.7630 C   0  0  0  0  0  0  0  0  0  0  0  0
   38.5490   33.9210   40.4960 N   0  0  0  0  0  0  0  0  0  0  0  0
   38.4050   35.9790   40.0780 H   0  0  0  0  0  0  0  0  0  0  0  0
   40.8590   36.3450   40.2070 H   0  0  0  0  0  0  0  0  0  0  0  0
   43.5150   33.9910   39.6860 C   0  0  0  0  0  0  0  0  0  0  0  0
   42.7570   34.4250   40.7400 C   0  0  0  0  0  0  0  0  0  0  0  0
   43.3710   34.9640   41.8490 C   0  0  0  0  0  0  0  0  0  0  0  0
   42.8190   35.3180   42.7000 H   0  0  0  0  0  0  0  0  0  0  0  0
   44.7450   35.0940   41.9550 C   0  0  0  0  0  0  0  0  0  0  0  0
   45.2240   35.5150   42.8220 H   0  0  0  0  0  0  0  0  0  0  0  0
   45.5280   34.6660   40.9120 C   0  0  0  0  0  3  0  0  0  0  0  0
   44.9020   34.1320   39.8180 C   0  0  0  0  0  3  0  0  0  0  0  0
   41.9340   32.3000   38.4830 H   0  0  0  0  0  0  0  0  0  0  0  0
   42.8640   33.2940   38.2380 S   0  0  0  0  0  0  0  0  0  0  0  0
   43.9760   32.5770   37.4840 O   0  0  0  0  0  0  0  0  0  0  0  0
   42.3670   34.3450   37.3040 O   0  0  0  0  0  0  0  0  0  0  0  0
  2  8  1  0  0  0  0
  2  1  1  0  0  0  0
  3  2  2  0  0  0  0
  4  5  2  0  0  0  0
  4  3  1  0  0  0  0
  5  6  1  0  0  0  0
  6  7  1  0  0  0  0
  6  8  2  0  0  0  0
  8 10  1  0  0  0  0
  9  4  1  0  0  0  0
 11 12  1  0  0  0  0
 11  5  1  0  0  0  0
 12 21  1  0  0  0  0
 13 22  1  0  0  0  0
 13 12  2  0  0  0  0
 14 13  1  0  0  0  0
 15 14  2  0  0  0  0
 16 15  1  0  0  0  0
 17 16  2  0  0  0  0
 17 18  1  0  0  0  0
 18 19  2  0  0  0  0
 19 14  1  0  0  0  0
 19 20  1  0  0  0  0
 20 11  2  0  0  0  0
 23 16  1  0  0  0  0
 24 17  1  0  0  0  0
 25 18  1  0  0  0  0
 26 20  1  0  0  0  0
 27 28  2  0  0  0  0
 27 32  1  0  0  0  0
 28 29  1  0  0  0  0
 29 36  1  0  0  0  0
 29 30  2  0  0  0  0
 31 30  1  0  0  0  0
 31  3  1  0  0  0  0
 32 31  2  0  0  0  0
 33 27  1  0  0  0  0
 34 28  1  0  0  0  0
 35 42  2  0  0  0  0
 35 36  1  0  0  0  0
 36 37  2  0  0  0  0
 37 39  1  0  0  0  0
 37 38  1  0  0  0  0
 39 40  1  0  0  0  0
 41 39  2  0  0  0  0
 42 41  1  0  0  0  0
 44 43  1  0  0  0  0
 44 35  1  0  0  0  0
 45 44  2  0  0  0  0
 46 44  2  0  0  0  0
M  END
>  <minimizedAffinity>
-7.60896921

$$$$

 OpenBabel03252506073D

 46 50  0  0  0  0  0  0  0  0999 V2000
   38.0950   30.3880   36.9490 Cl  0  0  0  0  0  0  0  0  0  0  0  0
   39.1270   31.3400   37.9660 C   0  0  0  0  0  0  0  0  0  0  0  0
   38.9240   31.3740   39.3290 C   0  0  0  0  0  0  0  0  0  0  0  0
   39.7970   32.1610   40.0510 C   0  0  0  0  0  0  0  0  0  0  0  0
   40.8350   32.8960   39.5000 C   0  0  0  0  0  0  0  0  0  0  0  0
   41.0030   32.8350   38.1420 C   0  0  0  0  0  0  0  0  0  0  0  0
   42.3290   33.7820   37.4890 Cl  0  0  0  0  0  0  0  0  0  0  0  0
   40.1630   32.0700   37.3850 C   0  0  0  0  0  0  0  0  0  0  0  0
   39.6240   32.1780   41.1300 H   0  0  0  0  0  0  0  0  0  0  0  0
   40.3570   32.0720   36.3260 H   0  0  0  0  0  0  0  0  0  0  0  0
   41.6540   33.6720   40.4410 C   0  0  0  0  0  0  0  0  0  0  0  0
   41.4880   35.0120   40.6600 C   0  0  0  0  0  0  0  0  0  0  0  0
   42.2540   35.7450   41.5440 C   0  0  0  0  0  0  0  0  0  0  0  0
   43.2480   35.1220   42.2560 C   0  0  0  0  0  0  0  0  0  0  0  0
   43.9820   35.8480   43.1080 N   0  0  0  0  0  0  0  0  0  0  0  0
   44.9790   35.3120   43.8480 C   0  0  0  0  0  0  0  0  0  0  0  0
   45.2080   33.9530   43.6770 C   0  0  0  0  0  0  0  0  0  0  0  0
   44.4630   33.2020   42.8100 C   0  0  0  0  0  0  0  0  0  0  0  0
   43.4500   33.7810   42.0680 C   0  0  0  0  0  0  0  0  0  0  0  0
   42.6760   33.0620   41.1830 C   0  0  0  0  0  0  0  0  0  0  0  0
   40.7030   35.4840   40.0920 H   0  0  0  0  0  0  0  0  0  0  0  0
   42.0960   36.8060   41.6940 H   0  0  0  0  0  0  0  0  0  0  0  0
   45.5330   35.9360   44.5110 H   0  0  0  0  0  0  0  0  0  0  0  0
   46.0020   33.4960   44.2590 H   0  0  0  0  0  0  0  0  0  0  0  0
   44.6590   32.1550   42.6970 H   0  0  0  0  0  0  0  0  0  0  0  0
   42.8750   32.0000   41.0680 H   0  0  0  0  0  0  0  0  0  0  0  0
   35.7820   30.6000   41.0000 C   0  0  0  0  0  0  0  0  0  0  0  0
   35.8580   29.2120   41.1870 C   0  0  0  0  0  0  0  0  0  0  0  0
   37.0020   28.5250   40.7350 C   0  0  0  0  0  0  0  0  0  0  0  0
   37.9290   29.3050   40.1540 N   0  0  0  0  0  0  0  0  0  0  0  0
   37.8570   30.6280   39.9750 C   0  0  0  0  0  0  0  0  0  0  0  0
   36.7770   31.2870   40.3990 N   0  0  0  0  0  0  0  0  0  0  0  0
   34.9040   31.1360   41.3460 H   0  0  0  0  0  0  0  0  0  0  0  0
   35.0760   28.6770   41.6590 H   0  0  0  0  0  0  0  0  0  0  0  0
   37.7650   26.6200   42.0260 C   0  0  0  0  0  0  0  0  0  0  0  0
   37.1830   27.0880   40.8790 C   0  0  0  0  0  0  0  0  0  0  0  0
   36.7860   26.2040   39.9010 C   0  0  0  0  0  0  0  0  0  0  0  0
   36.3260   26.5240   38.9850 H   0  0  0  0  0  0  0  0  0  0  0  0
   36.9500   24.8340   40.0210 C   0  0  0  0  0  0  0  0  0  0  0  0
   36.6400   24.1430   39.2550 H   0  0  0  0  0  0  0  0  0  0  0  0
   37.5310   24.3390   41.1610 C   0  0  0  0  0  3  0  0  0  0  0  0
   37.9200   25.2310   42.1220 C   0  0  0  0  0  3  0  0  0  0  0  0
   38.9330   28.7850   42.8960 H   0  0  0  0  0  0  0  0  0  0  0  0
   38.3070   27.6290   43.3270 S   0  0  0  0  0  0  0  0  0  0  0  0
   39.3890   26.8980   44.1100 O   0  0  0  0  0  0  0  0  0  0  0  0
   37.2140   27.8850   44.3090 O   0  0  0  0  0  0  0  0  0  0  0  0
  1  2  1  0  0  0  0
  2  3  1  0  0  0  0
  3 31  1  0  0  0  0
  3  4  2  0  0  0  0
  4  9  1  0  0  0  0
  5  4  1  0  0  0  0
  5 11  1  0  0  0  0
  6  5  2  0  0  0  0
  7  6  1  0  0  0  0
  8  2  2  0  0  0  0
  8  6  1  0  0  0  0
 10  8  1  0  0  0  0
 11 12  2  0  0  0  0
 11 20  1  0  0  0  0
 12 13  1  0  0  0  0
 13 22  1  0  0  0  0
 13 14  2  0  0  0  0
 14 15  1  0  0  0  0
 15 16  2  0  0  0  0
 16 23  1  0  0  0  0
 17 16  1  0  0  0  0
 17 24  1  0  0  0  0
 18 17  2  0  0  0  0
 19 14  1  0  0  0  0
 19 18  1  0  0  0  0
 20 19  2  0  0  0  0
 21 12  1  0  0  0  0
 25 18  1  0  0  0  0
 26 20  1  0  0  0  0
 27 28  1  0  0  0  0
 27 33  1  0  0  0  0
 28 34  1  0  0  0  0
 29 36  1  0  0  0  0
 29 28  2  0  0  0  0
 30 29  1  0  0  0  0
 31 30  2  0  0  0  0
 31 32  1  0  0  0  0
 32 27  2  0  0  0  0
 35 42  1  0  0  0  0
 35 44  1  0  0  0  0
 36 35  2  0  0  0  0
 37 39  2  0  0  0  0
 37 36  1  0  0  0  0
 38 37  1  0  0  0  0
 39 41  1  0  0  0  0
 40 39  1  0  0  0  0
 41 42  2  0  0  0  0
 43 44  1  0  0  0  0
 44 45  2  0  0  0  0
 44 46  2  0  0  0  0
M  END
>  <minimizedAffinity>
-7.56340647

$$$$

 OpenBabel03252506073D

 46 50  0  0  0  0  0  0  0  0999 V2000
   39.3230   30.3010   42.7770 Cl  0  0  0  0  0  0  0  0  0  0  0  0
   38.9110   28.7200   42.1940 C   0  0  0  0  0  0  0  0  0  0  0  0
   38.2880   28.5680   40.9740 C   0  0  0  0  0  0  0  0  0  0  0  0
   38.0010   27.2720   40.5990 C   0  0  0  0  0  0  0  0  0  0  0  0
   38.2960   26.1490   41.3570 C   0  0  0  0  0  0  0  0  0  0  0  0
   38.9160   26.3430   42.5630 C   0  0  0  0  0  0  0  0  0  0  0  0
   39.2700   24.8950   43.4880 Cl  0  0  0  0  0  0  0  0  0  0  0  0
   39.2200   27.6090   42.9770 C   0  0  0  0  0  0  0  0  0  0  0  0
   37.5080   27.1660   39.6300 H   0  0  0  0  0  0  0  0  0  0  0  0
   39.7050   27.6830   43.9350 H   0  0  0  0  0  0  0  0  0  0  0  0
   37.9090   24.8540   40.7810 C   0  0  0  0  0  0  0  0  0  0  0  0
   38.7940   23.8390   40.5400 C   0  0  0  0  0  0  0  0  0  0  0  0
   38.4350   22.6210   40.0000 C   0  0  0  0  0  0  0  0  0  0  0  0
   37.1240   22.3850   39.6760 C   0  0  0  0  0  0  0  0  0  0  0  0
   36.7930   21.1980   39.1520 N   0  0  0  0  0  0  0  0  0  0  0  0
   35.5240   20.8850   38.8050 C   0  0  0  0  0  0  0  0  0  0  0  0
   34.5670   21.8680   39.0210 C   0  0  0  0  0  0  0  0  0  0  0  0
   34.8950   23.0840   39.5550 C   0  0  0  0  0  0  0  0  0  0  0  0
   36.2030   23.3730   39.9000 C   0  0  0  0  0  0  0  0  0  0  0  0
   36.5750   24.5850   40.4400 C   0  0  0  0  0  0  0  0  0  0  0  0
   39.8200   24.0430   40.8020 H   0  0  0  0  0  0  0  0  0  0  0  0
   39.1620   21.8390   39.8220 H   0  0  0  0  0  0  0  0  0  0  0  0
   35.3160   19.9240   38.3920 H   0  0  0  0  0  0  0  0  0  0  0  0
   33.5400   21.6440   38.7510 H   0  0  0  0  0  0  0  0  0  0  0  0
   34.1380   23.8260   39.7120 H   0  0  0  0  0  0  0  0  0  0  0  0
   35.8080   25.3370   40.5990 H   0  0  0  0  0  0  0  0  0  0  0  0
   36.6540   30.6070   38.4380 C   0  0  0  0  0  0  0  0  0  0  0  0
   37.3250   31.8340   38.5390 C   0  0  0  0  0  0  0  0  0  0  0  0
   38.3560   31.9710   39.4910 C   0  0  0  0  0  0  0  0  0  0  0  0
   38.5900   30.8700   40.2230 N   0  0  0  0  0  0  0  0  0  0  0  0
   37.9510   29.6990   40.1260 C   0  0  0  0  0  0  0  0  0  0  0  0
   36.9730   29.5600   39.2290 N   0  0  0  0  0  0  0  0  0  0  0  0
   35.8590   30.4940   37.7070 H   0  0  0  0  0  0  0  0  0  0  0  0
   37.0720   32.6530   37.9170 H   0  0  0  0  0  0  0  0  0  0  0  0
   40.4010   33.2420   39.2130 C   0  0  0  0  0  0  0  0  0  0  0  0
   39.1150   33.1980   39.6780 C   0  0  0  0  0  0  0  0  0  0  0  0
   38.5750   34.2990   40.3050 C   0  0  0  0  0  0  0  0  0  0  0  0
   37.5710   34.3120   40.6870 H   0  0  0  0  0  0  0  0  0  0  0  0
   39.2820   35.4750   40.4920 C   0  0  0  0  0  0  0  0  0  0  0  0
   38.8590   36.3350   40.9830 H   0  0  0  0  0  0  0  0  0  0  0  0
   40.5740   35.5450   40.0340 C   0  0  0  0  0  3  0  0  0  0  0  0
   41.0950   34.4420   39.4150 C   0  0  0  0  0  3  0  0  0  0  0  0
   40.7240   30.6850   38.8040 H   0  0  0  0  0  0  0  0  0  0  0  0
   41.1930   31.9250   38.4100 S   0  0  0  0  0  0  0  0  0  0  0  0
   42.6620   31.9050   38.8120 O   0  0  0  0  0  0  0  0  0  0  0  0
   41.1920   32.1090   36.9300 O   0  0  0  0  0  0  0  0  0  0  0  0
  2  1  1  0  0  0  0
  2  8  1  0  0  0  0
  3  2  2  0  0  0  0
  4  3  1  0  0  0  0
  4  5  2  0  0  0  0
  5  6  1  0  0  0  0
  6  8  2  0  0  0  0
  6  7  1  0  0  0  0
  8 10  1  0  0  0  0
  9  4  1  0  0  0  0
 11  5  1  0  0  0  0
 12 11  1  0  0  0  0
 12 21  1  0  0  0  0
 13 12  2  0  0  0  0
 14 19  1  0  0  0  0
 14 13  1  0  0  0  0
 15 14  2  0  0  0  0
 16 17  2  0  0  0  0
 16 15  1  0  0  0  0
 17 18  1  0  0  0  0
 18 25  1  0  0  0  0
 18 19  2  0  0  0  0
 19 20  1  0  0  0  0
 20 26  1  0  0  0  0
 20 11  2  0  0  0  0
 22 13  1  0  0  0  0
 23 16  1  0  0  0  0
 24 17  1  0  0  0  0
 27 28  2  0  0  0  0
 27 32  1  0  0  0  0
 28 29  1  0  0  0  0
 29 36  1  0  0  0  0
 29 30  2  0  0  0  0
 31 30  1  0  0  0  0
 31  3  1  0  0  0  0
 32 31  2  0  0  0  0
 33 27  1  0  0  0  0
 34 28  1  0  0  0  0
 35 42  2  0  0  0  0
 35 36  1  0  0  0  0
 36 37  2  0  0  0  0
 37 39  1  0  0  0  0
 37 38  1  0  0  0  0
 39 40  1  0  0  0  0
 41 39  2  0  0  0  0
 42 41  1  0  0  0  0
 44 43  1  0  0  0  0
 44 45  2  0  0  0  0
 44 35  1  0  0  0  0
 46 44  2  0  0  0  0
M  END
>  <minimizedAffinity>
-7.42991638

$$$$

 OpenBabel03252506073D

 46 50  0  0  0  0  0  0  0  0999 V2000
   40.5310   31.3460   42.9360 Cl  0  0  0  0  0  0  0  0  0  0  0  0
   39.2150   30.8430   41.9260 C   0  0  0  0  0  0  0  0  0  0  0  0
   38.8180   31.6210   40.8600 C   0  0  0  0  0  0  0  0  0  0  0  0
   37.7610   31.1360   40.1180 C   0  0  0  0  0  0  0  0  0  0  0  0
   37.0970   29.9470   40.3760 C   0  0  0  0  0  0  0  0  0  0  0  0
   37.5230   29.2030   41.4440 C   0  0  0  0  0  0  0  0  0  0  0  0
   36.6540   27.7060   41.7340 Cl  0  0  0  0  0  0  0  0  0  0  0  0
   38.5650   29.6420   42.2100 C   0  0  0  0  0  0  0  0  0  0  0  0
   37.4570   31.7630   39.2760 H   0  0  0  0  0  0  0  0  0  0  0  0
   38.8420   29.0050   43.0320 H   0  0  0  0  0  0  0  0  0  0  0  0
   35.9950   29.6050   39.4660 C   0  0  0  0  0  0  0  0  0  0  0  0
   34.7040   29.4180   39.8800 C   0  0  0  0  0  0  0  0  0  0  0  0
   33.6650   29.0990   39.0300 C   0  0  0  0  0  0  0  0  0  0  0  0
   33.9100   28.9520   37.6880 C   0  0  0  0  0  0  0  0  0  0  0  0
   32.8920   28.6410   36.8770 N   0  0  0  0  0  0  0  0  0  0  0  0
   33.0460   28.4790   35.5440 C   0  0  0  0  0  0  0  0  0  0  0  0
   34.3320   28.6540   35.0490 C   0  0  0  0  0  0  0  0  0  0  0  0
   35.3800   28.9720   35.8690 C   0  0  0  0  0  0  0  0  0  0  0  0
   35.1880   29.1300   37.2290 C   0  0  0  0  0  0  0  0  0  0  0  0
   36.2150   29.4500   38.0900 C   0  0  0  0  0  0  0  0  0  0  0  0
   34.5320   29.5370   40.9380 H   0  0  0  0  0  0  0  0  0  0  0  0
   32.6550   28.9570   39.3910 H   0  0  0  0  0  0  0  0  0  0  0  0
   32.2010   28.2320   34.9440 H   0  0  0  0  0  0  0  0  0  0  0  0
   34.4860   28.5300   33.9820 H   0  0  0  0  0  0  0  0  0  0  0  0
   36.3630   29.1010   35.4630 H   0  0  0  0  0  0  0  0  0  0  0  0
   37.2120   29.5810   37.6790 H   0  0  0  0  0  0  0  0  0  0  0  0
   39.3620   35.1790   40.3110 C   0  0  0  0  0  0  0  0  0  0  0  0
   40.7040   35.2340   39.9060 C   0  0  0  0  0  0  0  0  0  0  0  0
   41.4390   34.0350   39.8170 C   0  0  0  0  0  0  0  0  0  0  0  0
   40.7470   32.9310   40.1430 N   0  0  0  0  0  0  0  0  0  0  0  0
   39.4680   32.8780   40.5290 C   0  0  0  0  0  0  0  0  0  0  0  0
   38.7640   34.0080   40.6160 N   0  0  0  0  0  0  0  0  0  0  0  0
   38.7900   36.0990   40.3810 H   0  0  0  0  0  0  0  0  0  0  0  0
   41.1690   36.1550   39.6670 H   0  0  0  0  0  0  0  0  0  0  0  0
   43.7980   34.1190   40.3690 C   0  0  0  0  0  0  0  0  0  0  0  0
   42.8340   33.9790   39.4080 C   0  0  0  0  0  0  0  0  0  0  0  0
   43.1990   33.7910   38.0940 C   0  0  0  0  0  0  0  0  0  0  0  0
   42.4790   33.6760   37.3050 H   0  0  0  0  0  0  0  0  0  0  0  0
   44.5210   33.7340   37.6850 C   0  0  0  0  0  0  0  0  0  0  0  0
   44.8050   33.5870   36.6570 H   0  0  0  0  0  0  0  0  0  0  0  0
   45.5070   33.8720   38.6300 C   0  0  0  0  0  3  0  0  0  0  0  0
   45.1270   34.0590   39.9310 C   0  0  0  0  0  3  0  0  0  0  0  0
   42.2790   33.7850   42.4650 H   0  0  0  0  0  0  0  0  0  0  0  0
   43.4670   34.3620   42.0540 S   0  0  0  0  0  0  0  0  0  0  0  0
   43.2600   35.8480   42.3140 O   0  0  0  0  0  0  0  0  0  0  0  0
   44.6320   33.9720   42.8990 O   0  0  0  0  0  0  0  0  0  0  0  0
  2  8  1  0  0  0  0
  2  1  1  0  0  0  0
  3  2  2  0  0  0  0
  4  5  2  0  0  0  0
  4  3  1  0  0  0  0
  5  6  1  0  0  0  0
  6  7  1  0  0  0  0
  6  8  2  0  0  0  0
  8 10  1  0  0  0  0
  9  4  1  0  0  0  0
 11 12  1  0  0  0  0
 11  5  1  0  0  0  0
 12 21  1  0  0  0  0
 13 22  1  0  0  0  0
 13 12  2  0  0  0  0
 14 13  1  0  0  0  0
 15 14  2  0  0  0  0
 16 15  1  0  0  0  0
 17 16  2  0  0  0  0
 17 18  1  0  0  0  0
 18 19  2  0  0  0  0
 19 14  1  0  0  0  0
 19 20  1  0  0  0  0
 20 11  2  0  0  0  0
 23 16  1  0  0  0  0
 24 17  1  0  0  0  0
 25 18  1  0  0  0  0
 26 20  1  0  0  0  0
 27 33  1  0  0  0  0
 27 32  1  0  0  0  0
 28 27  2  0  0  0  0
 29 28  1  0  0  0  0
 29 30  2  0  0  0  0
 30 31  1  0  0  0  0
 31 32  2  0  0  0  0
 31  3  1  0  0  0  0
 34 28  1  0  0  0  0
 35 44  1  0  0  0  0
 36 29  1  0  0  0  0
 36 35  2  0  0  0  0
 37 36  1  0  0  0  0
 38 37  1  0  0  0  0
 39 37  2  0  0  0  0
 39 41  1  0  0  0  0
 40 39  1  0  0  0  0
 41 42  2  0  0  0  0
 42 35  1  0  0  0  0
 44 45  2  0  0  0  0
 44 43  1  0  0  0  0
 44 46  2  0  0  0  0
M  END
>  <minimizedAffinity>
-7.37833643

$$$$

 OpenBabel03252506073D

 46 50  0  0  0  0  0  0  0  0999 V2000
   39.6260   30.7040   42.9720 Cl  0  0  0  0  0  0  0  0  0  0  0  0
   39.2040   29.1300   42.3820 C   0  0  0  0  0  0  0  0  0  0  0  0
   38.5420   28.9900   41.1820 C   0  0  0  0  0  0  0  0  0  0  0  0
   38.2500   27.6970   40.7990 C   0  0  0  0  0  0  0  0  0  0  0  0
   38.5740   26.5660   41.5320 C   0  0  0  0  0  0  0  0  0  0  0  0
   39.2320   26.7480   42.7190 C   0  0  0  0  0  0  0  0  0  0  0  0
   39.6230   25.2890   43.6130 Cl  0  0  0  0  0  0  0  0  0  0  0  0
   39.5430   28.0100   43.1400 C   0  0  0  0  0  0  0  0  0  0  0  0
   37.7250   27.6020   39.8440 H   0  0  0  0  0  0  0  0  0  0  0  0
   40.0590   28.0730   44.0830 H   0  0  0  0  0  0  0  0  0  0  0  0
   38.1750   25.2770   40.9510 C   0  0  0  0  0  0  0  0  0  0  0  0
   36.9610   24.6890   41.1810 C   0  0  0  0  0  0  0  0  0  0  0  0
   36.5800   23.4790   40.6370 C   0  0  0  0  0  0  0  0  0  0  0  0
   37.4480   22.8040   39.8160 C   0  0  0  0  0  0  0  0  0  0  0  0
   37.0630   21.6310   39.2970 N   0  0  0  0  0  0  0  0  0  0  0  0
   37.8560   20.9020   38.4800 C   0  0  0  0  0  0  0  0  0  0  0  0
   39.1070   21.4370   38.2000 C   0  0  0  0  0  0  0  0  0  0  0  0
   39.5100   22.6350   38.7240 C   0  0  0  0  0  0  0  0  0  0  0  0
   38.6740   23.3560   39.5580 C   0  0  0  0  0  0  0  0  0  0  0  0
   39.0400   24.5650   40.1080 C   0  0  0  0  0  0  0  0  0  0  0  0
   36.2940   25.2340   41.8280 H   0  0  0  0  0  0  0  0  0  0  0  0
   35.6110   23.0410   40.8400 H   0  0  0  0  0  0  0  0  0  0  0  0
   37.5000   19.9740   38.0950 H   0  0  0  0  0  0  0  0  0  0  0  0
   39.7650   20.8740   37.5460 H   0  0  0  0  0  0  0  0  0  0  0  0
   40.4800   23.0260   38.4930 H   0  0  0  0  0  0  0  0  0  0  0  0
   40.0240   24.9620   39.8740 H   0  0  0  0  0  0  0  0  0  0  0  0
   36.7520   31.0880   38.8030 C   0  0  0  0  0  0  0  0  0  0  0  0
   37.4860   32.2830   38.8210 C   0  0  0  0  0  0  0  0  0  0  0  0
   38.6140   32.3770   39.6610 C   0  0  0  0  0  0  0  0  0  0  0  0
   38.8710   31.2700   40.3770 N   0  0  0  0  0  0  0  0  0  0  0  0
   38.1720   30.1310   40.3600 C   0  0  0  0  0  0  0  0  0  0  0  0
   37.1010   30.0320   39.5690 N   0  0  0  0  0  0  0  0  0  0  0  0
   35.8820   31.0080   38.1590 H   0  0  0  0  0  0  0  0  0  0  0  0
   37.2080   33.1080   38.2190 H   0  0  0  0  0  0  0  0  0  0  0  0
   40.6130   33.6010   39.0450 C   0  0  0  0  0  0  0  0  0  0  0  0
   39.4440   33.5680   39.7560 C   0  0  0  0  0  0  0  0  0  0  0  0
   39.0850   34.6460   40.5340 C   0  0  0  0  0  0  0  0  0  0  0  0
   38.1780   34.6650   41.1090 H   0  0  0  0  0  0  0  0  0  0  0  0
   39.8610   35.7860   40.6370 C   0  0  0  0  0  0  0  0  0  0  0  0
   39.5800   36.6290   41.2460 H   0  0  0  0  0  0  0  0  0  0  0  0
   41.0390   35.8460   39.9340 C   0  0  0  0  0  3  0  0  0  0  0  0
   41.3820   34.7660   39.1660 C   0  0  0  0  0  3  0  0  0  0  0  0
   40.1540   31.5240   37.5340 H   0  0  0  0  0  0  0  0  0  0  0  0
   41.1760   32.3110   38.0320 S   0  0  0  0  0  0  0  0  0  0  0  0
   42.0070   31.3460   38.8670 O   0  0  0  0  0  0  0  0  0  0  0  0
   42.1000   32.8130   36.9740 O   0  0  0  0  0  0  0  0  0  0  0  0
  2  1  1  0  0  0  0
  2  8  1  0  0  0  0
  3  2  2  0  0  0  0
  4  3  1  0  0  0  0
  4  5  2  0  0  0  0
  5  6  1  0  0  0  0
  6  8  2  0  0  0  0
  6  7  1  0  0  0  0
  8 10  1  0  0  0  0
  9  4  1  0  0  0  0
 11 12  1  0  0  0  0
 11  5  1  0  0  0  0
 12 21  1  0  0  0  0
 13 22  1  0  0  0  0
 13 12  2  0  0  0  0
 14 13  1  0  0  0  0
 15 14  2  0  0  0  0
 16 15  1  0  0  0  0
 17 16  2  0  0  0  0
 17 18  1  0  0  0  0
 18 19  2  0  0  0  0
 19 14  1  0  0  0  0
 19 20  1  0  0  0  0
 20 11  2  0  0  0  0
 23 16  1  0  0  0  0
 24 17  1  0  0  0  0
 25 18  1  0  0  0  0
 26 20  1  0  0  0  0
 27 28  2  0  0  0  0
 27 32  1  0  0  0  0
 28 29  1  0  0  0  0
 29 36  1  0  0  0  0
 29 30  2  0  0  0  0
 31 30  1  0  0  0  0
 31  3  1  0  0  0  0
 32 31  2  0  0  0  0
 33 27  1  0  0  0  0
 34 28  1  0  0  0  0
 35 42  2  0  0  0  0
 35 36  1  0  0  0  0
 36 37  2  0  0  0  0
 37 39  1  0  0  0  0
 37 38  1  0  0  0  0
 39 40  1  0  0  0  0
 41 39  2  0  0  0  0
 42 41  1  0  0  0  0
 43 44  1  0  0  0  0
 44 45  2  0  0  0  0
 44 35  1  0  0  0  0
 46 44  2  0  0  0  0
M  END
>  <minimizedAffinity>
-7.24872875

$$$$

 OpenBabel03252506073D

 46 50  0  0  0  0  0  0  0  0999 V2000
   36.9400   34.2030   39.0930 Cl  0  0  0  0  0  0  0  0  0  0  0  0
   37.3550   32.7180   39.8860 C   0  0  0  0  0  0  0  0  0  0  0  0
   38.5800   32.5760   40.5020 C   0  0  0  0  0  0  0  0  0  0  0  0
   38.8160   31.3580   41.1050 C   0  0  0  0  0  0  0  0  0  0  0  0
   37.9180   30.3020   41.1250 C   0  0  0  0  0  0  0  0  0  0  0  0
   36.7120   30.4840   40.5010 C   0  0  0  0  0  0  0  0  0  0  0  0
   35.6070   29.1210   40.5520 Cl  0  0  0  0  0  0  0  0  0  0  0  0
   36.4330   31.6730   39.8910 C   0  0  0  0  0  0  0  0  0  0  0  0
   39.7910   31.2590   41.5890 H   0  0  0  0  0  0  0  0  0  0  0  0
   35.4660   31.7410   39.4220 H   0  0  0  0  0  0  0  0  0  0  0  0
   38.3590   29.0850   41.8200 C   0  0  0  0  0  0  0  0  0  0  0  0
   37.9800   28.7640   43.0950 C   0  0  0  0  0  0  0  0  0  0  0  0
   38.3890   27.6220   43.7520 C   0  0  0  0  0  0  0  0  0  0  0  0
   39.2270   26.7400   43.1170 C   0  0  0  0  0  0  0  0  0  0  0  0
   39.6160   25.6370   43.7690 N   0  0  0  0  0  0  0  0  0  0  0  0
   40.4380   24.7180   43.2170 C   0  0  0  0  0  0  0  0  0  0  0  0
   40.8670   24.9760   41.9210 C   0  0  0  0  0  0  0  0  0  0  0  0
   40.4750   26.0990   41.2460 C   0  0  0  0  0  0  0  0  0  0  0  0
   39.6320   27.0210   41.8400 C   0  0  0  0  0  0  0  0  0  0  0  0
   39.2140   28.1650   41.1960 C   0  0  0  0  0  0  0  0  0  0  0  0
   37.3220   29.4690   43.5770 H   0  0  0  0  0  0  0  0  0  0  0  0
   38.0700   27.3980   44.7620 H   0  0  0  0  0  0  0  0  0  0  0  0
   40.7170   23.8570   43.7810 H   0  0  0  0  0  0  0  0  0  0  0  0
   41.5280   24.2540   41.4520 H   0  0  0  0  0  0  0  0  0  0  0  0
   40.8190   26.2760   40.2470 H   0  0  0  0  0  0  0  0  0  0  0  0
   39.5630   28.3450   40.1830 H   0  0  0  0  0  0  0  0  0  0  0  0
   40.1140   35.8470   40.9600 C   0  0  0  0  0  0  0  0  0  0  0  0
   41.4390   35.6330   40.5560 C   0  0  0  0  0  0  0  0  0  0  0  0
   41.8200   34.3490   40.1180 C   0  0  0  0  0  0  0  0  0  0  0  0
   40.8330   33.4370   40.1370 N   0  0  0  0  0  0  0  0  0  0  0  0
   39.5690   33.6410   40.5220 C   0  0  0  0  0  0  0  0  0  0  0  0
   39.2000   34.8540   40.9390 N   0  0  0  0  0  0  0  0  0  0  0  0
   39.8140   36.8340   41.2980 H   0  0  0  0  0  0  0  0  0  0  0  0
   42.1530   36.4150   40.5740 H   0  0  0  0  0  0  0  0  0  0  0  0
   44.1010   33.7050   40.6270 C   0  0  0  0  0  0  0  0  0  0  0  0
   43.1670   34.0190   39.6770 C   0  0  0  0  0  0  0  0  0  0  0  0
   43.5160   34.0150   38.3450 C   0  0  0  0  0  0  0  0  0  0  0  0
   42.8180   34.2540   37.5650 H   0  0  0  0  0  0  0  0  0  0  0  0
   44.7910   33.7030   37.9070 C   0  0  0  0  0  0  0  0  0  0  0  0
   45.0640   33.7010   36.8650 H   0  0  0  0  0  0  0  0  0  0  0  0
   45.7470   33.3850   38.8390 C   0  0  0  0  0  3  0  0  0  0  0  0
   45.3840   33.3940   40.1590 C   0  0  0  0  0  3  0  0  0  0  0  0
   43.2230   34.8470   42.8020 H   0  0  0  0  0  0  0  0  0  0  0  0
   43.7870   33.6750   42.3320 S   0  0  0  0  0  0  0  0  0  0  0  0
   45.1080   33.5780   43.0830 O   0  0  0  0  0  0  0  0  0  0  0  0
   43.0210   32.4570   42.7240 O   0  0  0  0  0  0  0  0  0  0  0  0
  1  2  1  0  0  0  0
  2  8  2  0  0  0  0
  2  3  1  0  0  0  0
  3 31  1  0  0  0  0
  3  4  2  0  0  0  0
  4  5  1  0  0  0  0
  4  9  1  0  0  0  0
  5 11  1  0  0  0  0
  6  7  1  0  0  0  0
  6  5  2  0  0  0  0
  8  6  1  0  0  0  0
 10  8  1  0  0  0  0
 11 12  1  0  0  0  0
 12 21  1  0  0  0  0
 12 13  2  0  0  0  0
 13 22  1  0  0  0  0
 14 13  1  0  0  0  0
 14 15  1  0  0  0  0
 16 15  2  0  0  0  0
 16 23  1  0  0  0  0
 17 16  1  0  0  0  0
 18 19  1  0  0  0  0
 18 17  2  0  0  0  0
 19 14  2  0  0  0  0
 20 11  2  0  0  0  0
 20 19  1  0  0  0  0
 24 17  1  0  0  0  0
 25 18  1  0  0  0  0
 26 20  1  0  0  0  0
 27 33  1  0  0  0  0
 28 34  1  0  0  0  0
 28 27  2  0  0  0  0
 29 30  2  0  0  0  0
 29 28  1  0  0  0  0
 30 31  1  0  0  0  0
 31 32  2  0  0  0  0
 32 27  1  0  0  0  0
 35 44  1  0  0  0  0
 36 29  1  0  0  0  0
 36 35  2  0  0  0  0
 37 36  1  0  0  0  0
 38 37  1  0  0  0  0
 39 37  2  0  0  0  0
 39 41  1  0  0  0  0
 40 39  1  0  0  0  0
 41 42  2  0  0  0  0
 42 35  1  0  0  0  0
 44 46  2  0  0  0  0
 44 43  1  0  0  0  0
 44 45  2  0  0  0  0
M  END
>  <minimizedAffinity>
-7.19694614

$$$$

 OpenBabel03252506073D

 46 50  0  0  0  0  0  0  0  0999 V2000
   38.2370   30.3560   37.3180 Cl  0  0  0  0  0  0  0  0  0  0  0  0
   39.3230   31.3190   38.2670 C   0  0  0  0  0  0  0  0  0  0  0  0
   39.3150   31.2290   39.6420 C   0  0  0  0  0  0  0  0  0  0  0  0
   40.2150   32.0360   40.3070 C   0  0  0  0  0  0  0  0  0  0  0  0
   41.1010   32.9040   39.6880 C   0  0  0  0  0  0  0  0  0  0  0  0
   41.0780   32.9640   38.3200 C   0  0  0  0  0  0  0  0  0  0  0  0
   42.2160   34.0760   37.5800 Cl  0  0  0  0  0  0  0  0  0  0  0  0
   40.2040   32.1840   37.6180 C   0  0  0  0  0  0  0  0  0  0  0  0
   40.1970   31.9540   41.3970 H   0  0  0  0  0  0  0  0  0  0  0  0
   40.2440   32.2860   36.5470 H   0  0  0  0  0  0  0  0  0  0  0  0
   41.9810   33.6780   40.5750 C   0  0  0  0  0  0  0  0  0  0  0  0
   41.7280   34.9690   40.9510 C   0  0  0  0  0  0  0  0  0  0  0  0
   42.5500   35.6990   41.7850 C   0  0  0  0  0  0  0  0  0  0  0  0
   43.6950   35.1260   42.2790 C   0  0  0  0  0  0  0  0  0  0  0  0
   44.4810   35.8480   43.0850 N   0  0  0  0  0  0  0  0  0  0  0  0
   45.6250   35.3590   43.6140 C   0  0  0  0  0  0  0  0  0  0  0  0
   45.9490   34.0510   43.2760 C   0  0  0  0  0  0  0  0  0  0  0  0
   45.1510   33.3040   42.4530 C   0  0  0  0  0  0  0  0  0  0  0  0
   43.9870   33.8350   41.9280 C   0  0  0  0  0  0  0  0  0  0  0  0
   43.1560   33.1170   41.0950 C   0  0  0  0  0  0  0  0  0  0  0  0
   40.8250   35.4020   40.5530 H   0  0  0  0  0  0  0  0  0  0  0  0
   42.3200   36.7200   42.0630 H   0  0  0  0  0  0  0  0  0  0  0  0
   46.2150   35.9780   44.2510 H   0  0  0  0  0  0  0  0  0  0  0  0
   46.8620   33.6320   43.6870 H   0  0  0  0  0  0  0  0  0  0  0  0
   45.4230   32.2970   42.2080 H   0  0  0  0  0  0  0  0  0  0  0  0
   43.4310   32.0960   40.8460 H   0  0  0  0  0  0  0  0  0  0  0  0
   36.2910   29.8660   41.1460 C   0  0  0  0  0  0  0  0  0  0  0  0
   36.7340   28.6580   41.7050 C   0  0  0  0  0  0  0  0  0  0  0  0
   38.0900   28.3000   41.5670 C   0  0  0  0  0  0  0  0  0  0  0  0
   38.8360   29.1880   40.8910 N   0  0  0  0  0  0  0  0  0  0  0  0
   38.4150   30.3400   40.3580 C   0  0  0  0  0  0  0  0  0  0  0  0
   37.1320   30.6880   40.4830 N   0  0  0  0  0  0  0  0  0  0  0  0
   35.2480   30.1490   41.2490 H   0  0  0  0  0  0  0  0  0  0  0  0
   36.0700   28.0170   42.2250 H   0  0  0  0  0  0  0  0  0  0  0  0
   38.5940   25.9400   41.3420 C   0  0  0  0  0  0  0  0  0  0  0  0
   38.6530   27.0720   42.1080 C   0  0  0  0  0  0  0  0  0  0  0  0
   39.2350   27.0260   43.3550 C   0  0  0  0  0  0  0  0  0  0  0  0
   39.3050   27.8880   43.9920 H   0  0  0  0  0  0  0  0  0  0  0  0
   39.7760   25.8680   43.8860 C   0  0  0  0  0  0  0  0  0  0  0  0
   40.2310   25.8330   44.8610 H   0  0  0  0  0  0  0  0  0  0  0  0
   39.7300   24.7180   43.1380 C   0  0  0  0  0  3  0  0  0  0  0  0
   39.1470   24.7800   41.9010 C   0  0  0  0  0  3  0  0  0  0  0  0
   37.5990   27.1140   39.2350 H   0  0  0  0  0  0  0  0  0  0  0  0
   37.8870   25.8680   39.7600 S   0  0  0  0  0  0  0  0  0  0  0  0
   36.5280   25.1860   39.8500 O   0  0  0  0  0  0  0  0  0  0  0  0
   38.6950   25.0160   38.8410 O   0  0  0  0  0  0  0  0  0  0  0  0
  1  2  1  0  0  0  0
  2  3  1  0  0  0  0
  3  4  2  0  0  0  0
  3 31  1  0  0  0  0
  4  9  1  0  0  0  0
  5  4  1  0  0  0  0
  5 11  1  0  0  0  0
  6  5  2  0  0  0  0
  7  6  1  0  0  0  0
  8  2  2  0  0  0  0
  8  6  1  0  0  0  0
 10  8  1  0  0  0  0
 11 12  2  0  0  0  0
 11 20  1  0  0  0  0
 12 13  1  0  0  0  0
 13 22  1  0  0  0  0
 13 14  2  0  0  0  0
 14 15  1  0  0  0  0
 15 16  2  0  0  0  0
 16 23  1  0  0  0  0
 17 16  1  0  0  0  0
 17 24  1  0  0  0  0
 18 17  2  0  0  0  0
 19 14  1  0  0  0  0
 19 18  1  0  0  0  0
 20 19  2  0  0  0  0
 21 12  1  0  0  0  0
 25 18  1  0  0  0  0
 26 20  1  0  0  0  0
 27 33  1  0  0  0  0
 27 28  1  0  0  0  0
 28 34  1  0  0  0  0
 29 28  2  0  0  0  0
 29 36  1  0  0  0  0
 30 29  1  0  0  0  0
 31 32  1  0  0  0  0
 31 30  2  0  0  0  0
 32 27  2  0  0  0  0
 35 42  2  0  0  0  0
 35 36  1  0  0  0  0
 36 37  2  0  0  0  0
 37 39  1  0  0  0  0
 37 38  1  0  0  0  0
 39 40  1  0  0  0  0
 41 39  2  0  0  0  0
 42 41  1  0  0  0  0
 43 44  1  0  0  0  0
 44 45  2  0  0  0  0
 44 35  1  0  0  0  0
 46 44  2  0  0  0  0
M  END
>  <minimizedAffinity>
-7.12913752

$$$$

 OpenBabel03252506073D

 46 50  0  0  0  0  0  0  0  0999 V2000
   36.8870   26.1330   38.6710 Cl  0  0  0  0  0  0  0  0  0  0  0  0
   35.5470   27.1210   38.1860 C   0  0  0  0  0  0  0  0  0  0  0  0
   35.3990   28.3930   38.6960 C   0  0  0  0  0  0  0  0  0  0  0  0
   34.3010   29.1000   38.2510 C   0  0  0  0  0  0  0  0  0  0  0  0
   33.3690   28.6170   37.3460 C   0  0  0  0  0  0  0  0  0  0  0  0
   33.5520   27.3490   36.8620 C   0  0  0  0  0  0  0  0  0  0  0  0
   32.3470   26.7800   35.7200 Cl  0  0  0  0  0  0  0  0  0  0  0  0
   34.6240   26.6100   37.2750 C   0  0  0  0  0  0  0  0  0  0  0  0
   34.1970   30.1060   38.6630 H   0  0  0  0  0  0  0  0  0  0  0  0
   34.7020   25.6230   36.8520 H   0  0  0  0  0  0  0  0  0  0  0  0
   32.2690   29.5270   36.9960 C   0  0  0  0  0  0  0  0  0  0  0  0
   31.2470   29.8400   37.8510 C   0  0  0  0  0  0  0  0  0  0  0  0
   30.2130   30.6950   37.5280 C   0  0  0  0  0  0  0  0  0  0  0  0
   30.1800   31.2780   36.2870 C   0  0  0  0  0  0  0  0  0  0  0  0
   29.1690   32.1040   35.9900 N   0  0  0  0  0  0  0  0  0  0  0  0
   29.0610   32.7200   34.7910 C   0  0  0  0  0  0  0  0  0  0  0  0
   30.0640   32.4490   33.8690 C   0  0  0  0  0  0  0  0  0  0  0  0
   31.1020   31.6070   34.1620 C   0  0  0  0  0  0  0  0  0  0  0  0
   31.1820   30.9930   35.3990 C   0  0  0  0  0  0  0  0  0  0  0  0
   32.2090   30.1380   35.7350 C   0  0  0  0  0  0  0  0  0  0  0  0
   31.2910   29.3720   38.8210 H   0  0  0  0  0  0  0  0  0  0  0  0
   29.4190   30.9210   38.2290 H   0  0  0  0  0  0  0  0  0  0  0  0
   28.2350   33.3680   34.6070 H   0  0  0  0  0  0  0  0  0  0  0  0
   30.0040   32.9310   32.8980 H   0  0  0  0  0  0  0  0  0  0  0  0
   31.8630   31.4150   33.4340 H   0  0  0  0  0  0  0  0  0  0  0  0
   32.9820   29.9430   34.9970 H   0  0  0  0  0  0  0  0  0  0  0  0
   36.9890   29.3140   41.8400 C   0  0  0  0  0  0  0  0  0  0  0  0
   38.1130   30.0430   41.4240 C   0  0  0  0  0  0  0  0  0  0  0  0
   38.3350   30.2240   40.0440 C   0  0  0  0  0  0  0  0  0  0  0  0
   37.4100   29.6590   39.2510 N   0  0  0  0  0  0  0  0  0  0  0  0
   36.3380   28.9640   39.6470 C   0  0  0  0  0  0  0  0  0  0  0  0
   36.1200   28.7860   40.9520 N   0  0  0  0  0  0  0  0  0  0  0  0
   36.8120   29.1710   42.9020 H   0  0  0  0  0  0  0  0  0  0  0  0
   38.7920   30.4550   42.1240 H   0  0  0  0  0  0  0  0  0  0  0  0
   39.4150   32.3290   39.5170 C   0  0  0  0  0  0  0  0  0  0  0  0
   39.4670   30.9620   39.5050 C   0  0  0  0  0  0  0  0  0  0  0  0
   40.5730   30.3230   38.9910 C   0  0  0  0  0  0  0  0  0  0  0  0
   40.6600   29.2530   38.9600 H   0  0  0  0  0  0  0  0  0  0  0  0
   41.6600   31.0080   38.4740 C   0  0  0  0  0  0  0  0  0  0  0  0
   42.5240   30.5080   38.0720 H   0  0  0  0  0  0  0  0  0  0  0  0
   41.6320   32.3800   38.4740 C   0  0  0  0  0  3  0  0  0  0  0  0
   40.5250   32.9990   38.9870 C   0  0  0  0  0  3  0  0  0  0  0  0
   37.5120   32.6930   41.2660 H   0  0  0  0  0  0  0  0  0  0  0  0
   38.0800   33.2490   40.1340 S   0  0  0  0  0  0  0  0  0  0  0  0
   36.9500   33.2360   39.1140 O   0  0  0  0  0  0  0  0  0  0  0  0
   38.4420   34.6860   40.3050 O   0  0  0  0  0  0  0  0  0  0  0  0
  2  1  1  0  0  0  0
  2  3  1  0  0  0  0
  3 31  1  0  0  0  0
  4  9  1  0  0  0  0
  4  3  2  0  0  0  0
  5  4  1  0  0  0  0
  6  8  1  0  0  0  0
  6  5  2  0  0  0  0
  7  6  1  0  0  0  0
  8  2  2  0  0  0  0
 10  8  1  0  0  0  0
 11  5  1  0  0  0  0
 11 12  1  0  0  0  0
 12 21  1  0  0  0  0
 13 12  2  0  0  0  0
 13 22  1  0  0  0  0
 14 13  1  0  0  0  0
 15 14  1  0  0  0  0
 16 15  2  0  0  0  0
 17 18  2  0  0  0  0
 17 16  1  0  0  0  0
 18 19  1  0  0  0  0
 19 20  1  0  0  0  0
 19 14  2  0  0  0  0
 20 11  2  0  0  0  0
 23 16  1  0  0  0  0
 24 17  1  0  0  0  0
 25 18  1  0  0  0  0
 26 20  1  0  0  0  0
 27 33  1  0  0  0  0
 28 27  1  0  0  0  0
 28 34  1  0  0  0  0
 29 28  2  0  0  0  0
 30 31  2  0  0  0  0
 30 29  1  0  0  0  0
 31 32  1  0  0  0  0
 32 27  2  0  0  0  0
 35 44  1  0  0  0  0
 36 35  1  0  0  0  0
 36 29  1  0  0  0  0
 37 36  2  0  0  0  0
 38 37  1  0  0  0  0
 39 41  2  0  0  0  0
 39 37  1  0  0  0  0
 40 39  1  0  0  0  0
 41 42  1  0  0  0  0
 42 35  2  0  0  0  0
 44 46  2  0  0  0  0
 44 43  1  0  0  0  0
 45 44  2  0  0  0  0
M  END
>  <minimizedAffinity>
-7.0640645

$$$$

 OpenBabel03252506073D

 46 50  0  0  0  0  0  0  0  0999 V2000
   36.8120   26.2110   38.6460 Cl  0  0  0  0  0  0  0  0  0  0  0  0
   35.4650   27.1800   38.1430 C   0  0  0  0  0  0  0  0  0  0  0  0
   35.2240   28.4000   38.7360 C   0  0  0  0  0  0  0  0  0  0  0  0
   34.1290   29.0950   38.2670 C   0  0  0  0  0  0  0  0  0  0  0  0
   33.2830   28.6490   37.2630 C   0  0  0  0  0  0  0  0  0  0  0  0
   33.5570   27.4310   36.6990 C   0  0  0  0  0  0  0  0  0  0  0  0
   32.4610   26.9070   35.4330 Cl  0  0  0  0  0  0  0  0  0  0  0  0
   34.6310   26.7060   37.1310 C   0  0  0  0  0  0  0  0  0  0  0  0
   33.9500   30.0610   38.7470 H   0  0  0  0  0  0  0  0  0  0  0  0
   34.7820   25.7600   36.6410 H   0  0  0  0  0  0  0  0  0  0  0  0
   32.1700   29.5390   36.9060 C   0  0  0  0  0  0  0  0  0  0  0  0
   31.1300   29.8240   37.7480 C   0  0  0  0  0  0  0  0  0  0  0  0
   30.0830   30.6600   37.4180 C   0  0  0  0  0  0  0  0  0  0  0  0
   30.0550   31.2530   36.1810 C   0  0  0  0  0  0  0  0  0  0  0  0
   29.0320   32.0600   35.8770 N   0  0  0  0  0  0  0  0  0  0  0  0
   28.9280   32.6830   34.6810 C   0  0  0  0  0  0  0  0  0  0  0  0
   29.9490   32.4410   33.7710 C   0  0  0  0  0  0  0  0  0  0  0  0
   31.0000   31.6180   34.0730 C   0  0  0  0  0  0  0  0  0  0  0  0
   31.0760   30.9950   35.3050 C   0  0  0  0  0  0  0  0  0  0  0  0
   32.1160   30.1590   35.6490 C   0  0  0  0  0  0  0  0  0  0  0  0
   31.1700   29.3490   38.7150 H   0  0  0  0  0  0  0  0  0  0  0  0
   29.2750   30.8640   38.1090 H   0  0  0  0  0  0  0  0  0  0  0  0
   28.0910   33.3160   34.4910 H   0  0  0  0  0  0  0  0  0  0  0  0
   29.8920   32.9290   32.8030 H   0  0  0  0  0  0  0  0  0  0  0  0
   31.7750   31.4480   33.3540 H   0  0  0  0  0  0  0  0  0  0  0  0
   32.9020   29.9860   34.9200 H   0  0  0  0  0  0  0  0  0  0  0  0
   36.8430   28.8200   41.9710 C   0  0  0  0  0  0  0  0  0  0  0  0
   37.6630   29.9400   41.7710 C   0  0  0  0  0  0  0  0  0  0  0  0
   37.6650   30.5660   40.5080 C   0  0  0  0  0  0  0  0  0  0  0  0
   36.8500   30.0000   39.6020 N   0  0  0  0  0  0  0  0  0  0  0  0
   36.0690   28.9320   39.7930 C   0  0  0  0  0  0  0  0  0  0  0  0
   36.0610   28.3310   40.9850 N   0  0  0  0  0  0  0  0  0  0  0  0
   36.8370   28.3330   42.9410 H   0  0  0  0  0  0  0  0  0  0  0  0
   38.2750   30.3200   42.5470 H   0  0  0  0  0  0  0  0  0  0  0  0
   39.6820   31.5370   39.5790 C   0  0  0  0  0  0  0  0  0  0  0  0
   38.4750   31.7330   40.1940 C   0  0  0  0  0  0  0  0  0  0  0  0
   38.0600   33.0110   40.4960 C   0  0  0  0  0  0  0  0  0  0  0  0
   37.1220   33.2140   40.9780 H   0  0  0  0  0  0  0  0  0  0  0  0
   38.8170   34.1320   40.2050 C   0  0  0  0  0  0  0  0  0  0  0  0
   38.4920   35.1310   40.4430 H   0  0  0  0  0  0  0  0  0  0  0  0
   40.0310   33.9630   39.5880 C   0  0  0  0  0  3  0  0  0  0  0  0
   40.4300   32.6870   39.2950 C   0  0  0  0  0  3  0  0  0  0  0  0
   40.1510   29.0320   40.1390 H   0  0  0  0  0  0  0  0  0  0  0  0
   40.3160   29.9820   39.1470 S   0  0  0  0  0  0  0  0  0  0  0  0
   41.8270   30.0850   38.9870 O   0  0  0  0  0  0  0  0  0  0  0  0
   39.8070   29.5360   37.8180 O   0  0  0  0  0  0  0  0  0  0  0  0
  2  1  1  0  0  0  0
  2  3  1  0  0  0  0
  3 31  1  0  0  0  0
  4  3  2  0  0  0  0
  4  9  1  0  0  0  0
  5  4  1  0  0  0  0
  6  8  1  0  0  0  0
  6  5  2  0  0  0  0
  7  6  1  0  0  0  0
  8  2  2  0  0  0  0
 10  8  1  0  0  0  0
 11  5  1  0  0  0  0
 11 12  1  0  0  0  0
 12 21  1  0  0  0  0
 13 12  2  0  0  0  0
 13 22  1  0  0  0  0
 14 13  1  0  0  0  0
 15 14  1  0  0  0  0
 16 15  2  0  0  0  0
 17 18  2  0  0  0  0
 17 16  1  0  0  0  0
 18 19  1  0  0  0  0
 19 20  1  0  0  0  0
 19 14  2  0  0  0  0
 20 11  2  0  0  0  0
 23 16  1  0  0  0  0
 24 17  1  0  0  0  0
 25 18  1  0  0  0  0
 26 20  1  0  0  0  0
 27 33  1  0  0  0  0
 28 27  1  0  0  0  0
 28 34  1  0  0  0  0
 29 28  2  0  0  0  0
 30 31  2  0  0  0  0
 30 29  1  0  0  0  0
 31 32  1  0  0  0  0
 32 27  2  0  0  0  0
 35 36  1  0  0  0  0
 36 37  2  0  0  0  0
 36 29  1  0  0  0  0
 37 38  1  0  0  0  0
 39 40  1  0  0  0  0
 39 37  1  0  0  0  0
 41 39  2  0  0  0  0
 42 35  2  0  0  0  0
 42 41  1  0  0  0  0
 44 35  1  0  0  0  0
 44 43  1  0  0  0  0
 45 44  2  0  0  0  0
 46 44  2  0  0  0  0
M  END
>  <minimizedAffinity>
-7.03114462

$$$$
