
 OpenBabel03252505433D

 45 48  0  0  1  0  0  0  0  0999 V2000
   42.7680   34.7940   40.5550 C   0  0  0  0  0  0  0  0  0  0  0  0
   42.5430   35.3720   39.3220 C   0  0  0  0  0  0  0  0  0  0  0  0
   41.3260   35.3000   38.6870 C   0  0  0  0  0  0  0  0  0  0  0  0
   40.3310   34.6360   39.3080 N   0  0  0  0  0  0  0  0  0  0  0  0
   40.5450   34.0610   40.5270 C   0  0  0  0  0  0  0  0  0  0  0  0
   41.7400   34.1380   41.1430 N   0  0  0  0  0  0  0  0  0  0  0  0
   43.3740   35.8940   38.8650 H   0  0  0  0  0  0  0  0  0  0  0  0
   41.2200   35.7750   37.7220 H   0  0  0  0  0  0  0  0  0  0  0  0
   44.1200   34.6240   42.6200 C   0  0  1  0  0  0  0  0  0  0  0  0
   44.3770   36.0850   42.1130 C   0  0  0  0  0  0  0  0  0  0  0  0
   44.1330   34.8800   41.2100 C   0  0  2  0  0  0  0  0  0  0  0  0
   43.1420   34.5210   43.1810 H   0  0  0  0  0  0  0  0  0  0  0  0
   43.5530   36.7870   42.3030 H   0  0  0  0  0  0  0  0  0  0  0  0
   45.4050   36.4520   42.1870 H   0  0  0  0  0  0  0  0  0  0  0  0
   44.9200   34.7040   40.4820 H   0  0  0  0  0  0  0  0  0  0  0  0
   45.2590   34.0500   43.3680 C   0  0  0  0  0  0  0  0  0  0  0  0
   46.4930   33.9600   42.7070 C   0  0  0  0  0  0  0  0  0  0  0  0
   47.5790   33.4270   43.3990 C   0  0  0  0  0  0  0  0  0  0  0  0
   47.3840   33.0230   44.6770 N   0  0  0  0  0  0  0  0  0  0  0  0
   46.1980   33.1220   45.2780 C   0  0  0  0  0  0  0  0  0  0  0  0
   45.1610   33.6360   44.6030 N   0  0  0  0  0  0  0  0  0  0  0  0
   46.6220   34.2950   41.6750 H   0  0  0  0  0  0  0  0  0  0  0  0
   48.5660   33.3300   42.9410 H   0  0  0  0  0  0  0  0  0  0  0  0
   46.1840   32.6250   46.6970 C   0  0  0  0  0  0  0  0  0  0  0  0
   45.1920   33.2460   47.4390 F   0  0  0  0  0  0  0  0  0  0  0  0
   47.3980   32.9860   47.3170 F   0  0  0  0  0  0  0  0  0  0  0  0
   46.1300   31.2580   46.7120 F   0  0  0  0  0  0  0  0  0  0  0  0
   39.4850   33.3100   41.2470 C   0  0  0  0  0  0  0  0  0  0  0  0
   39.1200   33.8120   42.1500 H   0  0  0  0  0  0  0  0  0  0  0  0
   39.9080   32.3300   41.6110 H   0  0  0  0  0  0  0  0  0  0  0  0
   38.3650   32.9330   40.3110 C   0  0  0  0  0  0  0  0  0  0  0  0
   38.6660   33.2940   39.2780 H   0  0  0  0  0  0  0  0  0  0  0  0
   37.4640   33.5100   40.5610 H   0  0  0  0  0  0  0  0  0  0  0  0
   38.3490   30.8020   39.0660 C   0  0  0  0  0  0  0  0  0  0  0  0
   38.1000   31.5000   40.2230 C   0  0  0  0  0  0  0  0  0  0  0  0
   37.5790   30.8030   41.3080 C   0  0  0  0  0  0  0  0  0  0  0  0
   37.3910   31.3780   42.2130 H   0  0  0  0  0  0  0  0  0  0  0  0
   37.2850   29.4400   41.3260 C   0  0  0  0  0  0  0  0  0  0  0  0
   36.8860   29.0080   42.2210 H   0  0  0  0  0  0  0  0  0  0  0  0
   37.5440   28.7510   40.1440 C   0  0  0  0  0  0  0  0  0  0  0  0
   38.0600   29.4360   39.0640 C   0  0  0  0  0  0  0  0  0  0  0  0
   38.8770   30.5150   36.5930 H   0  0  0  0  0  0  0  0  0  0  0  0
   39.0000   31.4720   37.5970 S   0  0  0  0  0  0  0  0  0  0  0  0
   38.1970   32.6560   37.1160 O   0  0  0  0  0  0  0  0  0  0  0  0
   40.4610   31.7820   37.6650 O   0  0  0  0  0  0  0  0  0  0  0  0
  1  6  1  0  0  0  0
  1 11  1  0  0  0  0
  2  1  2  0  0  0  0
  3  4  2  0  0  0  0
  3  2  1  0  0  0  0
  4  5  1  0  0  0  0
  5  6  2  0  0  0  0
  5 28  1  0  0  0  0
  7  2  1  0  0  0  0
  8  3  1  0  0  0  0
  9 12  1  1  0  0  0
  9 16  1  0  0  0  0
 10 14  1  0  0  0  0
 10 13  1  0  0  0  0
 10  9  1  0  0  0  0
 11 15  1  6  0  0  0
 11 10  1  0  0  0  0
 11  9  1  0  0  0  0
 16 21  1  0  0  0  0
 17 16  2  0  0  0  0
 17 18  1  0  0  0  0
 18 19  2  0  0  0  0
 19 20  1  0  0  0  0
 20 24  1  0  0  0  0
 21 20  2  0  0  0  0
 22 17  1  0  0  0  0
 23 18  1  0  0  0  0
 24 27  1  0  0  0  0
 24 26  1  0  0  0  0
 24 25  1  0  0  0  0
 28 30  1  0  0  0  0
 28 29  1  0  0  0  0
 31 33  1  0  0  0  0
 31 28  1  0  0  0  0
 32 31  1  0  0  0  0
 34 35  1  0  0  0  0
 35 31  1  0  0  0  0
 35 36  2  0  0  0  0
 36 38  1  0  0  0  0
 36 37  1  0  0  0  0
 38 39  1  0  0  0  0
 40 38  2  0  0  0  0
 41 34  2  0  0  0  0
 41 40  1  0  0  0  0
 42 43  1  0  0  0  0
 43 45  2  0  0  0  0
 43 34  1  0  0  0  0
 44 43  2  0  0  0  0
M  END
>  <minimizedAffinity>
-6.24193525

>  <minimizedRMSD>
1.59806097

$$$$
