
 OpenBabel03252508073D

 47 50  0  0  0  0  0  0  0  0999 V2000
   45.4150   35.7350   42.8400 C   0  0  0  0  0  0  0  0  0  0  0  0
   45.6490   34.3750   42.9510 C   0  0  0  0  0  0  0  0  0  0  0  0
   45.3700   33.7210   44.1260 C   0  0  0  0  0  0  0  0  0  0  0  0
   44.8560   34.4850   45.1550 N   0  0  0  0  0  0  0  0  0  0  0  0
   44.6330   35.7920   45.0450 C   0  0  0  0  0  0  0  0  0  0  0  0
   44.9190   36.4050   43.8780 N   0  0  0  0  0  0  0  0  0  0  0  0
   45.6230   36.2860   41.9290 H   0  0  0  0  0  0  0  0  0  0  0  0
   44.2270   36.3630   45.8740 H   0  0  0  0  0  0  0  0  0  0  0  0
   45.5500   32.3450   44.3970 C   0  0  0  0  0  0  0  0  0  0  0  0
   45.0710   31.3180   43.5790 C   0  0  0  0  0  0  0  0  0  0  0  0
   45.1850   29.9840   43.8730 C   0  0  0  0  0  0  0  0  0  0  0  0
   45.8030   29.5920   45.0390 C   0  0  0  0  0  0  0  0  0  0  0  0
   46.2950   30.6180   45.8770 C   0  0  0  0  0  0  0  0  0  0  0  0
   46.9120   30.2460   47.0470 C   0  0  0  0  0  0  0  0  0  0  0  0
   47.4150   31.1920   47.9170 C   0  0  0  0  0  0  0  0  0  0  0  0
   47.2950   32.5540   47.5950 C   0  0  0  0  0  0  0  0  0  0  0  0
   46.6560   32.8930   46.3880 C   0  0  0  0  0  0  0  0  0  0  0  0
   46.1640   31.9300   45.5500 C   0  0  0  0  0  0  0  0  0  0  0  0
   44.5820   31.6260   42.6590 H   0  0  0  0  0  0  0  0  0  0  0  0
   44.7910   29.2310   43.1940 H   0  0  0  0  0  0  0  0  0  0  0  0
   45.9260   28.5580   45.3330 H   0  0  0  0  0  0  0  0  0  0  0  0
   46.9960   29.1900   47.2790 H   0  0  0  0  0  0  0  0  0  0  0  0
   47.8860   30.8260   48.8220 H   0  0  0  0  0  0  0  0  0  0  0  0
   47.7160   33.2210   48.3280 H   0  0  0  0  0  0  0  0  0  0  0  0
   46.6830   33.9590   46.3120 H   0  0  0  0  0  0  0  0  0  0  0  0
   46.1570   33.7360   41.8520 O   0  0  0  0  0  0  0  0  0  0  0  0
   48.0820   31.9630   41.8320 O   0  0  0  0  0  0  0  0  0  0  0  0
   47.8000   33.4070   41.6060 P   0  0  1  0  0  0  0  0  0  0  0  0
   48.2520   33.7520   40.0100 O   0  0  0  0  0  0  0  0  0  0  0  0
   48.4840   32.0700   38.3730 C   0  0  0  0  0  0  0  0  0  0  0  0
   47.6810   33.0250   38.9740 C   0  0  0  0  0  0  0  0  0  0  0  0
   46.3920   33.1990   38.5260 C   0  0  0  0  0  0  0  0  0  0  0  0
   45.7730   33.9330   38.9870 H   0  0  0  0  0  0  0  0  0  0  0  0
   45.9050   32.4290   37.4860 C   0  0  0  0  0  0  0  0  0  0  0  0
   44.8820   32.5850   37.1480 H   0  0  0  0  0  0  0  0  0  0  0  0
   46.6920   31.4700   36.8720 C   0  0  0  0  0  3  0  0  0  0  0  0
   47.9840   31.3010   37.3280 C   0  0  0  0  0  3  0  0  0  0  0  0
   50.5730   32.5670   39.8190 H   0  0  0  0  0  0  0  0  0  0  0  0
   50.1390   31.7300   38.8260 S   0  0  0  0  0  0  0  0  0  0  0  0
   51.0220   31.8660   37.6010 O   0  0  0  0  0  0  0  0  0  0  0  0
   50.2750   30.3220   39.3310 O   0  0  0  0  0  0  0  0  0  0  0  0
   48.6930   34.3750   42.6440 O   0  0  0  0  0  0  0  0  0  0  0  0
   49.8040   35.1350   42.3170 C   0  0  0  0  0  0  0  0  0  0  0  0
   49.3380   36.2160   41.9080 O   0  0  0  0  0  0  0  0  0  0  0  0
   51.0200   34.4030   42.5710 N   0  0  0  0  0  0  0  0  0  0  0  0
   51.2510   34.2430   43.5970 H   0  0  0  0  0  0  0  0  0  0  0  0
   51.7090   34.0060   41.8870 H   0  0  0  0  0  0  0  0  0  0  0  0
  1  2  2  0  0  0  0
  1  6  1  0  0  0  0
  2  3  1  0  0  0  0
  3  9  1  0  0  0  0
  3  4  2  0  0  0  0
  5  4  1  0  0  0  0
  5  8  1  0  0  0  0
  6  5  2  0  0  0  0
  7  1  1  0  0  0  0
  9 18  1  0  0  0  0
 10 11  1  0  0  0  0
 10  9  2  0  0  0  0
 11 12  2  0  0  0  0
 12 21  1  0  0  0  0
 12 13  1  0  0  0  0
 13 14  1  0  0  0  0
 14 22  1  0  0  0  0
 14 15  2  0  0  0  0
 15 23  1  0  0  0  0
 16 15  1  0  0  0  0
 16 24  1  0  0  0  0
 17 16  2  0  0  0  0
 18 13  2  0  0  0  0
 18 17  1  0  0  0  0
 19 10  1  0  0  0  0
 20 11  1  0  0  0  0
 25 17  1  0  0  0  0
 26  2  1  0  0  0  0
 28 27  2  1  0  0  0
 28 26  1  0  0  0  0
 28 42  1  0  0  0  0
 29 28  1  0  0  0  0
 30 39  1  0  0  0  0
 30 31  1  0  0  0  0
 31 29  1  0  0  0  0
 32 31  2  0  0  0  0
 32 33  1  0  0  0  0
 34 32  1  0  0  0  0
 35 34  1  0  0  0  0
 36 37  1  0  0  0  0
 36 34  2  0  0  0  0
 37 30  2  0  0  0  0
 39 41  2  0  0  0  0
 39 38  1  0  0  0  0
 40 39  2  0  0  0  0
 43 45  1  0  0  0  0
 43 42  1  0  0  0  0
 44 43  2  0  0  0  0
 45 46  1  0  0  0  0
 47 45  1  0  0  0  0
M  END
>  <minimizedAffinity>
-5.78271151

>  <minimizedRMSD>
0.994968593

$$$$
