
 OpenBabel03252504143D

 38 40  0  0  0  0  0  0  0  0999 V2000
   47.0640   29.7210   45.0430 F   0  0  0  0  0  0  0  0  0  0  0  0
   47.2030   30.5310   46.1350 C   0  0  0  0  0  0  0  0  0  0  0  0
   46.9140   31.8750   46.0440 C   0  0  0  0  0  0  0  0  0  0  0  0
   47.0830   32.6240   47.2020 C   0  0  0  0  0  0  0  0  0  0  0  0
   47.5180   32.0540   48.3730 C   0  0  0  0  0  0  0  0  0  0  0  0
   47.7970   30.6940   48.4100 C   0  0  0  0  0  0  0  0  0  0  0  0
   47.6420   29.8930   47.2710 C   0  0  0  0  0  0  0  0  0  0  0  0
   46.8600   33.6780   47.1470 H   0  0  0  0  0  0  0  0  0  0  0  0
   47.6420   32.6530   49.2560 H   0  0  0  0  0  0  0  0  0  0  0  0
   48.1430   30.1860   49.3050 H   0  0  0  0  0  0  0  0  0  0  0  0
   49.2580   28.0880   47.2280 C   0  0  0  0  0  0  0  0  0  0  0  0
   47.9380   28.4650   47.3220 C   0  0  0  0  0  0  0  0  0  0  0  0
   46.9450   27.4870   47.4600 C   0  0  0  0  0  0  0  0  0  0  0  0
   45.9290   27.8620   47.5280 H   0  0  0  0  0  0  0  0  0  0  0  0
   47.2950   26.1530   47.5010 C   0  0  0  0  0  0  0  0  0  0  0  0
   46.4690   25.4600   47.6100 H   0  0  0  0  0  0  0  0  0  0  0  0
   48.6170   25.7490   47.4100 C   0  0  0  0  0  3  0  0  0  0  0  0
   49.5670   26.7450   47.2740 C   0  0  0  0  0  3  0  0  0  0  0  0
   50.1820   30.5060   47.1140 H   0  0  0  0  0  0  0  0  0  0  0  0
   50.6060   29.1910   47.0540 S   0  0  0  0  0  0  0  0  0  0  0  0
   51.2800   28.8800   45.7480 O   0  0  0  0  0  0  0  0  0  0  0  0
   51.6150   28.9370   48.1640 O   0  0  0  0  0  0  0  0  0  0  0  0
   46.8290   34.0620   43.1370 C   0  0  0  0  0  0  0  0  0  0  0  0
   45.6820   33.6780   42.4500 C   0  0  0  0  0  0  0  0  0  0  0  0
   44.9120   32.6270   43.0110 C   0  0  0  0  0  0  0  0  0  0  0  0
   45.3300   32.0630   44.1690 N   0  0  0  0  0  0  0  0  0  0  0  0
   46.4510   32.4760   44.7930 C   0  0  0  0  0  0  0  0  0  0  0  0
   47.1960   33.4730   44.2760 N   0  0  0  0  0  0  0  0  0  0  0  0
   44.0140   32.3070   42.4980 H   0  0  0  0  0  0  0  0  0  0  0  0
   45.2990   34.3480   41.1890 C   0  0  0  0  0  0  0  0  0  0  0  0
   45.0800   35.6970   41.4340 F   0  0  0  0  0  0  0  0  0  0  0  0
   46.3790   34.2730   40.3280 F   0  0  0  0  0  0  0  0  0  0  0  0
   44.2010   33.8430   40.5770 F   0  0  0  0  0  0  0  0  0  0  0  0
   47.5550   35.0700   42.5860 O   0  0  0  0  0  0  0  0  0  0  0  0
   48.8490   34.9760   42.0320 C   0  0  0  0  0  0  0  0  0  0  0  0
   49.7530   35.2880   43.0430 F   0  0  0  0  0  0  0  0  0  0  0  0
   49.0480   33.7180   41.5170 F   0  0  0  0  0  0  0  0  0  0  0  0
   49.0210   35.9590   41.0830 F   0  0  0  0  0  0  0  0  0  0  0  0
  1  2  1  0  0  0  0
  2  7  1  0  0  0  0
  3  2  2  0  0  0  0
  3  4  1  0  0  0  0
  4  5  2  0  0  0  0
  5  6  1  0  0  0  0
  5  9  1  0  0  0  0
  6 10  1  0  0  0  0
  7 12  1  0  0  0  0
  7  6  2  0  0  0  0
  8  4  1  0  0  0  0
 11 18  2  0  0  0  0
 11 12  1  0  0  0  0
 12 13  2  0  0  0  0
 13 15  1  0  0  0  0
 13 14  1  0  0  0  0
 15 16  1  0  0  0  0
 17 15  2  0  0  0  0
 18 17  1  0  0  0  0
 20 19  1  0  0  0  0
 20 11  1  0  0  0  0
 20 22  2  0  0  0  0
 21 20  2  0  0  0  0
 23 28  1  0  0  0  0
 24 25  1  0  0  0  0
 24 23  2  0  0  0  0
 25 26  2  0  0  0  0
 26 27  1  0  0  0  0
 27  3  1  0  0  0  0
 28 27  2  0  0  0  0
 29 25  1  0  0  0  0
 30 31  1  0  0  0  0
 30 24  1  0  0  0  0
 32 30  1  0  0  0  0
 33 30  1  0  0  0  0
 34 23  1  0  0  0  0
 35 34  1  0  0  0  0
 35 36  1  0  0  0  0
 37 35  1  0  0  0  0
 38 35  1  0  0  0  0
M  END
>  <minimizedAffinity>
-5.50253105

>  <minimizedRMSD>
1.30057549

$$$$
