
 OpenBabel03252500113D

 34 36  0  0  0  0  0  0  0  0999 V2000
   38.0190   31.2730   37.1550 Cl  0  0  0  0  0  0  0  0  0  0  0  0
   36.8720   30.5350   38.2390 C   0  0  0  0  0  0  0  0  0  0  0  0
   35.9600   29.6230   37.7770 C   0  0  0  0  0  0  0  0  0  0  0  0
   35.0220   29.0070   38.6150 C   0  0  0  0  0  0  0  0  0  0  0  0
   35.0790   29.3790   39.9350 C   0  0  0  0  0  0  0  0  0  0  0  0
   35.9870   30.2920   40.4130 C   0  0  0  0  0  0  0  0  0  0  0  0
   36.8750   30.8650   39.5790 C   0  0  0  0  0  0  0  0  0  0  0  0
   34.3070   28.2940   38.2620 H   0  0  0  0  0  0  0  0  0  0  0  0
   34.3920   28.9560   40.6610 H   0  0  0  0  0  0  0  0  0  0  0  0
   36.0000   30.5620   41.4690 H   0  0  0  0  0  0  0  0  0  0  0  0
   35.7820   27.6680   34.6460 C   0  0  0  0  0  0  0  0  0  0  0  0
   35.9610   28.6620   33.6620 C   0  0  0  0  0  0  0  0  0  0  0  0
   36.1390   29.9810   34.0810 C   0  0  0  0  0  0  0  0  0  0  0  0
   36.1320   30.2440   35.4090 N   0  0  0  0  0  0  0  0  0  0  0  0
   35.9580   29.2720   36.3510 C   0  0  0  0  0  0  0  0  0  0  0  0
   35.7860   28.0010   35.9470 N   0  0  0  0  0  0  0  0  0  0  0  0
   35.6420   26.6370   34.3320 H   0  0  0  0  0  0  0  0  0  0  0  0
   35.9660   28.4510   32.6180 H   0  0  0  0  0  0  0  0  0  0  0  0
   36.3380   31.1200   33.1250 C   0  0  0  0  0  0  0  0  0  0  0  0
   37.3740   31.9280   33.5450 F   0  0  0  0  0  0  0  0  0  0  0  0
   36.6500   30.6080   31.8830 F   0  0  0  0  0  0  0  0  0  0  0  0
   35.1590   31.8150   33.0760 F   0  0  0  0  0  0  0  0  0  0  0  0
   39.0550   31.5100   40.6580 C   0  0  0  0  0  0  0  0  0  0  0  0
   37.8520   31.8420   40.0730 C   0  0  0  0  0  0  0  0  0  0  0  0
   37.4800   33.1610   39.9120 C   0  0  0  0  0  0  0  0  0  0  0  0
   36.5410   33.4690   39.4580 H   0  0  0  0  0  0  0  0  0  0  0  0
   38.3570   34.1470   40.3580 C   0  0  0  0  0  0  0  0  0  0  0  0
   38.0320   35.1900   40.2160 H   0  0  0  0  0  0  0  0  0  0  0  0
   39.5690   33.8310   40.9460 C   0  0  0  0  0  3  0  0  0  0  0  0
   39.9100   32.4840   41.0910 C   0  0  0  0  0  3  0  0  0  0  0  0
   38.3790   29.0690   41.1120 H   0  0  0  0  0  0  0  0  0  0  0  0
   39.4600   29.8270   40.8290 S   0  0  0  0  0  0  0  0  0  0  0  0
   40.1470   29.3800   39.5650 O   0  0  0  0  0  0  0  0  0  0  0  0
   40.4790   29.6700   41.9310 O   0  0  0  0  0  0  0  0  0  0  0  0
  1  2  1  0  0  0  0
  2  7  1  0  0  0  0
  3  2  2  0  0  0  0
  3  4  1  0  0  0  0
  4  5  2  0  0  0  0
  5  6  1  0  0  0  0
  5  9  1  0  0  0  0
  6 10  1  0  0  0  0
  7 24  1  0  0  0  0
  7  6  2  0  0  0  0
  8  4  1  0  0  0  0
 11 16  1  0  0  0  0
 12 13  1  0  0  0  0
 12 11  2  0  0  0  0
 13 14  2  0  0  0  0
 14 15  1  0  0  0  0
 15  3  1  0  0  0  0
 16 15  2  0  0  0  0
 17 11  1  0  0  0  0
 18 12  1  0  0  0  0
 19 20  1  0  0  0  0
 19 13  1  0  0  0  0
 21 19  1  0  0  0  0
 22 19  1  0  0  0  0
 23 32  1  0  0  0  0
 23 30  1  0  0  0  0
 24 23  2  0  0  0  0
 25 24  1  0  0  0  0
 25 27  2  0  0  0  0
 26 25  1  0  0  0  0
 27 29  1  0  0  0  0
 28 27  1  0  0  0  0
 29 30  2  0  0  0  0
 32 31  1  0  0  0  0
 32 34  2  0  0  0  0
 33 32  2  0  0  0  0
M  END
>  <minimizedAffinity>
-5.7989397

$$$$

 OpenBabel03252500113D

 34 36  0  0  0  0  0  0  0  0999 V2000
   40.6560   29.8400   40.4780 Cl  0  0  0  0  0  0  0  0  0  0  0  0
   39.5880   31.2160   40.4400 C   0  0  0  0  0  0  0  0  0  0  0  0
   38.2300   31.0460   40.3960 C   0  0  0  0  0  0  0  0  0  0  0  0
   37.3370   32.1240   40.3630 C   0  0  0  0  0  0  0  0  0  0  0  0
   37.9170   33.3680   40.3800 C   0  0  0  0  0  0  0  0  0  0  0  0
   39.2780   33.5550   40.4240 C   0  0  0  0  0  0  0  0  0  0  0  0
   40.1060   32.4960   40.4540 C   0  0  0  0  0  0  0  0  0  0  0  0
   36.2750   32.0000   40.3290 H   0  0  0  0  0  0  0  0  0  0  0  0
   37.3080   34.2660   40.3570 H   0  0  0  0  0  0  0  0  0  0  0  0
   39.6990   34.5600   40.4360 H   0  0  0  0  0  0  0  0  0  0  0  0
   36.7740   27.8650   39.2050 C   0  0  0  0  0  0  0  0  0  0  0  0
   36.6530   27.1250   40.4000 C   0  0  0  0  0  0  0  0  0  0  0  0
   37.0690   27.7220   41.5900 C   0  0  0  0  0  0  0  0  0  0  0  0
   37.5690   28.9800   41.5430 N   0  0  0  0  0  0  0  0  0  0  0  0
   37.6790   29.6840   40.3800 C   0  0  0  0  0  0  0  0  0  0  0  0
   37.2790   29.1090   39.2320 N   0  0  0  0  0  0  0  0  0  0  0  0
   36.4530   27.4100   38.2710 H   0  0  0  0  0  0  0  0  0  0  0  0
   36.2600   26.1360   40.4340 H   0  0  0  0  0  0  0  0  0  0  0  0
   36.9880   27.0320   42.9210 C   0  0  0  0  0  0  0  0  0  0  0  0
   38.1050   27.3120   43.6800 F   0  0  0  0  0  0  0  0  0  0  0  0
   35.8710   27.4890   43.5900 F   0  0  0  0  0  0  0  0  0  0  0  0
   36.8820   25.6900   42.6720 F   0  0  0  0  0  0  0  0  0  0  0  0
   42.3520   32.9150   39.3980 C   0  0  0  0  0  0  0  0  0  0  0  0
   41.5610   32.6770   40.5020 C   0  0  0  0  0  0  0  0  0  0  0  0
   42.1110   32.5920   41.7650 C   0  0  0  0  0  0  0  0  0  0  0  0
   41.5270   32.4060   42.6620 H   0  0  0  0  0  0  0  0  0  0  0  0
   43.4890   32.7540   41.8900 C   0  0  0  0  0  0  0  0  0  0  0  0
   43.8990   32.6810   42.9100 H   0  0  0  0  0  0  0  0  0  0  0  0
   44.2960   32.9940   40.7930 C   0  0  0  0  0  3  0  0  0  0  0  0
   43.7020   33.0730   39.5310 C   0  0  0  0  0  3  0  0  0  0  0  0
   40.3060   33.4140   37.9190 H   0  0  0  0  0  0  0  0  0  0  0  0
   41.5920   33.0100   37.8370 S   0  0  0  0  0  0  0  0  0  0  0  0
   42.4160   33.9260   36.9700 O   0  0  0  0  0  0  0  0  0  0  0  0
   41.6440   31.6550   37.1740 O   0  0  0  0  0  0  0  0  0  0  0  0
  2  7  1  0  0  0  0
  2  1  1  0  0  0  0
  3  2  2  0  0  0  0
  4  5  2  0  0  0  0
  4  3  1  0  0  0  0
  5  6  1  0  0  0  0
  6 10  1  0  0  0  0
  6  7  2  0  0  0  0
  7 24  1  0  0  0  0
  8  4  1  0  0  0  0
  9  5  1  0  0  0  0
 11 16  2  0  0  0  0
 11 12  1  0  0  0  0
 12 18  1  0  0  0  0
 12 13  2  0  0  0  0
 13 19  1  0  0  0  0
 14 13  1  0  0  0  0
 15  3  1  0  0  0  0
 15 14  2  0  0  0  0
 16 15  1  0  0  0  0
 17 11  1  0  0  0  0
 19 21  1  0  0  0  0
 19 20  1  0  0  0  0
 22 19  1  0  0  0  0
 23 30  2  0  0  0  0
 23 24  1  0  0  0  0
 24 25  2  0  0  0  0
 25 27  1  0  0  0  0
 25 26  1  0  0  0  0
 27 28  1  0  0  0  0
 29 27  2  0  0  0  0
 30 29  1  0  0  0  0
 32 31  1  0  0  0  0
 32 23  1  0  0  0  0
 33 32  2  0  0  0  0
 34 32  2  0  0  0  0
M  END
>  <minimizedAffinity>
-5.78012848

$$$$

 OpenBabel03252500113D

 34 36  0  0  0  0  0  0  0  0999 V2000
   40.3790   29.8170   39.1850 Cl  0  0  0  0  0  0  0  0  0  0  0  0
   39.3550   31.1730   39.5710 C   0  0  0  0  0  0  0  0  0  0  0  0
   38.0650   30.9780   39.9890 C   0  0  0  0  0  0  0  0  0  0  0  0
   37.2090   32.0400   40.3070 C   0  0  0  0  0  0  0  0  0  0  0  0
   37.7520   33.2930   40.1730 C   0  0  0  0  0  0  0  0  0  0  0  0
   39.0440   33.5040   39.7550 C   0  0  0  0  0  0  0  0  0  0  0  0
   39.8390   32.4610   39.4570 C   0  0  0  0  0  0  0  0  0  0  0  0
   36.2010   31.8960   40.6340 H   0  0  0  0  0  0  0  0  0  0  0  0
   37.1670   34.1790   40.3970 H   0  0  0  0  0  0  0  0  0  0  0  0
   39.4380   34.5160   39.6610 H   0  0  0  0  0  0  0  0  0  0  0  0
   36.5750   27.7040   39.1420 C   0  0  0  0  0  0  0  0  0  0  0  0
   36.5980   27.0340   40.3830 C   0  0  0  0  0  0  0  0  0  0  0  0
   37.1210   27.7090   41.4860 C   0  0  0  0  0  0  0  0  0  0  0  0
   37.5810   28.9710   41.3150 N   0  0  0  0  0  0  0  0  0  0  0  0
   37.5510   29.6080   40.1090 C   0  0  0  0  0  0  0  0  0  0  0  0
   37.0480   28.9570   39.0440 N   0  0  0  0  0  0  0  0  0  0  0  0
   36.1700   27.1890   38.2740 H   0  0  0  0  0  0  0  0  0  0  0  0
   36.2360   26.0410   40.5140 H   0  0  0  0  0  0  0  0  0  0  0  0
   37.1970   27.0980   42.8550 C   0  0  0  0  0  0  0  0  0  0  0  0
   36.0070   27.2730   43.5300 F   0  0  0  0  0  0  0  0  0  0  0  0
   37.4380   25.7460   42.7250 F   0  0  0  0  0  0  0  0  0  0  0  0
   38.2330   27.7080   43.5110 F   0  0  0  0  0  0  0  0  0  0  0  0
   42.3190   32.6440   39.8410 C   0  0  0  0  0  0  0  0  0  0  0  0
   41.2200   32.6690   39.0090 C   0  0  0  0  0  0  0  0  0  0  0  0
   41.3590   32.8990   37.6550 C   0  0  0  0  0  0  0  0  0  0  0  0
   40.5220   32.9270   36.9630 H   0  0  0  0  0  0  0  0  0  0  0  0
   42.6430   33.1060   37.1550 C   0  0  0  0  0  0  0  0  0  0  0  0
   42.7210   33.2870   36.0720 H   0  0  0  0  0  0  0  0  0  0  0  0
   43.7550   33.0840   37.9770 C   0  0  0  0  0  3  0  0  0  0  0  0
   43.5740   32.8480   39.3420 C   0  0  0  0  0  3  0  0  0  0  0  0
   40.8440   32.7340   41.9480 H   0  0  0  0  0  0  0  0  0  0  0  0
   42.0710   32.3480   41.5370 S   0  0  0  0  0  0  0  0  0  0  0  0
   42.3190   30.8850   41.7980 O   0  0  0  0  0  0  0  0  0  0  0  0
   43.1160   33.0930   42.3300 O   0  0  0  0  0  0  0  0  0  0  0  0
  1  2  1  0  0  0  0
  2  3  1  0  0  0  0
  3 15  1  0  0  0  0
  3  4  2  0  0  0  0
  4  8  1  0  0  0  0
  5  4  1  0  0  0  0
  5  9  1  0  0  0  0
  6  5  2  0  0  0  0
  7  2  2  0  0  0  0
  7  6  1  0  0  0  0
 10  6  1  0  0  0  0
 11 12  1  0  0  0  0
 12 18  1  0  0  0  0
 12 13  2  0  0  0  0
 13 19  1  0  0  0  0
 14 13  1  0  0  0  0
 15 14  2  0  0  0  0
 16 11  2  0  0  0  0
 16 15  1  0  0  0  0
 17 11  1  0  0  0  0
 19 22  1  0  0  0  0
 19 20  1  0  0  0  0
 21 19  1  0  0  0  0
 23 32  1  0  0  0  0
 24  7  1  0  0  0  0
 24 23  2  0  0  0  0
 25 24  1  0  0  0  0
 26 25  1  0  0  0  0
 27 25  2  0  0  0  0
 27 29  1  0  0  0  0
 28 27  1  0  0  0  0
 29 30  2  0  0  0  0
 30 23  1  0  0  0  0
 32 33  2  0  0  0  0
 32 31  1  0  0  0  0
 32 34  2  0  0  0  0
M  END
>  <minimizedAffinity>
-5.68420076

$$$$

 OpenBabel03252500113D

 34 36  0  0  0  0  0  0  0  0999 V2000
   40.3060   30.2070   41.5350 Cl  0  0  0  0  0  0  0  0  0  0  0  0
   39.0140   30.8230   40.5420 C   0  0  0  0  0  0  0  0  0  0  0  0
   37.7660   30.2620   40.5900 C   0  0  0  0  0  0  0  0  0  0  0  0
   36.7020   30.7260   39.8080 C   0  0  0  0  0  0  0  0  0  0  0  0
   36.9950   31.7870   38.9870 C   0  0  0  0  0  0  0  0  0  0  0  0
   38.2410   32.3600   38.9270 C   0  0  0  0  0  0  0  0  0  0  0  0
   39.2420   31.8880   39.6930 C   0  0  0  0  0  0  0  0  0  0  0  0
   35.7240   30.2940   39.8400 H   0  0  0  0  0  0  0  0  0  0  0  0
   36.2350   32.2170   38.3430 H   0  0  0  0  0  0  0  0  0  0  0  0
   38.4340   33.2010   38.2610 H   0  0  0  0  0  0  0  0  0  0  0  0
   37.1900   28.2820   43.6570 C   0  0  0  0  0  0  0  0  0  0  0  0
   37.0730   26.9710   43.1490 C   0  0  0  0  0  0  0  0  0  0  0  0
   37.1910   26.7840   41.7720 C   0  0  0  0  0  0  0  0  0  0  0  0
   37.4130   27.8660   40.9890 N   0  0  0  0  0  0  0  0  0  0  0  0
   37.5250   29.1290   41.4930 C   0  0  0  0  0  0  0  0  0  0  0  0
   37.4100   29.3100   42.8210 N   0  0  0  0  0  0  0  0  0  0  0  0
   37.0980   28.4400   44.7280 H   0  0  0  0  0  0  0  0  0  0  0  0
   36.8980   26.1220   43.7680 H   0  0  0  0  0  0  0  0  0  0  0  0
   37.0850   25.4370   41.1200 C   0  0  0  0  0  0  0  0  0  0  0  0
   36.5490   24.5160   41.9950 F   0  0  0  0  0  0  0  0  0  0  0  0
   36.2560   25.5390   40.0210 F   0  0  0  0  0  0  0  0  0  0  0  0
   38.3480   25.0750   40.7340 F   0  0  0  0  0  0  0  0  0  0  0  0
   41.5840   32.0790   38.7920 C   0  0  0  0  0  0  0  0  0  0  0  0
   40.5790   32.4880   39.6420 C   0  0  0  0  0  0  0  0  0  0  0  0
   40.7780   33.5270   40.5290 C   0  0  0  0  0  0  0  0  0  0  0  0
   40.0160   33.8830   41.2170 H   0  0  0  0  0  0  0  0  0  0  0  0
   42.0250   34.1480   40.5390 C   0  0  0  0  0  0  0  0  0  0  0  0
   42.1540   34.9730   41.2580 H   0  0  0  0  0  0  0  0  0  0  0  0
   43.0440   33.7490   39.6920 C   0  0  0  0  0  3  0  0  0  0  0  0
   42.8030   32.6940   38.8080 C   0  0  0  0  0  3  0  0  0  0  0  0
   39.9810   30.7560   37.2730 H   0  0  0  0  0  0  0  0  0  0  0  0
   41.2630   30.7640   37.7000 S   0  0  0  0  0  0  0  0  0  0  0  0
   42.2380   30.8580   36.5550 O   0  0  0  0  0  0  0  0  0  0  0  0
   41.5630   29.4570   38.3920 O   0  0  0  0  0  0  0  0  0  0  0  0
  2  3  1  0  0  0  0
  2  1  1  0  0  0  0
  3 15  1  0  0  0  0
  4  8  1  0  0  0  0
  4  3  2  0  0  0  0
  5  4  1  0  0  0  0
  6  5  2  0  0  0  0
  6  7  1  0  0  0  0
  7  2  2  0  0  0  0
  9  5  1  0  0  0  0
 10  6  1  0  0  0  0
 11 17  1  0  0  0  0
 12 11  1  0  0  0  0
 12 18  1  0  0  0  0
 13 12  2  0  0  0  0
 14 15  2  0  0  0  0
 14 13  1  0  0  0  0
 15 16  1  0  0  0  0
 16 11  2  0  0  0  0
 19 13  1  0  0  0  0
 19 20  1  0  0  0  0
 21 19  1  0  0  0  0
 22 19  1  0  0  0  0
 23 30  2  0  0  0  0
 23 24  1  0  0  0  0
 24  7  1  0  0  0  0
 24 25  2  0  0  0  0
 25 27  1  0  0  0  0
 25 26  1  0  0  0  0
 27 28  1  0  0  0  0
 29 27  2  0  0  0  0
 30 29  1  0  0  0  0
 31 32  1  0  0  0  0
 32 34  2  0  0  0  0
 32 23  1  0  0  0  0
 33 32  2  0  0  0  0
M  END
>  <minimizedAffinity>
-5.67270947

$$$$

 OpenBabel03252500113D

 34 36  0  0  0  0  0  0  0  0999 V2000
   39.6250   28.1260   40.5490 Cl  0  0  0  0  0  0  0  0  0  0  0  0
   38.1630   29.0680   40.6580 C   0  0  0  0  0  0  0  0  0  0  0  0
   38.2060   30.4360   40.6010 C   0  0  0  0  0  0  0  0  0  0  0  0
   37.0550   31.2290   40.6850 C   0  0  0  0  0  0  0  0  0  0  0  0
   35.8770   30.5410   40.8280 C   0  0  0  0  0  0  0  0  0  0  0  0
   35.8170   29.1690   40.8870 C   0  0  0  0  0  0  0  0  0  0  0  0
   36.9430   28.4380   40.8030 C   0  0  0  0  0  0  0  0  0  0  0  0
   37.0800   32.2970   40.6410 H   0  0  0  0  0  0  0  0  0  0  0  0
   34.9310   31.0680   40.9020 H   0  0  0  0  0  0  0  0  0  0  0  0
   34.8600   28.6600   41.0010 H   0  0  0  0  0  0  0  0  0  0  0  0
   41.5130   31.8940   41.3700 C   0  0  0  0  0  0  0  0  0  0  0  0
   41.9340   32.3660   40.1090 C   0  0  0  0  0  0  0  0  0  0  0  0
   41.0840   32.1790   39.0190 C   0  0  0  0  0  0  0  0  0  0  0  0
   39.8990   31.5550   39.2210 N   0  0  0  0  0  0  0  0  0  0  0  0
   39.5050   31.1050   40.4470 C   0  0  0  0  0  0  0  0  0  0  0  0
   40.3240   31.2850   41.4990 N   0  0  0  0  0  0  0  0  0  0  0  0
   42.1670   32.0340   42.2280 H   0  0  0  0  0  0  0  0  0  0  0  0
   42.8670   32.8560   39.9540 H   0  0  0  0  0  0  0  0  0  0  0  0
   41.4250   32.6370   37.6310 C   0  0  0  0  0  0  0  0  0  0  0  0
   41.6450   33.9990   37.6120 F   0  0  0  0  0  0  0  0  0  0  0  0
   42.5750   31.9960   37.2210 F   0  0  0  0  0  0  0  0  0  0  0  0
   40.3720   32.2960   36.8250 F   0  0  0  0  0  0  0  0  0  0  0  0
   36.7210   26.1550   39.7690 C   0  0  0  0  0  0  0  0  0  0  0  0
   36.8970   26.9730   40.8640 C   0  0  0  0  0  0  0  0  0  0  0  0
   37.0460   26.4440   42.1300 C   0  0  0  0  0  0  0  0  0  0  0  0
   37.1870   27.0510   43.0210 H   0  0  0  0  0  0  0  0  0  0  0  0
   37.0130   25.0580   42.2670 C   0  0  0  0  0  0  0  0  0  0  0  0
   37.1350   24.6660   43.2890 H   0  0  0  0  0  0  0  0  0  0  0  0
   36.8380   24.2230   41.1790 C   0  0  0  0  0  3  0  0  0  0  0  0
   36.6910   24.7960   39.9130 C   0  0  0  0  0  3  0  0  0  0  0  0
   37.2760   28.0150   38.0800 H   0  0  0  0  0  0  0  0  0  0  0  0
   36.5410   26.8890   38.2030 S   0  0  0  0  0  0  0  0  0  0  0  0
   36.9000   25.8630   37.1600 O   0  0  0  0  0  0  0  0  0  0  0  0
   35.0860   27.2200   37.9730 O   0  0  0  0  0  0  0  0  0  0  0  0
  1  2  1  0  0  0  0
  2  7  1  0  0  0  0
  3  2  2  0  0  0  0
  3  4  1  0  0  0  0
  4  5  2  0  0  0  0
  5  6  1  0  0  0  0
  5  9  1  0  0  0  0
  6 10  1  0  0  0  0
  7 24  1  0  0  0  0
  7  6  2  0  0  0  0
  8  4  1  0  0  0  0
 11 16  1  0  0  0  0
 11 17  1  0  0  0  0
 12 11  2  0  0  0  0
 13 14  2  0  0  0  0
 13 12  1  0  0  0  0
 14 15  1  0  0  0  0
 15  3  1  0  0  0  0
 15 16  2  0  0  0  0
 18 12  1  0  0  0  0
 19 13  1  0  0  0  0
 20 19  1  0  0  0  0
 21 19  1  0  0  0  0
 22 19  1  0  0  0  0
 23 30  2  0  0  0  0
 23 24  1  0  0  0  0
 24 25  2  0  0  0  0
 25 27  1  0  0  0  0
 25 26  1  0  0  0  0
 27 28  1  0  0  0  0
 29 27  2  0  0  0  0
 30 29  1  0  0  0  0
 31 32  1  0  0  0  0
 32 23  1  0  0  0  0
 33 32  2  0  0  0  0
 34 32  2  0  0  0  0
M  END
>  <minimizedAffinity>
-5.67223501

$$$$

 OpenBabel03252500113D

 34 36  0  0  0  0  0  0  0  0999 V2000
   38.1680   28.0410   39.3270 Cl  0  0  0  0  0  0  0  0  0  0  0  0
   37.7910   27.9100   41.0230 C   0  0  0  0  0  0  0  0  0  0  0  0
   37.6770   29.0300   41.8030 C   0  0  0  0  0  0  0  0  0  0  0  0
   37.3760   28.9680   43.1690 C   0  0  0  0  0  0  0  0  0  0  0  0
   37.2020   27.7040   43.6760 C   0  0  0  0  0  0  0  0  0  0  0  0
   37.3130   26.5710   42.9070 C   0  0  0  0  0  0  0  0  0  0  0  0
   37.6040   26.6680   41.5970 C   0  0  0  0  0  0  0  0  0  0  0  0
   37.2850   29.8380   43.7850 H   0  0  0  0  0  0  0  0  0  0  0  0
   36.9660   27.5540   44.7240 H   0  0  0  0  0  0  0  0  0  0  0  0
   37.1680   25.5850   43.3470 H   0  0  0  0  0  0  0  0  0  0  0  0
   37.0240   32.2270   40.0690 C   0  0  0  0  0  0  0  0  0  0  0  0
   38.3000   32.8280   40.0570 C   0  0  0  0  0  0  0  0  0  0  0  0
   39.3600   32.1350   40.6410 C   0  0  0  0  0  0  0  0  0  0  0  0
   39.1160   30.9210   41.1890 N   0  0  0  0  0  0  0  0  0  0  0  0
   37.8770   30.3510   41.1920 C   0  0  0  0  0  0  0  0  0  0  0  0
   36.8540   31.0190   40.6300 N   0  0  0  0  0  0  0  0  0  0  0  0
   36.1890   32.7580   39.6170 H   0  0  0  0  0  0  0  0  0  0  0  0
   38.4880   33.7830   39.6260 H   0  0  0  0  0  0  0  0  0  0  0  0
   40.7600   32.6740   40.6880 C   0  0  0  0  0  0  0  0  0  0  0  0
   41.4500   32.3310   39.5440 F   0  0  0  0  0  0  0  0  0  0  0  0
   40.7030   34.0500   40.7760 F   0  0  0  0  0  0  0  0  0  0  0  0
   41.3570   32.1470   41.8020 F   0  0  0  0  0  0  0  0  0  0  0  0
   38.9070   24.7950   40.5340 C   0  0  0  0  0  0  0  0  0  0  0  0
   37.7260   25.4690   40.7600 C   0  0  0  0  0  0  0  0  0  0  0  0
   36.5430   25.0390   40.1930 C   0  0  0  0  0  0  0  0  0  0  0  0
   35.5890   25.5390   40.3430 H   0  0  0  0  0  0  0  0  0  0  0  0
   36.5800   23.9050   39.3850 C   0  0  0  0  0  0  0  0  0  0  0  0
   35.6210   23.5880   38.9460 H   0  0  0  0  0  0  0  0  0  0  0  0
   37.7570   23.2180   39.1480 C   0  0  0  0  0  3  0  0  0  0  0  0
   38.9330   23.6840   39.7410 C   0  0  0  0  0  3  0  0  0  0  0  0
   40.3370   26.7330   41.4420 H   0  0  0  0  0  0  0  0  0  0  0  0
   40.3590   25.3920   41.2820 S   0  0  0  0  0  0  0  0  0  0  0  0
   40.5430   24.6700   42.5910 O   0  0  0  0  0  0  0  0  0  0  0  0
   41.5480   25.0150   40.4320 O   0  0  0  0  0  0  0  0  0  0  0  0
  1  2  1  0  0  0  0
  2  7  2  0  0  0  0
  2  3  1  0  0  0  0
  3  4  2  0  0  0  0
  4  5  1  0  0  0  0
  4  8  1  0  0  0  0
  5  9  1  0  0  0  0
  6 10  1  0  0  0  0
  6  5  2  0  0  0  0
  7  6  1  0  0  0  0
 11 16  1  0  0  0  0
 12 11  2  0  0  0  0
 12 13  1  0  0  0  0
 13 19  1  0  0  0  0
 13 14  2  0  0  0  0
 14 15  1  0  0  0  0
 15  3  1  0  0  0  0
 16 15  2  0  0  0  0
 17 11  1  0  0  0  0
 18 12  1  0  0  0  0
 19 21  1  0  0  0  0
 19 22  1  0  0  0  0
 20 19  1  0  0  0  0
 23 24  1  0  0  0  0
 23 32  1  0  0  0  0
 24  7  1  0  0  0  0
 25 26  1  0  0  0  0
 25 24  2  0  0  0  0
 27 25  1  0  0  0  0
 28 27  1  0  0  0  0
 29 27  2  0  0  0  0
 29 30  1  0  0  0  0
 30 23  2  0  0  0  0
 32 31  1  0  0  0  0
 32 33  2  0  0  0  0
 34 32  2  0  0  0  0
M  END
>  <minimizedAffinity>
-5.61717749

$$$$

 OpenBabel03252500113D

 34 36  0  0  0  0  0  0  0  0999 V2000
   40.4890   29.0170   40.6090 Cl  0  0  0  0  0  0  0  0  0  0  0  0
   39.2570   28.6610   41.7880 C   0  0  0  0  0  0  0  0  0  0  0  0
   38.0490   29.3070   41.7550 C   0  0  0  0  0  0  0  0  0  0  0  0
   37.0330   29.0500   42.6830 C   0  0  0  0  0  0  0  0  0  0  0  0
   37.3290   28.1030   43.6310 C   0  0  0  0  0  0  0  0  0  0  0  0
   38.5350   27.4460   43.6780 C   0  0  0  0  0  0  0  0  0  0  0  0
   39.4890   27.7190   42.7690 C   0  0  0  0  0  0  0  0  0  0  0  0
   36.0880   29.5500   42.6640 H   0  0  0  0  0  0  0  0  0  0  0  0
   36.6050   27.8350   44.3940 H   0  0  0  0  0  0  0  0  0  0  0  0
   38.7310   26.7000   44.4470 H   0  0  0  0  0  0  0  0  0  0  0  0
   37.6040   32.5520   40.0430 C   0  0  0  0  0  0  0  0  0  0  0  0
   37.3350   32.1560   38.7160 C   0  0  0  0  0  0  0  0  0  0  0  0
   37.3110   30.7920   38.4270 C   0  0  0  0  0  0  0  0  0  0  0  0
   37.5450   29.9130   39.4310 N   0  0  0  0  0  0  0  0  0  0  0  0
   37.8030   30.3100   40.7100 C   0  0  0  0  0  0  0  0  0  0  0  0
   37.8280   31.6260   40.9890 N   0  0  0  0  0  0  0  0  0  0  0  0
   37.6260   33.6130   40.2810 H   0  0  0  0  0  0  0  0  0  0  0  0
   37.1520   32.8500   37.9290 H   0  0  0  0  0  0  0  0  0  0  0  0
   37.0360   30.2540   37.0540 C   0  0  0  0  0  0  0  0  0  0  0  0
   37.2590   31.2250   36.1000 F   0  0  0  0  0  0  0  0  0  0  0  0
   37.8850   29.1930   36.8140 F   0  0  0  0  0  0  0  0  0  0  0  0
   35.7310   29.8370   37.0390 F   0  0  0  0  0  0  0  0  0  0  0  0
   41.0610   25.8640   42.1170 C   0  0  0  0  0  0  0  0  0  0  0  0
   40.7830   27.0260   42.8040 C   0  0  0  0  0  0  0  0  0  0  0  0
   41.7390   27.6310   43.5960 C   0  0  0  0  0  0  0  0  0  0  0  0
   41.5630   28.5460   44.1550 H   0  0  0  0  0  0  0  0  0  0  0  0
   42.9930   27.0310   43.6790 C   0  0  0  0  0  0  0  0  0  0  0  0
   43.7340   27.5360   44.3180 H   0  0  0  0  0  0  0  0  0  0  0  0
   43.2890   25.8650   42.9960 C   0  0  0  0  0  3  0  0  0  0  0  0
   42.2950   25.2840   42.2050 C   0  0  0  0  0  3  0  0  0  0  0  0
   38.8520   26.0510   40.8120 H   0  0  0  0  0  0  0  0  0  0  0  0
   39.8100   25.1570   41.1390 S   0  0  0  0  0  0  0  0  0  0  0  0
   40.4550   24.5510   39.9200 O   0  0  0  0  0  0  0  0  0  0  0  0
   39.1800   24.0090   41.8880 O   0  0  0  0  0  0  0  0  0  0  0  0
  1  2  1  0  0  0  0
  2  7  1  0  0  0  0
  3  2  2  0  0  0  0
  3  4  1  0  0  0  0
  4  5  2  0  0  0  0
  5  6  1  0  0  0  0
  5  9  1  0  0  0  0
  6 10  1  0  0  0  0
  7 24  1  0  0  0  0
  7  6  2  0  0  0  0
  8  4  1  0  0  0  0
 11 17  1  0  0  0  0
 11 16  1  0  0  0  0
 12 11  2  0  0  0  0
 13 12  1  0  0  0  0
 13 14  2  0  0  0  0
 14 15  1  0  0  0  0
 15 16  2  0  0  0  0
 15  3  1  0  0  0  0
 18 12  1  0  0  0  0
 19 13  1  0  0  0  0
 20 19  1  0  0  0  0
 21 19  1  0  0  0  0
 22 19  1  0  0  0  0
 23 30  2  0  0  0  0
 23 24  1  0  0  0  0
 24 25  2  0  0  0  0
 25 27  1  0  0  0  0
 25 26  1  0  0  0  0
 27 28  1  0  0  0  0
 29 27  2  0  0  0  0
 30 29  1  0  0  0  0
 31 32  1  0  0  0  0
 32 34  2  0  0  0  0
 32 23  1  0  0  0  0
 33 32  2  0  0  0  0
M  END
>  <minimizedAffinity>
-5.58055401

$$$$

 OpenBabel03252500113D

 34 36  0  0  0  0  0  0  0  0999 V2000
   39.4190   27.6030   39.9860 Cl  0  0  0  0  0  0  0  0  0  0  0  0
   38.4420   27.6870   41.4260 C   0  0  0  0  0  0  0  0  0  0  0  0
   37.6830   26.6170   41.8200 C   0  0  0  0  0  0  0  0  0  0  0  0
   36.8840   26.6440   42.9700 C   0  0  0  0  0  0  0  0  0  0  0  0
   36.9150   27.8190   43.6800 C   0  0  0  0  0  0  0  0  0  0  0  0
   37.6710   28.9000   43.2980 C   0  0  0  0  0  0  0  0  0  0  0  0
   38.4270   28.8400   42.1860 C   0  0  0  0  0  0  0  0  0  0  0  0
   36.2880   25.8130   43.2850 H   0  0  0  0  0  0  0  0  0  0  0  0
   36.3290   27.9360   44.5860 H   0  0  0  0  0  0  0  0  0  0  0  0
   37.6680   29.8160   43.8890 H   0  0  0  0  0  0  0  0  0  0  0  0
   38.7480   23.3960   40.3550 C   0  0  0  0  0  0  0  0  0  0  0  0
   37.6870   23.1030   39.4730 C   0  0  0  0  0  0  0  0  0  0  0  0
   36.6270   24.0060   39.3930 C   0  0  0  0  0  0  0  0  0  0  0  0
   36.6660   25.1200   40.1630 N   0  0  0  0  0  0  0  0  0  0  0  0
   37.6990   25.3920   41.0110 C   0  0  0  0  0  0  0  0  0  0  0  0
   38.7210   24.5200   41.0890 N   0  0  0  0  0  0  0  0  0  0  0  0
   39.5790   22.6990   40.4270 H   0  0  0  0  0  0  0  0  0  0  0  0
   37.6590   22.2260   38.8690 H   0  0  0  0  0  0  0  0  0  0  0  0
   35.4460   23.8000   38.4910 C   0  0  0  0  0  0  0  0  0  0  0  0
   35.0300   25.0010   37.9540 F   0  0  0  0  0  0  0  0  0  0  0  0
   35.8140   22.9570   37.4630 F   0  0  0  0  0  0  0  0  0  0  0  0
   34.4570   23.2290   39.2480 F   0  0  0  0  0  0  0  0  0  0  0  0
   38.8430   30.9220   40.8350 C   0  0  0  0  0  0  0  0  0  0  0  0
   39.2410   29.9850   41.7640 C   0  0  0  0  0  0  0  0  0  0  0  0
   40.4750   30.0720   42.3760 C   0  0  0  0  0  0  0  0  0  0  0  0
   40.8300   29.3560   43.1140 H   0  0  0  0  0  0  0  0  0  0  0  0
   41.3050   31.1340   42.0260 C   0  0  0  0  0  0  0  0  0  0  0  0
   42.2830   31.1760   42.5310 H   0  0  0  0  0  0  0  0  0  0  0  0
   40.9210   32.0820   41.0950 C   0  0  0  0  0  3  0  0  0  0  0  0
   39.6640   31.9600   40.4980 C   0  0  0  0  0  3  0  0  0  0  0  0
   37.0490   29.4930   39.6660 H   0  0  0  0  0  0  0  0  0  0  0  0
   37.2740   30.7510   40.1030 S   0  0  0  0  0  0  0  0  0  0  0  0
   36.2400   31.1940   41.1050 O   0  0  0  0  0  0  0  0  0  0  0  0
   37.1600   31.7070   38.9410 O   0  0  0  0  0  0  0  0  0  0  0  0
  1  2  1  0  0  0  0
  2  3  2  0  0  0  0
  2  7  1  0  0  0  0
  3  4  1  0  0  0  0
  4  8  1  0  0  0  0
  4  5  2  0  0  0  0
  5  9  1  0  0  0  0
  6  5  1  0  0  0  0
  6 10  1  0  0  0  0
  7  6  2  0  0  0  0
 11 17  1  0  0  0  0
 11 16  1  0  0  0  0
 12 11  2  0  0  0  0
 13 12  1  0  0  0  0
 13 14  2  0  0  0  0
 14 15  1  0  0  0  0
 15 16  2  0  0  0  0
 15  3  1  0  0  0  0
 18 12  1  0  0  0  0
 19 22  1  0  0  0  0
 19 13  1  0  0  0  0
 20 19  1  0  0  0  0
 21 19  1  0  0  0  0
 23 24  1  0  0  0  0
 24  7  1  0  0  0  0
 24 25  2  0  0  0  0
 25 26  1  0  0  0  0
 27 25  1  0  0  0  0
 27 28  1  0  0  0  0
 29 27  2  0  0  0  0
 30 23  2  0  0  0  0
 30 29  1  0  0  0  0
 31 32  1  0  0  0  0
 32 23  1  0  0  0  0
 32 33  2  0  0  0  0
 34 32  2  0  0  0  0
M  END
>  <minimizedAffinity>
-5.55483866

$$$$

 OpenBabel03252500113D

 34 36  0  0  0  0  0  0  0  0999 V2000
   38.3240   28.3050   38.1220 Cl  0  0  0  0  0  0  0  0  0  0  0  0
   36.7670   28.6150   38.8390 C   0  0  0  0  0  0  0  0  0  0  0  0
   35.6550   28.7730   38.0560 C   0  0  0  0  0  0  0  0  0  0  0  0
   34.3860   29.0240   38.5930 C   0  0  0  0  0  0  0  0  0  0  0  0
   34.3320   29.0990   39.9620 C   0  0  0  0  0  0  0  0  0  0  0  0
   35.4380   28.9430   40.7610 C   0  0  0  0  0  0  0  0  0  0  0  0
   36.6430   28.7030   40.2110 C   0  0  0  0  0  0  0  0  0  0  0  0
   33.5130   29.1480   37.9880 H   0  0  0  0  0  0  0  0  0  0  0  0
   33.3930   29.2900   40.4710 H   0  0  0  0  0  0  0  0  0  0  0  0
   35.3530   29.0110   41.8450 H   0  0  0  0  0  0  0  0  0  0  0  0
   35.8480   27.3920   34.6330 C   0  0  0  0  0  0  0  0  0  0  0  0
   36.0440   28.5510   33.8530 C   0  0  0  0  0  0  0  0  0  0  0  0
   36.1070   29.7820   34.5060 C   0  0  0  0  0  0  0  0  0  0  0  0
   35.9770   29.8070   35.8540 N   0  0  0  0  0  0  0  0  0  0  0  0
   35.7890   28.6790   36.5960 C   0  0  0  0  0  0  0  0  0  0  0  0
   35.7270   27.4910   35.9670 N   0  0  0  0  0  0  0  0  0  0  0  0
   35.7960   26.4270   34.1360 H   0  0  0  0  0  0  0  0  0  0  0  0
   36.1460   28.5270   32.7930 H   0  0  0  0  0  0  0  0  0  0  0  0
   36.3130   31.0800   33.7810 C   0  0  0  0  0  0  0  0  0  0  0  0
   36.9810   31.9820   34.5830 F   0  0  0  0  0  0  0  0  0  0  0  0
   37.0710   30.8430   32.6530 F   0  0  0  0  0  0  0  0  0  0  0  0
   35.0740   31.5490   33.4360 F   0  0  0  0  0  0  0  0  0  0  0  0
   38.3020   27.3180   41.4990 C   0  0  0  0  0  0  0  0  0  0  0  0
   37.8350   28.5340   41.0500 C   0  0  0  0  0  0  0  0  0  0  0  0
   38.4820   29.7080   41.3750 C   0  0  0  0  0  0  0  0  0  0  0  0
   38.1490   30.6890   41.0440 H   0  0  0  0  0  0  0  0  0  0  0  0
   39.6230   29.6270   42.1700 C   0  0  0  0  0  0  0  0  0  0  0  0
   40.1180   30.5810   42.4120 H   0  0  0  0  0  0  0  0  0  0  0  0
   40.1060   28.4150   42.6280 C   0  0  0  0  0  3  0  0  0  0  0  0
   39.4230   27.2480   42.2780 C   0  0  0  0  0  3  0  0  0  0  0  0
   36.4030   26.1410   40.2220 H   0  0  0  0  0  0  0  0  0  0  0  0
   37.4360   25.8770   41.0510 S   0  0  0  0  0  0  0  0  0  0  0  0
   38.4180   24.9120   40.4390 O   0  0  0  0  0  0  0  0  0  0  0  0
   36.9140   25.2030   42.2960 O   0  0  0  0  0  0  0  0  0  0  0  0
  1  2  1  0  0  0  0
  2  7  1  0  0  0  0
  3  4  1  0  0  0  0
  3  2  2  0  0  0  0
  4  5  2  0  0  0  0
  5  9  1  0  0  0  0
  5  6  1  0  0  0  0
  6 10  1  0  0  0  0
  7  6  2  0  0  0  0
  7 24  1  0  0  0  0
  8  4  1  0  0  0  0
 11 16  1  0  0  0  0
 12 13  1  0  0  0  0
 12 11  2  0  0  0  0
 13 14  2  0  0  0  0
 14 15  1  0  0  0  0
 15  3  1  0  0  0  0
 16 15  2  0  0  0  0
 17 11  1  0  0  0  0
 18 12  1  0  0  0  0
 19 13  1  0  0  0  0
 19 20  1  0  0  0  0
 21 19  1  0  0  0  0
 22 19  1  0  0  0  0
 23 30  1  0  0  0  0
 24 25  1  0  0  0  0
 24 23  2  0  0  0  0
 25 27  2  0  0  0  0
 26 25  1  0  0  0  0
 27 28  1  0  0  0  0
 27 29  1  0  0  0  0
 30 29  2  0  0  0  0
 31 32  1  0  0  0  0
 32 23  1  0  0  0  0
 32 34  2  0  0  0  0
 33 32  2  0  0  0  0
M  END
>  <minimizedAffinity>
-5.54427958

$$$$
