
 OpenBabel03252502243D

 37 39  0  0  1  0  0  0  0  0999 V2000
   46.6450   34.4620   42.2750 N   0  0  0  0  0  0  0  0  0  0  0  0
   48.0790   34.2340   42.3090 C   0  0  0  0  0  0  0  0  0  0  0  0
   48.6020   34.9980   41.0780 C   0  0  0  0  0  0  0  0  0  0  0  0
   48.0980   34.3530   39.8260 C   0  0  0  0  0  0  0  0  0  0  0  0
   46.6740   33.9140   39.8870 C   0  0  0  0  0  0  0  0  0  0  0  0
   45.8920   34.4190   41.0480 C   0  0  1  0  0  0  0  0  0  0  0  0
   48.2680   33.1690   42.0820 H   0  0  0  0  0  0  0  0  0  0  0  0
   48.5370   34.6020   43.2260 H   0  0  0  0  0  0  0  0  0  0  0  0
   49.7120   34.9050   41.1070 H   0  0  0  0  0  0  0  0  0  0  0  0
   48.3450   36.0680   41.1650 H   0  0  0  0  0  0  0  0  0  0  0  0
   48.2660   35.1020   39.0020 H   0  0  0  0  0  0  0  0  0  0  0  0
   48.8030   33.5260   39.5720 H   0  0  0  0  0  0  0  0  0  0  0  0
   46.6700   32.7980   39.7770 H   0  0  0  0  0  0  0  0  0  0  0  0
   46.1680   34.2790   38.9690 H   0  0  0  0  0  0  0  0  0  0  0  0
   45.5450   35.4510   40.8480 H   0  0  0  0  0  0  0  0  0  0  0  0
   44.4740   36.0860   44.8490 C   0  0  0  0  0  0  0  0  0  0  0  0
   45.1360   35.9110   43.6200 C   0  0  0  0  0  0  0  0  0  0  0  0
   45.9280   34.7400   43.4810 C   0  0  0  0  0  0  0  0  0  0  0  0
   45.9950   33.8750   44.5310 N   0  0  0  0  0  0  0  0  0  0  0  0
   45.3260   34.1050   45.6950 C   0  0  0  0  0  0  0  0  0  0  0  0
   44.5680   35.2170   45.8390 N   0  0  0  0  0  0  0  0  0  0  0  0
   43.8770   36.9860   44.9290 H   0  0  0  0  0  0  0  0  0  0  0  0
   45.0780   36.6040   42.7890 H   0  0  0  0  0  0  0  0  0  0  0  0
   45.4850   33.3210   46.4270 H   0  0  0  0  0  0  0  0  0  0  0  0
   44.7810   33.6000   41.2290 O   0  0  0  0  0  0  0  0  0  0  0  0
   42.6390   32.8350   41.3970 C   0  0  0  0  0  0  0  0  0  0  0  0
   43.4680   33.8910   40.9940 C   0  0  0  0  0  0  0  0  0  0  0  0
   42.8860   35.0170   40.4480 C   0  0  0  0  0  0  0  0  0  0  0  0
   43.6040   35.7750   40.1690 H   0  0  0  0  0  0  0  0  0  0  0  0
   41.5220   35.1330   40.2860 C   0  0  0  0  0  0  0  0  0  0  0  0
   41.1570   36.0510   39.8500 H   0  0  0  0  0  0  0  0  0  0  0  0
   40.7180   34.0700   40.6940 C   0  0  0  0  0  3  0  0  0  0  0  0
   41.2510   32.9230   41.2460 C   0  0  0  0  0  3  0  0  0  0  0  0
   44.1840   31.5330   43.0270 H   0  0  0  0  0  0  0  0  0  0  0  0
   43.2070   31.3270   42.1110 S   0  0  0  0  0  0  0  0  0  0  0  0
   42.0790   30.6230   42.7610 O   0  0  0  0  0  0  0  0  0  0  0  0
   43.6950   30.4640   40.9680 O   0  0  0  0  0  0  0  0  0  0  0  0
  1  2  1  0  0  0  0
  1 18  1  0  0  0  0
  2  8  1  0  0  0  0
  3  9  1  0  0  0  0
  3 10  1  0  0  0  0
  3  2  1  0  0  0  0
  4  5  1  0  0  0  0
  4  3  1  0  0  0  0
  5  6  1  0  0  0  0
  6 15  1  6  0  0  0
  6 25  1  0  0  0  0
  6  1  1  0  0  0  0
  7  2  1  0  0  0  0
 11  4  1  0  0  0  0
 12  4  1  0  0  0  0
 13  5  1  0  0  0  0
 14  5  1  0  0  0  0
 16 22  1  0  0  0  0
 16 21  1  0  0  0  0
 17 16  2  0  0  0  0
 18 17  1  0  0  0  0
 18 19  2  0  0  0  0
 19 20  1  0  0  0  0
 20 21  2  0  0  0  0
 20 24  1  0  0  0  0
 23 17  1  0  0  0  0
 26 35  1  0  0  0  0
 27 25  1  0  0  0  0
 27 26  2  0  0  0  0
 28 27  1  0  0  0  0
 29 28  1  0  0  0  0
 30 28  2  0  0  0  0
 30 32  1  0  0  0  0
 31 30  1  0  0  0  0
 32 33  2  0  0  0  0
 33 26  1  0  0  0  0
 35 36  2  0  0  0  0
 35 34  1  0  0  0  0
 37 35  2  0  0  0  0
M  END
>  <minimizedAffinity>
-5.62846184

>  <minimizedRMSD>
1.44201243

$$$$
