
 OpenBabel03242511283D

 37 40  0  0  0  0  0  0  0  0999 V2000
   45.3610   33.2180   41.0690 Cl  0  0  0  0  0  0  0  0  0  0  0  0
   46.7840   34.1860   41.0260 C   0  0  0  0  0  0  0  0  0  0  0  0
   47.1540   34.9220   42.1290 C   0  0  0  0  0  0  0  0  0  0  0  0
   48.2930   35.7210   42.1370 C   0  0  0  0  0  0  0  0  0  0  0  0
   49.0220   35.7290   40.9760 C   0  0  0  0  0  0  0  0  0  0  0  0
   48.6650   35.0090   39.8850 C   0  0  0  0  0  0  0  0  0  0  0  0
   47.5210   34.2110   39.8900 C   0  0  0  0  0  0  0  0  0  0  0  0
   48.5320   36.2700   43.0240 H   0  0  0  0  0  0  0  0  0  0  0  0
   49.9170   36.3650   41.0040 H   0  0  0  0  0  0  0  0  0  0  0  0
   49.3370   35.1110   39.0340 H   0  0  0  0  0  0  0  0  0  0  0  0
   45.7660   33.8320   45.3800 C   0  0  0  0  0  0  0  0  0  0  0  0
   44.7580   34.7580   45.6040 C   0  0  0  0  0  0  0  0  0  0  0  0
   44.5570   35.7390   44.6600 C   0  0  0  0  0  0  0  0  0  0  0  0
   45.3420   35.7710   43.5500 N   0  0  0  0  0  0  0  0  0  0  0  0
   46.3230   34.8610   43.3390 C   0  0  0  0  0  0  0  0  0  0  0  0
   46.5160   33.9050   44.2630 N   0  0  0  0  0  0  0  0  0  0  0  0
   45.9350   33.0500   46.1200 H   0  0  0  0  0  0  0  0  0  0  0  0
   44.1220   34.7540   46.4800 H   0  0  0  0  0  0  0  0  0  0  0  0
   43.7710   36.4690   44.8280 H   0  0  0  0  0  0  0  0  0  0  0  0
   47.2820   33.5000   38.6290 C   0  0  0  0  0  0  0  0  0  0  0  0
   46.0190   33.0200   38.3560 C   0  0  0  0  0  0  0  0  0  0  0  0
   46.2250   32.2290   36.6990 S   0  0  0  0  0  0  0  0  0  0  0  0
   48.0690   32.7210   36.6880 C   0  0  0  0  0  0  0  0  0  0  0  0
   48.1120   33.2330   37.6700 N   0  0  0  0  0  0  0  0  0  0  0  0
   45.0910   33.0690   38.9390 H   0  0  0  0  0  0  0  0  0  0  0  0
   49.8080   31.3690   35.5260 C   0  0  0  0  0  0  0  0  0  0  0  0
   48.8160   32.2940   35.4510 C   0  0  0  0  0  0  0  0  0  0  0  0
   48.5450   32.7930   34.2140 C   0  0  0  0  0  0  0  0  0  0  0  0
   47.7780   33.5270   34.0630 H   0  0  0  0  0  0  0  0  0  0  0  0
   49.1990   32.4260   33.0630 C   0  0  0  0  0  0  0  0  0  0  0  0
   48.9690   32.8310   32.1000 H   0  0  0  0  0  0  0  0  0  0  0  0
   50.1990   31.4870   33.1720 C   0  0  0  0  0  0  0  0  0  0  0  0
   50.5010   30.9600   34.4060 C   0  0  0  0  0  0  0  0  0  0  0  0
   49.0700   30.4750   37.8380 H   0  0  0  0  0  0  0  0  0  0  0  0
   50.1820   30.7160   37.0930 S   0  0  0  0  0  0  0  0  0  0  0  0
   51.2230   31.5340   37.7580 O   0  0  0  0  0  0  0  0  0  0  0  0
   50.8190   29.3490   36.8600 O   0  0  0  0  0  0  0  0  0  0  0  0
  2  1  1  0  0  0  0
  2  3  1  0  0  0  0
  3  4  2  0  0  0  0
  3 15  1  0  0  0  0
  4  8  1  0  0  0  0
  5  9  1  0  0  0  0
  5  4  1  0  0  0  0
  6  7  1  0  0  0  0
  6  5  2  0  0  0  0
  7  2  2  0  0  0  0
 10  6  1  0  0  0  0
 11 12  1  0  0  0  0
 11 17  1  0  0  0  0
 12 18  1  0  0  0  0
 13 19  1  0  0  0  0
 13 12  2  0  0  0  0
 14 13  1  0  0  0  0
 15 14  2  0  0  0  0
 15 16  1  0  0  0  0
 16 11  2  0  0  0  0
 20  7  1  0  0  0  0
 21 20  2  0  0  0  0
 21 25  1  0  0  0  0
 22 21  1  0  0  0  0
 23 22  1  0  0  0  0
 23 24  2  0  0  0  0
 24 20  1  0  0  0  0
 26 35  1  0  0  0  0
 27 26  1  0  0  0  0
 27 23  1  0  0  0  0
 28 27  2  0  0  0  0
 29 28  1  0  0  0  0
 30 32  2  0  0  0  0
 30 28  1  0  0  0  0
 31 30  1  0  0  0  0
 32 33  1  0  0  0  0
 33 26  2  0  0  0  0
 35 36  2  0  0  0  0
 35 34  1  0  0  0  0
 37 35  2  0  0  0  0
M  END
>  <minimizedAffinity>
-6.2650733

>  <minimizedRMSD>
4.3299799

$$$$
