
 OpenBabel03252507323D

 52 55  0  0  1  0  0  0  0  0999 V2000
   46.9730   32.7300   45.5480 C   0  0  0  0  0  0  0  0  0  0  0  0
   45.8910   33.4090   46.0920 C   0  0  0  0  0  0  0  0  0  0  0  0
   45.2110   34.3770   45.3170 C   0  0  0  0  0  0  0  0  0  0  0  0
   45.6920   34.5870   44.0280 N   0  0  0  0  0  0  0  0  0  0  0  0
   46.7430   33.9000   43.5650 C   0  0  0  0  0  0  0  0  0  0  0  0
   47.3720   32.9880   44.3080 N   0  0  0  0  0  0  0  0  0  0  0  0
   45.3890   33.4360   47.0370 H   0  0  0  0  0  0  0  0  0  0  0  0
   44.3790   34.9810   45.5570 H   0  0  0  0  0  0  0  0  0  0  0  0
   47.6210   31.7330   46.3760 C   0  0  2  0  0  0  0  0  0  0  0  0
   47.3770   30.2920   45.8320 C   0  0  0  0  0  0  0  0  0  0  0  0
   48.1960   29.3260   46.6150 C   0  0  0  0  0  0  0  0  0  0  0  0
   48.1790   29.5060   48.0970 C   0  0  0  0  0  0  0  0  0  0  0  0
   48.1730   30.8810   48.5290 C   0  0  0  0  0  0  0  0  0  0  0  0
   47.1800   31.7750   47.7560 C   0  0  2  0  0  0  0  0  0  0  0  0
   48.7200   31.8410   46.2770 H   0  0  0  0  0  0  0  0  0  0  0  0
   46.3050   30.0810   45.7790 H   0  0  0  0  0  0  0  0  0  0  0  0
   47.7400   30.3460   44.7840 H   0  0  0  0  0  0  0  0  0  0  0  0
   49.1910   29.2970   46.1310 H   0  0  0  0  0  0  0  0  0  0  0  0
   47.7590   28.3040   46.4120 H   0  0  0  0  0  0  0  0  0  0  0  0
   49.2920   29.2470   48.3210 H   0  0  0  0  0  0  0  0  0  0  0  0
   47.8060   28.6860   48.7120 H   0  0  0  0  0  0  0  0  0  0  0  0
   49.1300   31.4590   48.5170 H   0  0  0  0  0  0  0  0  0  0  0  0
   47.8180   30.9480   49.5980 H   0  0  0  0  0  0  0  0  0  0  0  0
   47.2990   32.7240   48.2820 H   0  0  0  0  0  0  0  0  0  0  0  0
   45.8430   31.1890   47.8730 N   0  0  0  0  0  0  0  0  0  0  0  0
   45.1510   30.6500   48.9720 C   0  0  0  0  0  0  0  0  0  0  0  0
   44.6010   31.3780   49.8750 O   0  0  0  0  0  0  0  0  0  0  0  0
   45.1000   29.2250   49.0050 N   0  0  0  0  0  0  0  0  0  0  0  0
   45.2030   31.0370   47.0030 H   0  0  0  0  0  0  0  0  0  0  0  0
   44.6620   28.6330   48.2690 H   0  0  0  0  0  0  0  0  0  0  0  0
   45.3850   28.3990   49.5890 H   0  0  0  0  0  0  0  0  0  0  0  0
   47.2140   34.1850   42.2060 C   0  0  0  0  0  0  0  0  0  0  0  0
   48.1970   35.1100   41.9720 C   0  0  0  0  0  0  0  0  0  0  0  0
   48.6690   35.4090   40.7110 C   0  0  0  0  0  0  0  0  0  0  0  0
   48.0830   34.7070   39.6630 C   0  0  0  0  0  0  0  0  0  0  0  0
   47.0960   33.7770   39.8850 C   0  0  0  0  0  0  0  0  0  0  0  0
   46.6850   33.5370   41.1590 N   0  0  0  0  0  0  0  0  0  0  0  0
   48.6100   35.6180   42.8210 H   0  0  0  0  0  0  0  0  0  0  0  0
   49.4440   36.1460   40.5860 H   0  0  0  0  0  0  0  0  0  0  0  0
   48.4670   34.9580   38.6930 H   0  0  0  0  0  0  0  0  0  0  0  0
   45.1060   32.9890   38.6680 C   0  0  0  0  0  0  0  0  0  0  0  0
   46.4860   33.0470   38.7950 C   0  0  0  0  0  0  0  0  0  0  0  0
   47.2310   32.3850   37.8440 C   0  0  0  0  0  0  0  0  0  0  0  0
   48.3110   32.3760   37.8630 H   0  0  0  0  0  0  0  0  0  0  0  0
   46.6960   31.6760   36.7880 C   0  0  0  0  0  0  0  0  0  0  0  0
   47.3080   31.1630   36.0510 H   0  0  0  0  0  0  0  0  0  0  0  0
   45.3420   31.6050   36.6440 C   0  0  0  0  0  3  0  0  0  0  0  0
   44.5840   32.2640   37.5890 C   0  0  0  0  0  3  0  0  0  0  0  0
   44.6360   34.8040   40.4680 H   0  0  0  0  0  0  0  0  0  0  0  0
   44.0190   33.7740   39.7910 S   0  0  0  0  0  0  0  0  0  0  0  0
   42.9280   34.4520   38.9710 O   0  0  0  0  0  0  0  0  0  0  0  0
   43.3470   32.8020   40.7230 O   0  0  0  0  0  0  0  0  0  0  0  0
  1  2  1  0  0  0  0
  1  9  1  0  0  0  0
  2  7  1  0  0  0  0
  3  8  1  0  0  0  0
  3  2  2  0  0  0  0
  4  3  1  0  0  0  0
  5  4  2  0  0  0  0
  5  6  1  0  0  0  0
  6  1  2  0  0  0  0
  9 15  1  6  0  0  0
  9 14  1  0  0  0  0
 10  9  1  0  0  0  0
 10 11  1  0  0  0  0
 11 12  1  0  0  0  0
 12 20  1  0  0  0  0
 12 13  1  0  0  0  0
 12 21  1  0  0  0  0
 13 23  1  0  0  0  0
 14 25  1  0  0  0  0
 14 24  1  1  0  0  0
 14 13  1  0  0  0  0
 16 10  1  0  0  0  0
 17 10  1  0  0  0  0
 18 11  1  0  0  0  0
 19 11  1  0  0  0  0
 22 13  1  0  0  0  0
 25 26  1  0  0  0  0
 26 28  1  0  0  0  0
 26 27  2  0  0  0  0
 28 31  1  0  0  0  0
 29 25  1  0  0  0  0
 30 28  1  0  0  0  0
 32  5  1  0  0  0  0
 33 32  1  0  0  0  0
 33 38  1  0  0  0  0
 34 33  2  0  0  0  0
 35 36  2  0  0  0  0
 35 34  1  0  0  0  0
 36 37  1  0  0  0  0
 37 32  2  0  0  0  0
 39 34  1  0  0  0  0
 40 35  1  0  0  0  0
 41 42  1  0  0  0  0
 41 50  1  0  0  0  0
 42 36  1  0  0  0  0
 43 44  1  0  0  0  0
 43 42  2  0  0  0  0
 45 43  1  0  0  0  0
 46 45  1  0  0  0  0
 47 45  2  0  0  0  0
 47 48  1  0  0  0  0
 48 41  2  0  0  0  0
 50 49  1  0  0  0  0
 50 52  2  0  0  0  0
 51 50  2  0  0  0  0
M  END
>  <minimizedAffinity>
-6.46154022

>  <minimizedRMSD>
0.491807789

$$$$
