
 OpenBabel03242515393D

 39 42  0  0  0  0  0  0  0  0999 V2000
   43.7960   34.6460   40.7920 C   0  0  0  0  0  0  0  0  0  0  0  0
   43.7180   33.9780   39.5980 C   0  0  0  0  0  0  0  0  0  0  0  0
   44.8770   33.4090   39.0770 C   0  0  0  0  0  0  0  0  0  0  0  0
   46.0230   33.5590   39.8040 N   0  0  0  0  0  0  0  0  0  0  0  0
   46.0700   34.2160   40.9680 C   0  0  0  0  0  0  0  0  0  0  0  0
   44.9540   34.7450   41.4330 N   0  0  0  0  0  0  0  0  0  0  0  0
   42.7900   33.8650   39.1040 H   0  0  0  0  0  0  0  0  0  0  0  0
   44.2500   31.5720   37.4250 C   0  0  0  0  0  0  0  0  0  0  0  0
   45.0130   32.6190   37.8770 C   0  0  0  0  0  0  0  0  0  0  0  0
   46.0500   32.9800   37.0090 C   0  0  0  0  0  0  0  0  0  0  0  0
   46.7170   33.8050   37.2720 H   0  0  0  0  0  0  0  0  0  0  0  0
   46.3480   32.3910   35.8030 C   0  0  0  0  0  0  0  0  0  0  0  0
   47.1670   32.7250   35.1850 H   0  0  0  0  0  0  0  0  0  0  0  0
   45.5720   31.3450   35.3770 C   0  0  0  0  0  0  0  0  0  0  0  0
   44.5440   30.9630   36.1980 C   0  0  0  0  0  0  0  0  0  0  0  0
   42.4200   29.8550   37.6200 H   0  0  0  0  0  0  0  0  0  0  0  0
   42.8510   31.0190   38.2890 S   0  0  0  0  0  0  0  0  0  0  0  0
   43.1150   30.6260   39.6880 O   0  0  0  0  0  0  0  0  0  0  0  0
   41.6750   31.9380   38.1950 O   0  0  0  0  0  0  0  0  0  0  0  0
   42.2550   35.3650   41.4120 S   0  0  0  0  0  0  0  0  0  0  0  0
   39.8690   34.8270   40.2970 C   0  0  0  0  0  0  0  0  0  0  0  0
   40.8840   34.2840   41.0840 C   0  0  0  0  0  0  0  0  0  0  0  0
   40.7960   33.0000   41.5560 C   0  0  0  0  0  0  0  0  0  0  0  0
   39.7100   32.1900   41.2770 C   0  0  0  0  0  0  0  0  0  0  0  0
   38.6820   32.7430   40.4780 C   0  0  0  0  0  0  0  0  0  0  0  0
   38.7540   34.0420   39.9920 C   0  0  0  0  0  0  0  0  0  0  0  0
   37.6930   31.7430   40.3320 O   0  0  0  0  0  0  0  0  0  0  0  0
   37.9820   30.7580   41.2910 C   0  0  0  0  0  0  0  0  0  0  0  0
   39.3560   30.8830   41.6100 O   0  0  0  0  0  0  0  0  0  0  0  0
   39.8490   35.8260   39.8800 H   0  0  0  0  0  0  0  0  0  0  0  0
   41.6040   32.6140   42.1640 H   0  0  0  0  0  0  0  0  0  0  0  0
   37.9560   34.4310   39.3870 H   0  0  0  0  0  0  0  0  0  0  0  0
   37.3350   30.7900   42.1760 H   0  0  0  0  0  0  0  0  0  0  0  0
   37.8320   29.7720   40.7990 H   0  0  0  0  0  0  0  0  0  0  0  0
   47.2080   34.3840   41.7230 O   0  0  0  0  0  0  0  0  0  0  0  0
   48.3670   34.8900   41.1320 C   0  0  0  0  0  0  0  0  0  0  0  0
   49.4640   34.1130   41.3380 F   0  0  0  0  0  0  0  0  0  0  0  0
   48.0430   35.0530   39.7730 F   0  0  0  0  0  0  0  0  0  0  0  0
   48.6120   36.1320   41.7140 F   0  0  0  0  0  0  0  0  0  0  0  0
  1 20  1  0  0  0  0
  1  6  1  0  0  0  0
  2  1  2  0  0  0  0
  3  2  1  0  0  0  0
  3  4  2  0  0  0  0
  4  5  1  0  0  0  0
  5  6  2  0  0  0  0
  5 35  1  0  0  0  0
  7  2  1  0  0  0  0
  8  9  1  0  0  0  0
  8 17  1  0  0  0  0
  9  3  1  0  0  0  0
 10 11  1  0  0  0  0
 10  9  2  0  0  0  0
 12 10  1  0  0  0  0
 13 12  1  0  0  0  0
 14 12  2  0  0  0  0
 14 15  1  0  0  0  0
 15  8  2  0  0  0  0
 16 17  1  0  0  0  0
 17 18  2  0  0  0  0
 19 17  2  0  0  0  0
 21 22  1  0  0  0  0
 22 20  1  0  0  0  0
 22 23  2  0  0  0  0
 23 31  1  0  0  0  0
 24 23  1  0  0  0  0
 24 29  1  0  0  0  0
 25 24  2  0  0  0  0
 26 21  2  0  0  0  0
 26 25  1  0  0  0  0
 27 25  1  0  0  0  0
 27 28  1  0  0  0  0
 28 29  1  0  0  0  0
 28 33  1  0  0  0  0
 30 21  1  0  0  0  0
 32 26  1  0  0  0  0
 34 28  1  0  0  0  0
 36 37  1  0  0  0  0
 36 39  1  0  0  0  0
 36 35  1  0  0  0  0
 38 36  1  0  0  0  0
M  END
>  <minimizedAffinity>
-5.91110945

>  <minimizedRMSD>
0.929787099

$$$$
