
 OpenBabel03242511303D

 37 40  0  0  0  0  0  0  0  0999 V2000
   40.2310   30.3110   38.3970 Cl  0  0  0  0  0  0  0  0  0  0  0  0
   39.2370   31.5540   39.0530 C   0  0  0  0  0  0  0  0  0  0  0  0
   39.7590   32.8050   39.2910 C   0  0  0  0  0  0  0  0  0  0  0  0
   38.9940   33.8380   39.8240 C   0  0  0  0  0  0  0  0  0  0  0  0
   37.6870   33.5290   40.0980 C   0  0  0  0  0  0  0  0  0  0  0  0
   37.1630   32.3000   39.8680 C   0  0  0  0  0  0  0  0  0  0  0  0
   37.9420   31.2740   39.3330 C   0  0  0  0  0  0  0  0  0  0  0  0
   39.4540   34.7900   39.9860 H   0  0  0  0  0  0  0  0  0  0  0  0
   37.1000   34.3570   40.5170 H   0  0  0  0  0  0  0  0  0  0  0  0
   36.1120   32.1970   40.1330 H   0  0  0  0  0  0  0  0  0  0  0  0
   42.8180   33.7710   37.4480 C   0  0  0  0  0  0  0  0  0  0  0  0
   43.8180   33.5410   38.3800 C   0  0  0  0  0  0  0  0  0  0  0  0
   43.4540   33.0630   39.6190 C   0  0  0  0  0  0  0  0  0  0  0  0
   42.1390   32.8350   39.8880 N   0  0  0  0  0  0  0  0  0  0  0  0
   41.1700   33.0620   38.9710 C   0  0  0  0  0  0  0  0  0  0  0  0
   41.5300   33.5280   37.7630 N   0  0  0  0  0  0  0  0  0  0  0  0
   43.0940   34.1490   36.4640 H   0  0  0  0  0  0  0  0  0  0  0  0
   44.8690   33.7150   38.1900 H   0  0  0  0  0  0  0  0  0  0  0  0
   44.2300   32.8810   40.3550 H   0  0  0  0  0  0  0  0  0  0  0  0
   37.2200   30.0090   39.1480 C   0  0  0  0  0  0  0  0  0  0  0  0
   36.1810   29.9520   38.2440 C   0  0  0  0  0  0  0  0  0  0  0  0
   35.6150   28.1980   38.3720 S   0  0  0  0  0  0  0  0  0  0  0  0
   36.9550   27.8560   39.6880 C   0  0  0  0  0  0  0  0  0  0  0  0
   37.4100   28.8670   39.7300 N   0  0  0  0  0  0  0  0  0  0  0  0
   35.7570   30.7230   37.5880 H   0  0  0  0  0  0  0  0  0  0  0  0
   37.0830   26.1920   41.5350 C   0  0  0  0  0  0  0  0  0  0  0  0
   36.9680   26.4420   40.2040 C   0  0  0  0  0  0  0  0  0  0  0  0
   36.8640   25.3550   39.3910 C   0  0  0  0  0  0  0  0  0  0  0  0
   36.7690   25.4600   38.3280 H   0  0  0  0  0  0  0  0  0  0  0  0
   36.8660   24.0520   39.8240 C   0  0  0  0  0  0  0  0  0  0  0  0
   36.7820   23.2120   39.1650 H   0  0  0  0  0  0  0  0  0  0  0  0
   36.9840   23.8310   41.1770 C   0  0  0  0  0  3  0  0  0  0  0  0
   37.0920   24.9040   42.0310 C   0  0  0  0  0  3  0  0  0  0  0  0
   36.9330   28.7340   41.9830 H   0  0  0  0  0  0  0  0  0  0  0  0
   37.2250   27.5580   42.6000 S   0  0  0  0  0  0  0  0  0  0  0  0
   38.5220   27.5220   43.3160 O   0  0  0  0  0  0  0  0  0  0  0  0
   36.1560   27.3880   43.6770 O   0  0  0  0  0  0  0  0  0  0  0  0
  1  2  1  0  0  0  0
  2  3  2  0  0  0  0
  2  7  1  0  0  0  0
  3  4  1  0  0  0  0
  4  8  1  0  0  0  0
  4  5  2  0  0  0  0
  5  9  1  0  0  0  0
  6  5  1  0  0  0  0
  6 10  1  0  0  0  0
  7  6  2  0  0  0  0
 11 16  2  0  0  0  0
 11 12  1  0  0  0  0
 12 13  2  0  0  0  0
 13 14  1  0  0  0  0
 13 19  1  0  0  0  0
 15  3  1  0  0  0  0
 15 14  2  0  0  0  0
 16 15  1  0  0  0  0
 17 11  1  0  0  0  0
 18 12  1  0  0  0  0
 20  7  1  0  0  0  0
 20 24  1  0  0  0  0
 21 22  1  0  0  0  0
 21 20  2  0  0  0  0
 22 23  1  0  0  0  0
 23 24  2  0  0  0  0
 23 27  1  0  0  0  0
 25 21  1  0  0  0  0
 26 33  1  0  0  0  0
 26 35  1  0  0  0  0
 27 26  2  0  0  0  0
 28 30  2  0  0  0  0
 28 27  1  0  0  0  0
 29 28  1  0  0  0  0
 30 32  1  0  0  0  0
 31 30  1  0  0  0  0
 32 33  2  0  0  0  0
 34 35  1  0  0  0  0
 35 36  2  0  0  0  0
 35 37  2  0  0  0  0
M  END
>  <minimizedAffinity>
-6.18466377

$$$$

 OpenBabel03242511303D

 37 40  0  0  0  0  0  0  0  0999 V2000
   40.7330   30.2740   40.4630 Cl  0  0  0  0  0  0  0  0  0  0  0  0
   39.2630   31.1510   40.2750 C   0  0  0  0  0  0  0  0  0  0  0  0
   39.2600   32.3680   39.6320 C   0  0  0  0  0  0  0  0  0  0  0  0
   38.0980   33.1120   39.4620 C   0  0  0  0  0  0  0  0  0  0  0  0
   36.9550   32.5560   39.9750 C   0  0  0  0  0  0  0  0  0  0  0  0
   36.9470   31.3590   40.6100 C   0  0  0  0  0  0  0  0  0  0  0  0
   38.1200   30.6220   40.7740 C   0  0  0  0  0  0  0  0  0  0  0  0
   38.1570   34.0520   38.9530 H   0  0  0  0  0  0  0  0  0  0  0  0
   36.0490   33.1590   39.8300 H   0  0  0  0  0  0  0  0  0  0  0  0
   35.9690   31.0400   40.9670 H   0  0  0  0  0  0  0  0  0  0  0  0
   42.0630   33.1280   37.3410 C   0  0  0  0  0  0  0  0  0  0  0  0
   42.8990   33.9020   38.1310 C   0  0  0  0  0  0  0  0  0  0  0  0
   42.5110   34.1610   39.4270 C   0  0  0  0  0  0  0  0  0  0  0  0
   41.3340   33.6560   39.8860 N   0  0  0  0  0  0  0  0  0  0  0  0
   40.5250   32.9000   39.1070 C   0  0  0  0  0  0  0  0  0  0  0  0
   40.9080   32.6500   37.8440 N   0  0  0  0  0  0  0  0  0  0  0  0
   42.3600   32.9160   36.3140 H   0  0  0  0  0  0  0  0  0  0  0  0
   43.8390   34.3160   37.7880 H   0  0  0  0  0  0  0  0  0  0  0  0
   43.1580   34.7670   40.0520 H   0  0  0  0  0  0  0  0  0  0  0  0
   37.9340   29.3500   41.4830 C   0  0  0  0  0  0  0  0  0  0  0  0
   37.7270   29.3620   42.8450 C   0  0  0  0  0  0  0  0  0  0  0  0
   37.5520   27.5700   43.2540 S   0  0  0  0  0  0  0  0  0  0  0  0
   37.8040   27.1200   41.4160 C   0  0  0  0  0  0  0  0  0  0  0  0
   37.9310   28.1430   41.0090 N   0  0  0  0  0  0  0  0  0  0  0  0
   37.6700   30.1970   43.5550 H   0  0  0  0  0  0  0  0  0  0  0  0
   38.8510   24.8630   41.3080 C   0  0  0  0  0  0  0  0  0  0  0  0
   37.7530   25.6430   41.1280 C   0  0  0  0  0  0  0  0  0  0  0  0
   36.6290   25.0140   40.6850 C   0  0  0  0  0  0  0  0  0  0  0  0
   35.7180   25.5520   40.5160 H   0  0  0  0  0  0  0  0  0  0  0  0
   36.5410   23.6700   40.4170 C   0  0  0  0  0  0  0  0  0  0  0  0
   35.6460   23.1960   40.0690 H   0  0  0  0  0  0  0  0  0  0  0  0
   37.6700   22.9070   40.6080 C   0  0  0  0  0  3  0  0  0  0  0  0
   38.8240   23.5070   41.0550 C   0  0  0  0  0  3  0  0  0  0  0  0
   40.1730   26.9870   41.9600 H   0  0  0  0  0  0  0  0  0  0  0  0
   40.3030   25.6370   41.8680 S   0  0  0  0  0  0  0  0  0  0  0  0
   41.4720   25.1650   41.0890 O   0  0  0  0  0  0  0  0  0  0  0  0
   40.5370   25.1520   43.2960 O   0  0  0  0  0  0  0  0  0  0  0  0
  2  1  1  0  0  0  0
  2  7  1  0  0  0  0
  3  2  2  0  0  0  0
  4  3  1  0  0  0  0
  4  5  2  0  0  0  0
  5  6  1  0  0  0  0
  6  7  2  0  0  0  0
  6 10  1  0  0  0  0
  7 20  1  0  0  0  0
  8  4  1  0  0  0  0
  9  5  1  0  0  0  0
 11 16  2  0  0  0  0
 11 12  1  0  0  0  0
 12 13  2  0  0  0  0
 13 14  1  0  0  0  0
 13 19  1  0  0  0  0
 15  3  1  0  0  0  0
 15 14  2  0  0  0  0
 16 15  1  0  0  0  0
 17 11  1  0  0  0  0
 18 12  1  0  0  0  0
 20 21  2  0  0  0  0
 21 22  1  0  0  0  0
 21 25  1  0  0  0  0
 23 22  1  0  0  0  0
 24 23  2  0  0  0  0
 24 20  1  0  0  0  0
 26 35  1  0  0  0  0
 27 26  1  0  0  0  0
 27 23  1  0  0  0  0
 28 27  2  0  0  0  0
 29 28  1  0  0  0  0
 30 32  2  0  0  0  0
 30 28  1  0  0  0  0
 31 30  1  0  0  0  0
 32 33  1  0  0  0  0
 33 26  2  0  0  0  0
 35 34  1  0  0  0  0
 35 37  2  0  0  0  0
 36 35  2  0  0  0  0
M  END
>  <minimizedAffinity>
-5.90147209

$$$$

 OpenBabel03242511303D

 37 40  0  0  0  0  0  0  0  0999 V2000
   38.4630   27.8430   39.2900 Cl  0  0  0  0  0  0  0  0  0  0  0  0
   38.0780   28.0300   40.9580 C   0  0  0  0  0  0  0  0  0  0  0  0
   37.7370   26.9340   41.7170 C   0  0  0  0  0  0  0  0  0  0  0  0
   37.4140   27.0390   43.0660 C   0  0  0  0  0  0  0  0  0  0  0  0
   37.4580   28.3040   43.5910 C   0  0  0  0  0  0  0  0  0  0  0  0
   37.7930   29.3900   42.8520 C   0  0  0  0  0  0  0  0  0  0  0  0
   38.1150   29.2710   41.5000 C   0  0  0  0  0  0  0  0  0  0  0  0
   37.1570   26.1510   43.6060 H   0  0  0  0  0  0  0  0  0  0  0  0
   37.2010   28.3660   44.6570 H   0  0  0  0  0  0  0  0  0  0  0  0
   37.7860   30.3320   43.3990 H   0  0  0  0  0  0  0  0  0  0  0  0
   36.5480   23.9230   39.9260 C   0  0  0  0  0  0  0  0  0  0  0  0
   37.6780   23.1200   39.9000 C   0  0  0  0  0  0  0  0  0  0  0  0
   38.8290   23.6000   40.4850 C   0  0  0  0  0  0  0  0  0  0  0  0
   38.8220   24.8320   41.0630 N   0  0  0  0  0  0  0  0  0  0  0  0
   37.7130   25.6080   41.0840 C   0  0  0  0  0  0  0  0  0  0  0  0
   36.5920   25.1350   40.5130 N   0  0  0  0  0  0  0  0  0  0  0  0
   35.6320   23.5540   39.4670 H   0  0  0  0  0  0  0  0  0  0  0  0
   37.7090   22.1380   39.4460 H   0  0  0  0  0  0  0  0  0  0  0  0
   39.7190   22.9790   40.4690 H   0  0  0  0  0  0  0  0  0  0  0  0
   38.4530   30.5430   40.8510 C   0  0  0  0  0  0  0  0  0  0  0  0
   37.4790   31.5080   40.7140 C   0  0  0  0  0  0  0  0  0  0  0  0
   38.3730   32.8820   39.8620 S   0  0  0  0  0  0  0  0  0  0  0  0
   39.9730   31.8410   39.8510 C   0  0  0  0  0  0  0  0  0  0  0  0
   39.5850   30.9330   40.3550 N   0  0  0  0  0  0  0  0  0  0  0  0
   36.4240   31.5120   41.0160 H   0  0  0  0  0  0  0  0  0  0  0  0
   42.2730   32.7920   39.9430 C   0  0  0  0  0  0  0  0  0  0  0  0
   41.1540   32.5280   39.2180 C   0  0  0  0  0  0  0  0  0  0  0  0
   41.1750   32.9110   37.9120 C   0  0  0  0  0  0  0  0  0  0  0  0
   40.3350   32.7420   37.2670 H   0  0  0  0  0  0  0  0  0  0  0  0
   42.2330   33.5330   37.2970 C   0  0  0  0  0  0  0  0  0  0  0  0
   42.2280   33.8260   36.2670 H   0  0  0  0  0  0  0  0  0  0  0  0
   43.3520   33.7880   38.0580 C   0  0  0  0  0  3  0  0  0  0  0  0
   43.3680   33.4150   39.3820 C   0  0  0  0  0  3  0  0  0  0  0  0
   41.0210   32.1650   42.1180 H   0  0  0  0  0  0  0  0  0  0  0  0
   42.2760   32.3200   41.6160 S   0  0  0  0  0  0  0  0  0  0  0  0
   43.1660   33.2070   42.4010 O   0  0  0  0  0  0  0  0  0  0  0  0
   42.9140   30.9350   41.6800 O   0  0  0  0  0  0  0  0  0  0  0  0
  1  2  1  0  0  0  0
  2  7  2  0  0  0  0
  2  3  1  0  0  0  0
  3  4  2  0  0  0  0
  4  5  1  0  0  0  0
  4  8  1  0  0  0  0
  5  9  1  0  0  0  0
  6 10  1  0  0  0  0
  6  5  2  0  0  0  0
  7  6  1  0  0  0  0
 11 16  1  0  0  0  0
 12 11  2  0  0  0  0
 12 13  1  0  0  0  0
 13 14  2  0  0  0  0
 14 15  1  0  0  0  0
 15  3  1  0  0  0  0
 16 15  2  0  0  0  0
 17 11  1  0  0  0  0
 18 12  1  0  0  0  0
 19 13  1  0  0  0  0
 20  7  1  0  0  0  0
 21 20  2  0  0  0  0
 21 25  1  0  0  0  0
 22 21  1  0  0  0  0
 23 22  1  0  0  0  0
 23 24  2  0  0  0  0
 24 20  1  0  0  0  0
 26 35  1  0  0  0  0
 27 23  1  0  0  0  0
 27 26  2  0  0  0  0
 28 27  1  0  0  0  0
 29 28  1  0  0  0  0
 30 28  2  0  0  0  0
 30 32  1  0  0  0  0
 31 30  1  0  0  0  0
 32 33  2  0  0  0  0
 33 26  1  0  0  0  0
 35 37  2  0  0  0  0
 35 34  1  0  0  0  0
 35 36  2  0  0  0  0
M  END
>  <minimizedAffinity>
-5.56129837

$$$$

 OpenBabel03242511303D

 37 40  0  0  0  0  0  0  0  0999 V2000
   33.9970   28.9460   39.0210 Cl  0  0  0  0  0  0  0  0  0  0  0  0
   35.0140   29.2330   37.6630 C   0  0  0  0  0  0  0  0  0  0  0  0
   34.5410   29.0270   36.3870 C   0  0  0  0  0  0  0  0  0  0  0  0
   35.3290   29.2420   35.2610 C   0  0  0  0  0  0  0  0  0  0  0  0
   36.6080   29.6720   35.5030 C   0  0  0  0  0  0  0  0  0  0  0  0
   37.0830   29.8780   36.7560 C   0  0  0  0  0  0  0  0  0  0  0  0
   36.2820   29.6600   37.8760 C   0  0  0  0  0  0  0  0  0  0  0  0
   34.9060   29.0650   34.2940 H   0  0  0  0  0  0  0  0  0  0  0  0
   37.2120   29.8360   34.6020 H   0  0  0  0  0  0  0  0  0  0  0  0
   38.1170   30.2200   36.7990 H   0  0  0  0  0  0  0  0  0  0  0  0
   31.6220   26.8220   35.8330 C   0  0  0  0  0  0  0  0  0  0  0  0
   30.5600   27.7120   35.8670 C   0  0  0  0  0  0  0  0  0  0  0  0
   30.8360   29.0450   36.0760 C   0  0  0  0  0  0  0  0  0  0  0  0
   32.1260   29.4430   36.2420 N   0  0  0  0  0  0  0  0  0  0  0  0
   33.1570   28.5660   36.2060 C   0  0  0  0  0  0  0  0  0  0  0  0
   32.8830   27.2670   36.0010 N   0  0  0  0  0  0  0  0  0  0  0  0
   31.4160   25.7650   35.6680 H   0  0  0  0  0  0  0  0  0  0  0  0
   29.5250   27.4190   35.7390 H   0  0  0  0  0  0  0  0  0  0  0  0
   30.0100   29.7480   36.1050 H   0  0  0  0  0  0  0  0  0  0  0  0
   36.9530   29.9300   39.1540 C   0  0  0  0  0  0  0  0  0  0  0  0
   36.8020   31.1660   39.7450 C   0  0  0  0  0  0  0  0  0  0  0  0
   37.8070   31.0140   41.2870 S   0  0  0  0  0  0  0  0  0  0  0  0
   38.2640   29.2200   40.8190 C   0  0  0  0  0  0  0  0  0  0  0  0
   37.7090   29.1510   39.8620 N   0  0  0  0  0  0  0  0  0  0  0  0
   36.2390   32.0510   39.4240 H   0  0  0  0  0  0  0  0  0  0  0  0
   38.6770   27.5170   42.5870 C   0  0  0  0  0  0  0  0  0  0  0  0
   39.1550   28.5280   41.8160 C   0  0  0  0  0  0  0  0  0  0  0  0
   40.4630   28.8620   41.9970 C   0  0  0  0  0  0  0  0  0  0  0  0
   40.9220   29.6480   41.4300 H   0  0  0  0  0  0  0  0  0  0  0  0
   41.3090   28.2520   42.8900 C   0  0  0  0  0  0  0  0  0  0  0  0
   42.3340   28.5300   43.0160 H   0  0  0  0  0  0  0  0  0  0  0  0
   40.7950   27.2310   43.6580 C   0  0  0  0  0  3  0  0  0  0  0  0
   39.4780   26.8660   43.5030 C   0  0  0  0  0  3  0  0  0  0  0  0
   36.4850   27.5260   41.2160 H   0  0  0  0  0  0  0  0  0  0  0  0
   37.0100   27.0710   42.3850 S   0  0  0  0  0  0  0  0  0  0  0  0
   36.2340   27.4080   43.6010 O   0  0  0  0  0  0  0  0  0  0  0  0
   36.9720   25.5480   42.2810 O   0  0  0  0  0  0  0  0  0  0  0  0
  2  7  1  0  0  0  0
  2  1  1  0  0  0  0
  3  2  2  0  0  0  0
  4  5  2  0  0  0  0
  4  3  1  0  0  0  0
  5  6  1  0  0  0  0
  6 10  1  0  0  0  0
  6  7  2  0  0  0  0
  7 20  1  0  0  0  0
  8  4  1  0  0  0  0
  9  5  1  0  0  0  0
 11 12  2  0  0  0  0
 11 16  1  0  0  0  0
 12 13  1  0  0  0  0
 13 19  1  0  0  0  0
 13 14  2  0  0  0  0
 15 14  1  0  0  0  0
 15  3  1  0  0  0  0
 16 15  2  0  0  0  0
 17 11  1  0  0  0  0
 18 12  1  0  0  0  0
 20 21  2  0  0  0  0
 20 24  1  0  0  0  0
 21 22  1  0  0  0  0
 23 22  1  0  0  0  0
 23 27  1  0  0  0  0
 24 23  2  0  0  0  0
 25 21  1  0  0  0  0
 26 33  1  0  0  0  0
 27 28  1  0  0  0  0
 27 26  2  0  0  0  0
 28 30  2  0  0  0  0
 29 28  1  0  0  0  0
 30 31  1  0  0  0  0
 30 32  1  0  0  0  0
 33 32  2  0  0  0  0
 34 35  1  0  0  0  0
 35 26  1  0  0  0  0
 35 36  2  0  0  0  0
 37 35  2  0  0  0  0
M  END
>  <minimizedAffinity>
-5.54900837

$$$$

 OpenBabel03242511303D

 37 40  0  0  0  0  0  0  0  0999 V2000
   38.5870   27.8850   39.4290 Cl  0  0  0  0  0  0  0  0  0  0  0  0
   38.0910   28.0060   41.0720 C   0  0  0  0  0  0  0  0  0  0  0  0
   37.6670   26.8870   41.7520 C   0  0  0  0  0  0  0  0  0  0  0  0
   37.2530   26.9390   43.0790 C   0  0  0  0  0  0  0  0  0  0  0  0
   37.2940   28.1770   43.6670 C   0  0  0  0  0  0  0  0  0  0  0  0
   37.7090   29.2860   43.0060 C   0  0  0  0  0  0  0  0  0  0  0  0
   38.1220   29.2190   41.6760 C   0  0  0  0  0  0  0  0  0  0  0  0
   36.9340   26.0360   43.5560 H   0  0  0  0  0  0  0  0  0  0  0  0
   36.9640   28.1970   44.7140 H   0  0  0  0  0  0  0  0  0  0  0  0
   37.6890   30.2010   43.5960 H   0  0  0  0  0  0  0  0  0  0  0  0
   36.5390   24.0140   39.7130 C   0  0  0  0  0  0  0  0  0  0  0  0
   37.6340   23.1650   39.7540 C   0  0  0  0  0  0  0  0  0  0  0  0
   38.7410   23.5680   40.4670 C   0  0  0  0  0  0  0  0  0  0  0  0
   38.7270   24.7720   41.1010 N   0  0  0  0  0  0  0  0  0  0  0  0
   37.6520   25.5930   41.0560 C   0  0  0  0  0  0  0  0  0  0  0  0
   36.5740   25.1960   40.3590 N   0  0  0  0  0  0  0  0  0  0  0  0
   35.6570   23.7060   39.1520 H   0  0  0  0  0  0  0  0  0  0  0  0
   37.6690   22.2040   39.2570 H   0  0  0  0  0  0  0  0  0  0  0  0
   39.6030   22.9100   40.5040 H   0  0  0  0  0  0  0  0  0  0  0  0
   38.5390   30.5100   41.1130 C   0  0  0  0  0  0  0  0  0  0  0  0
   37.5790   31.4290   40.7540 C   0  0  0  0  0  0  0  0  0  0  0  0
   38.5780   32.8480   40.1200 S   0  0  0  0  0  0  0  0  0  0  0  0
   40.1850   31.8820   40.4790 C   0  0  0  0  0  0  0  0  0  0  0  0
   39.7350   30.9540   40.8860 N   0  0  0  0  0  0  0  0  0  0  0  0
   36.4840   31.3830   40.8090 H   0  0  0  0  0  0  0  0  0  0  0  0
   42.0090   32.4920   38.8970 C   0  0  0  0  0  0  0  0  0  0  0  0
   41.4460   32.6260   40.1270 C   0  0  0  0  0  0  0  0  0  0  0  0
   42.0800   33.4610   40.9960 C   0  0  0  0  0  0  0  0  0  0  0  0
   41.7050   33.6260   41.9860 H   0  0  0  0  0  0  0  0  0  0  0  0
   43.2270   34.1610   40.7100 C   0  0  0  0  0  0  0  0  0  0  0  0
   43.7090   34.8130   41.4090 H   0  0  0  0  0  0  0  0  0  0  0  0
   43.7730   34.0040   39.4570 C   0  0  0  0  0  3  0  0  0  0  0  0
   43.1610   33.1680   38.5520 C   0  0  0  0  0  3  0  0  0  0  0  0
   40.4580   30.4890   38.3800 H   0  0  0  0  0  0  0  0  0  0  0  0
   41.2270   31.4290   37.7670 S   0  0  0  0  0  0  0  0  0  0  0  0
   42.2080   30.9040   36.7890 O   0  0  0  0  0  0  0  0  0  0  0  0
   40.2560   32.2840   36.9580 O   0  0  0  0  0  0  0  0  0  0  0  0
  1  2  1  0  0  0  0
  2  7  2  0  0  0  0
  2  3  1  0  0  0  0
  3  4  2  0  0  0  0
  4  8  1  0  0  0  0
  4  5  1  0  0  0  0
  5  9  1  0  0  0  0
  6 10  1  0  0  0  0
  6  5  2  0  0  0  0
  7  6  1  0  0  0  0
 11 12  2  0  0  0  0
 11 16  1  0  0  0  0
 12 13  1  0  0  0  0
 13 19  1  0  0  0  0
 13 14  2  0  0  0  0
 15 14  1  0  0  0  0
 15  3  1  0  0  0  0
 16 15  2  0  0  0  0
 17 11  1  0  0  0  0
 18 12  1  0  0  0  0
 20  7  1  0  0  0  0
 21 25  1  0  0  0  0
 21 20  2  0  0  0  0
 22 23  1  0  0  0  0
 22 21  1  0  0  0  0
 23 24  2  0  0  0  0
 24 20  1  0  0  0  0
 26 27  1  0  0  0  0
 27 23  1  0  0  0  0
 27 28  2  0  0  0  0
 28 29  1  0  0  0  0
 30 28  1  0  0  0  0
 30 31  1  0  0  0  0
 32 30  2  0  0  0  0
 33 26  2  0  0  0  0
 33 32  1  0  0  0  0
 35 34  1  0  0  0  0
 35 26  1  0  0  0  0
 36 35  2  0  0  0  0
 37 35  2  0  0  0  0
M  END
>  <minimizedAffinity>
-5.53245735

$$$$

 OpenBabel03242511303D

 37 40  0  0  0  0  0  0  0  0999 V2000
   40.6250   30.5760   38.7460 Cl  0  0  0  0  0  0  0  0  0  0  0  0
   39.5010   31.7840   39.2350 C   0  0  0  0  0  0  0  0  0  0  0  0
   39.9070   33.0900   39.3810 C   0  0  0  0  0  0  0  0  0  0  0  0
   39.0350   34.0980   39.7780 C   0  0  0  0  0  0  0  0  0  0  0  0
   37.7430   33.7060   40.0160 C   0  0  0  0  0  0  0  0  0  0  0  0
   37.3320   32.4220   39.8750 C   0  0  0  0  0  0  0  0  0  0  0  0
   38.2180   31.4210   39.4760 C   0  0  0  0  0  0  0  0  0  0  0  0
   39.4080   35.0960   39.8740 H   0  0  0  0  0  0  0  0  0  0  0  0
   37.0700   34.5160   40.3270 H   0  0  0  0  0  0  0  0  0  0  0  0
   36.2790   32.2550   40.0980 H   0  0  0  0  0  0  0  0  0  0  0  0
   42.9880   34.0980   37.5970 C   0  0  0  0  0  0  0  0  0  0  0  0
   43.9400   34.0810   38.6040 C   0  0  0  0  0  0  0  0  0  0  0  0
   43.5370   33.7310   39.8730 C   0  0  0  0  0  0  0  0  0  0  0  0
   42.2320   33.4170   40.0980 N   0  0  0  0  0  0  0  0  0  0  0  0
   41.3090   33.4350   39.1070 C   0  0  0  0  0  0  0  0  0  0  0  0
   41.7080   33.7770   37.8700 N   0  0  0  0  0  0  0  0  0  0  0  0
   43.2950   34.3730   36.5880 H   0  0  0  0  0  0  0  0  0  0  0  0
   44.9830   34.3280   38.4500 H   0  0  0  0  0  0  0  0  0  0  0  0
   44.2750   33.7160   40.6680 H   0  0  0  0  0  0  0  0  0  0  0  0
   37.6090   30.0890   39.3740 C   0  0  0  0  0  0  0  0  0  0  0  0
   36.5450   29.8980   38.5210 C   0  0  0  0  0  0  0  0  0  0  0  0
   36.1500   28.1070   38.7430 S   0  0  0  0  0  0  0  0  0  0  0  0
   37.5690   27.9470   40.0100 C   0  0  0  0  0  0  0  0  0  0  0  0
   37.9290   28.9950   39.9920 N   0  0  0  0  0  0  0  0  0  0  0  0
   36.0250   30.5970   37.8540 H   0  0  0  0  0  0  0  0  0  0  0  0
   38.6680   25.7140   40.0790 C   0  0  0  0  0  0  0  0  0  0  0  0
   37.7350   26.5640   40.5820 C   0  0  0  0  0  0  0  0  0  0  0  0
   36.9820   26.0940   41.6140 C   0  0  0  0  0  0  0  0  0  0  0  0
   36.2220   26.6970   42.0710 H   0  0  0  0  0  0  0  0  0  0  0  0
   37.1070   24.8430   42.1670 C   0  0  0  0  0  0  0  0  0  0  0  0
   36.5040   24.4940   42.9790 H   0  0  0  0  0  0  0  0  0  0  0  0
   38.0610   24.0050   41.6350 C   0  0  0  0  0  3  0  0  0  0  0  0
   38.8410   24.4440   40.5910 C   0  0  0  0  0  3  0  0  0  0  0  0
   39.0430   27.2830   38.0580 H   0  0  0  0  0  0  0  0  0  0  0  0
   39.6420   26.2820   38.7560 S   0  0  0  0  0  0  0  0  0  0  0  0
   40.1210   25.1410   37.9410 O   0  0  0  0  0  0  0  0  0  0  0  0
   40.8940   26.9050   39.3680 O   0  0  0  0  0  0  0  0  0  0  0  0
  1  2  1  0  0  0  0
  2  3  2  0  0  0  0
  2  7  1  0  0  0  0
  3  4  1  0  0  0  0
  4  8  1  0  0  0  0
  4  5  2  0  0  0  0
  5  9  1  0  0  0  0
  6  5  1  0  0  0  0
  6 10  1  0  0  0  0
  7  6  2  0  0  0  0
 11 16  2  0  0  0  0
 11 12  1  0  0  0  0
 12 13  2  0  0  0  0
 13 14  1  0  0  0  0
 13 19  1  0  0  0  0
 15  3  1  0  0  0  0
 15 14  2  0  0  0  0
 16 15  1  0  0  0  0
 17 11  1  0  0  0  0
 18 12  1  0  0  0  0
 20  7  1  0  0  0  0
 20 24  1  0  0  0  0
 21 22  1  0  0  0  0
 21 20  2  0  0  0  0
 22 23  1  0  0  0  0
 23 27  1  0  0  0  0
 24 23  2  0  0  0  0
 25 21  1  0  0  0  0
 26 27  2  0  0  0  0
 26 33  1  0  0  0  0
 27 28  1  0  0  0  0
 28 29  1  0  0  0  0
 28 30  2  0  0  0  0
 30 31  1  0  0  0  0
 32 30  1  0  0  0  0
 33 32  2  0  0  0  0
 34 35  1  0  0  0  0
 35 37  2  0  0  0  0
 35 26  1  0  0  0  0
 36 35  2  0  0  0  0
M  END
>  <minimizedAffinity>
-5.51745701

$$$$

 OpenBabel03242511303D

 37 40  0  0  0  0  0  0  0  0999 V2000
   32.9690   29.3080   38.8090 Cl  0  0  0  0  0  0  0  0  0  0  0  0
   33.1940   28.8370   37.1690 C   0  0  0  0  0  0  0  0  0  0  0  0
   32.2200   29.0990   36.2330 C   0  0  0  0  0  0  0  0  0  0  0  0
   32.3580   28.7340   34.8980 C   0  0  0  0  0  0  0  0  0  0  0  0
   33.5270   28.0940   34.5740 C   0  0  0  0  0  0  0  0  0  0  0  0
   34.4920   27.8310   35.4890 C   0  0  0  0  0  0  0  0  0  0  0  0
   34.3410   28.2040   36.8240 C   0  0  0  0  0  0  0  0  0  0  0  0
   31.5670   28.9650   34.2150 H   0  0  0  0  0  0  0  0  0  0  0  0
   33.6160   27.8150   33.5160 H   0  0  0  0  0  0  0  0  0  0  0  0
   35.3670   27.3180   35.0910 H   0  0  0  0  0  0  0  0  0  0  0  0
   28.7260   29.7190   37.2790 C   0  0  0  0  0  0  0  0  0  0  0  0
   28.6990   31.0950   37.4450 C   0  0  0  0  0  0  0  0  0  0  0  0
   29.8570   31.8010   37.2030 C   0  0  0  0  0  0  0  0  0  0  0  0
   30.9780   31.1340   36.8140 N   0  0  0  0  0  0  0  0  0  0  0  0
   30.9940   29.7900   36.6540 C   0  0  0  0  0  0  0  0  0  0  0  0
   29.8620   29.1060   36.8910 N   0  0  0  0  0  0  0  0  0  0  0  0
   27.8160   29.1500   37.4670 H   0  0  0  0  0  0  0  0  0  0  0  0
   27.8210   31.6470   37.7540 H   0  0  0  0  0  0  0  0  0  0  0  0
   29.8460   32.8780   37.3310 H   0  0  0  0  0  0  0  0  0  0  0  0
   35.4790   27.8430   37.6780 C   0  0  0  0  0  0  0  0  0  0  0  0
   36.4950   27.0720   37.1570 C   0  0  0  0  0  0  0  0  0  0  0  0
   37.6580   26.8990   38.5810 S   0  0  0  0  0  0  0  0  0  0  0  0
   36.4940   27.9540   39.6670 C   0  0  0  0  0  0  0  0  0  0  0  0
   35.7000   28.1500   38.9180 N   0  0  0  0  0  0  0  0  0  0  0  0
   36.6300   26.6440   36.1560 H   0  0  0  0  0  0  0  0  0  0  0  0
   37.6350   29.3110   41.4150 C   0  0  0  0  0  0  0  0  0  0  0  0
   36.9850   28.1680   41.0740 C   0  0  0  0  0  0  0  0  0  0  0  0
   36.8070   27.2540   42.0670 C   0  0  0  0  0  0  0  0  0  0  0  0
   36.3050   26.3240   41.8870 H   0  0  0  0  0  0  0  0  0  0  0  0
   37.2340   27.4140   43.3620 C   0  0  0  0  0  0  0  0  0  0  0  0
   37.0830   26.6820   44.1280 H   0  0  0  0  0  0  0  0  0  0  0  0
   37.8900   28.5830   43.6760 C   0  0  0  0  0  3  0  0  0  0  0  0
   38.0880   29.5310   42.6990 C   0  0  0  0  0  3  0  0  0  0  0  0
   37.6740   29.9950   38.9210 H   0  0  0  0  0  0  0  0  0  0  0  0
   37.8830   30.4970   40.1670 S   0  0  0  0  0  0  0  0  0  0  0  0
   39.1790   31.1870   40.3620 O   0  0  0  0  0  0  0  0  0  0  0  0
   36.8130   31.5680   40.3600 O   0  0  0  0  0  0  0  0  0  0  0  0
  2  1  1  0  0  0  0
  3 15  1  0  0  0  0
  3  2  2  0  0  0  0
  4  3  1  0  0  0  0
  5  4  2  0  0  0  0
  5  6  1  0  0  0  0
  6  7  2  0  0  0  0
  7  2  1  0  0  0  0
  7 20  1  0  0  0  0
  8  4  1  0  0  0  0
  9  5  1  0  0  0  0
 10  6  1  0  0  0  0
 11 12  1  0  0  0  0
 11 17  1  0  0  0  0
 12 18  1  0  0  0  0
 13 19  1  0  0  0  0
 13 12  2  0  0  0  0
 14 13  1  0  0  0  0
 15 14  2  0  0  0  0
 15 16  1  0  0  0  0
 16 11  2  0  0  0  0
 20 24  1  0  0  0  0
 21 20  2  0  0  0  0
 21 22  1  0  0  0  0
 22 23  1  0  0  0  0
 23 27  1  0  0  0  0
 24 23  2  0  0  0  0
 25 21  1  0  0  0  0
 26 33  1  0  0  0  0
 27 26  2  0  0  0  0
 27 28  1  0  0  0  0
 28 30  2  0  0  0  0
 29 28  1  0  0  0  0
 30 32  1  0  0  0  0
 30 31  1  0  0  0  0
 33 32  2  0  0  0  0
 34 35  1  0  0  0  0
 35 37  2  0  0  0  0
 35 36  2  0  0  0  0
 35 26  1  0  0  0  0
M  END
>  <minimizedAffinity>
-5.42251158

$$$$

 OpenBabel03242511303D

 37 40  0  0  0  0  0  0  0  0999 V2000
   37.1700   30.4620   38.1540 Cl  0  0  0  0  0  0  0  0  0  0  0  0
   37.1090   29.8170   39.7490 C   0  0  0  0  0  0  0  0  0  0  0  0
   36.3820   28.6780   40.0080 C   0  0  0  0  0  0  0  0  0  0  0  0
   36.3020   28.1240   41.2810 C   0  0  0  0  0  0  0  0  0  0  0  0
   36.9930   28.7870   42.2630 C   0  0  0  0  0  0  0  0  0  0  0  0
   37.7110   29.9100   42.0180 C   0  0  0  0  0  0  0  0  0  0  0  0
   37.7840   30.4540   40.7360 C   0  0  0  0  0  0  0  0  0  0  0  0
   35.7220   27.2360   41.4220 H   0  0  0  0  0  0  0  0  0  0  0  0
   36.9170   28.3340   43.2600 H   0  0  0  0  0  0  0  0  0  0  0  0
   38.2080   30.3310   42.8910 H   0  0  0  0  0  0  0  0  0  0  0  0
   33.8390   27.9310   37.4270 C   0  0  0  0  0  0  0  0  0  0  0  0
   34.3370   26.7820   36.8340 C   0  0  0  0  0  0  0  0  0  0  0  0
   35.5250   26.2700   37.3070 C   0  0  0  0  0  0  0  0  0  0  0  0
   36.1640   26.9000   38.3300 N   0  0  0  0  0  0  0  0  0  0  0  0
   35.6680   28.0210   38.9040 C   0  0  0  0  0  0  0  0  0  0  0  0
   34.5100   28.5170   38.4390 N   0  0  0  0  0  0  0  0  0  0  0  0
   32.9000   28.3460   37.0610 H   0  0  0  0  0  0  0  0  0  0  0  0
   33.8480   26.2640   36.0190 H   0  0  0  0  0  0  0  0  0  0  0  0
   35.9230   25.3720   36.8480 H   0  0  0  0  0  0  0  0  0  0  0  0
   38.6020   31.6700   40.6470 C   0  0  0  0  0  0  0  0  0  0  0  0
   37.9810   32.8910   40.5030 C   0  0  0  0  0  0  0  0  0  0  0  0
   39.3980   34.0740   40.4430 S   0  0  0  0  0  0  0  0  0  0  0  0
   40.6240   32.6230   40.6320 C   0  0  0  0  0  0  0  0  0  0  0  0
   39.8920   31.7910   40.6840 N   0  0  0  0  0  0  0  0  0  0  0  0
   36.9170   33.1520   40.4370 H   0  0  0  0  0  0  0  0  0  0  0  0
   42.7310   33.3060   39.4940 C   0  0  0  0  0  0  0  0  0  0  0  0
   42.0720   33.0340   40.6520 C   0  0  0  0  0  0  0  0  0  0  0  0
   42.7910   33.1610   41.8010 C   0  0  0  0  0  0  0  0  0  0  0  0
   42.3510   32.9670   42.7590 H   0  0  0  0  0  0  0  0  0  0  0  0
   44.1100   33.5390   41.8600 C   0  0  0  0  0  0  0  0  0  0  0  0
   44.6550   33.6330   42.7760 H   0  0  0  0  0  0  0  0  0  0  0  0
   44.7490   33.8070   40.6710 C   0  0  0  0  0  3  0  0  0  0  0  0
   44.0560   33.6900   39.4890 C   0  0  0  0  0  3  0  0  0  0  0  0
   40.5410   33.5180   38.1360 H   0  0  0  0  0  0  0  0  0  0  0  0
   41.8430   33.1470   38.0080 S   0  0  0  0  0  0  0  0  0  0  0  0
   42.0650   31.8080   37.4150 O   0  0  0  0  0  0  0  0  0  0  0  0
   42.4540   34.1410   37.0240 O   0  0  0  0  0  0  0  0  0  0  0  0
  1  2  1  0  0  0  0
  2  3  2  0  0  0  0
  2  7  1  0  0  0  0
  3  4  1  0  0  0  0
  4  8  1  0  0  0  0
  4  5  2  0  0  0  0
  5  9  1  0  0  0  0
  6  5  1  0  0  0  0
  6 10  1  0  0  0  0
  7  6  2  0  0  0  0
 11 16  1  0  0  0  0
 12 13  1  0  0  0  0
 12 11  2  0  0  0  0
 13 14  2  0  0  0  0
 14 15  1  0  0  0  0
 15  3  1  0  0  0  0
 16 15  2  0  0  0  0
 17 11  1  0  0  0  0
 18 12  1  0  0  0  0
 19 13  1  0  0  0  0
 20 24  1  0  0  0  0
 20  7  1  0  0  0  0
 21 20  2  0  0  0  0
 22 21  1  0  0  0  0
 22 23  1  0  0  0  0
 23 27  1  0  0  0  0
 23 24  2  0  0  0  0
 25 21  1  0  0  0  0
 26 27  1  0  0  0  0
 27 28  2  0  0  0  0
 28 30  1  0  0  0  0
 28 29  1  0  0  0  0
 30 31  1  0  0  0  0
 32 30  2  0  0  0  0
 33 26  2  0  0  0  0
 33 32  1  0  0  0  0
 35 34  1  0  0  0  0
 35 26  1  0  0  0  0
 36 35  2  0  0  0  0
 37 35  2  0  0  0  0
M  END
>  <minimizedAffinity>
-5.32791233

$$$$

 OpenBabel03242511303D

 37 40  0  0  0  0  0  0  0  0999 V2000
   40.6740   30.2990   39.3330 Cl  0  0  0  0  0  0  0  0  0  0  0  0
   39.4820   31.5040   39.6310 C   0  0  0  0  0  0  0  0  0  0  0  0
   39.7900   32.8360   39.4750 C   0  0  0  0  0  0  0  0  0  0  0  0
   38.8590   33.8440   39.7100 C   0  0  0  0  0  0  0  0  0  0  0  0
   37.6160   33.4250   40.1070 C   0  0  0  0  0  0  0  0  0  0  0  0
   37.3030   32.1150   40.2640 C   0  0  0  0  0  0  0  0  0  0  0  0
   38.2450   31.1150   40.0250 C   0  0  0  0  0  0  0  0  0  0  0  0
   39.1560   34.8630   39.5710 H   0  0  0  0  0  0  0  0  0  0  0  0
   36.8970   34.2350   40.2860 H   0  0  0  0  0  0  0  0  0  0  0  0
   36.2790   31.9280   40.5840 H   0  0  0  0  0  0  0  0  0  0  0  0
   42.6730   33.7060   37.3270 C   0  0  0  0  0  0  0  0  0  0  0  0
   43.6880   33.9100   38.2490 C   0  0  0  0  0  0  0  0  0  0  0  0
   43.3910   33.7540   39.5850 C   0  0  0  0  0  0  0  0  0  0  0  0
   42.1280   33.4080   39.9540 N   0  0  0  0  0  0  0  0  0  0  0  0
   41.1440   33.2100   39.0450 C   0  0  0  0  0  0  0  0  0  0  0  0
   41.4380   33.3630   37.7430 N   0  0  0  0  0  0  0  0  0  0  0  0
   42.8950   33.8260   36.2670 H   0  0  0  0  0  0  0  0  0  0  0  0
   44.6990   34.1860   37.9800 H   0  0  0  0  0  0  0  0  0  0  0  0
   44.1790   33.9120   40.3140 H   0  0  0  0  0  0  0  0  0  0  0  0
   37.7420   29.7530   40.2430 C   0  0  0  0  0  0  0  0  0  0  0  0
   37.8730   29.1780   41.4880 C   0  0  0  0  0  0  0  0  0  0  0  0
   37.1060   27.5140   41.2600 S   0  0  0  0  0  0  0  0  0  0  0  0
   36.7340   27.9300   39.4340 C   0  0  0  0  0  0  0  0  0  0  0  0
   37.1570   28.9550   39.4070 N   0  0  0  0  0  0  0  0  0  0  0  0
   38.3130   29.5660   42.4150 H   0  0  0  0  0  0  0  0  0  0  0  0
   35.0320   27.1110   37.8110 C   0  0  0  0  0  0  0  0  0  0  0  0
   36.0410   26.8280   38.6770 C   0  0  0  0  0  0  0  0  0  0  0  0
   36.3780   25.5150   38.8060 C   0  0  0  0  0  0  0  0  0  0  0  0
   37.1620   25.2020   39.4670 H   0  0  0  0  0  0  0  0  0  0  0  0
   35.7750   24.4840   38.1300 C   0  0  0  0  0  0  0  0  0  0  0  0
   36.0560   23.4570   38.2470 H   0  0  0  0  0  0  0  0  0  0  0  0
   34.7560   24.8020   37.2600 C   0  0  0  0  0  3  0  0  0  0  0  0
   34.3870   26.1180   37.1030 C   0  0  0  0  0  3  0  0  0  0  0  0
   35.5830   29.6340   37.9410 H   0  0  0  0  0  0  0  0  0  0  0  0
   34.5740   28.7770   37.6280 S   0  0  0  0  0  0  0  0  0  0  0  0
   33.2870   29.0370   38.3140 O   0  0  0  0  0  0  0  0  0  0  0  0
   34.3010   28.9970   36.1420 O   0  0  0  0  0  0  0  0  0  0  0  0
  1  2  1  0  0  0  0
  2  7  1  0  0  0  0
  3  2  2  0  0  0  0
  3  4  1  0  0  0  0
  4  5  2  0  0  0  0
  5  6  1  0  0  0  0
  5  9  1  0  0  0  0
  6 10  1  0  0  0  0
  7 20  1  0  0  0  0
  7  6  2  0  0  0  0
  8  4  1  0  0  0  0
 11 16  2  0  0  0  0
 11 12  1  0  0  0  0
 12 13  2  0  0  0  0
 13 14  1  0  0  0  0
 13 19  1  0  0  0  0
 15  3  1  0  0  0  0
 15 14  2  0  0  0  0
 16 15  1  0  0  0  0
 17 11  1  0  0  0  0
 18 12  1  0  0  0  0
 20 21  2  0  0  0  0
 21 25  1  0  0  0  0
 22 21  1  0  0  0  0
 23 22  1  0  0  0  0
 24 23  2  0  0  0  0
 24 20  1  0  0  0  0
 26 27  1  0  0  0  0
 27 28  2  0  0  0  0
 27 23  1  0  0  0  0
 28 29  1  0  0  0  0
 30 31  1  0  0  0  0
 30 28  1  0  0  0  0
 32 30  2  0  0  0  0
 33 32  1  0  0  0  0
 33 26  2  0  0  0  0
 35 26  1  0  0  0  0
 35 34  1  0  0  0  0
 35 36  2  0  0  0  0
 37 35  2  0  0  0  0
M  END
>  <minimizedAffinity>
-5.29749155

$$$$
