
 OpenBabel03242518393D

 42 45  0  0  1  0  0  0  0  0999 V2000
   48.0680   34.6820   41.5670 C   0  0  0  0  0  0  0  0  0  0  0  0
   48.7960   35.6880   41.3240 O   0  0  0  0  0  0  0  0  0  0  0  0
   47.1170   34.5510   42.6200 C   0  0  0  0  0  0  0  0  0  0  0  0
   46.0810   35.4240   42.6160 C   0  0  0  0  0  0  0  0  0  0  0  0
   45.1330   35.3370   43.6190 C   0  0  0  0  0  0  0  0  0  0  0  0
   45.2890   34.3760   44.5620 N   0  0  0  0  0  0  0  0  0  0  0  0
   46.3150   33.5220   44.5550 C   0  0  0  0  0  0  0  0  0  0  0  0
   47.1870   33.6580   43.5690 N   0  0  0  0  0  0  0  0  0  0  0  0
   45.8960   36.2100   41.8990 H   0  0  0  0  0  0  0  0  0  0  0  0
   44.2780   36.0090   43.6690 H   0  0  0  0  0  0  0  0  0  0  0  0
   46.0490   31.2050   45.4520 C   0  0  0  0  0  0  0  0  0  0  0  0
   46.3690   32.5340   45.6270 C   0  0  0  0  0  0  0  0  0  0  0  0
   46.7590   32.9450   46.8830 C   0  0  0  0  0  0  0  0  0  0  0  0
   47.0260   33.9800   47.0920 H   0  0  0  0  0  0  0  0  0  0  0  0
   46.8460   32.0960   47.9710 C   0  0  0  0  0  0  0  0  0  0  0  0
   47.1540   32.4310   48.9550 H   0  0  0  0  0  0  0  0  0  0  0  0
   46.5330   30.7620   47.8280 C   0  0  0  0  0  0  0  0  0  0  0  0
   46.1430   30.3630   46.5660 C   0  0  0  0  0  0  0  0  0  0  0  0
   44.9960   29.3620   44.0920 H   0  0  0  0  0  0  0  0  0  0  0  0
   45.5490   30.6230   43.8860 S   0  0  0  0  0  0  0  0  0  0  0  0
   44.4780   31.4550   43.2680 O   0  0  0  0  0  0  0  0  0  0  0  0
   46.7560   30.4430   43.0100 O   0  0  0  0  0  0  0  0  0  0  0  0
   48.2180   33.5830   40.7040 O   0  0  0  0  0  0  0  0  0  0  0  0
   48.1100   33.7980   39.3050 C   0  0  0  0  0  0  0  0  0  0  0  0
   48.6550   34.7870   38.4730 C   0  0  0  0  0  0  0  0  0  0  0  0
   48.2420   34.5490   37.1770 C   0  0  0  0  0  0  0  0  0  0  0  0
   47.4710   33.4360   37.2730 C   0  0  0  0  0  0  0  0  0  0  0  0
   47.3910   32.9910   38.5220 O   0  0  0  0  0  0  0  0  0  0  0  0
   49.2860   35.5630   38.9020 H   0  0  0  0  0  0  0  0  0  0  0  0
   48.5170   35.1600   36.3380 H   0  0  0  0  0  0  0  0  0  0  0  0
   46.7910   32.7810   36.1360 C   0  0  2  0  0  0  0  0  0  0  0  0
   46.9440   31.3460   35.9030 C   0  0  0  0  0  0  0  0  0  0  0  0
   47.7700   32.2470   35.0600 C   0  0  1  0  0  0  0  0  0  0  0  0
   45.9140   33.3340   35.7540 H   0  0  0  0  0  0  0  0  0  0  0  0
   47.4800   30.6720   36.5820 H   0  0  0  0  0  0  0  0  0  0  0  0
   46.0600   30.8540   35.4030 H   0  0  0  0  0  0  0  0  0  0  0  0
   48.8320   32.4080   35.2320 H   0  0  0  0  0  0  0  0  0  0  0  0
   48.2050   32.8920   32.7020 C   0  0  0  0  0  0  0  0  0  0  0  0
   49.4230   33.1430   32.9310 O   0  0  0  0  0  0  0  0  0  0  0  0
   47.2890   32.4750   33.7000 N   0  0  0  0  0  0  0  0  0  0  0  0
   47.8440   33.0070   31.6710 H   0  0  0  0  0  0  0  0  0  0  0  0
   46.2750   32.3250   33.4950 H   0  0  0  0  0  0  0  0  0  0  0  0
  1  3  1  0  0  0  0
  2  1  2  0  0  0  0
  3  8  1  0  0  0  0
  4  3  2  0  0  0  0
  4  5  1  0  0  0  0
  5 10  1  0  0  0  0
  5  6  2  0  0  0  0
  7  6  1  0  0  0  0
  7 12  1  0  0  0  0
  8  7  2  0  0  0  0
  9  4  1  0  0  0  0
 11 12  2  0  0  0  0
 11 18  1  0  0  0  0
 12 13  1  0  0  0  0
 13 14  1  0  0  0  0
 13 15  2  0  0  0  0
 15 16  1  0  0  0  0
 17 15  1  0  0  0  0
 18 17  2  0  0  0  0
 20 19  1  0  0  0  0
 20 11  1  0  0  0  0
 21 20  2  0  0  0  0
 22 20  2  0  0  0  0
 23  1  1  0  0  0  0
 24 23  1  0  0  0  0
 25 29  1  0  0  0  0
 25 24  2  0  0  0  0
 26 27  2  0  0  0  0
 26 25  1  0  0  0  0
 27 28  1  0  0  0  0
 28 24  1  0  0  0  0
 30 26  1  0  0  0  0
 31 34  1  6  0  0  0
 31 27  1  0  0  0  0
 32 31  1  0  0  0  0
 32 35  1  0  0  0  0
 33 37  1  1  0  0  0
 33 32  1  0  0  0  0
 33 31  1  0  0  0  0
 36 32  1  0  0  0  0
 38 39  2  0  0  0  0
 38 40  1  0  0  0  0
 40 33  1  0  0  0  0
 41 38  1  0  0  0  0
 42 40  1  0  0  0  0
M  END
>  <minimizedAffinity>
-5.84210777

>  <minimizedRMSD>
1.43519545

$$$$
