
 OpenBabel03252505513D

 28 29  0  0  0  0  0  0  0  0999 V2000
   46.2290   32.5690   48.5100 C   0  0  0  0  0  0  0  0  0  0  0  0
   45.6400   32.4400   49.4380 H   0  0  0  0  0  0  0  0  0  0  0  0
   46.7600   33.5650   48.5110 H   0  0  0  0  0  0  0  0  0  0  0  0
   46.9020   30.2710   48.0530 C   0  0  0  0  0  0  0  0  0  0  0  0
   47.2960   31.5390   48.4670 C   0  0  0  0  0  0  0  0  0  0  0  0
   48.6130   31.7640   48.8120 C   0  0  0  0  0  0  0  0  0  0  0  0
   48.8310   32.7970   49.1270 H   0  0  0  0  0  0  0  0  0  0  0  0
   49.5920   30.7970   48.7750 C   0  0  0  0  0  0  0  0  0  0  0  0
   50.6100   31.0270   49.0560 H   0  0  0  0  0  0  0  0  0  0  0  0
   49.2260   29.5110   48.3620 C   0  0  0  0  0  3  0  0  0  0  0  0
   47.9040   29.3210   48.0250 C   0  0  0  0  0  3  0  0  0  0  0  0
   44.4070   30.6990   47.9140 H   0  0  0  0  0  0  0  0  0  0  0  0
   45.3190   29.7680   47.5730 S   0  0  0  0  0  0  0  0  0  0  0  0
   44.9110   28.4780   48.2320 O   0  0  0  0  0  0  0  0  0  0  0  0
   45.2770   29.5410   46.0680 O   0  0  0  0  0  0  0  0  0  0  0  0
   45.3270   32.4840   47.4230 O   0  0  0  0  0  0  0  0  0  0  0  0
   44.9420   35.1130   45.0560 C   0  0  0  0  0  0  0  0  0  0  0  0
   45.7820   34.7440   44.0110 C   0  0  0  0  0  0  0  0  0  0  0  0
   46.4990   33.5400   44.1440 C   0  0  0  0  0  0  0  0  0  0  0  0
   46.3420   32.8050   45.2700 N   0  0  0  0  0  0  0  0  0  0  0  0
   45.5100   33.2110   46.2590 C   0  0  0  0  0  0  0  0  0  0  0  0
   44.8210   34.3450   46.1560 N   0  0  0  0  0  0  0  0  0  0  0  0
   44.3840   36.0170   44.9900 H   0  0  0  0  0  0  0  0  0  0  0  0
   47.1470   33.2670   43.3230 H   0  0  0  0  0  0  0  0  0  0  0  0
   45.8660   35.6460   42.8190 C   0  0  0  0  0  0  0  0  0  0  0  0
   45.4050   36.8660   43.2680 F   0  0  0  0  0  0  0  0  0  0  0  0
   45.0290   35.1180   41.8600 F   0  0  0  0  0  0  0  0  0  0  0  0
   47.1770   35.6770   42.3950 F   0  0  0  0  0  0  0  0  0  0  0  0
  1  3  1  0  0  0  0
  1  2  1  0  0  0  0
  4  5  1  0  0  0  0
  5  1  1  0  0  0  0
  5  6  2  0  0  0  0
  6  7  1  0  0  0  0
  8  6  1  0  0  0  0
  8  9  1  0  0  0  0
 10  8  2  0  0  0  0
 11  4  2  0  0  0  0
 11 10  1  0  0  0  0
 13 12  1  0  0  0  0
 13  4  1  0  0  0  0
 13 14  2  0  0  0  0
 15 13  2  0  0  0  0
 16  1  1  0  0  0  0
 17 22  1  0  0  0  0
 18 19  1  0  0  0  0
 18 17  2  0  0  0  0
 19 20  2  0  0  0  0
 20 21  1  0  0  0  0
 21 16  1  0  0  0  0
 22 21  2  0  0  0  0
 23 17  1  0  0  0  0
 24 19  1  0  0  0  0
 25 26  1  0  0  0  0
 25 18  1  0  0  0  0
 27 25  1  0  0  0  0
 28 25  1  0  0  0  0
M  END
>  <minimizedAffinity>
-4.94502163

>  <minimizedRMSD>
1.45863068

$$$$
