
 OpenBabel03252502363D

 27 28  0  0  1  0  0  0  0  0999 V2000
   48.2010   34.9210   41.5200 C   0  0  2  0  0  0  0  0  0  0  0  0
   47.6710   35.1650   40.5650 H   0  0  0  0  0  0  0  0  0  0  0  0
   46.0470   35.5650   42.5750 C   0  0  0  0  0  0  0  0  0  0  0  0
   47.1980   34.7860   42.5600 C   0  0  0  0  0  0  0  0  0  0  0  0
   47.3200   33.8520   43.6210 C   0  0  0  0  0  0  0  0  0  0  0  0
   46.3320   33.7890   44.5490 N   0  0  0  0  0  0  0  0  0  0  0  0
   45.2490   34.5680   44.5040 C   0  0  0  0  0  0  0  0  0  0  0  0
   45.1070   35.4620   43.5100 N   0  0  0  0  0  0  0  0  0  0  0  0
   45.8360   36.3110   41.8250 H   0  0  0  0  0  0  0  0  0  0  0  0
   48.1890   33.2140   43.6720 H   0  0  0  0  0  0  0  0  0  0  0  0
   44.4990   34.4630   45.2790 H   0  0  0  0  0  0  0  0  0  0  0  0
   48.8830   32.7000   40.4370 C   0  0  0  0  0  0  0  0  0  0  0  0
   49.0700   33.7360   41.3150 C   0  0  0  0  0  0  0  0  0  0  0  0
   50.1980   33.6950   42.1380 C   0  0  0  0  0  0  0  0  0  0  0  0
   50.4650   34.4410   42.8700 H   0  0  0  0  0  0  0  0  0  0  0  0
   51.1060   32.6520   42.0850 C   0  0  0  0  0  0  0  0  0  0  0  0
   51.9870   32.5460   42.6780 H   0  0  0  0  0  0  0  0  0  0  0  0
   50.8800   31.6290   41.1880 C   0  0  0  0  0  0  0  0  0  0  0  0
   49.7760   31.6430   40.3620 C   0  0  0  0  0  0  0  0  0  0  0  0
   47.2030   34.0160   39.0550 H   0  0  0  0  0  0  0  0  0  0  0  0
   47.5020   32.7390   39.4010 S   0  0  0  0  0  0  0  0  0  0  0  0
   47.5940   31.7930   38.2370 O   0  0  0  0  0  0  0  0  0  0  0  0
   46.2870   32.2420   40.1840 O   0  0  0  0  0  0  0  0  0  0  0  0
   49.0130   36.1700   41.8150 C   0  0  0  0  0  0  0  0  0  0  0  0
   48.2660   37.0170   41.7570 H   0  0  0  0  0  0  0  0  0  0  0  0
   49.7650   36.3170   41.0040 H   0  0  0  0  0  0  0  0  0  0  0  0
   49.4080   36.2140   42.8310 H   0  0  0  0  0  0  0  0  0  0  0  0
  1  2  1  6  0  0  0
  1 24  1  0  0  0  0
  1  4  1  0  0  0  0
  3  8  1  0  0  0  0
  4  3  2  0  0  0  0
  4  5  1  0  0  0  0
  5 10  1  0  0  0  0
  5  6  2  0  0  0  0
  7  6  1  0  0  0  0
  7 11  1  0  0  0  0
  8  7  2  0  0  0  0
  9  3  1  0  0  0  0
 12 13  1  0  0  0  0
 13  1  1  0  0  0  0
 13 14  2  0  0  0  0
 14 15  1  0  0  0  0
 16 14  1  0  0  0  0
 16 17  1  0  0  0  0
 18 16  2  0  0  0  0
 19 12  2  0  0  0  0
 19 18  1  0  0  0  0
 20 21  1  0  0  0  0
 21 23  2  0  0  0  0
 21 12  1  0  0  0  0
 22 21  2  0  0  0  0
 24 27  1  0  0  0  0
 25 24  1  0  0  0  0
 26 24  1  0  0  0  0
M  END
>  <minimizedAffinity>
-4.52982092

>  <minimizedRMSD>
3.70320821

$$$$
