
 OpenBabel03252503023D

 36 37  0  0  0  0  0  0  0  0999 V2000
   40.9710   32.7970   40.9300 C   0  0  0  0  0  0  0  0  0  0  0  0
   42.1610   33.3420   40.5030 C   0  0  0  0  0  0  0  0  0  0  0  0
   42.3820   33.6140   39.1590 C   0  0  0  0  0  0  0  0  0  0  0  0
   41.3720   33.3170   38.3000 N   0  0  0  0  0  0  0  0  0  0  0  0
   40.2220   32.7880   38.7400 C   0  0  0  0  0  0  0  0  0  0  0  0
   40.0080   32.5300   40.0100 N   0  0  0  0  0  0  0  0  0  0  0  0
   40.7770   32.5770   41.9710 H   0  0  0  0  0  0  0  0  0  0  0  0
   43.3010   34.0360   38.8120 H   0  0  0  0  0  0  0  0  0  0  0  0
   39.1230   31.3290   37.0520 C   0  0  0  0  0  0  0  0  0  0  0  0
   39.2070   32.5130   37.7170 C   0  0  0  0  0  0  0  0  0  0  0  0
   38.2940   33.4660   37.3940 C   0  0  0  0  0  0  0  0  0  0  0  0
   38.2940   34.4460   37.8850 H   0  0  0  0  0  0  0  0  0  0  0  0
   37.2790   33.3450   36.4480 C   0  0  0  0  0  0  0  0  0  0  0  0
   36.5790   34.1420   36.2340 H   0  0  0  0  0  0  0  0  0  0  0  0
   37.2230   32.1150   35.7840 C   0  0  0  0  0  0  0  0  0  0  0  0
   38.1420   31.1400   36.1010 C   0  0  0  0  0  0  0  0  0  0  0  0
   40.5810   29.9270   38.6970 H   0  0  0  0  0  0  0  0  0  0  0  0
   40.2500   30.0460   37.3970 S   0  0  0  0  0  0  0  0  0  0  0  0
   41.4720   30.2390   36.5380 O   0  0  0  0  0  0  0  0  0  0  0  0
   39.6690   28.7080   36.9700 O   0  0  0  0  0  0  0  0  0  0  0  0
   43.4660   33.7140   41.6950 S   0  0  0  0  0  0  0  0  0  0  0  0
   43.5220   35.4800   42.0010 C   0  0  0  0  0  0  0  0  0  0  0  0
   42.7010   36.0390   41.4950 H   0  0  0  0  0  0  0  0  0  0  0  0
   44.4710   35.9580   41.6860 H   0  0  0  0  0  0  0  0  0  0  0  0
   43.2840   35.6680   43.4320 N   0  0  0  0  0  0  0  0  0  0  0  0
   42.6820   34.9420   43.8430 H   0  0  0  0  0  0  0  0  0  0  0  0
   44.7410   35.8690   44.3120 S   0  0  0  0  0  0  0  0  0  0  0  0
   45.9340   35.3750   43.5530 O   0  0  0  0  0  0  0  0  0  0  0  0
   46.7320   35.8970   43.2480 H   0  0  0  0  0  0  0  0  0  0  0  0
   44.8800   37.3450   44.5700 O   0  0  0  0  0  0  0  0  0  0  0  0
   45.2690   38.0510   44.0260 H   0  0  0  0  0  0  0  0  0  0  0  0
   44.6200   35.1110   45.7940 O   0  0  0  0  0  0  0  0  0  0  0  0
   45.4050   33.9690   45.8680 C   0  0  0  0  0  0  0  0  0  0  0  0
   44.7870   33.1980   46.3820 H   0  0  0  0  0  0  0  0  0  0  0  0
   45.7530   33.6280   44.8790 H   0  0  0  0  0  0  0  0  0  0  0  0
   46.2460   34.2000   46.5520 H   0  0  0  0  0  0  0  0  0  0  0  0
  1  7  1  0  0  0  0
  2  1  1  0  0  0  0
  2 21  1  0  0  0  0
  3  2  2  0  0  0  0
  4  5  2  0  0  0  0
  4  3  1  0  0  0  0
  5  6  1  0  0  0  0
  6  1  2  0  0  0  0
  8  3  1  0  0  0  0
  9 18  1  0  0  0  0
  9 10  1  0  0  0  0
 10  5  1  0  0  0  0
 11 10  2  0  0  0  0
 11 12  1  0  0  0  0
 13 11  1  0  0  0  0
 14 13  1  0  0  0  0
 15 16  1  0  0  0  0
 15 13  2  0  0  0  0
 16  9  2  0  0  0  0
 18 17  1  0  0  0  0
 19 18  2  0  0  0  0
 20 18  2  0  0  0  0
 21 22  1  0  0  0  0
 22 25  1  0  0  0  0
 23 22  1  0  0  0  0
 24 22  1  0  0  0  0
 25 26  1  0  0  0  0
 25 27  1  0  0  0  0
 27 30  1  0  0  0  0
 27 32  1  0  0  0  0
 28 27  1  0  0  0  0
 29 28  1  0  0  0  0
 31 30  1  0  0  0  0
 32 33  1  0  0  0  0
 33 34  1  0  0  0  0
 33 36  1  0  0  0  0
 35 33  1  0  0  0  0
M  END
>  <minimizedAffinity>
-4.39849329

>  <minimizedRMSD>
2.64280248

$$$$
