
 OpenBabel03242513543D

 22 23  0  0  0  0  0  0  0  0999 V2000
   41.3990   33.5420   40.9230 C   0  0  0  0  0  0  0  0  0  0  0  0
   42.3130   32.5740   41.2860 C   0  0  0  0  0  0  0  0  0  0  0  0
   41.9930   31.4110   41.9870 C   0  0  0  0  0  0  0  0  0  0  0  0
   42.7200   30.6730   42.2580 H   0  0  0  0  0  0  0  0  0  0  0  0
   40.6740   31.2150   42.3410 C   0  0  0  0  0  0  0  0  0  0  0  0
   40.3730   30.3300   42.8840 H   0  0  0  0  0  0  0  0  0  0  0  0
   39.7360   32.1680   41.9900 C   0  0  0  0  0  0  0  0  0  0  0  0
   40.0860   33.3240   41.2880 C   0  0  0  0  0  0  0  0  0  0  0  0
   42.9580   34.7200   39.2070 H   0  0  0  0  0  0  0  0  0  0  0  0
   41.9150   34.9710   40.0390 S   0  0  0  0  0  0  0  0  0  0  0  0
   40.7330   35.5660   39.3370 O   0  0  0  0  0  0  0  0  0  0  0  0
   42.3240   35.9830   41.1000 O   0  0  0  0  0  0  0  0  0  0  0  0
   43.6270   32.7470   40.9460 O   0  0  0  0  0  0  0  0  0  0  0  0
   45.4480   34.3870   41.3340 C   0  0  0  0  0  0  0  0  0  0  0  0
   44.5760   33.3500   41.7390 C   0  0  0  0  0  0  0  0  0  0  0  0
   44.7040   32.9140   43.0660 C   0  0  0  0  0  0  0  0  0  0  0  0
   45.6330   33.4850   43.8880 N   0  0  0  0  0  0  0  0  0  0  0  0
   46.4470   34.4820   43.4380 C   0  0  0  0  0  0  0  0  0  0  0  0
   46.3360   34.9140   42.1640 N   0  0  0  0  0  0  0  0  0  0  0  0
   45.3290   34.7010   40.3170 H   0  0  0  0  0  0  0  0  0  0  0  0
   44.0680   32.1240   43.4390 H   0  0  0  0  0  0  0  0  0  0  0  0
   47.1460   34.8630   44.1730 H   0  0  0  0  0  0  0  0  0  0  0  0
  1  2  2  0  0  0  0
  1  8  1  0  0  0  0
  2  3  1  0  0  0  0
  3  4  1  0  0  0  0
  3  5  2  0  0  0  0
  5  6  1  0  0  0  0
  7  5  1  0  0  0  0
  8  7  2  0  0  0  0
  9 10  1  0  0  0  0
 10  1  1  0  0  0  0
 10 12  2  0  0  0  0
 11 10  2  0  0  0  0
 13  2  1  0  0  0  0
 13 15  1  0  0  0  0
 14 15  2  0  0  0  0
 14 19  1  0  0  0  0
 15 16  1  0  0  0  0
 16 21  1  0  0  0  0
 16 17  2  0  0  0  0
 18 17  1  0  0  0  0
 18 22  1  0  0  0  0
 19 18  2  0  0  0  0
 20 14  1  0  0  0  0
M  END
>  <minimizedAffinity>
-3.59377813

>  <minimizedRMSD>
4.32432365

$$$$
