
 OpenBabel03242523423D

 27 28  0  0  1  0  0  0  0  0999 V2000
   46.7450   33.6010   42.0990 C   0  0  2  0  0  0  0  0  0  0  0  0
   47.6490   34.1980   41.8180 H   0  0  0  0  0  0  0  0  0  0  0  0
   45.5630   35.6400   42.8770 C   0  0  0  0  0  0  0  0  0  0  0  0
   46.0180   34.3480   43.1080 C   0  0  0  0  0  0  0  0  0  0  0  0
   45.7200   33.8120   44.3870 C   0  0  0  0  0  0  0  0  0  0  0  0
   45.0310   34.5780   45.2700 N   0  0  0  0  0  0  0  0  0  0  0  0
   44.6210   35.8160   44.9830 C   0  0  0  0  0  0  0  0  0  0  0  0
   44.8890   36.3500   43.7790 N   0  0  0  0  0  0  0  0  0  0  0  0
   45.7250   36.1610   41.9470 H   0  0  0  0  0  0  0  0  0  0  0  0
   46.0440   32.8120   44.6350 H   0  0  0  0  0  0  0  0  0  0  0  0
   44.0740   36.3720   45.7360 H   0  0  0  0  0  0  0  0  0  0  0  0
   46.3820   33.3740   39.5700 C   0  0  0  0  0  0  0  0  0  0  0  0
   45.9740   33.2650   40.8760 C   0  0  0  0  0  0  0  0  0  0  0  0
   44.6790   32.8010   41.1150 C   0  0  0  0  0  0  0  0  0  0  0  0
   44.2330   32.6690   42.0890 H   0  0  0  0  0  0  0  0  0  0  0  0
   43.8210   32.4570   40.0850 C   0  0  0  0  0  0  0  0  0  0  0  0
   42.8220   32.0960   40.1850 H   0  0  0  0  0  0  0  0  0  0  0  0
   44.2700   32.5810   38.7860 C   0  0  0  0  0  3  0  0  0  0  0  0
   45.5440   33.0360   38.5200 C   0  0  0  0  0  3  0  0  0  0  0  0
   48.2580   35.0360   39.9930 H   0  0  0  0  0  0  0  0  0  0  0  0
   47.9850   33.9350   39.2540 S   0  0  0  0  0  0  0  0  0  0  0  0
   49.0290   32.8580   39.3450 O   0  0  0  0  0  0  0  0  0  0  0  0
   48.0630   34.3990   37.7990 O   0  0  0  0  0  0  0  0  0  0  0  0
   47.3200   32.3610   42.7590 C   0  0  0  0  0  0  0  0  0  0  0  0
   48.0280   32.7570   43.5450 H   0  0  0  0  0  0  0  0  0  0  0  0
   47.9180   31.7910   42.0100 H   0  0  0  0  0  0  0  0  0  0  0  0
   46.5870   31.7730   43.3140 H   0  0  0  0  0  0  0  0  0  0  0  0
  1  2  1  6  0  0  0
  1 24  1  0  0  0  0
  1  4  1  0  0  0  0
  3  4  2  0  0  0  0
  3  8  1  0  0  0  0
  4  5  1  0  0  0  0
  5 10  1  0  0  0  0
  5  6  2  0  0  0  0
  7  6  1  0  0  0  0
  7 11  1  0  0  0  0
  8  7  2  0  0  0  0
  9  3  1  0  0  0  0
 12 13  1  0  0  0  0
 13 14  2  0  0  0  0
 13  1  1  0  0  0  0
 14 15  1  0  0  0  0
 16 17  1  0  0  0  0
 16 14  1  0  0  0  0
 18 16  2  0  0  0  0
 19 18  1  0  0  0  0
 19 12  2  0  0  0  0
 21 22  2  0  0  0  0
 21 12  1  0  0  0  0
 21 20  1  0  0  0  0
 23 21  2  0  0  0  0
 24 27  1  0  0  0  0
 24 25  1  0  0  0  0
 26 24  1  0  0  0  0
M  END
>  <minimizedAffinity>
-3.93223476

>  <minimizedRMSD>
1.49305046

$$$$
