
 OpenBabel03252503543D

 39 41  0  0  1  0  0  0  0  0999 V2000
   38.3310   28.7600   41.4630 N   0  0  0  0  0  0  0  0  0  0  0  0
   38.9570   28.8220   42.7870 C   0  0  0  0  0  0  0  0  0  0  0  0
   38.8390   27.4300   43.3780 C   0  0  0  0  0  0  0  0  0  0  0  0
   37.3930   27.1520   43.6800 C   0  0  0  0  0  0  0  0  0  0  0  0
   36.5800   27.4170   42.4540 C   0  0  0  0  0  0  0  0  0  0  0  0
   37.3780   27.7370   41.2370 C   0  0  1  0  0  0  0  0  0  0  0  0
   40.0350   29.0490   42.6240 H   0  0  0  0  0  0  0  0  0  0  0  0
   38.4690   29.5320   43.4570 H   0  0  0  0  0  0  0  0  0  0  0  0
   39.2930   26.6640   42.7170 H   0  0  0  0  0  0  0  0  0  0  0  0
   39.3840   27.3890   44.3270 H   0  0  0  0  0  0  0  0  0  0  0  0
   37.1150   27.7690   44.5540 H   0  0  0  0  0  0  0  0  0  0  0  0
   37.2670   26.0820   43.9950 H   0  0  0  0  0  0  0  0  0  0  0  0
   35.8500   26.6070   42.2310 H   0  0  0  0  0  0  0  0  0  0  0  0
   35.9840   28.3510   42.6880 H   0  0  0  0  0  0  0  0  0  0  0  0
   37.8850   26.8260   40.8890 H   0  0  0  0  0  0  0  0  0  0  0  0
   38.8420   31.9650   39.6960 C   0  0  0  0  0  0  0  0  0  0  0  0
   38.4430   31.0510   40.6740 C   0  0  0  0  0  0  0  0  0  0  0  0
   38.6670   29.7010   40.4790 C   0  0  0  0  0  0  0  0  0  0  0  0
   39.2680   29.3150   39.3270 N   0  0  0  0  0  0  0  0  0  0  0  0
   39.6540   30.2040   38.3710 C   0  0  0  0  0  0  0  0  0  0  0  0
   39.4410   31.5300   38.5610 N   0  0  0  0  0  0  0  0  0  0  0  0
   37.9380   31.4810   41.5170 H   0  0  0  0  0  0  0  0  0  0  0  0
   40.1320   29.8600   37.4610 H   0  0  0  0  0  0  0  0  0  0  0  0
   38.6180   33.4180   39.9710 C   0  0  0  0  0  0  0  0  0  0  0  0
   37.3930   33.8550   39.4790 F   0  0  0  0  0  0  0  0  0  0  0  0
   38.6940   33.5940   41.3370 F   0  0  0  0  0  0  0  0  0  0  0  0
   39.6350   34.1610   39.3880 F   0  0  0  0  0  0  0  0  0  0  0  0
   36.2360   27.4040   39.0050 C   0  0  0  0  0  0  0  0  0  0  0  0
   36.2980   28.0850   40.2310 C   0  0  0  0  0  0  0  0  0  0  0  0
   35.3080   29.0450   40.4650 C   0  0  0  0  0  0  0  0  0  0  0  0
   35.3400   29.5770   41.4050 H   0  0  0  0  0  0  0  0  0  0  0  0
   34.3400   29.2780   39.5110 C   0  0  0  0  0  0  0  0  0  0  0  0
   33.6120   30.0410   39.7770 H   0  0  0  0  0  0  0  0  0  0  0  0
   34.3120   28.5890   38.3170 C   0  0  0  0  0  3  0  0  0  0  0  0
   35.2740   27.6410   38.0680 C   0  0  0  0  0  3  0  0  0  0  0  0
   38.2480   25.8620   39.6180 H   0  0  0  0  0  0  0  0  0  0  0  0
   37.4130   26.1800   38.5820 S   0  0  0  0  0  0  0  0  0  0  0  0
   36.7430   24.9070   38.1470 O   0  0  0  0  0  0  0  0  0  0  0  0
   38.2850   26.6910   37.4460 O   0  0  0  0  0  0  0  0  0  0  0  0
  1  2  1  0  0  0  0
  2  3  1  0  0  0  0
  2  8  1  0  0  0  0
  3  4  1  0  0  0  0
  3 10  1  0  0  0  0
  4 12  1  0  0  0  0
  4 11  1  0  0  0  0
  5 14  1  0  0  0  0
  5  4  1  0  0  0  0
  6 15  1  6  0  0  0
  6  1  1  0  0  0  0
  6  5  1  0  0  0  0
  7  2  1  0  0  0  0
  9  3  1  0  0  0  0
 13  5  1  0  0  0  0
 16 24  1  0  0  0  0
 16 17  1  0  0  0  0
 17 22  1  0  0  0  0
 18 17  2  0  0  0  0
 18  1  1  0  0  0  0
 19 18  1  0  0  0  0
 20 21  1  0  0  0  0
 20 19  2  0  0  0  0
 21 16  2  0  0  0  0
 23 20  1  0  0  0  0
 24 26  1  0  0  0  0
 25 24  1  0  0  0  0
 27 24  1  0  0  0  0
 28 29  1  0  0  0  0
 29 30  2  0  0  0  0
 29  6  1  0  0  0  0
 30 31  1  0  0  0  0
 32 33  1  0  0  0  0
 32 30  1  0  0  0  0
 34 32  2  0  0  0  0
 35 34  1  0  0  0  0
 35 28  2  0  0  0  0
 37 28  1  0  0  0  0
 37 36  1  0  0  0  0
 38 37  2  0  0  0  0
 39 37  2  0  0  0  0
M  END
>  <minimizedAffinity>
-5.73866463

$$$$

 OpenBabel03252503543D

 39 41  0  0  1  0  0  0  0  0999 V2000
   38.0470   29.4910   41.6080 N   0  0  0  0  0  0  0  0  0  0  0  0
   38.5270   29.4960   42.9940 C   0  0  0  0  0  0  0  0  0  0  0  0
   38.7100   28.0410   43.3840 C   0  0  0  0  0  0  0  0  0  0  0  0
   37.3580   27.3910   43.4770 C   0  0  0  0  0  0  0  0  0  0  0  0
   36.6090   27.6410   42.2090 C   0  0  0  0  0  0  0  0  0  0  0  0
   37.4000   28.3210   41.1430 C   0  0  1  0  0  0  0  0  0  0  0  0
   39.5250   29.9910   42.9870 H   0  0  0  0  0  0  0  0  0  0  0  0
   37.8260   29.9610   43.6870 H   0  0  0  0  0  0  0  0  0  0  0  0
   39.3930   27.5120   42.6890 H   0  0  0  0  0  0  0  0  0  0  0  0
   39.1680   27.9840   44.3770 H   0  0  0  0  0  0  0  0  0  0  0  0
   36.8650   27.7850   44.3850 H   0  0  0  0  0  0  0  0  0  0  0  0
   37.4760   26.2850   43.6360 H   0  0  0  0  0  0  0  0  0  0  0  0
   36.1230   26.7270   41.8000 H   0  0  0  0  0  0  0  0  0  0  0  0
   35.7820   28.3630   42.4880 H   0  0  0  0  0  0  0  0  0  0  0  0
   38.1440   27.6170   40.7440 H   0  0  0  0  0  0  0  0  0  0  0  0
   39.4050   31.8450   39.1040 C   0  0  0  0  0  0  0  0  0  0  0  0
   39.2950   30.7290   39.9360 C   0  0  0  0  0  0  0  0  0  0  0  0
   38.2200   30.6230   40.7980 C   0  0  0  0  0  0  0  0  0  0  0  0
   37.3070   31.6250   40.8040 N   0  0  0  0  0  0  0  0  0  0  0  0
   37.4140   32.7150   39.9960 C   0  0  0  0  0  0  0  0  0  0  0  0
   38.4650   32.8200   39.1450 N   0  0  0  0  0  0  0  0  0  0  0  0
   40.1060   30.0310   39.8680 H   0  0  0  0  0  0  0  0  0  0  0  0
   36.6650   33.4980   40.0270 H   0  0  0  0  0  0  0  0  0  0  0  0
   40.5620   31.8940   38.1570 C   0  0  0  0  0  0  0  0  0  0  0  0
   41.2170   30.6690   38.0780 F   0  0  0  0  0  0  0  0  0  0  0  0
   40.0700   32.2720   36.9250 F   0  0  0  0  0  0  0  0  0  0  0  0
   41.4610   32.8650   38.5750 F   0  0  0  0  0  0  0  0  0  0  0  0
   36.6440   28.2530   38.7310 C   0  0  0  0  0  0  0  0  0  0  0  0
   36.3540   28.5550   40.0720 C   0  0  0  0  0  0  0  0  0  0  0  0
   35.0680   29.0360   40.3410 C   0  0  0  0  0  0  0  0  0  0  0  0
   34.8280   29.2710   41.3680 H   0  0  0  0  0  0  0  0  0  0  0  0
   34.1640   29.1880   39.3130 C   0  0  0  0  0  0  0  0  0  0  0  0
   33.1890   29.5670   39.6140 H   0  0  0  0  0  0  0  0  0  0  0  0
   34.4850   28.8810   38.0070 C   0  0  0  0  0  3  0  0  0  0  0  0
   35.7410   28.4080   37.7200 C   0  0  0  0  0  3  0  0  0  0  0  0
   39.1030   27.5910   39.2910 H   0  0  0  0  0  0  0  0  0  0  0  0
   38.2140   27.6470   38.2530 S   0  0  0  0  0  0  0  0  0  0  0  0
   38.1120   26.2610   37.6810 O   0  0  0  0  0  0  0  0  0  0  0  0
   38.8110   28.5710   37.2020 O   0  0  0  0  0  0  0  0  0  0  0  0
  1  2  1  0  0  0  0
  2  3  1  0  0  0  0
  2  8  1  0  0  0  0
  3  4  1  0  0  0  0
  3 10  1  0  0  0  0
  4 12  1  0  0  0  0
  4 11  1  0  0  0  0
  5 14  1  0  0  0  0
  5  4  1  0  0  0  0
  6 15  1  6  0  0  0
  6  1  1  0  0  0  0
  6  5  1  0  0  0  0
  7  2  1  0  0  0  0
  9  3  1  0  0  0  0
 13  5  1  0  0  0  0
 16 21  2  0  0  0  0
 16 17  1  0  0  0  0
 17 18  2  0  0  0  0
 18 19  1  0  0  0  0
 18  1  1  0  0  0  0
 20 23  1  0  0  0  0
 20 19  2  0  0  0  0
 21 20  1  0  0  0  0
 22 17  1  0  0  0  0
 24 27  1  0  0  0  0
 24 16  1  0  0  0  0
 25 24  1  0  0  0  0
 26 24  1  0  0  0  0
 28 29  1  0  0  0  0
 29 30  2  0  0  0  0
 29  6  1  0  0  0  0
 30 31  1  0  0  0  0
 32 33  1  0  0  0  0
 32 30  1  0  0  0  0
 34 32  2  0  0  0  0
 35 34  1  0  0  0  0
 35 28  2  0  0  0  0
 37 28  1  0  0  0  0
 37 36  1  0  0  0  0
 38 37  2  0  0  0  0
 39 37  2  0  0  0  0
M  END
>  <minimizedAffinity>
-5.61812544

$$$$

 OpenBabel03252503543D

 39 41  0  0  1  0  0  0  0  0999 V2000
   38.0630   28.7990   38.0080 N   0  0  0  0  0  0  0  0  0  0  0  0
   37.3980   27.7370   37.2460 C   0  0  0  0  0  0  0  0  0  0  0  0
   37.5450   28.1100   35.7830 C   0  0  0  0  0  0  0  0  0  0  0  0
   36.7060   29.3260   35.5070 C   0  0  0  0  0  0  0  0  0  0  0  0
   37.0530   30.3920   36.4940 C   0  0  0  0  0  0  0  0  0  0  0  0
   38.2010   30.0630   37.3860 C   0  0  1  0  0  0  0  0  0  0  0  0
   37.9710   26.8000   37.4340 H   0  0  0  0  0  0  0  0  0  0  0  0
   36.3380   27.6430   37.4820 H   0  0  0  0  0  0  0  0  0  0  0  0
   38.6080   28.2500   35.4990 H   0  0  0  0  0  0  0  0  0  0  0  0
   37.1570   27.2980   35.1590 H   0  0  0  0  0  0  0  0  0  0  0  0
   35.6470   29.0070   35.5320 H   0  0  0  0  0  0  0  0  0  0  0  0
   36.9010   29.6960   34.4650 H   0  0  0  0  0  0  0  0  0  0  0  0
   37.2070   31.3890   36.0240 H   0  0  0  0  0  0  0  0  0  0  0  0
   36.1500   30.4770   37.1720 H   0  0  0  0  0  0  0  0  0  0  0  0
   39.1310   30.0900   36.8000 H   0  0  0  0  0  0  0  0  0  0  0  0
   38.1250   28.1150   41.6390 C   0  0  0  0  0  0  0  0  0  0  0  0
   37.6370   28.4160   40.3660 C   0  0  0  0  0  0  0  0  0  0  0  0
   38.5210   28.5520   39.3110 C   0  0  0  0  0  0  0  0  0  0  0  0
   39.8430   28.3890   39.5620 N   0  0  0  0  0  0  0  0  0  0  0  0
   40.3200   28.0990   40.8040 C   0  0  0  0  0  0  0  0  0  0  0  0
   39.4560   27.9610   41.8400 N   0  0  0  0  0  0  0  0  0  0  0  0
   36.5770   28.5650   40.3100 H   0  0  0  0  0  0  0  0  0  0  0  0
   41.3840   27.9760   40.9690 H   0  0  0  0  0  0  0  0  0  0  0  0
   37.1270   27.9350   42.7390 C   0  0  0  0  0  0  0  0  0  0  0  0
   37.2070   26.6670   43.3070 F   0  0  0  0  0  0  0  0  0  0  0  0
   37.3700   28.9140   43.6800 F   0  0  0  0  0  0  0  0  0  0  0  0
   35.8470   28.1300   42.2390 F   0  0  0  0  0  0  0  0  0  0  0  0
   39.4140   31.9240   38.5960 C   0  0  0  0  0  0  0  0  0  0  0  0
   38.2130   31.2430   38.3370 C   0  0  0  0  0  0  0  0  0  0  0  0
   37.0660   31.7360   38.9690 C   0  0  0  0  0  0  0  0  0  0  0  0
   36.1330   31.2250   38.7790 H   0  0  0  0  0  0  0  0  0  0  0  0
   37.1570   32.8360   39.7940 C   0  0  0  0  0  0  0  0  0  0  0  0
   36.2160   33.1490   40.2420 H   0  0  0  0  0  0  0  0  0  0  0  0
   38.3560   33.4790   40.0250 C   0  0  0  0  0  3  0  0  0  0  0  0
   39.4940   33.0120   39.4140 C   0  0  0  0  0  3  0  0  0  0  0  0
   40.7850   30.3180   37.0650 H   0  0  0  0  0  0  0  0  0  0  0  0
   40.9240   31.4120   37.8740 S   0  0  0  0  0  0  0  0  0  0  0  0
   41.5270   32.5070   37.0390 O   0  0  0  0  0  0  0  0  0  0  0  0
   41.9050   31.0350   38.9740 O   0  0  0  0  0  0  0  0  0  0  0  0
  1 18  1  0  0  0  0
  2  7  1  0  0  0  0
  2  8  1  0  0  0  0
  2  1  1  0  0  0  0
  3  2  1  0  0  0  0
  4 11  1  0  0  0  0
  4  3  1  0  0  0  0
  4  5  1  0  0  0  0
  5 14  1  0  0  0  0
  5  6  1  0  0  0  0
  6 15  1  6  0  0  0
  6  1  1  0  0  0  0
  6 29  1  0  0  0  0
  9  3  1  0  0  0  0
 10  3  1  0  0  0  0
 12  4  1  0  0  0  0
 13  5  1  0  0  0  0
 16 21  1  0  0  0  0
 16 24  1  0  0  0  0
 17 16  2  0  0  0  0
 18 19  2  0  0  0  0
 18 17  1  0  0  0  0
 19 20  1  0  0  0  0
 20 23  1  0  0  0  0
 20 21  2  0  0  0  0
 22 17  1  0  0  0  0
 24 25  1  0  0  0  0
 24 26  1  0  0  0  0
 27 24  1  0  0  0  0
 28 35  1  0  0  0  0
 29 28  2  0  0  0  0
 29 30  1  0  0  0  0
 30 32  2  0  0  0  0
 31 30  1  0  0  0  0
 32 34  1  0  0  0  0
 32 33  1  0  0  0  0
 35 34  2  0  0  0  0
 36 37  1  0  0  0  0
 37 28  1  0  0  0  0
 37 39  2  0  0  0  0
 38 37  2  0  0  0  0
M  END
>  <minimizedAffinity>
-5.46114349

$$$$

 OpenBabel03252503543D

 39 41  0  0  1  0  0  0  0  0999 V2000
   40.8430   28.7400   41.1990 N   0  0  0  0  0  0  0  0  0  0  0  0
   42.1650   29.3700   41.2840 C   0  0  0  0  0  0  0  0  0  0  0  0
   43.0920   28.3300   41.8840 C   0  0  0  0  0  0  0  0  0  0  0  0
   42.7080   28.1090   43.3200 C   0  0  0  0  0  0  0  0  0  0  0  0
   41.2470   27.8060   43.3930 C   0  0  0  0  0  0  0  0  0  0  0  0
   40.5770   27.6560   42.0700 C   0  0  1  0  0  0  0  0  0  0  0  0
   42.4910   29.5780   40.2390 H   0  0  0  0  0  0  0  0  0  0  0  0
   42.1740   30.2570   41.9180 H   0  0  0  0  0  0  0  0  0  0  0  0
   43.0950   27.3920   41.2920 H   0  0  0  0  0  0  0  0  0  0  0  0
   44.1200   28.7090   41.8750 H   0  0  0  0  0  0  0  0  0  0  0  0
   43.0180   29.0080   43.8850 H   0  0  0  0  0  0  0  0  0  0  0  0
   43.2960   27.2510   43.7450 H   0  0  0  0  0  0  0  0  0  0  0  0
   41.0150   26.9310   44.0410 H   0  0  0  0  0  0  0  0  0  0  0  0
   40.7780   28.7160   43.8770 H   0  0  0  0  0  0  0  0  0  0  0  0
   40.9050   26.7150   41.6060 H   0  0  0  0  0  0  0  0  0  0  0  0
   38.1900   30.7950   39.6520 C   0  0  0  0  0  0  0  0  0  0  0  0
   39.0900   30.3070   40.6020 C   0  0  0  0  0  0  0  0  0  0  0  0
   39.8890   29.2230   40.2910 C   0  0  0  0  0  0  0  0  0  0  0  0
   39.7590   28.6680   39.0610 N   0  0  0  0  0  0  0  0  0  0  0  0
   38.8800   29.1400   38.1350 C   0  0  0  0  0  0  0  0  0  0  0  0
   38.0980   30.2070   38.4350 N   0  0  0  0  0  0  0  0  0  0  0  0
   39.0630   30.8050   41.5510 H   0  0  0  0  0  0  0  0  0  0  0  0
   38.8030   28.6720   37.1620 H   0  0  0  0  0  0  0  0  0  0  0  0
   37.3790   31.9970   40.0190 C   0  0  0  0  0  0  0  0  0  0  0  0
   38.0970   32.8820   40.8170 F   0  0  0  0  0  0  0  0  0  0  0  0
   36.9820   32.6010   38.8440 F   0  0  0  0  0  0  0  0  0  0  0  0
   36.2370   31.5940   40.6990 F   0  0  0  0  0  0  0  0  0  0  0  0
   38.3750   26.4150   41.9820 C   0  0  0  0  0  0  0  0  0  0  0  0
   39.1230   27.5010   42.4660 C   0  0  0  0  0  0  0  0  0  0  0  0
   38.4630   28.3760   43.3370 C   0  0  0  0  0  0  0  0  0  0  0  0
   39.0250   29.2150   43.7210 H   0  0  0  0  0  0  0  0  0  0  0  0
   37.1470   28.1440   43.6740 C   0  0  0  0  0  0  0  0  0  0  0  0
   36.7160   28.8740   44.3560 H   0  0  0  0  0  0  0  0  0  0  0  0
   36.4440   27.0660   43.1770 C   0  0  0  0  0  3  0  0  0  0  0  0
   37.0730   26.1950   42.3220 C   0  0  0  0  0  3  0  0  0  0  0  0
   40.4130   25.4420   40.6770 H   0  0  0  0  0  0  0  0  0  0  0  0
   39.0750   25.2470   40.8830 S   0  0  0  0  0  0  0  0  0  0  0  0
   38.9060   23.8450   41.4000 O   0  0  0  0  0  0  0  0  0  0  0  0
   38.3920   25.3580   39.5290 O   0  0  0  0  0  0  0  0  0  0  0  0
  1  2  1  0  0  0  0
  1  6  1  0  0  0  0
  2  3  1  0  0  0  0
  2  8  1  0  0  0  0
  3  4  1  0  0  0  0
  4  5  1  0  0  0  0
  4 12  1  0  0  0  0
  4 11  1  0  0  0  0
  5 14  1  0  0  0  0
  5 13  1  0  0  0  0
  6 15  1  6  0  0  0
  6 29  1  0  0  0  0
  6  5  1  0  0  0  0
  7  2  1  0  0  0  0
  9  3  1  0  0  0  0
 10  3  1  0  0  0  0
 16 24  1  0  0  0  0
 16 17  1  0  0  0  0
 17 22  1  0  0  0  0
 18 17  2  0  0  0  0
 18  1  1  0  0  0  0
 19 18  1  0  0  0  0
 20 21  1  0  0  0  0
 20 19  2  0  0  0  0
 21 16  2  0  0  0  0
 23 20  1  0  0  0  0
 24 27  1  0  0  0  0
 24 25  1  0  0  0  0
 26 24  1  0  0  0  0
 28 35  2  0  0  0  0
 28 29  1  0  0  0  0
 29 30  2  0  0  0  0
 30 32  1  0  0  0  0
 30 31  1  0  0  0  0
 32 33  1  0  0  0  0
 34 32  2  0  0  0  0
 35 34  1  0  0  0  0
 36 37  1  0  0  0  0
 37 38  2  0  0  0  0
 37 28  1  0  0  0  0
 39 37  2  0  0  0  0
M  END
>  <minimizedAffinity>
-5.39072752

$$$$

 OpenBabel03252503543D

 39 41  0  0  1  0  0  0  0  0999 V2000
   36.1740   27.5970   38.9900 N   0  0  0  0  0  0  0  0  0  0  0  0
   35.0970   27.3820   38.0180 C   0  0  0  0  0  0  0  0  0  0  0  0
   34.5060   28.7500   37.7310 C   0  0  0  0  0  0  0  0  0  0  0  0
   33.7860   29.2330   38.9590 C   0  0  0  0  0  0  0  0  0  0  0  0
   34.7110   29.1500   40.1300 C   0  0  0  0  0  0  0  0  0  0  0  0
   36.1100   28.7630   39.7910 C   0  0  1  0  0  0  0  0  0  0  0  0
   35.5760   26.9990   37.0870 H   0  0  0  0  0  0  0  0  0  0  0  0
   34.3090   26.7280   38.3920 H   0  0  0  0  0  0  0  0  0  0  0  0
   35.2760   29.4640   37.3760 H   0  0  0  0  0  0  0  0  0  0  0  0
   33.7640   28.6650   36.9300 H   0  0  0  0  0  0  0  0  0  0  0  0
   32.8660   28.6300   39.0590 H   0  0  0  0  0  0  0  0  0  0  0  0
   33.4540   30.2960   38.8130 H   0  0  0  0  0  0  0  0  0  0  0  0
   34.7090   30.0720   40.7530 H   0  0  0  0  0  0  0  0  0  0  0  0
   34.3040   28.3100   40.7710 H   0  0  0  0  0  0  0  0  0  0  0  0
   36.5980   29.6000   39.2700 H   0  0  0  0  0  0  0  0  0  0  0  0
   38.0430   24.5190   39.8190 C   0  0  0  0  0  0  0  0  0  0  0  0
   37.0060   25.4530   39.7620 C   0  0  0  0  0  0  0  0  0  0  0  0
   37.2090   26.6590   39.1160 C   0  0  0  0  0  0  0  0  0  0  0  0
   38.4240   26.8880   38.5620 N   0  0  0  0  0  0  0  0  0  0  0  0
   39.4370   25.9800   38.6200 C   0  0  0  0  0  0  0  0  0  0  0  0
   39.2410   24.7950   39.2490 N   0  0  0  0  0  0  0  0  0  0  0  0
   36.1110   25.1690   40.2780 H   0  0  0  0  0  0  0  0  0  0  0  0
   40.3960   26.1980   38.1660 H   0  0  0  0  0  0  0  0  0  0  0  0
   37.7630   23.2120   40.4900 C   0  0  0  0  0  0  0  0  0  0  0  0
   38.8500   22.3480   40.4150 F   0  0  0  0  0  0  0  0  0  0  0  0
   37.4370   23.4850   41.8030 F   0  0  0  0  0  0  0  0  0  0  0  0
   36.6630   22.6120   39.8930 F   0  0  0  0  0  0  0  0  0  0  0  0
   37.9020   29.3610   41.4720 C   0  0  0  0  0  0  0  0  0  0  0  0
   36.7440   28.6300   41.1600 C   0  0  0  0  0  0  0  0  0  0  0  0
   36.2170   27.8280   42.1790 C   0  0  0  0  0  0  0  0  0  0  0  0
   35.3240   27.2610   41.9570 H   0  0  0  0  0  0  0  0  0  0  0  0
   36.8350   27.7890   43.4100 C   0  0  0  0  0  0  0  0  0  0  0  0
   36.3570   27.1400   44.1410 H   0  0  0  0  0  0  0  0  0  0  0  0
   37.9730   28.5210   43.6790 C   0  0  0  0  0  3  0  0  0  0  0  0
   38.5070   29.3150   42.6940 C   0  0  0  0  0  3  0  0  0  0  0  0
   37.8650   30.6690   39.2170 H   0  0  0  0  0  0  0  0  0  0  0  0
   38.6680   30.4000   40.2910 S   0  0  0  0  0  0  0  0  0  0  0  0
   39.0530   31.7210   40.8970 O   0  0  0  0  0  0  0  0  0  0  0  0
   39.9180   29.7190   39.7570 O   0  0  0  0  0  0  0  0  0  0  0  0
  1 18  1  0  0  0  0
  1  6  1  0  0  0  0
  2  8  1  0  0  0  0
  2  1  1  0  0  0  0
  3  2  1  0  0  0  0
  3  4  1  0  0  0  0
  4 11  1  0  0  0  0
  4  5  1  0  0  0  0
  5 13  1  0  0  0  0
  5 14  1  0  0  0  0
  6 15  1  6  0  0  0
  6  5  1  0  0  0  0
  6 29  1  0  0  0  0
  7  2  1  0  0  0  0
  9  3  1  0  0  0  0
 10  3  1  0  0  0  0
 12  4  1  0  0  0  0
 16 24  1  0  0  0  0
 17 16  1  0  0  0  0
 17 22  1  0  0  0  0
 18 17  2  0  0  0  0
 19 20  2  0  0  0  0
 19 18  1  0  0  0  0
 20 21  1  0  0  0  0
 21 16  2  0  0  0  0
 23 20  1  0  0  0  0
 24 26  1  0  0  0  0
 25 24  1  0  0  0  0
 27 24  1  0  0  0  0
 28 35  1  0  0  0  0
 29 28  2  0  0  0  0
 29 30  1  0  0  0  0
 30 32  2  0  0  0  0
 31 30  1  0  0  0  0
 32 34  1  0  0  0  0
 32 33  1  0  0  0  0
 35 34  2  0  0  0  0
 36 37  1  0  0  0  0
 37 38  2  0  0  0  0
 37 28  1  0  0  0  0
 39 37  2  0  0  0  0
M  END
>  <minimizedAffinity>
-5.38209295

$$$$

 OpenBabel03252503543D

 39 41  0  0  1  0  0  0  0  0999 V2000
   40.6200   29.8820   39.5150 N   0  0  0  0  0  0  0  0  0  0  0  0
   41.3610   28.8090   38.8460 C   0  0  0  0  0  0  0  0  0  0  0  0
   42.5060   29.4790   38.1090 C   0  0  0  0  0  0  0  0  0  0  0  0
   41.9440   30.2860   36.9730 C   0  0  0  0  0  0  0  0  0  0  0  0
   40.8810   31.1940   37.4990 C   0  0  0  0  0  0  0  0  0  0  0  0
   40.7380   31.1890   38.9830 C   0  0  1  0  0  0  0  0  0  0  0  0
   41.7840   28.1610   39.6480 H   0  0  0  0  0  0  0  0  0  0  0  0
   40.7560   28.2560   38.1270 H   0  0  0  0  0  0  0  0  0  0  0  0
   43.1370   30.0820   38.7930 H   0  0  0  0  0  0  0  0  0  0  0  0
   43.1580   28.7130   37.6750 H   0  0  0  0  0  0  0  0  0  0  0  0
   41.5960   29.5730   36.2030 H   0  0  0  0  0  0  0  0  0  0  0  0
   42.7600   30.8940   36.4960 H   0  0  0  0  0  0  0  0  0  0  0  0
   40.9760   32.2390   37.1280 H   0  0  0  0  0  0  0  0  0  0  0  0
   39.9080   30.7810   37.0940 H   0  0  0  0  0  0  0  0  0  0  0  0
   41.6060   31.6960   39.4300 H   0  0  0  0  0  0  0  0  0  0  0  0
   37.9930   28.4310   41.6720 C   0  0  0  0  0  0  0  0  0  0  0  0
   38.7380   28.7360   40.5300 C   0  0  0  0  0  0  0  0  0  0  0  0
   39.8160   29.5970   40.6280 C   0  0  0  0  0  0  0  0  0  0  0  0
   40.1060   30.1190   41.8450 N   0  0  0  0  0  0  0  0  0  0  0  0
   39.3790   29.8260   42.9580 C   0  0  0  0  0  0  0  0  0  0  0  0
   38.3230   28.9790   42.8670 N   0  0  0  0  0  0  0  0  0  0  0  0
   38.3780   28.2940   39.6220 H   0  0  0  0  0  0  0  0  0  0  0  0
   39.6390   30.2620   43.9150 H   0  0  0  0  0  0  0  0  0  0  0  0
   36.8640   27.4620   41.5250 C   0  0  0  0  0  0  0  0  0  0  0  0
   36.6950   26.6880   42.6680 F   0  0  0  0  0  0  0  0  0  0  0  0
   35.7270   28.1930   41.2490 F   0  0  0  0  0  0  0  0  0  0  0  0
   37.1090   26.6280   40.4420 F   0  0  0  0  0  0  0  0  0  0  0  0
   39.6530   33.3000   39.8580 C   0  0  0  0  0  0  0  0  0  0  0  0
   39.5240   32.0720   39.1890 C   0  0  0  0  0  0  0  0  0  0  0  0
   38.2480   31.7510   38.7120 C   0  0  0  0  0  0  0  0  0  0  0  0
   38.1310   30.8110   38.1930 H   0  0  0  0  0  0  0  0  0  0  0  0
   37.2020   32.6250   38.9110 C   0  0  0  0  0  0  0  0  0  0  0  0
   36.2470   32.2950   38.5080 H   0  0  0  0  0  0  0  0  0  0  0  0
   37.3680   33.8240   39.5750 C   0  0  0  0  0  3  0  0  0  0  0  0
   38.6110   34.1590   40.0500 C   0  0  0  0  0  3  0  0  0  0  0  0
   41.0910   34.9570   41.2680 H   0  0  0  0  0  0  0  0  0  0  0  0
   41.1910   33.8240   40.5080 S   0  0  0  0  0  0  0  0  0  0  0  0
   41.8060   32.7610   41.3750 O   0  0  0  0  0  0  0  0  0  0  0  0
   42.1410   34.1360   39.3620 O   0  0  0  0  0  0  0  0  0  0  0  0
  1 18  1  0  0  0  0
  2  1  1  0  0  0  0
  2  7  1  0  0  0  0
  3  9  1  0  0  0  0
  3  2  1  0  0  0  0
  4  5  1  0  0  0  0
  4  3  1  0  0  0  0
  5  6  1  0  0  0  0
  6 29  1  0  0  0  0
  6 15  1  1  0  0  0
  6  1  1  0  0  0  0
  8  2  1  0  0  0  0
 10  3  1  0  0  0  0
 11  4  1  0  0  0  0
 12  4  1  0  0  0  0
 13  5  1  0  0  0  0
 14  5  1  0  0  0  0
 16 21  1  0  0  0  0
 17 18  1  0  0  0  0
 17 16  2  0  0  0  0
 18 19  2  0  0  0  0
 19 20  1  0  0  0  0
 20 23  1  0  0  0  0
 21 20  2  0  0  0  0
 22 17  1  0  0  0  0
 24 16  1  0  0  0  0
 24 25  1  0  0  0  0
 26 24  1  0  0  0  0
 27 24  1  0  0  0  0
 28 35  1  0  0  0  0
 28 37  1  0  0  0  0
 29 28  2  0  0  0  0
 30 32  2  0  0  0  0
 30 29  1  0  0  0  0
 31 30  1  0  0  0  0
 32 34  1  0  0  0  0
 33 32  1  0  0  0  0
 34 35  2  0  0  0  0
 37 36  1  0  0  0  0
 37 38  2  0  0  0  0
 39 37  2  0  0  0  0
M  END
>  <minimizedAffinity>
-5.28817797

$$$$

 OpenBabel03252503543D

 39 41  0  0  1  0  0  0  0  0999 V2000
   39.6810   28.9010   38.8360 N   0  0  0  0  0  0  0  0  0  0  0  0
   40.3260   27.9440   37.9320 C   0  0  0  0  0  0  0  0  0  0  0  0
   41.7600   28.4140   37.7700 C   0  0  0  0  0  0  0  0  0  0  0  0
   41.7630   29.6980   36.9890 C   0  0  0  0  0  0  0  0  0  0  0  0
   40.8240   30.6640   37.6360 C   0  0  0  0  0  0  0  0  0  0  0  0
   40.2450   30.1970   38.9280 C   0  0  1  0  0  0  0  0  0  0  0  0
   40.3310   26.9600   38.4560 H   0  0  0  0  0  0  0  0  0  0  0  0
   39.8560   27.9000   36.9500 H   0  0  0  0  0  0  0  0  0  0  0  0
   42.2750   28.5050   38.7480 H   0  0  0  0  0  0  0  0  0  0  0  0
   42.3220   27.6760   37.1870 H   0  0  0  0  0  0  0  0  0  0  0  0
   41.5100   29.4460   35.9420 H   0  0  0  0  0  0  0  0  0  0  0  0
   42.7990   30.1310   36.9700 H   0  0  0  0  0  0  0  0  0  0  0  0
   41.2600   31.6810   37.7580 H   0  0  0  0  0  0  0  0  0  0  0  0
   39.9510   30.7560   36.9210 H   0  0  0  0  0  0  0  0  0  0  0  0
   41.0300   30.2070   39.6990 H   0  0  0  0  0  0  0  0  0  0  0  0
   37.3960   28.0930   41.6260 C   0  0  0  0  0  0  0  0  0  0  0  0
   38.5680   28.4100   40.9350 C   0  0  0  0  0  0  0  0  0  0  0  0
   38.5370   28.5300   39.5580 C   0  0  0  0  0  0  0  0  0  0  0  0
   37.3550   28.3260   38.9270 N   0  0  0  0  0  0  0  0  0  0  0  0
   36.2130   28.0140   39.5980 C   0  0  0  0  0  0  0  0  0  0  0  0
   36.2380   27.9000   40.9490 N   0  0  0  0  0  0  0  0  0  0  0  0
   39.4440   28.5000   41.5460 H   0  0  0  0  0  0  0  0  0  0  0  0
   35.2850   27.8580   39.0610 H   0  0  0  0  0  0  0  0  0  0  0  0
   37.4700   28.0170   43.1180 C   0  0  0  0  0  0  0  0  0  0  0  0
   37.8350   29.2350   43.6800 F   0  0  0  0  0  0  0  0  0  0  0  0
   36.2310   27.6140   43.5710 F   0  0  0  0  0  0  0  0  0  0  0  0
   38.3950   27.0500   43.4860 F   0  0  0  0  0  0  0  0  0  0  0  0
   39.4750   32.1350   40.3590 C   0  0  0  0  0  0  0  0  0  0  0  0
   39.2570   31.2990   39.2510 C   0  0  0  0  0  0  0  0  0  0  0  0
   38.1250   31.5720   38.4750 C   0  0  0  0  0  0  0  0  0  0  0  0
   37.9440   30.9400   37.6170 H   0  0  0  0  0  0  0  0  0  0  0  0
   37.2940   32.6160   38.8180 C   0  0  0  0  0  0  0  0  0  0  0  0
   36.4390   32.7550   38.1590 H   0  0  0  0  0  0  0  0  0  0  0  0
   37.5400   33.4150   39.9150 C   0  0  0  0  0  3  0  0  0  0  0  0
   38.6460   33.1660   40.6900 C   0  0  0  0  0  3  0  0  0  0  0  0
   40.8840   32.8000   42.4500 H   0  0  0  0  0  0  0  0  0  0  0  0
   40.8500   31.9050   41.4160 S   0  0  0  0  0  0  0  0  0  0  0  0
   40.8470   30.5290   42.0210 O   0  0  0  0  0  0  0  0  0  0  0  0
   42.1330   32.0900   40.6210 O   0  0  0  0  0  0  0  0  0  0  0  0
  1  6  1  0  0  0  0
  1 18  1  0  0  0  0
  2  7  1  0  0  0  0
  2  1  1  0  0  0  0
  3  2  1  0  0  0  0
  3  9  1  0  0  0  0
  4  5  1  0  0  0  0
  4  3  1  0  0  0  0
  5 13  1  0  0  0  0
  5  6  1  0  0  0  0
  6 29  1  0  0  0  0
  6 15  1  1  0  0  0
  8  2  1  0  0  0  0
 10  3  1  0  0  0  0
 11  4  1  0  0  0  0
 12  4  1  0  0  0  0
 14  5  1  0  0  0  0
 16 24  1  0  0  0  0
 17 22  1  0  0  0  0
 17 16  2  0  0  0  0
 18 17  1  0  0  0  0
 19 18  2  0  0  0  0
 19 20  1  0  0  0  0
 20 21  2  0  0  0  0
 21 16  1  0  0  0  0
 23 20  1  0  0  0  0
 24 27  1  0  0  0  0
 24 26  1  0  0  0  0
 24 25  1  0  0  0  0
 28 35  1  0  0  0  0
 28 37  1  0  0  0  0
 29 28  2  0  0  0  0
 30 32  2  0  0  0  0
 30 29  1  0  0  0  0
 31 30  1  0  0  0  0
 32 34  1  0  0  0  0
 33 32  1  0  0  0  0
 34 35  2  0  0  0  0
 37 38  2  0  0  0  0
 37 36  1  0  0  0  0
 39 37  2  0  0  0  0
M  END
>  <minimizedAffinity>
-5.28055096

$$$$

 OpenBabel03252503543D

 39 41  0  0  1  0  0  0  0  0999 V2000
   35.4870   28.9430   38.3640 N   0  0  0  0  0  0  0  0  0  0  0  0
   34.0570   28.8300   38.0580 C   0  0  0  0  0  0  0  0  0  0  0  0
   33.9640   28.1030   36.7290 C   0  0  0  0  0  0  0  0  0  0  0  0
   34.4910   29.0020   35.6470 C   0  0  0  0  0  0  0  0  0  0  0  0
   35.8490   29.4890   36.0350 C   0  0  0  0  0  0  0  0  0  0  0  0
   36.3950   28.8780   37.2800 C   0  0  1  0  0  0  0  0  0  0  0  0
   33.6080   28.1860   38.8480 H   0  0  0  0  0  0  0  0  0  0  0  0
   33.5630   29.7970   37.9650 H   0  0  0  0  0  0  0  0  0  0  0  0
   34.4810   27.1220   36.7610 H   0  0  0  0  0  0  0  0  0  0  0  0
   32.9130   27.8950   36.4990 H   0  0  0  0  0  0  0  0  0  0  0  0
   33.7450   29.8030   35.4930 H   0  0  0  0  0  0  0  0  0  0  0  0
   34.5530   28.4370   34.6780 H   0  0  0  0  0  0  0  0  0  0  0  0
   36.5940   29.4100   35.2120 H   0  0  0  0  0  0  0  0  0  0  0  0
   35.7170   30.5900   36.2640 H   0  0  0  0  0  0  0  0  0  0  0  0
   36.6610   27.8300   37.0800 H   0  0  0  0  0  0  0  0  0  0  0  0
   36.6610   28.2680   41.8020 C   0  0  0  0  0  0  0  0  0  0  0  0
   36.1860   28.0480   40.5080 C   0  0  0  0  0  0  0  0  0  0  0  0
   35.9120   29.1270   39.6880 C   0  0  0  0  0  0  0  0  0  0  0  0
   36.1140   30.3720   40.1850 N   0  0  0  0  0  0  0  0  0  0  0  0
   36.5730   30.5890   41.4470 C   0  0  0  0  0  0  0  0  0  0  0  0
   36.8480   29.5330   42.2530 N   0  0  0  0  0  0  0  0  0  0  0  0
   36.0260   27.0190   40.2520 H   0  0  0  0  0  0  0  0  0  0  0  0
   36.7230   31.5980   41.8120 H   0  0  0  0  0  0  0  0  0  0  0  0
   36.9850   27.0690   42.6360 C   0  0  0  0  0  0  0  0  0  0  0  0
   38.2920   27.1070   43.1090 F   0  0  0  0  0  0  0  0  0  0  0  0
   36.0820   27.0370   43.6780 F   0  0  0  0  0  0  0  0  0  0  0  0
   36.8070   25.9190   41.8800 F   0  0  0  0  0  0  0  0  0  0  0  0
   38.8850   28.9740   37.7140 C   0  0  0  0  0  0  0  0  0  0  0  0
   37.6800   29.6560   37.4800 C   0  0  0  0  0  0  0  0  0  0  0  0
   37.7550   31.0520   37.4090 C   0  0  0  0  0  0  0  0  0  0  0  0
   36.8370   31.5920   37.2270 H   0  0  0  0  0  0  0  0  0  0  0  0
   38.9700   31.6820   37.5680 C   0  0  0  0  0  0  0  0  0  0  0  0
   38.9340   32.7670   37.4980 H   0  0  0  0  0  0  0  0  0  0  0  0
   40.1330   30.9780   37.7980 C   0  0  0  0  0  3  0  0  0  0  0  0
   40.0830   29.6070   37.8700 C   0  0  0  0  0  3  0  0  0  0  0  0
   37.7590   26.6360   37.4620 H   0  0  0  0  0  0  0  0  0  0  0  0
   38.9360   27.2290   37.8290 S   0  0  0  0  0  0  0  0  0  0  0  0
   40.0130   26.6570   36.9500 O   0  0  0  0  0  0  0  0  0  0  0  0
   39.2100   26.8270   39.2700 O   0  0  0  0  0  0  0  0  0  0  0  0
  1 18  1  0  0  0  0
  2  1  1  0  0  0  0
  2  7  1  0  0  0  0
  3  9  1  0  0  0  0
  3  2  1  0  0  0  0
  4  5  1  0  0  0  0
  4  3  1  0  0  0  0
  5 14  1  0  0  0  0
  5  6  1  0  0  0  0
  6 15  1  6  0  0  0
  6 29  1  0  0  0  0
  6  1  1  0  0  0  0
  8  2  1  0  0  0  0
 10  3  1  0  0  0  0
 11  4  1  0  0  0  0
 12  4  1  0  0  0  0
 13  5  1  0  0  0  0
 16 21  1  0  0  0  0
 16 24  1  0  0  0  0
 17 16  2  0  0  0  0
 18 19  2  0  0  0  0
 18 17  1  0  0  0  0
 19 20  1  0  0  0  0
 20 23  1  0  0  0  0
 20 21  2  0  0  0  0
 22 17  1  0  0  0  0
 24 25  1  0  0  0  0
 24 26  1  0  0  0  0
 27 24  1  0  0  0  0
 28 37  1  0  0  0  0
 28 35  1  0  0  0  0
 29 28  2  0  0  0  0
 30 29  1  0  0  0  0
 30 32  2  0  0  0  0
 31 30  1  0  0  0  0
 32 34  1  0  0  0  0
 33 32  1  0  0  0  0
 34 35  2  0  0  0  0
 36 37  1  0  0  0  0
 37 39  2  0  0  0  0
 38 37  2  0  0  0  0
M  END
>  <minimizedAffinity>
-5.2545042

$$$$

 OpenBabel03252503543D

 39 41  0  0  1  0  0  0  0  0999 V2000
   39.8440   28.2140   39.5780 N   0  0  0  0  0  0  0  0  0  0  0  0
   41.1450   28.3870   38.9240 C   0  0  0  0  0  0  0  0  0  0  0  0
   41.8390   27.0390   38.9990 C   0  0  0  0  0  0  0  0  0  0  0  0
   42.1940   26.7570   40.4310 C   0  0  0  0  0  0  0  0  0  0  0  0
   40.9730   26.9140   41.2770 C   0  0  0  0  0  0  0  0  0  0  0  0
   39.7160   27.1600   40.5130 C   0  0  1  0  0  0  0  0  0  0  0  0
   40.9390   28.6220   37.8540 H   0  0  0  0  0  0  0  0  0  0  0  0
   41.7720   29.1340   39.4110 H   0  0  0  0  0  0  0  0  0  0  0  0
   41.2250   26.2360   38.5430 H   0  0  0  0  0  0  0  0  0  0  0  0
   42.7750   27.0790   38.4320 H   0  0  0  0  0  0  0  0  0  0  0  0
   43.0280   27.4310   40.7020 H   0  0  0  0  0  0  0  0  0  0  0  0
   42.5900   25.7100   40.5270 H   0  0  0  0  0  0  0  0  0  0  0  0
   40.8270   26.0760   41.9940 H   0  0  0  0  0  0  0  0  0  0  0  0
   41.1510   27.8510   41.8880 H   0  0  0  0  0  0  0  0  0  0  0  0
   39.4240   26.2350   39.9950 H   0  0  0  0  0  0  0  0  0  0  0  0
   37.7980   31.2760   39.2680 C   0  0  0  0  0  0  0  0  0  0  0  0
   38.8460   30.4250   39.6260 C   0  0  0  0  0  0  0  0  0  0  0  0
   38.7850   29.0870   39.2840 C   0  0  0  0  0  0  0  0  0  0  0  0
   37.6930   28.6500   38.6100 N   0  0  0  0  0  0  0  0  0  0  0  0
   36.6700   29.4770   38.2630 C   0  0  0  0  0  0  0  0  0  0  0  0
   36.7270   30.7920   38.5930 N   0  0  0  0  0  0  0  0  0  0  0  0
   39.6290   30.8850   40.1960 H   0  0  0  0  0  0  0  0  0  0  0  0
   35.8110   29.0930   37.7250 H   0  0  0  0  0  0  0  0  0  0  0  0
   37.9280   32.7240   39.6210 C   0  0  0  0  0  0  0  0  0  0  0  0
   36.8730   33.4760   39.1150 F   0  0  0  0  0  0  0  0  0  0  0  0
   37.9820   32.8090   40.9960 F   0  0  0  0  0  0  0  0  0  0  0  0
   39.1230   33.2170   39.1150 F   0  0  0  0  0  0  0  0  0  0  0  0
   37.5800   26.5910   41.7420 C   0  0  0  0  0  0  0  0  0  0  0  0
   38.7140   27.4110   41.6220 C   0  0  0  0  0  0  0  0  0  0  0  0
   38.8660   28.4140   42.5860 C   0  0  0  0  0  0  0  0  0  0  0  0
   39.7350   29.0520   42.5100 H   0  0  0  0  0  0  0  0  0  0  0  0
   37.9250   28.5550   43.5830 C   0  0  0  0  0  0  0  0  0  0  0  0
   38.1240   29.3600   44.2880 H   0  0  0  0  0  0  0  0  0  0  0  0
   36.8220   27.7300   43.6680 C   0  0  0  0  0  3  0  0  0  0  0  0
   36.6540   26.7380   42.7340 C   0  0  0  0  0  3  0  0  0  0  0  0
   38.3870   24.8920   39.9360 H   0  0  0  0  0  0  0  0  0  0  0  0
   37.2650   25.3000   40.6040 S   0  0  0  0  0  0  0  0  0  0  0  0
   36.6970   24.0920   41.2950 O   0  0  0  0  0  0  0  0  0  0  0  0
   36.2720   25.7820   39.5590 O   0  0  0  0  0  0  0  0  0  0  0  0
  1  6  1  0  0  0  0
  2  3  1  0  0  0  0
  2  8  1  0  0  0  0
  2  1  1  0  0  0  0
  3  4  1  0  0  0  0
  4 12  1  0  0  0  0
  4 11  1  0  0  0  0
  4  5  1  0  0  0  0
  5 14  1  0  0  0  0
  5 13  1  0  0  0  0
  6 15  1  6  0  0  0
  6  5  1  0  0  0  0
  6 29  1  0  0  0  0
  7  2  1  0  0  0  0
  9  3  1  0  0  0  0
 10  3  1  0  0  0  0
 16 24  1  0  0  0  0
 16 17  1  0  0  0  0
 17 22  1  0  0  0  0
 18  1  1  0  0  0  0
 18 17  2  0  0  0  0
 19 18  1  0  0  0  0
 20 21  1  0  0  0  0
 20 19  2  0  0  0  0
 21 16  2  0  0  0  0
 23 20  1  0  0  0  0
 24 26  1  0  0  0  0
 25 24  1  0  0  0  0
 27 24  1  0  0  0  0
 28 35  1  0  0  0  0
 29 28  2  0  0  0  0
 29 30  1  0  0  0  0
 30 32  2  0  0  0  0
 31 30  1  0  0  0  0
 32 34  1  0  0  0  0
 32 33  1  0  0  0  0
 35 34  2  0  0  0  0
 36 37  1  0  0  0  0
 37 38  2  0  0  0  0
 37 28  1  0  0  0  0
 39 37  2  0  0  0  0
M  END
>  <minimizedAffinity>
-5.24387646

$$$$
