
 OpenBabel03242516393D

 23 24  0  0  0  0  0  0  0  0999 V2000
   36.5890   28.7290   41.1460 C   0  0  0  0  0  0  0  0  0  0  0  0
   37.5970   29.5820   41.5740 C   0  0  0  0  0  0  0  0  0  0  0  0
   38.1760   29.4000   42.8140 C   0  0  0  0  0  0  0  0  0  0  0  0
   38.9580   30.0300   43.1930 H   0  0  0  0  0  0  0  0  0  0  0  0
   37.8070   28.3980   43.6800 C   0  0  0  0  0  0  0  0  0  0  0  0
   38.2560   28.2520   44.6470 H   0  0  0  0  0  0  0  0  0  0  0  0
   36.8090   27.5200   43.3050 C   0  0  0  0  0  3  0  0  0  0  0  0
   36.2480   27.7230   42.0610 C   0  0  0  0  0  3  0  0  0  0  0  0
   37.7190   32.8260   39.6560 C   0  0  0  0  0  0  0  0  0  0  0  0
   37.2700   31.8270   40.5350 C   0  0  0  0  0  0  0  0  0  0  0  0
   38.0060   30.6460   40.6880 C   0  0  0  0  0  0  0  0  0  0  0  0
   39.1310   30.5750   39.9410 N   0  0  0  0  0  0  0  0  0  0  0  0
   39.5570   31.5210   39.1100 C   0  0  0  0  0  0  0  0  0  0  0  0
   38.8560   32.6500   38.9620 N   0  0  0  0  0  0  0  0  0  0  0  0
   36.9790   34.0170   39.5000 N   0  0  0  0  0  0  0  0  0  0  0  0
   36.3550   31.9910   41.0810 H   0  0  0  0  0  0  0  0  0  0  0  0
   40.4820   31.3570   38.5560 H   0  0  0  0  0  0  0  0  0  0  0  0
   36.5450   34.4710   38.6730 H   0  0  0  0  0  0  0  0  0  0  0  0
   36.9020   34.4630   40.4470 H   0  0  0  0  0  0  0  0  0  0  0  0
   36.3620   29.6700   38.7180 H   0  0  0  0  0  0  0  0  0  0  0  0
   35.7800   28.8400   39.6260 S   0  0  0  0  0  0  0  0  0  0  0  0
   35.7610   27.4520   39.0010 O   0  0  0  0  0  0  0  0  0  0  0  0
   34.3370   29.2400   39.8380 O   0  0  0  0  0  0  0  0  0  0  0  0
  1  2  2  0  0  0  0
  1  8  1  0  0  0  0
  2  3  1  0  0  0  0
  3  4  1  0  0  0  0
  3  5  2  0  0  0  0
  5  6  1  0  0  0  0
  7  5  1  0  0  0  0
  8  7  2  0  0  0  0
  9 10  1  0  0  0  0
 10 11  2  0  0  0  0
 10 16  1  0  0  0  0
 11  2  1  0  0  0  0
 12 11  1  0  0  0  0
 13 12  2  0  0  0  0
 14 13  1  0  0  0  0
 14  9  2  0  0  0  0
 15  9  1  0  0  0  0
 15 19  1  0  0  0  0
 17 13  1  0  0  0  0
 18 15  1  0  0  0  0
 20 21  1  0  0  0  0
 21 23  2  0  0  0  0
 21  1  1  0  0  0  0
 22 21  2  0  0  0  0
M  END
>  <minimizedAffinity>
-5.10153818

$$$$

 OpenBabel03242516393D

 23 24  0  0  0  0  0  0  0  0999 V2000
   38.8270   29.0460   42.2260 C   0  0  0  0  0  0  0  0  0  0  0  0
   37.6200   29.1770   41.5520 C   0  0  0  0  0  0  0  0  0  0  0  0
   36.5300   28.4230   41.9350 C   0  0  0  0  0  0  0  0  0  0  0  0
   35.5750   28.4850   41.4490 H   0  0  0  0  0  0  0  0  0  0  0  0
   36.5620   27.5220   42.9720 C   0  0  0  0  0  0  0  0  0  0  0  0
   35.7140   26.9310   43.2750 H   0  0  0  0  0  0  0  0  0  0  0  0
   37.7370   27.3510   43.6780 C   0  0  0  0  0  3  0  0  0  0  0  0
   38.8120   28.1170   43.2760 C   0  0  0  0  0  3  0  0  0  0  0  0
   37.2040   32.3340   39.5340 C   0  0  0  0  0  0  0  0  0  0  0  0
   37.2540   31.4700   40.6400 C   0  0  0  0  0  0  0  0  0  0  0  0
   37.5550   30.1150   40.4560 C   0  0  0  0  0  0  0  0  0  0  0  0
   37.7800   29.7500   39.1750 N   0  0  0  0  0  0  0  0  0  0  0  0
   37.7340   30.5680   38.1280 C   0  0  0  0  0  0  0  0  0  0  0  0
   37.4460   31.8620   38.3000 N   0  0  0  0  0  0  0  0  0  0  0  0
   36.9000   33.7000   39.7150 N   0  0  0  0  0  0  0  0  0  0  0  0
   37.0560   31.8720   41.6200 H   0  0  0  0  0  0  0  0  0  0  0  0
   37.9330   30.1620   37.1340 H   0  0  0  0  0  0  0  0  0  0  0  0
   36.1500   34.3100   39.3340 H   0  0  0  0  0  0  0  0  0  0  0  0
   37.6170   34.0950   40.3720 H   0  0  0  0  0  0  0  0  0  0  0  0
   40.4210   30.2550   40.5440 H   0  0  0  0  0  0  0  0  0  0  0  0
   40.2670   29.9230   41.8550 S   0  0  0  0  0  0  0  0  0  0  0  0
   40.2360   31.2280   42.6370 O   0  0  0  0  0  0  0  0  0  0  0  0
   41.4760   29.1560   42.3380 O   0  0  0  0  0  0  0  0  0  0  0  0
  1  8  1  0  0  0  0
  2  3  1  0  0  0  0
  2  1  2  0  0  0  0
  3  5  2  0  0  0  0
  4  3  1  0  0  0  0
  5  6  1  0  0  0  0
  5  7  1  0  0  0  0
  8  7  2  0  0  0  0
  9 15  1  0  0  0  0
  9 10  1  0  0  0  0
 10 16  1  0  0  0  0
 11 10  2  0  0  0  0
 11  2  1  0  0  0  0
 12 11  1  0  0  0  0
 13 14  1  0  0  0  0
 13 12  2  0  0  0  0
 14  9  2  0  0  0  0
 15 19  1  0  0  0  0
 17 13  1  0  0  0  0
 18 15  1  0  0  0  0
 20 21  1  0  0  0  0
 21  1  1  0  0  0  0
 21 23  2  0  0  0  0
 21 22  2  0  0  0  0
M  END
>  <minimizedAffinity>
-4.88571548

$$$$

 OpenBabel03242516393D

 23 24  0  0  0  0  0  0  0  0999 V2000
   37.2910   28.2360   40.8530 C   0  0  0  0  0  0  0  0  0  0  0  0
   37.7530   29.3170   41.5910 C   0  0  0  0  0  0  0  0  0  0  0  0
   37.7990   29.2440   42.9680 C   0  0  0  0  0  0  0  0  0  0  0  0
   38.1470   30.0500   43.5870 H   0  0  0  0  0  0  0  0  0  0  0  0
   37.4040   28.1360   43.6800 C   0  0  0  0  0  0  0  0  0  0  0  0
   37.4380   28.0740   44.7540 H   0  0  0  0  0  0  0  0  0  0  0  0
   36.9360   27.0310   42.9960 C   0  0  0  0  0  3  0  0  0  0  0  0
   36.9010   27.1290   41.6210 C   0  0  0  0  0  3  0  0  0  0  0  0
   37.7870   32.6980   39.9230 C   0  0  0  0  0  0  0  0  0  0  0  0
   37.3190   31.5780   40.6280 C   0  0  0  0  0  0  0  0  0  0  0  0
   38.1750   30.4970   40.8730 C   0  0  0  0  0  0  0  0  0  0  0  0
   39.4270   30.6400   40.3860 N   0  0  0  0  0  0  0  0  0  0  0  0
   39.8710   31.7010   39.7190 C   0  0  0  0  0  0  0  0  0  0  0  0
   39.0570   32.7340   39.4840 N   0  0  0  0  0  0  0  0  0  0  0  0
   36.9270   33.7880   39.6740 N   0  0  0  0  0  0  0  0  0  0  0  0
   36.2970   31.5720   40.9700 H   0  0  0  0  0  0  0  0  0  0  0  0
   40.9060   31.7090   39.3710 H   0  0  0  0  0  0  0  0  0  0  0  0
   36.6110   34.2490   38.7970 H   0  0  0  0  0  0  0  0  0  0  0  0
   36.5900   34.1390   40.6040 H   0  0  0  0  0  0  0  0  0  0  0  0
   36.8520   29.3700   38.5400 H   0  0  0  0  0  0  0  0  0  0  0  0
   37.1800   28.1890   39.1320 S   0  0  0  0  0  0  0  0  0  0  0  0
   38.5430   27.7890   38.5830 O   0  0  0  0  0  0  0  0  0  0  0  0
   36.2080   27.1120   38.7070 O   0  0  0  0  0  0  0  0  0  0  0  0
  1  2  2  0  0  0  0
  1  8  1  0  0  0  0
  2  3  1  0  0  0  0
  3  4  1  0  0  0  0
  3  5  2  0  0  0  0
  5  6  1  0  0  0  0
  7  5  1  0  0  0  0
  8  7  2  0  0  0  0
  9 10  1  0  0  0  0
 10 11  2  0  0  0  0
 10 16  1  0  0  0  0
 11  2  1  0  0  0  0
 12 11  1  0  0  0  0
 13 12  2  0  0  0  0
 14 13  1  0  0  0  0
 14  9  2  0  0  0  0
 15  9  1  0  0  0  0
 15 19  1  0  0  0  0
 17 13  1  0  0  0  0
 18 15  1  0  0  0  0
 20 21  1  0  0  0  0
 21  1  1  0  0  0  0
 22 21  2  0  0  0  0
 23 21  2  0  0  0  0
M  END
>  <minimizedAffinity>
-4.82882881

$$$$

 OpenBabel03242516393D

 23 24  0  0  0  0  0  0  0  0999 V2000
   37.2280   28.9060   41.6970 C   0  0  0  0  0  0  0  0  0  0  0  0
   38.5950   29.0280   41.9090 C   0  0  0  0  0  0  0  0  0  0  0  0
   39.2170   28.2520   42.8660 C   0  0  0  0  0  0  0  0  0  0  0  0
   40.2700   28.3050   43.0700 H   0  0  0  0  0  0  0  0  0  0  0  0
   38.5510   27.3390   43.6480 C   0  0  0  0  0  0  0  0  0  0  0  0
   39.0310   26.7310   44.3950 H   0  0  0  0  0  0  0  0  0  0  0  0
   37.1890   27.1770   43.4790 C   0  0  0  0  0  3  0  0  0  0  0  0
   36.5920   27.9640   42.5160 C   0  0  0  0  0  3  0  0  0  0  0  0
   40.3020   32.1660   40.7030 C   0  0  0  0  0  0  0  0  0  0  0  0
   39.5880   31.2860   41.5320 C   0  0  0  0  0  0  0  0  0  0  0  0
   39.3240   29.9790   41.1030 C   0  0  0  0  0  0  0  0  0  0  0  0
   39.8010   29.6750   39.8770 N   0  0  0  0  0  0  0  0  0  0  0  0
   40.4780   30.5080   39.0920 C   0  0  0  0  0  0  0  0  0  0  0  0
   40.7320   31.7560   39.4990 N   0  0  0  0  0  0  0  0  0  0  0  0
   40.5690   33.4840   41.1330 N   0  0  0  0  0  0  0  0  0  0  0  0
   39.2530   31.6380   42.4940 H   0  0  0  0  0  0  0  0  0  0  0  0
   40.8180   30.1530   38.1170 H   0  0  0  0  0  0  0  0  0  0  0  0
   40.3380   34.4140   40.7320 H   0  0  0  0  0  0  0  0  0  0  0  0
   41.1070   33.4160   42.0310 H   0  0  0  0  0  0  0  0  0  0  0  0
   36.8660   29.8590   39.2900 H   0  0  0  0  0  0  0  0  0  0  0  0
   36.3240   29.8100   40.5380 S   0  0  0  0  0  0  0  0  0  0  0  0
   34.9560   29.1570   40.3960 O   0  0  0  0  0  0  0  0  0  0  0  0
   36.0840   31.2120   41.0500 O   0  0  0  0  0  0  0  0  0  0  0  0
  1  2  2  0  0  0  0
  1  8  1  0  0  0  0
  2  3  1  0  0  0  0
  3  4  1  0  0  0  0
  3  5  2  0  0  0  0
  5  6  1  0  0  0  0
  7  5  1  0  0  0  0
  8  7  2  0  0  0  0
  9 15  1  0  0  0  0
  9 10  1  0  0  0  0
 10 16  1  0  0  0  0
 11 10  2  0  0  0  0
 11  2  1  0  0  0  0
 12 11  1  0  0  0  0
 13 14  1  0  0  0  0
 13 12  2  0  0  0  0
 14  9  2  0  0  0  0
 15 19  1  0  0  0  0
 17 13  1  0  0  0  0
 18 15  1  0  0  0  0
 20 21  1  0  0  0  0
 21 23  2  0  0  0  0
 21  1  1  0  0  0  0
 22 21  2  0  0  0  0
M  END
>  <minimizedAffinity>
-4.5754509

$$$$

 OpenBabel03242516393D

 23 24  0  0  0  0  0  0  0  0999 V2000
   37.6310   28.1780   40.9120 C   0  0  0  0  0  0  0  0  0  0  0  0
   37.7170   29.1910   41.8580 C   0  0  0  0  0  0  0  0  0  0  0  0
   37.4330   28.9240   43.1820 C   0  0  0  0  0  0  0  0  0  0  0  0
   37.4840   29.6690   43.9530 H   0  0  0  0  0  0  0  0  0  0  0  0
   37.0600   27.6830   43.6390 C   0  0  0  0  0  0  0  0  0  0  0  0
   36.8380   27.4700   44.6710 H   0  0  0  0  0  0  0  0  0  0  0  0
   36.9590   26.6390   42.7410 C   0  0  0  0  0  3  0  0  0  0  0  0
   37.2480   26.9310   41.4240 C   0  0  0  0  0  3  0  0  0  0  0  0
   39.7180   32.3020   41.1280 C   0  0  0  0  0  0  0  0  0  0  0  0
   39.3990   31.0130   41.5860 C   0  0  0  0  0  0  0  0  0  0  0  0
   38.1060   30.5070   41.4090 C   0  0  0  0  0  0  0  0  0  0  0  0
   37.2470   31.3430   40.7850 N   0  0  0  0  0  0  0  0  0  0  0  0
   37.5490   32.5620   40.3490 C   0  0  0  0  0  0  0  0  0  0  0  0
   38.7820   33.0490   40.5180 N   0  0  0  0  0  0  0  0  0  0  0  0
   41.0200   32.8150   41.3060 N   0  0  0  0  0  0  0  0  0  0  0  0
   40.1660   30.4330   42.0720 H   0  0  0  0  0  0  0  0  0  0  0  0
   36.7730   33.1520   39.8570 H   0  0  0  0  0  0  0  0  0  0  0  0
   41.3820   33.6620   41.7860 H   0  0  0  0  0  0  0  0  0  0  0  0
   41.6830   32.1550   40.8300 H   0  0  0  0  0  0  0  0  0  0  0  0
   38.9650   29.2330   38.9270 H   0  0  0  0  0  0  0  0  0  0  0  0
   37.9570   28.3690   39.2280 S   0  0  0  0  0  0  0  0  0  0  0  0
   38.3620   27.0120   38.6700 O   0  0  0  0  0  0  0  0  0  0  0  0
   36.6950   28.7770   38.5020 O   0  0  0  0  0  0  0  0  0  0  0  0
  1  8  2  0  0  0  0
  1  2  1  0  0  0  0
  2  3  2  0  0  0  0
  3  5  1  0  0  0  0
  3  4  1  0  0  0  0
  5  6  1  0  0  0  0
  7  5  2  0  0  0  0
  8  7  1  0  0  0  0
  9 15  1  0  0  0  0
  9 10  1  0  0  0  0
 10 16  1  0  0  0  0
 11 10  2  0  0  0  0
 11  2  1  0  0  0  0
 12 11  1  0  0  0  0
 13 14  1  0  0  0  0
 13 12  2  0  0  0  0
 14  9  2  0  0  0  0
 15 18  1  0  0  0  0
 17 13  1  0  0  0  0
 19 15  1  0  0  0  0
 20 21  1  0  0  0  0
 21  1  1  0  0  0  0
 22 21  2  0  0  0  0
 23 21  2  0  0  0  0
M  END
>  <minimizedAffinity>
-4.56539059

$$$$

 OpenBabel03242516393D

 23 24  0  0  0  0  0  0  0  0999 V2000
   38.7190   26.1420   41.1190 C   0  0  0  0  0  0  0  0  0  0  0  0
   38.9280   27.2590   41.9180 C   0  0  0  0  0  0  0  0  0  0  0  0
   39.5070   27.1190   43.1620 C   0  0  0  0  0  0  0  0  0  0  0  0
   39.6910   27.9470   43.8190 H   0  0  0  0  0  0  0  0  0  0  0  0
   39.9020   25.9080   43.6800 C   0  0  0  0  0  0  0  0  0  0  0  0
   40.3540   25.7940   44.6500 H   0  0  0  0  0  0  0  0  0  0  0  0
   39.7180   24.7640   42.9280 C   0  0  0  0  0  3  0  0  0  0  0  0
   39.1380   24.9310   41.6870 C   0  0  0  0  0  3  0  0  0  0  0  0
   36.9170   30.3440   41.1090 C   0  0  0  0  0  0  0  0  0  0  0  0
   37.2540   29.0870   41.6380 C   0  0  0  0  0  0  0  0  0  0  0  0
   38.5230   28.5450   41.4020 C   0  0  0  0  0  0  0  0  0  0  0  0
   39.3430   29.3180   40.6560 N   0  0  0  0  0  0  0  0  0  0  0  0
   39.0250   30.5080   40.1560 C   0  0  0  0  0  0  0  0  0  0  0  0
   37.8140   31.0280   40.3790 N   0  0  0  0  0  0  0  0  0  0  0  0
   35.6390   30.8920   41.3440 N   0  0  0  0  0  0  0  0  0  0  0  0
   36.5180   28.5570   42.2210 H   0  0  0  0  0  0  0  0  0  0  0  0
   39.7690   31.0460   39.5650 H   0  0  0  0  0  0  0  0  0  0  0  0
   34.8810   31.2060   40.7070 H   0  0  0  0  0  0  0  0  0  0  0  0
   35.5150   30.9610   42.3840 H   0  0  0  0  0  0  0  0  0  0  0  0
   38.4140   27.1940   38.7460 H   0  0  0  0  0  0  0  0  0  0  0  0
   38.0080   26.1710   39.5470 S   0  0  0  0  0  0  0  0  0  0  0  0
   38.3890   24.8800   38.8350 O   0  0  0  0  0  0  0  0  0  0  0  0
   36.5010   26.1740   39.6630 O   0  0  0  0  0  0  0  0  0  0  0  0
  1  8  2  0  0  0  0
  1  2  1  0  0  0  0
  2  3  2  0  0  0  0
  3  5  1  0  0  0  0
  3  4  1  0  0  0  0
  5  6  1  0  0  0  0
  7  5  2  0  0  0  0
  8  7  1  0  0  0  0
  9 15  1  0  0  0  0
  9 10  1  0  0  0  0
 10 16  1  0  0  0  0
 11 10  2  0  0  0  0
 11  2  1  0  0  0  0
 12 11  1  0  0  0  0
 13 14  1  0  0  0  0
 13 12  2  0  0  0  0
 14  9  2  0  0  0  0
 15 19  1  0  0  0  0
 17 13  1  0  0  0  0
 18 15  1  0  0  0  0
 20 21  1  0  0  0  0
 21 23  2  0  0  0  0
 21  1  1  0  0  0  0
 22 21  2  0  0  0  0
M  END
>  <minimizedAffinity>
-4.54154158

$$$$

 OpenBabel03242516393D

 23 24  0  0  0  0  0  0  0  0999 V2000
   36.5120   25.8540   39.3800 C   0  0  0  0  0  0  0  0  0  0  0  0
   36.9820   26.3640   40.5830 C   0  0  0  0  0  0  0  0  0  0  0  0
   37.1610   25.5260   41.6650 C   0  0  0  0  0  0  0  0  0  0  0  0
   37.5220   25.8680   42.6170 H   0  0  0  0  0  0  0  0  0  0  0  0
   36.8970   24.1780   41.6280 C   0  0  0  0  0  0  0  0  0  0  0  0
   37.0360   23.5200   42.4690 H   0  0  0  0  0  0  0  0  0  0  0  0
   36.4280   23.6170   40.4560 C   0  0  0  0  0  3  0  0  0  0  0  0
   36.2580   24.4750   39.3900 C   0  0  0  0  0  3  0  0  0  0  0  0
   36.6330   30.0910   41.0310 C   0  0  0  0  0  0  0  0  0  0  0  0
   36.2940   28.7300   40.9790 C   0  0  0  0  0  0  0  0  0  0  0  0
   37.2680   27.7770   40.6540 C   0  0  0  0  0  0  0  0  0  0  0  0
   38.4980   28.2810   40.4110 N   0  0  0  0  0  0  0  0  0  0  0  0
   38.8200   29.5690   40.4620 C   0  0  0  0  0  0  0  0  0  0  0  0
   37.8930   30.4810   40.7710 N   0  0  0  0  0  0  0  0  0  0  0  0
   35.6540   31.0530   41.3570 N   0  0  0  0  0  0  0  0  0  0  0  0
   35.2780   28.4410   41.1910 H   0  0  0  0  0  0  0  0  0  0  0  0
   39.8490   29.8640   40.2460 H   0  0  0  0  0  0  0  0  0  0  0  0
   35.2930   31.8870   40.8530 H   0  0  0  0  0  0  0  0  0  0  0  0
   35.2730   30.8020   42.3020 H   0  0  0  0  0  0  0  0  0  0  0  0
   35.9980   28.1060   38.1580 H   0  0  0  0  0  0  0  0  0  0  0  0
   36.2420   26.7830   37.9510 S   0  0  0  0  0  0  0  0  0  0  0  0
   37.4940   26.6970   37.0910 O   0  0  0  0  0  0  0  0  0  0  0  0
   35.1180   26.1730   37.1450 O   0  0  0  0  0  0  0  0  0  0  0  0
  1  8  2  0  0  0  0
  1  2  1  0  0  0  0
  2 11  1  0  0  0  0
  2  3  2  0  0  0  0
  3  4  1  0  0  0  0
  5  3  1  0  0  0  0
  5  6  1  0  0  0  0
  7  5  2  0  0  0  0
  8  7  1  0  0  0  0
  9 15  1  0  0  0  0
 10  9  1  0  0  0  0
 10 16  1  0  0  0  0
 11 10  2  0  0  0  0
 12 13  2  0  0  0  0
 12 11  1  0  0  0  0
 13 14  1  0  0  0  0
 14  9  2  0  0  0  0
 15 19  1  0  0  0  0
 17 13  1  0  0  0  0
 18 15  1  0  0  0  0
 21 20  1  0  0  0  0
 21  1  1  0  0  0  0
 22 21  2  0  0  0  0
 23 21  2  0  0  0  0
M  END
>  <minimizedAffinity>
-4.50972033

$$$$

 OpenBabel03242516393D

 23 24  0  0  0  0  0  0  0  0999 V2000
   36.0670   29.6680   38.8000 C   0  0  0  0  0  0  0  0  0  0  0  0
   37.1940   30.3760   38.4030 C   0  0  0  0  0  0  0  0  0  0  0  0
   37.4880   30.5100   37.0620 C   0  0  0  0  0  0  0  0  0  0  0  0
   38.3440   31.0470   36.7000 H   0  0  0  0  0  0  0  0  0  0  0  0
   36.7140   29.9710   36.0620 C   0  0  0  0  0  0  0  0  0  0  0  0
   36.9390   30.0730   35.0140 H   0  0  0  0  0  0  0  0  0  0  0  0
   35.5810   29.2570   36.4000 C   0  0  0  0  0  3  0  0  0  0  0  0
   35.3100   29.1380   37.7470 C   0  0  0  0  0  3  0  0  0  0  0  0
   38.7770   32.8050   40.8140 C   0  0  0  0  0  0  0  0  0  0  0  0
   37.9380   32.3000   39.8070 C   0  0  0  0  0  0  0  0  0  0  0  0
   38.0270   30.9540   39.4310 C   0  0  0  0  0  0  0  0  0  0  0  0
   38.9540   30.2350   40.1020 N   0  0  0  0  0  0  0  0  0  0  0  0
   39.7480   30.7130   41.0550 C   0  0  0  0  0  0  0  0  0  0  0  0
   39.6650   31.9970   41.4170 N   0  0  0  0  0  0  0  0  0  0  0  0
   38.6890   34.1610   41.1950 N   0  0  0  0  0  0  0  0  0  0  0  0
   37.2330   32.9670   39.3380 H   0  0  0  0  0  0  0  0  0  0  0  0
   40.4630   30.0390   41.5310 H   0  0  0  0  0  0  0  0  0  0  0  0
   39.3840   34.9330   41.2080 H   0  0  0  0  0  0  0  0  0  0  0  0
   37.7040   34.3330   41.5120 H   0  0  0  0  0  0  0  0  0  0  0  0
   34.3100   28.9620   40.6020 H   0  0  0  0  0  0  0  0  0  0  0  0
   35.5810   29.4220   40.4380 S   0  0  0  0  0  0  0  0  0  0  0  0
   36.5060   28.3810   41.0520 O   0  0  0  0  0  0  0  0  0  0  0  0
   35.7730   30.6960   41.2290 O   0  0  0  0  0  0  0  0  0  0  0  0
  1 21  1  0  0  0  0
  2  1  1  0  0  0  0
  2 11  1  0  0  0  0
  3  2  2  0  0  0  0
  4  3  1  0  0  0  0
  5  7  2  0  0  0  0
  5  3  1  0  0  0  0
  6  5  1  0  0  0  0
  7  8  1  0  0  0  0
  8  1  2  0  0  0  0
  9 15  1  0  0  0  0
  9 14  1  0  0  0  0
 10  9  2  0  0  0  0
 11 10  1  0  0  0  0
 11 12  2  0  0  0  0
 12 13  1  0  0  0  0
 13 14  2  0  0  0  0
 13 17  1  0  0  0  0
 15 18  1  0  0  0  0
 15 19  1  0  0  0  0
 16 10  1  0  0  0  0
 21 20  1  0  0  0  0
 21 22  2  0  0  0  0
 21 23  2  0  0  0  0
M  END
>  <minimizedAffinity>
-4.50197268

$$$$

 OpenBabel03242516393D

 23 24  0  0  0  0  0  0  0  0999 V2000
   37.5080   29.6310   41.1830 C   0  0  0  0  0  0  0  0  0  0  0  0
   36.6130   28.5730   41.0880 C   0  0  0  0  0  0  0  0  0  0  0  0
   36.4230   27.7310   42.1640 C   0  0  0  0  0  0  0  0  0  0  0  0
   35.7440   26.8990   42.1440 H   0  0  0  0  0  0  0  0  0  0  0  0
   37.0830   27.8740   43.3610 C   0  0  0  0  0  0  0  0  0  0  0  0
   36.9380   27.2190   44.2030 H   0  0  0  0  0  0  0  0  0  0  0  0
   37.9850   28.9090   43.5110 C   0  0  0  0  0  3  0  0  0  0  0  0
   38.1560   29.7380   42.4210 C   0  0  0  0  0  3  0  0  0  0  0  0
   33.9840   28.7070   38.3880 C   0  0  0  0  0  0  0  0  0  0  0  0
   34.6230   28.9140   39.6220 C   0  0  0  0  0  0  0  0  0  0  0  0
   35.9050   28.3950   39.8420 C   0  0  0  0  0  0  0  0  0  0  0  0
   36.4300   27.7140   38.8000 N   0  0  0  0  0  0  0  0  0  0  0  0
   35.8260   27.5190   37.6320 C   0  0  0  0  0  0  0  0  0  0  0  0
   34.6030   28.0120   37.4190 N   0  0  0  0  0  0  0  0  0  0  0  0
   32.6920   29.2280   38.1640 N   0  0  0  0  0  0  0  0  0  0  0  0
   34.1070   29.4740   40.3840 H   0  0  0  0  0  0  0  0  0  0  0  0
   36.3470   26.9510   36.8590 H   0  0  0  0  0  0  0  0  0  0  0  0
   31.7900   28.7830   37.9060 H   0  0  0  0  0  0  0  0  0  0  0  0
   32.7460   30.2670   38.3030 H   0  0  0  0  0  0  0  0  0  0  0  0
   37.7900   30.2490   38.6590 H   0  0  0  0  0  0  0  0  0  0  0  0
   37.8430   30.7590   39.9200 S   0  0  0  0  0  0  0  0  0  0  0  0
   36.7990   31.8650   39.9890 O   0  0  0  0  0  0  0  0  0  0  0  0
   39.1850   31.4130   40.1560 O   0  0  0  0  0  0  0  0  0  0  0  0
  1  8  1  0  0  0  0
  2  1  2  0  0  0  0
  2  3  1  0  0  0  0
  3  5  2  0  0  0  0
  4  3  1  0  0  0  0
  5  7  1  0  0  0  0
  5  6  1  0  0  0  0
  8  7  2  0  0  0  0
  9 10  1  0  0  0  0
 10 11  2  0  0  0  0
 10 16  1  0  0  0  0
 11  2  1  0  0  0  0
 12 11  1  0  0  0  0
 13 12  2  0  0  0  0
 14 13  1  0  0  0  0
 14  9  2  0  0  0  0
 15 19  1  0  0  0  0
 15  9  1  0  0  0  0
 17 13  1  0  0  0  0
 18 15  1  0  0  0  0
 20 21  1  0  0  0  0
 21 22  2  0  0  0  0
 21 23  2  0  0  0  0
 21  1  1  0  0  0  0
M  END
>  <minimizedAffinity>
-4.39810944

$$$$
