
 OpenBabel03252509233D

 30 32  0  0  1  0  0  0  0  0999 V2000
   46.6630   34.7630   42.0000 C   0  0  1  0  0  0  0  0  0  0  0  0
   48.1040   35.3240   42.0590 C   0  0  0  0  0  0  0  0  0  0  0  0
   47.7160   33.8530   41.7240 C   0  0  2  0  0  0  0  0  0  0  0  0
   46.0310   35.2590   41.2580 H   0  0  0  0  0  0  0  0  0  0  0  0
   48.3350   35.9780   41.2250 H   0  0  0  0  0  0  0  0  0  0  0  0
   48.5680   35.5300   43.0210 H   0  0  0  0  0  0  0  0  0  0  0  0
   48.0170   33.1590   42.5750 H   0  0  0  0  0  0  0  0  0  0  0  0
   44.5320   35.6170   44.9780 C   0  0  0  0  0  0  0  0  0  0  0  0
   45.1000   35.7170   43.6820 C   0  0  0  0  0  0  0  0  0  0  0  0
   46.0620   34.7610   43.3960 C   0  0  0  0  0  0  0  0  0  0  0  0
   46.4200   33.7990   44.3210 N   0  0  0  0  0  0  0  0  0  0  0  0
   45.8470   33.7590   45.5270 C   0  0  0  0  0  0  0  0  0  0  0  0
   44.8940   34.6750   45.8590 N   0  0  0  0  0  0  0  0  0  0  0  0
   43.7800   36.3410   45.2410 H   0  0  0  0  0  0  0  0  0  0  0  0
   46.2440   32.9480   46.1160 H   0  0  0  0  0  0  0  0  0  0  0  0
   44.7460   36.7330   42.7420 N   0  0  0  0  0  0  0  0  0  0  0  0
   45.4010   37.5230   42.9400 H   0  0  0  0  0  0  0  0  0  0  0  0
   43.9870   36.6180   42.0510 H   0  0  0  0  0  0  0  0  0  0  0  0
   49.1520   32.5480   39.9720 C   0  0  0  0  0  0  0  0  0  0  0  0
   48.1480   33.3550   40.3980 C   0  0  0  0  0  0  0  0  0  0  0  0
   47.2760   33.8350   39.4090 C   0  0  0  0  0  0  0  0  0  0  0  0
   46.4090   34.4950   39.5490 H   0  0  0  0  0  0  0  0  0  0  0  0
   47.4300   33.5040   38.0700 C   0  0  0  0  0  0  0  0  0  0  0  0
   46.7880   33.8470   37.2740 H   0  0  0  0  0  0  0  0  0  0  0  0
   48.4540   32.6900   37.6880 C   0  0  0  0  0  3  0  0  0  0  0  0
   49.3170   32.2110   38.6480 C   0  0  0  0  0  3  0  0  0  0  0  0
   50.4100   32.8840   42.1930 H   0  0  0  0  0  0  0  0  0  0  0  0
   50.2460   31.9760   41.1830 S   0  0  0  0  0  0  0  0  0  0  0  0
   51.6370   31.8290   40.5740 O   0  0  0  0  0  0  0  0  0  0  0  0
   49.8060   30.6830   41.7900 O   0  0  0  0  0  0  0  0  0  0  0  0
  1  4  1  6  0  0  0
  1  2  1  0  0  0  0
  1 10  1  0  0  0  0
  2  6  1  0  0  0  0
  3  1  1  0  0  0  0
  3  2  1  0  0  0  0
  3  7  1  1  0  0  0
  5  2  1  0  0  0  0
  8 14  1  0  0  0  0
  8 13  1  0  0  0  0
  9  8  2  0  0  0  0
 10  9  1  0  0  0  0
 10 11  2  0  0  0  0
 11 12  1  0  0  0  0
 12 13  2  0  0  0  0
 12 15  1  0  0  0  0
 16 17  1  0  0  0  0
 16  9  1  0  0  0  0
 18 16  1  0  0  0  0
 19 20  1  0  0  0  0
 19 28  1  0  0  0  0
 20  3  1  0  0  0  0
 21 22  1  0  0  0  0
 21 20  2  0  0  0  0
 23 21  1  0  0  0  0
 24 23  1  0  0  0  0
 25 23  2  0  0  0  0
 25 26  1  0  0  0  0
 26 19  2  0  0  0  0
 28 30  2  0  0  0  0
 28 27  1  0  0  0  0
 29 28  2  0  0  0  0
M  END
>  <minimizedAffinity>
-5.12515831

>  <minimizedRMSD>
1.02472818

$$$$
