
 OpenBabel03252504143D

 38 40  0  0  0  0  0  0  0  0999 V2000
   48.2640   30.3400   45.7420 F   0  0  0  0  0  0  0  0  0  0  0  0
   47.5520   30.9250   46.7530 C   0  0  0  0  0  0  0  0  0  0  0  0
   46.6130   31.8920   46.4720 C   0  0  0  0  0  0  0  0  0  0  0  0
   45.9370   32.4330   47.5590 C   0  0  0  0  0  0  0  0  0  0  0  0
   46.1940   32.0240   48.8440 C   0  0  0  0  0  0  0  0  0  0  0  0
   47.1530   31.0450   49.0720 C   0  0  0  0  0  0  0  0  0  0  0  0
   47.8630   30.4670   48.0120 C   0  0  0  0  0  0  0  0  0  0  0  0
   45.1970   33.1910   47.3550 H   0  0  0  0  0  0  0  0  0  0  0  0
   45.6600   32.4560   49.6700 H   0  0  0  0  0  0  0  0  0  0  0  0
   47.4000   30.6800   50.0650 H   0  0  0  0  0  0  0  0  0  0  0  0
   50.0230   29.8270   48.9010 C   0  0  0  0  0  0  0  0  0  0  0  0
   48.8670   29.4390   48.2630 C   0  0  0  0  0  0  0  0  0  0  0  0
   48.6990   28.1010   47.8850 C   0  0  0  0  0  0  0  0  0  0  0  0
   47.7620   27.8740   47.3870 H   0  0  0  0  0  0  0  0  0  0  0  0
   49.6890   27.1790   48.1530 C   0  0  0  0  0  0  0  0  0  0  0  0
   49.4820   26.1670   47.8280 H   0  0  0  0  0  0  0  0  0  0  0  0
   50.8620   27.5460   48.7940 C   0  0  0  0  0  0  0  0  0  0  0  0
   50.9910   28.8760   49.1520 C   0  0  0  0  0  0  0  0  0  0  0  0
   49.4930   32.3620   48.8780 H   0  0  0  0  0  0  0  0  0  0  0  0
   50.3780   31.4560   49.4330 S   0  0  0  0  0  0  0  0  0  0  0  0
   51.7980   31.7580   49.0540 O   0  0  0  0  0  0  0  0  0  0  0  0
   50.2810   31.5260   50.9500 O   0  0  0  0  0  0  0  0  0  0  0  0
   46.9070   33.7620   43.3640 C   0  0  0  0  0  0  0  0  0  0  0  0
   45.9300   33.2150   42.5390 C   0  0  0  0  0  0  0  0  0  0  0  0
   45.1430   32.1640   43.0760 C   0  0  0  0  0  0  0  0  0  0  0  0
   45.3820   31.7560   44.3440 N   0  0  0  0  0  0  0  0  0  0  0  0
   46.3440   32.3230   45.1000 C   0  0  0  0  0  0  0  0  0  0  0  0
   47.1020   33.3230   44.6080 N   0  0  0  0  0  0  0  0  0  0  0  0
   44.3740   31.7190   42.4560 H   0  0  0  0  0  0  0  0  0  0  0  0
   45.7360   33.7200   41.1630 C   0  0  0  0  0  0  0  0  0  0  0  0
   45.7780   35.1080   41.1740 F   0  0  0  0  0  0  0  0  0  0  0  0
   46.8130   33.2980   40.4050 F   0  0  0  0  0  0  0  0  0  0  0  0
   44.5850   33.3340   40.5630 F   0  0  0  0  0  0  0  0  0  0  0  0
   47.6520   34.7670   42.8340 O   0  0  0  0  0  0  0  0  0  0  0  0
   48.9450   34.6610   42.2800 C   0  0  0  0  0  0  0  0  0  0  0  0
   49.8220   35.2930   43.1560 F   0  0  0  0  0  0  0  0  0  0  0  0
   49.2620   33.3390   42.0800 F   0  0  0  0  0  0  0  0  0  0  0  0
   49.0140   35.3940   41.1160 F   0  0  0  0  0  0  0  0  0  0  0  0
  1  2  1  0  0  0  0
  2  7  1  0  0  0  0
  3  2  2  0  0  0  0
  3  4  1  0  0  0  0
  4  5  2  0  0  0  0
  5  6  1  0  0  0  0
  5  9  1  0  0  0  0
  6 10  1  0  0  0  0
  7 12  1  0  0  0  0
  7  6  2  0  0  0  0
  8  4  1  0  0  0  0
 11 18  1  0  0  0  0
 11 20  1  0  0  0  0
 12 11  2  0  0  0  0
 13 15  2  0  0  0  0
 13 12  1  0  0  0  0
 14 13  1  0  0  0  0
 15 17  1  0  0  0  0
 16 15  1  0  0  0  0
 17 18  2  0  0  0  0
 19 20  1  0  0  0  0
 20 22  2  0  0  0  0
 21 20  2  0  0  0  0
 23 28  1  0  0  0  0
 24 25  1  0  0  0  0
 24 23  2  0  0  0  0
 25 26  2  0  0  0  0
 26 27  1  0  0  0  0
 27  3  1  0  0  0  0
 28 27  2  0  0  0  0
 29 25  1  0  0  0  0
 30 31  1  0  0  0  0
 30 24  1  0  0  0  0
 32 30  1  0  0  0  0
 33 30  1  0  0  0  0
 34 23  1  0  0  0  0
 35 34  1  0  0  0  0
 35 36  1  0  0  0  0
 37 35  1  0  0  0  0
 38 35  1  0  0  0  0
M  END
>  <minimizedAffinity>
-5.83342123

>  <minimizedRMSD>
1.37060237

$$$$
