
 OpenBabel03252506123D

 39 41  0  0  0  0  0  0  0  0999 V2000
   45.1060   33.4310   41.2010 F   0  0  0  0  0  0  0  0  0  0  0  0
   46.2950   34.0150   41.0580 C   0  0  0  0  0  0  0  0  0  0  0  0
   46.8030   34.7890   42.0990 C   0  0  0  0  0  0  0  0  0  0  0  0
   48.0350   35.4310   42.0340 C   0  0  0  0  0  0  0  0  0  0  0  0
   48.8100   35.3050   40.8810 C   0  0  0  0  0  0  0  0  0  0  0  0
   48.2700   34.5280   39.8680 C   0  0  0  0  0  0  0  0  0  0  0  0
   47.0680   33.8940   39.9160 C   0  0  0  0  0  0  0  0  0  0  0  0
   48.3650   36.0220   42.8950 H   0  0  0  0  0  0  0  0  0  0  0  0
   49.7380   35.8190   40.8960 H   0  0  0  0  0  0  0  0  0  0  0  0
   48.9760   34.5110   39.0440 H   0  0  0  0  0  0  0  0  0  0  0  0
   45.4500   34.1750   45.4550 C   0  0  0  0  0  0  0  0  0  0  0  0
   44.5750   35.2630   45.6200 C   0  0  0  0  0  0  0  0  0  0  0  0
   44.4520   36.2060   44.5750 C   0  0  0  0  0  0  0  0  0  0  0  0
   45.2070   35.9920   43.4530 N   0  0  0  0  0  0  0  0  0  0  0  0
   46.0280   34.9490   43.3300 C   0  0  0  0  0  0  0  0  0  0  0  0
   46.1440   34.0510   44.3240 N   0  0  0  0  0  0  0  0  0  0  0  0
   43.9800   35.4280   46.5050 H   0  0  0  0  0  0  0  0  0  0  0  0
   43.7930   37.0580   44.6550 H   0  0  0  0  0  0  0  0  0  0  0  0
   45.5650   33.2340   46.5090 N   0  0  0  0  0  0  0  0  0  0  0  0
   44.8720   32.5060   46.8510 H   0  0  0  0  0  0  0  0  0  0  0  0
   46.4480   33.2150   47.0600 H   0  0  0  0  0  0  0  0  0  0  0  0
   46.6380   33.1530   38.8510 O   0  0  0  0  0  0  0  0  0  0  0  0
   47.8810   34.6220   37.0320 O   0  0  0  0  0  0  0  0  0  0  0  0
   46.9480   33.4460   37.2270 P   0  0  2  0  0  0  0  0  0  0  0  0
   45.4570   33.7500   36.4440 O   0  0  0  0  0  0  0  0  0  0  0  0
   45.5410   34.5330   35.8470 H   0  0  0  0  0  0  0  0  0  0  0  0
   47.6010   32.1170   36.4130 O   0  0  0  0  0  0  0  0  0  0  0  0
   47.4710   31.4750   34.1930 C   0  0  0  0  0  0  0  0  0  0  0  0
   46.9750   31.3230   35.4920 C   0  0  0  0  0  0  0  0  0  0  0  0
   45.9520   30.4200   35.6610 C   0  0  0  0  0  0  0  0  0  0  0  0
   45.6030   30.3390   36.6790 H   0  0  0  0  0  0  0  0  0  0  0  0
   45.4320   29.6950   34.6150 C   0  0  0  0  0  0  0  0  0  0  0  0
   44.6300   28.9950   34.7860 H   0  0  0  0  0  0  0  0  0  0  0  0
   45.9100   29.8320   33.3240 C   0  0  0  0  0  3  0  0  0  0  0  0
   46.9370   30.7390   33.1560 C   0  0  0  0  0  3  0  0  0  0  0  0
   48.9460   33.4270   34.8600 H   0  0  0  0  0  0  0  0  0  0  0  0
   48.7840   32.5940   33.8040 S   0  0  0  0  0  0  0  0  0  0  0  0
   50.0430   31.7810   33.5420 O   0  0  0  0  0  0  0  0  0  0  0  0
   48.4680   33.2920   32.5220 O   0  0  0  0  0  0  0  0  0  0  0  0
  2  1  1  0  0  0  0
  2  3  1  0  0  0  0
  3 15  1  0  0  0  0
  4  3  2  0  0  0  0
  4  8  1  0  0  0  0
  5  9  1  0  0  0  0
  5  4  1  0  0  0  0
  6  7  1  0  0  0  0
  6  5  2  0  0  0  0
  7  2  2  0  0  0  0
 10  6  1  0  0  0  0
 11 12  1  0  0  0  0
 11 19  1  0  0  0  0
 12 17  1  0  0  0  0
 13 18  1  0  0  0  0
 13 12  2  0  0  0  0
 14 13  1  0  0  0  0
 15 14  2  0  0  0  0
 15 16  1  0  0  0  0
 16 11  2  0  0  0  0
 19 20  1  0  0  0  0
 19 21  1  0  0  0  0
 22  7  1  0  0  0  0
 24 23  2  6  0  0  0
 24 22  1  0  0  0  0
 25 24  1  0  0  0  0
 26 25  1  0  0  0  0
 27 24  1  0  0  0  0
 28 29  1  0  0  0  0
 29 30  2  0  0  0  0
 29 27  1  0  0  0  0
 30 31  1  0  0  0  0
 32 33  1  0  0  0  0
 32 30  1  0  0  0  0
 34 32  2  0  0  0  0
 35 34  1  0  0  0  0
 35 28  2  0  0  0  0
 37 28  1  0  0  0  0
 37 36  1  0  0  0  0
 38 37  2  0  0  0  0
 39 37  2  0  0  0  0
M  END
>  <minimizedAffinity>
-6.82999468

>  <minimizedRMSD>
1.57477152

$$$$
