
 OpenBabel03252509073D

 44 47  0  0  0  0  0  0  0  0999 V2000
   47.5230   31.8340   38.8530 C   0  0  0  0  0  0  0  0  0  0  0  0
   47.1270   33.1370   38.9120 C   0  0  0  0  0  0  0  0  0  0  0  0
   47.7970   34.0910   38.1630 C   0  0  0  0  0  0  0  0  0  0  0  0
   48.8540   33.7440   37.3640 C   0  0  0  0  0  0  0  0  0  0  0  0
   49.2920   32.4290   37.2740 C   0  0  0  0  0  0  0  0  0  0  0  0
   48.6040   31.4810   38.0350 C   0  0  0  0  0  0  0  0  0  0  0  0
   47.5110   35.1230   38.1860 H   0  0  0  0  0  0  0  0  0  0  0  0
   49.4010   34.4320   36.7720 H   0  0  0  0  0  0  0  0  0  0  0  0
   50.1000   32.0580   36.6860 H   0  0  0  0  0  0  0  0  0  0  0  0
   48.9180   30.4270   37.9920 H   0  0  0  0  0  0  0  0  0  0  0  0
   45.3920   35.2800   43.2790 Cl  0  0  0  0  0  0  0  0  0  0  0  0
   45.1880   34.5700   41.6960 C   0  0  0  0  0  0  0  0  0  0  0  0
   46.2610   34.1580   40.9720 C   0  0  0  0  0  0  0  0  0  0  0  0
   46.0110   33.6180   39.7180 C   0  0  0  0  0  0  0  0  0  0  0  0
   44.7480   33.5120   39.2360 C   0  0  0  0  0  0  0  0  0  0  0  0
   43.6750   33.9210   39.9530 C   0  0  0  0  0  0  0  0  0  0  0  0
   43.9090   34.4560   41.2010 C   0  0  0  0  0  0  0  0  0  0  0  0
   44.5820   33.0980   38.2600 H   0  0  0  0  0  0  0  0  0  0  0  0
   42.6800   33.8200   39.5400 H   0  0  0  0  0  0  0  0  0  0  0  0
   43.0390   34.7800   41.7700 H   0  0  0  0  0  0  0  0  0  0  0  0
   49.6010   35.6420   41.9690 C   0  0  0  0  0  0  0  0  0  0  0  0
   48.3160   35.5020   41.4360 C   0  0  0  0  0  0  0  0  0  0  0  0
   47.6050   34.3140   41.5250 C   0  0  0  0  0  0  0  0  0  0  0  0
   48.2480   33.3270   42.1560 N   0  0  0  0  0  0  0  0  0  0  0  0
   49.4780   33.4490   42.6700 C   0  0  0  0  0  0  0  0  0  0  0  0
   50.1480   34.5960   42.5770 N   0  0  0  0  0  0  0  0  0  0  0  0
   50.0960   36.5800   41.8690 H   0  0  0  0  0  0  0  0  0  0  0  0
   47.8510   36.3510   40.9330 H   0  0  0  0  0  0  0  0  0  0  0  0
   49.7950   32.5170   43.1350 H   0  0  0  0  0  0  0  0  0  0  0  0
   46.7960   30.6340   39.7970 S   0  0  0  0  0  0  0  0  0  0  0  0
   47.1780   29.2470   39.1750 O   0  0  0  0  0  0  0  0  0  0  0  0
   47.4960   30.6180   41.1260 O   0  0  0  0  0  0  0  0  0  0  0  0
   44.2520   30.0970   38.8000 C   0  0  0  0  0  0  0  0  0  0  0  0
   45.1030   30.3470   39.9040 C   0  0  0  0  0  0  0  0  0  0  0  0
   44.3550   30.3160   41.0740 C   0  0  0  0  0  0  0  0  0  0  0  0
   44.8760   30.4740   42.0090 H   0  0  0  0  0  0  0  0  0  0  0  0
   43.0050   30.0890   41.2060 C   0  0  0  0  0  0  0  0  0  0  0  0
   42.5190   30.0880   42.1690 H   0  0  0  0  0  0  0  0  0  0  0  0
   42.3140   29.8660   40.0570 C   0  0  0  0  0  3  0  0  0  0  0  0
   42.8960   29.8580   38.8190 C   0  0  0  0  0  3  0  0  0  0  0  0
   46.3260   29.7130   37.2640 H   0  0  0  0  0  0  0  0  0  0  0  0
   45.0140   30.0160   37.1990 S   0  0  0  0  0  0  0  0  0  0  0  0
   44.9270   31.3800   36.5290 O   0  0  0  0  0  0  0  0  0  0  0  0
   44.1870   29.1010   36.3730 O   0  0  0  0  0  0  0  0  0  0  0  0
  1  2  1  0  0  0  0
  1 30  1  0  0  0  0
  2 14  1  0  0  0  0
  3  7  1  0  0  0  0
  3  2  2  0  0  0  0
  4  3  1  0  0  0  0
  5  4  2  0  0  0  0
  5  6  1  0  0  0  0
  6  1  2  0  0  0  0
  8  4  1  0  0  0  0
  9  5  1  0  0  0  0
 10  6  1  0  0  0  0
 12 11  1  0  0  0  0
 13 23  1  0  0  0  0
 13 12  2  0  0  0  0
 14 13  1  0  0  0  0
 15 14  2  0  0  0  0
 15 16  1  0  0  0  0
 16 17  2  0  0  0  0
 17 12  1  0  0  0  0
 17 20  1  0  0  0  0
 18 15  1  0  0  0  0
 19 16  1  0  0  0  0
 21 26  1  0  0  0  0
 22 23  1  0  0  0  0
 22 21  2  0  0  0  0
 23 24  2  0  0  0  0
 24 25  1  0  0  0  0
 25 29  1  0  0  0  0
 26 25  2  0  0  0  0
 27 21  1  0  0  0  0
 28 22  1  0  0  0  0
 30 34  1  0  0  0  0
 30 32  2  0  0  0  0
 31 30  2  0  0  0  0
 33 40  2  0  0  0  0
 33 34  1  0  0  0  0
 34 35  2  0  0  0  0
 35 37  1  0  0  0  0
 35 36  1  0  0  0  0
 37 38  1  0  0  0  0
 39 37  2  0  0  0  0
 40 39  1  0  0  0  0
 42 41  1  0  0  0  0
 42 33  1  0  0  0  0
 43 42  2  0  0  0  0
 44 42  2  0  0  0  0
M  END
>  <minimizedAffinity>
-4.60814428

>  <minimizedRMSD>
1.74249589

$$$$
