
 OpenBabel03242513503D

 34 36  0  0  1  0  0  0  0  0999 V2000
   37.3160   29.8130   42.0220 C   0  0  2  0  0  0  0  0  0  0  0  0
   38.3320   29.2960   43.0050 C   0  0  0  0  0  0  0  0  0  0  0  0
   37.5510   28.1790   43.6790 C   0  0  0  0  0  0  0  0  0  0  0  0
   36.5260   27.7160   42.6480 C   0  0  0  0  0  0  0  0  0  0  0  0
   36.8710   28.5240   41.4360 C   0  0  1  0  0  0  0  0  0  0  0  0
   36.5750   30.3550   42.5980 H   0  0  0  0  0  0  0  0  0  0  0  0
   39.1690   28.8800   42.4120 H   0  0  0  0  0  0  0  0  0  0  0  0
   38.6420   30.0720   43.7230 H   0  0  0  0  0  0  0  0  0  0  0  0
   37.0810   28.5040   44.6210 H   0  0  0  0  0  0  0  0  0  0  0  0
   38.2580   27.3410   43.8200 H   0  0  0  0  0  0  0  0  0  0  0  0
   36.6550   26.6150   42.4260 H   0  0  0  0  0  0  0  0  0  0  0  0
   35.5390   27.8180   43.0630 H   0  0  0  0  0  0  0  0  0  0  0  0
   37.8910   28.0630   41.1590 H   0  0  0  0  0  0  0  0  0  0  0  0
   39.5550   31.4700   39.5060 C   0  0  0  0  0  0  0  0  0  0  0  0
   39.1260   30.5130   40.4380 C   0  0  0  0  0  0  0  0  0  0  0  0
   37.8700   30.7560   41.0350 C   0  0  0  0  0  0  0  0  0  0  0  0
   37.1450   31.8700   40.6970 N   0  0  0  0  0  0  0  0  0  0  0  0
   37.6320   32.7450   39.7870 C   0  0  0  0  0  0  0  0  0  0  0  0
   38.8220   32.5510   39.1960 N   0  0  0  0  0  0  0  0  0  0  0  0
   40.5220   31.2100   39.0970 H   0  0  0  0  0  0  0  0  0  0  0  0
   39.6920   29.6340   40.7070 H   0  0  0  0  0  0  0  0  0  0  0  0
   37.0910   33.6330   39.4940 H   0  0  0  0  0  0  0  0  0  0  0  0
   36.3620   27.7450   39.0940 C   0  0  0  0  0  0  0  0  0  0  0  0
   36.0720   28.4300   40.2640 C   0  0  0  0  0  0  0  0  0  0  0  0
   34.8260   29.0850   40.1730 C   0  0  0  0  0  0  0  0  0  0  0  0
   34.5070   29.6590   41.0610 H   0  0  0  0  0  0  0  0  0  0  0  0
   33.9480   29.1090   39.1290 C   0  0  0  0  0  0  0  0  0  0  0  0
   33.0190   29.6570   39.1940 H   0  0  0  0  0  0  0  0  0  0  0  0
   34.3110   28.4090   38.0170 C   0  0  0  0  0  3  0  0  0  0  0  0
   35.4930   27.7380   37.9930 C   0  0  0  0  0  3  0  0  0  0  0  0
   38.8990   27.3160   39.6010 H   0  0  0  0  0  0  0  0  0  0  0  0
   37.8150   26.8490   38.9470 S   0  0  0  0  0  0  0  0  0  0  0  0
   38.0930   26.3300   37.5570 O   0  0  0  0  0  0  0  0  0  0  0  0
   37.5970   25.5120   39.6940 O   0  0  0  0  0  0  0  0  0  0  0  0
  1  6  1  1  0  0  0
  1  2  1  0  0  0  0
  2  3  1  0  0  0  0
  2  8  1  0  0  0  0
  3 10  1  0  0  0  0
  3  9  1  0  0  0  0
  4 12  1  0  0  0  0
  4  3  1  0  0  0  0
  5 13  1  6  0  0  0
  5  1  1  0  0  0  0
  5  4  1  0  0  0  0
  7  2  1  0  0  0  0
 11  4  1  0  0  0  0
 14 15  1  0  0  0  0
 15 21  1  0  0  0  0
 15 16  2  0  0  0  0
 16  1  1  0  0  0  0
 17 16  1  0  0  0  0
 18 17  2  0  0  0  0
 19 14  2  0  0  0  0
 19 18  1  0  0  0  0
 20 14  1  0  0  0  0
 22 18  1  0  0  0  0
 23 24  1  0  0  0  0
 24  5  1  0  0  0  0
 25 24  2  0  0  0  0
 25 26  1  0  0  0  0
 27 28  1  0  0  0  0
 27 25  1  0  0  0  0
 29 27  2  0  0  0  0
 30 29  1  0  0  0  0
 30 23  2  0  0  0  0
 32 23  1  0  0  0  0
 32 31  1  0  0  0  0
 32 34  2  0  0  0  0
 33 32  2  0  0  0  0
M  END
>  <minimizedAffinity>
-5.25175619

$$$$

 OpenBabel03242513503D

 34 36  0  0  1  0  0  0  0  0999 V2000
   36.1310   27.7990   38.8190 C   0  0  2  0  0  0  0  0  0  0  0  0
   35.4230   28.5020   37.6920 C   0  0  0  0  0  0  0  0  0  0  0  0
   34.1270   28.9180   38.3700 C   0  0  0  0  0  0  0  0  0  0  0  0
   34.4650   29.0520   39.8520 C   0  0  0  0  0  0  0  0  0  0  0  0
   35.9410   28.8090   39.8900 C   0  0  1  0  0  0  0  0  0  0  0  0
   35.6230   26.8530   38.9620 H   0  0  0  0  0  0  0  0  0  0  0  0
   36.0310   29.3920   37.4380 H   0  0  0  0  0  0  0  0  0  0  0  0
   35.2430   27.8310   36.8370 H   0  0  0  0  0  0  0  0  0  0  0  0
   33.3090   28.2040   38.1880 H   0  0  0  0  0  0  0  0  0  0  0  0
   33.8950   29.9370   38.0060 H   0  0  0  0  0  0  0  0  0  0  0  0
   34.2370   30.0960   40.2200 H   0  0  0  0  0  0  0  0  0  0  0  0
   33.8270   28.3960   40.4170 H   0  0  0  0  0  0  0  0  0  0  0  0
   36.3230   29.7530   39.3490 H   0  0  0  0  0  0  0  0  0  0  0  0
   39.4530   26.0660   38.6040 C   0  0  0  0  0  0  0  0  0  0  0  0
   38.1030   26.2580   38.9320 C   0  0  0  0  0  0  0  0  0  0  0  0
   37.5430   27.4910   38.5340 C   0  0  0  0  0  0  0  0  0  0  0  0
   38.3060   28.4160   37.8670 N   0  0  0  0  0  0  0  0  0  0  0  0
   39.6030   28.1510   37.5880 C   0  0  0  0  0  0  0  0  0  0  0  0
   40.1730   26.9900   37.9500 N   0  0  0  0  0  0  0  0  0  0  0  0
   39.8030   25.1000   38.9440 H   0  0  0  0  0  0  0  0  0  0  0  0
   37.4990   25.5330   39.4570 H   0  0  0  0  0  0  0  0  0  0  0  0
   40.2350   28.8520   37.0650 H   0  0  0  0  0  0  0  0  0  0  0  0
   37.6090   29.6370   41.5880 C   0  0  0  0  0  0  0  0  0  0  0  0
   36.6270   28.7700   41.1340 C   0  0  0  0  0  0  0  0  0  0  0  0
   36.3600   27.7640   42.0860 C   0  0  0  0  0  0  0  0  0  0  0  0
   35.5870   27.0230   41.8140 H   0  0  0  0  0  0  0  0  0  0  0  0
   36.9290   27.5750   43.3110 C   0  0  0  0  0  0  0  0  0  0  0  0
   36.6280   26.7540   43.9450 H   0  0  0  0  0  0  0  0  0  0  0  0
   37.8870   28.4730   43.6800 C   0  0  0  0  0  3  0  0  0  0  0  0
   38.2240   29.4870   42.8390 C   0  0  0  0  0  3  0  0  0  0  0  0
   38.2770   30.7430   39.3060 H   0  0  0  0  0  0  0  0  0  0  0  0
   38.1100   30.9640   40.6260 S   0  0  0  0  0  0  0  0  0  0  0  0
   39.1730   31.8290   41.2590 O   0  0  0  0  0  0  0  0  0  0  0  0
   36.9330   31.9670   40.5930 O   0  0  0  0  0  0  0  0  0  0  0  0
  1  6  1  1  0  0  0
  1  5  1  0  0  0  0
  2  3  1  0  0  0  0
  2  1  1  0  0  0  0
  3  4  1  0  0  0  0
  4  5  1  0  0  0  0
  4 11  1  0  0  0  0
  4 12  1  0  0  0  0
  5 13  1  6  0  0  0
  5 24  1  0  0  0  0
  7  2  1  0  0  0  0
  8  2  1  0  0  0  0
  9  3  1  0  0  0  0
 10  3  1  0  0  0  0
 14 15  1  0  0  0  0
 14 20  1  0  0  0  0
 15 21  1  0  0  0  0
 16  1  1  0  0  0  0
 16 15  2  0  0  0  0
 17 16  1  0  0  0  0
 18 17  2  0  0  0  0
 18 19  1  0  0  0  0
 19 14  2  0  0  0  0
 22 18  1  0  0  0  0
 23 30  1  0  0  0  0
 24 23  2  0  0  0  0
 24 25  1  0  0  0  0
 25 27  2  0  0  0  0
 26 25  1  0  0  0  0
 27 29  1  0  0  0  0
 27 28  1  0  0  0  0
 30 29  2  0  0  0  0
 31 32  1  0  0  0  0
 32 33  2  0  0  0  0
 32 23  1  0  0  0  0
 34 32  2  0  0  0  0
M  END
>  <minimizedAffinity>
-4.89375973

$$$$

 OpenBabel03242513503D

 34 36  0  0  1  0  0  0  0  0999 V2000
   38.5810   28.0940   41.4870 C   0  0  2  0  0  0  0  0  0  0  0  0
   38.9930   28.4480   42.8910 C   0  0  0  0  0  0  0  0  0  0  0  0
   39.1820   29.9520   42.7730 C   0  0  0  0  0  0  0  0  0  0  0  0
   38.2620   30.3930   41.6380 C   0  0  0  0  0  0  0  0  0  0  0  0
   37.5440   29.1330   41.2710 C   0  0  1  0  0  0  0  0  0  0  0  0
   39.4700   28.1740   40.8730 H   0  0  0  0  0  0  0  0  0  0  0  0
   38.1310   28.2160   43.5460 H   0  0  0  0  0  0  0  0  0  0  0  0
   39.9230   27.9390   43.1870 H   0  0  0  0  0  0  0  0  0  0  0  0
   40.2320   30.2310   42.5950 H   0  0  0  0  0  0  0  0  0  0  0  0
   38.7720   30.3950   43.7000 H   0  0  0  0  0  0  0  0  0  0  0  0
   37.5220   31.1660   42.0030 H   0  0  0  0  0  0  0  0  0  0  0  0
   38.8480   30.8830   40.8810 H   0  0  0  0  0  0  0  0  0  0  0  0
   36.8990   28.9760   42.2140 H   0  0  0  0  0  0  0  0  0  0  0  0
   36.8590   24.8180   42.1140 C   0  0  0  0  0  0  0  0  0  0  0  0
   37.2870   26.1320   42.3550 C   0  0  0  0  0  0  0  0  0  0  0  0
   38.0820   26.7150   41.3440 C   0  0  0  0  0  0  0  0  0  0  0  0
   38.3920   26.0070   40.2110 N   0  0  0  0  0  0  0  0  0  0  0  0
   37.9370   24.7420   40.0560 C   0  0  0  0  0  0  0  0  0  0  0  0
   37.1790   24.1510   40.9940 N   0  0  0  0  0  0  0  0  0  0  0  0
   36.2580   24.4470   42.9340 H   0  0  0  0  0  0  0  0  0  0  0  0
   37.0450   26.6930   43.2450 H   0  0  0  0  0  0  0  0  0  0  0  0
   38.1590   24.1530   39.1790 H   0  0  0  0  0  0  0  0  0  0  0  0
   36.9420   29.1920   38.8240 C   0  0  0  0  0  0  0  0  0  0  0  0
   36.6380   29.1200   40.1750 C   0  0  0  0  0  0  0  0  0  0  0  0
   35.2450   29.0400   40.3780 C   0  0  0  0  0  0  0  0  0  0  0  0
   34.9040   28.9780   41.4270 H   0  0  0  0  0  0  0  0  0  0  0  0
   34.2450   29.0280   39.4490 C   0  0  0  0  0  0  0  0  0  0  0  0
   33.2090   28.9630   39.7460 H   0  0  0  0  0  0  0  0  0  0  0  0
   34.6310   29.1030   38.1430 C   0  0  0  0  0  3  0  0  0  0  0  0
   35.9520   29.1820   37.8300 C   0  0  0  0  0  3  0  0  0  0  0  0
   39.5090   28.7410   39.1080 H   0  0  0  0  0  0  0  0  0  0  0  0
   38.5710   29.2800   38.3020 S   0  0  0  0  0  0  0  0  0  0  0  0
   38.9580   30.6000   37.6810 O   0  0  0  0  0  0  0  0  0  0  0  0
   38.7000   28.3560   37.0690 O   0  0  0  0  0  0  0  0  0  0  0  0
  1  6  1  6  0  0  0
  1  2  1  0  0  0  0
  2  8  1  0  0  0  0
  2  7  1  0  0  0  0
  3  2  1  0  0  0  0
  3 10  1  0  0  0  0
  4 11  1  0  0  0  0
  4  3  1  0  0  0  0
  5  1  1  0  0  0  0
  5  4  1  0  0  0  0
  5 13  1  1  0  0  0
  9  3  1  0  0  0  0
 12  4  1  0  0  0  0
 14 15  1  0  0  0  0
 14 20  1  0  0  0  0
 15 21  1  0  0  0  0
 16  1  1  0  0  0  0
 16 15  2  0  0  0  0
 17 16  1  0  0  0  0
 18 17  2  0  0  0  0
 18 19  1  0  0  0  0
 19 14  2  0  0  0  0
 22 18  1  0  0  0  0
 23 24  1  0  0  0  0
 24 25  2  0  0  0  0
 24  5  1  0  0  0  0
 25 26  1  0  0  0  0
 27 28  1  0  0  0  0
 27 25  1  0  0  0  0
 29 27  2  0  0  0  0
 30 29  1  0  0  0  0
 30 23  2  0  0  0  0
 32 23  1  0  0  0  0
 32 31  1  0  0  0  0
 33 32  2  0  0  0  0
 34 32  2  0  0  0  0
M  END
>  <minimizedAffinity>
-4.82250071

$$$$

 OpenBabel03242513503D

 34 36  0  0  1  0  0  0  0  0999 V2000
   38.2520   29.1220   42.7470 C   0  0  2  0  0  0  0  0  0  0  0  0
   38.0950   27.7350   43.3100 C   0  0  0  0  0  0  0  0  0  0  0  0
   36.6210   27.4740   43.0480 C   0  0  0  0  0  0  0  0  0  0  0  0
   36.2610   28.3340   41.8390 C   0  0  0  0  0  0  0  0  0  0  0  0
   37.5740   28.9300   41.4410 C   0  0  1  0  0  0  0  0  0  0  0  0
   37.7650   29.7960   43.4420 H   0  0  0  0  0  0  0  0  0  0  0  0
   38.7230   27.0650   42.6910 H   0  0  0  0  0  0  0  0  0  0  0  0
   38.3350   27.6980   44.3840 H   0  0  0  0  0  0  0  0  0  0  0  0
   35.9920   27.6980   43.9240 H   0  0  0  0  0  0  0  0  0  0  0  0
   36.5400   26.4210   42.7210 H   0  0  0  0  0  0  0  0  0  0  0  0
   35.8600   27.6910   41.0000 H   0  0  0  0  0  0  0  0  0  0  0  0
   35.4610   28.9990   42.1080 H   0  0  0  0  0  0  0  0  0  0  0  0
   38.1260   27.9910   41.0620 H   0  0  0  0  0  0  0  0  0  0  0  0
   41.3530   31.2350   42.6260 C   0  0  0  0  0  0  0  0  0  0  0  0
   39.9890   30.9280   42.7430 C   0  0  0  0  0  0  0  0  0  0  0  0
   39.6540   29.5620   42.6320 C   0  0  0  0  0  0  0  0  0  0  0  0
   40.6320   28.6220   42.4240 N   0  0  0  0  0  0  0  0  0  0  0  0
   41.9270   29.0040   42.3230 C   0  0  0  0  0  0  0  0  0  0  0  0
   42.2870   30.2930   42.4230 N   0  0  0  0  0  0  0  0  0  0  0  0
   41.5220   32.2990   42.7220 H   0  0  0  0  0  0  0  0  0  0  0  0
   39.2150   31.6640   42.9070 H   0  0  0  0  0  0  0  0  0  0  0  0
   42.7250   28.2950   42.1600 H   0  0  0  0  0  0  0  0  0  0  0  0
   38.2730   29.7280   39.1550 C   0  0  0  0  0  0  0  0  0  0  0  0
   37.6380   29.8730   40.3790 C   0  0  0  0  0  0  0  0  0  0  0  0
   37.0270   31.1390   40.4870 C   0  0  0  0  0  0  0  0  0  0  0  0
   36.4930   31.3490   41.4310 H   0  0  0  0  0  0  0  0  0  0  0  0
   37.0020   32.1560   39.5770 C   0  0  0  0  0  0  0  0  0  0  0  0
   36.4920   33.0840   39.7920 H   0  0  0  0  0  0  0  0  0  0  0  0
   37.6510   31.9310   38.3990 C   0  0  0  0  0  3  0  0  0  0  0  0
   38.2760   30.7420   38.1860 C   0  0  0  0  0  3  0  0  0  0  0  0
   38.4590   27.1140   39.0710 H   0  0  0  0  0  0  0  0  0  0  0  0
   39.0820   28.2700   38.7610 S   0  0  0  0  0  0  0  0  0  0  0  0
   40.5650   28.2820   39.0430 O   0  0  0  0  0  0  0  0  0  0  0  0
   39.1040   28.1690   37.2180 O   0  0  0  0  0  0  0  0  0  0  0  0
  1  2  1  0  0  0  0
  1  6  1  1  0  0  0
  2  8  1  0  0  0  0
  3  2  1  0  0  0  0
  3  9  1  0  0  0  0
  4 12  1  0  0  0  0
  4  3  1  0  0  0  0
  5 13  1  6  0  0  0
  5  4  1  0  0  0  0
  5  1  1  0  0  0  0
  7  2  1  0  0  0  0
 10  3  1  0  0  0  0
 11  4  1  0  0  0  0
 14 20  1  0  0  0  0
 14 15  1  0  0  0  0
 15 21  1  0  0  0  0
 16 15  2  0  0  0  0
 16  1  1  0  0  0  0
 17 16  1  0  0  0  0
 18 19  1  0  0  0  0
 18 17  2  0  0  0  0
 19 14  2  0  0  0  0
 22 18  1  0  0  0  0
 23 24  1  0  0  0  0
 24 25  2  0  0  0  0
 24  5  1  0  0  0  0
 25 26  1  0  0  0  0
 27 28  1  0  0  0  0
 27 25  1  0  0  0  0
 29 27  2  0  0  0  0
 30 29  1  0  0  0  0
 30 23  2  0  0  0  0
 32 33  2  0  0  0  0
 32 31  1  0  0  0  0
 32 23  1  0  0  0  0
 34 32  2  0  0  0  0
M  END
>  <minimizedAffinity>
-4.80926561

$$$$

 OpenBabel03242513503D

 34 36  0  0  1  0  0  0  0  0999 V2000
   37.3950   29.5670   39.0040 C   0  0  2  0  0  0  0  0  0  0  0  0
   36.1990   30.0360   38.2190 C   0  0  0  0  0  0  0  0  0  0  0  0
   35.4560   28.7280   38.0010 C   0  0  0  0  0  0  0  0  0  0  0  0
   35.8560   27.8310   39.1700 C   0  0  0  0  0  0  0  0  0  0  0  0
   36.7050   28.7280   40.0150 C   0  0  1  0  0  0  0  0  0  0  0  0
   38.0370   29.0410   38.3080 H   0  0  0  0  0  0  0  0  0  0  0  0
   35.6210   30.7050   38.8840 H   0  0  0  0  0  0  0  0  0  0  0  0
   36.4920   30.5060   37.2660 H   0  0  0  0  0  0  0  0  0  0  0  0
   35.6840   28.2720   37.0250 H   0  0  0  0  0  0  0  0  0  0  0  0
   34.3810   28.9520   38.1300 H   0  0  0  0  0  0  0  0  0  0  0  0
   34.9430   27.5040   39.7510 H   0  0  0  0  0  0  0  0  0  0  0  0
   36.2960   26.9280   38.7850 H   0  0  0  0  0  0  0  0  0  0  0  0
   35.9110   29.4750   40.3920 H   0  0  0  0  0  0  0  0  0  0  0  0
   38.4110   32.7690   40.6800 C   0  0  0  0  0  0  0  0  0  0  0  0
   37.5580   31.7890   40.1490 C   0  0  0  0  0  0  0  0  0  0  0  0
   38.1930   30.6620   39.5840 C   0  0  0  0  0  0  0  0  0  0  0  0
   39.5610   30.5680   39.5750 N   0  0  0  0  0  0  0  0  0  0  0  0
   40.3120   31.5590   40.1090 C   0  0  0  0  0  0  0  0  0  0  0  0
   39.7470   32.6480   40.6560 N   0  0  0  0  0  0  0  0  0  0  0  0
   37.8470   33.5950   41.0910 H   0  0  0  0  0  0  0  0  0  0  0  0
   36.4810   31.8590   40.1540 H   0  0  0  0  0  0  0  0  0  0  0  0
   41.3910   31.5220   40.1220 H   0  0  0  0  0  0  0  0  0  0  0  0
   38.3920   27.3140   41.2430 C   0  0  0  0  0  0  0  0  0  0  0  0
   37.3430   28.2190   41.1790 C   0  0  0  0  0  0  0  0  0  0  0  0
   36.9280   28.6070   42.4690 C   0  0  0  0  0  0  0  0  0  0  0  0
   36.0940   29.3290   42.5210 H   0  0  0  0  0  0  0  0  0  0  0  0
   37.4180   28.2100   43.6800 C   0  0  0  0  0  0  0  0  0  0  0  0
   37.0020   28.5900   44.6010 H   0  0  0  0  0  0  0  0  0  0  0  0
   38.4490   27.3180   43.6520 C   0  0  0  0  0  3  0  0  0  0  0  0
   38.9320   26.8750   42.4610 C   0  0  0  0  0  3  0  0  0  0  0  0
   39.4330   27.5840   38.8520 H   0  0  0  0  0  0  0  0  0  0  0  0
   39.0960   26.6950   39.8090 S   0  0  0  0  0  0  0  0  0  0  0  0
   38.4580   25.4280   39.2950 O   0  0  0  0  0  0  0  0  0  0  0  0
   40.4940   26.1550   40.1900 O   0  0  0  0  0  0  0  0  0  0  0  0
  1  6  1  6  0  0  0
  1 16  1  0  0  0  0
  1  5  1  0  0  0  0
  2  7  1  0  0  0  0
  2  1  1  0  0  0  0
  3 10  1  0  0  0  0
  3  2  1  0  0  0  0
  3  4  1  0  0  0  0
  4 11  1  0  0  0  0
  4  5  1  0  0  0  0
  5 13  1  1  0  0  0
  5 24  1  0  0  0  0
  8  2  1  0  0  0  0
  9  3  1  0  0  0  0
 12  4  1  0  0  0  0
 14 20  1  0  0  0  0
 15 21  1  0  0  0  0
 15 14  2  0  0  0  0
 16 15  1  0  0  0  0
 17 16  2  0  0  0  0
 17 18  1  0  0  0  0
 18 22  1  0  0  0  0
 18 19  2  0  0  0  0
 19 14  1  0  0  0  0
 23 30  1  0  0  0  0
 24 23  2  0  0  0  0
 24 25  1  0  0  0  0
 25 26  1  0  0  0  0
 25 27  2  0  0  0  0
 27 28  1  0  0  0  0
 29 27  1  0  0  0  0
 30 29  2  0  0  0  0
 31 32  1  0  0  0  0
 32 34  2  0  0  0  0
 32 23  1  0  0  0  0
 33 32  2  0  0  0  0
M  END
>  <minimizedAffinity>
-4.79125071

$$$$

 OpenBabel03242513503D

 34 36  0  0  1  0  0  0  0  0999 V2000
   36.3820   28.8970   39.9970 C   0  0  2  0  0  0  0  0  0  0  0  0
   36.0130   27.6710   39.2050 C   0  0  0  0  0  0  0  0  0  0  0  0
   35.2760   28.2900   38.0280 C   0  0  0  0  0  0  0  0  0  0  0  0
   35.8520   29.6950   37.8780 C   0  0  0  0  0  0  0  0  0  0  0  0
   36.9400   29.7310   38.9040 C   0  0  1  0  0  0  0  0  0  0  0  0
   35.4690   29.2590   40.4530 H   0  0  0  0  0  0  0  0  0  0  0  0
   36.9610   27.2090   38.8690 H   0  0  0  0  0  0  0  0  0  0  0  0
   35.3690   26.9880   39.7810 H   0  0  0  0  0  0  0  0  0  0  0  0
   34.1840   28.2960   38.1720 H   0  0  0  0  0  0  0  0  0  0  0  0
   35.5860   27.7250   37.1300 H   0  0  0  0  0  0  0  0  0  0  0  0
   36.2900   29.8370   36.8450 H   0  0  0  0  0  0  0  0  0  0  0  0
   35.0540   30.4120   37.9580 H   0  0  0  0  0  0  0  0  0  0  0  0
   37.6890   28.9850   38.4410 H   0  0  0  0  0  0  0  0  0  0  0  0
   38.2060   29.0210   43.2750 C   0  0  0  0  0  0  0  0  0  0  0  0
   37.2570   29.3580   42.2990 C   0  0  0  0  0  0  0  0  0  0  0  0
   37.3350   28.6330   41.0900 C   0  0  0  0  0  0  0  0  0  0  0  0
   38.2930   27.6660   40.9210 N   0  0  0  0  0  0  0  0  0  0  0  0
   39.1720   27.4020   41.9160 C   0  0  0  0  0  0  0  0  0  0  0  0
   39.1320   28.0700   43.0800 N   0  0  0  0  0  0  0  0  0  0  0  0
   38.0780   29.6210   44.1670 H   0  0  0  0  0  0  0  0  0  0  0  0
   36.5010   30.1180   42.4270 H   0  0  0  0  0  0  0  0  0  0  0  0
   39.9400   26.6490   41.8210 H   0  0  0  0  0  0  0  0  0  0  0  0
   39.0350   31.1310   38.9670 C   0  0  0  0  0  0  0  0  0  0  0  0
   37.6730   30.9290   39.1270 C   0  0  0  0  0  0  0  0  0  0  0  0
   37.0350   32.1030   39.5780 C   0  0  0  0  0  0  0  0  0  0  0  0
   35.9430   32.0400   39.7340 H   0  0  0  0  0  0  0  0  0  0  0  0
   37.5830   33.3220   39.8510 C   0  0  0  0  0  0  0  0  0  0  0  0
   36.9730   34.1440   40.1930 H   0  0  0  0  0  0  0  0  0  0  0  0
   38.9300   33.4350   39.6670 C   0  0  0  0  0  3  0  0  0  0  0  0
   39.6480   32.3640   39.2330 C   0  0  0  0  0  3  0  0  0  0  0  0
   39.4850   28.9350   37.6060 H   0  0  0  0  0  0  0  0  0  0  0  0
   40.0440   29.8620   38.4110 S   0  0  0  0  0  0  0  0  0  0  0  0
   40.9830   29.3070   39.4550 O   0  0  0  0  0  0  0  0  0  0  0  0
   41.0670   30.4930   37.4390 O   0  0  0  0  0  0  0  0  0  0  0  0
  1  6  1  1  0  0  0
  1 16  1  0  0  0  0
  2  8  1  0  0  0  0
  2  1  1  0  0  0  0
  3  9  1  0  0  0  0
  3  2  1  0  0  0  0
  4 12  1  0  0  0  0
  4  3  1  0  0  0  0
  4  5  1  0  0  0  0
  5 13  1  6  0  0  0
  5 24  1  0  0  0  0
  5  1  1  0  0  0  0
  7  2  1  0  0  0  0
 10  3  1  0  0  0  0
 11  4  1  0  0  0  0
 14 20  1  0  0  0  0
 15 21  1  0  0  0  0
 15 14  2  0  0  0  0
 16 15  1  0  0  0  0
 17 16  2  0  0  0  0
 17 18  1  0  0  0  0
 18 19  2  0  0  0  0
 19 14  1  0  0  0  0
 22 18  1  0  0  0  0
 23 24  2  0  0  0  0
 23 30  1  0  0  0  0
 24 25  1  0  0  0  0
 25 26  1  0  0  0  0
 25 27  2  0  0  0  0
 27 28  1  0  0  0  0
 29 27  1  0  0  0  0
 30 29  2  0  0  0  0
 31 32  1  0  0  0  0
 32 23  1  0  0  0  0
 32 33  2  0  0  0  0
 34 32  2  0  0  0  0
M  END
>  <minimizedAffinity>
-4.78247595

$$$$

 OpenBabel03242513503D

 34 36  0  0  1  0  0  0  0  0999 V2000
   37.2170   27.7320   41.3590 C   0  0  2  0  0  0  0  0  0  0  0  0
   36.6500   27.7990   42.7530 C   0  0  0  0  0  0  0  0  0  0  0  0
   37.9180   27.7600   43.5900 C   0  0  0  0  0  0  0  0  0  0  0  0
   39.0130   28.3480   42.7040 C   0  0  0  0  0  0  0  0  0  0  0  0
   38.2680   28.7730   41.4780 C   0  0  1  0  0  0  0  0  0  0  0  0
   37.5660   26.7170   41.2140 H   0  0  0  0  0  0  0  0  0  0  0  0
   36.1510   28.7820   42.8490 H   0  0  0  0  0  0  0  0  0  0  0  0
   35.9880   26.9450   42.9680 H   0  0  0  0  0  0  0  0  0  0  0  0
   38.1610   26.7440   43.9390 H   0  0  0  0  0  0  0  0  0  0  0  0
   37.7680   28.4740   44.4210 H   0  0  0  0  0  0  0  0  0  0  0  0
   39.4850   29.2470   43.1990 H   0  0  0  0  0  0  0  0  0  0  0  0
   39.8010   27.6250   42.5950 H   0  0  0  0  0  0  0  0  0  0  0  0
   37.6440   29.6450   41.9020 H   0  0  0  0  0  0  0  0  0  0  0  0
   34.3490   29.1710   39.4110 C   0  0  0  0  0  0  0  0  0  0  0  0
   35.2350   28.9900   40.4840 C   0  0  0  0  0  0  0  0  0  0  0  0
   36.2270   28.0030   40.3020 C   0  0  0  0  0  0  0  0  0  0  0  0
   36.2890   27.2880   39.1320 N   0  0  0  0  0  0  0  0  0  0  0  0
   35.3940   27.5260   38.1450 C   0  0  0  0  0  0  0  0  0  0  0  0
   34.4350   28.4560   38.2790 N   0  0  0  0  0  0  0  0  0  0  0  0
   33.6230   29.9420   39.6310 H   0  0  0  0  0  0  0  0  0  0  0  0
   35.1910   29.5500   41.4060 H   0  0  0  0  0  0  0  0  0  0  0  0
   35.4100   26.9850   37.2100 H   0  0  0  0  0  0  0  0  0  0  0  0
   38.8630   30.5780   39.8220 C   0  0  0  0  0  0  0  0  0  0  0  0
   38.9720   29.3060   40.3630 C   0  0  0  0  0  0  0  0  0  0  0  0
   39.9030   28.5280   39.6460 C   0  0  0  0  0  0  0  0  0  0  0  0
   40.0600   27.4950   40.0040 H   0  0  0  0  0  0  0  0  0  0  0  0
   40.6490   28.8760   38.5570 C   0  0  0  0  0  0  0  0  0  0  0  0
   41.3310   28.1740   38.1010 H   0  0  0  0  0  0  0  0  0  0  0  0
   40.4810   30.1460   38.0900 C   0  0  0  0  0  3  0  0  0  0  0  0
   39.6070   30.9860   38.7060 C   0  0  0  0  0  3  0  0  0  0  0  0
   37.1890   31.3920   41.6700 H   0  0  0  0  0  0  0  0  0  0  0  0
   37.8060   31.7330   40.5200 S   0  0  0  0  0  0  0  0  0  0  0  0
   36.9310   32.4600   39.5270 O   0  0  0  0  0  0  0  0  0  0  0  0
   38.6840   32.9070   41.0130 O   0  0  0  0  0  0  0  0  0  0  0  0
  1  6  1  6  0  0  0
  1  5  1  0  0  0  0
  1  2  1  0  0  0  0
  2  7  1  0  0  0  0
  2  8  1  0  0  0  0
  2  3  1  0  0  0  0
  3  9  1  0  0  0  0
  3 10  1  0  0  0  0
  4 11  1  0  0  0  0
  4  3  1  0  0  0  0
  5 13  1  1  0  0  0
  5  4  1  0  0  0  0
 12  4  1  0  0  0  0
 14 20  1  0  0  0  0
 14 15  1  0  0  0  0
 15 21  1  0  0  0  0
 16 15  2  0  0  0  0
 16  1  1  0  0  0  0
 17 16  1  0  0  0  0
 18 19  1  0  0  0  0
 18 17  2  0  0  0  0
 19 14  2  0  0  0  0
 22 18  1  0  0  0  0
 23 24  1  0  0  0  0
 23 32  1  0  0  0  0
 24  5  1  0  0  0  0
 25 26  1  0  0  0  0
 25 24  2  0  0  0  0
 27 25  1  0  0  0  0
 28 27  1  0  0  0  0
 29 27  2  0  0  0  0
 29 30  1  0  0  0  0
 30 23  2  0  0  0  0
 32 34  2  0  0  0  0
 32 31  1  0  0  0  0
 33 32  2  0  0  0  0
M  END
>  <minimizedAffinity>
-4.69873905

$$$$

 OpenBabel03242513503D

 34 36  0  0  1  0  0  0  0  0999 V2000
   37.3180   32.0730   40.3390 C   0  0  2  0  0  0  0  0  0  0  0  0
   37.2620   33.3130   39.4870 C   0  0  0  0  0  0  0  0  0  0  0  0
   38.3500   34.1610   40.1270 C   0  0  0  0  0  0  0  0  0  0  0  0
   39.3280   33.1690   40.7520 C   0  0  0  0  0  0  0  0  0  0  0  0
   38.7840   31.8410   40.3300 C   0  0  1  0  0  0  0  0  0  0  0  0
   36.8830   32.3340   41.2960 H   0  0  0  0  0  0  0  0  0  0  0  0
   37.5570   33.0130   38.4630 H   0  0  0  0  0  0  0  0  0  0  0  0
   36.2760   33.8020   39.5370 H   0  0  0  0  0  0  0  0  0  0  0  0
   37.9480   34.8750   40.8630 H   0  0  0  0  0  0  0  0  0  0  0  0
   38.8900   34.6570   39.3000 H   0  0  0  0  0  0  0  0  0  0  0  0
   40.3660   33.3130   40.3280 H   0  0  0  0  0  0  0  0  0  0  0  0
   39.4100   33.3740   41.8040 H   0  0  0  0  0  0  0  0  0  0  0  0
   38.9890   31.8800   39.1950 H   0  0  0  0  0  0  0  0  0  0  0  0
   35.0210   29.1190   40.0380 C   0  0  0  0  0  0  0  0  0  0  0  0
   35.7320   30.1590   40.6550 C   0  0  0  0  0  0  0  0  0  0  0  0
   36.5330   30.9470   39.8010 C   0  0  0  0  0  0  0  0  0  0  0  0
   36.5850   30.6810   38.4560 N   0  0  0  0  0  0  0  0  0  0  0  0
   35.8660   29.6570   37.9410 C   0  0  0  0  0  0  0  0  0  0  0  0
   35.0910   28.8830   38.7190 N   0  0  0  0  0  0  0  0  0  0  0  0
   34.4340   28.5670   40.7600 H   0  0  0  0  0  0  0  0  0  0  0  0
   35.6950   30.3730   41.7130 H   0  0  0  0  0  0  0  0  0  0  0  0
   35.8790   29.4150   36.8880 H   0  0  0  0  0  0  0  0  0  0  0  0
   40.0850   29.7010   40.0470 C   0  0  0  0  0  0  0  0  0  0  0  0
   39.3900   30.6410   40.7920 C   0  0  0  0  0  0  0  0  0  0  0  0
   39.3230   30.2630   42.1490 C   0  0  0  0  0  0  0  0  0  0  0  0
   38.7870   30.9530   42.8250 H   0  0  0  0  0  0  0  0  0  0  0  0
   39.8350   29.1520   42.7530 C   0  0  0  0  0  0  0  0  0  0  0  0
   39.7090   28.9840   43.8130 H   0  0  0  0  0  0  0  0  0  0  0  0
   40.5040   28.2790   41.9470 C   0  0  0  0  0  3  0  0  0  0  0  0
   40.6310   28.5430   40.6190 C   0  0  0  0  0  3  0  0  0  0  0  0
   39.3590   30.5780   37.6850 H   0  0  0  0  0  0  0  0  0  0  0  0
   40.3260   29.9280   38.3650 S   0  0  0  0  0  0  0  0  0  0  0  0
   40.9050   28.7330   37.6490 O   0  0  0  0  0  0  0  0  0  0  0  0
   41.4950   30.9280   38.2080 O   0  0  0  0  0  0  0  0  0  0  0  0
  1  6  1  1  0  0  0
  2  8  1  0  0  0  0
  2  3  1  0  0  0  0
  2  1  1  0  0  0  0
  3  4  1  0  0  0  0
  3  9  1  0  0  0  0
  4 12  1  0  0  0  0
  5 13  1  6  0  0  0
  5  1  1  0  0  0  0
  5  4  1  0  0  0  0
  5 24  1  0  0  0  0
  7  2  1  0  0  0  0
 10  3  1  0  0  0  0
 11  4  1  0  0  0  0
 14 15  1  0  0  0  0
 14 20  1  0  0  0  0
 15 21  1  0  0  0  0
 16  1  1  0  0  0  0
 16 15  2  0  0  0  0
 17 16  1  0  0  0  0
 18 17  2  0  0  0  0
 18 19  1  0  0  0  0
 19 14  2  0  0  0  0
 22 18  1  0  0  0  0
 23 30  2  0  0  0  0
 23 24  1  0  0  0  0
 24 25  2  0  0  0  0
 25 27  1  0  0  0  0
 25 26  1  0  0  0  0
 27 28  1  0  0  0  0
 29 27  2  0  0  0  0
 30 29  1  0  0  0  0
 31 32  1  0  0  0  0
 32 23  1  0  0  0  0
 33 32  2  0  0  0  0
 34 32  2  0  0  0  0
M  END
>  <minimizedAffinity>
-4.67802906

$$$$

 OpenBabel03242513503D

 34 36  0  0  1  0  0  0  0  0999 V2000
   39.4420   25.7810   41.4160 C   0  0  2  0  0  0  0  0  0  0  0  0
   38.8140   24.5470   42.0070 C   0  0  0  0  0  0  0  0  0  0  0  0
   39.7040   24.3130   43.2170 C   0  0  0  0  0  0  0  0  0  0  0  0
   40.2510   25.6860   43.5950 C   0  0  0  0  0  0  0  0  0  0  0  0
   39.5520   26.6060   42.6450 C   0  0  1  0  0  0  0  0  0  0  0  0
   40.3780   25.4690   40.9680 H   0  0  0  0  0  0  0  0  0  0  0  0
   37.7920   24.8280   42.3250 H   0  0  0  0  0  0  0  0  0  0  0  0
   38.8410   23.6970   41.3060 H   0  0  0  0  0  0  0  0  0  0  0  0
   40.5030   23.5830   43.0170 H   0  0  0  0  0  0  0  0  0  0  0  0
   39.0360   24.0020   44.0420 H   0  0  0  0  0  0  0  0  0  0  0  0
   39.9720   25.9470   44.6590 H   0  0  0  0  0  0  0  0  0  0  0  0
   41.3260   25.6540   43.5740 H   0  0  0  0  0  0  0  0  0  0  0  0
   38.4700   26.5320   43.0370 H   0  0  0  0  0  0  0  0  0  0  0  0
   36.6140   26.7020   39.1270 C   0  0  0  0  0  0  0  0  0  0  0  0
   37.2880   26.0420   40.1650 C   0  0  0  0  0  0  0  0  0  0  0  0
   38.6390   26.4040   40.3490 C   0  0  0  0  0  0  0  0  0  0  0  0
   39.2200   27.3500   39.5430 N   0  0  0  0  0  0  0  0  0  0  0  0
   38.4980   27.9400   38.5620 C   0  0  0  0  0  0  0  0  0  0  0  0
   37.2100   27.6230   38.3540 N   0  0  0  0  0  0  0  0  0  0  0  0
   35.5880   26.3670   39.0530 H   0  0  0  0  0  0  0  0  0  0  0  0
   36.8350   25.2980   40.8030 H   0  0  0  0  0  0  0  0  0  0  0  0
   38.9190   28.6880   37.9070 H   0  0  0  0  0  0  0  0  0  0  0  0
   38.9980   29.0590   42.8180 C   0  0  0  0  0  0  0  0  0  0  0  0
   39.8650   27.9930   42.6320 C   0  0  0  0  0  0  0  0  0  0  0  0
   41.1800   28.4440   42.3990 C   0  0  0  0  0  0  0  0  0  0  0  0
   41.9460   27.6640   42.2390 H   0  0  0  0  0  0  0  0  0  0  0  0
   41.6470   29.7250   42.3420 C   0  0  0  0  0  0  0  0  0  0  0  0
   42.6900   29.9310   42.1530 H   0  0  0  0  0  0  0  0  0  0  0  0
   40.7270   30.7130   42.5360 C   0  0  0  0  0  3  0  0  0  0  0  0
   39.4270   30.3930   42.7700 C   0  0  0  0  0  3  0  0  0  0  0  0
   36.6930   29.6970   43.8930 H   0  0  0  0  0  0  0  0  0  0  0  0
   37.3360   28.7850   43.1360 S   0  0  0  0  0  0  0  0  0  0  0  0
   36.9880   27.3490   43.4470 O   0  0  0  0  0  0  0  0  0  0  0  0
   36.5860   28.9580   41.7950 O   0  0  0  0  0  0  0  0  0  0  0  0
  1  6  1  6  0  0  0
  1  2  1  0  0  0  0
  1  5  1  0  0  0  0
  2  7  1  0  0  0  0
  2  3  1  0  0  0  0
  3  4  1  0  0  0  0
  3 10  1  0  0  0  0
  4 11  1  0  0  0  0
  5 13  1  1  0  0  0
  5  4  1  0  0  0  0
  8  2  1  0  0  0  0
  9  3  1  0  0  0  0
 12  4  1  0  0  0  0
 14 15  1  0  0  0  0
 15 16  2  0  0  0  0
 15 21  1  0  0  0  0
 16  1  1  0  0  0  0
 17 16  1  0  0  0  0
 18 17  2  0  0  0  0
 19 18  1  0  0  0  0
 19 14  2  0  0  0  0
 20 14  1  0  0  0  0
 22 18  1  0  0  0  0
 23 32  1  0  0  0  0
 24  5  1  0  0  0  0
 24 23  2  0  0  0  0
 25 24  1  0  0  0  0
 26 25  1  0  0  0  0
 27 25  2  0  0  0  0
 27 29  1  0  0  0  0
 28 27  1  0  0  0  0
 29 30  2  0  0  0  0
 30 23  1  0  0  0  0
 32 33  2  0  0  0  0
 32 31  1  0  0  0  0
 34 32  2  0  0  0  0
M  END
>  <minimizedAffinity>
-4.66865015

$$$$
