
 OpenBabel03252506053D

 46 50  0  0  0  0  0  0  0  0999 V2000
   44.7460   35.9180   43.4060 Cl  0  0  0  0  0  0  0  0  0  0  0  0
   45.5110   34.6710   44.3370 C   0  0  0  0  0  0  0  0  0  0  0  0
   46.5910   33.9840   43.8270 C   0  0  0  0  0  0  0  0  0  0  0  0
   47.1290   33.0100   44.6430 C   0  0  0  0  0  0  0  0  0  0  0  0
   46.6590   32.6960   45.9090 C   0  0  0  0  0  0  0  0  0  0  0  0
   45.5840   33.4020   46.3790 C   0  0  0  0  0  0  0  0  0  0  0  0
   45.0230   32.9700   47.9850 Cl  0  0  0  0  0  0  0  0  0  0  0  0
   45.0170   34.3750   45.6070 C   0  0  0  0  0  0  0  0  0  0  0  0
   47.9850   32.4740   44.2250 H   0  0  0  0  0  0  0  0  0  0  0  0
   44.1770   34.8870   46.0430 H   0  0  0  0  0  0  0  0  0  0  0  0
   47.3710   31.6250   46.6200 C   0  0  0  0  0  0  0  0  0  0  0  0
   47.4980   30.3520   46.1370 C   0  0  0  0  0  0  0  0  0  0  0  0
   48.1680   29.3430   46.8010 C   0  0  0  0  0  0  0  0  0  0  0  0
   48.7470   29.6020   48.0170 C   0  0  0  0  0  0  0  0  0  0  0  0
   49.3910   28.6130   48.6470 N   0  0  0  0  0  0  0  0  0  0  0  0
   49.9900   28.7840   49.8480 C   0  0  0  0  0  0  0  0  0  0  0  0
   49.9030   30.0540   50.4020 C   0  0  0  0  0  0  0  0  0  0  0  0
   49.2470   31.0720   49.7660 C   0  0  0  0  0  0  0  0  0  0  0  0
   48.6450   30.8640   48.5390 C   0  0  0  0  0  0  0  0  0  0  0  0
   47.9750   31.8620   47.8640 C   0  0  0  0  0  0  0  0  0  0  0  0
   47.0360   30.1670   45.1810 H   0  0  0  0  0  0  0  0  0  0  0  0
   48.2490   28.3450   46.3890 H   0  0  0  0  0  0  0  0  0  0  0  0
   50.4900   27.9610   50.3060 H   0  0  0  0  0  0  0  0  0  0  0  0
   50.3750   30.2210   51.3660 H   0  0  0  0  0  0  0  0  0  0  0  0
   49.1940   32.0430   50.2150 H   0  0  0  0  0  0  0  0  0  0  0  0
   47.9200   32.8460   48.3190 H   0  0  0  0  0  0  0  0  0  0  0  0
   48.7170   35.3200   41.1890 C   0  0  0  0  0  0  0  0  0  0  0  0
   48.1560   34.7740   40.0260 C   0  0  0  0  0  0  0  0  0  0  0  0
   47.0310   33.9340   40.1400 C   0  0  0  0  0  0  0  0  0  0  0  0
   46.6040   33.7410   41.3990 N   0  0  0  0  0  0  0  0  0  0  0  0
   47.1380   34.2610   42.5090 C   0  0  0  0  0  0  0  0  0  0  0  0
   48.2040   35.0580   42.4110 N   0  0  0  0  0  0  0  0  0  0  0  0
   49.5840   35.9680   41.1080 H   0  0  0  0  0  0  0  0  0  0  0  0
   48.5620   34.9820   39.0700 H   0  0  0  0  0  0  0  0  0  0  0  0
   45.0120   33.1730   39.0350 C   0  0  0  0  0  0  0  0  0  0  0  0
   46.3720   33.3170   38.9990 C   0  0  0  0  0  0  0  0  0  0  0  0
   47.0780   32.8820   37.8990 C   0  0  0  0  0  0  0  0  0  0  0  0
   48.1450   32.9730   37.8250 H   0  0  0  0  0  0  0  0  0  0  0  0
   46.4680   32.2930   36.8050 C   0  0  0  0  0  0  0  0  0  0  0  0
   47.0210   31.9530   35.9450 H   0  0  0  0  0  0  0  0  0  0  0  0
   45.1050   32.1370   36.8160 C   0  0  0  0  0  0  0  0  0  0  0  0
   44.4190   32.5740   37.9170 C   0  0  0  0  0  0  0  0  0  0  0  0
   44.6540   33.6070   41.5840 H   0  0  0  0  0  0  0  0  0  0  0  0
   44.0130   33.6780   40.3600 S   0  0  0  0  0  0  0  0  0  0  0  0
   42.8450   32.7120   40.5020 O   0  0  0  0  0  0  0  0  0  0  0  0
   43.3940   35.0100   40.0990 O   0  0  0  0  0  0  0  0  0  0  0  0
  1  2  1  0  0  0  0
  2  8  1  0  0  0  0
  3  2  2  0  0  0  0
  3  4  1  0  0  0  0
  4  5  2  0  0  0  0
  5  6  1  0  0  0  0
  5 11  1  0  0  0  0
  6  7  1  0  0  0  0
  8 10  1  0  0  0  0
  8  6  2  0  0  0  0
  9  4  1  0  0  0  0
 11 20  1  0  0  0  0
 12 11  2  0  0  0  0
 12 13  1  0  0  0  0
 13 14  2  0  0  0  0
 14 19  1  0  0  0  0
 14 15  1  0  0  0  0
 15 16  2  0  0  0  0
 16 23  1  0  0  0  0
 16 17  1  0  0  0  0
 17 24  1  0  0  0  0
 18 25  1  0  0  0  0
 18 17  2  0  0  0  0
 19 18  1  0  0  0  0
 20 26  1  0  0  0  0
 20 19  2  0  0  0  0
 21 12  1  0  0  0  0
 22 13  1  0  0  0  0
 27 32  1  0  0  0  0
 28 29  1  0  0  0  0
 28 27  2  0  0  0  0
 29 30  2  0  0  0  0
 30 31  1  0  0  0  0
 31  3  1  0  0  0  0
 32 31  2  0  0  0  0
 33 27  1  0  0  0  0
 34 28  1  0  0  0  0
 35 44  1  0  0  0  0
 36 35  1  0  0  0  0
 36 29  1  0  0  0  0
 37 36  2  0  0  0  0
 38 37  1  0  0  0  0
 39 41  2  0  0  0  0
 39 37  1  0  0  0  0
 40 39  1  0  0  0  0
 41 42  1  0  0  0  0
 42 35  2  0  0  0  0
 44 45  2  0  0  0  0
 44 43  1  0  0  0  0
 46 44  2  0  0  0  0
M  END
>  <minimizedAffinity>
-7.34380007

>  <minimizedRMSD>
0.399554878

$$$$
