
 OpenBabel03252506343D

 36 38  0  0  1  0  0  0  0  0999 V2000
   44.4710   35.7510   44.9650 C   0  0  0  0  0  0  0  0  0  0  0  0
   45.1380   35.7370   43.7290 C   0  0  0  0  0  0  0  0  0  0  0  0
   46.0580   34.7630   43.4960 C   0  0  0  0  0  0  0  0  0  0  0  0
   46.2670   33.8690   44.4840 N   0  0  0  0  0  0  0  0  0  0  0  0
   45.6370   33.8820   45.6550 C   0  0  0  0  0  0  0  0  0  0  0  0
   44.7200   34.8220   45.9320 N   0  0  0  0  0  0  0  0  0  0  0  0
   45.9530   32.8810   46.6110 N   0  0  0  0  0  0  0  0  0  0  0  0
   45.1480   32.5710   47.7890 C   0  0  0  0  0  0  0  0  0  0  0  0
   46.2360   32.2850   48.8180 C   0  0  0  0  0  0  0  0  0  0  0  0
   47.5370   32.1600   48.0700 C   0  0  0  0  0  0  0  0  0  0  0  0
   47.0880   31.9850   46.6370 C   0  0  1  0  0  0  0  0  0  0  0  0
   43.7190   36.4990   45.2280 H   0  0  0  0  0  0  0  0  0  0  0  0
   46.5390   34.7840   42.5540 H   0  0  0  0  0  0  0  0  0  0  0  0
   44.4830   31.7080   47.6270 H   0  0  0  0  0  0  0  0  0  0  0  0
   44.5910   33.4460   48.1560 H   0  0  0  0  0  0  0  0  0  0  0  0
   45.9880   31.3130   49.2860 H   0  0  0  0  0  0  0  0  0  0  0  0
   46.2490   33.0290   49.6290 H   0  0  0  0  0  0  0  0  0  0  0  0
   48.1420   31.2880   48.4250 H   0  0  0  0  0  0  0  0  0  0  0  0
   48.0780   33.1190   48.1880 H   0  0  0  0  0  0  0  0  0  0  0  0
   47.9150   32.3180   46.0000 H   0  0  0  0  0  0  0  0  0  0  0  0
   44.7440   36.7950   42.8510 N   0  0  0  0  0  0  0  0  0  0  0  0
   43.8020   37.0200   42.4970 H   0  0  0  0  0  0  0  0  0  0  0  0
   45.6640   37.2760   42.6660 H   0  0  0  0  0  0  0  0  0  0  0  0
   46.5990   30.2650   46.4080 S   0  0  0  0  0  0  0  0  0  0  0  0
   47.2900   29.0850   43.9220 C   0  0  0  0  0  0  0  0  0  0  0  0
   46.4260   29.8340   44.6880 C   0  0  0  0  0  0  0  0  0  0  0  0
   45.2590   30.3420   44.1070 C   0  0  0  0  0  0  0  0  0  0  0  0
   44.5190   30.9440   44.6340 H   0  0  0  0  0  0  0  0  0  0  0  0
   44.9950   30.0840   42.7750 C   0  0  0  0  0  0  0  0  0  0  0  0
   44.0990   30.4690   42.3100 H   0  0  0  0  0  0  0  0  0  0  0  0
   45.8520   29.3370   42.0000 C   0  0  0  0  0  3  0  0  0  0  0  0
   46.9960   28.8460   42.5950 C   0  0  0  0  0  3  0  0  0  0  0  0
   48.3790   28.0850   46.0120 H   0  0  0  0  0  0  0  0  0  0  0  0
   48.7120   28.5040   44.7550 S   0  0  0  0  0  0  0  0  0  0  0  0
   49.2460   27.2860   44.0200 O   0  0  0  0  0  0  0  0  0  0  0  0
   49.8330   29.4940   44.7570 O   0  0  0  0  0  0  0  0  0  0  0  0
  1 12  1  0  0  0  0
  1  6  1  0  0  0  0
  2  1  2  0  0  0  0
  3  2  1  0  0  0  0
  3  4  2  0  0  0  0
  4  5  1  0  0  0  0
  5  6  2  0  0  0  0
  5  7  1  0  0  0  0
  7 11  1  0  0  0  0
  7  8  1  0  0  0  0
  8 15  1  0  0  0  0
  8  9  1  0  0  0  0
  9 16  1  0  0  0  0
  9 17  1  0  0  0  0
 10 19  1  0  0  0  0
 10 18  1  0  0  0  0
 10  9  1  0  0  0  0
 11 20  1  6  0  0  0
 11 10  1  0  0  0  0
 13  3  1  0  0  0  0
 14  8  1  0  0  0  0
 21  2  1  0  0  0  0
 22 21  1  0  0  0  0
 23 21  1  0  0  0  0
 24 11  1  0  0  0  0
 25 26  1  0  0  0  0
 25 34  1  0  0  0  0
 26 24  1  0  0  0  0
 27 28  1  0  0  0  0
 27 26  2  0  0  0  0
 29 27  1  0  0  0  0
 30 29  1  0  0  0  0
 31 32  1  0  0  0  0
 31 29  2  0  0  0  0
 32 25  2  0  0  0  0
 34 36  2  0  0  0  0
 34 33  1  0  0  0  0
 35 34  2  0  0  0  0
M  END
>  <minimizedAffinity>
-4.70687962

>  <minimizedRMSD>
0.802781701

$$$$
