
 OpenBabel03252508073D

 47 50  0  0  0  0  0  0  0  0999 V2000
   45.0380   35.4850   43.3850 C   0  0  0  0  0  0  0  0  0  0  0  0
   45.4780   34.1730   43.4170 C   0  0  0  0  0  0  0  0  0  0  0  0
   45.4770   33.4740   44.5990 C   0  0  0  0  0  0  0  0  0  0  0  0
   45.0200   34.1440   45.7170 N   0  0  0  0  0  0  0  0  0  0  0  0
   44.5980   35.4050   45.6820 C   0  0  0  0  0  0  0  0  0  0  0  0
   44.6130   36.0650   44.5050 N   0  0  0  0  0  0  0  0  0  0  0  0
   45.0240   36.0690   42.4710 H   0  0  0  0  0  0  0  0  0  0  0  0
   44.2450   35.9030   46.5800 H   0  0  0  0  0  0  0  0  0  0  0  0
   45.8920   32.1370   44.7970 C   0  0  0  0  0  0  0  0  0  0  0  0
   45.6050   31.0910   43.9150 C   0  0  0  0  0  0  0  0  0  0  0  0
   45.9480   29.7820   44.1370 C   0  0  0  0  0  0  0  0  0  0  0  0
   46.6160   29.4370   45.2900 C   0  0  0  0  0  0  0  0  0  0  0  0
   46.9150   30.4830   46.1920 C   0  0  0  0  0  0  0  0  0  0  0  0
   47.5780   30.1570   47.3510 C   0  0  0  0  0  0  0  0  0  0  0  0
   47.9030   31.1250   48.2800 C   0  0  0  0  0  0  0  0  0  0  0  0
   47.5490   32.4620   48.0310 C   0  0  0  0  0  0  0  0  0  0  0  0
   46.8710   32.7530   46.8340 C   0  0  0  0  0  0  0  0  0  0  0  0
   46.5610   31.7690   45.9350 C   0  0  0  0  0  0  0  0  0  0  0  0
   45.0780   31.3620   43.0050 H   0  0  0  0  0  0  0  0  0  0  0  0
   45.6960   29.0130   43.4110 H   0  0  0  0  0  0  0  0  0  0  0  0
   46.9140   28.4250   45.5290 H   0  0  0  0  0  0  0  0  0  0  0  0
   47.8440   29.1210   47.5250 H   0  0  0  0  0  0  0  0  0  0  0  0
   48.4240   30.7950   49.1710 H   0  0  0  0  0  0  0  0  0  0  0  0
   47.8430   33.1480   48.8070 H   0  0  0  0  0  0  0  0  0  0  0  0
   46.7120   33.8100   46.8170 H   0  0  0  0  0  0  0  0  0  0  0  0
   45.9010   33.6260   42.2350 O   0  0  0  0  0  0  0  0  0  0  0  0
   48.2170   32.5370   41.6870 O   0  0  0  0  0  0  0  0  0  0  0  0
   47.4560   33.8130   41.5920 P   0  0  1  0  0  0  0  0  0  0  0  0
   47.3840   34.2200   39.9480 O   0  0  0  0  0  0  0  0  0  0  0  0
   46.4860   32.6030   38.4840 C   0  0  0  0  0  0  0  0  0  0  0  0
   47.6080   33.2330   38.9970 C   0  0  0  0  0  0  0  0  0  0  0  0
   48.8540   32.8600   38.5510 C   0  0  0  0  0  0  0  0  0  0  0  0
   49.7170   33.3440   38.9450 H   0  0  0  0  0  0  0  0  0  0  0  0
   48.9840   31.8650   37.5990 C   0  0  0  0  0  0  0  0  0  0  0  0
   49.9810   31.5860   37.2620 H   0  0  0  0  0  0  0  0  0  0  0  0
   47.8780   31.2230   37.0740 C   0  0  0  0  0  3  0  0  0  0  0  0
   46.6300   31.6030   37.5270 C   0  0  0  0  0  3  0  0  0  0  0  0
   44.7510   34.1560   39.6130 H   0  0  0  0  0  0  0  0  0  0  0  0
   44.8390   32.9630   38.9480 S   0  0  0  0  0  0  0  0  0  0  0  0
   44.3170   31.8380   39.8200 O   0  0  0  0  0  0  0  0  0  0  0  0
   43.9520   33.0510   37.7400 O   0  0  0  0  0  0  0  0  0  0  0  0
   48.2270   35.0480   42.4230 O   0  0  0  0  0  0  0  0  0  0  0  0
   49.5190   35.5040   42.2190 C   0  0  0  0  0  0  0  0  0  0  0  0
   49.3880   36.5120   41.4990 O   0  0  0  0  0  0  0  0  0  0  0  0
   50.4730   34.6620   42.8960 N   0  0  0  0  0  0  0  0  0  0  0  0
   50.4640   34.7240   43.9580 H   0  0  0  0  0  0  0  0  0  0  0  0
   51.1760   33.9970   42.4900 H   0  0  0  0  0  0  0  0  0  0  0  0
  1  2  2  0  0  0  0
  1  6  1  0  0  0  0
  2  3  1  0  0  0  0
  3  9  1  0  0  0  0
  3  4  2  0  0  0  0
  5  4  1  0  0  0  0
  5  8  1  0  0  0  0
  6  5  2  0  0  0  0
  7  1  1  0  0  0  0
  9 18  1  0  0  0  0
 10 11  1  0  0  0  0
 10  9  2  0  0  0  0
 11 12  2  0  0  0  0
 12 21  1  0  0  0  0
 12 13  1  0  0  0  0
 13 14  1  0  0  0  0
 14 22  1  0  0  0  0
 14 15  2  0  0  0  0
 15 23  1  0  0  0  0
 16 15  1  0  0  0  0
 16 24  1  0  0  0  0
 17 16  2  0  0  0  0
 18 13  2  0  0  0  0
 18 17  1  0  0  0  0
 19 10  1  0  0  0  0
 20 11  1  0  0  0  0
 25 17  1  0  0  0  0
 26  2  1  0  0  0  0
 28 27  2  1  0  0  0
 28 26  1  0  0  0  0
 28 42  1  0  0  0  0
 29 28  1  0  0  0  0
 30 39  1  0  0  0  0
 30 31  1  0  0  0  0
 31 29  1  0  0  0  0
 32 33  1  0  0  0  0
 32 31  2  0  0  0  0
 34 32  1  0  0  0  0
 35 34  1  0  0  0  0
 36 37  1  0  0  0  0
 36 34  2  0  0  0  0
 37 30  2  0  0  0  0
 39 38  1  0  0  0  0
 39 40  2  0  0  0  0
 41 39  2  0  0  0  0
 43 42  1  0  0  0  0
 43 45  1  0  0  0  0
 44 43  2  0  0  0  0
 45 46  1  0  0  0  0
 47 45  1  0  0  0  0
M  END
>  <minimizedAffinity>
-6.13157654

>  <minimizedRMSD>
1.49681783

$$$$
