
 OpenBabel03252506123D

 39 41  0  0  0  0  0  0  0  0999 V2000
   45.1220   33.5210   41.1420 F   0  0  0  0  0  0  0  0  0  0  0  0
   46.3170   34.1000   41.0290 C   0  0  0  0  0  0  0  0  0  0  0  0
   46.8340   34.8100   42.1100 C   0  0  0  0  0  0  0  0  0  0  0  0
   48.0720   35.4420   42.0790 C   0  0  0  0  0  0  0  0  0  0  0  0
   48.8440   35.3730   40.9190 C   0  0  0  0  0  0  0  0  0  0  0  0
   48.2960   34.6580   39.8650 C   0  0  0  0  0  0  0  0  0  0  0  0
   47.0870   34.0350   39.8810 C   0  0  0  0  0  0  0  0  0  0  0  0
   48.4100   35.9810   42.9710 H   0  0  0  0  0  0  0  0  0  0  0  0
   49.7770   35.8760   40.9600 H   0  0  0  0  0  0  0  0  0  0  0  0
   48.9990   34.6810   39.0400 H   0  0  0  0  0  0  0  0  0  0  0  0
   45.4610   34.0110   45.4180 C   0  0  0  0  0  0  0  0  0  0  0  0
   44.6170   35.1090   45.6570 C   0  0  0  0  0  0  0  0  0  0  0  0
   44.5210   36.1230   44.6770 C   0  0  0  0  0  0  0  0  0  0  0  0
   45.2710   35.9640   43.5430 N   0  0  0  0  0  0  0  0  0  0  0  0
   46.0620   34.9090   43.3500 C   0  0  0  0  0  0  0  0  0  0  0  0
   46.1530   33.9430   44.2820 N   0  0  0  0  0  0  0  0  0  0  0  0
   44.0260   35.2310   46.5510 H   0  0  0  0  0  0  0  0  0  0  0  0
   43.8860   36.9870   44.8150 H   0  0  0  0  0  0  0  0  0  0  0  0
   45.5480   32.9990   46.4070 N   0  0  0  0  0  0  0  0  0  0  0  0
   44.8350   32.2690   46.7010 H   0  0  0  0  0  0  0  0  0  0  0  0
   46.4300   32.9180   46.9550 H   0  0  0  0  0  0  0  0  0  0  0  0
   46.6480   33.3580   38.7770 O   0  0  0  0  0  0  0  0  0  0  0  0
   48.0810   34.6710   36.9780 O   0  0  0  0  0  0  0  0  0  0  0  0
   47.3260   33.3860   37.2410 P   0  0  2  0  0  0  0  0  0  0  0  0
   46.0660   33.2080   36.0960 O   0  0  0  0  0  0  0  0  0  0  0  0
   46.1810   33.8580   35.3610 H   0  0  0  0  0  0  0  0  0  0  0  0
   48.3700   32.0920   36.9390 O   0  0  0  0  0  0  0  0  0  0  0  0
   49.1460   30.3820   38.2910 C   0  0  0  0  0  0  0  0  0  0  0  0
   48.2120   30.7930   37.3350 C   0  0  0  0  0  0  0  0  0  0  0  0
   47.2850   29.8590   36.9350 C   0  0  0  0  0  0  0  0  0  0  0  0
   46.5860   30.2240   36.1970 H   0  0  0  0  0  0  0  0  0  0  0  0
   47.2660   28.5800   37.4400 C   0  0  0  0  0  0  0  0  0  0  0  0
   46.5250   27.8740   37.1020 H   0  0  0  0  0  0  0  0  0  0  0  0
   48.1830   28.1560   38.3860 C   0  0  0  0  0  3  0  0  0  0  0  0
   49.1110   29.0950   38.7860 C   0  0  0  0  0  3  0  0  0  0  0  0
   50.3870   32.5910   38.1690 H   0  0  0  0  0  0  0  0  0  0  0  0
   50.4040   31.4590   38.9140 S   0  0  0  0  0  0  0  0  0  0  0  0
   50.1000   31.7530   40.3760 O   0  0  0  0  0  0  0  0  0  0  0  0
   51.7130   30.7410   38.8990 O   0  0  0  0  0  0  0  0  0  0  0  0
  2  1  1  0  0  0  0
  2  3  1  0  0  0  0
  3 15  1  0  0  0  0
  4  3  2  0  0  0  0
  4  8  1  0  0  0  0
  5  9  1  0  0  0  0
  5  4  1  0  0  0  0
  6  7  1  0  0  0  0
  6  5  2  0  0  0  0
  7  2  2  0  0  0  0
 10  6  1  0  0  0  0
 11 12  1  0  0  0  0
 11 19  1  0  0  0  0
 12 17  1  0  0  0  0
 13 18  1  0  0  0  0
 13 12  2  0  0  0  0
 14 13  1  0  0  0  0
 15 14  2  0  0  0  0
 15 16  1  0  0  0  0
 16 11  2  0  0  0  0
 19 20  1  0  0  0  0
 19 21  1  0  0  0  0
 22  7  1  0  0  0  0
 24 23  2  6  0  0  0
 24 22  1  0  0  0  0
 25 24  1  0  0  0  0
 26 25  1  0  0  0  0
 27 24  1  0  0  0  0
 27 29  1  0  0  0  0
 28 35  1  0  0  0  0
 28 37  1  0  0  0  0
 29 28  2  0  0  0  0
 30 29  1  0  0  0  0
 30 32  2  0  0  0  0
 31 30  1  0  0  0  0
 32 34  1  0  0  0  0
 33 32  1  0  0  0  0
 34 35  2  0  0  0  0
 36 37  1  0  0  0  0
 37 38  2  0  0  0  0
 39 37  2  0  0  0  0
M  END
>  <minimizedAffinity>
-5.85374832

>  <minimizedRMSD>
0.951776862

$$$$
