
 OpenBabel03252506343D

 36 38  0  0  1  0  0  0  0  0999 V2000
   44.4610   35.7320   44.9590 C   0  0  0  0  0  0  0  0  0  0  0  0
   45.1410   35.7280   43.7310 C   0  0  0  0  0  0  0  0  0  0  0  0
   46.0770   34.7680   43.5070 C   0  0  0  0  0  0  0  0  0  0  0  0
   46.2880   33.8770   44.4980 N   0  0  0  0  0  0  0  0  0  0  0  0
   45.6460   33.8810   45.6620 C   0  0  0  0  0  0  0  0  0  0  0  0
   44.7120   34.8080   45.9280 N   0  0  0  0  0  0  0  0  0  0  0  0
   45.9670   32.8840   46.6210 N   0  0  0  0  0  0  0  0  0  0  0  0
   45.1530   32.5630   47.7910 C   0  0  0  0  0  0  0  0  0  0  0  0
   46.2340   32.2930   48.8310 C   0  0  0  0  0  0  0  0  0  0  0  0
   47.5450   32.1870   48.0980 C   0  0  0  0  0  0  0  0  0  0  0  0
   47.1140   32.0050   46.6600 C   0  0  1  0  0  0  0  0  0  0  0  0
   43.6950   36.4700   45.2140 H   0  0  0  0  0  0  0  0  0  0  0  0
   46.5680   34.7950   42.5700 H   0  0  0  0  0  0  0  0  0  0  0  0
   44.5030   31.6910   47.6220 H   0  0  0  0  0  0  0  0  0  0  0  0
   44.5800   33.4290   48.1520 H   0  0  0  0  0  0  0  0  0  0  0  0
   45.9950   31.3180   49.2970 H   0  0  0  0  0  0  0  0  0  0  0  0
   46.2270   33.0370   49.6420 H   0  0  0  0  0  0  0  0  0  0  0  0
   48.1580   31.3240   48.4590 H   0  0  0  0  0  0  0  0  0  0  0  0
   48.0710   33.1530   48.2210 H   0  0  0  0  0  0  0  0  0  0  0  0
   47.9420   32.3500   46.0310 H   0  0  0  0  0  0  0  0  0  0  0  0
   44.7400   36.7810   42.8480 N   0  0  0  0  0  0  0  0  0  0  0  0
   43.7990   36.9920   42.4840 H   0  0  0  0  0  0  0  0  0  0  0  0
   45.6550   37.2750   42.6720 H   0  0  0  0  0  0  0  0  0  0  0  0
   46.6530   30.2790   46.4260 S   0  0  0  0  0  0  0  0  0  0  0  0
   46.7050   29.6520   43.6600 C   0  0  0  0  0  0  0  0  0  0  0  0
   47.2930   29.6070   44.9040 C   0  0  0  0  0  0  0  0  0  0  0  0
   48.5310   28.9760   45.0560 C   0  0  0  0  0  0  0  0  0  0  0  0
   49.0690   28.8930   46.0000 H   0  0  0  0  0  0  0  0  0  0  0  0
   49.1450   28.4100   43.9540 C   0  0  0  0  0  0  0  0  0  0  0  0
   50.1030   27.9190   44.0540 H   0  0  0  0  0  0  0  0  0  0  0  0
   48.5680   28.4490   42.7070 C   0  0  0  0  0  3  0  0  0  0  0  0
   47.3460   29.0760   42.5800 C   0  0  0  0  0  3  0  0  0  0  0  0
   45.0110   31.2770   44.6810 H   0  0  0  0  0  0  0  0  0  0  0  0
   45.1600   30.4650   43.5930 S   0  0  0  0  0  0  0  0  0  0  0  0
   45.1360   31.3700   42.3710 O   0  0  0  0  0  0  0  0  0  0  0  0
   44.0130   29.5230   43.4160 O   0  0  0  0  0  0  0  0  0  0  0  0
  1 12  1  0  0  0  0
  1  6  1  0  0  0  0
  2  1  2  0  0  0  0
  3  2  1  0  0  0  0
  3  4  2  0  0  0  0
  4  5  1  0  0  0  0
  5  6  2  0  0  0  0
  5  7  1  0  0  0  0
  7 11  1  0  0  0  0
  7  8  1  0  0  0  0
  8 15  1  0  0  0  0
  8  9  1  0  0  0  0
  9 16  1  0  0  0  0
  9 17  1  0  0  0  0
 10 19  1  0  0  0  0
 10 18  1  0  0  0  0
 10  9  1  0  0  0  0
 11 20  1  6  0  0  0
 11 10  1  0  0  0  0
 13  3  1  0  0  0  0
 14  8  1  0  0  0  0
 21  2  1  0  0  0  0
 22 21  1  0  0  0  0
 23 21  1  0  0  0  0
 24 11  1  0  0  0  0
 25 26  1  0  0  0  0
 26 27  2  0  0  0  0
 26 24  1  0  0  0  0
 27 28  1  0  0  0  0
 29 30  1  0  0  0  0
 29 27  1  0  0  0  0
 31 29  2  0  0  0  0
 32 31  1  0  0  0  0
 32 25  2  0  0  0  0
 34 25  1  0  0  0  0
 34 33  1  0  0  0  0
 35 34  2  0  0  0  0
 36 34  2  0  0  0  0
M  END
>  <minimizedAffinity>
-4.78932047

>  <minimizedRMSD>
1.88412142

$$$$
