
 OpenBabel03252507283D

 46 49  0  0  1  0  0  0  0  0999 V2000
   47.0270   29.4070   46.7570 C   0  0  2  0  0  0  0  0  0  0  0  0
   47.6090   29.2950   45.4110 C   0  0  0  0  0  0  0  0  0  0  0  0
   48.4010   28.0410   45.2640 C   0  0  0  0  0  0  0  0  0  0  0  0
   47.9750   26.8430   46.0310 C   0  0  0  0  0  0  0  0  0  0  0  0
   47.3550   27.1030   47.3680 C   0  0  0  0  0  0  0  0  0  0  0  0
   46.3400   28.2240   47.2200 C   0  0  2  0  0  0  0  0  0  0  0  0
   47.9660   29.4540   47.4260 H   0  0  0  0  0  0  0  0  0  0  0  0
   48.3930   30.1320   45.3700 H   0  0  0  0  0  0  0  0  0  0  0  0
   46.9930   29.5990   44.5520 H   0  0  0  0  0  0  0  0  0  0  0  0
   49.4980   28.2030   45.3780 H   0  0  0  0  0  0  0  0  0  0  0  0
   48.3110   27.7520   44.1720 H   0  0  0  0  0  0  0  0  0  0  0  0
   48.8820   26.2340   46.2520 H   0  0  0  0  0  0  0  0  0  0  0  0
   47.3470   26.1330   45.4340 H   0  0  0  0  0  0  0  0  0  0  0  0
   48.0820   27.3040   48.1650 H   0  0  0  0  0  0  0  0  0  0  0  0
   46.7970   26.1890   47.6560 H   0  0  0  0  0  0  0  0  0  0  0  0
   46.1490   28.4730   48.3260 H   0  0  0  0  0  0  0  0  0  0  0  0
   46.3860   30.6800   47.0690 C   0  0  0  0  0  0  0  0  0  0  0  0
   45.9160   30.8590   48.3530 C   0  0  0  0  0  0  0  0  0  0  0  0
   45.3040   32.0960   48.6520 C   0  0  0  0  0  0  0  0  0  0  0  0
   45.2190   33.0380   47.6490 N   0  0  0  0  0  0  0  0  0  0  0  0
   45.6990   32.7880   46.4330 C   0  0  0  0  0  0  0  0  0  0  0  0
   46.2730   31.6340   46.1400 N   0  0  0  0  0  0  0  0  0  0  0  0
   45.9110   30.2520   49.1970 H   0  0  0  0  0  0  0  0  0  0  0  0
   44.8970   32.3720   49.6010 H   0  0  0  0  0  0  0  0  0  0  0  0
   45.5710   33.8340   45.4050 C   0  0  0  0  0  0  0  0  0  0  0  0
   44.7890   34.9270   45.5950 C   0  0  0  0  0  0  0  0  0  0  0  0
   44.6250   35.9420   44.6720 C   0  0  0  0  0  0  0  0  0  0  0  0
   45.3270   35.7830   43.4950 C   0  0  0  0  0  0  0  0  0  0  0  0
   46.1270   34.6820   43.2800 C   0  0  0  0  0  0  0  0  0  0  0  0
   46.2550   33.7010   44.2310 N   0  0  0  0  0  0  0  0  0  0  0  0
   44.2670   34.9710   46.5590 H   0  0  0  0  0  0  0  0  0  0  0  0
   43.9970   36.7890   44.8630 H   0  0  0  0  0  0  0  0  0  0  0  0
   45.2550   36.5340   42.7150 H   0  0  0  0  0  0  0  0  0  0  0  0
   46.6820   34.5500   42.3580 H   0  0  0  0  0  0  0  0  0  0  0  0
   44.3020   26.8130   47.5000 C   0  0  0  0  0  0  0  0  0  0  0  0
   45.1280   27.6540   46.7480 C   0  0  0  0  0  0  0  0  0  0  0  0
   44.6130   27.8890   45.4930 C   0  0  0  0  0  0  0  0  0  0  0  0
   45.1100   28.5080   44.7620 H   0  0  0  0  0  0  0  0  0  0  0  0
   43.4360   27.3910   44.9790 C   0  0  0  0  0  0  0  0  0  0  0  0
   43.0470   27.5870   43.9910 H   0  0  0  0  0  0  0  0  0  0  0  0
   42.6660   26.5690   45.7740 C   0  0  0  0  0  3  0  0  0  0  0  0
   43.1150   26.2840   47.0430 C   0  0  0  0  0  3  0  0  0  0  0  0
   45.6770   27.0900   49.7120 H   0  0  0  0  0  0  0  0  0  0  0  0
   44.7510   26.3170   49.1170 S   0  0  0  0  0  0  0  0  0  0  0  0
   43.5650   26.1530   50.0250 O   0  0  0  0  0  0  0  0  0  0  0  0
   45.3790   24.9290   48.9950 O   0  0  0  0  0  0  0  0  0  0  0  0
  1 17  1  0  0  0  0
  1  6  1  0  0  0  0
  1  7  1  1  0  0  0
  2  1  1  0  0  0  0
  3 10  1  0  0  0  0
  3  2  1  0  0  0  0
  3  4  1  0  0  0  0
  4 12  1  0  0  0  0
  4  5  1  0  0  0  0
  5 15  1  0  0  0  0
  5 14  1  0  0  0  0
  6  5  1  0  0  0  0
  6 16  1  1  0  0  0
  8  2  1  0  0  0  0
  9  2  1  0  0  0  0
 11  3  1  0  0  0  0
 13  4  1  0  0  0  0
 17 18  1  0  0  0  0
 18 19  2  0  0  0  0
 18 23  1  0  0  0  0
 19 24  1  0  0  0  0
 20 19  1  0  0  0  0
 21 20  2  0  0  0  0
 22 21  1  0  0  0  0
 22 17  2  0  0  0  0
 25 26  1  0  0  0  0
 25 21  1  0  0  0  0
 26 31  1  0  0  0  0
 27 32  1  0  0  0  0
 27 26  2  0  0  0  0
 28 27  1  0  0  0  0
 29 28  2  0  0  0  0
 29 30  1  0  0  0  0
 30 25  2  0  0  0  0
 33 28  1  0  0  0  0
 34 29  1  0  0  0  0
 35 44  1  0  0  0  0
 36  6  1  0  0  0  0
 36 35  2  0  0  0  0
 37 36  1  0  0  0  0
 38 37  1  0  0  0  0
 39 37  2  0  0  0  0
 39 41  1  0  0  0  0
 40 39  1  0  0  0  0
 41 42  2  0  0  0  0
 42 35  1  0  0  0  0
 44 43  1  0  0  0  0
 44 45  2  0  0  0  0
 46 44  2  0  0  0  0
M  END
>  <minimizedAffinity>
-5.6248107

>  <minimizedRMSD>
4.86781693

$$$$
