
 OpenBabel03252502503D

 37 39  0  0  0  0  0  0  0  0999 V2000
   44.6920   35.8150   43.4490 C   0  0  0  0  0  0  0  0  0  0  0  0
   45.0600   35.0650   44.5710 C   0  0  0  0  0  0  0  0  0  0  0  0
   45.9440   34.0130   44.3760 C   0  0  0  0  0  0  0  0  0  0  0  0
   46.4070   33.7600   43.1250 N   0  0  0  0  0  0  0  0  0  0  0  0
   46.0280   34.5120   42.0550 C   0  0  0  0  0  0  0  0  0  0  0  0
   45.1750   35.5310   42.2240 N   0  0  0  0  0  0  0  0  0  0  0  0
   44.0110   36.6530   43.4930 H   0  0  0  0  0  0  0  0  0  0  0  0
   44.6340   35.3560   45.4990 H   0  0  0  0  0  0  0  0  0  0  0  0
   48.7140   35.6500   41.4610 Cl  0  0  0  0  0  0  0  0  0  0  0  0
   47.7920   34.6510   40.3590 C   0  0  0  0  0  0  0  0  0  0  0  0
   46.5670   34.1820   40.7370 C   0  0  0  0  0  0  0  0  0  0  0  0
   45.8020   33.3790   39.8750 C   0  0  0  0  0  0  0  0  0  0  0  0
   46.3580   33.1030   38.6540 C   0  0  0  0  0  0  0  0  0  0  0  0
   47.5740   33.5690   38.2790 C   0  0  0  0  0  0  0  0  0  0  0  0
   48.3090   34.3460   39.1170 C   0  0  0  0  0  0  0  0  0  0  0  0
   44.8180   33.0120   40.2000 H   0  0  0  0  0  0  0  0  0  0  0  0
   45.7130   32.4740   38.0320 H   0  0  0  0  0  0  0  0  0  0  0  0
   47.8870   33.2730   37.2880 H   0  0  0  0  0  0  0  0  0  0  0  0
   49.2670   34.6870   38.7680 H   0  0  0  0  0  0  0  0  0  0  0  0
   46.3360   33.2150   45.5710 C   0  0  0  0  0  0  0  0  0  0  0  0
   45.8780   33.7040   46.4290 H   0  0  0  0  0  0  0  0  0  0  0  0
   47.4380   33.2380   45.6290 H   0  0  0  0  0  0  0  0  0  0  0  0
   45.9300   31.7540   45.4470 C   0  0  0  0  0  0  0  0  0  0  0  0
   44.9860   31.6810   46.0580 H   0  0  0  0  0  0  0  0  0  0  0  0
   45.6710   31.4900   44.4060 H   0  0  0  0  0  0  0  0  0  0  0  0
   46.6910   30.5660   47.4200 C   0  0  0  0  0  0  0  0  0  0  0  0
   46.8940   30.8470   46.0870 C   0  0  0  0  0  0  0  0  0  0  0  0
   47.9740   30.2820   45.4000 C   0  0  0  0  0  0  0  0  0  0  0  0
   48.0860   30.5360   44.3570 H   0  0  0  0  0  0  0  0  0  0  0  0
   48.8610   29.4280   46.0500 C   0  0  0  0  0  0  0  0  0  0  0  0
   49.7030   28.9920   45.5020 H   0  0  0  0  0  0  0  0  0  0  0  0
   48.6400   29.1540   47.3990 C   0  0  0  0  0  3  0  0  0  0  0  0
   47.5760   29.7120   48.0700 C   0  0  0  0  0  3  0  0  0  0  0  0
   44.3010   31.5630   47.6510 H   0  0  0  0  0  0  0  0  0  0  0  0
   45.3960   31.1990   48.3790 S   0  0  0  0  0  0  0  0  0  0  0  0
   44.9320   30.1270   49.3410 O   0  0  0  0  0  0  0  0  0  0  0  0
   45.8980   32.3570   49.1760 O   0  0  0  0  0  0  0  0  0  0  0  0
  1  7  1  0  0  0  0
  1  2  1  0  0  0  0
  2  8  1  0  0  0  0
  3  2  2  0  0  0  0
  3 20  1  0  0  0  0
  4  3  1  0  0  0  0
  5  6  1  0  0  0  0
  5  4  2  0  0  0  0
  6  1  2  0  0  0  0
 10 11  1  0  0  0  0
 10  9  1  0  0  0  0
 11  5  1  0  0  0  0
 12 16  1  0  0  0  0
 12 11  2  0  0  0  0
 13 12  1  0  0  0  0
 14 13  2  0  0  0  0
 14 15  1  0  0  0  0
 15 10  2  0  0  0  0
 17 13  1  0  0  0  0
 18 14  1  0  0  0  0
 19 15  1  0  0  0  0
 20 22  1  0  0  0  0
 20 21  1  0  0  0  0
 23 20  1  0  0  0  0
 23 24  1  0  0  0  0
 23 27  1  0  0  0  0
 25 23  1  0  0  0  0
 26 33  1  0  0  0  0
 26 35  1  0  0  0  0
 27 26  2  0  0  0  0
 28 30  2  0  0  0  0
 28 27  1  0  0  0  0
 29 28  1  0  0  0  0
 30 32  1  0  0  0  0
 31 30  1  0  0  0  0
 32 33  2  0  0  0  0
 34 35  1  0  0  0  0
 35 37  2  0  0  0  0
 35 36  2  0  0  0  0
M  END
>  <minimizedAffinity>
-5.6499052

>  <minimizedRMSD>
1.32989669

$$$$
