
 OpenBabel03252506443D

 43 46  0  0  1  0  0  0  0  0999 V2000
   37.0070   29.6800   40.5970 N   0  0  1  0  0  0  0  0  0  0  0  0
   37.2240   31.0580   40.9140 C   0  0  0  0  0  0  0  0  0  0  0  0
   36.9380   32.0250   39.8270 C   0  0  0  0  0  0  0  0  0  0  0  0
   37.8530   31.7810   38.6660 C   0  0  0  0  0  0  0  0  0  0  0  0
   38.1570   30.3300   38.5400 C   0  0  0  0  0  0  0  0  0  0  0  0
   37.1400   29.4670   39.1660 C   0  0  2  0  0  0  0  0  0  0  0  0
   38.3030   31.2110   41.2000 H   0  0  0  0  0  0  0  0  0  0  0  0
   36.6150   31.3910   41.8050 H   0  0  0  0  0  0  0  0  0  0  0  0
   35.9020   32.2080   39.5600 H   0  0  0  0  0  0  0  0  0  0  0  0
   37.2780   33.0360   40.2440 H   0  0  0  0  0  0  0  0  0  0  0  0
   37.4090   32.1990   37.7150 H   0  0  0  0  0  0  0  0  0  0  0  0
   38.8090   32.3320   38.7980 H   0  0  0  0  0  0  0  0  0  0  0  0
   38.3140   30.1330   37.4920 H   0  0  0  0  0  0  0  0  0  0  0  0
   39.1370   30.0960   39.0450 H   0  0  0  0  0  0  0  0  0  0  0  0
   37.6350   28.4370   39.1830 H   0  0  0  0  0  0  0  0  0  0  0  0
   35.9210   28.8920   37.1120 C   0  0  0  0  0  0  0  0  0  0  0  0
   35.8750   29.2300   38.4760 C   0  0  0  0  0  0  0  0  0  0  0  0
   34.6010   29.2880   39.0630 C   0  0  0  0  0  0  0  0  0  0  0  0
   34.5280   29.5310   40.1140 H   0  0  0  0  0  0  0  0  0  0  0  0
   33.4250   29.0480   38.4320 C   0  0  0  0  0  0  0  0  0  0  0  0
   32.4750   29.1110   38.9470 H   0  0  0  0  0  0  0  0  0  0  0  0
   33.4450   28.7180   37.1050 C   0  0  0  0  0  3  0  0  0  0  0  0
   34.6820   28.6520   36.4940 C   0  0  0  0  0  3  0  0  0  0  0  0
   38.2160   29.8330   36.3020 H   0  0  0  0  0  0  0  0  0  0  0  0
   37.3410   28.7570   36.1570 S   0  0  0  0  0  0  0  0  0  0  0  0
   38.0470   27.4610   36.1640 O   0  0  0  0  0  0  0  0  0  0  0  0
   36.9490   28.9120   34.6820 O   0  0  0  0  0  0  0  0  0  0  0  0
   37.4450   27.9740   42.4710 C   0  0  1  0  0  0  0  0  0  0  0  0
   37.9440   29.2800   42.8440 C   0  0  0  0  0  0  0  0  0  0  0  0
   37.9400   28.9290   41.3930 C   0  0  2  0  0  0  0  0  0  0  0  0
   36.3480   27.7770   42.3610 H   0  0  0  0  0  0  0  0  0  0  0  0
   38.9430   29.3050   43.3650 H   0  0  0  0  0  0  0  0  0  0  0  0
   37.2940   30.0820   43.2190 H   0  0  0  0  0  0  0  0  0  0  0  0
   38.9070   28.6920   40.9150 H   0  0  0  0  0  0  0  0  0  0  0  0
   37.8610   25.5120   42.0950 C   0  0  0  0  0  0  0  0  0  0  0  0
   38.2360   26.7400   42.7080 C   0  0  0  0  0  0  0  0  0  0  0  0
   39.3510   26.7250   43.5240 C   0  0  0  0  0  0  0  0  0  0  0  0
   40.0050   25.5430   43.6780 N   0  0  0  0  0  0  0  0  0  0  0  0
   39.6290   24.3950   43.0850 C   0  0  0  0  0  0  0  0  0  0  0  0
   38.5370   24.3670   42.2750 N   0  0  0  0  0  0  0  0  0  0  0  0
   36.9750   25.5900   41.4650 H   0  0  0  0  0  0  0  0  0  0  0  0
   39.6840   27.6270   44.0180 H   0  0  0  0  0  0  0  0  0  0  0  0
   40.1900   23.4830   43.2460 H   0  0  0  0  0  0  0  0  0  0  0  0
  1  2  1  6  0  0  0
  1 30  1  0  0  0  0
  2  7  1  0  0  0  0
  2  8  1  0  0  0  0
  3 10  1  0  0  0  0
  3  2  1  0  0  0  0
  4 12  1  0  0  0  0
  4  3  1  0  0  0  0
  5  4  1  0  0  0  0
  5 14  1  0  0  0  0
  5  6  1  0  0  0  0
  6 15  1  6  0  0  0
  6  1  1  0  0  0  0
  9  3  1  0  0  0  0
 11  4  1  0  0  0  0
 13  5  1  0  0  0  0
 16 17  1  0  0  0  0
 17 18  2  0  0  0  0
 17  6  1  0  0  0  0
 18 19  1  0  0  0  0
 20 21  1  0  0  0  0
 20 18  1  0  0  0  0
 22 20  2  0  0  0  0
 23 22  1  0  0  0  0
 23 16  2  0  0  0  0
 25 26  2  0  0  0  0
 25 24  1  0  0  0  0
 25 16  1  0  0  0  0
 27 25  2  0  0  0  0
 28 31  1  1  0  0  0
 28 36  1  0  0  0  0
 28 29  1  0  0  0  0
 29 33  1  0  0  0  0
 29 32  1  0  0  0  0
 30 34  1  6  0  0  0
 30 28  1  0  0  0  0
 30 29  1  0  0  0  0
 35 40  2  0  0  0  0
 35 36  1  0  0  0  0
 36 37  2  0  0  0  0
 37 38  1  0  0  0  0
 37 42  1  0  0  0  0
 39 43  1  0  0  0  0
 39 38  2  0  0  0  0
 40 39  1  0  0  0  0
 41 35  1  0  0  0  0
M  END
>  <minimizedAffinity>
-5.7393136

$$$$

 OpenBabel03252506443D

 43 46  0  0  1  0  0  0  0  0999 V2000
   37.4280   28.1890   38.4800 N   0  0  1  0  0  0  0  0  0  0  0  0
   37.3890   27.7110   37.1330 C   0  0  0  0  0  0  0  0  0  0  0  0
   37.8220   26.3070   36.9320 C   0  0  0  0  0  0  0  0  0  0  0  0
   39.2600   26.1500   37.3220 C   0  0  0  0  0  0  0  0  0  0  0  0
   39.5930   27.0550   38.4550 C   0  0  0  0  0  0  0  0  0  0  0  0
   38.4150   27.4500   39.2470 C   0  0  2  0  0  0  0  0  0  0  0  0
   38.0620   28.3460   36.4910 H   0  0  0  0  0  0  0  0  0  0  0  0
   36.3570   27.7930   36.6810 H   0  0  0  0  0  0  0  0  0  0  0  0
   37.1690   25.5120   37.2760 H   0  0  0  0  0  0  0  0  0  0  0  0
   37.8230   26.1660   35.7950 H   0  0  0  0  0  0  0  0  0  0  0  0
   39.4910   25.0720   37.5650 H   0  0  0  0  0  0  0  0  0  0  0  0
   39.9270   26.3960   36.4670 H   0  0  0  0  0  0  0  0  0  0  0  0
   40.3640   26.5670   39.0280 H   0  0  0  0  0  0  0  0  0  0  0  0
   40.0570   28.0050   38.0670 H   0  0  0  0  0  0  0  0  0  0  0  0
   38.8060   28.3010   39.9040 H   0  0  0  0  0  0  0  0  0  0  0  0
   37.8170   26.8830   41.5620 C   0  0  0  0  0  0  0  0  0  0  0  0
   37.8460   26.5080   40.2070 C   0  0  0  0  0  0  0  0  0  0  0  0
   37.2970   25.2540   39.8940 C   0  0  0  0  0  0  0  0  0  0  0  0
   37.2900   24.9380   38.8590 H   0  0  0  0  0  0  0  0  0  0  0  0
   36.7480   24.3850   40.7770 C   0  0  0  0  0  0  0  0  0  0  0  0
   36.3420   23.4310   40.4660 H   0  0  0  0  0  0  0  0  0  0  0  0
   36.7090   24.7280   42.1010 C   0  0  0  0  0  3  0  0  0  0  0  0
   37.2400   25.9560   42.4460 C   0  0  0  0  0  3  0  0  0  0  0  0
   39.2350   29.0600   41.3280 H   0  0  0  0  0  0  0  0  0  0  0  0
   38.4200   28.3520   42.2110 S   0  0  0  0  0  0  0  0  0  0  0  0
   37.4660   29.2320   42.9130 O   0  0  0  0  0  0  0  0  0  0  0  0
   39.4320   28.0150   43.3150 O   0  0  0  0  0  0  0  0  0  0  0  0
   36.8490   30.5850   39.2160 C   0  0  1  0  0  0  0  0  0  0  0  0
   36.5690   30.4030   37.8080 C   0  0  0  0  0  0  0  0  0  0  0  0
   37.6810   29.6030   38.4020 C   0  0  2  0  0  0  0  0  0  0  0  0
   36.2570   30.0540   40.0040 H   0  0  0  0  0  0  0  0  0  0  0  0
   36.8530   31.2530   37.1260 H   0  0  0  0  0  0  0  0  0  0  0  0
   35.6640   29.8990   37.4400 H   0  0  0  0  0  0  0  0  0  0  0  0
   38.7170   29.8980   38.1600 H   0  0  0  0  0  0  0  0  0  0  0  0
   38.5880   31.6970   40.6690 C   0  0  0  0  0  0  0  0  0  0  0  0
   37.5300   31.8020   39.7230 C   0  0  0  0  0  0  0  0  0  0  0  0
   37.1730   33.0730   39.3130 C   0  0  0  0  0  0  0  0  0  0  0  0
   37.8570   34.1220   39.8390 N   0  0  0  0  0  0  0  0  0  0  0  0
   38.8550   33.9950   40.7330 C   0  0  0  0  0  0  0  0  0  0  0  0
   39.2370   32.7630   41.1640 N   0  0  0  0  0  0  0  0  0  0  0  0
   38.8220   30.6720   40.9530 H   0  0  0  0  0  0  0  0  0  0  0  0
   36.3770   33.2150   38.5960 H   0  0  0  0  0  0  0  0  0  0  0  0
   39.3640   34.8700   41.1180 H   0  0  0  0  0  0  0  0  0  0  0  0
  1  2  1  6  0  0  0
  1  6  1  0  0  0  0
  3  2  1  0  0  0  0
  3  9  1  0  0  0  0
  3  4  1  0  0  0  0
  4 11  1  0  0  0  0
  4  5  1  0  0  0  0
  5 13  1  0  0  0  0
  5  6  1  0  0  0  0
  6 15  1  1  0  0  0
  6 17  1  0  0  0  0
  7  2  1  0  0  0  0
  8  2  1  0  0  0  0
 10  3  1  0  0  0  0
 12  4  1  0  0  0  0
 14  5  1  0  0  0  0
 16 25  1  0  0  0  0
 16 23  1  0  0  0  0
 17 16  2  0  0  0  0
 18 17  1  0  0  0  0
 18 20  2  0  0  0  0
 19 18  1  0  0  0  0
 20 22  1  0  0  0  0
 21 20  1  0  0  0  0
 22 23  2  0  0  0  0
 24 25  1  0  0  0  0
 25 26  2  0  0  0  0
 25 27  2  0  0  0  0
 28 36  1  0  0  0  0
 28 31  1  1  0  0  0
 29 30  1  0  0  0  0
 29 28  1  0  0  0  0
 30 34  1  6  0  0  0
 30  1  1  0  0  0  0
 30 28  1  0  0  0  0
 32 29  1  0  0  0  0
 33 29  1  0  0  0  0
 35 41  1  0  0  0  0
 35 40  1  0  0  0  0
 36 35  2  0  0  0  0
 37 36  1  0  0  0  0
 37 38  2  0  0  0  0
 38 39  1  0  0  0  0
 39 43  1  0  0  0  0
 39 40  2  0  0  0  0
 42 37  1  0  0  0  0
M  END
>  <minimizedAffinity>
-5.33021259

$$$$

 OpenBabel03252506443D

 43 46  0  0  1  0  0  0  0  0999 V2000
   39.3310   29.7350   41.8890 N   0  0  1  0  0  0  0  0  0  0  0  0
   40.4680   29.9410   42.7310 C   0  0  0  0  0  0  0  0  0  0  0  0
   41.3630   31.0600   42.3480 C   0  0  0  0  0  0  0  0  0  0  0  0
   41.9630   30.8020   40.9990 C   0  0  0  0  0  0  0  0  0  0  0  0
   41.0010   30.0650   40.1350 C   0  0  0  0  0  0  0  0  0  0  0  0
   39.5980   30.2350   40.5520 C   0  0  2  0  0  0  0  0  0  0  0  0
   41.1050   29.0120   42.7330 H   0  0  0  0  0  0  0  0  0  0  0  0
   40.1760   30.1220   43.8060 H   0  0  0  0  0  0  0  0  0  0  0  0
   41.0130   32.0750   42.5030 H   0  0  0  0  0  0  0  0  0  0  0  0
   42.2490   30.9800   43.0680 H   0  0  0  0  0  0  0  0  0  0  0  0
   42.2980   31.7690   40.5210 H   0  0  0  0  0  0  0  0  0  0  0  0
   42.8900   30.1960   41.0920 H   0  0  0  0  0  0  0  0  0  0  0  0
   41.1970   30.3680   39.1200 H   0  0  0  0  0  0  0  0  0  0  0  0
   41.2190   28.9600   40.1710 H   0  0  0  0  0  0  0  0  0  0  0  0
   39.0400   29.4410   39.9480 H   0  0  0  0  0  0  0  0  0  0  0  0
   37.8120   31.4000   39.3320 C   0  0  0  0  0  0  0  0  0  0  0  0
   38.8960   31.4730   40.2230 C   0  0  0  0  0  0  0  0  0  0  0  0
   39.1950   32.7440   40.7410 C   0  0  0  0  0  0  0  0  0  0  0  0
   40.0150   32.8360   41.4400 H   0  0  0  0  0  0  0  0  0  0  0  0
   38.5340   33.8920   40.4560 C   0  0  0  0  0  0  0  0  0  0  0  0
   38.8190   34.8410   40.8910 H   0  0  0  0  0  0  0  0  0  0  0  0
   37.4760   33.8450   39.5900 C   0  0  0  0  0  3  0  0  0  0  0  0
   37.1520   32.6110   39.0610 C   0  0  0  0  0  3  0  0  0  0  0  0
   37.4920   28.8110   39.2780 H   0  0  0  0  0  0  0  0  0  0  0  0
   37.2410   29.9780   38.5580 S   0  0  0  0  0  0  0  0  0  0  0  0
   35.8750   30.0050   38.0010 O   0  0  0  0  0  0  0  0  0  0  0  0
   38.1000   29.7270   37.3110 O   0  0  0  0  0  0  0  0  0  0  0  0
   37.6090   27.8450   42.1710 C   0  0  1  0  0  0  0  0  0  0  0  0
   38.5500   27.8450   43.2700 C   0  0  0  0  0  0  0  0  0  0  0  0
   39.0350   28.3280   41.9430 C   0  0  2  0  0  0  0  0  0  0  0  0
   36.8740   28.6790   42.0300 H   0  0  0  0  0  0  0  0  0  0  0  0
   38.9160   26.8380   43.6160 H   0  0  0  0  0  0  0  0  0  0  0  0
   38.4770   28.5420   44.1170 H   0  0  0  0  0  0  0  0  0  0  0  0
   39.7050   27.6690   41.3660 H   0  0  0  0  0  0  0  0  0  0  0  0
   37.2330   25.3490   42.1950 C   0  0  0  0  0  0  0  0  0  0  0  0
   37.1970   26.5880   41.4970 C   0  0  0  0  0  0  0  0  0  0  0  0
   36.7710   26.5620   40.1830 C   0  0  0  0  0  0  0  0  0  0  0  0
   36.4180   25.3590   39.6570 N   0  0  0  0  0  0  0  0  0  0  0  0
   36.4600   24.2000   40.3410 C   0  0  0  0  0  0  0  0  0  0  0  0
   36.8740   24.1830   41.6360 N   0  0  0  0  0  0  0  0  0  0  0  0
   37.5770   25.4360   43.2250 H   0  0  0  0  0  0  0  0  0  0  0  0
   36.7230   27.4710   39.6020 H   0  0  0  0  0  0  0  0  0  0  0  0
   36.1660   23.2710   39.8680 H   0  0  0  0  0  0  0  0  0  0  0  0
  1 30  1  0  0  0  0
  1  2  1  1  0  0  0
  2  7  1  0  0  0  0
  2  8  1  0  0  0  0
  3  9  1  0  0  0  0
  3  2  1  0  0  0  0
  3 10  1  0  0  0  0
  4 12  1  0  0  0  0
  4  3  1  0  0  0  0
  5 14  1  0  0  0  0
  5  6  1  0  0  0  0
  5  4  1  0  0  0  0
  6 15  1  6  0  0  0
  6  1  1  0  0  0  0
 11  4  1  0  0  0  0
 13  5  1  0  0  0  0
 16 17  1  0  0  0  0
 17  6  1  0  0  0  0
 17 18  2  0  0  0  0
 18 19  1  0  0  0  0
 20 18  1  0  0  0  0
 20 21  1  0  0  0  0
 22 20  2  0  0  0  0
 23 16  2  0  0  0  0
 23 22  1  0  0  0  0
 25 24  1  0  0  0  0
 25 16  1  0  0  0  0
 26 25  2  0  0  0  0
 27 25  2  0  0  0  0
 28 31  1  1  0  0  0
 28 29  1  0  0  0  0
 29 32  1  0  0  0  0
 29 33  1  0  0  0  0
 30 34  1  6  0  0  0
 30 28  1  0  0  0  0
 30 29  1  0  0  0  0
 35 41  1  0  0  0  0
 36 28  1  0  0  0  0
 36 35  2  0  0  0  0
 37 36  1  0  0  0  0
 38 37  2  0  0  0  0
 38 39  1  0  0  0  0
 39 40  2  0  0  0  0
 40 35  1  0  0  0  0
 42 37  1  0  0  0  0
 43 39  1  0  0  0  0
M  END
>  <minimizedAffinity>
-5.27482748

$$$$

 OpenBabel03252506443D

 43 46  0  0  1  0  0  0  0  0999 V2000
   39.0190   28.3100   41.9560 N   0  0  1  0  0  0  0  0  0  0  0  0
   38.8940   26.9960   42.5060 C   0  0  0  0  0  0  0  0  0  0  0  0
   37.5290   26.4150   42.4920 C   0  0  0  0  0  0  0  0  0  0  0  0
   36.6090   27.2420   43.3380 C   0  0  0  0  0  0  0  0  0  0  0  0
   36.9910   28.6780   43.2710 C   0  0  0  0  0  0  0  0  0  0  0  0
   37.7560   29.0190   42.0580 C   0  0  2  0  0  0  0  0  0  0  0  0
   39.2230   27.0070   43.5830 H   0  0  0  0  0  0  0  0  0  0  0  0
   39.5620   26.2500   41.9840 H   0  0  0  0  0  0  0  0  0  0  0  0
   37.1130   26.1010   41.5410 H   0  0  0  0  0  0  0  0  0  0  0  0
   37.6290   25.4300   43.0680 H   0  0  0  0  0  0  0  0  0  0  0  0
   35.5340   27.0800   43.0310 H   0  0  0  0  0  0  0  0  0  0  0  0
   36.6530   26.9140   44.3990 H   0  0  0  0  0  0  0  0  0  0  0  0
   36.0860   29.2490   43.3930 H   0  0  0  0  0  0  0  0  0  0  0  0
   37.6420   28.9460   44.1500 H   0  0  0  0  0  0  0  0  0  0  0  0
   38.1560   30.0670   42.2780 H   0  0  0  0  0  0  0  0  0  0  0  0
   37.3680   30.2970   39.9950 C   0  0  0  0  0  0  0  0  0  0  0  0
   37.0540   29.1780   40.7870 C   0  0  0  0  0  0  0  0  0  0  0  0
   36.0970   28.2930   40.2660 C   0  0  0  0  0  0  0  0  0  0  0  0
   35.8400   27.4140   40.8420 H   0  0  0  0  0  0  0  0  0  0  0  0
   35.4580   28.4240   39.0770 C   0  0  0  0  0  0  0  0  0  0  0  0
   34.7280   27.7020   38.7360 H   0  0  0  0  0  0  0  0  0  0  0  0
   35.7470   29.5050   38.2910 C   0  0  0  0  0  3  0  0  0  0  0  0
   36.6850   30.3980   38.7720 C   0  0  0  0  0  3  0  0  0  0  0  0
   39.0330   31.3960   41.6770 H   0  0  0  0  0  0  0  0  0  0  0  0
   38.4940   31.5280   40.3970 S   0  0  0  0  0  0  0  0  0  0  0  0
   39.5220   31.8670   39.3940 O   0  0  0  0  0  0  0  0  0  0  0  0
   37.7320   32.8510   40.5490 O   0  0  0  0  0  0  0  0  0  0  0  0
   41.4670   29.0990   41.9900 C   0  0  1  0  0  0  0  0  0  0  0  0
   41.2600   28.0410   42.9540 C   0  0  0  0  0  0  0  0  0  0  0  0
   40.1060   28.9400   42.6560 C   0  0  2  0  0  0  0  0  0  0  0  0
   41.4010   28.9080   40.8880 H   0  0  0  0  0  0  0  0  0  0  0  0
   41.7650   28.1660   43.9530 H   0  0  0  0  0  0  0  0  0  0  0  0
   41.2170   26.9790   42.6740 H   0  0  0  0  0  0  0  0  0  0  0  0
   39.8260   29.6910   43.4140 H   0  0  0  0  0  0  0  0  0  0  0  0
   42.2270   31.4490   41.4650 C   0  0  0  0  0  0  0  0  0  0  0  0
   42.2530   30.3130   42.3220 C   0  0  0  0  0  0  0  0  0  0  0  0
   43.0380   30.3960   43.4570 C   0  0  0  0  0  0  0  0  0  0  0  0
   43.7220   31.5500   43.6690 N   0  0  0  0  0  0  0  0  0  0  0  0
   43.6790   32.6110   42.8420 C   0  0  0  0  0  0  0  0  0  0  0  0
   42.9200   32.5710   41.7140 N   0  0  0  0  0  0  0  0  0  0  0  0
   41.5920   31.3220   40.5890 H   0  0  0  0  0  0  0  0  0  0  0  0
   43.0990   29.5650   44.1450 H   0  0  0  0  0  0  0  0  0  0  0  0
   44.2470   33.5060   43.0640 H   0  0  0  0  0  0  0  0  0  0  0  0
  1  6  1  0  0  0  0
  1  2  1  1  0  0  0
  1 30  1  0  0  0  0
  2  7  1  0  0  0  0
  3  2  1  0  0  0  0
  3 10  1  0  0  0  0
  3  4  1  0  0  0  0
  4 12  1  0  0  0  0
  5  4  1  0  0  0  0
  5 13  1  0  0  0  0
  5 14  1  0  0  0  0
  6 15  1  1  0  0  0
  6  5  1  0  0  0  0
  8  2  1  0  0  0  0
  9  3  1  0  0  0  0
 11  4  1  0  0  0  0
 16 25  1  0  0  0  0
 16 17  1  0  0  0  0
 17  6  1  0  0  0  0
 18 17  2  0  0  0  0
 18 19  1  0  0  0  0
 20 18  1  0  0  0  0
 21 20  1  0  0  0  0
 22 23  1  0  0  0  0
 22 20  2  0  0  0  0
 23 16  2  0  0  0  0
 25 27  2  0  0  0  0
 25 24  1  0  0  0  0
 26 25  2  0  0  0  0
 28 31  1  6  0  0  0
 28 36  1  0  0  0  0
 28 30  1  0  0  0  0
 28 29  1  0  0  0  0
 29 32  1  0  0  0  0
 30 29  1  0  0  0  0
 30 34  1  1  0  0  0
 33 29  1  0  0  0  0
 35 40  2  0  0  0  0
 35 36  1  0  0  0  0
 36 37  2  0  0  0  0
 37 38  1  0  0  0  0
 37 42  1  0  0  0  0
 39 43  1  0  0  0  0
 39 38  2  0  0  0  0
 40 39  1  0  0  0  0
 41 35  1  0  0  0  0
M  END
>  <minimizedAffinity>
-5.15978384

$$$$

 OpenBabel03252506443D

 43 46  0  0  1  0  0  0  0  0999 V2000
   37.3550   28.3510   40.7920 N   0  0  1  0  0  0  0  0  0  0  0  0
   37.0550   29.2590   41.8550 C   0  0  0  0  0  0  0  0  0  0  0  0
   37.6960   28.9650   43.1590 C   0  0  0  0  0  0  0  0  0  0  0  0
   37.2210   27.6420   43.6790 C   0  0  0  0  0  0  0  0  0  0  0  0
   36.9650   26.7030   42.5540 C   0  0  0  0  0  0  0  0  0  0  0  0
   37.7080   27.0480   41.3290 C   0  0  2  0  0  0  0  0  0  0  0  0
   35.9440   29.2640   42.0410 H   0  0  0  0  0  0  0  0  0  0  0  0
   37.3330   30.3230   41.5970 H   0  0  0  0  0  0  0  0  0  0  0  0
   38.7620   29.1360   43.2600 H   0  0  0  0  0  0  0  0  0  0  0  0
   37.2430   29.7280   43.8820 H   0  0  0  0  0  0  0  0  0  0  0  0
   37.9600   27.2170   44.4200 H   0  0  0  0  0  0  0  0  0  0  0  0
   36.2790   27.7640   44.2580 H   0  0  0  0  0  0  0  0  0  0  0  0
   37.1660   25.7100   42.9240 H   0  0  0  0  0  0  0  0  0  0  0  0
   35.8710   26.7120   42.2840 H   0  0  0  0  0  0  0  0  0  0  0  0
   37.2280   26.3880   40.5280 H   0  0  0  0  0  0  0  0  0  0  0  0
   39.4880   25.4740   40.7050 C   0  0  0  0  0  0  0  0  0  0  0  0
   39.1290   26.7250   41.2350 C   0  0  0  0  0  0  0  0  0  0  0  0
   40.1850   27.5710   41.6110 C   0  0  0  0  0  0  0  0  0  0  0  0
   39.9470   28.5480   42.0100 H   0  0  0  0  0  0  0  0  0  0  0  0
   41.5060   27.2850   41.5060 C   0  0  0  0  0  0  0  0  0  0  0  0
   42.2700   27.9860   41.8150 H   0  0  0  0  0  0  0  0  0  0  0  0
   41.8790   26.0730   40.9930 C   0  0  0  0  0  3  0  0  0  0  0  0
   40.8650   25.2150   40.6130 C   0  0  0  0  0  3  0  0  0  0  0  0
   37.1570   24.7530   39.7790 H   0  0  0  0  0  0  0  0  0  0  0  0
   38.3990   24.2570   40.1760 S   0  0  0  0  0  0  0  0  0  0  0  0
   38.9150   23.2390   39.2400 O   0  0  0  0  0  0  0  0  0  0  0  0
   37.9890   23.4120   41.3890 O   0  0  0  0  0  0  0  0  0  0  0  0
   35.8960   29.5330   39.0350 C   0  0  1  0  0  0  0  0  0  0  0  0
   35.1620   29.3550   40.2690 C   0  0  0  0  0  0  0  0  0  0  0  0
   36.2040   28.3400   39.9300 C   0  0  2  0  0  0  0  0  0  0  0  0
   36.7730   30.2260   38.9720 H   0  0  0  0  0  0  0  0  0  0  0  0
   34.0860   29.0390   40.1720 H   0  0  0  0  0  0  0  0  0  0  0  0
   35.2950   30.0090   41.1420 H   0  0  0  0  0  0  0  0  0  0  0  0
   35.8670   27.3490   39.5820 H   0  0  0  0  0  0  0  0  0  0  0  0
   36.0520   29.3370   36.5230 C   0  0  0  0  0  0  0  0  0  0  0  0
   35.2780   29.2570   37.7140 C   0  0  0  0  0  0  0  0  0  0  0  0
   33.9440   28.9180   37.5800 C   0  0  0  0  0  0  0  0  0  0  0  0
   33.4740   28.6870   36.3270 N   0  0  0  0  0  0  0  0  0  0  0  0
   34.2290   28.7690   35.2150 C   0  0  0  0  0  0  0  0  0  0  0  0
   35.5450   29.1000   35.3030 N   0  0  0  0  0  0  0  0  0  0  0  0
   37.0930   29.6070   36.6940 H   0  0  0  0  0  0  0  0  0  0  0  0
   33.3070   28.8420   38.4490 H   0  0  0  0  0  0  0  0  0  0  0  0
   33.7980   28.5730   34.2410 H   0  0  0  0  0  0  0  0  0  0  0  0
  1  6  1  0  0  0  0
  1  2  1  1  0  0  0
  2  7  1  0  0  0  0
  2  3  1  0  0  0  0
  3  9  1  0  0  0  0
  3  4  1  0  0  0  0
  3 10  1  0  0  0  0
  4 12  1  0  0  0  0
  4 11  1  0  0  0  0
  5 13  1  0  0  0  0
  5  4  1  0  0  0  0
  6 15  1  6  0  0  0
  6  5  1  0  0  0  0
  8  2  1  0  0  0  0
 14  5  1  0  0  0  0
 16 17  1  0  0  0  0
 17  6  1  0  0  0  0
 17 18  2  0  0  0  0
 18 19  1  0  0  0  0
 20 18  1  0  0  0  0
 20 21  1  0  0  0  0
 22 20  2  0  0  0  0
 23 16  2  0  0  0  0
 23 22  1  0  0  0  0
 24 25  1  0  0  0  0
 25 16  1  0  0  0  0
 25 27  2  0  0  0  0
 26 25  2  0  0  0  0
 28 31  1  1  0  0  0
 28 30  1  0  0  0  0
 28 29  1  0  0  0  0
 29 33  1  0  0  0  0
 30 34  1  6  0  0  0
 30 29  1  0  0  0  0
 30  1  1  0  0  0  0
 32 29  1  0  0  0  0
 35 41  1  0  0  0  0
 35 36  1  0  0  0  0
 36 28  1  0  0  0  0
 37 36  2  0  0  0  0
 37 42  1  0  0  0  0
 38 37  1  0  0  0  0
 39 40  1  0  0  0  0
 39 38  2  0  0  0  0
 40 35  2  0  0  0  0
 43 39  1  0  0  0  0
M  END
>  <minimizedAffinity>
-5.13993788

$$$$

 OpenBabel03252506443D

 43 46  0  0  1  0  0  0  0  0999 V2000
   37.1080   29.6420   40.2610 N   0  0  1  0  0  0  0  0  0  0  0  0
   35.7490   30.0830   40.2120 C   0  0  0  0  0  0  0  0  0  0  0  0
   34.7380   29.0330   39.9330 C   0  0  0  0  0  0  0  0  0  0  0  0
   34.9690   28.4430   38.5750 C   0  0  0  0  0  0  0  0  0  0  0  0
   36.4230   28.4180   38.2600 C   0  0  0  0  0  0  0  0  0  0  0  0
   37.2780   28.4430   39.4600 C   0  0  2  0  0  0  0  0  0  0  0  0
   35.6350   30.8560   39.4010 H   0  0  0  0  0  0  0  0  0  0  0  0
   35.4280   30.5860   41.1700 H   0  0  0  0  0  0  0  0  0  0  0  0
   34.5190   28.3100   40.7110 H   0  0  0  0  0  0  0  0  0  0  0  0
   33.7520   29.6050   39.8260 H   0  0  0  0  0  0  0  0  0  0  0  0
   34.5080   27.4150   38.5050 H   0  0  0  0  0  0  0  0  0  0  0  0
   34.4500   29.0410   37.7950 H   0  0  0  0  0  0  0  0  0  0  0  0
   36.5900   27.5660   37.6210 H   0  0  0  0  0  0  0  0  0  0  0  0
   36.7010   29.3200   37.6450 H   0  0  0  0  0  0  0  0  0  0  0  0
   38.3220   28.6520   39.0430 H   0  0  0  0  0  0  0  0  0  0  0  0
   38.5510   27.1560   41.1210 C   0  0  0  0  0  0  0  0  0  0  0  0
   37.4570   27.2210   40.2410 C   0  0  0  0  0  0  0  0  0  0  0  0
   36.6130   26.1000   40.2080 C   0  0  0  0  0  0  0  0  0  0  0  0
   35.7530   26.1210   39.5520 H   0  0  0  0  0  0  0  0  0  0  0  0
   36.7630   24.9720   40.9460 C   0  0  0  0  0  0  0  0  0  0  0  0
   36.0720   24.1430   40.8710 H   0  0  0  0  0  0  0  0  0  0  0  0
   37.8200   24.8860   41.8090 C   0  0  0  0  0  3  0  0  0  0  0  0
   38.6720   25.9720   41.8670 C   0  0  0  0  0  3  0  0  0  0  0  0
   39.8700   29.2350   40.2570 H   0  0  0  0  0  0  0  0  0  0  0  0
   39.7310   28.3800   41.3500 S   0  0  0  0  0  0  0  0  0  0  0  0
   39.7130   29.1150   42.6300 O   0  0  0  0  0  0  0  0  0  0  0  0
   41.1170   27.7210   41.3680 O   0  0  0  0  0  0  0  0  0  0  0  0
   38.2680   31.8740   40.8020 C   0  0  1  0  0  0  0  0  0  0  0  0
   37.2060   32.0720   39.8390 C   0  0  0  0  0  0  0  0  0  0  0  0
   37.9110   30.7560   39.8310 C   0  0  2  0  0  0  0  0  0  0  0  0
   38.0510   31.5740   41.8590 H   0  0  0  0  0  0  0  0  0  0  0  0
   37.4250   32.7780   38.9900 H   0  0  0  0  0  0  0  0  0  0  0  0
   36.1460   32.1270   40.1240 H   0  0  0  0  0  0  0  0  0  0  0  0
   38.6210   30.5550   39.0110 H   0  0  0  0  0  0  0  0  0  0  0  0
   40.7370   32.0020   41.3140 C   0  0  0  0  0  0  0  0  0  0  0  0
   39.5950   32.5210   40.6430 C   0  0  0  0  0  0  0  0  0  0  0  0
   39.7790   33.6400   39.8530 C   0  0  0  0  0  0  0  0  0  0  0  0
   41.0330   34.1580   39.7750 N   0  0  0  0  0  0  0  0  0  0  0  0
   42.0980   33.6470   40.4210 C   0  0  0  0  0  0  0  0  0  0  0  0
   41.9590   32.5470   41.2090 N   0  0  0  0  0  0  0  0  0  0  0  0
   40.5270   31.1210   41.9200 H   0  0  0  0  0  0  0  0  0  0  0  0
   38.9490   34.0790   39.3190 H   0  0  0  0  0  0  0  0  0  0  0  0
   43.0740   34.1040   40.3200 H   0  0  0  0  0  0  0  0  0  0  0  0
  1  2  1  6  0  0  0
  2  8  1  0  0  0  0
  3  2  1  0  0  0  0
  3  9  1  0  0  0  0
  4  3  1  0  0  0  0
  5  4  1  0  0  0  0
  5  6  1  0  0  0  0
  6 15  1  6  0  0  0
  6 17  1  0  0  0  0
  6  1  1  0  0  0  0
  7  2  1  0  0  0  0
 10  3  1  0  0  0  0
 11  4  1  0  0  0  0
 12  4  1  0  0  0  0
 13  5  1  0  0  0  0
 14  5  1  0  0  0  0
 16 25  1  0  0  0  0
 16 23  1  0  0  0  0
 17 16  2  0  0  0  0
 18 17  1  0  0  0  0
 18 20  2  0  0  0  0
 19 18  1  0  0  0  0
 20 22  1  0  0  0  0
 21 20  1  0  0  0  0
 22 23  2  0  0  0  0
 24 25  1  0  0  0  0
 25 27  2  0  0  0  0
 25 26  2  0  0  0  0
 28 31  1  1  0  0  0
 29 33  1  0  0  0  0
 29 28  1  0  0  0  0
 30 34  1  6  0  0  0
 30 29  1  0  0  0  0
 30  1  1  0  0  0  0
 30 28  1  0  0  0  0
 32 29  1  0  0  0  0
 35 41  1  0  0  0  0
 36 28  1  0  0  0  0
 36 35  2  0  0  0  0
 37 36  1  0  0  0  0
 38 37  2  0  0  0  0
 38 39  1  0  0  0  0
 39 40  2  0  0  0  0
 40 35  1  0  0  0  0
 42 37  1  0  0  0  0
 43 39  1  0  0  0  0
M  END
>  <minimizedAffinity>
-5.11980963

$$$$

 OpenBabel03252506443D

 43 46  0  0  1  0  0  0  0  0999 V2000
   38.9690   26.9700   41.9980 N   0  0  1  0  0  0  0  0  0  0  0  0
   38.0820   26.0310   42.6100 C   0  0  0  0  0  0  0  0  0  0  0  0
   36.6690   26.4630   42.7370 C   0  0  0  0  0  0  0  0  0  0  0  0
   36.5760   27.6680   43.6230 C   0  0  0  0  0  0  0  0  0  0  0  0
   37.7830   28.5240   43.4650 C   0  0  0  0  0  0  0  0  0  0  0  0
   38.4720   28.3230   42.1780 C   0  0  2  0  0  0  0  0  0  0  0  0
   38.4390   25.8030   43.6540 H   0  0  0  0  0  0  0  0  0  0  0  0
   38.0640   25.0430   42.0640 H   0  0  0  0  0  0  0  0  0  0  0  0
   36.0620   26.5130   41.8390 H   0  0  0  0  0  0  0  0  0  0  0  0
   36.1660   25.6310   43.3420 H   0  0  0  0  0  0  0  0  0  0  0  0
   35.6260   28.2420   43.4170 H   0  0  0  0  0  0  0  0  0  0  0  0
   36.4970   27.3640   44.6900 H   0  0  0  0  0  0  0  0  0  0  0  0
   37.4700   29.5400   43.6400 H   0  0  0  0  0  0  0  0  0  0  0  0
   38.5310   28.2910   44.2740 H   0  0  0  0  0  0  0  0  0  0  0  0
   39.4690   28.8630   42.3190 H   0  0  0  0  0  0  0  0  0  0  0  0
   38.3080   30.2400   40.6500 C   0  0  0  0  0  0  0  0  0  0  0  0
   37.9220   28.9250   40.9660 C   0  0  0  0  0  0  0  0  0  0  0  0
   37.0500   28.2950   40.0640 C   0  0  0  0  0  0  0  0  0  0  0  0
   36.7440   27.2780   40.2680 H   0  0  0  0  0  0  0  0  0  0  0  0
   36.5540   28.8420   38.9270 C   0  0  0  0  0  0  0  0  0  0  0  0
   35.8830   28.2980   38.2750 H   0  0  0  0  0  0  0  0  0  0  0  0
   36.9150   30.1200   38.6000 C   0  0  0  0  0  3  0  0  0  0  0  0
   37.7730   30.7710   39.4650 C   0  0  0  0  0  3  0  0  0  0  0  0
   39.0500   31.2460   42.9400 H   0  0  0  0  0  0  0  0  0  0  0  0
   39.3560   31.2310   41.5800 S   0  0  0  0  0  0  0  0  0  0  0  0
   40.8060   31.1070   41.3380 O   0  0  0  0  0  0  0  0  0  0  0  0
   39.0850   32.6970   41.2160 O   0  0  0  0  0  0  0  0  0  0  0  0
   41.0080   25.4340   42.3140 C   0  0  1  0  0  0  0  0  0  0  0  0
   40.3150   25.6250   43.5700 C   0  0  0  0  0  0  0  0  0  0  0  0
   40.2660   26.7380   42.5750 C   0  0  2  0  0  0  0  0  0  0  0  0
   40.5410   24.8670   41.4690 H   0  0  0  0  0  0  0  0  0  0  0  0
   40.9600   25.7770   44.4800 H   0  0  0  0  0  0  0  0  0  0  0  0
   39.3970   25.0810   43.8340 H   0  0  0  0  0  0  0  0  0  0  0  0
   40.8780   27.6350   42.7720 H   0  0  0  0  0  0  0  0  0  0  0  0
   43.2870   25.4460   43.3990 C   0  0  0  0  0  0  0  0  0  0  0  0
   42.4880   25.4950   42.2230 C   0  0  0  0  0  0  0  0  0  0  0  0
   43.1490   25.6030   41.0140 C   0  0  0  0  0  0  0  0  0  0  0  0
   44.5060   25.6540   41.0380 N   0  0  0  0  0  0  0  0  0  0  0  0
   45.2390   25.6060   42.1660 C   0  0  0  0  0  0  0  0  0  0  0  0
   44.6290   25.5000   43.3770 N   0  0  0  0  0  0  0  0  0  0  0  0
   42.7090   25.3610   44.3190 H   0  0  0  0  0  0  0  0  0  0  0  0
   42.5950   25.6450   40.0870 H   0  0  0  0  0  0  0  0  0  0  0  0
   46.3200   25.6510   42.1230 H   0  0  0  0  0  0  0  0  0  0  0  0
  1  6  1  0  0  0  0
  1 30  1  0  0  0  0
  1  2  1  1  0  0  0
  2  3  1  0  0  0  0
  2  7  1  0  0  0  0
  3 10  1  0  0  0  0
  3  4  1  0  0  0  0
  4 12  1  0  0  0  0
  5  4  1  0  0  0  0
  5 13  1  0  0  0  0
  5 14  1  0  0  0  0
  6 15  1  1  0  0  0
  6  5  1  0  0  0  0
  8  2  1  0  0  0  0
  9  3  1  0  0  0  0
 11  4  1  0  0  0  0
 16 17  1  0  0  0  0
 16 25  1  0  0  0  0
 17  6  1  0  0  0  0
 18 19  1  0  0  0  0
 18 17  2  0  0  0  0
 20 18  1  0  0  0  0
 21 20  1  0  0  0  0
 22 20  2  0  0  0  0
 22 23  1  0  0  0  0
 23 16  2  0  0  0  0
 25 24  1  0  0  0  0
 26 25  2  0  0  0  0
 27 25  2  0  0  0  0
 28 31  1  6  0  0  0
 28 30  1  0  0  0  0
 28 29  1  0  0  0  0
 29 33  1  0  0  0  0
 29 32  1  0  0  0  0
 30 34  1  1  0  0  0
 30 29  1  0  0  0  0
 35 41  1  0  0  0  0
 36 28  1  0  0  0  0
 36 35  2  0  0  0  0
 37 38  2  0  0  0  0
 37 36  1  0  0  0  0
 38 39  1  0  0  0  0
 39 40  2  0  0  0  0
 40 35  1  0  0  0  0
 42 37  1  0  0  0  0
 43 39  1  0  0  0  0
M  END
>  <minimizedAffinity>
-5.10677099

$$$$

 OpenBabel03252506443D

 43 46  0  0  1  0  0  0  0  0999 V2000
   38.8280   27.9030   41.4420 N   0  0  1  0  0  0  0  0  0  0  0  0
   39.0340   27.4390   42.7790 C   0  0  0  0  0  0  0  0  0  0  0  0
   37.9550   26.5920   43.3430 C   0  0  0  0  0  0  0  0  0  0  0  0
   36.6790   27.3730   43.4310 C   0  0  0  0  0  0  0  0  0  0  0  0
   36.5850   28.3440   42.3080 C   0  0  0  0  0  0  0  0  0  0  0  0
   37.4080   27.9670   41.1450 C   0  0  2  0  0  0  0  0  0  0  0  0
   39.1380   28.3230   43.4700 H   0  0  0  0  0  0  0  0  0  0  0  0
   39.9900   26.8480   42.8820 H   0  0  0  0  0  0  0  0  0  0  0  0
   37.8440   25.5810   42.9650 H   0  0  0  0  0  0  0  0  0  0  0  0
   38.2590   26.4280   44.4350 H   0  0  0  0  0  0  0  0  0  0  0  0
   35.7890   26.6790   43.4600 H   0  0  0  0  0  0  0  0  0  0  0  0
   36.6310   27.9360   44.3880 H   0  0  0  0  0  0  0  0  0  0  0  0
   35.5380   28.4620   42.0840 H   0  0  0  0  0  0  0  0  0  0  0  0
   36.9420   29.3580   42.6420 H   0  0  0  0  0  0  0  0  0  0  0  0
   37.4020   28.9070   40.4950 H   0  0  0  0  0  0  0  0  0  0  0  0
   36.1360   27.3020   39.1510 C   0  0  0  0  0  0  0  0  0  0  0  0
   36.9380   26.9200   40.2400 C   0  0  0  0  0  0  0  0  0  0  0  0
   37.2370   25.5530   40.3480 C   0  0  0  0  0  0  0  0  0  0  0  0
   37.8630   25.2250   41.1670 H   0  0  0  0  0  0  0  0  0  0  0  0
   36.8210   24.5800   39.5000 C   0  0  0  0  0  0  0  0  0  0  0  0
   37.0890   23.5420   39.6430 H   0  0  0  0  0  0  0  0  0  0  0  0
   36.0380   24.9280   38.4330 C   0  0  0  0  0  3  0  0  0  0  0  0
   35.7250   26.2660   38.2950 C   0  0  0  0  0  3  0  0  0  0  0  0
   36.4950   29.8840   39.2550 H   0  0  0  0  0  0  0  0  0  0  0  0
   35.6230   28.9000   38.7900 S   0  0  0  0  0  0  0  0  0  0  0  0
   35.1560   29.1740   37.4180 O   0  0  0  0  0  0  0  0  0  0  0  0
   34.3780   29.2100   39.6310 O   0  0  0  0  0  0  0  0  0  0  0  0
   39.5330   29.9320   40.0250 C   0  0  1  0  0  0  0  0  0  0  0  0
   40.6920   29.1690   40.4340 C   0  0  0  0  0  0  0  0  0  0  0  0
   39.5070   29.1680   41.3430 C   0  0  2  0  0  0  0  0  0  0  0  0
   38.7830   29.5160   39.3050 H   0  0  0  0  0  0  0  0  0  0  0  0
   41.5920   29.7610   40.7620 H   0  0  0  0  0  0  0  0  0  0  0  0
   41.0020   28.2410   39.9320 H   0  0  0  0  0  0  0  0  0  0  0  0
   39.5670   29.7610   42.2710 H   0  0  0  0  0  0  0  0  0  0  0  0
   38.2790   32.1160   40.2000 C   0  0  0  0  0  0  0  0  0  0  0  0
   39.5120   31.4140   40.0940 C   0  0  0  0  0  0  0  0  0  0  0  0
   40.6680   32.1710   40.0540 C   0  0  0  0  0  0  0  0  0  0  0  0
   40.5420   33.5220   40.1210 N   0  0  0  0  0  0  0  0  0  0  0  0
   39.3610   34.1610   40.2220 C   0  0  0  0  0  0  0  0  0  0  0  0
   38.2000   33.4550   40.2630 N   0  0  0  0  0  0  0  0  0  0  0  0
   37.4050   31.4650   40.2260 H   0  0  0  0  0  0  0  0  0  0  0  0
   41.6340   31.6940   39.9740 H   0  0  0  0  0  0  0  0  0  0  0  0
   39.3230   35.2420   40.2710 H   0  0  0  0  0  0  0  0  0  0  0  0
  1  2  1  1  0  0  0
  2  8  1  0  0  0  0
  2  3  1  0  0  0  0
  2  7  1  0  0  0  0
  3  4  1  0  0  0  0
  3 10  1  0  0  0  0
  4 11  1  0  0  0  0
  4 12  1  0  0  0  0
  5 14  1  0  0  0  0
  5  4  1  0  0  0  0
  6 15  1  6  0  0  0
  6  1  1  0  0  0  0
  6  5  1  0  0  0  0
  9  3  1  0  0  0  0
 13  5  1  0  0  0  0
 16 17  1  0  0  0  0
 17 18  2  0  0  0  0
 17  6  1  0  0  0  0
 18 19  1  0  0  0  0
 20 21  1  0  0  0  0
 20 18  1  0  0  0  0
 22 20  2  0  0  0  0
 23 22  1  0  0  0  0
 23 16  2  0  0  0  0
 25 16  1  0  0  0  0
 25 24  1  0  0  0  0
 25 27  2  0  0  0  0
 26 25  2  0  0  0  0
 28 31  1  6  0  0  0
 28 36  1  0  0  0  0
 28 29  1  0  0  0  0
 28 30  1  0  0  0  0
 29 32  1  0  0  0  0
 29 30  1  0  0  0  0
 30  1  1  0  0  0  0
 30 34  1  1  0  0  0
 33 29  1  0  0  0  0
 35 41  1  0  0  0  0
 35 40  1  0  0  0  0
 36 35  2  0  0  0  0
 37 36  1  0  0  0  0
 37 38  2  0  0  0  0
 38 39  1  0  0  0  0
 39 40  2  0  0  0  0
 39 43  1  0  0  0  0
 42 37  1  0  0  0  0
M  END
>  <minimizedAffinity>
-5.10676289

$$$$

 OpenBabel03252506443D

 43 46  0  0  1  0  0  0  0  0999 V2000
   38.1840   28.5880   41.2880 N   0  0  1  0  0  0  0  0  0  0  0  0
   37.6220   29.3970   42.3250 C   0  0  0  0  0  0  0  0  0  0  0  0
   37.5980   28.7910   43.6780 C   0  0  0  0  0  0  0  0  0  0  0  0
   36.7370   27.5640   43.6780 C   0  0  0  0  0  0  0  0  0  0  0  0
   36.8240   26.8680   42.3660 C   0  0  0  0  0  0  0  0  0  0  0  0
   38.0570   27.1810   41.6240 C   0  0  2  0  0  0  0  0  0  0  0  0
   36.5530   29.6440   42.0690 H   0  0  0  0  0  0  0  0  0  0  0  0
   38.1540   30.3870   42.4290 H   0  0  0  0  0  0  0  0  0  0  0  0
   38.5370   28.6860   44.2120 H   0  0  0  0  0  0  0  0  0  0  0  0
   37.0180   29.5400   44.3200 H   0  0  0  0  0  0  0  0  0  0  0  0
   37.0160   26.8820   44.5340 H   0  0  0  0  0  0  0  0  0  0  0  0
   35.6740   27.8330   43.8650 H   0  0  0  0  0  0  0  0  0  0  0  0
   36.6840   25.8170   42.5610 H   0  0  0  0  0  0  0  0  0  0  0  0
   35.9620   27.1740   41.7090 H   0  0  0  0  0  0  0  0  0  0  0  0
   37.8550   26.7650   40.5780 H   0  0  0  0  0  0  0  0  0  0  0  0
   40.0200   25.8270   41.0290 C   0  0  0  0  0  0  0  0  0  0  0  0
   39.3120   26.5420   42.0120 C   0  0  0  0  0  0  0  0  0  0  0  0
   39.8950   26.5950   43.2880 C   0  0  0  0  0  0  0  0  0  0  0  0
   39.3850   27.1480   44.0650 H   0  0  0  0  0  0  0  0  0  0  0  0
   41.0700   26.0220   43.6480 C   0  0  0  0  0  0  0  0  0  0  0  0
   41.4620   26.1020   44.6530 H   0  0  0  0  0  0  0  0  0  0  0  0
   41.7750   25.3210   42.7090 C   0  0  0  0  0  3  0  0  0  0  0  0
   41.2310   25.2480   41.4410 C   0  0  0  0  0  3  0  0  0  0  0  0
   38.3820   26.3210   39.0590 H   0  0  0  0  0  0  0  0  0  0  0  0
   39.5300   25.6060   39.4000 S   0  0  0  0  0  0  0  0  0  0  0  0
   40.5700   25.6950   38.3560 O   0  0  0  0  0  0  0  0  0  0  0  0
   39.0220   24.1670   39.2370 O   0  0  0  0  0  0  0  0  0  0  0  0
   38.3010   29.5570   38.9080 C   0  0  1  0  0  0  0  0  0  0  0  0
   37.5400   30.4300   39.7760 C   0  0  0  0  0  0  0  0  0  0  0  0
   37.5160   28.9660   40.0710 C   0  0  2  0  0  0  0  0  0  0  0  0
   39.4020   29.4080   39.0480 H   0  0  0  0  0  0  0  0  0  0  0  0
   36.6070   30.8820   39.3390 H   0  0  0  0  0  0  0  0  0  0  0  0
   38.0120   31.1260   40.4830 H   0  0  0  0  0  0  0  0  0  0  0  0
   36.5980   28.4040   39.8270 H   0  0  0  0  0  0  0  0  0  0  0  0
   36.9000   30.0630   36.8700 C   0  0  0  0  0  0  0  0  0  0  0  0
   37.8410   29.2290   37.5350 C   0  0  0  0  0  0  0  0  0  0  0  0
   38.2940   28.1160   36.8520 C   0  0  0  0  0  0  0  0  0  0  0  0
   37.8100   27.9030   35.6010 N   0  0  0  0  0  0  0  0  0  0  0  0
   36.9200   28.7090   34.9930 C   0  0  0  0  0  0  0  0  0  0  0  0
   36.4480   29.8140   35.6310 N   0  0  0  0  0  0  0  0  0  0  0  0
   36.5820   30.9220   37.4590 H   0  0  0  0  0  0  0  0  0  0  0  0
   39.0090   27.4450   37.3070 H   0  0  0  0  0  0  0  0  0  0  0  0
   36.5700   28.4870   33.9930 H   0  0  0  0  0  0  0  0  0  0  0  0
  1  6  1  0  0  0  0
  1  2  1  1  0  0  0
  2  8  1  0  0  0  0
  2  3  1  0  0  0  0
  3  9  1  0  0  0  0
  3 10  1  0  0  0  0
  4  3  1  0  0  0  0
  4 12  1  0  0  0  0
  4 11  1  0  0  0  0
  5 13  1  0  0  0  0
  5  4  1  0  0  0  0
  6 15  1  6  0  0  0
  6 17  1  0  0  0  0
  6  5  1  0  0  0  0
  7  2  1  0  0  0  0
 14  5  1  0  0  0  0
 16 23  2  0  0  0  0
 16 17  1  0  0  0  0
 17 18  2  0  0  0  0
 18 20  1  0  0  0  0
 18 19  1  0  0  0  0
 20 21  1  0  0  0  0
 22 20  2  0  0  0  0
 23 22  1  0  0  0  0
 24 25  1  0  0  0  0
 25 16  1  0  0  0  0
 26 25  2  0  0  0  0
 27 25  2  0  0  0  0
 28 31  1  1  0  0  0
 28 29  1  0  0  0  0
 28 30  1  0  0  0  0
 29 30  1  0  0  0  0
 29 33  1  0  0  0  0
 30 34  1  6  0  0  0
 30  1  1  0  0  0  0
 32 29  1  0  0  0  0
 35 41  1  0  0  0  0
 35 36  1  0  0  0  0
 36 28  1  0  0  0  0
 37 42  1  0  0  0  0
 37 36  2  0  0  0  0
 38 37  1  0  0  0  0
 39 38  2  0  0  0  0
 39 40  1  0  0  0  0
 40 35  2  0  0  0  0
 43 39  1  0  0  0  0
M  END
>  <minimizedAffinity>
-5.05362558

$$$$
