
 OpenBabel03242518413D

 42 45  0  0  1  0  0  0  0  0999 V2000
   38.7610   32.2700   40.0860 C   0  0  0  0  0  0  0  0  0  0  0  0
   39.1360   31.2540   39.4310 O   0  0  0  0  0  0  0  0  0  0  0  0
   39.4730   33.4950   40.2430 C   0  0  0  0  0  0  0  0  0  0  0  0
   38.7740   34.6360   40.0300 C   0  0  0  0  0  0  0  0  0  0  0  0
   39.4230   35.8490   40.1700 C   0  0  0  0  0  0  0  0  0  0  0  0
   40.7330   35.8350   40.5140 N   0  0  0  0  0  0  0  0  0  0  0  0
   41.4110   34.7030   40.7200 C   0  0  0  0  0  0  0  0  0  0  0  0
   40.7330   33.5760   40.5710 N   0  0  0  0  0  0  0  0  0  0  0  0
   37.7330   34.7190   39.7550 H   0  0  0  0  0  0  0  0  0  0  0  0
   38.9150   36.7990   40.0130 H   0  0  0  0  0  0  0  0  0  0  0  0
   43.8450   34.2800   40.3440 C   0  0  0  0  0  0  0  0  0  0  0  0
   42.8180   34.8240   41.0850 C   0  0  0  0  0  0  0  0  0  0  0  0
   43.1440   35.5160   42.2310 C   0  0  0  0  0  0  0  0  0  0  0  0
   42.3830   35.9710   42.8630 H   0  0  0  0  0  0  0  0  0  0  0  0
   44.4430   35.6930   42.6720 C   0  0  0  0  0  0  0  0  0  0  0  0
   44.6880   36.2400   43.5760 H   0  0  0  0  0  0  0  0  0  0  0  0
   45.4910   35.1620   41.9530 C   0  0  0  0  0  3  0  0  0  0  0  0
   45.1510   34.4710   40.8080 C   0  0  0  0  0  3  0  0  0  0  0  0
   42.3350   32.6670   39.1310 H   0  0  0  0  0  0  0  0  0  0  0  0
   43.4970   33.3930   38.8830 S   0  0  0  0  0  0  0  0  0  0  0  0
   43.1990   34.2770   37.7200 O   0  0  0  0  0  0  0  0  0  0  0  0
   44.5960   32.4030   38.6250 O   0  0  0  0  0  0  0  0  0  0  0  0
   37.5100   32.1740   40.7190 O   0  0  0  0  0  0  0  0  0  0  0  0
   36.9410   30.8870   40.9070 C   0  0  0  0  0  0  0  0  0  0  0  0
   35.8920   30.2300   40.2470 C   0  0  0  0  0  0  0  0  0  0  0  0
   35.7260   28.9830   40.8160 C   0  0  0  0  0  0  0  0  0  0  0  0
   36.6710   28.9330   41.7890 C   0  0  0  0  0  0  0  0  0  0  0  0
   37.3880   30.0500   41.8460 O   0  0  0  0  0  0  0  0  0  0  0  0
   35.3720   30.7310   39.4320 H   0  0  0  0  0  0  0  0  0  0  0  0
   34.9870   28.2720   40.4980 H   0  0  0  0  0  0  0  0  0  0  0  0
   36.8920   27.7840   42.6910 C   0  0  2  0  0  0  0  0  0  0  0  0
   37.2700   27.9940   44.0880 C   0  0  0  0  0  0  0  0  0  0  0  0
   38.3650   27.6370   43.1500 C   0  0  1  0  0  0  0  0  0  0  0  0
   36.3960   26.8510   42.3650 H   0  0  0  0  0  0  0  0  0  0  0  0
   37.3250   28.9810   44.5620 H   0  0  0  0  0  0  0  0  0  0  0  0
   36.9260   27.1850   44.7950 H   0  0  0  0  0  0  0  0  0  0  0  0
   39.0770   28.3660   42.7690 H   0  0  0  0  0  0  0  0  0  0  0  0
   40.0480   25.9280   43.7920 C   0  0  0  0  0  0  0  0  0  0  0  0
   40.8360   26.7950   44.2690 O   0  0  0  0  0  0  0  0  0  0  0  0
   38.8090   26.2470   43.1800 N   0  0  0  0  0  0  0  0  0  0  0  0
   40.3460   24.8740   43.8580 H   0  0  0  0  0  0  0  0  0  0  0  0
   38.2000   25.5160   42.7460 H   0  0  0  0  0  0  0  0  0  0  0  0
  1  3  1  0  0  0  0
  1 23  1  0  0  0  0
  2  1  2  0  0  0  0
  3  8  1  0  0  0  0
  4  5  1  0  0  0  0
  4  3  2  0  0  0  0
  5  6  2  0  0  0  0
  6  7  1  0  0  0  0
  7 12  1  0  0  0  0
  8  7  2  0  0  0  0
  9  4  1  0  0  0  0
 10  5  1  0  0  0  0
 11 18  2  0  0  0  0
 11 12  1  0  0  0  0
 12 13  2  0  0  0  0
 13 15  1  0  0  0  0
 13 14  1  0  0  0  0
 15 16  1  0  0  0  0
 17 15  2  0  0  0  0
 18 17  1  0  0  0  0
 20 19  1  0  0  0  0
 20 11  1  0  0  0  0
 21 20  2  0  0  0  0
 22 20  2  0  0  0  0
 23 24  1  0  0  0  0
 24 28  1  0  0  0  0
 25 26  1  0  0  0  0
 25 24  2  0  0  0  0
 26 27  2  0  0  0  0
 27 28  1  0  0  0  0
 27 31  1  0  0  0  0
 29 25  1  0  0  0  0
 30 26  1  0  0  0  0
 31 34  1  6  0  0  0
 31 33  1  0  0  0  0
 31 32  1  0  0  0  0
 32 35  1  0  0  0  0
 32 36  1  0  0  0  0
 33 37  1  6  0  0  0
 33 40  1  0  0  0  0
 33 32  1  0  0  0  0
 38 41  1  0  0  0  0
 38 39  2  0  0  0  0
 40 38  1  0  0  0  0
 42 40  1  0  0  0  0
M  END
>  <minimizedAffinity>
-6.97288656

$$$$

 OpenBabel03242518413D

 42 45  0  0  1  0  0  0  0  0999 V2000
   38.6080   32.9120   40.2260 C   0  0  0  0  0  0  0  0  0  0  0  0
   37.3480   32.9020   40.1100 O   0  0  0  0  0  0  0  0  0  0  0  0
   39.4450   34.0590   40.3410 C   0  0  0  0  0  0  0  0  0  0  0  0
   38.8860   35.2540   40.0300 C   0  0  0  0  0  0  0  0  0  0  0  0
   39.6610   36.3960   40.1250 C   0  0  0  0  0  0  0  0  0  0  0  0
   40.9480   36.2620   40.5260 N   0  0  0  0  0  0  0  0  0  0  0  0
   41.4870   35.0780   40.8290 C   0  0  0  0  0  0  0  0  0  0  0  0
   40.6940   34.0250   40.7180 N   0  0  0  0  0  0  0  0  0  0  0  0
   37.8720   35.4320   39.7050 H   0  0  0  0  0  0  0  0  0  0  0  0
   39.2680   37.3830   39.8890 H   0  0  0  0  0  0  0  0  0  0  0  0
   43.8870   34.4500   40.5340 C   0  0  0  0  0  0  0  0  0  0  0  0
   42.8840   35.0690   41.2480 C   0  0  0  0  0  0  0  0  0  0  0  0
   43.2250   35.7110   42.4190 C   0  0  0  0  0  0  0  0  0  0  0  0
   42.4840   36.2210   43.0320 H   0  0  0  0  0  0  0  0  0  0  0  0
   44.5180   35.7660   42.9100 C   0  0  0  0  0  0  0  0  0  0  0  0
   44.7740   36.2740   43.8320 H   0  0  0  0  0  0  0  0  0  0  0  0
   45.5410   35.1570   42.2190 C   0  0  0  0  0  3  0  0  0  0  0  0
   45.1870   34.5170   41.0490 C   0  0  0  0  0  3  0  0  0  0  0  0
   42.3180   34.1550   38.5830 H   0  0  0  0  0  0  0  0  0  0  0  0
   43.5190   33.6210   39.0440 S   0  0  0  0  0  0  0  0  0  0  0  0
   44.5260   33.8680   37.9740 O   0  0  0  0  0  0  0  0  0  0  0  0
   43.2820   32.1650   39.3260 O   0  0  0  0  0  0  0  0  0  0  0  0
   39.2400   31.6570   40.2460 O   0  0  0  0  0  0  0  0  0  0  0  0
   38.8580   30.7190   41.2410 C   0  0  0  0  0  0  0  0  0  0  0  0
   39.2990   30.5320   42.5590 C   0  0  0  0  0  0  0  0  0  0  0  0
   38.6050   29.4720   43.1090 C   0  0  0  0  0  0  0  0  0  0  0  0
   37.7780   29.0630   42.1130 C   0  0  0  0  0  0  0  0  0  0  0  0
   37.9230   29.7940   41.0130 O   0  0  0  0  0  0  0  0  0  0  0  0
   40.0710   31.1830   42.9660 H   0  0  0  0  0  0  0  0  0  0  0  0
   38.7500   29.1160   44.1120 H   0  0  0  0  0  0  0  0  0  0  0  0
   36.8240   27.9400   42.2180 C   0  0  2  0  0  0  0  0  0  0  0  0
   36.5140   27.3450   43.5180 C   0  0  0  0  0  0  0  0  0  0  0  0
   37.4850   26.6110   42.6650 C   0  0  1  0  0  0  0  0  0  0  0  0
   36.1190   27.8640   41.3700 H   0  0  0  0  0  0  0  0  0  0  0  0
   36.8890   27.7350   44.4710 H   0  0  0  0  0  0  0  0  0  0  0  0
   35.4790   26.9040   43.5990 H   0  0  0  0  0  0  0  0  0  0  0  0
   38.5580   26.6280   42.8430 H   0  0  0  0  0  0  0  0  0  0  0  0
   37.7070   24.2480   41.9370 C   0  0  0  0  0  0  0  0  0  0  0  0
   38.8460   24.1260   42.4730 O   0  0  0  0  0  0  0  0  0  0  0  0
   36.9620   25.4540   41.9450 N   0  0  0  0  0  0  0  0  0  0  0  0
   37.2780   23.3680   41.4410 H   0  0  0  0  0  0  0  0  0  0  0  0
   36.0450   25.5430   41.4500 H   0  0  0  0  0  0  0  0  0  0  0  0
  1 23  1  0  0  0  0
  1  3  1  0  0  0  0
  2  1  2  0  0  0  0
  3  8  1  0  0  0  0
  4  5  1  0  0  0  0
  4  3  2  0  0  0  0
  5  6  2  0  0  0  0
  6  7  1  0  0  0  0
  7 12  1  0  0  0  0
  8  7  2  0  0  0  0
  9  4  1  0  0  0  0
 10  5  1  0  0  0  0
 11 18  2  0  0  0  0
 11 12  1  0  0  0  0
 12 13  2  0  0  0  0
 13 15  1  0  0  0  0
 13 14  1  0  0  0  0
 15 16  1  0  0  0  0
 17 15  2  0  0  0  0
 18 17  1  0  0  0  0
 19 20  1  0  0  0  0
 20 22  2  0  0  0  0
 20 11  1  0  0  0  0
 21 20  2  0  0  0  0
 23 24  1  0  0  0  0
 24 25  2  0  0  0  0
 25 29  1  0  0  0  0
 25 26  1  0  0  0  0
 26 30  1  0  0  0  0
 27 31  1  0  0  0  0
 27 26  2  0  0  0  0
 28 24  1  0  0  0  0
 28 27  1  0  0  0  0
 31 34  1  6  0  0  0
 31 33  1  0  0  0  0
 31 32  1  0  0  0  0
 32 36  1  0  0  0  0
 32 35  1  0  0  0  0
 33 37  1  1  0  0  0
 33 32  1  0  0  0  0
 38 40  1  0  0  0  0
 38 39  2  0  0  0  0
 40 33  1  0  0  0  0
 41 38  1  0  0  0  0
 42 40  1  0  0  0  0
M  END
>  <minimizedAffinity>
-6.74815035

$$$$

 OpenBabel03242518413D

 42 45  0  0  1  0  0  0  0  0999 V2000
   39.2560   31.1340   39.0150 C   0  0  0  0  0  0  0  0  0  0  0  0
   40.3060   30.5930   38.5600 O   0  0  0  0  0  0  0  0  0  0  0  0
   38.1940   30.4860   39.7110 C   0  0  0  0  0  0  0  0  0  0  0  0
   37.1810   31.2740   40.1450 C   0  0  0  0  0  0  0  0  0  0  0  0
   36.1290   30.6900   40.8270 C   0  0  0  0  0  0  0  0  0  0  0  0
   36.1650   29.3500   41.0280 N   0  0  0  0  0  0  0  0  0  0  0  0
   37.1700   28.5850   40.5950 C   0  0  0  0  0  0  0  0  0  0  0  0
   38.1460   29.2040   39.9500 N   0  0  0  0  0  0  0  0  0  0  0  0
   37.0890   32.3430   40.0190 H   0  0  0  0  0  0  0  0  0  0  0  0
   35.2860   31.2700   41.1990 H   0  0  0  0  0  0  0  0  0  0  0  0
   37.4810   26.5940   42.0730 C   0  0  0  0  0  0  0  0  0  0  0  0
   37.0900   27.1560   40.8760 C   0  0  0  0  0  0  0  0  0  0  0  0
   36.5990   26.3180   39.8980 C   0  0  0  0  0  0  0  0  0  0  0  0
   36.2720   26.6950   38.9300 H   0  0  0  0  0  0  0  0  0  0  0  0
   36.4780   24.9490   40.0560 C   0  0  0  0  0  0  0  0  0  0  0  0
   36.0900   24.3000   39.2790 H   0  0  0  0  0  0  0  0  0  0  0  0
   36.8600   24.3580   41.2400 C   0  0  0  0  0  3  0  0  0  0  0  0
   37.3500   25.2070   42.2110 C   0  0  0  0  0  3  0  0  0  0  0  0
   38.5960   28.7540   42.7390 H   0  0  0  0  0  0  0  0  0  0  0  0
   38.1100   27.6010   43.3500 S   0  0  0  0  0  0  0  0  0  0  0  0
   37.0630   28.0450   44.3120 O   0  0  0  0  0  0  0  0  0  0  0  0
   39.2770   26.9140   44.0000 O   0  0  0  0  0  0  0  0  0  0  0  0
   39.1320   32.5190   38.8110 O   0  0  0  0  0  0  0  0  0  0  0  0
   40.0090   33.3900   39.5090 C   0  0  0  0  0  0  0  0  0  0  0  0
   39.8200   34.6800   40.0250 C   0  0  0  0  0  0  0  0  0  0  0  0
   40.9960   35.0940   40.6190 C   0  0  0  0  0  0  0  0  0  0  0  0
   41.8440   34.0490   40.4410 C   0  0  0  0  0  0  0  0  0  0  0  0
   41.2680   33.0440   39.7890 O   0  0  0  0  0  0  0  0  0  0  0  0
   38.8540   35.1680   39.9110 H   0  0  0  0  0  0  0  0  0  0  0  0
   41.1250   36.0480   41.0930 H   0  0  0  0  0  0  0  0  0  0  0  0
   43.2450   34.0120   40.9080 C   0  0  2  0  0  0  0  0  0  0  0  0
   43.5680   33.5650   42.2620 C   0  0  0  0  0  0  0  0  0  0  0  0
   43.5450   35.0330   42.0350 C   0  0  1  0  0  0  0  0  0  0  0  0
   43.9920   33.9620   40.0950 H   0  0  0  0  0  0  0  0  0  0  0  0
   42.8280   33.1610   42.9630 H   0  0  0  0  0  0  0  0  0  0  0  0
   44.5840   33.0860   42.3710 H   0  0  0  0  0  0  0  0  0  0  0  0
   42.7230   35.6680   42.3590 H   0  0  0  0  0  0  0  0  0  0  0  0
   45.4630   36.2770   43.0040 C   0  0  0  0  0  0  0  0  0  0  0  0
   44.9230   36.3390   44.1470 O   0  0  0  0  0  0  0  0  0  0  0  0
   44.8440   35.6790   41.8770 N   0  0  0  0  0  0  0  0  0  0  0  0
   46.4640   36.7100   42.8870 H   0  0  0  0  0  0  0  0  0  0  0  0
   45.2900   35.6880   40.9310 H   0  0  0  0  0  0  0  0  0  0  0  0
  1  3  1  0  0  0  0
  2  1  2  0  0  0  0
  3  8  2  0  0  0  0
  3  4  1  0  0  0  0
  4  5  2  0  0  0  0
  5  6  1  0  0  0  0
  5 10  1  0  0  0  0
  7 12  1  0  0  0  0
  7  6  2  0  0  0  0
  8  7  1  0  0  0  0
  9  4  1  0  0  0  0
 11 18  1  0  0  0  0
 11 20  1  0  0  0  0
 12 11  2  0  0  0  0
 13 15  2  0  0  0  0
 13 12  1  0  0  0  0
 14 13  1  0  0  0  0
 15 17  1  0  0  0  0
 16 15  1  0  0  0  0
 17 18  2  0  0  0  0
 19 20  1  0  0  0  0
 20 22  2  0  0  0  0
 20 21  2  0  0  0  0
 23  1  1  0  0  0  0
 23 24  1  0  0  0  0
 24 28  1  0  0  0  0
 24 25  2  0  0  0  0
 25 26  1  0  0  0  0
 26 30  1  0  0  0  0
 27 26  2  0  0  0  0
 27 31  1  0  0  0  0
 28 27  1  0  0  0  0
 29 25  1  0  0  0  0
 31 34  1  6  0  0  0
 31 33  1  0  0  0  0
 31 32  1  0  0  0  0
 32 36  1  0  0  0  0
 32 35  1  0  0  0  0
 33 32  1  0  0  0  0
 33 37  1  1  0  0  0
 38 39  2  0  0  0  0
 40 33  1  0  0  0  0
 40 38  1  0  0  0  0
 41 38  1  0  0  0  0
 42 40  1  0  0  0  0
M  END
>  <minimizedAffinity>
-6.55154896

$$$$

 OpenBabel03242518413D

 42 45  0  0  1  0  0  0  0  0999 V2000
   37.7700   32.5060   40.1970 C   0  0  0  0  0  0  0  0  0  0  0  0
   37.0140   33.2330   39.4880 O   0  0  0  0  0  0  0  0  0  0  0  0
   37.7740   31.0820   40.2580 C   0  0  0  0  0  0  0  0  0  0  0  0
   36.9810   30.4340   39.3710 C   0  0  0  0  0  0  0  0  0  0  0  0
   36.9510   29.0510   39.3930 C   0  0  0  0  0  0  0  0  0  0  0  0
   37.7200   28.4110   40.3060 N   0  0  0  0  0  0  0  0  0  0  0  0
   38.4960   29.0620   41.1760 C   0  0  0  0  0  0  0  0  0  0  0  0
   38.4810   30.3840   41.1030 N   0  0  0  0  0  0  0  0  0  0  0  0
   36.3460   30.8790   38.6190 H   0  0  0  0  0  0  0  0  0  0  0  0
   36.3350   28.4740   38.7050 H   0  0  0  0  0  0  0  0  0  0  0  0
   38.7350   27.6430   43.2180 C   0  0  0  0  0  0  0  0  0  0  0  0
   39.2760   28.2570   42.1090 C   0  0  0  0  0  0  0  0  0  0  0  0
   40.6240   28.0970   41.8750 C   0  0  0  0  0  0  0  0  0  0  0  0
   41.1160   28.5530   41.0170 H   0  0  0  0  0  0  0  0  0  0  0  0
   41.4580   27.3550   42.6920 C   0  0  0  0  0  0  0  0  0  0  0  0
   42.5180   27.2360   42.4970 H   0  0  0  0  0  0  0  0  0  0  0  0
   40.9470   26.7300   43.8080 C   0  0  0  0  0  3  0  0  0  0  0  0
   39.5960   26.8980   44.0310 C   0  0  0  0  0  3  0  0  0  0  0  0
   36.5780   28.8830   42.8120 H   0  0  0  0  0  0  0  0  0  0  0  0
   37.0340   27.8070   43.5690 S   0  0  0  0  0  0  0  0  0  0  0  0
   36.2340   26.6250   43.1420 O   0  0  0  0  0  0  0  0  0  0  0  0
   36.8540   28.1700   45.0150 O   0  0  0  0  0  0  0  0  0  0  0  0
   38.7010   33.1810   41.0050 O   0  0  0  0  0  0  0  0  0  0  0  0
   39.5510   34.1450   40.4020 C   0  0  0  0  0  0  0  0  0  0  0  0
   39.6060   35.5410   40.5240 C   0  0  0  0  0  0  0  0  0  0  0  0
   40.6230   36.0140   39.7190 C   0  0  0  0  0  0  0  0  0  0  0  0
   41.1400   34.8970   39.1460 C   0  0  0  0  0  0  0  0  0  0  0  0
   40.5130   33.7960   39.5450 O   0  0  0  0  0  0  0  0  0  0  0  0
   38.9040   36.0510   41.1810 H   0  0  0  0  0  0  0  0  0  0  0  0
   40.8800   37.0520   39.6250 H   0  0  0  0  0  0  0  0  0  0  0  0
   42.2650   34.8850   38.1880 C   0  0  2  0  0  0  0  0  0  0  0  0
   42.6500   33.6510   37.5060 C   0  0  0  0  0  0  0  0  0  0  0  0
   43.4770   34.0500   38.6740 C   0  0  1  0  0  0  0  0  0  0  0  0
   42.5060   35.8760   37.7610 H   0  0  0  0  0  0  0  0  0  0  0  0
   42.0940   32.7100   37.5900 H   0  0  0  0  0  0  0  0  0  0  0  0
   43.1090   33.8000   36.4860 H   0  0  0  0  0  0  0  0  0  0  0  0
   43.3910   33.5730   39.6480 H   0  0  0  0  0  0  0  0  0  0  0  0
   45.9280   33.8890   38.3150 C   0  0  0  0  0  0  0  0  0  0  0  0
   45.9470   32.6520   38.5800 O   0  0  0  0  0  0  0  0  0  0  0  0
   44.7550   34.6840   38.3680 N   0  0  0  0  0  0  0  0  0  0  0  0
   46.8750   34.3660   38.0310 H   0  0  0  0  0  0  0  0  0  0  0  0
   44.7770   35.7150   38.1960 H   0  0  0  0  0  0  0  0  0  0  0  0
  1  3  1  0  0  0  0
  1 23  1  0  0  0  0
  2  1  2  0  0  0  0
  3  8  1  0  0  0  0
  4  5  1  0  0  0  0
  4  3  2  0  0  0  0
  5  6  2  0  0  0  0
  6  7  1  0  0  0  0
  7 12  1  0  0  0  0
  8  7  2  0  0  0  0
  9  4  1  0  0  0  0
 10  5  1  0  0  0  0
 11 20  1  0  0  0  0
 11 18  1  0  0  0  0
 12 11  2  0  0  0  0
 13 12  1  0  0  0  0
 13 15  2  0  0  0  0
 14 13  1  0  0  0  0
 15 17  1  0  0  0  0
 16 15  1  0  0  0  0
 17 18  2  0  0  0  0
 19 20  1  0  0  0  0
 20 22  2  0  0  0  0
 21 20  2  0  0  0  0
 24 25  2  0  0  0  0
 24 23  1  0  0  0  0
 25 29  1  0  0  0  0
 26 25  1  0  0  0  0
 27 28  1  0  0  0  0
 27 26  2  0  0  0  0
 28 24  1  0  0  0  0
 30 26  1  0  0  0  0
 31 34  1  6  0  0  0
 31 33  1  0  0  0  0
 31 27  1  0  0  0  0
 32 35  1  0  0  0  0
 32 31  1  0  0  0  0
 32 33  1  0  0  0  0
 33 37  1  1  0  0  0
 36 32  1  0  0  0  0
 38 40  1  0  0  0  0
 38 39  2  0  0  0  0
 40 33  1  0  0  0  0
 41 38  1  0  0  0  0
 42 40  1  0  0  0  0
M  END
>  <minimizedAffinity>
-6.5414567

$$$$

 OpenBabel03242518413D

 42 45  0  0  1  0  0  0  0  0999 V2000
   37.9100   29.8870   38.2760 C   0  0  0  0  0  0  0  0  0  0  0  0
   37.5020   29.7350   37.0880 O   0  0  0  0  0  0  0  0  0  0  0  0
   37.4500   29.1900   39.4310 C   0  0  0  0  0  0  0  0  0  0  0  0
   36.1510   29.3660   39.7720 C   0  0  0  0  0  0  0  0  0  0  0  0
   35.6600   28.7110   40.8860 C   0  0  0  0  0  0  0  0  0  0  0  0
   36.5090   27.9200   41.5860 N   0  0  0  0  0  0  0  0  0  0  0  0
   37.7880   27.7550   41.2400 C   0  0  0  0  0  0  0  0  0  0  0  0
   38.1960   28.4100   40.1640 N   0  0  0  0  0  0  0  0  0  0  0  0
   35.4220   29.9790   39.2610 H   0  0  0  0  0  0  0  0  0  0  0  0
   34.6250   28.8120   41.2090 H   0  0  0  0  0  0  0  0  0  0  0  0
   38.6690   25.5120   41.9010 C   0  0  0  0  0  0  0  0  0  0  0  0
   38.5980   26.8770   42.0770 C   0  0  0  0  0  0  0  0  0  0  0  0
   39.3340   27.4360   43.1000 C   0  0  0  0  0  0  0  0  0  0  0  0
   39.3250   28.5070   43.2950 H   0  0  0  0  0  0  0  0  0  0  0  0
   40.1360   26.7000   43.9540 C   0  0  0  0  0  0  0  0  0  0  0  0
   40.7100   27.1510   44.7550 H   0  0  0  0  0  0  0  0  0  0  0  0
   40.2270   25.3340   43.8030 C   0  0  0  0  0  3  0  0  0  0  0  0
   39.4860   24.7870   42.7760 C   0  0  0  0  0  3  0  0  0  0  0  0
   37.4140   25.7530   39.7280 H   0  0  0  0  0  0  0  0  0  0  0  0
   37.7620   24.7450   40.6240 S   0  0  0  0  0  0  0  0  0  0  0  0
   38.5640   23.7550   39.8520 O   0  0  0  0  0  0  0  0  0  0  0  0
   36.4860   24.1840   41.1840 O   0  0  0  0  0  0  0  0  0  0  0  0
   38.9210   30.8430   38.4690 O   0  0  0  0  0  0  0  0  0  0  0  0
   38.5640   32.1130   38.9960 C   0  0  0  0  0  0  0  0  0  0  0  0
   37.3420   32.7990   39.0160 C   0  0  0  0  0  0  0  0  0  0  0  0
   37.5280   34.0110   39.6520 C   0  0  0  0  0  0  0  0  0  0  0  0
   38.8420   34.0110   39.9890 C   0  0  0  0  0  0  0  0  0  0  0  0
   39.4560   32.8970   39.6060 O   0  0  0  0  0  0  0  0  0  0  0  0
   36.4610   32.3430   38.5680 H   0  0  0  0  0  0  0  0  0  0  0  0
   36.7490   34.7350   39.8030 H   0  0  0  0  0  0  0  0  0  0  0  0
   39.5300   35.1110   40.6970 C   0  0  2  0  0  0  0  0  0  0  0  0
   39.7150   36.4110   40.0530 C   0  0  0  0  0  0  0  0  0  0  0  0
   40.8880   35.4990   40.0580 C   0  0  1  0  0  0  0  0  0  0  0  0
   39.5290   35.0110   41.7970 H   0  0  0  0  0  0  0  0  0  0  0  0
   39.2950   36.6720   39.0750 H   0  0  0  0  0  0  0  0  0  0  0  0
   39.7530   37.2860   40.7640 H   0  0  0  0  0  0  0  0  0  0  0  0
   41.2020   34.9360   39.1810 H   0  0  0  0  0  0  0  0  0  0  0  0
   42.8790   34.7840   41.3590 C   0  0  0  0  0  0  0  0  0  0  0  0
   42.8650   33.6230   40.8580 O   0  0  0  0  0  0  0  0  0  0  0  0
   41.9180   35.7810   41.0540 N   0  0  0  0  0  0  0  0  0  0  0  0
   43.6810   35.0260   42.0680 H   0  0  0  0  0  0  0  0  0  0  0  0
   41.9210   36.7160   41.5220 H   0  0  0  0  0  0  0  0  0  0  0  0
  1 23  1  0  0  0  0
  1  3  1  0  0  0  0
  2  1  2  0  0  0  0
  3  4  2  0  0  0  0
  3  8  1  0  0  0  0
  4  5  1  0  0  0  0
  5 10  1  0  0  0  0
  5  6  2  0  0  0  0
  7  6  1  0  0  0  0
  7 12  1  0  0  0  0
  8  7  2  0  0  0  0
  9  4  1  0  0  0  0
 11 12  2  0  0  0  0
 11 18  1  0  0  0  0
 12 13  1  0  0  0  0
 13 14  1  0  0  0  0
 13 15  2  0  0  0  0
 15 16  1  0  0  0  0
 17 15  1  0  0  0  0
 18 17  2  0  0  0  0
 19 20  1  0  0  0  0
 20 22  2  0  0  0  0
 20 11  1  0  0  0  0
 21 20  2  0  0  0  0
 23 24  1  0  0  0  0
 24 25  2  0  0  0  0
 24 28  1  0  0  0  0
 25 26  1  0  0  0  0
 26 30  1  0  0  0  0
 26 27  2  0  0  0  0
 27 31  1  0  0  0  0
 28 27  1  0  0  0  0
 29 25  1  0  0  0  0
 31 34  1  1  0  0  0
 32 33  1  0  0  0  0
 32 31  1  0  0  0  0
 32 36  1  0  0  0  0
 33 37  1  6  0  0  0
 33 31  1  0  0  0  0
 33 40  1  0  0  0  0
 35 32  1  0  0  0  0
 38 41  1  0  0  0  0
 39 38  2  0  0  0  0
 40 38  1  0  0  0  0
 40 42  1  0  0  0  0
M  END
>  <minimizedAffinity>
-6.50997448

$$$$

 OpenBabel03242518413D

 42 45  0  0  1  0  0  0  0  0999 V2000
   37.8770   31.7640   39.8350 C   0  0  0  0  0  0  0  0  0  0  0  0
   38.2210   31.9920   38.6390 O   0  0  0  0  0  0  0  0  0  0  0  0
   37.4010   30.5290   40.3650 C   0  0  0  0  0  0  0  0  0  0  0  0
   36.0670   30.3070   40.2860 C   0  0  0  0  0  0  0  0  0  0  0  0
   35.5580   29.1230   40.7890 C   0  0  0  0  0  0  0  0  0  0  0  0
   36.4260   28.2390   41.3380 N   0  0  0  0  0  0  0  0  0  0  0  0
   37.7400   28.4700   41.4090 C   0  0  0  0  0  0  0  0  0  0  0  0
   38.1620   29.6210   40.9110 N   0  0  0  0  0  0  0  0  0  0  0  0
   35.3220   30.9650   39.8630 H   0  0  0  0  0  0  0  0  0  0  0  0
   34.4960   28.8870   40.7540 H   0  0  0  0  0  0  0  0  0  0  0  0
   39.0950   26.3720   41.3290 C   0  0  0  0  0  0  0  0  0  0  0  0
   38.5670   27.4380   42.0250 C   0  0  0  0  0  0  0  0  0  0  0  0
   38.8370   27.5280   43.3730 C   0  0  0  0  0  0  0  0  0  0  0  0
   38.4530   28.3440   43.9830 H   0  0  0  0  0  0  0  0  0  0  0  0
   39.6090   26.6070   44.0590 C   0  0  0  0  0  0  0  0  0  0  0  0
   39.8160   26.6880   45.1200 H   0  0  0  0  0  0  0  0  0  0  0  0
   40.1510   25.5320   43.3910 C   0  0  0  0  0  3  0  0  0  0  0  0
   39.8720   25.4530   42.0420 C   0  0  0  0  0  3  0  0  0  0  0  0
   37.4930   26.6650   39.4050 H   0  0  0  0  0  0  0  0  0  0  0  0
   38.7890   26.2030   39.6200 S   0  0  0  0  0  0  0  0  0  0  0  0
   39.6810   27.0520   38.7800 O   0  0  0  0  0  0  0  0  0  0  0  0
   38.8130   24.7490   39.2480 O   0  0  0  0  0  0  0  0  0  0  0  0
   37.9780   32.8440   40.7280 O   0  0  0  0  0  0  0  0  0  0  0  0
   39.0360   33.7730   40.5520 C   0  0  0  0  0  0  0  0  0  0  0  0
   39.0280   35.1450   40.2590 C   0  0  0  0  0  0  0  0  0  0  0  0
   40.3340   35.5890   40.1910 C   0  0  0  0  0  0  0  0  0  0  0  0
   41.0750   34.4800   40.4430 C   0  0  0  0  0  0  0  0  0  0  0  0
   40.3160   33.4100   40.6570 O   0  0  0  0  0  0  0  0  0  0  0  0
   38.0780   35.6610   40.1290 H   0  0  0  0  0  0  0  0  0  0  0  0
   40.6120   36.6040   39.9790 H   0  0  0  0  0  0  0  0  0  0  0  0
   42.5510   34.4440   40.4800 C   0  0  2  0  0  0  0  0  0  0  0  0
   43.2530   33.4310   41.2680 C   0  0  0  0  0  0  0  0  0  0  0  0
   43.1400   34.7840   41.8730 C   0  0  1  0  0  0  0  0  0  0  0  0
   43.0380   34.9400   39.6200 H   0  0  0  0  0  0  0  0  0  0  0  0
   42.7500   32.6110   41.7920 H   0  0  0  0  0  0  0  0  0  0  0  0
   44.2660   33.1400   40.8650 H   0  0  0  0  0  0  0  0  0  0  0  0
   42.4330   35.0190   42.6650 H   0  0  0  0  0  0  0  0  0  0  0  0
   44.9690   36.0420   42.9850 C   0  0  0  0  0  0  0  0  0  0  0  0
   44.5310   35.7750   44.1420 O   0  0  0  0  0  0  0  0  0  0  0  0
   44.3300   35.6250   41.7900 N   0  0  0  0  0  0  0  0  0  0  0  0
   45.8940   36.6280   42.9110 H   0  0  0  0  0  0  0  0  0  0  0  0
   44.6840   35.9040   40.8460 H   0  0  0  0  0  0  0  0  0  0  0  0
  1  3  1  0  0  0  0
  1 23  1  0  0  0  0
  2  1  2  0  0  0  0
  3  8  1  0  0  0  0
  4  3  2  0  0  0  0
  4  5  1  0  0  0  0
  5  6  2  0  0  0  0
  6  7  1  0  0  0  0
  7 12  1  0  0  0  0
  8  7  2  0  0  0  0
  9  4  1  0  0  0  0
 10  5  1  0  0  0  0
 11 12  2  0  0  0  0
 11 18  1  0  0  0  0
 12 13  1  0  0  0  0
 13 14  1  0  0  0  0
 13 15  2  0  0  0  0
 15 16  1  0  0  0  0
 17 15  1  0  0  0  0
 18 17  2  0  0  0  0
 19 20  1  0  0  0  0
 20 11  1  0  0  0  0
 21 20  2  0  0  0  0
 22 20  2  0  0  0  0
 24 28  1  0  0  0  0
 24 23  1  0  0  0  0
 25 24  2  0  0  0  0
 26 25  1  0  0  0  0
 26 27  2  0  0  0  0
 27 31  1  0  0  0  0
 27 28  1  0  0  0  0
 29 25  1  0  0  0  0
 30 26  1  0  0  0  0
 31 34  1  6  0  0  0
 31 32  1  0  0  0  0
 31 33  1  0  0  0  0
 32 35  1  0  0  0  0
 32 33  1  0  0  0  0
 33 37  1  1  0  0  0
 36 32  1  0  0  0  0
 38 39  2  0  0  0  0
 40 33  1  0  0  0  0
 40 38  1  0  0  0  0
 41 38  1  0  0  0  0
 42 40  1  0  0  0  0
M  END
>  <minimizedAffinity>
-6.34226131

$$$$

 OpenBabel03242518413D

 42 45  0  0  1  0  0  0  0  0999 V2000
   38.9600   31.3830   41.2410 C   0  0  0  0  0  0  0  0  0  0  0  0
   38.0180   30.7680   40.6600 O   0  0  0  0  0  0  0  0  0  0  0  0
   39.6070   32.5710   40.7920 C   0  0  0  0  0  0  0  0  0  0  0  0
   38.8460   33.6890   40.7200 C   0  0  0  0  0  0  0  0  0  0  0  0
   39.4300   34.8660   40.2890 C   0  0  0  0  0  0  0  0  0  0  0  0
   40.7440   34.8410   39.9580 N   0  0  0  0  0  0  0  0  0  0  0  0
   41.4840   33.7320   40.0340 C   0  0  0  0  0  0  0  0  0  0  0  0
   40.8650   32.6400   40.4540 N   0  0  0  0  0  0  0  0  0  0  0  0
   37.7980   33.7780   40.9670 H   0  0  0  0  0  0  0  0  0  0  0  0
   38.8700   35.7960   40.2100 H   0  0  0  0  0  0  0  0  0  0  0  0
   43.8940   34.1630   40.5320 C   0  0  0  0  0  0  0  0  0  0  0  0
   42.8870   33.8380   39.6490 C   0  0  0  0  0  0  0  0  0  0  0  0
   43.2290   33.6030   38.3350 C   0  0  0  0  0  0  0  0  0  0  0  0
   42.4840   33.3420   37.5850 H   0  0  0  0  0  0  0  0  0  0  0  0
   44.5270   33.6750   37.8600 C   0  0  0  0  0  0  0  0  0  0  0  0
   44.7840   33.4880   36.8240 H   0  0  0  0  0  0  0  0  0  0  0  0
   45.5550   33.9970   38.7180 C   0  0  0  0  0  3  0  0  0  0  0  0
   45.1990   34.2310   40.0310 C   0  0  0  0  0  3  0  0  0  0  0  0
   42.4470   33.6510   42.5320 H   0  0  0  0  0  0  0  0  0  0  0  0
   43.5250   34.4710   42.2090 S   0  0  0  0  0  0  0  0  0  0  0  0
   44.6330   34.0910   43.1300 O   0  0  0  0  0  0  0  0  0  0  0  0
   43.0670   35.8930   42.3670 O   0  0  0  0  0  0  0  0  0  0  0  0
   39.4070   30.8320   42.4540 O   0  0  0  0  0  0  0  0  0  0  0  0
   39.1260   29.4680   42.7250 C   0  0  0  0  0  0  0  0  0  0  0  0
   38.0680   28.8570   43.4150 C   0  0  0  0  0  0  0  0  0  0  0  0
   38.2620   27.4900   43.3990 C   0  0  0  0  0  0  0  0  0  0  0  0
   39.4180   27.3270   42.7060 C   0  0  0  0  0  0  0  0  0  0  0  0
   39.9290   28.4870   42.3070 O   0  0  0  0  0  0  0  0  0  0  0  0
   37.2830   29.4730   43.8490 H   0  0  0  0  0  0  0  0  0  0  0  0
   37.5960   26.7840   43.8580 H   0  0  0  0  0  0  0  0  0  0  0  0
   40.0510   26.0230   42.4180 C   0  0  2  0  0  0  0  0  0  0  0  0
   39.7420   24.8490   43.2340 C   0  0  0  0  0  0  0  0  0  0  0  0
   41.0180   25.5500   43.5340 C   0  0  1  0  0  0  0  0  0  0  0  0
   40.4250   25.9200   41.3840 H   0  0  0  0  0  0  0  0  0  0  0  0
   38.9850   24.8400   44.0260 H   0  0  0  0  0  0  0  0  0  0  0  0
   39.8220   23.8640   42.6910 H   0  0  0  0  0  0  0  0  0  0  0  0
   41.1430   26.2070   44.3910 H   0  0  0  0  0  0  0  0  0  0  0  0
   43.4940   25.3920   43.4500 C   0  0  0  0  0  0  0  0  0  0  0  0
   43.6440   26.3600   44.2500 O   0  0  0  0  0  0  0  0  0  0  0  0
   42.2290   24.9330   43.0020 N   0  0  0  0  0  0  0  0  0  0  0  0
   44.3970   24.8840   43.0860 H   0  0  0  0  0  0  0  0  0  0  0  0
   42.1360   24.1650   42.3000 H   0  0  0  0  0  0  0  0  0  0  0  0
  1 23  1  0  0  0  0
  2  1  2  0  0  0  0
  3  1  1  0  0  0  0
  4  3  1  0  0  0  0
  4  9  1  0  0  0  0
  5  4  2  0  0  0  0
  6  7  2  0  0  0  0
  6  5  1  0  0  0  0
  7  8  1  0  0  0  0
  8  3  2  0  0  0  0
 10  5  1  0  0  0  0
 11 20  1  0  0  0  0
 12  7  1  0  0  0  0
 12 11  2  0  0  0  0
 13 12  1  0  0  0  0
 14 13  1  0  0  0  0
 15 13  2  0  0  0  0
 15 17  1  0  0  0  0
 16 15  1  0  0  0  0
 17 18  2  0  0  0  0
 18 11  1  0  0  0  0
 20 22  2  0  0  0  0
 20 19  1  0  0  0  0
 20 21  2  0  0  0  0
 23 24  1  0  0  0  0
 24 25  2  0  0  0  0
 25 29  1  0  0  0  0
 26 25  1  0  0  0  0
 26 30  1  0  0  0  0
 27 26  2  0  0  0  0
 28 27  1  0  0  0  0
 28 24  1  0  0  0  0
 31 34  1  6  0  0  0
 31 27  1  0  0  0  0
 31 32  1  0  0  0  0
 31 33  1  0  0  0  0
 32 33  1  0  0  0  0
 32 35  1  0  0  0  0
 33 37  1  1  0  0  0
 36 32  1  0  0  0  0
 38 39  2  0  0  0  0
 40 38  1  0  0  0  0
 40 33  1  0  0  0  0
 41 38  1  0  0  0  0
 42 40  1  0  0  0  0
M  END
>  <minimizedAffinity>
-6.22679234

$$$$

 OpenBabel03242518413D

 42 45  0  0  1  0  0  0  0  0999 V2000
   36.4520   29.7980   41.1400 C   0  0  0  0  0  0  0  0  0  0  0  0
   35.4300   29.0680   40.9810 O   0  0  0  0  0  0  0  0  0  0  0  0
   37.0460   30.6570   40.1700 C   0  0  0  0  0  0  0  0  0  0  0  0
   36.7770   30.3850   38.8700 C   0  0  0  0  0  0  0  0  0  0  0  0
   37.3330   31.1900   37.8930 C   0  0  0  0  0  0  0  0  0  0  0  0
   38.1240   32.2170   38.2870 N   0  0  0  0  0  0  0  0  0  0  0  0
   38.3820   32.4740   39.5720 C   0  0  0  0  0  0  0  0  0  0  0  0
   37.8200   31.6670   40.4580 N   0  0  0  0  0  0  0  0  0  0  0  0
   36.1580   29.5860   38.4880 H   0  0  0  0  0  0  0  0  0  0  0  0
   37.1530   31.0220   36.8330 H   0  0  0  0  0  0  0  0  0  0  0  0
   40.6240   33.5180   39.9290 C   0  0  0  0  0  0  0  0  0  0  0  0
   39.2500   33.6090   39.8640 C   0  0  0  0  0  0  0  0  0  0  0  0
   38.6730   34.8400   40.0890 C   0  0  0  0  0  0  0  0  0  0  0  0
   37.5940   34.9830   40.0520 H   0  0  0  0  0  0  0  0  0  0  0  0
   39.3990   35.9820   40.3740 C   0  0  0  0  0  0  0  0  0  0  0  0
   38.9330   36.9460   40.5480 H   0  0  0  0  0  0  0  0  0  0  0  0
   40.7730   35.9230   40.4450 C   0  0  0  0  0  3  0  0  0  0  0  0
   41.3390   34.6850   40.2190 C   0  0  0  0  0  3  0  0  0  0  0  0
   40.5600   31.2420   38.8460 H   0  0  0  0  0  0  0  0  0  0  0  0
   41.4150   31.9870   39.6540 S   0  0  0  0  0  0  0  0  0  0  0  0
   42.6950   32.1190   38.9030 O   0  0  0  0  0  0  0  0  0  0  0  0
   41.5510   31.2530   40.9570 O   0  0  0  0  0  0  0  0  0  0  0  0
   37.0560   29.7540   42.4080 O   0  0  0  0  0  0  0  0  0  0  0  0
   38.1020   28.8200   42.6290 C   0  0  0  0  0  0  0  0  0  0  0  0
   39.4860   28.9940   42.7790 C   0  0  0  0  0  0  0  0  0  0  0  0
   40.0670   27.7560   42.9730 C   0  0  0  0  0  0  0  0  0  0  0  0
   39.0230   26.8890   42.9340 C   0  0  0  0  0  0  0  0  0  0  0  0
   37.8660   27.5100   42.7330 O   0  0  0  0  0  0  0  0  0  0  0  0
   39.9100   29.9950   42.7290 H   0  0  0  0  0  0  0  0  0  0  0  0
   41.1200   27.6040   43.1150 H   0  0  0  0  0  0  0  0  0  0  0  0
   39.1380   25.4250   43.0940 C   0  0  2  0  0  0  0  0  0  0  0  0
   40.3640   24.7270   42.7080 C   0  0  0  0  0  0  0  0  0  0  0  0
   39.2330   24.6660   41.7460 C   0  0  1  0  0  0  0  0  0  0  0  0
   38.4440   24.9950   43.8380 H   0  0  0  0  0  0  0  0  0  0  0  0
   41.2740   25.2370   42.3710 H   0  0  0  0  0  0  0  0  0  0  0  0
   40.5770   23.7900   43.2980 H   0  0  0  0  0  0  0  0  0  0  0  0
   39.1980   25.2630   40.8380 H   0  0  0  0  0  0  0  0  0  0  0  0
   38.2990   22.7140   40.5270 C   0  0  0  0  0  0  0  0  0  0  0  0
   38.7400   23.1210   39.4140 O   0  0  0  0  0  0  0  0  0  0  0  0
   38.4600   23.4280   41.7430 N   0  0  0  0  0  0  0  0  0  0  0  0
   37.7630   21.7570   40.5470 H   0  0  0  0  0  0  0  0  0  0  0  0
   38.0400   23.0950   42.6400 H   0  0  0  0  0  0  0  0  0  0  0  0
  1 23  1  0  0  0  0
  2  1  2  0  0  0  0
  3  8  1  0  0  0  0
  3  1  1  0  0  0  0
  4  3  2  0  0  0  0
  5  6  2  0  0  0  0
  5  4  1  0  0  0  0
  6  7  1  0  0  0  0
  7 12  1  0  0  0  0
  7  8  2  0  0  0  0
  9  4  1  0  0  0  0
 10  5  1  0  0  0  0
 11 18  1  0  0  0  0
 12 11  2  0  0  0  0
 12 13  1  0  0  0  0
 13 15  2  0  0  0  0
 14 13  1  0  0  0  0
 15 17  1  0  0  0  0
 15 16  1  0  0  0  0
 18 17  2  0  0  0  0
 19 20  1  0  0  0  0
 20 11  1  0  0  0  0
 20 22  2  0  0  0  0
 21 20  2  0  0  0  0
 23 24  1  0  0  0  0
 24 28  1  0  0  0  0
 24 25  2  0  0  0  0
 25 26  1  0  0  0  0
 26 30  1  0  0  0  0
 27 26  2  0  0  0  0
 27 31  1  0  0  0  0
 28 27  1  0  0  0  0
 29 25  1  0  0  0  0
 31 34  1  1  0  0  0
 32 31  1  0  0  0  0
 32 36  1  0  0  0  0
 33 37  1  6  0  0  0
 33 32  1  0  0  0  0
 33 31  1  0  0  0  0
 35 32  1  0  0  0  0
 38 41  1  0  0  0  0
 38 40  1  0  0  0  0
 39 38  2  0  0  0  0
 40 33  1  0  0  0  0
 40 42  1  0  0  0  0
M  END
>  <minimizedAffinity>
-6.17632341

$$$$

 OpenBabel03242518413D

 42 45  0  0  1  0  0  0  0  0999 V2000
   37.7380   30.1050   37.9820 C   0  0  0  0  0  0  0  0  0  0  0  0
   38.1720   29.5120   36.9510 O   0  0  0  0  0  0  0  0  0  0  0  0
   37.2160   29.4960   39.1600 C   0  0  0  0  0  0  0  0  0  0  0  0
   36.0730   30.0210   39.6620 C   0  0  0  0  0  0  0  0  0  0  0  0
   35.5300   29.4640   40.8060 C   0  0  0  0  0  0  0  0  0  0  0  0
   36.1730   28.4140   41.3700 N   0  0  0  0  0  0  0  0  0  0  0  0
   37.3000   27.9050   40.8660 C   0  0  0  0  0  0  0  0  0  0  0  0
   37.7680   28.4830   39.7710 N   0  0  0  0  0  0  0  0  0  0  0  0
   35.5110   30.8540   39.2650 H   0  0  0  0  0  0  0  0  0  0  0  0
   34.6130   29.8420   41.2550 H   0  0  0  0  0  0  0  0  0  0  0  0
   38.9550   26.8940   42.4420 C   0  0  0  0  0  0  0  0  0  0  0  0
   37.8950   26.7740   41.5680 C   0  0  0  0  0  0  0  0  0  0  0  0
   37.3750   25.5170   41.3520 C   0  0  0  0  0  0  0  0  0  0  0  0
   36.5380   25.3500   40.6760 H   0  0  0  0  0  0  0  0  0  0  0  0
   37.8600   24.3750   41.9640 C   0  0  0  0  0  0  0  0  0  0  0  0
   37.4420   23.3900   41.7870 H   0  0  0  0  0  0  0  0  0  0  0  0
   38.9180   24.4630   42.8420 C   0  0  0  0  0  3  0  0  0  0  0  0
   39.4300   25.7270   43.0490 C   0  0  0  0  0  3  0  0  0  0  0  0
   40.5690   28.2800   43.7940 H   0  0  0  0  0  0  0  0  0  0  0  0
   39.6570   28.4590   42.7580 S   0  0  0  0  0  0  0  0  0  0  0  0
   40.4330   28.9940   41.6040 O   0  0  0  0  0  0  0  0  0  0  0  0
   38.5930   29.3940   43.2560 O   0  0  0  0  0  0  0  0  0  0  0  0
   37.7790   31.5090   37.9550 O   0  0  0  0  0  0  0  0  0  0  0  0
   38.7150   32.1770   38.7870 C   0  0  0  0  0  0  0  0  0  0  0  0
   39.8940   31.7330   39.4020 C   0  0  0  0  0  0  0  0  0  0  0  0
   40.4420   32.7810   40.1140 C   0  0  0  0  0  0  0  0  0  0  0  0
   39.5820   33.8100   39.9050 C   0  0  0  0  0  0  0  0  0  0  0  0
   38.5650   33.4600   39.1250 O   0  0  0  0  0  0  0  0  0  0  0  0
   40.2170   30.7020   39.2630 H   0  0  0  0  0  0  0  0  0  0  0  0
   41.3510   32.7110   40.6810 H   0  0  0  0  0  0  0  0  0  0  0  0
   39.7390   35.1670   40.4690 C   0  0  2  0  0  0  0  0  0  0  0  0
   40.4500   36.2060   39.7240 C   0  0  0  0  0  0  0  0  0  0  0  0
   41.2090   35.5260   40.8060 C   0  0  1  0  0  0  0  0  0  0  0  0
   38.9930   35.4250   41.2420 H   0  0  0  0  0  0  0  0  0  0  0  0
   40.8220   36.0760   38.7010 H   0  0  0  0  0  0  0  0  0  0  0  0
   40.1020   37.2580   39.9350 H   0  0  0  0  0  0  0  0  0  0  0  0
   41.9620   34.7660   40.6110 H   0  0  0  0  0  0  0  0  0  0  0  0
   42.6150   36.4110   42.6510 C   0  0  0  0  0  0  0  0  0  0  0  0
   43.6670   35.8880   42.1820 O   0  0  0  0  0  0  0  0  0  0  0  0
   41.3340   36.2600   42.0610 N   0  0  0  0  0  0  0  0  0  0  0  0
   42.7060   37.0120   43.5650 H   0  0  0  0  0  0  0  0  0  0  0  0
   40.4720   36.6590   42.4990 H   0  0  0  0  0  0  0  0  0  0  0  0
  1  3  1  0  0  0  0
  2  1  2  0  0  0  0
  3  4  2  0  0  0  0
  3  8  1  0  0  0  0
  4  5  1  0  0  0  0
  5 10  1  0  0  0  0
  5  6  2  0  0  0  0
  7  6  1  0  0  0  0
  7 12  1  0  0  0  0
  8  7  2  0  0  0  0
  9  4  1  0  0  0  0
 11 20  1  0  0  0  0
 11 18  1  0  0  0  0
 12 11  2  0  0  0  0
 13 12  1  0  0  0  0
 13 15  2  0  0  0  0
 14 13  1  0  0  0  0
 15 17  1  0  0  0  0
 16 15  1  0  0  0  0
 17 18  2  0  0  0  0
 20 22  2  0  0  0  0
 20 19  1  0  0  0  0
 21 20  2  0  0  0  0
 23  1  1  0  0  0  0
 23 24  1  0  0  0  0
 24 28  1  0  0  0  0
 24 25  2  0  0  0  0
 25 26  1  0  0  0  0
 26 30  1  0  0  0  0
 27 26  2  0  0  0  0
 27 31  1  0  0  0  0
 28 27  1  0  0  0  0
 29 25  1  0  0  0  0
 31 33  1  0  0  0  0
 31 34  1  1  0  0  0
 32 36  1  0  0  0  0
 32 31  1  0  0  0  0
 32 33  1  0  0  0  0
 33 37  1  6  0  0  0
 33 40  1  0  0  0  0
 35 32  1  0  0  0  0
 38 41  1  0  0  0  0
 39 38  2  0  0  0  0
 40 42  1  0  0  0  0
 40 38  1  0  0  0  0
M  END
>  <minimizedAffinity>
-6.16695786

$$$$
