
 OpenBabel03242512003D

 50 53  0  0  1  0  0  0  0  0999 V2000
   47.1830   34.1190   42.4350 C   0  0  2  0  0  0  0  0  0  0  0  0
   48.5720   34.6580   42.6030 C   0  0  0  0  0  0  0  0  0  0  0  0
   48.9190   35.6630   41.5760 C   0  0  0  0  0  0  0  0  0  0  0  0
   48.7350   35.1490   40.1590 C   0  0  0  0  0  0  0  0  0  0  0  0
   47.5120   34.3000   39.9850 C   0  0  0  0  0  0  0  0  0  0  0  0
   46.5380   34.4210   41.1340 C   0  0  1  0  0  0  0  0  0  0  0  0
   47.2960   32.9950   42.5150 H   0  0  0  0  0  0  0  0  0  0  0  0
   48.6130   35.1450   43.5960 H   0  0  0  0  0  0  0  0  0  0  0  0
   49.3480   33.8680   42.6200 H   0  0  0  0  0  0  0  0  0  0  0  0
   48.3760   36.6050   41.7540 H   0  0  0  0  0  0  0  0  0  0  0  0
   50.0080   35.8980   41.6610 H   0  0  0  0  0  0  0  0  0  0  0  0
   49.6520   34.5830   39.8630 H   0  0  0  0  0  0  0  0  0  0  0  0
   48.6990   36.0470   39.5080 H   0  0  0  0  0  0  0  0  0  0  0  0
   46.9920   34.6400   39.0780 H   0  0  0  0  0  0  0  0  0  0  0  0
   47.8010   33.2420   39.8480 H   0  0  0  0  0  0  0  0  0  0  0  0
   46.0760   35.4120   41.0200 H   0  0  0  0  0  0  0  0  0  0  0  0
   46.2870   34.4830   43.5510 C   0  0  0  0  0  0  0  0  0  0  0  0
   45.5750   35.6470   43.3210 C   0  0  0  0  0  0  0  0  0  0  0  0
   44.6780   36.1160   44.2960 C   0  0  0  0  0  0  0  0  0  0  0  0
   44.5830   35.3350   45.4540 N   0  0  0  0  0  0  0  0  0  0  0  0
   45.3020   34.2070   45.6280 C   0  0  0  0  0  0  0  0  0  0  0  0
   46.1490   33.7950   44.6690 N   0  0  0  0  0  0  0  0  0  0  0  0
   45.5150   36.3730   42.5250 H   0  0  0  0  0  0  0  0  0  0  0  0
   44.0480   36.9900   44.2860 H   0  0  0  0  0  0  0  0  0  0  0  0
   45.1800   33.6590   46.5400 H   0  0  0  0  0  0  0  0  0  0  0  0
   45.4420   33.4150   40.9100 C   0  0  2  0  0  0  0  0  0  0  0  0
   44.9770   33.1870   39.4860 C   0  0  0  0  0  0  0  0  0  0  0  0
   44.0930   33.8620   40.4590 C   0  0  1  0  0  0  0  0  0  0  0  0
   45.5670   32.4710   41.4800 H   0  0  0  0  0  0  0  0  0  0  0  0
   45.3660   33.7990   38.6610 H   0  0  0  0  0  0  0  0  0  0  0  0
   44.6840   32.1610   39.1760 H   0  0  0  0  0  0  0  0  0  0  0  0
   43.9930   34.9690   40.4270 H   0  0  0  0  0  0  0  0  0  0  0  0
   42.9840   33.1650   41.1770 C   0  0  0  0  0  0  0  0  0  0  0  0
   43.3230   33.0260   42.2400 H   0  0  0  0  0  0  0  0  0  0  0  0
   42.8760   32.1460   40.7600 H   0  0  0  0  0  0  0  0  0  0  0  0
   41.6990   33.9300   41.2340 C   0  0  0  0  0  0  0  0  0  0  0  0
   41.9050   34.9090   41.7670 H   0  0  0  0  0  0  0  0  0  0  0  0
   41.0120   33.4030   41.9250 H   0  0  0  0  0  0  0  0  0  0  0  0
   40.1330   33.5560   39.3530 C   0  0  0  0  0  0  0  0  0  0  0  0
   41.1340   34.3000   39.9390 C   0  0  0  0  0  0  0  0  0  0  0  0
   41.5610   35.4180   39.2120 C   0  0  0  0  0  0  0  0  0  0  0  0
   42.3490   35.9900   39.6910 H   0  0  0  0  0  0  0  0  0  0  0  0
   41.0420   35.8000   37.9730 C   0  0  0  0  0  0  0  0  0  0  0  0
   41.4740   36.6830   37.5400 H   0  0  0  0  0  0  0  0  0  0  0  0
   40.0460   35.0260   37.4320 C   0  0  0  0  0  0  0  0  0  0  0  0
   39.6020   33.9160   38.1220 C   0  0  0  0  0  0  0  0  0  0  0  0
   38.3800   31.6750   39.2930 H   0  0  0  0  0  0  0  0  0  0  0  0
   39.4390   32.1300   40.0550 S   0  0  0  0  0  0  0  0  0  0  0  0
   40.4840   31.0280   39.9340 O   0  0  0  0  0  0  0  0  0  0  0  0
   38.9240   32.2920   41.4320 O   0  0  0  0  0  0  0  0  0  0  0  0
  1  7  1  1  0  0  0
  1  2  1  0  0  0  0
  1 17  1  0  0  0  0
  2  9  1  0  0  0  0
  2  8  1  0  0  0  0
  3 11  1  0  0  0  0
  3 10  1  0  0  0  0
  3  2  1  0  0  0  0
  4  3  1  0  0  0  0
  5  4  1  0  0  0  0
  5  6  1  0  0  0  0
  6 16  1  1  0  0  0
  6  1  1  0  0  0  0
 12  4  1  0  0  0  0
 13  4  1  0  0  0  0
 14  5  1  0  0  0  0
 15  5  1  0  0  0  0
 17 22  1  0  0  0  0
 18 17  2  0  0  0  0
 18 19  1  0  0  0  0
 19 20  2  0  0  0  0
 20 21  1  0  0  0  0
 21 25  1  0  0  0  0
 22 21  2  0  0  0  0
 23 18  1  0  0  0  0
 24 19  1  0  0  0  0
 26  6  1  0  0  0  0
 26 29  1  1  0  0  0
 27 28  1  0  0  0  0
 27 26  1  0  0  0  0
 28 32  1  6  0  0  0
 28 26  1  0  0  0  0
 28 33  1  0  0  0  0
 30 27  1  0  0  0  0
 31 27  1  0  0  0  0
 33 36  1  0  0  0  0
 33 34  1  0  0  0  0
 35 33  1  0  0  0  0
 36 37  1  0  0  0  0
 36 38  1  0  0  0  0
 39 40  1  0  0  0  0
 39 48  1  0  0  0  0
 40 36  1  0  0  0  0
 41 42  1  0  0  0  0
 41 40  2  0  0  0  0
 43 41  1  0  0  0  0
 44 43  1  0  0  0  0
 45 43  2  0  0  0  0
 45 46  1  0  0  0  0
 46 39  2  0  0  0  0
 47 48  1  0  0  0  0
 48 50  2  0  0  0  0
 49 48  2  0  0  0  0
M  END
>  <minimizedAffinity>
-6.94562197

>  <minimizedRMSD>
1.29555762

$$$$
