
 OpenBabel03252508593D

 48 50  0  0  1  0  0  0  0  0999 V2000
   47.1730   34.0710   43.2000 N   0  0  0  0  0  0  0  0  0  0  0  0
   46.7960   35.3400   42.6770 C   0  0  0  0  0  0  0  0  0  0  0  0
   45.3450   35.6940   42.8110 C   0  0  0  0  0  0  0  0  0  0  0  0
   44.6740   35.1320   44.0300 C   0  0  0  0  0  0  0  0  0  0  0  0
   45.6510   34.4050   44.9250 C   0  0  0  0  0  0  0  0  0  0  0  0
   46.2920   33.3330   43.9720 C   0  0  2  0  0  0  0  0  0  0  0  0
   47.0850   35.5450   41.6450 H   0  0  0  0  0  0  0  0  0  0  0  0
   47.3640   36.1090   43.2830 H   0  0  0  0  0  0  0  0  0  0  0  0
   45.2160   36.7930   42.8390 H   0  0  0  0  0  0  0  0  0  0  0  0
   44.8320   35.3750   41.8620 H   0  0  0  0  0  0  0  0  0  0  0  0
   43.9540   34.3600   43.6790 H   0  0  0  0  0  0  0  0  0  0  0  0
   44.0850   35.8860   44.5770 H   0  0  0  0  0  0  0  0  0  0  0  0
   45.0650   33.8640   45.6940 H   0  0  0  0  0  0  0  0  0  0  0  0
   46.4470   35.0440   45.3320 H   0  0  0  0  0  0  0  0  0  0  0  0
   45.4240   32.8490   43.4800 H   0  0  0  0  0  0  0  0  0  0  0  0
   48.1530   33.3760   42.4070 C   0  0  0  0  0  0  0  0  0  0  0  0
   48.7800   34.1610   41.9100 H   0  0  0  0  0  0  0  0  0  0  0  0
   48.8400   32.7450   42.9700 H   0  0  0  0  0  0  0  0  0  0  0  0
   47.4400   32.5340   41.3910 C   0  0  0  0  0  0  0  0  0  0  0  0
   46.3620   32.7960   41.3540 H   0  0  0  0  0  0  0  0  0  0  0  0
   47.5100   31.4430   41.5820 H   0  0  0  0  0  0  0  0  0  0  0  0
   49.3720   32.2250   38.1830 C   0  0  0  0  0  0  0  0  0  0  0  0
   48.8470   31.9510   39.4610 C   0  0  0  0  0  0  0  0  0  0  0  0
   47.9830   32.8400   40.0440 C   0  0  0  0  0  0  0  0  0  0  0  0
   47.6770   33.9450   39.3550 N   0  0  0  0  0  0  0  0  0  0  0  0
   48.1770   34.2100   38.1330 C   0  0  0  0  0  0  0  0  0  0  0  0
   49.0250   33.3550   37.5410 N   0  0  0  0  0  0  0  0  0  0  0  0
   50.0570   31.5230   37.7180 H   0  0  0  0  0  0  0  0  0  0  0  0
   49.1760   31.0230   39.9060 H   0  0  0  0  0  0  0  0  0  0  0  0
   47.8700   35.1350   37.6530 H   0  0  0  0  0  0  0  0  0  0  0  0
   46.9590   32.5160   44.8710 O   0  0  0  0  0  0  0  0  0  0  0  0
   45.0640   30.8190   44.1080 O   0  0  0  0  0  0  0  0  0  0  0  0
   46.1770   31.0570   45.1390 P   0  0  2  0  0  0  0  0  0  0  0  0
   45.3500   31.2220   46.6310 O   0  0  0  0  0  0  0  0  0  0  0  0
   44.9160   30.3280   46.7740 H   0  0  0  0  0  0  0  0  0  0  0  0
   47.1900   29.7580   45.2740 O   0  0  0  0  0  0  0  0  0  0  0  0
   49.2430   29.2160   46.0960 C   0  0  0  0  0  0  0  0  0  0  0  0
   48.5280   29.6430   44.9700 C   0  0  0  0  0  0  0  0  0  0  0  0
   49.2260   29.8680   43.8030 C   0  0  0  0  0  0  0  0  0  0  0  0
   48.5720   30.1910   43.0060 H   0  0  0  0  0  0  0  0  0  0  0  0
   50.5910   29.6760   43.7540 C   0  0  0  0  0  0  0  0  0  0  0  0
   51.0620   29.8760   42.7960 H   0  0  0  0  0  0  0  0  0  0  0  0
   51.3080   29.2570   44.8550 C   0  0  0  0  0  3  0  0  0  0  0  0
   50.6280   29.0260   46.0340 C   0  0  0  0  0  3  0  0  0  0  0  0
   49.5390   28.5620   48.5800 H   0  0  0  0  0  0  0  0  0  0  0  0
   48.5500   28.8730   47.6820 S   0  0  0  0  0  0  0  0  0  0  0  0
   47.8350   30.0850   48.2170 O   0  0  0  0  0  0  0  0  0  0  0  0
   47.5700   27.7260   47.5170 O   0  0  0  0  0  0  0  0  0  0  0  0
  1  6  1  0  0  0  0
  2  3  1  0  0  0  0
  2  1  1  0  0  0  0
  2  8  1  0  0  0  0
  3  9  1  0  0  0  0
  3  4  1  0  0  0  0
  4 12  1  0  0  0  0
  4  5  1  0  0  0  0
  5 14  1  0  0  0  0
  5 13  1  0  0  0  0
  6 15  1  6  0  0  0
  6 31  1  0  0  0  0
  6  5  1  0  0  0  0
  7  2  1  0  0  0  0
 10  3  1  0  0  0  0
 11  4  1  0  0  0  0
 16 18  1  0  0  0  0
 16  1  1  0  0  0  0
 17 16  1  0  0  0  0
 19 21  1  0  0  0  0
 19 16  1  0  0  0  0
 20 19  1  0  0  0  0
 22 23  1  0  0  0  0
 23 29  1  0  0  0  0
 23 24  2  0  0  0  0
 24 19  1  0  0  0  0
 25 24  1  0  0  0  0
 26 25  2  0  0  0  0
 27 26  1  0  0  0  0
 27 22  2  0  0  0  0
 28 22  1  0  0  0  0
 30 26  1  0  0  0  0
 31 33  1  0  0  0  0
 33 32  2  6  0  0  0
 33 36  1  0  0  0  0
 33 34  1  0  0  0  0
 34 35  1  0  0  0  0
 37 46  1  0  0  0  0
 38 36  1  0  0  0  0
 38 37  2  0  0  0  0
 39 38  1  0  0  0  0
 40 39  1  0  0  0  0
 41 39  2  0  0  0  0
 41 43  1  0  0  0  0
 42 41  1  0  0  0  0
 43 44  2  0  0  0  0
 44 37  1  0  0  0  0
 46 47  2  0  0  0  0
 46 45  1  0  0  0  0
 48 46  2  0  0  0  0
M  END
>  <minimizedAffinity>
-4.23126888

>  <minimizedRMSD>
1.00381172

$$$$
