
 OpenBabel03252506123D

 39 41  0  0  0  0  0  0  0  0999 V2000
   45.0940   33.3560   41.1320 F   0  0  0  0  0  0  0  0  0  0  0  0
   46.2750   33.9510   40.9630 C   0  0  0  0  0  0  0  0  0  0  0  0
   46.7910   34.7410   41.9870 C   0  0  0  0  0  0  0  0  0  0  0  0
   48.0150   35.3960   41.8950 C   0  0  0  0  0  0  0  0  0  0  0  0
   48.7720   35.2650   40.7310 C   0  0  0  0  0  0  0  0  0  0  0  0
   48.2250   34.4710   39.7350 C   0  0  0  0  0  0  0  0  0  0  0  0
   47.0300   33.8250   39.8100 C   0  0  0  0  0  0  0  0  0  0  0  0
   48.3530   36.0000   42.7440 H   0  0  0  0  0  0  0  0  0  0  0  0
   49.6950   35.7890   40.7240 H   0  0  0  0  0  0  0  0  0  0  0  0
   48.9170   34.4530   38.9000 H   0  0  0  0  0  0  0  0  0  0  0  0
   45.4170   34.0940   45.3280 C   0  0  0  0  0  0  0  0  0  0  0  0
   44.6180   35.2310   45.5400 C   0  0  0  0  0  0  0  0  0  0  0  0
   44.5530   36.2180   44.5310 C   0  0  0  0  0  0  0  0  0  0  0  0
   45.2860   35.9970   43.3970 N   0  0  0  0  0  0  0  0  0  0  0  0
   46.0340   34.9060   43.2290 C   0  0  0  0  0  0  0  0  0  0  0  0
   46.0960   33.9660   44.1880 N   0  0  0  0  0  0  0  0  0  0  0  0
   44.0400   35.4020   46.4340 H   0  0  0  0  0  0  0  0  0  0  0  0
   43.9520   37.1090   44.6470 H   0  0  0  0  0  0  0  0  0  0  0  0
   45.4740   33.1090   46.3450 N   0  0  0  0  0  0  0  0  0  0  0  0
   44.7360   32.4160   46.6660 H   0  0  0  0  0  0  0  0  0  0  0  0
   46.3570   33.0110   46.8890 H   0  0  0  0  0  0  0  0  0  0  0  0
   46.5910   33.0680   38.7600 O   0  0  0  0  0  0  0  0  0  0  0  0
   47.8100   34.5170   36.9090 O   0  0  0  0  0  0  0  0  0  0  0  0
   46.9130   33.3180   37.1310 P   0  0  2  0  0  0  0  0  0  0  0  0
   45.4230   33.5490   36.3200 O   0  0  0  0  0  0  0  0  0  0  0  0
   45.4900   34.3140   35.6990 H   0  0  0  0  0  0  0  0  0  0  0  0
   47.6180   31.9850   36.3690 O   0  0  0  0  0  0  0  0  0  0  0  0
   47.5460   31.3730   34.1390 C   0  0  0  0  0  0  0  0  0  0  0  0
   47.0470   31.1730   35.4290 C   0  0  0  0  0  0  0  0  0  0  0  0
   46.0740   30.2110   35.5730 C   0  0  0  0  0  0  0  0  0  0  0  0
   45.7200   30.0950   36.5850 H   0  0  0  0  0  0  0  0  0  0  0  0
   45.6050   29.4750   34.5100 C   0  0  0  0  0  0  0  0  0  0  0  0
   44.8420   28.7290   34.6610 H   0  0  0  0  0  0  0  0  0  0  0  0
   46.0880   29.6590   33.2260 C   0  0  0  0  0  3  0  0  0  0  0  0
   47.0650   30.6250   33.0850 C   0  0  0  0  0  3  0  0  0  0  0  0
   48.9260   33.3740   34.8630 H   0  0  0  0  0  0  0  0  0  0  0  0
   48.7990   32.5690   33.7810 S   0  0  0  0  0  0  0  0  0  0  0  0
   50.0960   31.8290   33.4870 O   0  0  0  0  0  0  0  0  0  0  0  0
   48.4410   33.2920   32.5240 O   0  0  0  0  0  0  0  0  0  0  0  0
  2  1  1  0  0  0  0
  2  3  1  0  0  0  0
  3 15  1  0  0  0  0
  4  3  2  0  0  0  0
  4  8  1  0  0  0  0
  5  4  1  0  0  0  0
  6  7  1  0  0  0  0
  6  5  2  0  0  0  0
  7  2  2  0  0  0  0
  9  5  1  0  0  0  0
 10  6  1  0  0  0  0
 11 12  1  0  0  0  0
 11 19  1  0  0  0  0
 12 17  1  0  0  0  0
 13 18  1  0  0  0  0
 13 12  2  0  0  0  0
 14 13  1  0  0  0  0
 15 14  2  0  0  0  0
 15 16  1  0  0  0  0
 16 11  2  0  0  0  0
 19 20  1  0  0  0  0
 19 21  1  0  0  0  0
 22  7  1  0  0  0  0
 24 23  2  6  0  0  0
 24 22  1  0  0  0  0
 25 24  1  0  0  0  0
 26 25  1  0  0  0  0
 27 24  1  0  0  0  0
 28 29  1  0  0  0  0
 29 30  2  0  0  0  0
 29 27  1  0  0  0  0
 30 31  1  0  0  0  0
 32 33  1  0  0  0  0
 32 30  1  0  0  0  0
 34 32  2  0  0  0  0
 35 34  1  0  0  0  0
 35 28  2  0  0  0  0
 37 28  1  0  0  0  0
 37 36  1  0  0  0  0
 38 37  2  0  0  0  0
 39 37  2  0  0  0  0
M  END
>  <minimizedAffinity>
-6.79365015

>  <minimizedRMSD>
2.13317037

$$$$
