
 OpenBabel03252508363D

 34 36  0  0  0  0  0  0  0  0999 V2000
   42.3320   33.4420   40.0780 C   0  0  0  0  0  0  0  0  0  0  0  0
   42.9720   34.6590   40.1490 C   0  0  0  0  0  0  0  0  0  0  0  0
   42.5960   35.6170   39.2340 C   0  0  0  0  0  0  0  0  0  0  0  0
   41.6200   35.4030   38.2700 C   0  0  0  0  0  0  0  0  0  0  0  0
   41.0100   34.1740   38.2380 C   0  0  0  0  0  0  0  0  0  0  0  0
   41.3590   33.1840   39.1410 C   0  0  0  0  0  0  0  0  0  0  0  0
   43.1110   36.5750   39.3020 H   0  0  0  0  0  0  0  0  0  0  0  0
   41.3860   36.1990   37.5970 H   0  0  0  0  0  0  0  0  0  0  0  0
   40.2470   34.0080   37.4850 H   0  0  0  0  0  0  0  0  0  0  0  0
   46.2610   34.6530   41.9750 C   0  0  0  0  0  0  0  0  0  0  0  0
   45.3140   34.4690   40.9650 C   0  0  0  0  0  0  0  0  0  0  0  0
   43.9840   34.8350   41.1720 C   0  0  0  0  0  0  0  0  0  0  0  0
   43.6940   35.3660   42.3850 N   0  0  0  0  0  0  0  0  0  0  0  0
   44.6140   35.5370   43.3390 C   0  0  0  0  0  0  0  0  0  0  0  0
   45.8950   35.1820   43.1370 N   0  0  0  0  0  0  0  0  0  0  0  0
   47.6010   34.2610   41.7100 N   0  0  0  0  0  0  0  0  0  0  0  0
   45.5680   34.0390   39.9930 H   0  0  0  0  0  0  0  0  0  0  0  0
   44.2690   35.9750   44.2810 H   0  0  0  0  0  0  0  0  0  0  0  0
   48.3110   35.0290   41.7100 H   0  0  0  0  0  0  0  0  0  0  0  0
   47.9130   33.2930   41.5220 H   0  0  0  0  0  0  0  0  0  0  0  0
   39.6050   31.5260   39.8530 C   0  0  0  0  0  0  0  0  0  0  0  0
   40.7140   31.8770   39.1100 C   0  0  0  0  0  0  0  0  0  0  0  0
   41.3130   30.9670   38.2510 C   0  0  0  0  0  0  0  0  0  0  0  0
   42.1780   31.1360   37.6300 H   0  0  0  0  0  0  0  0  0  0  0  0
   40.7740   29.7000   38.1530 C   0  0  0  0  0  0  0  0  0  0  0  0
   41.2110   28.9420   37.4870 H   0  0  0  0  0  0  0  0  0  0  0  0
   39.6510   29.3280   38.8960 C   0  0  0  0  0  0  0  0  0  0  0  0
   39.0650   30.2600   39.7550 C   0  0  0  0  0  0  0  0  0  0  0  0
   37.6420   32.3680   41.2790 H   0  0  0  0  0  0  0  0  0  0  0  0
   38.9140   32.7450   40.9150 S   0  0  0  0  0  0  0  0  0  0  0  0
   38.8190   34.0700   40.2300 O   0  0  0  0  0  0  0  0  0  0  0  0
   39.7090   32.8380   42.2060 O   0  0  0  0  0  0  0  0  0  0  0  0
   42.9400   31.5220   41.7540 N   0  0  0  0  0  0  0  0  0  0  0  0
   42.6690   32.3860   41.0010 C   0  0  0  0  0  0  0  0  0  0  0  0
  1  2  1  0  0  0  0
  1 34  1  0  0  0  0
  2 12  1  0  0  0  0
  3  7  1  0  0  0  0
  3  2  2  0  0  0  0
  4  3  1  0  0  0  0
  5  4  2  0  0  0  0
  5  6  1  0  0  0  0
  6  1  2  0  0  0  0
  8  4  1  0  0  0  0
  9  5  1  0  0  0  0
 10 15  1  0  0  0  0
 11 12  1  0  0  0  0
 11 10  2  0  0  0  0
 12 13  2  0  0  0  0
 13 14  1  0  0  0  0
 14 18  1  0  0  0  0
 15 14  2  0  0  0  0
 16 10  1  0  0  0  0
 17 11  1  0  0  0  0
 19 16  1  0  0  0  0
 20 16  1  0  0  0  0
 21 30  1  0  0  0  0
 22  6  1  0  0  0  0
 22 21  2  0  0  0  0
 23 22  1  0  0  0  0
 24 23  1  0  0  0  0
 25 23  2  0  0  0  0
 25 27  1  0  0  0  0
 26 25  1  0  0  0  0
 27 28  2  0  0  0  0
 28 21  1  0  0  0  0
 30 29  1  0  0  0  0
 30 32  2  0  0  0  0
 31 30  2  0  0  0  0
 34 33  3  0  0  0  0
M  END
>  <minimizedAffinity>
-5.04298353

>  <minimizedRMSD>
8.36741257

$$$$
