
 OpenBabel03252509083D

 44 47  0  0  0  0  0  0  0  0999 V2000
   47.7190   31.8650   38.9110 C   0  0  0  0  0  0  0  0  0  0  0  0
   47.2250   33.1350   38.8730 C   0  0  0  0  0  0  0  0  0  0  0  0
   47.8270   34.0790   38.0580 C   0  0  0  0  0  0  0  0  0  0  0  0
   48.9140   33.7570   37.2900 C   0  0  0  0  0  0  0  0  0  0  0  0
   49.4510   32.4760   37.2980 C   0  0  0  0  0  0  0  0  0  0  0  0
   48.8310   31.5370   38.1250 C   0  0  0  0  0  0  0  0  0  0  0  0
   47.4630   35.0860   38.0040 H   0  0  0  0  0  0  0  0  0  0  0  0
   49.4120   34.4400   36.6500 H   0  0  0  0  0  0  0  0  0  0  0  0
   50.2900   32.1270   36.7400 H   0  0  0  0  0  0  0  0  0  0  0  0
   49.2250   30.5100   38.1600 H   0  0  0  0  0  0  0  0  0  0  0  0
   45.2830   35.2540   43.1640 Cl  0  0  0  0  0  0  0  0  0  0  0  0
   45.1530   34.5270   41.5800 C   0  0  0  0  0  0  0  0  0  0  0  0
   46.2610   34.1430   40.8960 C   0  0  0  0  0  0  0  0  0  0  0  0
   46.0690   33.5870   39.6390 C   0  0  0  0  0  0  0  0  0  0  0  0
   44.8260   33.4380   39.1160 C   0  0  0  0  0  0  0  0  0  0  0  0
   43.7180   33.8190   39.7950 C   0  0  0  0  0  0  0  0  0  0  0  0
   43.8950   34.3690   41.0450 C   0  0  0  0  0  0  0  0  0  0  0  0
   44.7050   33.0120   38.1390 H   0  0  0  0  0  0  0  0  0  0  0  0
   42.7410   33.6840   39.3510 H   0  0  0  0  0  0  0  0  0  0  0  0
   42.9970   34.6710   41.5830 H   0  0  0  0  0  0  0  0  0  0  0  0
   49.5590   35.7060   41.9110 C   0  0  0  0  0  0  0  0  0  0  0  0
   48.2970   35.5220   41.3370 C   0  0  0  0  0  0  0  0  0  0  0  0
   47.5800   34.3440   41.4900 C   0  0  0  0  0  0  0  0  0  0  0  0
   48.1940   33.4120   42.2260 N   0  0  0  0  0  0  0  0  0  0  0  0
   49.4010   33.5770   42.7800 C   0  0  0  0  0  0  0  0  0  0  0  0
   50.0780   34.7130   42.6240 N   0  0  0  0  0  0  0  0  0  0  0  0
   50.0600   36.6330   41.7560 H   0  0  0  0  0  0  0  0  0  0  0  0
   47.8560   36.3280   40.7480 H   0  0  0  0  0  0  0  0  0  0  0  0
   49.6960   32.6850   43.3310 H   0  0  0  0  0  0  0  0  0  0  0  0
   47.0780   30.6850   39.9390 S   0  0  0  0  0  0  0  0  0  0  0  0
   47.3660   29.2870   39.2920 O   0  0  0  0  0  0  0  0  0  0  0  0
   47.9170   30.6660   41.1840 O   0  0  0  0  0  0  0  0  0  0  0  0
   44.4460   30.1070   39.2380 C   0  0  0  0  0  0  0  0  0  0  0  0
   45.4020   30.4300   40.2310 C   0  0  0  0  0  0  0  0  0  0  0  0
   44.7710   30.5010   41.4680 C   0  0  0  0  0  0  0  0  0  0  0  0
   45.3820   30.7220   42.3320 H   0  0  0  0  0  0  0  0  0  0  0  0
   43.4390   30.3030   41.7460 C   0  0  0  0  0  0  0  0  0  0  0  0
   43.0490   30.3820   42.7490 H   0  0  0  0  0  0  0  0  0  0  0  0
   42.6390   30.0010   40.6910 C   0  0  0  0  0  3  0  0  0  0  0  0
   43.0970   29.8900   39.4060 C   0  0  0  0  0  3  0  0  0  0  0  0
   46.3830   30.0590   37.4900 H   0  0  0  0  0  0  0  0  0  0  0  0
   45.0480   29.8920   37.5820 S   0  0  0  0  0  0  0  0  0  0  0  0
   44.4270   30.9480   36.6780 O   0  0  0  0  0  0  0  0  0  0  0  0
   44.5310   28.5870   37.1010 O   0  0  0  0  0  0  0  0  0  0  0  0
  1 30  1  0  0  0  0
  2  1  1  0  0  0  0
  2 14  1  0  0  0  0
  3  2  2  0  0  0  0
  4  5  2  0  0  0  0
  4  3  1  0  0  0  0
  5  6  1  0  0  0  0
  6 10  1  0  0  0  0
  6  1  2  0  0  0  0
  7  3  1  0  0  0  0
  8  4  1  0  0  0  0
  9  5  1  0  0  0  0
 12 11  1  0  0  0  0
 13 23  1  0  0  0  0
 13 12  2  0  0  0  0
 14 13  1  0  0  0  0
 15 14  2  0  0  0  0
 15 16  1  0  0  0  0
 16 17  2  0  0  0  0
 17 12  1  0  0  0  0
 17 20  1  0  0  0  0
 18 15  1  0  0  0  0
 19 16  1  0  0  0  0
 21 26  1  0  0  0  0
 22 23  1  0  0  0  0
 22 21  2  0  0  0  0
 23 24  2  0  0  0  0
 24 25  1  0  0  0  0
 25 29  1  0  0  0  0
 26 25  2  0  0  0  0
 27 21  1  0  0  0  0
 28 22  1  0  0  0  0
 30 34  1  0  0  0  0
 30 32  2  0  0  0  0
 31 30  2  0  0  0  0
 33 40  2  0  0  0  0
 33 34  1  0  0  0  0
 34 35  2  0  0  0  0
 35 37  1  0  0  0  0
 35 36  1  0  0  0  0
 37 38  1  0  0  0  0
 39 37  2  0  0  0  0
 40 39  1  0  0  0  0
 41 42  1  0  0  0  0
 42 33  1  0  0  0  0
 43 42  2  0  0  0  0
 44 42  2  0  0  0  0
M  END
>  <minimizedAffinity>
-4.55353928

>  <minimizedRMSD>
1.03984118

$$$$
