
 OpenBabel03242518103D

 27 28  0  0  0  0  0  0  0  0999 V2000
   46.1580   33.2670   45.1940 C   0  0  0  0  0  0  0  0  0  0  0  0
   46.0870   34.0700   45.9240 H   0  0  0  0  0  0  0  0  0  0  0  0
   45.1350   32.9200   44.8690 H   0  0  0  0  0  0  0  0  0  0  0  0
   46.2200   34.7640   43.2350 C   0  0  0  0  0  0  0  0  0  0  0  0
   46.8410   33.7690   43.9620 C   0  0  0  0  0  0  0  0  0  0  0  0
   48.0560   33.3060   43.4950 C   0  0  0  0  0  0  0  0  0  0  0  0
   48.5450   32.5400   44.0450 H   0  0  0  0  0  0  0  0  0  0  0  0
   48.6410   33.8030   42.3520 C   0  0  0  0  0  0  0  0  0  0  0  0
   49.5970   33.4200   42.0090 H   0  0  0  0  0  0  0  0  0  0  0  0
   48.0330   34.7900   41.6240 C   0  0  0  0  0  0  0  0  0  0  0  0
   46.8170   35.2630   42.0800 C   0  0  0  0  0  0  0  0  0  0  0  0
   44.2070   34.6550   44.8030 H   0  0  0  0  0  0  0  0  0  0  0  0
   44.6940   35.3890   43.7660 S   0  0  0  0  0  0  0  0  0  0  0  0
   43.6910   35.4640   42.6230 O   0  0  0  0  0  0  0  0  0  0  0  0
   44.8820   36.7940   44.3070 O   0  0  0  0  0  0  0  0  0  0  0  0
   46.8880   32.0330   45.6850 C   0  0  0  0  0  0  0  0  0  0  0  0
   46.7150   31.2480   44.9100 H   0  0  0  0  0  0  0  0  0  0  0  0
   47.9310   32.3180   45.7830 H   0  0  0  0  0  0  0  0  0  0  0  0
   46.2710   31.5860   46.9350 C   0  0  0  0  0  0  0  0  0  0  0  0
   45.6490   30.3490   47.0390 C   0  0  0  0  0  0  0  0  0  0  0  0
   45.0790   29.9890   48.2820 C   0  0  0  0  0  0  0  0  0  0  0  0
   45.1800   30.8920   49.3070 N   0  0  0  0  0  0  0  0  0  0  0  0
   45.8000   32.0920   49.1550 C   0  0  0  0  0  0  0  0  0  0  0  0
   46.3400   32.4220   47.9630 N   0  0  0  0  0  0  0  0  0  0  0  0
   45.5890   29.6750   46.2270 H   0  0  0  0  0  0  0  0  0  0  0  0
   44.5770   29.0370   48.4330 H   0  0  0  0  0  0  0  0  0  0  0  0
   45.8660   32.7900   49.9850 H   0  0  0  0  0  0  0  0  0  0  0  0
  1 16  1  0  0  0  0
  1  2  1  0  0  0  0
  3  1  1  0  0  0  0
  4 13  1  0  0  0  0
  4  5  1  0  0  0  0
  5  1  1  0  0  0  0
  6  5  2  0  0  0  0
  6  7  1  0  0  0  0
  8  6  1  0  0  0  0
  9  8  1  0  0  0  0
 10 11  1  0  0  0  0
 10  8  2  0  0  0  0
 11  4  2  0  0  0  0
 13 15  2  0  0  0  0
 13 12  1  0  0  0  0
 14 13  2  0  0  0  0
 16 18  1  0  0  0  0
 16 19  1  0  0  0  0
 17 16  1  0  0  0  0
 19 20  2  0  0  0  0
 19 24  1  0  0  0  0
 20 21  1  0  0  0  0
 21 26  1  0  0  0  0
 21 22  2  0  0  0  0
 23 22  1  0  0  0  0
 23 27  1  0  0  0  0
 24 23  2  0  0  0  0
 25 20  1  0  0  0  0
M  END
>  <minimizedAffinity>
-4.94895029

>  <minimizedRMSD>
5.64293242

$$$$
