
 OpenBabel03242521203D

 29 31  0  0  0  0  0  0  0  0999 V2000
   48.1480   31.7720   43.5420 C   0  0  0  0  0  0  0  0  0  0  0  0
   48.9130   30.6710   43.3850 C   0  0  0  0  0  0  0  0  0  0  0  0
   48.9960   29.6470   44.2880 C   0  0  0  0  0  0  0  0  0  0  0  0
   48.2410   29.7950   45.4010 N   0  0  0  0  0  0  0  0  0  0  0  0
   47.4730   30.8840   45.5780 C   0  0  0  0  0  0  0  0  0  0  0  0
   47.4060   31.8850   44.6700 N   0  0  0  0  0  0  0  0  0  0  0  0
   49.5100   30.5790   42.4790 H   0  0  0  0  0  0  0  0  0  0  0  0
   49.6020   28.7770   44.1600 H   0  0  0  0  0  0  0  0  0  0  0  0
   47.6760   35.0870   42.0360 C   0  0  0  0  0  0  0  0  0  0  0  0
   47.9700   34.8290   40.6890 C   0  0  0  0  0  0  0  0  0  0  0  0
   48.3280   33.5260   40.2900 C   0  0  0  0  0  0  0  0  0  0  0  0
   48.3720   32.5650   41.2570 N   0  0  0  0  0  0  0  0  0  0  0  0
   48.0810   32.8570   42.5500 C   0  0  0  0  0  0  0  0  0  0  0  0
   47.7420   34.0870   42.9320 N   0  0  0  0  0  0  0  0  0  0  0  0
   47.4030   36.0930   42.3190 H   0  0  0  0  0  0  0  0  0  0  0  0
   47.9350   35.5900   39.9180 H   0  0  0  0  0  0  0  0  0  0  0  0
   48.5600   33.2910   39.2620 H   0  0  0  0  0  0  0  0  0  0  0  0
   45.5740   30.2270   47.0550 C   0  0  0  0  0  0  0  0  0  0  0  0
   46.6630   31.0300   46.7850 C   0  0  0  0  0  0  0  0  0  0  0  0
   46.9330   31.9900   47.7440 C   0  0  0  0  0  0  0  0  0  0  0  0
   47.7940   32.6420   47.5510 H   0  0  0  0  0  0  0  0  0  0  0  0
   46.2240   32.2000   48.9080 C   0  0  0  0  0  0  0  0  0  0  0  0
   46.5480   33.0000   49.5870 H   0  0  0  0  0  0  0  0  0  0  0  0
   45.1450   31.3810   49.1470 C   0  0  0  0  0  0  0  0  0  0  0  0
   44.8330   30.4120   48.2290 C   0  0  0  0  0  0  0  0  0  0  0  0
   45.3650   29.2980   44.6270 H   0  0  0  0  0  0  0  0  0  0  0  0
   45.1130   28.9680   45.9310 S   0  0  0  0  0  0  0  0  0  0  0  0
   45.6970   27.6300   46.2870 O   0  0  0  0  0  0  0  0  0  0  0  0
   43.6040   28.7760   46.0000 O   0  0  0  0  0  0  0  0  0  0  0  0
  1  6  1  0  0  0  0
  2  1  2  0  0  0  0
  2  3  1  0  0  0  0
  3  4  2  0  0  0  0
  4  5  1  0  0  0  0
  5 19  1  0  0  0  0
  6  5  2  0  0  0  0
  7  2  1  0  0  0  0
  8  3  1  0  0  0  0
  9 15  1  0  0  0  0
  9 14  1  0  0  0  0
 10  9  2  0  0  0  0
 11 10  1  0  0  0  0
 11 12  2  0  0  0  0
 12 13  1  0  0  0  0
 13 14  2  0  0  0  0
 13  1  1  0  0  0  0
 16 10  1  0  0  0  0
 17 11  1  0  0  0  0
 18 25  1  0  0  0  0
 19 18  2  0  0  0  0
 19 20  1  0  0  0  0
 20 22  2  0  0  0  0
 21 20  1  0  0  0  0
 22 24  1  0  0  0  0
 22 23  1  0  0  0  0
 25 24  2  0  0  0  0
 26 27  1  0  0  0  0
 27 29  2  0  0  0  0
 27 28  2  0  0  0  0
 27 18  1  0  0  0  0
M  END
>  <minimizedAffinity>
-4.71826553

>  <minimizedRMSD>
4.06547022

$$$$
