
 OpenBabel03252506123D

 39 41  0  0  0  0  0  0  0  0999 V2000
   45.1040   33.4330   41.2010 F   0  0  0  0  0  0  0  0  0  0  0  0
   46.2940   34.0160   41.0570 C   0  0  0  0  0  0  0  0  0  0  0  0
   46.8020   34.7890   42.0980 C   0  0  0  0  0  0  0  0  0  0  0  0
   48.0350   35.4290   42.0340 C   0  0  0  0  0  0  0  0  0  0  0  0
   48.8100   35.3020   40.8810 C   0  0  0  0  0  0  0  0  0  0  0  0
   48.2700   34.5260   39.8670 C   0  0  0  0  0  0  0  0  0  0  0  0
   47.0670   33.8930   39.9150 C   0  0  0  0  0  0  0  0  0  0  0  0
   48.3660   36.0200   42.8950 H   0  0  0  0  0  0  0  0  0  0  0  0
   49.7390   35.8150   40.8950 H   0  0  0  0  0  0  0  0  0  0  0  0
   48.9750   34.5080   39.0440 H   0  0  0  0  0  0  0  0  0  0  0  0
   45.4490   34.1760   45.4540 C   0  0  0  0  0  0  0  0  0  0  0  0
   44.5750   35.2650   45.6190 C   0  0  0  0  0  0  0  0  0  0  0  0
   44.4520   36.2080   44.5740 C   0  0  0  0  0  0  0  0  0  0  0  0
   45.2070   35.9930   43.4520 N   0  0  0  0  0  0  0  0  0  0  0  0
   46.0270   34.9490   43.3300 C   0  0  0  0  0  0  0  0  0  0  0  0
   46.1440   34.0520   44.3240 N   0  0  0  0  0  0  0  0  0  0  0  0
   43.9800   35.4300   46.5040 H   0  0  0  0  0  0  0  0  0  0  0  0
   43.7940   37.0600   44.6530 H   0  0  0  0  0  0  0  0  0  0  0  0
   45.5630   33.2360   46.5080 N   0  0  0  0  0  0  0  0  0  0  0  0
   44.8710   32.5080   46.8510 H   0  0  0  0  0  0  0  0  0  0  0  0
   46.4470   33.2160   47.0600 H   0  0  0  0  0  0  0  0  0  0  0  0
   46.6360   33.1530   38.8500 O   0  0  0  0  0  0  0  0  0  0  0  0
   47.8800   34.6210   37.0310 O   0  0  0  0  0  0  0  0  0  0  0  0
   46.9470   33.4450   37.2260 P   0  0  2  0  0  0  0  0  0  0  0  0
   45.4560   33.7500   36.4420 O   0  0  0  0  0  0  0  0  0  0  0  0
   45.5400   34.5320   35.8450 H   0  0  0  0  0  0  0  0  0  0  0  0
   47.5990   32.1160   36.4130 O   0  0  0  0  0  0  0  0  0  0  0  0
   47.4720   31.4760   34.1920 C   0  0  0  0  0  0  0  0  0  0  0  0
   46.9740   31.3230   35.4900 C   0  0  0  0  0  0  0  0  0  0  0  0
   45.9510   30.4210   35.6580 C   0  0  0  0  0  0  0  0  0  0  0  0
   45.6010   30.3380   36.6760 H   0  0  0  0  0  0  0  0  0  0  0  0
   45.4320   29.6960   34.6110 C   0  0  0  0  0  0  0  0  0  0  0  0
   44.6290   28.9960   34.7800 H   0  0  0  0  0  0  0  0  0  0  0  0
   45.9120   29.8340   33.3200 C   0  0  0  0  0  3  0  0  0  0  0  0
   46.9380   30.7400   33.1550 C   0  0  0  0  0  3  0  0  0  0  0  0
   48.9510   33.4240   34.8630 H   0  0  0  0  0  0  0  0  0  0  0  0
   48.7850   32.5940   33.8050 S   0  0  0  0  0  0  0  0  0  0  0  0
   50.0450   31.7800   33.5400 O   0  0  0  0  0  0  0  0  0  0  0  0
   48.4700   33.2950   32.5250 O   0  0  0  0  0  0  0  0  0  0  0  0
  2  1  1  0  0  0  0
  2  3  1  0  0  0  0
  3 15  1  0  0  0  0
  4  3  2  0  0  0  0
  4  8  1  0  0  0  0
  5  9  1  0  0  0  0
  5  4  1  0  0  0  0
  6  7  1  0  0  0  0
  6  5  2  0  0  0  0
  7  2  2  0  0  0  0
 10  6  1  0  0  0  0
 11 12  1  0  0  0  0
 11 19  1  0  0  0  0
 12 17  1  0  0  0  0
 13 18  1  0  0  0  0
 13 12  2  0  0  0  0
 14 13  1  0  0  0  0
 15 14  2  0  0  0  0
 15 16  1  0  0  0  0
 16 11  2  0  0  0  0
 19 20  1  0  0  0  0
 19 21  1  0  0  0  0
 22  7  1  0  0  0  0
 24 23  2  6  0  0  0
 24 22  1  0  0  0  0
 25 24  1  0  0  0  0
 26 25  1  0  0  0  0
 27 24  1  0  0  0  0
 28 29  1  0  0  0  0
 29 30  2  0  0  0  0
 29 27  1  0  0  0  0
 30 31  1  0  0  0  0
 32 33  1  0  0  0  0
 32 30  1  0  0  0  0
 34 32  2  0  0  0  0
 35 34  1  0  0  0  0
 35 28  2  0  0  0  0
 37 28  1  0  0  0  0
 37 36  1  0  0  0  0
 38 37  2  0  0  0  0
 39 37  2  0  0  0  0
M  END
>  <minimizedAffinity>
-6.83025837

>  <minimizedRMSD>
1.42306495

$$$$
