
 OpenBabel03242515553D

 40 43  0  0  0  0  0  0  0  0999 V2000
   45.9800   32.7450   46.4380 C   0  0  0  0  0  0  0  0  0  0  0  0
   45.4310   32.8540   47.7430 C   0  0  0  0  0  0  0  0  0  0  0  0
   45.6270   31.9250   48.7340 C   0  0  0  0  0  0  0  0  0  0  0  0
   46.3750   30.8290   48.5010 C   0  0  0  0  0  0  0  0  0  0  0  0
   46.9410   30.6640   47.2390 C   0  0  0  0  0  0  0  0  0  0  0  0
   47.6880   29.5430   47.0410 C   0  0  0  0  0  0  0  0  0  0  0  0
   48.2750   29.3140   45.8210 C   0  0  0  0  0  0  0  0  0  0  0  0
   48.0580   30.2730   44.8360 C   0  0  0  0  0  0  0  0  0  0  0  0
   47.3030   31.3540   45.1150 C   0  0  0  0  0  0  0  0  0  0  0  0
   46.7190   31.6180   46.2770 C   0  0  0  0  0  0  0  0  0  0  0  0
   44.8220   33.7140   47.9880 H   0  0  0  0  0  0  0  0  0  0  0  0
   45.1770   32.0760   49.7030 H   0  0  0  0  0  0  0  0  0  0  0  0
   46.5090   30.1190   49.3000 H   0  0  0  0  0  0  0  0  0  0  0  0
   47.8200   28.8190   47.8720 H   0  0  0  0  0  0  0  0  0  0  0  0
   48.8600   28.3790   45.7620 H   0  0  0  0  0  0  0  0  0  0  0  0
   48.6080   29.9280   43.9550 H   0  0  0  0  0  0  0  0  0  0  0  0
   44.4760   35.7160   45.0910 C   0  0  0  0  0  0  0  0  0  0  0  0
   45.1090   35.8410   43.8160 C   0  0  0  0  0  0  0  0  0  0  0  0
   46.0720   34.8740   43.4130 C   0  0  0  0  0  0  0  0  0  0  0  0
   46.3200   33.8930   44.2850 N   0  0  0  0  0  0  0  0  0  0  0  0
   45.7640   33.7570   45.4410 C   0  0  0  0  0  0  0  0  0  0  0  0
   44.8390   34.6840   45.8290 N   0  0  0  0  0  0  0  0  0  0  0  0
   43.7460   36.4550   45.3860 H   0  0  0  0  0  0  0  0  0  0  0  0
   46.5120   35.0220   42.4450 H   0  0  0  0  0  0  0  0  0  0  0  0
   44.7060   36.9580   43.0400 N   0  0  0  0  0  0  0  0  0  0  0  0
   44.2470   36.8320   42.1010 H   0  0  0  0  0  0  0  0  0  0  0  0
   44.8370   37.9620   43.3510 H   0  0  0  0  0  0  0  0  0  0  0  0
   47.2670   32.0960   43.9680 O   0  0  0  0  0  0  0  0  0  0  0  0
   47.4530   31.2840   41.6960 C   0  0  0  0  0  0  0  0  0  0  0  0
   48.0360   31.8850   42.8180 C   0  0  0  0  0  0  0  0  0  0  0  0
   49.3690   32.2440   42.7080 C   0  0  0  0  0  0  0  0  0  0  0  0
   49.8390   32.7100   43.5630 H   0  0  0  0  0  0  0  0  0  0  0  0
   50.1030   32.0290   41.5660 C   0  0  0  0  0  0  0  0  0  0  0  0
   51.1420   32.3190   41.5080 H   0  0  0  0  0  0  0  0  0  0  0  0
   49.5050   31.4350   40.4790 C   0  0  0  0  0  0  0  0  0  0  0  0
   48.1850   31.0570   40.5270 C   0  0  0  0  0  0  0  0  0  0  0  0
   45.5010   29.8110   42.5640 H   0  0  0  0  0  0  0  0  0  0  0  0
   45.7740   30.7900   41.6460 S   0  0  0  0  0  0  0  0  0  0  0  0
   44.8270   31.9540   41.7460 O   0  0  0  0  0  0  0  0  0  0  0  0
   45.5130   30.1650   40.2930 O   0  0  0  0  0  0  0  0  0  0  0  0
  1  2  1  0  0  0  0
  2 11  1  0  0  0  0
  2  3  2  0  0  0  0
  3 12  1  0  0  0  0
  4  3  1  0  0  0  0
  4 13  1  0  0  0  0
  5  4  2  0  0  0  0
  6  5  1  0  0  0  0
  6 14  1  0  0  0  0
  7  6  2  0  0  0  0
  8  9  2  0  0  0  0
  8  7  1  0  0  0  0
  9 10  1  0  0  0  0
 10  1  2  0  0  0  0
 10  5  1  0  0  0  0
 15  7  1  0  0  0  0
 16  8  1  0  0  0  0
 17 23  1  0  0  0  0
 17 22  1  0  0  0  0
 18 17  2  0  0  0  0
 19 18  1  0  0  0  0
 19 20  2  0  0  0  0
 20 21  1  0  0  0  0
 21 22  2  0  0  0  0
 21  1  1  0  0  0  0
 24 19  1  0  0  0  0
 25 27  1  0  0  0  0
 25 18  1  0  0  0  0
 26 25  1  0  0  0  0
 28  9  1  0  0  0  0
 29 30  1  0  0  0  0
 30 28  1  0  0  0  0
 31 30  2  0  0  0  0
 31 32  1  0  0  0  0
 33 31  1  0  0  0  0
 34 33  1  0  0  0  0
 35 36  1  0  0  0  0
 35 33  2  0  0  0  0
 36 29  2  0  0  0  0
 38 29  1  0  0  0  0
 38 39  2  0  0  0  0
 38 37  1  0  0  0  0
 40 38  2  0  0  0  0
M  END
>  <minimizedAffinity>
-5.76443291

>  <minimizedRMSD>
0.845713496

$$$$
