
 OpenBabel03252506053D

 46 50  0  0  0  0  0  0  0  0999 V2000
   44.8520   35.9870   43.1830 Cl  0  0  0  0  0  0  0  0  0  0  0  0
   45.5850   34.7420   44.1420 C   0  0  0  0  0  0  0  0  0  0  0  0
   46.6800   34.0520   43.6680 C   0  0  0  0  0  0  0  0  0  0  0  0
   47.1910   33.0810   44.5040 C   0  0  0  0  0  0  0  0  0  0  0  0
   46.6800   32.7700   45.7540 C   0  0  0  0  0  0  0  0  0  0  0  0
   45.5910   33.4780   46.1880 C   0  0  0  0  0  0  0  0  0  0  0  0
   44.9790   33.0510   47.7760 Cl  0  0  0  0  0  0  0  0  0  0  0  0
   45.0500   34.4500   45.3960 C   0  0  0  0  0  0  0  0  0  0  0  0
   48.0590   32.5430   44.1150 H   0  0  0  0  0  0  0  0  0  0  0  0
   44.1960   34.9630   45.8040 H   0  0  0  0  0  0  0  0  0  0  0  0
   47.3680   31.7000   46.4910 C   0  0  0  0  0  0  0  0  0  0  0  0
   47.4980   30.4220   46.0210 C   0  0  0  0  0  0  0  0  0  0  0  0
   48.1450   29.4150   46.7080 C   0  0  0  0  0  0  0  0  0  0  0  0
   48.6970   29.6800   47.9360 C   0  0  0  0  0  0  0  0  0  0  0  0
   49.3190   28.6920   48.5890 N   0  0  0  0  0  0  0  0  0  0  0  0
   49.8900   28.8680   49.8020 C   0  0  0  0  0  0  0  0  0  0  0  0
   49.7970   30.1430   50.3450 C   0  0  0  0  0  0  0  0  0  0  0  0
   49.1640   31.1610   49.6850 C   0  0  0  0  0  0  0  0  0  0  0  0
   48.5900   30.9460   48.4450 C   0  0  0  0  0  0  0  0  0  0  0  0
   47.9420   31.9430   47.7470 C   0  0  0  0  0  0  0  0  0  0  0  0
   47.0580   30.2330   45.0550 H   0  0  0  0  0  0  0  0  0  0  0  0
   48.2290   28.4130   46.3070 H   0  0  0  0  0  0  0  0  0  0  0  0
   50.3730   28.0460   50.2790 H   0  0  0  0  0  0  0  0  0  0  0  0
   50.2470   30.3140   51.3180 H   0  0  0  0  0  0  0  0  0  0  0  0
   49.1060   32.1350   50.1250 H   0  0  0  0  0  0  0  0  0  0  0  0
   47.8840   32.9310   48.1930 H   0  0  0  0  0  0  0  0  0  0  0  0
   48.7430   35.5450   41.0650 C   0  0  0  0  0  0  0  0  0  0  0  0
   48.3700   34.8300   39.9180 C   0  0  0  0  0  0  0  0  0  0  0  0
   47.3950   33.8180   40.0320 C   0  0  0  0  0  0  0  0  0  0  0  0
   46.9140   33.6450   41.2740 N   0  0  0  0  0  0  0  0  0  0  0  0
   47.2690   34.3260   42.3680 C   0  0  0  0  0  0  0  0  0  0  0  0
   48.1920   35.2860   42.2700 N   0  0  0  0  0  0  0  0  0  0  0  0
   49.4930   36.3260   40.9840 H   0  0  0  0  0  0  0  0  0  0  0  0
   48.8050   35.0370   38.9740 H   0  0  0  0  0  0  0  0  0  0  0  0
   47.7730   32.0560   38.4130 C   0  0  0  0  0  0  0  0  0  0  0  0
   46.9360   33.0180   38.9070 C   0  0  0  0  0  0  0  0  0  0  0  0
   45.6950   33.2050   38.3390 C   0  0  0  0  0  0  0  0  0  0  0  0
   45.0040   33.9480   38.6930 H   0  0  0  0  0  0  0  0  0  0  0  0
   45.2410   32.4530   37.2700 C   0  0  0  0  0  0  0  0  0  0  0  0
   44.2700   32.6000   36.8270 H   0  0  0  0  0  0  0  0  0  0  0  0
   46.0600   31.4810   36.7560 C   0  0  0  0  0  3  0  0  0  0  0  0
   47.2900   31.3070   37.3310 C   0  0  0  0  0  3  0  0  0  0  0  0
   49.7280   32.5790   40.0580 H   0  0  0  0  0  0  0  0  0  0  0  0
   49.3550   31.7230   39.0380 S   0  0  0  0  0  0  0  0  0  0  0  0
   50.3880   31.9780   37.9480 O   0  0  0  0  0  0  0  0  0  0  0  0
   49.5090   30.2830   39.3960 O   0  0  0  0  0  0  0  0  0  0  0  0
  1  2  1  0  0  0  0
  2  8  1  0  0  0  0
  3  2  2  0  0  0  0
  3  4  1  0  0  0  0
  4  5  2  0  0  0  0
  5  6  1  0  0  0  0
  5 11  1  0  0  0  0
  6  7  1  0  0  0  0
  8 10  1  0  0  0  0
  8  6  2  0  0  0  0
  9  4  1  0  0  0  0
 11 20  1  0  0  0  0
 12 11  2  0  0  0  0
 12 13  1  0  0  0  0
 13 14  2  0  0  0  0
 14 19  1  0  0  0  0
 14 15  1  0  0  0  0
 15 16  2  0  0  0  0
 16 23  1  0  0  0  0
 16 17  1  0  0  0  0
 17 24  1  0  0  0  0
 18 25  1  0  0  0  0
 18 17  2  0  0  0  0
 19 18  1  0  0  0  0
 20 26  1  0  0  0  0
 20 19  2  0  0  0  0
 21 12  1  0  0  0  0
 22 13  1  0  0  0  0
 27 32  1  0  0  0  0
 28 29  1  0  0  0  0
 28 27  2  0  0  0  0
 29 30  2  0  0  0  0
 30 31  1  0  0  0  0
 31  3  1  0  0  0  0
 32 31  2  0  0  0  0
 33 27  1  0  0  0  0
 34 28  1  0  0  0  0
 35 36  1  0  0  0  0
 35 44  1  0  0  0  0
 36 29  1  0  0  0  0
 37 38  1  0  0  0  0
 37 36  2  0  0  0  0
 39 37  1  0  0  0  0
 40 39  1  0  0  0  0
 41 39  2  0  0  0  0
 41 42  1  0  0  0  0
 42 35  2  0  0  0  0
 44 46  2  0  0  0  0
 44 43  1  0  0  0  0
 45 44  2  0  0  0  0
M  END
>  <minimizedAffinity>
-6.99393797

>  <minimizedRMSD>
1.7247355

$$$$
