
 OpenBabel03252504483D

 30 31  0  0  0  0  0  0  0  0999 V2000
   38.0550   29.7020   42.9370 O   0  0  0  0  0  0  0  0  0  0  0  0
   37.1480   28.6610   42.2600 P   0  0  1  0  0  0  0  0  0  0  0  0
   36.3120   27.8630   43.4710 O   0  0  0  0  0  0  0  0  0  0  0  0
   36.2390   28.4120   44.2990 H   0  0  0  0  0  0  0  0  0  0  0  0
   36.1470   29.5400   41.2170 O   0  0  0  0  0  0  0  0  0  0  0  0
   37.2710   32.5020   39.4700 C   0  0  0  0  0  0  0  0  0  0  0  0
   37.4380   32.0110   38.1790 C   0  0  0  0  0  0  0  0  0  0  0  0
   37.1520   30.6440   37.9520 C   0  0  0  0  0  0  0  0  0  0  0  0
   36.7340   29.9110   39.0130 N   0  0  0  0  0  0  0  0  0  0  0  0
   36.5860   30.4360   40.2460 C   0  0  0  0  0  0  0  0  0  0  0  0
   36.8580   31.7450   40.4710 N   0  0  0  0  0  0  0  0  0  0  0  0
   37.7720   32.5830   37.3230 H   0  0  0  0  0  0  0  0  0  0  0  0
   37.2670   30.2120   36.9660 H   0  0  0  0  0  0  0  0  0  0  0  0
   37.5800   33.9490   39.6820 C   0  0  0  0  0  0  0  0  0  0  0  0
   37.3310   34.2220   40.7190 H   0  0  0  0  0  0  0  0  0  0  0  0
   36.9910   34.5610   38.9470 H   0  0  0  0  0  0  0  0  0  0  0  0
   38.6550   34.1700   39.4820 H   0  0  0  0  0  0  0  0  0  0  0  0
   38.0760   27.5670   41.3830 O   0  0  0  0  0  0  0  0  0  0  0  0
   38.1710   25.2710   41.5930 C   0  0  0  0  0  0  0  0  0  0  0  0
   38.6760   26.4860   42.0100 C   0  0  0  0  0  0  0  0  0  0  0  0
   39.6690   26.6450   42.9470 C   0  0  0  0  0  0  0  0  0  0  0  0
   40.0250   27.6050   43.2350 H   0  0  0  0  0  0  0  0  0  0  0  0
   40.1670   25.4510   43.4820 C   0  0  0  0  0  0  0  0  0  0  0  0
   40.9520   25.5240   44.2260 H   0  0  0  0  0  0  0  0  0  0  0  0
   39.6950   24.2130   43.0980 C   0  0  0  0  0  3  0  0  0  0  0  0
   38.6950   24.1030   42.1530 C   0  0  0  0  0  3  0  0  0  0  0  0
   36.0410   26.1470   40.4670 H   0  0  0  0  0  0  0  0  0  0  0  0
   36.9110   25.0950   40.4030 S   0  0  0  0  0  0  0  0  0  0  0  0
   36.2380   23.7790   40.6010 O   0  0  0  0  0  0  0  0  0  0  0  0
   37.5260   25.0640   39.0170 O   0  0  0  0  0  0  0  0  0  0  0  0
  2  1  2  1  0  0  0
  2  3  1  0  0  0  0
  3  4  1  0  0  0  0
  5  2  1  0  0  0  0
  6 14  1  0  0  0  0
  6 11  1  0  0  0  0
  7  6  2  0  0  0  0
  8  7  1  0  0  0  0
  8  9  2  0  0  0  0
  9 10  1  0  0  0  0
 10 11  2  0  0  0  0
 10  5  1  0  0  0  0
 12  7  1  0  0  0  0
 13  8  1  0  0  0  0
 14 15  1  0  0  0  0
 16 14  1  0  0  0  0
 17 14  1  0  0  0  0
 18 20  1  0  0  0  0
 18  2  1  0  0  0  0
 19 20  2  0  0  0  0
 19 26  1  0  0  0  0
 20 21  1  0  0  0  0
 21 22  1  0  0  0  0
 21 23  2  0  0  0  0
 23 24  1  0  0  0  0
 25 23  1  0  0  0  0
 26 25  2  0  0  0  0
 28 27  1  0  0  0  0
 28 29  2  0  0  0  0
 28 19  1  0  0  0  0
 30 28  2  0  0  0  0
M  END
>  <minimizedAffinity>
-5.23321009

$$$$

 OpenBabel03252504483D

 30 31  0  0  0  0  0  0  0  0999 V2000
   37.3070   32.3000   40.2300 O   0  0  0  0  0  0  0  0  0  0  0  0
   37.1170   30.9000   40.8360 P   0  0  1  0  0  0  0  0  0  0  0  0
   35.5190   30.7780   41.3220 O   0  0  0  0  0  0  0  0  0  0  0  0
   34.9270   31.4010   40.8200 H   0  0  0  0  0  0  0  0  0  0  0  0
   37.5320   29.8130   39.6080 O   0  0  0  0  0  0  0  0  0  0  0  0
   34.7860   29.0760   37.3720 C   0  0  0  0  0  0  0  0  0  0  0  0
   35.4420   29.0000   36.1480 C   0  0  0  0  0  0  0  0  0  0  0  0
   36.8410   29.2120   36.1370 C   0  0  0  0  0  0  0  0  0  0  0  0
   37.4410   29.4730   37.3240 N   0  0  0  0  0  0  0  0  0  0  0  0
   36.7570   29.5340   38.4840 C   0  0  0  0  0  0  0  0  0  0  0  0
   35.4170   29.3330   38.5040 N   0  0  0  0  0  0  0  0  0  0  0  0
   34.9780   28.7930   35.1930 H   0  0  0  0  0  0  0  0  0  0  0  0
   37.3990   29.1640   35.2100 H   0  0  0  0  0  0  0  0  0  0  0  0
   33.3080   28.8480   37.3550 C   0  0  0  0  0  0  0  0  0  0  0  0
   32.9310   28.8570   38.3890 H   0  0  0  0  0  0  0  0  0  0  0  0
   33.0940   27.8670   36.8530 H   0  0  0  0  0  0  0  0  0  0  0  0
   32.7820   29.6280   36.7550 H   0  0  0  0  0  0  0  0  0  0  0  0
   38.1380   30.6970   42.1560 O   0  0  0  0  0  0  0  0  0  0  0  0
   39.7200   29.0670   42.5590 C   0  0  0  0  0  0  0  0  0  0  0  0
   38.3940   29.4330   42.6650 C   0  0  0  0  0  0  0  0  0  0  0  0
   37.4030   28.6530   43.2120 C   0  0  0  0  0  0  0  0  0  0  0  0
   36.3940   28.9820   43.2710 H   0  0  0  0  0  0  0  0  0  0  0  0
   37.8310   27.4050   43.6790 C   0  0  0  0  0  0  0  0  0  0  0  0
   37.0860   26.7520   44.1190 H   0  0  0  0  0  0  0  0  0  0  0  0
   39.1440   26.9930   43.5960 C   0  0  0  0  0  3  0  0  0  0  0  0
   40.1060   27.8110   43.0370 C   0  0  0  0  0  3  0  0  0  0  0  0
   40.4390   30.8500   40.8630 H   0  0  0  0  0  0  0  0  0  0  0  0
   40.9580   30.0730   41.8610 S   0  0  0  0  0  0  0  0  0  0  0  0
   42.0800   29.2090   41.3950 O   0  0  0  0  0  0  0  0  0  0  0  0
   41.5280   30.9860   42.9300 O   0  0  0  0  0  0  0  0  0  0  0  0
  2  1  2  6  0  0  0
  2  3  1  0  0  0  0
  2 18  1  0  0  0  0
  4  3  1  0  0  0  0
  5  2  1  0  0  0  0
  6 11  1  0  0  0  0
  7  6  2  0  0  0  0
  8  7  1  0  0  0  0
  8  9  2  0  0  0  0
  9 10  1  0  0  0  0
 10 11  2  0  0  0  0
 10  5  1  0  0  0  0
 12  7  1  0  0  0  0
 13  8  1  0  0  0  0
 14  6  1  0  0  0  0
 14 15  1  0  0  0  0
 16 14  1  0  0  0  0
 17 14  1  0  0  0  0
 18 20  1  0  0  0  0
 19 20  2  0  0  0  0
 19 26  1  0  0  0  0
 20 21  1  0  0  0  0
 21 22  1  0  0  0  0
 21 23  2  0  0  0  0
 23 24  1  0  0  0  0
 25 23  1  0  0  0  0
 26 25  2  0  0  0  0
 27 28  1  0  0  0  0
 28 19  1  0  0  0  0
 28 30  2  0  0  0  0
 29 28  2  0  0  0  0
M  END
>  <minimizedAffinity>
-5.04947996

$$$$

 OpenBabel03252504483D

 30 31  0  0  0  0  0  0  0  0999 V2000
   36.7950   31.5050   39.0360 O   0  0  0  0  0  0  0  0  0  0  0  0
   37.2080   31.1310   40.4690 P   0  0  1  0  0  0  0  0  0  0  0  0
   35.8250   31.1610   41.4130 O   0  0  0  0  0  0  0  0  0  0  0  0
   35.0000   31.0240   40.8720 H   0  0  0  0  0  0  0  0  0  0  0  0
   37.9110   29.5960   40.3540 O   0  0  0  0  0  0  0  0  0  0  0  0
   37.2790   26.2610   41.6050 C   0  0  0  0  0  0  0  0  0  0  0  0
   36.9520   26.5240   42.9310 C   0  0  0  0  0  0  0  0  0  0  0  0
   36.9630   27.8730   43.3570 C   0  0  0  0  0  0  0  0  0  0  0  0
   37.2910   28.8140   42.4390 N   0  0  0  0  0  0  0  0  0  0  0  0
   37.5990   28.5060   41.1620 C   0  0  0  0  0  0  0  0  0  0  0  0
   37.5910   27.2150   40.7460 N   0  0  0  0  0  0  0  0  0  0  0  0
   36.6890   25.7840   43.6760 H   0  0  0  0  0  0  0  0  0  0  0  0
   36.7170   28.1310   44.3800 H   0  0  0  0  0  0  0  0  0  0  0  0
   37.2600   24.8280   41.1810 C   0  0  0  0  0  0  0  0  0  0  0  0
   37.4570   24.7690   40.0990 H   0  0  0  0  0  0  0  0  0  0  0  0
   36.2610   24.3830   41.4370 H   0  0  0  0  0  0  0  0  0  0  0  0
   38.0210   24.2280   41.7350 H   0  0  0  0  0  0  0  0  0  0  0  0
   38.3290   32.2370   41.0560 O   0  0  0  0  0  0  0  0  0  0  0  0
   40.5550   32.1750   40.4490 C   0  0  0  0  0  0  0  0  0  0  0  0
   39.6110   31.8320   41.3960 C   0  0  0  0  0  0  0  0  0  0  0  0
   39.8770   31.1610   42.5660 C   0  0  0  0  0  0  0  0  0  0  0  0
   39.1130   30.9200   43.2640 H   0  0  0  0  0  0  0  0  0  0  0  0
   41.2230   30.8260   42.7560 C   0  0  0  0  0  0  0  0  0  0  0  0
   41.4830   30.2940   43.6630 H   0  0  0  0  0  0  0  0  0  0  0  0
   42.2030   31.1460   41.8400 C   0  0  0  0  0  3  0  0  0  0  0  0
   41.8880   31.8220   40.6780 C   0  0  0  0  0  3  0  0  0  0  0  0
   39.0410   33.7520   39.1090 H   0  0  0  0  0  0  0  0  0  0  0  0
   40.1930   33.0280   38.9740 S   0  0  0  0  0  0  0  0  0  0  0  0
   40.1300   32.0490   37.8510 O   0  0  0  0  0  0  0  0  0  0  0  0
   41.3250   33.9850   38.6530 O   0  0  0  0  0  0  0  0  0  0  0  0
  2  1  2  6  0  0  0
  2 18  1  0  0  0  0
  2  3  1  0  0  0  0
  4  3  1  0  0  0  0
  5  2  1  0  0  0  0
  5 10  1  0  0  0  0
  6  7  1  0  0  0  0
  7  8  2  0  0  0  0
  7 12  1  0  0  0  0
  8 13  1  0  0  0  0
  9  8  1  0  0  0  0
 10  9  2  0  0  0  0
 11 10  1  0  0  0  0
 11  6  2  0  0  0  0
 14 16  1  0  0  0  0
 14  6  1  0  0  0  0
 14 17  1  0  0  0  0
 15 14  1  0  0  0  0
 18 20  1  0  0  0  0
 19 26  2  0  0  0  0
 19 20  1  0  0  0  0
 20 21  2  0  0  0  0
 21 23  1  0  0  0  0
 21 22  1  0  0  0  0
 23 24  1  0  0  0  0
 25 23  2  0  0  0  0
 26 25  1  0  0  0  0
 28 27  1  0  0  0  0
 28 19  1  0  0  0  0
 29 28  2  0  0  0  0
 30 28  2  0  0  0  0
M  END
>  <minimizedAffinity>
-5.03223181

$$$$

 OpenBabel03252504483D

 30 31  0  0  0  0  0  0  0  0999 V2000
   39.5720   30.7580   43.0670 O   0  0  0  0  0  0  0  0  0  0  0  0
   38.7900   29.6370   42.3630 P   0  0  1  0  0  0  0  0  0  0  0  0
   39.6270   29.2430   40.9680 O   0  0  0  0  0  0  0  0  0  0  0  0
   40.5920   29.4800   41.0320 H   0  0  0  0  0  0  0  0  0  0  0  0
   38.7100   28.3690   43.4810 O   0  0  0  0  0  0  0  0  0  0  0  0
   37.9000   25.0640   42.2520 C   0  0  0  0  0  0  0  0  0  0  0  0
   39.0220   24.3420   42.6480 C   0  0  0  0  0  0  0  0  0  0  0  0
   40.0420   25.0380   43.3390 C   0  0  0  0  0  0  0  0  0  0  0  0
   39.8500   26.3600   43.5670 N   0  0  0  0  0  0  0  0  0  0  0  0
   38.7410   27.0130   43.1630 C   0  0  0  0  0  0  0  0  0  0  0  0
   37.7590   26.3540   42.4990 N   0  0  0  0  0  0  0  0  0  0  0  0
   39.1900   23.2880   42.4730 H   0  0  0  0  0  0  0  0  0  0  0  0
   40.9350   24.5230   43.6690 H   0  0  0  0  0  0  0  0  0  0  0  0
   36.8380   24.3060   41.5230 C   0  0  0  0  0  0  0  0  0  0  0  0
   35.9810   24.9710   41.3410 H   0  0  0  0  0  0  0  0  0  0  0  0
   36.5380   23.4140   42.1370 H   0  0  0  0  0  0  0  0  0  0  0  0
   37.2160   23.9040   40.5530 H   0  0  0  0  0  0  0  0  0  0  0  0
   37.2420   30.1650   41.9770 O   0  0  0  0  0  0  0  0  0  0  0  0
   36.8430   30.8530   39.8110 C   0  0  0  0  0  0  0  0  0  0  0  0
   36.6750   29.8560   40.7500 C   0  0  0  0  0  0  0  0  0  0  0  0
   36.0210   28.6670   40.5280 C   0  0  0  0  0  0  0  0  0  0  0  0
   35.9180   27.9290   41.2860 H   0  0  0  0  0  0  0  0  0  0  0  0
   35.5080   28.5140   39.2340 C   0  0  0  0  0  0  0  0  0  0  0  0
   34.9820   27.5930   39.0100 H   0  0  0  0  0  0  0  0  0  0  0  0
   35.6490   29.4810   38.2610 C   0  0  0  0  0  3  0  0  0  0  0  0
   36.3150   30.6600   38.5310 C   0  0  0  0  0  3  0  0  0  0  0  0
   37.5670   32.7010   41.4330 H   0  0  0  0  0  0  0  0  0  0  0  0
   37.6770   32.3510   40.1160 S   0  0  0  0  0  0  0  0  0  0  0  0
   37.1460   33.3980   39.1970 O   0  0  0  0  0  0  0  0  0  0  0  0
   39.1470   32.1870   39.7850 O   0  0  0  0  0  0  0  0  0  0  0  0
  2  1  2  1  0  0  0
  2  5  1  0  0  0  0
  3  4  1  0  0  0  0
  3  2  1  0  0  0  0
  6 11  2  0  0  0  0
  6  7  1  0  0  0  0
  7  8  2  0  0  0  0
  8  9  1  0  0  0  0
  8 13  1  0  0  0  0
 10  5  1  0  0  0  0
 10  9  2  0  0  0  0
 11 10  1  0  0  0  0
 12  7  1  0  0  0  0
 14 16  1  0  0  0  0
 14  6  1  0  0  0  0
 15 14  1  0  0  0  0
 17 14  1  0  0  0  0
 18  2  1  0  0  0  0
 19 28  1  0  0  0  0
 19 20  1  0  0  0  0
 20 18  1  0  0  0  0
 21 20  2  0  0  0  0
 21 22  1  0  0  0  0
 23 21  1  0  0  0  0
 24 23  1  0  0  0  0
 25 26  1  0  0  0  0
 25 23  2  0  0  0  0
 26 19  2  0  0  0  0
 28 27  1  0  0  0  0
 29 28  2  0  0  0  0
 30 28  2  0  0  0  0
M  END
>  <minimizedAffinity>
-5.02803564

$$$$

 OpenBabel03252504483D

 30 31  0  0  0  0  0  0  0  0999 V2000
   37.1810   28.4790   39.8550 O   0  0  0  0  0  0  0  0  0  0  0  0
   36.3740   28.9670   41.0690 P   0  0  1  0  0  0  0  0  0  0  0  0
   34.8840   29.4820   40.5060 O   0  0  0  0  0  0  0  0  0  0  0  0
   34.6430   29.0510   39.6410 H   0  0  0  0  0  0  0  0  0  0  0  0
   36.2770   27.6380   42.1130 O   0  0  0  0  0  0  0  0  0  0  0  0
   39.3810   26.0390   43.0590 C   0  0  0  0  0  0  0  0  0  0  0  0
   39.1430   24.7260   42.6680 C   0  0  0  0  0  0  0  0  0  0  0  0
   37.8900   24.4310   42.0790 C   0  0  0  0  0  0  0  0  0  0  0  0
   37.0120   25.4540   41.9380 N   0  0  0  0  0  0  0  0  0  0  0  0
   37.2940   26.7120   42.3340 C   0  0  0  0  0  0  0  0  0  0  0  0
   38.4910   27.0030   42.8990 N   0  0  0  0  0  0  0  0  0  0  0  0
   39.8330   23.8990   42.7740 H   0  0  0  0  0  0  0  0  0  0  0  0
   37.6550   23.4240   41.7570 H   0  0  0  0  0  0  0  0  0  0  0  0
   40.7110   26.3230   43.6790 C   0  0  0  0  0  0  0  0  0  0  0  0
   40.7980   27.4040   43.8660 H   0  0  0  0  0  0  0  0  0  0  0  0
   41.5210   25.9640   42.9880 H   0  0  0  0  0  0  0  0  0  0  0  0
   40.8450   25.7640   44.6350 H   0  0  0  0  0  0  0  0  0  0  0  0
   37.1750   30.2370   41.8260 O   0  0  0  0  0  0  0  0  0  0  0  0
   39.0650   31.4450   41.2860 C   0  0  0  0  0  0  0  0  0  0  0  0
   37.7100   31.2780   41.0830 C   0  0  0  0  0  0  0  0  0  0  0  0
   36.9400   32.0430   40.2400 C   0  0  0  0  0  0  0  0  0  0  0  0
   35.8970   31.8740   40.1180 H   0  0  0  0  0  0  0  0  0  0  0  0
   37.6360   33.0520   39.5640 C   0  0  0  0  0  0  0  0  0  0  0  0
   37.0720   33.6840   38.8890 H   0  0  0  0  0  0  0  0  0  0  0  0
   38.9890   33.2590   39.7330 C   0  0  0  0  0  3  0  0  0  0  0  0
   39.7230   32.4640   40.5920 C   0  0  0  0  0  3  0  0  0  0  0  0
   39.2560   30.0010   43.3950 H   0  0  0  0  0  0  0  0  0  0  0  0
   40.0200   30.4610   42.3590 S   0  0  0  0  0  0  0  0  0  0  0  0
   41.2000   31.2490   42.8190 O   0  0  0  0  0  0  0  0  0  0  0  0
   40.5650   29.2670   41.5990 O   0  0  0  0  0  0  0  0  0  0  0  0
  2  1  2  6  0  0  0
  2 18  1  0  0  0  0
  2  5  1  0  0  0  0
  3  2  1  0  0  0  0
  4  3  1  0  0  0  0
  5 10  1  0  0  0  0
  6 14  1  0  0  0  0
  7 12  1  0  0  0  0
  7  6  2  0  0  0  0
  8  7  1  0  0  0  0
  9  8  2  0  0  0  0
  9 10  1  0  0  0  0
 10 11  2  0  0  0  0
 11  6  1  0  0  0  0
 13  8  1  0  0  0  0
 14 15  1  0  0  0  0
 14 17  1  0  0  0  0
 16 14  1  0  0  0  0
 19 28  1  0  0  0  0
 20 19  1  0  0  0  0
 20 18  1  0  0  0  0
 21 20  2  0  0  0  0
 22 21  1  0  0  0  0
 23 25  2  0  0  0  0
 23 21  1  0  0  0  0
 24 23  1  0  0  0  0
 25 26  1  0  0  0  0
 26 19  2  0  0  0  0
 28 29  2  0  0  0  0
 28 27  1  0  0  0  0
 30 28  2  0  0  0  0
M  END
>  <minimizedAffinity>
-5.01086283

$$$$

 OpenBabel03252504483D

 30 31  0  0  0  0  0  0  0  0999 V2000
   39.2600   30.4330   42.9370 O   0  0  0  0  0  0  0  0  0  0  0  0
   38.3670   29.2820   42.4460 P   0  0  1  0  0  0  0  0  0  0  0  0
   36.7820   29.8160   42.5080 O   0  0  0  0  0  0  0  0  0  0  0  0
   36.7200   30.8090   42.4610 H   0  0  0  0  0  0  0  0  0  0  0  0
   38.8990   28.9320   40.8780 O   0  0  0  0  0  0  0  0  0  0  0  0
   37.6610   29.1500   37.4860 C   0  0  0  0  0  0  0  0  0  0  0  0
   36.9640   30.3530   37.5260 C   0  0  0  0  0  0  0  0  0  0  0  0
   36.9440   31.0620   38.7490 C   0  0  0  0  0  0  0  0  0  0  0  0
   37.6090   30.5160   39.7970 N   0  0  0  0  0  0  0  0  0  0  0  0
   38.2710   29.3450   39.7050 C   0  0  0  0  0  0  0  0  0  0  0  0
   38.2950   28.6590   38.5360 N   0  0  0  0  0  0  0  0  0  0  0  0
   36.4290   30.8010   36.6990 H   0  0  0  0  0  0  0  0  0  0  0  0
   36.4170   32.0040   38.8340 H   0  0  0  0  0  0  0  0  0  0  0  0
   37.6650   28.4200   36.1810 C   0  0  0  0  0  0  0  0  0  0  0  0
   38.3120   27.5340   36.2660 H   0  0  0  0  0  0  0  0  0  0  0  0
   38.0280   29.1130   35.3750 H   0  0  0  0  0  0  0  0  0  0  0  0
   36.6360   28.1080   35.8840 H   0  0  0  0  0  0  0  0  0  0  0  0
   38.5610   27.9360   43.4350 O   0  0  0  0  0  0  0  0  0  0  0  0
   39.4770   25.8850   42.9060 C   0  0  0  0  0  0  0  0  0  0  0  0
   38.3350   26.6600   42.9450 C   0  0  0  0  0  0  0  0  0  0  0  0
   37.0860   26.2420   42.5480 C   0  0  0  0  0  0  0  0  0  0  0  0
   36.2360   26.8770   42.5980 H   0  0  0  0  0  0  0  0  0  0  0  0
   37.0310   24.9240   42.0790 C   0  0  0  0  0  0  0  0  0  0  0  0
   36.0690   24.5480   41.7530 H   0  0  0  0  0  0  0  0  0  0  0  0
   38.1440   24.1110   42.0200 C   0  0  0  0  0  3  0  0  0  0  0  0
   39.3780   24.5750   42.4290 C   0  0  0  0  0  3  0  0  0  0  0  0
   40.9810   26.9890   44.6640 H   0  0  0  0  0  0  0  0  0  0  0  0
   41.0480   26.4370   43.4150 S   0  0  0  0  0  0  0  0  0  0  0  0
   41.5830   27.3850   42.3950 O   0  0  0  0  0  0  0  0  0  0  0  0
   42.0050   25.2620   43.4620 O   0  0  0  0  0  0  0  0  0  0  0  0
  2  3  1  0  0  0  0
  2  1  2  1  0  0  0
  2 18  1  0  0  0  0
  4  3  1  0  0  0  0
  5  2  1  0  0  0  0
  6  7  2  0  0  0  0
  6 11  1  0  0  0  0
  7  8  1  0  0  0  0
  8 13  1  0  0  0  0
  8  9  2  0  0  0  0
 10  9  1  0  0  0  0
 10  5  1  0  0  0  0
 11 10  2  0  0  0  0
 12  7  1  0  0  0  0
 14 15  1  0  0  0  0
 14  6  1  0  0  0  0
 16 14  1  0  0  0  0
 17 14  1  0  0  0  0
 19 20  1  0  0  0  0
 19 28  1  0  0  0  0
 20 18  1  0  0  0  0
 21 22  1  0  0  0  0
 21 20  2  0  0  0  0
 23 21  1  0  0  0  0
 24 23  1  0  0  0  0
 25 23  2  0  0  0  0
 25 26  1  0  0  0  0
 26 19  2  0  0  0  0
 28 30  2  0  0  0  0
 28 27  1  0  0  0  0
 29 28  2  0  0  0  0
M  END
>  <minimizedAffinity>
-5.00552654

$$$$

 OpenBabel03252504483D

 30 31  0  0  0  0  0  0  0  0999 V2000
   34.4910   29.2090   39.3370 O   0  0  0  0  0  0  0  0  0  0  0  0
   35.8440   29.3780   40.0470 P   0  0  1  0  0  0  0  0  0  0  0  0
   35.5970   30.3800   41.3650 O   0  0  0  0  0  0  0  0  0  0  0  0
   34.6500   30.3640   41.6740 H   0  0  0  0  0  0  0  0  0  0  0  0
   36.3330   27.8150   40.4730 O   0  0  0  0  0  0  0  0  0  0  0  0
   38.6320   26.1120   42.6860 C   0  0  0  0  0  0  0  0  0  0  0  0
   38.9090   27.1100   43.6140 C   0  0  0  0  0  0  0  0  0  0  0  0
   38.2790   28.3650   43.4390 C   0  0  0  0  0  0  0  0  0  0  0  0
   37.4490   28.5020   42.3760 N   0  0  0  0  0  0  0  0  0  0  0  0
   37.2130   27.5000   41.5050 C   0  0  0  0  0  0  0  0  0  0  0  0
   37.8120   26.2950   41.6660 N   0  0  0  0  0  0  0  0  0  0  0  0
   39.5690   27.0170   44.4660 H   0  0  0  0  0  0  0  0  0  0  0  0
   38.4610   29.1760   44.1330 H   0  0  0  0  0  0  0  0  0  0  0  0
   39.3100   24.7960   42.8950 C   0  0  0  0  0  0  0  0  0  0  0  0
   38.9450   24.0790   42.1440 H   0  0  0  0  0  0  0  0  0  0  0  0
   39.0990   24.4360   43.9370 H   0  0  0  0  0  0  0  0  0  0  0  0
   40.4190   24.8910   42.8160 H   0  0  0  0  0  0  0  0  0  0  0  0
   36.9640   30.0680   39.0010 O   0  0  0  0  0  0  0  0  0  0  0  0
   38.9800   31.0190   39.6000 C   0  0  0  0  0  0  0  0  0  0  0  0
   37.6380   31.2280   39.3510 C   0  0  0  0  0  0  0  0  0  0  0  0
   37.0030   32.4440   39.4310 C   0  0  0  0  0  0  0  0  0  0  0  0
   35.9660   32.5530   39.2280 H   0  0  0  0  0  0  0  0  0  0  0  0
   37.8290   33.5140   39.7960 C   0  0  0  0  0  0  0  0  0  0  0  0
   37.3750   34.4940   39.8740 H   0  0  0  0  0  0  0  0  0  0  0  0
   39.1740   33.3560   40.0560 C   0  0  0  0  0  3  0  0  0  0  0  0
   39.7690   32.1140   39.9640 C   0  0  0  0  0  3  0  0  0  0  0  0
   38.8540   28.4920   39.1840 H   0  0  0  0  0  0  0  0  0  0  0  0
   39.7630   29.4670   39.4920 S   0  0  0  0  0  0  0  0  0  0  0  0
   40.4850   29.1980   40.7680 O   0  0  0  0  0  0  0  0  0  0  0  0
   40.8120   29.5060   38.3980 O   0  0  0  0  0  0  0  0  0  0  0  0
  2  1  2  6  0  0  0
  2  5  1  0  0  0  0
  2  3  1  0  0  0  0
  3  4  1  0  0  0  0
  5 10  1  0  0  0  0
  6 14  1  0  0  0  0
  6  7  1  0  0  0  0
  7 12  1  0  0  0  0
  8  7  2  0  0  0  0
  8 13  1  0  0  0  0
  9  8  1  0  0  0  0
 10 11  1  0  0  0  0
 10  9  2  0  0  0  0
 11  6  2  0  0  0  0
 14 16  1  0  0  0  0
 15 14  1  0  0  0  0
 17 14  1  0  0  0  0
 18 20  1  0  0  0  0
 18  2  1  0  0  0  0
 19 26  1  0  0  0  0
 20 21  1  0  0  0  0
 20 19  2  0  0  0  0
 21 23  2  0  0  0  0
 22 21  1  0  0  0  0
 23 24  1  0  0  0  0
 23 25  1  0  0  0  0
 26 25  2  0  0  0  0
 27 28  1  0  0  0  0
 28 19  1  0  0  0  0
 28 29  2  0  0  0  0
 30 28  2  0  0  0  0
M  END
>  <minimizedAffinity>
-4.98979855

$$$$

 OpenBabel03252504483D

 30 31  0  0  0  0  0  0  0  0999 V2000
   35.4490   28.2990   40.0300 O   0  0  0  0  0  0  0  0  0  0  0  0
   36.4270   28.8860   41.0610 P   0  0  1  0  0  0  0  0  0  0  0  0
   35.8480   30.3960   41.4970 O   0  0  0  0  0  0  0  0  0  0  0  0
   34.8670   30.4760   41.3480 H   0  0  0  0  0  0  0  0  0  0  0  0
   36.4540   27.7800   42.3420 O   0  0  0  0  0  0  0  0  0  0  0  0
   39.3480   25.7390   43.0840 C   0  0  0  0  0  0  0  0  0  0  0  0
   38.9330   24.4970   42.6160 C   0  0  0  0  0  0  0  0  0  0  0  0
   37.6410   24.4040   42.0490 C   0  0  0  0  0  0  0  0  0  0  0  0
   36.8990   25.5380   42.0020 N   0  0  0  0  0  0  0  0  0  0  0  0
   37.3480   26.7200   42.4690 C   0  0  0  0  0  0  0  0  0  0  0  0
   38.5860   26.8170   43.0150 N   0  0  0  0  0  0  0  0  0  0  0  0
   39.5140   23.5840   42.6460 H   0  0  0  0  0  0  0  0  0  0  0  0
   37.2700   23.4600   41.6700 H   0  0  0  0  0  0  0  0  0  0  0  0
   40.7170   25.8100   43.6790 C   0  0  0  0  0  0  0  0  0  0  0  0
   40.9470   26.8550   43.9330 H   0  0  0  0  0  0  0  0  0  0  0  0
   41.4590   25.3980   42.9410 H   0  0  0  0  0  0  0  0  0  0  0  0
   40.7990   25.1730   44.5910 H   0  0  0  0  0  0  0  0  0  0  0  0
   37.9610   29.0290   40.3890 O   0  0  0  0  0  0  0  0  0  0  0  0
   39.1340   30.9410   39.8440 C   0  0  0  0  0  0  0  0  0  0  0  0
   38.8340   30.0140   40.8230 C   0  0  0  0  0  0  0  0  0  0  0  0
   39.3300   30.0350   42.1050 C   0  0  0  0  0  0  0  0  0  0  0  0
   39.0680   29.2980   42.8240 H   0  0  0  0  0  0  0  0  0  0  0  0
   40.1990   31.0980   42.3790 C   0  0  0  0  0  0  0  0  0  0  0  0
   40.6180   31.1580   43.3770 H   0  0  0  0  0  0  0  0  0  0  0  0
   40.5290   32.0480   41.4360 C   0  0  0  0  0  3  0  0  0  0  0  0
   40.0060   31.9860   40.1600 C   0  0  0  0  0  3  0  0  0  0  0  0
   38.5250   29.6180   37.7340 H   0  0  0  0  0  0  0  0  0  0  0  0
   38.4910   30.8930   38.2260 S   0  0  0  0  0  0  0  0  0  0  0  0
   39.2460   31.8590   37.3760 O   0  0  0  0  0  0  0  0  0  0  0  0
   37.0490   31.3620   38.2410 O   0  0  0  0  0  0  0  0  0  0  0  0
  2  1  2  6  0  0  0
  2  3  1  0  0  0  0
  2  5  1  0  0  0  0
  4  3  1  0  0  0  0
  5 10  1  0  0  0  0
  6 14  1  0  0  0  0
  7 12  1  0  0  0  0
  7  6  2  0  0  0  0
  8  7  1  0  0  0  0
  9  8  2  0  0  0  0
  9 10  1  0  0  0  0
 10 11  2  0  0  0  0
 11  6  1  0  0  0  0
 13  8  1  0  0  0  0
 14 15  1  0  0  0  0
 14 17  1  0  0  0  0
 16 14  1  0  0  0  0
 18 20  1  0  0  0  0
 18  2  1  0  0  0  0
 19 26  2  0  0  0  0
 19 20  1  0  0  0  0
 20 21  2  0  0  0  0
 21 23  1  0  0  0  0
 21 22  1  0  0  0  0
 23 24  1  0  0  0  0
 25 23  2  0  0  0  0
 26 25  1  0  0  0  0
 27 28  1  0  0  0  0
 28 30  2  0  0  0  0
 28 19  1  0  0  0  0
 29 28  2  0  0  0  0
M  END
>  <minimizedAffinity>
-4.90912867

$$$$

 OpenBabel03252504483D

 30 31  0  0  0  0  0  0  0  0999 V2000
   40.2740   31.4070   40.2930 O   0  0  0  0  0  0  0  0  0  0  0  0
   39.4140   30.8430   41.4360 P   0  0  1  0  0  0  0  0  0  0  0  0
   39.9650   31.5270   42.8610 O   0  0  0  0  0  0  0  0  0  0  0  0
   40.4260   32.3960   42.7050 H   0  0  0  0  0  0  0  0  0  0  0  0
   37.8200   31.2690   41.0580 O   0  0  0  0  0  0  0  0  0  0  0  0
   36.3900   29.8370   38.0590 C   0  0  0  0  0  0  0  0  0  0  0  0
   35.2490   29.2230   38.5660 C   0  0  0  0  0  0  0  0  0  0  0  0
   35.0080   29.3270   39.9560 C   0  0  0  0  0  0  0  0  0  0  0  0
   35.9100   30.0190   40.6950 N   0  0  0  0  0  0  0  0  0  0  0  0
   37.0010   30.5970   40.1530 C   0  0  0  0  0  0  0  0  0  0  0  0
   37.2390   30.5030   38.8210 N   0  0  0  0  0  0  0  0  0  0  0  0
   34.5210   28.6670   37.9900 H   0  0  0  0  0  0  0  0  0  0  0  0
   34.1350   28.8670   40.4010 H   0  0  0  0  0  0  0  0  0  0  0  0
   36.6210   29.7120   36.5870 C   0  0  0  0  0  0  0  0  0  0  0  0
   37.5060   30.3050   36.3100 H   0  0  0  0  0  0  0  0  0  0  0  0
   35.7060   30.0680   36.0420 H   0  0  0  0  0  0  0  0  0  0  0  0
   36.7700   28.6480   36.2860 H   0  0  0  0  0  0  0  0  0  0  0  0
   39.5640   29.1700   41.5030 O   0  0  0  0  0  0  0  0  0  0  0  0
   38.1590   27.3640   41.2090 C   0  0  0  0  0  0  0  0  0  0  0  0
   38.5530   28.3910   42.0430 C   0  0  0  0  0  0  0  0  0  0  0  0
   38.0210   28.6430   43.2850 C   0  0  0  0  0  0  0  0  0  0  0  0
   38.3600   29.4480   43.8910 H   0  0  0  0  0  0  0  0  0  0  0  0
   37.0090   27.7610   43.6800 C   0  0  0  0  0  0  0  0  0  0  0  0
   36.5570   27.9190   44.6520 H   0  0  0  0  0  0  0  0  0  0  0  0
   36.5800   26.7200   42.8820 C   0  0  0  0  0  3  0  0  0  0  0  0
   37.1440   26.5050   41.6410 C   0  0  0  0  0  3  0  0  0  0  0  0
   39.5630   28.1480   39.2120 H   0  0  0  0  0  0  0  0  0  0  0  0
   38.8480   27.0630   39.6380 S   0  0  0  0  0  0  0  0  0  0  0  0
   37.7580   26.6850   38.6940 O   0  0  0  0  0  0  0  0  0  0  0  0
   39.7860   25.8740   39.7170 O   0  0  0  0  0  0  0  0  0  0  0  0
  2  1  2  6  0  0  0
  2 18  1  0  0  0  0
  2  3  1  0  0  0  0
  4  3  1  0  0  0  0
  5  2  1  0  0  0  0
  6  7  2  0  0  0  0
  6 11  1  0  0  0  0
  7  8  1  0  0  0  0
  8 13  1  0  0  0  0
  8  9  2  0  0  0  0
 10  9  1  0  0  0  0
 10  5  1  0  0  0  0
 11 10  2  0  0  0  0
 12  7  1  0  0  0  0
 14  6  1  0  0  0  0
 15 14  1  0  0  0  0
 16 14  1  0  0  0  0
 17 14  1  0  0  0  0
 18 20  1  0  0  0  0
 19 26  2  0  0  0  0
 19 20  1  0  0  0  0
 20 21  2  0  0  0  0
 21 23  1  0  0  0  0
 21 22  1  0  0  0  0
 23 24  1  0  0  0  0
 25 23  2  0  0  0  0
 26 25  1  0  0  0  0
 27 28  1  0  0  0  0
 28 30  2  0  0  0  0
 28 19  1  0  0  0  0
 29 28  2  0  0  0  0
M  END
>  <minimizedAffinity>
-4.81885195

$$$$
