
 OpenBabel03252505513D

 28 29  0  0  0  0  0  0  0  0999 V2000
   45.6810   32.9330   46.5220 C   0  0  0  0  0  0  0  0  0  0  0  0
   44.6560   32.7850   46.9100 H   0  0  0  0  0  0  0  0  0  0  0  0
   46.0320   33.9880   46.7160 H   0  0  0  0  0  0  0  0  0  0  0  0
   46.4290   30.6840   47.0930 C   0  0  0  0  0  0  0  0  0  0  0  0
   46.6120   32.0510   47.2690 C   0  0  0  0  0  0  0  0  0  0  0  0
   47.6110   32.5020   48.1050 C   0  0  0  0  0  0  0  0  0  0  0  0
   47.6820   33.6000   48.1820 H   0  0  0  0  0  0  0  0  0  0  0  0
   48.4650   31.6730   48.7990 C   0  0  0  0  0  0  0  0  0  0  0  0
   49.2330   32.0790   49.4430 H   0  0  0  0  0  0  0  0  0  0  0  0
   48.3040   30.2920   48.6420 C   0  0  0  0  0  3  0  0  0  0  0  0
   47.2980   29.8750   47.8000 C   0  0  0  0  0  3  0  0  0  0  0  0
   44.3220   30.7870   45.6860 H   0  0  0  0  0  0  0  0  0  0  0  0
   45.2520   29.9020   46.0970 S   0  0  0  0  0  0  0  0  0  0  0  0
   44.5310   28.8020   46.8290 O   0  0  0  0  0  0  0  0  0  0  0  0
   45.9270   29.2720   44.8860 O   0  0  0  0  0  0  0  0  0  0  0  0
   45.6500   32.6630   45.1340 O   0  0  0  0  0  0  0  0  0  0  0  0
   48.4240   33.6120   43.1170 C   0  0  0  0  0  0  0  0  0  0  0  0
   47.9780   34.7500   42.4530 C   0  0  0  0  0  0  0  0  0  0  0  0
   46.6690   35.1910   42.7250 C   0  0  0  0  0  0  0  0  0  0  0  0
   45.9130   34.4980   43.6080 N   0  0  0  0  0  0  0  0  0  0  0  0
   46.3970   33.3950   44.2270 C   0  0  0  0  0  0  0  0  0  0  0  0
   47.6310   32.9570   43.9870 N   0  0  0  0  0  0  0  0  0  0  0  0
   49.4080   33.2490   42.9370 H   0  0  0  0  0  0  0  0  0  0  0  0
   46.3370   36.0770   42.2010 H   0  0  0  0  0  0  0  0  0  0  0  0
   48.9140   35.4250   41.5000 C   0  0  0  0  0  0  0  0  0  0  0  0
   48.3590   35.2180   40.2550 F   0  0  0  0  0  0  0  0  0  0  0  0
   50.1300   34.7880   41.6170 F   0  0  0  0  0  0  0  0  0  0  0  0
   48.9970   36.7560   41.8500 F   0  0  0  0  0  0  0  0  0  0  0  0
  1  3  1  0  0  0  0
  1  2  1  0  0  0  0
  1  5  1  0  0  0  0
  4  5  2  0  0  0  0
  4 11  1  0  0  0  0
  5  6  1  0  0  0  0
  6  7  1  0  0  0  0
  6  8  2  0  0  0  0
  8  9  1  0  0  0  0
 10  8  1  0  0  0  0
 11 10  2  0  0  0  0
 12 13  1  0  0  0  0
 13 14  2  0  0  0  0
 13  4  1  0  0  0  0
 15 13  2  0  0  0  0
 16  1  1  0  0  0  0
 17 22  1  0  0  0  0
 18 19  1  0  0  0  0
 18 17  2  0  0  0  0
 19 20  2  0  0  0  0
 20 21  1  0  0  0  0
 21 16  1  0  0  0  0
 22 21  2  0  0  0  0
 23 17  1  0  0  0  0
 24 19  1  0  0  0  0
 25 27  1  0  0  0  0
 25 28  1  0  0  0  0
 25 18  1  0  0  0  0
 26 25  1  0  0  0  0
M  END
>  <minimizedAffinity>
-5.00831318

>  <minimizedRMSD>
3.0178113

$$$$
