
 OpenBabel03242514313D

 41 44  0  0  0  0  0  0  0  0999 V2000
   39.5780   28.3720   40.0070 Cl  0  0  0  0  0  0  0  0  0  0  0  0
   38.0900   29.2600   40.1510 C   0  0  0  0  0  0  0  0  0  0  0  0
   38.1000   30.5920   39.9430 C   0  0  0  0  0  0  0  0  0  0  0  0
   36.9210   31.2230   40.2960 C   0  0  0  0  0  0  0  0  0  0  0  0
   35.8130   30.5840   40.8160 C   0  0  0  0  0  0  0  0  0  0  0  0
   35.8810   29.2120   40.9930 C   0  0  0  0  0  0  0  0  0  0  0  0
   37.0320   28.5600   40.6530 C   0  0  0  0  0  0  0  0  0  0  0  0
   36.9230   32.3170   40.1290 H   0  0  0  0  0  0  0  0  0  0  0  0
   35.0090   31.2360   41.0250 H   0  0  0  0  0  0  0  0  0  0  0  0
   34.9700   28.7890   41.4010 H   0  0  0  0  0  0  0  0  0  0  0  0
   40.7400   31.8370   37.6150 C   0  0  0  0  0  0  0  0  0  0  0  0
   39.5790   31.1840   38.0700 C   0  0  0  0  0  0  0  0  0  0  0  0
   39.2490   31.2710   39.4140 C   0  0  0  0  0  0  0  0  0  0  0  0
   40.0720   31.9920   40.2070 N   0  0  0  0  0  0  0  0  0  0  0  0
   41.1710   32.6150   39.7760 C   0  0  0  0  0  0  0  0  0  0  0  0
   41.5150   32.5400   38.4750 N   0  0  0  0  0  0  0  0  0  0  0  0
   41.1310   31.8610   36.6070 H   0  0  0  0  0  0  0  0  0  0  0  0
   39.1390   30.7560   37.2300 H   0  0  0  0  0  0  0  0  0  0  0  0
   40.4450   35.5750   39.9590 Cl  0  0  0  0  0  0  0  0  0  0  0  0
   41.7490   34.7860   40.8150 C   0  0  0  0  0  0  0  0  0  0  0  0
   41.9840   33.4200   40.6640 C   0  0  0  0  0  0  0  0  0  0  0  0
   43.0090   32.9160   41.3940 C   0  0  0  0  0  0  0  0  0  0  0  0
   43.8120   33.6390   42.2490 C   0  0  0  0  0  0  0  0  0  0  0  0
   43.5590   34.9970   42.3800 C   0  0  0  0  0  0  0  0  0  0  0  0
   44.6290   35.8490   43.4710 Cl  0  0  0  0  0  0  0  0  0  0  0  0
   42.5300   35.5660   41.6650 C   0  0  0  0  0  0  0  0  0  0  0  0
   43.2030   31.8530   41.2860 H   0  0  0  0  0  0  0  0  0  0  0  0
   44.6010   33.1210   42.7790 H   0  0  0  0  0  0  0  0  0  0  0  0
   42.3710   36.6280   41.8000 H   0  0  0  0  0  0  0  0  0  0  0  0
   37.4710   26.5480   42.0590 C   0  0  0  0  0  0  0  0  0  0  0  0
   37.0410   27.1270   40.8580 C   0  0  0  0  0  0  0  0  0  0  0  0
   36.6190   26.2570   39.8660 C   0  0  0  0  0  0  0  0  0  0  0  0
   36.2780   26.7060   38.9170 H   0  0  0  0  0  0  0  0  0  0  0  0
   36.5860   24.8790   39.9540 C   0  0  0  0  0  0  0  0  0  0  0  0
   36.2390   24.2810   39.1220 H   0  0  0  0  0  0  0  0  0  0  0  0
   37.0170   24.3130   41.1550 C   0  0  0  0  0  3  0  0  0  0  0  0
   37.4410   25.1690   42.1540 C   0  0  0  0  0  3  0  0  0  0  0  0
   38.3560   28.7840   42.7720 H   0  0  0  0  0  0  0  0  0  0  0  0
   38.0160   27.5640   43.3550 S   0  0  0  0  0  0  0  0  0  0  0  0
   36.9130   27.9490   44.2990 O   0  0  0  0  0  0  0  0  0  0  0  0
   39.2520   27.1160   44.0340 O   0  0  0  0  0  0  0  0  0  0  0  0
  1  2  1  0  0  0  0
  2  7  1  0  0  0  0
  3  2  2  0  0  0  0
  3  4  1  0  0  0  0
  4  5  2  0  0  0  0
  5  6  1  0  0  0  0
  5  9  1  0  0  0  0
  6 10  1  0  0  0  0
  7 31  1  0  0  0  0
  7  6  2  0  0  0  0
  8  4  1  0  0  0  0
 11 12  2  0  0  0  0
 11 16  1  0  0  0  0
 12 13  1  0  0  0  0
 13  3  1  0  0  0  0
 13 14  2  0  0  0  0
 15 14  1  0  0  0  0
 15 21  1  0  0  0  0
 16 15  2  0  0  0  0
 17 11  1  0  0  0  0
 18 12  1  0  0  0  0
 19 20  1  0  0  0  0
 20 26  1  0  0  0  0
 21 20  2  0  0  0  0
 21 22  1  0  0  0  0
 22 23  2  0  0  0  0
 23 24  1  0  0  0  0
 23 28  1  0  0  0  0
 24 25  1  0  0  0  0
 26 29  1  0  0  0  0
 26 24  2  0  0  0  0
 27 22  1  0  0  0  0
 30 37  1  0  0  0  0
 30 39  1  0  0  0  0
 31 30  2  0  0  0  0
 32 34  2  0  0  0  0
 32 31  1  0  0  0  0
 33 32  1  0  0  0  0
 34 36  1  0  0  0  0
 35 34  1  0  0  0  0
 36 37  2  0  0  0  0
 38 39  1  0  0  0  0
 39 41  2  0  0  0  0
 39 40  2  0  0  0  0
M  END
>  <minimizedAffinity>
-7.2907238

$$$$

 OpenBabel03242514313D

 41 44  0  0  0  0  0  0  0  0999 V2000
   39.5330   31.2870   41.6520 Cl  0  0  0  0  0  0  0  0  0  0  0  0
   38.3430   31.2470   40.3850 C   0  0  0  0  0  0  0  0  0  0  0  0
   37.5600   30.1570   40.2560 C   0  0  0  0  0  0  0  0  0  0  0  0
   36.8100   30.1400   39.0940 C   0  0  0  0  0  0  0  0  0  0  0  0
   36.8320   31.1290   38.1310 C   0  0  0  0  0  0  0  0  0  0  0  0
   37.6580   32.2200   38.3410 C   0  0  0  0  0  0  0  0  0  0  0  0
   38.4110   32.2660   39.4800 C   0  0  0  0  0  0  0  0  0  0  0  0
   36.1660   29.2470   38.9810 H   0  0  0  0  0  0  0  0  0  0  0  0
   36.1920   30.9360   37.3130 H   0  0  0  0  0  0  0  0  0  0  0  0
   37.6140   32.9490   37.5400 H   0  0  0  0  0  0  0  0  0  0  0  0
   37.4600   28.3530   43.5230 C   0  0  0  0  0  0  0  0  0  0  0  0
   37.4370   29.4120   42.5960 C   0  0  0  0  0  0  0  0  0  0  0  0
   37.5360   29.1170   41.2450 C   0  0  0  0  0  0  0  0  0  0  0  0
   37.6420   27.8140   40.9030 N   0  0  0  0  0  0  0  0  0  0  0  0
   37.6590   26.8080   41.7810 C   0  0  0  0  0  0  0  0  0  0  0  0
   37.5700   27.0710   43.0990 N   0  0  0  0  0  0  0  0  0  0  0  0
   37.3980   28.4180   44.6010 H   0  0  0  0  0  0  0  0  0  0  0  0
   37.3060   30.2810   43.1520 H   0  0  0  0  0  0  0  0  0  0  0  0
   40.3840   25.4460   41.9820 Cl  0  0  0  0  0  0  0  0  0  0  0  0
   38.9140   24.7110   41.3870 C   0  0  0  0  0  0  0  0  0  0  0  0
   37.7180   25.4260   41.3500 C   0  0  0  0  0  0  0  0  0  0  0  0
   36.6400   24.7460   40.8880 C   0  0  0  0  0  0  0  0  0  0  0  0
   36.6450   23.4350   40.4640 C   0  0  0  0  0  0  0  0  0  0  0  0
   37.8480   22.7460   40.5100 C   0  0  0  0  0  0  0  0  0  0  0  0
   37.7770   21.0920   39.9420 Cl  0  0  0  0  0  0  0  0  0  0  0  0
   38.9770   23.3840   40.9700 C   0  0  0  0  0  0  0  0  0  0  0  0
   35.7010   25.2910   40.8530 H   0  0  0  0  0  0  0  0  0  0  0  0
   35.7160   23.0010   40.1170 H   0  0  0  0  0  0  0  0  0  0  0  0
   39.8920   22.8050   40.9870 H   0  0  0  0  0  0  0  0  0  0  0  0
   40.5730   33.4730   39.1780 C   0  0  0  0  0  0  0  0  0  0  0  0
   39.2520   33.4330   39.6450 C   0  0  0  0  0  0  0  0  0  0  0  0
   38.7830   34.5720   40.2780 C   0  0  0  0  0  0  0  0  0  0  0  0
   37.7430   34.5490   40.6480 H   0  0  0  0  0  0  0  0  0  0  0  0
   39.4960   35.7360   40.4880 C   0  0  0  0  0  0  0  0  0  0  0  0
   39.0420   36.5780   40.9950 H   0  0  0  0  0  0  0  0  0  0  0  0
   40.8100   35.7650   40.0190 C   0  0  0  0  0  3  0  0  0  0  0  0
   41.2920   34.6350   39.3860 C   0  0  0  0  0  3  0  0  0  0  0  0
   40.1570   31.2800   38.0340 H   0  0  0  0  0  0  0  0  0  0  0  0
   41.2410   32.0890   38.3740 S   0  0  0  0  0  0  0  0  0  0  0  0
   41.8330   32.4210   37.0340 O   0  0  0  0  0  0  0  0  0  0  0  0
   42.1050   31.2270   39.2090 O   0  0  0  0  0  0  0  0  0  0  0  0
  2  1  1  0  0  0  0
  3  2  1  0  0  0  0
  3 13  1  0  0  0  0
  4  3  2  0  0  0  0
  5  6  2  0  0  0  0
  5  4  1  0  0  0  0
  6  7  1  0  0  0  0
  7 31  1  0  0  0  0
  7  2  2  0  0  0  0
  8  4  1  0  0  0  0
  9  5  1  0  0  0  0
 10  6  1  0  0  0  0
 11 17  1  0  0  0  0
 12 18  1  0  0  0  0
 12 11  2  0  0  0  0
 13 12  1  0  0  0  0
 14 13  2  0  0  0  0
 14 15  1  0  0  0  0
 15 16  2  0  0  0  0
 16 11  1  0  0  0  0
 20 19  1  0  0  0  0
 21 20  1  0  0  0  0
 21 15  1  0  0  0  0
 22 21  2  0  0  0  0
 23 24  2  0  0  0  0
 23 22  1  0  0  0  0
 24 26  1  0  0  0  0
 25 24  1  0  0  0  0
 26 29  1  0  0  0  0
 26 20  2  0  0  0  0
 27 22  1  0  0  0  0
 28 23  1  0  0  0  0
 30 37  2  0  0  0  0
 30 31  1  0  0  0  0
 31 32  2  0  0  0  0
 32 34  1  0  0  0  0
 32 33  1  0  0  0  0
 34 35  1  0  0  0  0
 36 34  2  0  0  0  0
 37 36  1  0  0  0  0
 38 39  1  0  0  0  0
 39 30  1  0  0  0  0
 39 41  2  0  0  0  0
 40 39  2  0  0  0  0
M  END
>  <minimizedAffinity>
-7.17588043

$$$$

 OpenBabel03242514313D

 41 44  0  0  0  0  0  0  0  0999 V2000
   39.9530   31.4070   41.9490 Cl  0  0  0  0  0  0  0  0  0  0  0  0
   38.5760   31.2680   40.8970 C   0  0  0  0  0  0  0  0  0  0  0  0
   37.8290   30.1470   40.9410 C   0  0  0  0  0  0  0  0  0  0  0  0
   36.9020   30.0500   39.9200 C   0  0  0  0  0  0  0  0  0  0  0  0
   36.7240   30.9950   38.9280 C   0  0  0  0  0  0  0  0  0  0  0  0
   37.5270   32.1230   38.9580 C   0  0  0  0  0  0  0  0  0  0  0  0
   38.4520   32.2470   39.9540 C   0  0  0  0  0  0  0  0  0  0  0  0
   36.2860   29.1310   39.9490 H   0  0  0  0  0  0  0  0  0  0  0  0
   35.9680   30.7420   38.2350 H   0  0  0  0  0  0  0  0  0  0  0  0
   37.3210   32.8140   38.1480 H   0  0  0  0  0  0  0  0  0  0  0  0
   37.2120   27.8210   43.7960 C   0  0  0  0  0  0  0  0  0  0  0  0
   36.9660   28.7720   42.7880 C   0  0  0  0  0  0  0  0  0  0  0  0
   38.0110   29.1510   41.9600 C   0  0  0  0  0  0  0  0  0  0  0  0
   39.2110   28.5700   42.1740 N   0  0  0  0  0  0  0  0  0  0  0  0
   39.4460   27.6640   43.1270 C   0  0  0  0  0  0  0  0  0  0  0  0
   38.4460   27.2850   43.9480 N   0  0  0  0  0  0  0  0  0  0  0  0
   36.5090   27.4290   44.5190 H   0  0  0  0  0  0  0  0  0  0  0  0
   35.9520   28.9990   42.8450 H   0  0  0  0  0  0  0  0  0  0  0  0
   39.8390   25.0280   41.6380 Cl  0  0  0  0  0  0  0  0  0  0  0  0
   41.0260   25.8220   42.6460 C   0  0  0  0  0  0  0  0  0  0  0  0
   40.7420   27.0340   43.2720 C   0  0  0  0  0  0  0  0  0  0  0  0
   41.7460   27.5650   44.0120 C   0  0  0  0  0  0  0  0  0  0  0  0
   42.9930   27.0040   44.1840 C   0  0  0  0  0  0  0  0  0  0  0  0
   43.2510   25.7960   43.5510 C   0  0  0  0  0  0  0  0  0  0  0  0
   44.8500   25.1410   43.8290 Cl  0  0  0  0  0  0  0  0  0  0  0  0
   42.2700   25.2100   42.7860 C   0  0  0  0  0  0  0  0  0  0  0  0
   41.5380   28.5090   44.5050 H   0  0  0  0  0  0  0  0  0  0  0  0
   43.7140   27.5260   44.8000 H   0  0  0  0  0  0  0  0  0  0  0  0
   42.5180   24.2680   42.3120 H   0  0  0  0  0  0  0  0  0  0  0  0
   40.4590   33.5300   39.2140 C   0  0  0  0  0  0  0  0  0  0  0  0
   39.2590   33.4490   39.9340 C   0  0  0  0  0  0  0  0  0  0  0  0
   38.8750   34.5830   40.6310 C   0  0  0  0  0  0  0  0  0  0  0  0
   37.9310   34.5270   41.2000 H   0  0  0  0  0  0  0  0  0  0  0  0
   39.5660   35.7780   40.6800 C   0  0  0  0  0  0  0  0  0  0  0  0
   39.1850   36.6130   41.2540 H   0  0  0  0  0  0  0  0  0  0  0  0
   40.7590   35.8480   39.9590 C   0  0  0  0  0  3  0  0  0  0  0  0
   41.1540   34.7240   39.2590 C   0  0  0  0  0  3  0  0  0  0  0  0
   39.8670   31.5010   37.8630 H   0  0  0  0  0  0  0  0  0  0  0  0
   41.0130   32.1560   38.3130 S   0  0  0  0  0  0  0  0  0  0  0  0
   41.6970   32.5360   37.0310 O   0  0  0  0  0  0  0  0  0  0  0  0
   41.7440   31.1360   39.0980 O   0  0  0  0  0  0  0  0  0  0  0  0
  2  3  1  0  0  0  0
  2  1  1  0  0  0  0
  3 13  1  0  0  0  0
  4  8  1  0  0  0  0
  4  3  2  0  0  0  0
  5  6  2  0  0  0  0
  5  4  1  0  0  0  0
  6  7  1  0  0  0  0
  7  2  2  0  0  0  0
  9  5  1  0  0  0  0
 10  6  1  0  0  0  0
 11 16  1  0  0  0  0
 11 17  1  0  0  0  0
 12 18  1  0  0  0  0
 12 11  2  0  0  0  0
 13 14  2  0  0  0  0
 13 12  1  0  0  0  0
 14 15  1  0  0  0  0
 15 21  1  0  0  0  0
 15 16  2  0  0  0  0
 19 20  1  0  0  0  0
 20 26  2  0  0  0  0
 20 21  1  0  0  0  0
 21 22  2  0  0  0  0
 22 23  1  0  0  0  0
 22 27  1  0  0  0  0
 23 28  1  0  0  0  0
 24 25  1  0  0  0  0
 24 23  2  0  0  0  0
 26 24  1  0  0  0  0
 29 26  1  0  0  0  0
 30 37  2  0  0  0  0
 30 31  1  0  0  0  0
 31  7  1  0  0  0  0
 31 32  2  0  0  0  0
 32 34  1  0  0  0  0
 32 33  1  0  0  0  0
 34 35  1  0  0  0  0
 36 34  2  0  0  0  0
 37 36  1  0  0  0  0
 38 39  1  0  0  0  0
 39 41  2  0  0  0  0
 39 30  1  0  0  0  0
 40 39  2  0  0  0  0
M  END
>  <minimizedAffinity>
-7.07203007

$$$$

 OpenBabel03242514313D

 41 44  0  0  0  0  0  0  0  0999 V2000
   41.1530   31.6600   39.5570 Cl  0  0  0  0  0  0  0  0  0  0  0  0
   40.5330   33.2310   39.9720 C   0  0  0  0  0  0  0  0  0  0  0  0
   39.2350   33.3530   40.3140 C   0  0  0  0  0  0  0  0  0  0  0  0
   38.8010   34.6630   40.4080 C   0  0  0  0  0  0  0  0  0  0  0  0
   39.5930   35.7710   40.1840 C   0  0  0  0  0  0  0  0  0  0  0  0
   40.9190   35.5610   39.8430 C   0  0  0  0  0  0  0  0  0  0  0  0
   41.3770   34.2780   39.7430 C   0  0  0  0  0  0  0  0  0  0  0  0
   37.7350   34.7700   40.6870 H   0  0  0  0  0  0  0  0  0  0  0  0
   39.0810   36.6870   40.3020 H   0  0  0  0  0  0  0  0  0  0  0  0
   41.4700   36.4810   39.6880 H   0  0  0  0  0  0  0  0  0  0  0  0
   36.2570   31.1140   40.5550 C   0  0  0  0  0  0  0  0  0  0  0  0
   37.0370   32.2520   40.2760 C   0  0  0  0  0  0  0  0  0  0  0  0
   38.3970   32.2090   40.5390 C   0  0  0  0  0  0  0  0  0  0  0  0
   38.8920   31.0590   41.0480 N   0  0  0  0  0  0  0  0  0  0  0  0
   38.1550   29.9770   41.3090 C   0  0  0  0  0  0  0  0  0  0  0  0
   36.8290   29.9970   41.0660 N   0  0  0  0  0  0  0  0  0  0  0  0
   35.1920   30.9920   40.4100 H   0  0  0  0  0  0  0  0  0  0  0  0
   36.3890   32.9510   39.8590 H   0  0  0  0  0  0  0  0  0  0  0  0
   39.5750   28.2400   39.2380 Cl  0  0  0  0  0  0  0  0  0  0  0  0
   39.4150   27.8790   40.9410 C   0  0  0  0  0  0  0  0  0  0  0  0
   38.7530   28.7530   41.8010 C   0  0  0  0  0  0  0  0  0  0  0  0
   38.7100   28.3770   43.1030 C   0  0  0  0  0  0  0  0  0  0  0  0
   39.2580   27.2240   43.6200 C   0  0  0  0  0  0  0  0  0  0  0  0
   39.9110   26.3700   42.7420 C   0  0  0  0  0  0  0  0  0  0  0  0
   40.5690   24.9200   43.4700 Cl  0  0  0  0  0  0  0  0  0  0  0  0
   39.9880   26.6980   41.4080 C   0  0  0  0  0  0  0  0  0  0  0  0
   38.1960   29.0490   43.7840 H   0  0  0  0  0  0  0  0  0  0  0  0
   39.1590   27.0340   44.6810 H   0  0  0  0  0  0  0  0  0  0  0  0
   40.5070   26.0020   40.7630 H   0  0  0  0  0  0  0  0  0  0  0  0
   43.7900   34.1000   40.3520 C   0  0  0  0  0  0  0  0  0  0  0  0
   42.7730   34.1230   39.3870 C   0  0  0  0  0  0  0  0  0  0  0  0
   43.1660   33.9870   38.0660 C   0  0  0  0  0  0  0  0  0  0  0  0
   42.3710   34.0040   37.3010 H   0  0  0  0  0  0  0  0  0  0  0  0
   44.4630   33.8340   37.6170 C   0  0  0  0  0  0  0  0  0  0  0  0
   44.6740   33.7350   36.5600 H   0  0  0  0  0  0  0  0  0  0  0  0
   45.4680   33.8130   38.5860 C   0  0  0  0  0  3  0  0  0  0  0  0
   45.0900   33.9470   39.9080 C   0  0  0  0  0  3  0  0  0  0  0  0
   42.0940   33.7530   42.1670 H   0  0  0  0  0  0  0  0  0  0  0  0
   43.3850   34.2630   42.0300 S   0  0  0  0  0  0  0  0  0  0  0  0
   44.1910   33.3560   42.9160 O   0  0  0  0  0  0  0  0  0  0  0  0
   43.2930   35.6530   42.5280 O   0  0  0  0  0  0  0  0  0  0  0  0
  1  2  1  0  0  0  0
  2  3  1  0  0  0  0
  3  4  2  0  0  0  0
  3 13  1  0  0  0  0
  4  8  1  0  0  0  0
  5  9  1  0  0  0  0
  5  4  1  0  0  0  0
  6  5  2  0  0  0  0
  7  6  1  0  0  0  0
  7  2  2  0  0  0  0
 10  6  1  0  0  0  0
 11 16  1  0  0  0  0
 12 13  1  0  0  0  0
 12 11  2  0  0  0  0
 13 14  2  0  0  0  0
 14 15  1  0  0  0  0
 15 21  1  0  0  0  0
 16 15  2  0  0  0  0
 17 11  1  0  0  0  0
 18 12  1  0  0  0  0
 19 20  1  0  0  0  0
 20 26  2  0  0  0  0
 20 21  1  0  0  0  0
 21 22  2  0  0  0  0
 22 23  1  0  0  0  0
 22 27  1  0  0  0  0
 23 28  1  0  0  0  0
 24 25  1  0  0  0  0
 24 23  2  0  0  0  0
 26 24  1  0  0  0  0
 29 26  1  0  0  0  0
 30 39  1  0  0  0  0
 31  7  1  0  0  0  0
 31 30  2  0  0  0  0
 32 31  1  0  0  0  0
 33 32  1  0  0  0  0
 34 32  2  0  0  0  0
 34 36  1  0  0  0  0
 35 34  1  0  0  0  0
 36 37  2  0  0  0  0
 37 30  1  0  0  0  0
 39 38  1  0  0  0  0
 39 41  2  0  0  0  0
 39 40  2  0  0  0  0
M  END
>  <minimizedAffinity>
-7.01054335

$$$$

 OpenBabel03242514313D

 41 44  0  0  0  0  0  0  0  0999 V2000
   39.6230   28.5450   40.0500 Cl  0  0  0  0  0  0  0  0  0  0  0  0
   38.0890   29.3590   40.1360 C   0  0  0  0  0  0  0  0  0  0  0  0
   38.0360   30.6830   39.8870 C   0  0  0  0  0  0  0  0  0  0  0  0
   36.8180   31.2630   40.1960 C   0  0  0  0  0  0  0  0  0  0  0  0
   35.7330   30.5830   40.7120 C   0  0  0  0  0  0  0  0  0  0  0  0
   35.8660   29.2230   40.9330 C   0  0  0  0  0  0  0  0  0  0  0  0
   37.0560   28.6210   40.6370 C   0  0  0  0  0  0  0  0  0  0  0  0
   36.7680   32.3510   39.9960 H   0  0  0  0  0  0  0  0  0  0  0  0
   34.8920   31.1990   40.8850 H   0  0  0  0  0  0  0  0  0  0  0  0
   34.9690   28.7660   41.3350 H   0  0  0  0  0  0  0  0  0  0  0  0
   40.5920   32.0820   37.5530 C   0  0  0  0  0  0  0  0  0  0  0  0
   39.4530   31.3900   38.0070 C   0  0  0  0  0  0  0  0  0  0  0  0
   39.1600   31.4040   39.3610 C   0  0  0  0  0  0  0  0  0  0  0  0
   39.9960   32.0970   40.1670 N   0  0  0  0  0  0  0  0  0  0  0  0
   41.0740   32.7570   39.7380 C   0  0  0  0  0  0  0  0  0  0  0  0
   41.3810   32.7520   38.4260 N   0  0  0  0  0  0  0  0  0  0  0  0
   40.9550   32.1620   36.5370 H   0  0  0  0  0  0  0  0  0  0  0  0
   38.9950   30.9980   37.1590 H   0  0  0  0  0  0  0  0  0  0  0  0
   40.4130   35.7290   39.9690 Cl  0  0  0  0  0  0  0  0  0  0  0  0
   41.6950   34.8960   40.8160 C   0  0  0  0  0  0  0  0  0  0  0  0
   41.9000   33.5280   40.6430 C   0  0  0  0  0  0  0  0  0  0  0  0
   42.9110   32.9890   41.3680 C   0  0  0  0  0  0  0  0  0  0  0  0
   43.7260   33.6790   42.2380 C   0  0  0  0  0  0  0  0  0  0  0  0
   43.5020   35.0400   42.3910 C   0  0  0  0  0  0  0  0  0  0  0  0
   44.5870   35.8490   43.5020 Cl  0  0  0  0  0  0  0  0  0  0  0  0
   42.4900   35.6440   41.6820 C   0  0  0  0  0  0  0  0  0  0  0  0
   43.0820   31.9240   41.2430 H   0  0  0  0  0  0  0  0  0  0  0  0
   44.5010   33.1340   42.7630 H   0  0  0  0  0  0  0  0  0  0  0  0
   42.3540   36.7060   41.8350 H   0  0  0  0  0  0  0  0  0  0  0  0
   36.9010   26.2500   39.8780 C   0  0  0  0  0  0  0  0  0  0  0  0
   37.1330   27.1960   40.8860 C   0  0  0  0  0  0  0  0  0  0  0  0
   37.4430   26.7040   42.1420 C   0  0  0  0  0  0  0  0  0  0  0  0
   37.6270   27.4430   42.9410 H   0  0  0  0  0  0  0  0  0  0  0  0
   37.5420   25.3700   42.4890 C   0  0  0  0  0  0  0  0  0  0  0  0
   37.7910   25.0800   43.5020 H   0  0  0  0  0  0  0  0  0  0  0  0
   37.3100   24.4360   41.4790 C   0  0  0  0  0  3  0  0  0  0  0  0
   37.0000   24.9140   40.2200 C   0  0  0  0  0  3  0  0  0  0  0  0
   36.0940   28.1070   38.3990 H   0  0  0  0  0  0  0  0  0  0  0  0
   36.5080   26.7810   38.2750 S   0  0  0  0  0  0  0  0  0  0  0  0
   37.7120   26.8960   37.3860 O   0  0  0  0  0  0  0  0  0  0  0  0
   35.3640   26.0880   37.6420 O   0  0  0  0  0  0  0  0  0  0  0  0
  1  2  1  0  0  0  0
  2  7  1  0  0  0  0
  3  2  2  0  0  0  0
  3  4  1  0  0  0  0
  4  5  2  0  0  0  0
  5  9  1  0  0  0  0
  5  6  1  0  0  0  0
  6 10  1  0  0  0  0
  7 31  1  0  0  0  0
  7  6  2  0  0  0  0
  8  4  1  0  0  0  0
 11 12  2  0  0  0  0
 11 16  1  0  0  0  0
 12 13  1  0  0  0  0
 13  3  1  0  0  0  0
 13 14  2  0  0  0  0
 15 14  1  0  0  0  0
 15 21  1  0  0  0  0
 16 15  2  0  0  0  0
 17 11  1  0  0  0  0
 18 12  1  0  0  0  0
 19 20  1  0  0  0  0
 20 26  1  0  0  0  0
 21 20  2  0  0  0  0
 21 22  1  0  0  0  0
 22 23  2  0  0  0  0
 23 24  1  0  0  0  0
 23 28  1  0  0  0  0
 24 25  1  0  0  0  0
 26 29  1  0  0  0  0
 26 24  2  0  0  0  0
 27 22  1  0  0  0  0
 30 37  2  0  0  0  0
 30 31  1  0  0  0  0
 31 32  2  0  0  0  0
 32 34  1  0  0  0  0
 32 33  1  0  0  0  0
 34 35  1  0  0  0  0
 36 34  2  0  0  0  0
 37 36  1  0  0  0  0
 39 38  1  0  0  0  0
 39 30  1  0  0  0  0
 40 39  2  0  0  0  0
 41 39  2  0  0  0  0
M  END
>  <minimizedAffinity>
-6.7009325

$$$$

 OpenBabel03242514313D

 41 44  0  0  0  0  0  0  0  0999 V2000
   38.3220   27.7790   39.5120 Cl  0  0  0  0  0  0  0  0  0  0  0  0
   37.8350   27.9390   41.1740 C   0  0  0  0  0  0  0  0  0  0  0  0
   37.8210   29.1640   41.7360 C   0  0  0  0  0  0  0  0  0  0  0  0
   37.6350   29.1490   43.1070 C   0  0  0  0  0  0  0  0  0  0  0  0
   37.4720   28.0070   43.8650 C   0  0  0  0  0  0  0  0  0  0  0  0
   37.4920   26.7870   43.2100 C   0  0  0  0  0  0  0  0  0  0  0  0
   37.6740   26.7690   41.8570 C   0  0  0  0  0  0  0  0  0  0  0  0
   37.6240   30.1520   43.5760 H   0  0  0  0  0  0  0  0  0  0  0  0
   37.3440   28.1990   44.8960 H   0  0  0  0  0  0  0  0  0  0  0  0
   37.3540   25.9430   43.8760 H   0  0  0  0  0  0  0  0  0  0  0  0
   37.1570   32.1650   39.6170 C   0  0  0  0  0  0  0  0  0  0  0  0
   36.9190   31.0210   40.4010 C   0  0  0  0  0  0  0  0  0  0  0  0
   38.0000   30.3590   40.9610 C   0  0  0  0  0  0  0  0  0  0  0  0
   39.2290   30.8680   40.7200 N   0  0  0  0  0  0  0  0  0  0  0  0
   39.4570   31.9560   39.9800 C   0  0  0  0  0  0  0  0  0  0  0  0
   38.4210   32.6120   39.4200 N   0  0  0  0  0  0  0  0  0  0  0  0
   36.4270   32.7830   39.1120 H   0  0  0  0  0  0  0  0  0  0  0  0
   35.8850   30.9050   40.4380 H   0  0  0  0  0  0  0  0  0  0  0  0
   41.0780   30.7880   37.6710 Cl  0  0  0  0  0  0  0  0  0  0  0  0
   41.6240   32.0170   38.7880 C   0  0  0  0  0  0  0  0  0  0  0  0
   40.7930   32.4860   39.8030 C   0  0  0  0  0  0  0  0  0  0  0  0
   41.3180   33.4530   40.5940 C   0  0  0  0  0  0  0  0  0  0  0  0
   42.5820   33.9880   40.4700 C   0  0  0  0  0  0  0  0  0  0  0  0
   43.3910   33.5020   39.4520 C   0  0  0  0  0  0  0  0  0  0  0  0
   44.9850   34.2190   39.3670 Cl  0  0  0  0  0  0  0  0  0  0  0  0
   42.9120   32.5210   38.6160 C   0  0  0  0  0  0  0  0  0  0  0  0
   40.6810   33.8290   41.3890 H   0  0  0  0  0  0  0  0  0  0  0  0
   42.8880   34.7590   41.1650 H   0  0  0  0  0  0  0  0  0  0  0  0
   43.5800   32.1730   37.8380 H   0  0  0  0  0  0  0  0  0  0  0  0
   38.8520   24.7020   41.1070 C   0  0  0  0  0  0  0  0  0  0  0  0
   37.6820   25.4640   41.2280 C   0  0  0  0  0  0  0  0  0  0  0  0
   36.5210   24.9070   40.7170 C   0  0  0  0  0  0  0  0  0  0  0  0
   35.5960   25.5010   40.8090 H   0  0  0  0  0  0  0  0  0  0  0  0
   36.4160   23.6760   40.1000 C   0  0  0  0  0  0  0  0  0  0  0  0
   35.4620   23.3230   39.7300 H   0  0  0  0  0  0  0  0  0  0  0  0
   37.5870   22.9250   39.9840 C   0  0  0  0  0  3  0  0  0  0  0  0
   38.7520   23.4690   40.4900 C   0  0  0  0  0  3  0  0  0  0  0  0
   40.1740   26.7030   41.8410 H   0  0  0  0  0  0  0  0  0  0  0  0
   40.3490   25.3240   41.7210 S   0  0  0  0  0  0  0  0  0  0  0  0
   40.6190   24.9050   43.1370 O   0  0  0  0  0  0  0  0  0  0  0  0
   41.5150   25.1720   40.8220 O   0  0  0  0  0  0  0  0  0  0  0  0
  1  2  1  0  0  0  0
  2  3  2  0  0  0  0
  2  7  1  0  0  0  0
  3  4  1  0  0  0  0
  4  8  1  0  0  0  0
  4  5  2  0  0  0  0
  5  9  1  0  0  0  0
  6  5  1  0  0  0  0
  6 10  1  0  0  0  0
  7  6  2  0  0  0  0
 11 12  1  0  0  0  0
 12 18  1  0  0  0  0
 12 13  2  0  0  0  0
 13  3  1  0  0  0  0
 14 13  1  0  0  0  0
 15 14  2  0  0  0  0
 16 11  2  0  0  0  0
 16 15  1  0  0  0  0
 17 11  1  0  0  0  0
 19 20  1  0  0  0  0
 20 21  1  0  0  0  0
 21 15  1  0  0  0  0
 21 22  2  0  0  0  0
 22 27  1  0  0  0  0
 23 22  1  0  0  0  0
 23 28  1  0  0  0  0
 24 23  2  0  0  0  0
 25 24  1  0  0  0  0
 26 20  2  0  0  0  0
 26 24  1  0  0  0  0
 29 26  1  0  0  0  0
 30 31  1  0  0  0  0
 30 39  1  0  0  0  0
 31  7  1  0  0  0  0
 32 33  1  0  0  0  0
 32 31  2  0  0  0  0
 34 32  1  0  0  0  0
 35 34  1  0  0  0  0
 36 34  2  0  0  0  0
 36 37  1  0  0  0  0
 37 30  2  0  0  0  0
 39 38  1  0  0  0  0
 39 40  2  0  0  0  0
 41 39  2  0  0  0  0
M  END
>  <minimizedAffinity>
-6.43238878

$$$$

 OpenBabel03242514313D

 41 44  0  0  0  0  0  0  0  0999 V2000
   39.2150   31.2310   39.5870 Cl  0  0  0  0  0  0  0  0  0  0  0  0
   40.3510   31.1110   40.8980 C   0  0  0  0  0  0  0  0  0  0  0  0
   39.9930   30.4460   42.0150 C   0  0  0  0  0  0  0  0  0  0  0  0
   40.8780   30.6000   43.0660 C   0  0  0  0  0  0  0  0  0  0  0  0
   42.0340   31.3540   43.0160 C   0  0  0  0  0  0  0  0  0  0  0  0
   42.3340   32.0010   41.8290 C   0  0  0  0  0  0  0  0  0  0  0  0
   41.4790   31.8680   40.7720 C   0  0  0  0  0  0  0  0  0  0  0  0
   40.5890   30.0590   43.9870 H   0  0  0  0  0  0  0  0  0  0  0  0
   42.5790   31.3520   43.9210 H   0  0  0  0  0  0  0  0  0  0  0  0
   43.2570   32.5670   41.8730 H   0  0  0  0  0  0  0  0  0  0  0  0
   37.2650   28.2110   43.2390 C   0  0  0  0  0  0  0  0  0  0  0  0
   38.4360   28.9920   43.2410 C   0  0  0  0  0  0  0  0  0  0  0  0
   38.7890   29.6680   42.0840 C   0  0  0  0  0  0  0  0  0  0  0  0
   37.9700   29.5350   41.0170 N   0  0  0  0  0  0  0  0  0  0  0  0
   36.8570   28.7980   41.0140 C   0  0  0  0  0  0  0  0  0  0  0  0
   36.4970   28.1280   42.1260 N   0  0  0  0  0  0  0  0  0  0  0  0
   36.8600   27.6250   44.0530 H   0  0  0  0  0  0  0  0  0  0  0  0
   38.8230   28.9310   44.2050 H   0  0  0  0  0  0  0  0  0  0  0  0
   38.0700   27.6090   38.4760 Cl  0  0  0  0  0  0  0  0  0  0  0  0
   36.4430   28.2280   38.6420 C   0  0  0  0  0  0  0  0  0  0  0  0
   35.9890   28.7400   39.8560 C   0  0  0  0  0  0  0  0  0  0  0  0
   34.7040   29.1710   39.8680 C   0  0  0  0  0  0  0  0  0  0  0  0
   33.8400   29.1410   38.7950 C   0  0  0  0  0  0  0  0  0  0  0  0
   34.3170   28.6270   37.5970 C   0  0  0  0  0  0  0  0  0  0  0  0
   33.1670   28.6350   36.2780 Cl  0  0  0  0  0  0  0  0  0  0  0  0
   35.6140   28.1730   37.5230 C   0  0  0  0  0  0  0  0  0  0  0  0
   34.3370   29.5730   40.8080 H   0  0  0  0  0  0  0  0  0  0  0  0
   32.8340   29.5140   38.9310 H   0  0  0  0  0  0  0  0  0  0  0  0
   35.9400   27.7820   36.5680 H   0  0  0  0  0  0  0  0  0  0  0  0
   41.4700   33.8910   39.3140 C   0  0  0  0  0  0  0  0  0  0  0  0
   41.8490   32.5640   39.5570 C   0  0  0  0  0  0  0  0  0  0  0  0
   42.6010   31.9430   38.5750 C   0  0  0  0  0  0  0  0  0  0  0  0
   42.9040   30.8980   38.7590 H   0  0  0  0  0  0  0  0  0  0  0  0
   43.0080   32.5110   37.3830 C   0  0  0  0  0  0  0  0  0  0  0  0
   43.5960   31.9440   36.6730 H   0  0  0  0  0  0  0  0  0  0  0  0
   42.6250   33.8330   37.1510 C   0  0  0  0  0  3  0  0  0  0  0  0
   41.8740   34.4650   38.1230 C   0  0  0  0  0  3  0  0  0  0  0  0
   40.3090   33.8460   41.5370 H   0  0  0  0  0  0  0  0  0  0  0  0
   40.5260   34.7450   40.4920 S   0  0  0  0  0  0  0  0  0  0  0  0
   41.2910   35.8480   41.1650 O   0  0  0  0  0  0  0  0  0  0  0  0
   39.1710   35.1420   40.0520 O   0  0  0  0  0  0  0  0  0  0  0  0
  1  2  1  0  0  0  0
  2  3  1  0  0  0  0
  3 13  1  0  0  0  0
  3  4  2  0  0  0  0
  4  8  1  0  0  0  0
  5  4  1  0  0  0  0
  5  9  1  0  0  0  0
  6 10  1  0  0  0  0
  6  5  2  0  0  0  0
  7  2  2  0  0  0  0
  7  6  1  0  0  0  0
 11 12  1  0  0  0  0
 11 17  1  0  0  0  0
 12 18  1  0  0  0  0
 13 12  2  0  0  0  0
 14 13  1  0  0  0  0
 15 14  2  0  0  0  0
 15 16  1  0  0  0  0
 16 11  2  0  0  0  0
 19 20  1  0  0  0  0
 20 21  1  0  0  0  0
 21 22  2  0  0  0  0
 21 15  1  0  0  0  0
 22 27  1  0  0  0  0
 23 28  1  0  0  0  0
 23 22  1  0  0  0  0
 24 23  2  0  0  0  0
 25 24  1  0  0  0  0
 26 24  1  0  0  0  0
 26 20  2  0  0  0  0
 29 26  1  0  0  0  0
 30 31  1  0  0  0  0
 30 39  1  0  0  0  0
 31  7  1  0  0  0  0
 32 33  1  0  0  0  0
 32 31  2  0  0  0  0
 34 32  1  0  0  0  0
 35 34  1  0  0  0  0
 36 34  2  0  0  0  0
 36 37  1  0  0  0  0
 37 30  2  0  0  0  0
 39 40  2  0  0  0  0
 39 38  1  0  0  0  0
 41 39  2  0  0  0  0
M  END
>  <minimizedAffinity>
-6.27844238

$$$$

 OpenBabel03242514313D

 41 44  0  0  0  0  0  0  0  0999 V2000
   41.6010   31.1960   39.9550 Cl  0  0  0  0  0  0  0  0  0  0  0  0
   40.7560   32.6760   40.2990 C   0  0  0  0  0  0  0  0  0  0  0  0
   39.4770   32.6170   40.7210 C   0  0  0  0  0  0  0  0  0  0  0  0
   38.8400   33.8440   40.7510 C   0  0  0  0  0  0  0  0  0  0  0  0
   39.4250   35.0420   40.3920 C   0  0  0  0  0  0  0  0  0  0  0  0
   40.7450   35.0190   39.9760 C   0  0  0  0  0  0  0  0  0  0  0  0
   41.4020   33.8220   39.9360 C   0  0  0  0  0  0  0  0  0  0  0  0
   37.7880   33.8020   41.0950 H   0  0  0  0  0  0  0  0  0  0  0  0
   38.7760   35.8710   40.4800 H   0  0  0  0  0  0  0  0  0  0  0  0
   41.1280   35.9990   39.7160 H   0  0  0  0  0  0  0  0  0  0  0  0
   38.5070   29.5370   42.5940 C   0  0  0  0  0  0  0  0  0  0  0  0
   39.1160   30.7730   42.3060 C   0  0  0  0  0  0  0  0  0  0  0  0
   38.8530   31.3760   41.0860 C   0  0  0  0  0  0  0  0  0  0  0  0
   38.0140   30.7320   40.2460 N   0  0  0  0  0  0  0  0  0  0  0  0
   37.4320   29.5620   40.5190 C   0  0  0  0  0  0  0  0  0  0  0  0
   37.6770   28.9540   41.6960 N   0  0  0  0  0  0  0  0  0  0  0  0
   38.6130   28.9420   43.4920 H   0  0  0  0  0  0  0  0  0  0  0  0
   39.6640   31.0300   43.1520 H   0  0  0  0  0  0  0  0  0  0  0  0
   38.5190   27.2720   38.8160 Cl  0  0  0  0  0  0  0  0  0  0  0  0
   36.8890   27.9020   38.7660 C   0  0  0  0  0  0  0  0  0  0  0  0
   36.4970   28.9470   39.6000 C   0  0  0  0  0  0  0  0  0  0  0  0
   35.2030   29.3370   39.4870 C   0  0  0  0  0  0  0  0  0  0  0  0
   34.2760   28.7880   38.6280 C   0  0  0  0  0  0  0  0  0  0  0  0
   34.6930   27.7490   37.8070 C   0  0  0  0  0  0  0  0  0  0  0  0
   33.4630   27.1140   36.7340 Cl  0  0  0  0  0  0  0  0  0  0  0  0
   35.9940   27.3100   37.8780 C   0  0  0  0  0  0  0  0  0  0  0  0
   34.8840   30.1510   40.1310 H   0  0  0  0  0  0  0  0  0  0  0  0
   33.2700   29.1860   38.6300 H   0  0  0  0  0  0  0  0  0  0  0  0
   36.2720   26.4980   37.2180 H   0  0  0  0  0  0  0  0  0  0  0  0
   43.8480   33.9870   40.3960 C   0  0  0  0  0  0  0  0  0  0  0  0
   42.7810   33.8620   39.4960 C   0  0  0  0  0  0  0  0  0  0  0  0
   43.1080   33.7780   38.1520 C   0  0  0  0  0  0  0  0  0  0  0  0
   42.2740   33.6800   37.4370 H   0  0  0  0  0  0  0  0  0  0  0  0
   44.3840   33.8070   37.6250 C   0  0  0  0  0  0  0  0  0  0  0  0
   44.5420   33.7350   36.5570 H   0  0  0  0  0  0  0  0  0  0  0  0
   45.4390   33.9310   38.5300 C   0  0  0  0  0  3  0  0  0  0  0  0
   45.1270   34.0160   39.8730 C   0  0  0  0  0  3  0  0  0  0  0  0
   42.2180   34.5650   42.2130 H   0  0  0  0  0  0  0  0  0  0  0  0
   43.5270   34.0980   42.0960 S   0  0  0  0  0  0  0  0  0  0  0  0
   43.4560   32.7560   42.7670 O   0  0  0  0  0  0  0  0  0  0  0  0
   44.3450   35.0880   42.8320 O   0  0  0  0  0  0  0  0  0  0  0  0
  1  2  1  0  0  0  0
  2  3  1  0  0  0  0
  3  4  2  0  0  0  0
  3 13  1  0  0  0  0
  4  8  1  0  0  0  0
  5  9  1  0  0  0  0
  5  4  1  0  0  0  0
  6  5  2  0  0  0  0
  7  6  1  0  0  0  0
  7  2  2  0  0  0  0
 10  6  1  0  0  0  0
 11 17  1  0  0  0  0
 12 11  1  0  0  0  0
 12 18  1  0  0  0  0
 13 12  2  0  0  0  0
 14 15  2  0  0  0  0
 14 13  1  0  0  0  0
 15 16  1  0  0  0  0
 16 11  2  0  0  0  0
 20 19  1  0  0  0  0
 20 21  1  0  0  0  0
 21 15  1  0  0  0  0
 22 21  2  0  0  0  0
 22 27  1  0  0  0  0
 23 28  1  0  0  0  0
 23 22  1  0  0  0  0
 24 26  1  0  0  0  0
 24 23  2  0  0  0  0
 25 24  1  0  0  0  0
 26 20  2  0  0  0  0
 29 26  1  0  0  0  0
 30 39  1  0  0  0  0
 31  7  1  0  0  0  0
 31 30  2  0  0  0  0
 32 31  1  0  0  0  0
 33 32  1  0  0  0  0
 34 32  2  0  0  0  0
 34 36  1  0  0  0  0
 35 34  1  0  0  0  0
 36 37  2  0  0  0  0
 37 30  1  0  0  0  0
 39 38  1  0  0  0  0
 39 40  2  0  0  0  0
 39 41  2  0  0  0  0
M  END
>  <minimizedAffinity>
-6.25035048

$$$$

 OpenBabel03242514313D

 41 44  0  0  0  0  0  0  0  0999 V2000
   39.0400   27.4870   40.3010 Cl  0  0  0  0  0  0  0  0  0  0  0  0
   38.2960   27.5670   41.8710 C   0  0  0  0  0  0  0  0  0  0  0  0
   37.5390   26.5340   42.2900 C   0  0  0  0  0  0  0  0  0  0  0  0
   36.8240   26.7950   43.4450 C   0  0  0  0  0  0  0  0  0  0  0  0
   36.8570   27.9900   44.1360 C   0  0  0  0  0  0  0  0  0  0  0  0
   37.6650   29.0000   43.6430 C   0  0  0  0  0  0  0  0  0  0  0  0
   38.3840   28.7720   42.5040 C   0  0  0  0  0  0  0  0  0  0  0  0
   36.1990   25.9510   43.7940 H   0  0  0  0  0  0  0  0  0  0  0  0
   36.2410   27.9980   44.9940 H   0  0  0  0  0  0  0  0  0  0  0  0
   37.6360   29.9020   44.2450 H   0  0  0  0  0  0  0  0  0  0  0  0
   38.4010   23.1520   40.9630 C   0  0  0  0  0  0  0  0  0  0  0  0
   38.4830   24.3360   41.7200 C   0  0  0  0  0  0  0  0  0  0  0  0
   37.4870   25.2890   41.5750 C   0  0  0  0  0  0  0  0  0  0  0  0
   36.4860   25.0120   40.7110 N   0  0  0  0  0  0  0  0  0  0  0  0
   36.4040   23.8870   39.9960 C   0  0  0  0  0  0  0  0  0  0  0  0
   37.3640   22.9490   40.1150 N   0  0  0  0  0  0  0  0  0  0  0  0
   39.0950   22.3220   40.9590 H   0  0  0  0  0  0  0  0  0  0  0  0
   39.3300   24.2410   42.3160 H   0  0  0  0  0  0  0  0  0  0  0  0
   36.4120   25.3190   37.2990 Cl  0  0  0  0  0  0  0  0  0  0  0  0
   35.1720   24.2310   37.8780 C   0  0  0  0  0  0  0  0  0  0  0  0
   35.2770   23.6220   39.1270 C   0  0  0  0  0  0  0  0  0  0  0  0
   34.2650   22.7820   39.4580 C   0  0  0  0  0  0  0  0  0  0  0  0
   33.1710   22.4990   38.6700 C   0  0  0  0  0  0  0  0  0  0  0  0
   33.0900   23.1210   37.4320 C   0  0  0  0  0  0  0  0  0  0  0  0
   31.6660   22.7220   36.4950 Cl  0  0  0  0  0  0  0  0  0  0  0  0
   34.0870   23.9820   37.0390 C   0  0  0  0  0  0  0  0  0  0  0  0
   34.3340   22.3000   40.4290 H   0  0  0  0  0  0  0  0  0  0  0  0
   32.4280   21.8090   39.0470 H   0  0  0  0  0  0  0  0  0  0  0  0
   33.9800   24.4430   36.0660 H   0  0  0  0  0  0  0  0  0  0  0  0
   38.7730   30.7760   41.0710 C   0  0  0  0  0  0  0  0  0  0  0  0
   39.2130   29.8660   42.0410 C   0  0  0  0  0  0  0  0  0  0  0  0
   40.4900   30.0600   42.5420 C   0  0  0  0  0  0  0  0  0  0  0  0
   40.8440   29.3470   43.3060 H   0  0  0  0  0  0  0  0  0  0  0  0
   41.3620   31.0650   42.1720 C   0  0  0  0  0  0  0  0  0  0  0  0
   42.3440   31.1370   42.6210 H   0  0  0  0  0  0  0  0  0  0  0  0
   40.9130   31.9670   41.2050 C   0  0  0  0  0  3  0  0  0  0  0  0
   39.6420   31.7840   40.6970 C   0  0  0  0  0  3  0  0  0  0  0  0
   36.9680   29.2340   40.2600 H   0  0  0  0  0  0  0  0  0  0  0  0
   37.1870   30.6060   40.3900 S   0  0  0  0  0  0  0  0  0  0  0  0
   36.0970   31.0220   41.3360 O   0  0  0  0  0  0  0  0  0  0  0  0
   37.0240   31.1430   39.0210 O   0  0  0  0  0  0  0  0  0  0  0  0
  1  2  1  0  0  0  0
  2  3  2  0  0  0  0
  2  7  1  0  0  0  0
  3  4  1  0  0  0  0
  4  8  1  0  0  0  0
  4  5  2  0  0  0  0
  5  9  1  0  0  0  0
  6  5  1  0  0  0  0
  6 10  1  0  0  0  0
  7  6  2  0  0  0  0
 11 12  1  0  0  0  0
 12 18  1  0  0  0  0
 13 12  2  0  0  0  0
 13  3  1  0  0  0  0
 14 13  1  0  0  0  0
 15 16  1  0  0  0  0
 15 14  2  0  0  0  0
 16 11  2  0  0  0  0
 17 11  1  0  0  0  0
 19 20  1  0  0  0  0
 20 21  1  0  0  0  0
 21 22  2  0  0  0  0
 21 15  1  0  0  0  0
 22 27  1  0  0  0  0
 23 28  1  0  0  0  0
 23 22  1  0  0  0  0
 24 23  2  0  0  0  0
 25 24  1  0  0  0  0
 26 24  1  0  0  0  0
 26 20  2  0  0  0  0
 29 26  1  0  0  0  0
 30 31  1  0  0  0  0
 31  7  1  0  0  0  0
 31 32  2  0  0  0  0
 32 33  1  0  0  0  0
 34 32  1  0  0  0  0
 34 35  1  0  0  0  0
 36 34  2  0  0  0  0
 37 30  2  0  0  0  0
 37 36  1  0  0  0  0
 38 39  1  0  0  0  0
 39 30  1  0  0  0  0
 39 40  2  0  0  0  0
 41 39  2  0  0  0  0
M  END
>  <minimizedAffinity>
-6.24191856

$$$$
