
 OpenBabel03252504503D

 37 39  0  0  0  0  0  0  0  0999 V2000
   46.2260   34.2760   42.3490 C   0  0  0  0  0  0  0  0  0  0  0  0
   47.4870   34.0460   41.7770 C   0  0  0  0  0  0  0  0  0  0  0  0
   48.3630   33.2280   42.4740 C   0  0  0  0  0  0  0  0  0  0  0  0
   47.9380   32.7090   43.6610 N   0  0  0  0  0  0  0  0  0  0  0  0
   46.7370   32.9420   44.1830 C   0  0  0  0  0  0  0  0  0  0  0  0
   45.8710   33.7340   43.5210 N   0  0  0  0  0  0  0  0  0  0  0  0
   45.4720   34.9050   41.8790 H   0  0  0  0  0  0  0  0  0  0  0  0
   49.3420   33.0220   42.0780 H   0  0  0  0  0  0  0  0  0  0  0  0
   45.8520   30.0200   44.0290 Cl  0  0  0  0  0  0  0  0  0  0  0  0
   45.9340   31.0250   45.4900 C   0  0  0  0  0  0  0  0  0  0  0  0
   46.3530   32.3500   45.4590 C   0  0  0  0  0  0  0  0  0  0  0  0
   46.4060   33.1010   46.6030 C   0  0  0  0  0  0  0  0  0  0  0  0
   46.0360   32.5250   47.8130 C   0  0  0  0  0  0  0  0  0  0  0  0
   45.6270   31.2150   47.8050 C   0  0  0  0  0  0  0  0  0  0  0  0
   45.1620   30.5050   49.3300 Cl  0  0  0  0  0  0  0  0  0  0  0  0
   45.5610   30.4340   46.6840 C   0  0  0  0  0  0  0  0  0  0  0  0
   46.7270   34.1340   46.6180 H   0  0  0  0  0  0  0  0  0  0  0  0
   46.0610   33.0810   48.7440 H   0  0  0  0  0  0  0  0  0  0  0  0
   45.2240   29.3930   46.7560 H   0  0  0  0  0  0  0  0  0  0  0  0
   47.8100   34.6680   40.5050 C   0  0  0  0  0  0  0  0  0  0  0  0
   46.8790   34.9680   39.9820 H   0  0  0  0  0  0  0  0  0  0  0  0
   48.3740   35.5870   40.6890 H   0  0  0  0  0  0  0  0  0  0  0  0
   48.5010   33.6620   39.6220 C   0  0  0  0  0  0  0  0  0  0  0  0
   49.1540   33.0570   40.3040 H   0  0  0  0  0  0  0  0  0  0  0  0
   49.2290   34.2550   39.0080 H   0  0  0  0  0  0  0  0  0  0  0  0
   48.0390   31.6350   38.3240 C   0  0  0  0  0  0  0  0  0  0  0  0
   47.5950   32.8480   38.8060 C   0  0  0  0  0  0  0  0  0  0  0  0
   46.3150   33.2930   38.5400 C   0  0  0  0  0  0  0  0  0  0  0  0
   45.9900   34.2670   38.9400 H   0  0  0  0  0  0  0  0  0  0  0  0
   45.4180   32.5680   37.7940 C   0  0  0  0  0  0  0  0  0  0  0  0
   44.4270   32.9620   37.6140 H   0  0  0  0  0  0  0  0  0  0  0  0
   45.8890   31.3520   37.3220 C   0  0  0  0  0  3  0  0  0  0  0  0
   47.1510   30.8700   37.5600 C   0  0  0  0  0  3  0  0  0  0  0  0
   49.7340   29.6820   38.1300 H   0  0  0  0  0  0  0  0  0  0  0  0
   49.6190   30.9840   38.5880 S   0  0  0  0  0  0  0  0  0  0  0  0
   50.7290   31.8610   38.0830 O   0  0  0  0  0  0  0  0  0  0  0  0
   49.8430   30.8910   40.0910 O   0  0  0  0  0  0  0  0  0  0  0  0
  1  6  1  0  0  0  0
  2  1  2  0  0  0  0
  2  3  1  0  0  0  0
  3  4  2  0  0  0  0
  4  5  1  0  0  0  0
  5 11  1  0  0  0  0
  6  5  2  0  0  0  0
  7  1  1  0  0  0  0
  8  3  1  0  0  0  0
  9 10  1  0  0  0  0
 10 16  1  0  0  0  0
 11 10  2  0  0  0  0
 11 12  1  0  0  0  0
 12 17  1  0  0  0  0
 12 13  2  0  0  0  0
 13 18  1  0  0  0  0
 14 13  1  0  0  0  0
 14 15  1  0  0  0  0
 16 19  1  0  0  0  0
 16 14  2  0  0  0  0
 20 22  1  0  0  0  0
 20  2  1  0  0  0  0
 21 20  1  0  0  0  0
 23 24  1  0  0  0  0
 23 20  1  0  0  0  0
 25 23  1  0  0  0  0
 26 35  1  0  0  0  0
 26 27  1  0  0  0  0
 27 23  1  0  0  0  0
 28 27  2  0  0  0  0
 28 29  1  0  0  0  0
 30 28  1  0  0  0  0
 31 30  1  0  0  0  0
 32 33  1  0  0  0  0
 32 30  2  0  0  0  0
 33 26  2  0  0  0  0
 34 35  1  0  0  0  0
 35 37  2  0  0  0  0
 36 35  2  0  0  0  0
M  END
>  <minimizedAffinity>
-4.39521313

>  <minimizedRMSD>
2.38407707

$$$$
