
 OpenBabel03252506423D

 43 46  0  0  1  0  0  0  0  0999 V2000
   49.4860   33.4130   41.3490 N   0  0  1  0  0  0  0  0  0  0  0  0
   50.6730   33.0050   42.0330 C   0  0  0  0  0  0  0  0  0  0  0  0
   51.2110   31.6740   41.6600 C   0  0  0  0  0  0  0  0  0  0  0  0
   50.2190   30.6040   42.0020 C   0  0  0  0  0  0  0  0  0  0  0  0
   48.8300   31.1090   41.8320 C   0  0  0  0  0  0  0  0  0  0  0  0
   48.7370   32.2510   40.9050 C   0  0  2  0  0  0  0  0  0  0  0  0
   50.4730   32.9680   43.1410 H   0  0  0  0  0  0  0  0  0  0  0  0
   51.5190   33.7400   41.8940 H   0  0  0  0  0  0  0  0  0  0  0  0
   51.6830   31.5630   40.6900 H   0  0  0  0  0  0  0  0  0  0  0  0
   52.0750   31.4980   42.3900 H   0  0  0  0  0  0  0  0  0  0  0  0
   50.4060   29.6770   41.3850 H   0  0  0  0  0  0  0  0  0  0  0  0
   50.3470   30.2740   43.0560 H   0  0  0  0  0  0  0  0  0  0  0  0
   48.2230   30.2640   41.5490 H   0  0  0  0  0  0  0  0  0  0  0  0
   48.4220   31.4600   42.8210 H   0  0  0  0  0  0  0  0  0  0  0  0
   47.6770   32.6460   41.0700 H   0  0  0  0  0  0  0  0  0  0  0  0
   47.5800   31.9380   38.7600 C   0  0  0  0  0  0  0  0  0  0  0  0
   48.7950   32.0150   39.4650 C   0  0  0  0  0  0  0  0  0  0  0  0
   49.9690   31.8790   38.7060 C   0  0  0  0  0  0  0  0  0  0  0  0
   50.9210   31.9470   39.2120 H   0  0  0  0  0  0  0  0  0  0  0  0
   50.0280   31.6810   37.3650 C   0  0  0  0  0  0  0  0  0  0  0  0
   50.9690   31.5850   36.8420 H   0  0  0  0  0  0  0  0  0  0  0  0
   48.8580   31.6030   36.6600 C   0  0  0  0  0  3  0  0  0  0  0  0
   47.6840   31.7320   37.3730 C   0  0  0  0  0  3  0  0  0  0  0  0
   45.8980   31.4720   40.6990 H   0  0  0  0  0  0  0  0  0  0  0  0
   46.0110   32.0670   39.4430 S   0  0  0  0  0  0  0  0  0  0  0  0
   45.3510   33.3860   39.3910 O   0  0  0  0  0  0  0  0  0  0  0  0
   45.0540   31.1870   38.6290 O   0  0  0  0  0  0  0  0  0  0  0  0
   47.3510   34.7240   41.9320 C   0  0  1  0  0  0  0  0  0  0  0  0
   48.4620   35.6270   41.7260 C   0  0  0  0  0  0  0  0  0  0  0  0
   48.7660   34.2650   42.2580 C   0  0  2  0  0  0  0  0  0  0  0  0
   46.9180   34.1270   41.0900 H   0  0  0  0  0  0  0  0  0  0  0  0
   48.5470   36.4910   42.4440 H   0  0  0  0  0  0  0  0  0  0  0  0
   48.8150   35.9200   40.7270 H   0  0  0  0  0  0  0  0  0  0  0  0
   49.0340   34.1750   43.3240 H   0  0  0  0  0  0  0  0  0  0  0  0
   45.5610   36.0340   43.1380 C   0  0  0  0  0  0  0  0  0  0  0  0
   46.4090   34.8940   43.0670 C   0  0  0  0  0  0  0  0  0  0  0  0
   46.3150   33.9710   44.0920 C   0  0  0  0  0  0  0  0  0  0  0  0
   45.4230   34.2200   45.0860 N   0  0  0  0  0  0  0  0  0  0  0  0
   44.6310   35.3080   45.1290 C   0  0  0  0  0  0  0  0  0  0  0  0
   44.6930   36.2400   44.1410 N   0  0  0  0  0  0  0  0  0  0  0  0
   45.6820   36.7230   42.3030 H   0  0  0  0  0  0  0  0  0  0  0  0
   46.9350   33.0860   44.0930 H   0  0  0  0  0  0  0  0  0  0  0  0
   43.9390   35.4530   45.9490 H   0  0  0  0  0  0  0  0  0  0  0  0
  1  2  1  1  0  0  0
  1 30  1  0  0  0  0
  2  7  1  0  0  0  0
  3  4  1  0  0  0  0
  3  2  1  0  0  0  0
  3 10  1  0  0  0  0
  4 12  1  0  0  0  0
  5  4  1  0  0  0  0
  5 14  1  0  0  0  0
  6 15  1  1  0  0  0
  6  1  1  0  0  0  0
  6  5  1  0  0  0  0
  8  2  1  0  0  0  0
  9  3  1  0  0  0  0
 11  4  1  0  0  0  0
 13  5  1  0  0  0  0
 16 25  1  0  0  0  0
 16 17  1  0  0  0  0
 17  6  1  0  0  0  0
 18 19  1  0  0  0  0
 18 17  2  0  0  0  0
 20 18  1  0  0  0  0
 21 20  1  0  0  0  0
 22 20  2  0  0  0  0
 22 23  1  0  0  0  0
 23 16  2  0  0  0  0
 25 24  1  0  0  0  0
 26 25  2  0  0  0  0
 27 25  2  0  0  0  0
 28 31  1  6  0  0  0
 28 30  1  0  0  0  0
 28 36  1  0  0  0  0
 29 28  1  0  0  0  0
 29 30  1  0  0  0  0
 29 32  1  0  0  0  0
 30 34  1  1  0  0  0
 33 29  1  0  0  0  0
 35 40  1  0  0  0  0
 36 35  2  0  0  0  0
 36 37  1  0  0  0  0
 37 42  1  0  0  0  0
 37 38  2  0  0  0  0
 38 39  1  0  0  0  0
 39 43  1  0  0  0  0
 40 39  2  0  0  0  0
 41 35  1  0  0  0  0
M  END
>  <minimizedAffinity>
-5.09145975

>  <minimizedRMSD>
2.01633382

$$$$
