
 OpenBabel03252500103D

 34 36  0  0  0  0  0  0  0  0999 V2000
   45.1960   32.6940   38.9860 Cl  0  0  0  0  0  0  0  0  0  0  0  0
   45.7850   33.7090   40.2740 C   0  0  0  0  0  0  0  0  0  0  0  0
   44.9260   34.2230   41.2080 C   0  0  0  0  0  0  0  0  0  0  0  0
   45.3590   35.0420   42.2580 C   0  0  0  0  0  0  0  0  0  0  0  0
   46.7070   35.2950   42.2890 C   0  0  0  0  0  0  0  0  0  0  0  0
   47.5820   34.7870   41.3590 C   0  0  0  0  0  0  0  0  0  0  0  0
   47.1310   34.0030   40.3630 C   0  0  0  0  0  0  0  0  0  0  0  0
   44.6940   35.4480   42.9910 H   0  0  0  0  0  0  0  0  0  0  0  0
   47.1380   35.9200   43.0650 H   0  0  0  0  0  0  0  0  0  0  0  0
   48.6470   35.0110   41.4190 H   0  0  0  0  0  0  0  0  0  0  0  0
   41.6900   32.4700   41.5380 C   0  0  0  0  0  0  0  0  0  0  0  0
   40.7990   33.3640   40.9090 C   0  0  0  0  0  0  0  0  0  0  0  0
   41.3150   34.5490   40.3840 C   0  0  0  0  0  0  0  0  0  0  0  0
   42.6440   34.7840   40.5020 N   0  0  0  0  0  0  0  0  0  0  0  0
   43.4940   33.9100   41.1120 C   0  0  0  0  0  0  0  0  0  0  0  0
   42.9970   32.7670   41.6190 N   0  0  0  0  0  0  0  0  0  0  0  0
   41.2990   31.5430   41.9510 H   0  0  0  0  0  0  0  0  0  0  0  0
   39.7540   33.1760   40.8180 H   0  0  0  0  0  0  0  0  0  0  0  0
   40.4640   35.5750   39.6940 C   0  0  0  0  0  0  0  0  0  0  0  0
   39.9080   36.4400   40.6130 F   0  0  0  0  0  0  0  0  0  0  0  0
   41.2560   36.2980   38.8260 F   0  0  0  0  0  0  0  0  0  0  0  0
   39.4950   34.8950   39.0050 F   0  0  0  0  0  0  0  0  0  0  0  0
   48.8200   32.3230   39.5510 C   0  0  0  0  0  0  0  0  0  0  0  0
   48.0520   33.4510   39.3620 C   0  0  0  0  0  0  0  0  0  0  0  0
   48.1040   34.1570   38.1770 C   0  0  0  0  0  0  0  0  0  0  0  0
   47.5180   35.0520   37.9850 H   0  0  0  0  0  0  0  0  0  0  0  0
   48.9570   33.6940   37.1780 C   0  0  0  0  0  0  0  0  0  0  0  0
   48.9780   34.2780   36.2440 H   0  0  0  0  0  0  0  0  0  0  0  0
   49.7340   32.5630   37.3510 C   0  0  0  0  0  0  0  0  0  0  0  0
   49.6530   31.8760   38.5650 C   0  0  0  0  0  0  0  0  0  0  0  0
   47.4860   31.6220   41.6370 H   0  0  0  0  0  0  0  0  0  0  0  0
   48.7030   31.4830   41.0690 S   0  0  0  0  0  0  0  0  0  0  0  0
   49.0520   30.0360   40.8320 O   0  0  0  0  0  0  0  0  0  0  0  0
   49.7550   32.0120   42.0130 O   0  0  0  0  0  0  0  0  0  0  0  0
  1  2  1  0  0  0  0
  2  7  2  0  0  0  0
  2  3  1  0  0  0  0
  3  4  2  0  0  0  0
  4  5  1  0  0  0  0
  4  8  1  0  0  0  0
  5  9  1  0  0  0  0
  6 10  1  0  0  0  0
  6  5  2  0  0  0  0
  7  6  1  0  0  0  0
 11 16  1  0  0  0  0
 11 17  1  0  0  0  0
 12 11  2  0  0  0  0
 13 14  2  0  0  0  0
 13 12  1  0  0  0  0
 14 15  1  0  0  0  0
 15  3  1  0  0  0  0
 15 16  2  0  0  0  0
 18 12  1  0  0  0  0
 19 13  1  0  0  0  0
 19 20  1  0  0  0  0
 21 19  1  0  0  0  0
 22 19  1  0  0  0  0
 23 32  1  0  0  0  0
 24 23  1  0  0  0  0
 24  7  1  0  0  0  0
 25 24  2  0  0  0  0
 26 25  1  0  0  0  0
 27 29  2  0  0  0  0
 27 25  1  0  0  0  0
 28 27  1  0  0  0  0
 29 30  1  0  0  0  0
 30 23  2  0  0  0  0
 32 31  1  0  0  0  0
 32 34  2  0  0  0  0
 33 32  2  0  0  0  0
M  END
>  <minimizedAffinity>
-6.10308599

>  <minimizedRMSD>
5.55122852

$$$$
