
 OpenBabel03252508593D

 48 50  0  0  1  0  0  0  0  0999 V2000
   46.9180   34.2450   43.3800 N   0  0  0  0  0  0  0  0  0  0  0  0
   46.5120   35.4600   42.7600 C   0  0  0  0  0  0  0  0  0  0  0  0
   45.0570   35.7990   42.8840 C   0  0  0  0  0  0  0  0  0  0  0  0
   44.4110   35.3280   44.1550 C   0  0  0  0  0  0  0  0  0  0  0  0
   45.4120   34.6940   45.0930 C   0  0  0  0  0  0  0  0  0  0  0  0
   46.0610   33.5590   44.2220 C   0  0  2  0  0  0  0  0  0  0  0  0
   46.7830   35.5830   41.7090 H   0  0  0  0  0  0  0  0  0  0  0  0
   47.0730   36.2860   43.2910 H   0  0  0  0  0  0  0  0  0  0  0  0
   44.9080   36.8940   42.8230 H   0  0  0  0  0  0  0  0  0  0  0  0
   44.5370   35.3940   41.9720 H   0  0  0  0  0  0  0  0  0  0  0  0
   43.7010   34.5170   43.8790 H   0  0  0  0  0  0  0  0  0  0  0  0
   43.8160   36.1140   44.6460 H   0  0  0  0  0  0  0  0  0  0  0  0
   44.8460   34.2090   45.9120 H   0  0  0  0  0  0  0  0  0  0  0  0
   46.2020   35.3790   45.4340 H   0  0  0  0  0  0  0  0  0  0  0  0
   45.1960   33.0200   43.7840 H   0  0  0  0  0  0  0  0  0  0  0  0
   47.9000   33.5040   42.6330 C   0  0  0  0  0  0  0  0  0  0  0  0
   48.5500   34.2580   42.1180 H   0  0  0  0  0  0  0  0  0  0  0  0
   48.5670   32.8840   43.2330 H   0  0  0  0  0  0  0  0  0  0  0  0
   47.1920   32.6340   41.6370 C   0  0  0  0  0  0  0  0  0  0  0  0
   46.1290   32.9370   41.5410 H   0  0  0  0  0  0  0  0  0  0  0  0
   47.2070   31.5550   41.8930 H   0  0  0  0  0  0  0  0  0  0  0  0
   49.2840   32.0920   38.5630 C   0  0  0  0  0  0  0  0  0  0  0  0
   48.6960   31.9140   39.8310 C   0  0  0  0  0  0  0  0  0  0  0  0
   47.8010   32.8380   40.2990 C   0  0  0  0  0  0  0  0  0  0  0  0
   47.5240   33.8840   39.5120 N   0  0  0  0  0  0  0  0  0  0  0  0
   48.0840   34.0570   38.2990 C   0  0  0  0  0  0  0  0  0  0  0  0
   48.9640   33.1650   37.8180 N   0  0  0  0  0  0  0  0  0  0  0  0
   49.9930   31.3610   38.1890 H   0  0  0  0  0  0  0  0  0  0  0  0
   49.0060   31.0260   40.3630 H   0  0  0  0  0  0  0  0  0  0  0  0
   47.7960   34.9380   37.7330 H   0  0  0  0  0  0  0  0  0  0  0  0
   46.7530   32.8300   45.1760 O   0  0  0  0  0  0  0  0  0  0  0  0
   45.2250   30.8740   44.2340 O   0  0  0  0  0  0  0  0  0  0  0  0
   46.1450   31.2840   45.3940 P   0  0  2  0  0  0  0  0  0  0  0  0
   45.1070   31.3620   46.7550 O   0  0  0  0  0  0  0  0  0  0  0  0
   44.7800   30.4210   46.8730 H   0  0  0  0  0  0  0  0  0  0  0  0
   47.2940   30.1380   45.7120 O   0  0  0  0  0  0  0  0  0  0  0  0
   49.3850   29.2730   45.9570 C   0  0  0  0  0  0  0  0  0  0  0  0
   48.4840   29.8790   45.0730 C   0  0  0  0  0  0  0  0  0  0  0  0
   48.9000   30.1100   43.7770 C   0  0  0  0  0  0  0  0  0  0  0  0
   48.1240   30.5780   43.1900 H   0  0  0  0  0  0  0  0  0  0  0  0
   50.1680   29.7500   43.3740 C   0  0  0  0  0  0  0  0  0  0  0  0
   50.4150   29.9670   42.3400 H   0  0  0  0  0  0  0  0  0  0  0  0
   51.0670   29.1520   44.2350 C   0  0  0  0  0  3  0  0  0  0  0  0
   50.6700   28.9120   45.5350 C   0  0  0  0  0  3  0  0  0  0  0  0
   50.2000   28.4460   48.2660 H   0  0  0  0  0  0  0  0  0  0  0  0
   49.0600   28.8890   47.6480 S   0  0  0  0  0  0  0  0  0  0  0  0
   48.6090   30.1200   48.3900 O   0  0  0  0  0  0  0  0  0  0  0  0
   47.9670   27.8380   47.6800 O   0  0  0  0  0  0  0  0  0  0  0  0
  1  6  1  0  0  0  0
  2  3  1  0  0  0  0
  2  8  1  0  0  0  0
  2  1  1  0  0  0  0
  3  4  1  0  0  0  0
  4 12  1  0  0  0  0
  4  5  1  0  0  0  0
  5 14  1  0  0  0  0
  5 13  1  0  0  0  0
  6 15  1  6  0  0  0
  6  5  1  0  0  0  0
  6 31  1  0  0  0  0
  7  2  1  0  0  0  0
  9  3  1  0  0  0  0
 10  3  1  0  0  0  0
 11  4  1  0  0  0  0
 16 18  1  0  0  0  0
 16  1  1  0  0  0  0
 17 16  1  0  0  0  0
 19 21  1  0  0  0  0
 19 16  1  0  0  0  0
 20 19  1  0  0  0  0
 22 23  1  0  0  0  0
 23 24  2  0  0  0  0
 23 29  1  0  0  0  0
 24 19  1  0  0  0  0
 25 24  1  0  0  0  0
 26 25  2  0  0  0  0
 27 26  1  0  0  0  0
 27 22  2  0  0  0  0
 28 22  1  0  0  0  0
 30 26  1  0  0  0  0
 31 33  1  0  0  0  0
 33 32  2  6  0  0  0
 33 36  1  0  0  0  0
 33 34  1  0  0  0  0
 34 35  1  0  0  0  0
 37 46  1  0  0  0  0
 38 36  1  0  0  0  0
 38 37  2  0  0  0  0
 39 38  1  0  0  0  0
 40 39  1  0  0  0  0
 41 39  2  0  0  0  0
 41 43  1  0  0  0  0
 42 41  1  0  0  0  0
 43 44  2  0  0  0  0
 44 37  1  0  0  0  0
 46 48  2  0  0  0  0
 46 45  1  0  0  0  0
 46 47  2  0  0  0  0
M  END
>  <minimizedAffinity>
-4.24102163

>  <minimizedRMSD>
1.44543552

$$$$
