
 OpenBabel03252507383D

 41 45  0  0  0  0  0  0  0  0999 V2000
   45.3510   34.3600   43.9060 C   0  0  0  0  0  0  0  0  0  0  0  0
   46.1530   33.3450   44.4860 C   0  0  0  0  0  0  0  0  0  0  0  0
   46.1200   33.2210   45.8650 C   0  0  0  0  0  0  0  0  0  0  0  0
   45.3380   34.0600   46.5750 N   0  0  0  0  0  0  0  0  0  0  0  0
   44.5800   35.0230   45.9970 C   0  0  0  0  0  0  0  0  0  0  0  0
   44.5930   35.1620   44.6780 N   0  0  0  0  0  0  0  0  0  0  0  0
   46.7800   32.6720   43.9170 H   0  0  0  0  0  0  0  0  0  0  0  0
   43.9740   35.6620   46.6430 H   0  0  0  0  0  0  0  0  0  0  0  0
   47.3170   32.5740   47.8840 C   0  0  0  0  0  0  0  0  0  0  0  0
   46.8870   32.2280   46.6090 C   0  0  0  0  0  0  0  0  0  0  0  0
   47.2070   30.9800   46.1310 C   0  0  0  0  0  0  0  0  0  0  0  0
   47.9310   30.0690   46.8620 C   0  0  0  0  0  0  0  0  0  0  0  0
   48.3580   28.8140   46.6080 N   0  0  0  0  0  0  0  0  0  0  0  0
   49.0540   28.3850   47.7300 C   0  0  0  0  0  0  0  0  0  0  0  0
   49.0370   29.3720   48.6310 N   0  0  0  0  0  0  0  0  0  0  0  0
   48.3560   30.4110   48.1220 C   0  0  0  0  0  0  0  0  0  0  0  0
   48.0510   31.6570   48.6310 C   0  0  0  0  0  0  0  0  0  0  0  0
   47.1030   33.5410   48.3290 H   0  0  0  0  0  0  0  0  0  0  0  0
   46.8550   30.7360   45.1250 H   0  0  0  0  0  0  0  0  0  0  0  0
   48.1970   28.2640   45.7310 H   0  0  0  0  0  0  0  0  0  0  0  0
   49.5270   27.4150   47.8480 H   0  0  0  0  0  0  0  0  0  0  0  0
   48.3710   31.9620   49.6240 H   0  0  0  0  0  0  0  0  0  0  0  0
   45.3850   34.4830   42.5120 O   0  0  0  0  0  0  0  0  0  0  0  0
   44.3380   33.9660   41.7510 C   0  0  0  0  0  0  0  0  0  0  0  0
   44.9650   32.9250   41.1710 C   0  0  0  0  0  0  0  0  0  0  0  0
   43.5570   32.1860   40.1230 S   0  0  0  0  0  0  0  0  0  0  0  0
   42.4010   33.5230   40.7450 C   0  0  0  0  0  0  0  0  0  0  0  0
   43.0790   34.0750   41.3990 N   0  0  0  0  0  0  0  0  0  0  0  0
   45.8490   32.1150   40.8560 H   0  0  0  0  0  0  0  0  0  0  0  0
   40.5520   34.5100   39.3730 C   0  0  0  0  0  0  0  0  0  0  0  0
   40.9450   33.6620   40.3510 C   0  0  0  0  0  0  0  0  0  0  0  0
   40.1160   32.8680   41.0640 C   0  0  0  0  0  0  0  0  0  0  0  0
   40.4750   32.1900   41.8540 H   0  0  0  0  0  0  0  0  0  0  0  0
   38.7820   32.9310   40.7700 C   0  0  0  0  0  0  0  0  0  0  0  0
   38.1130   32.2930   41.3430 H   0  0  0  0  0  0  0  0  0  0  0  0
   38.2430   33.7460   39.8040 C   0  0  0  0  0  3  0  0  0  0  0  0
   39.1690   34.5150   39.1340 C   0  0  0  0  0  3  0  0  0  0  0  0
   42.0350   36.6350   39.1270 H   0  0  0  0  0  0  0  0  0  0  0  0
   41.6430   35.5260   38.4670 S   0  0  0  0  0  0  0  0  0  0  0  0
   40.8670   35.9960   37.2540 O   0  0  0  0  0  0  0  0  0  0  0  0
   42.7790   34.7050   37.9120 O   0  0  0  0  0  0  0  0  0  0  0  0
  1  2  2  0  0  0  0
  1  6  1  0  0  0  0
  2  3  1  0  0  0  0
  3  4  2  0  0  0  0
  3 10  1  0  0  0  0
  5  4  1  0  0  0  0
  5  8  1  0  0  0  0
  6  5  2  0  0  0  0
  7  2  1  0  0  0  0
  9 18  1  0  0  0  0
  9 17  1  0  0  0  0
 10  9  2  0  0  0  0
 11 10  1  0  0  0  0
 11 12  2  0  0  0  0
 12 16  1  0  0  0  0
 13 12  1  0  0  0  0
 13 14  1  0  0  0  0
 14 21  1  0  0  0  0
 14 15  2  0  0  0  0
 16 15  1  0  0  0  0
 16 17  2  0  0  0  0
 17 22  1  0  0  0  0
 19 11  1  0  0  0  0
 20 13  1  0  0  0  0
 23  1  1  0  0  0  0
 24 23  1  0  0  0  0
 25 24  2  0  0  0  0
 26 27  1  0  0  0  0
 26 25  1  0  0  0  0
 27 28  2  0  0  0  0
 28 24  1  0  0  0  0
 29 25  1  0  0  0  0
 30 31  1  0  0  0  0
 31 27  1  0  0  0  0
 31 32  2  0  0  0  0
 32 33  1  0  0  0  0
 34 32  1  0  0  0  0
 34 35  1  0  0  0  0
 36 34  2  0  0  0  0
 37 30  2  0  0  0  0
 37 36  1  0  0  0  0
 39 38  1  0  0  0  0
 39 30  1  0  0  0  0
 40 39  2  0  0  0  0
 41 39  2  0  0  0  0
M  END
>  <minimizedAffinity>
-6.59452629

>  <minimizedRMSD>
1.48246074

$$$$
