
 OpenBabel03252507383D

 41 45  0  0  0  0  0  0  0  0999 V2000
   45.0180   34.7240   43.6880 C   0  0  0  0  0  0  0  0  0  0  0  0
   45.7000   33.5750   44.1600 C   0  0  0  0  0  0  0  0  0  0  0  0
   45.7350   33.3760   45.5300 C   0  0  0  0  0  0  0  0  0  0  0  0
   45.1290   34.2730   46.3340 N   0  0  0  0  0  0  0  0  0  0  0  0
   44.4830   35.3650   45.8580 C   0  0  0  0  0  0  0  0  0  0  0  0
   44.4340   35.5790   44.5500 N   0  0  0  0  0  0  0  0  0  0  0  0
   46.1870   32.8540   43.5170 H   0  0  0  0  0  0  0  0  0  0  0  0
   44.0170   36.0450   46.5760 H   0  0  0  0  0  0  0  0  0  0  0  0
   47.0600   32.4800   47.3660 C   0  0  0  0  0  0  0  0  0  0  0  0
   46.3950   32.2430   46.1690 C   0  0  0  0  0  0  0  0  0  0  0  0
   46.4000   30.9650   45.6660 C   0  0  0  0  0  0  0  0  0  0  0  0
   47.0330   29.9210   46.2960 C   0  0  0  0  0  0  0  0  0  0  0  0
   47.1730   28.6120   45.9990 N   0  0  0  0  0  0  0  0  0  0  0  0
   47.9250   28.0400   47.0160 C   0  0  0  0  0  0  0  0  0  0  0  0
   48.2250   28.9970   47.8990 N   0  0  0  0  0  0  0  0  0  0  0  0
   47.6900   30.1560   47.4800 C   0  0  0  0  0  0  0  0  0  0  0  0
   47.7040   31.4280   48.0120 C   0  0  0  0  0  0  0  0  0  0  0  0
   47.1000   33.4640   47.8260 H   0  0  0  0  0  0  0  0  0  0  0  0
   45.8690   30.8090   44.7220 H   0  0  0  0  0  0  0  0  0  0  0  0
   46.7870   28.1170   45.1600 H   0  0  0  0  0  0  0  0  0  0  0  0
   48.2160   26.9950   47.0760 H   0  0  0  0  0  0  0  0  0  0  0  0
   48.2130   31.6510   48.9460 H   0  0  0  0  0  0  0  0  0  0  0  0
   44.9830   34.9230   42.3030 O   0  0  0  0  0  0  0  0  0  0  0  0
   46.1420   34.7290   41.5520 C   0  0  0  0  0  0  0  0  0  0  0  0
   47.0000   35.4980   42.2500 C   0  0  0  0  0  0  0  0  0  0  0  0
   48.6050   35.2530   41.2540 S   0  0  0  0  0  0  0  0  0  0  0  0
   47.6910   34.1170   40.0750 C   0  0  0  0  0  0  0  0  0  0  0  0
   46.6940   34.1410   40.5180 N   0  0  0  0  0  0  0  0  0  0  0  0
   47.4560   36.2640   43.1110 H   0  0  0  0  0  0  0  0  0  0  0  0
   49.0640   32.3120   39.0110 C   0  0  0  0  0  0  0  0  0  0  0  0
   48.3140   33.4290   38.8780 C   0  0  0  0  0  0  0  0  0  0  0  0
   48.0430   34.0400   37.7030 C   0  0  0  0  0  0  0  0  0  0  0  0
   47.4270   34.9510   37.6350 H   0  0  0  0  0  0  0  0  0  0  0  0
   48.5670   33.4820   36.5710 C   0  0  0  0  0  0  0  0  0  0  0  0
   48.3500   33.9720   35.6250 H   0  0  0  0  0  0  0  0  0  0  0  0
   49.3450   32.3500   36.5590 C   0  0  0  0  0  3  0  0  0  0  0  0
   49.5640   31.8030   37.8040 C   0  0  0  0  0  3  0  0  0  0  0  0
   48.4340   31.7100   41.4660 H   0  0  0  0  0  0  0  0  0  0  0  0
   49.4010   31.5410   40.5420 S   0  0  0  0  0  0  0  0  0  0  0  0
   50.6430   32.2170   41.0850 O   0  0  0  0  0  0  0  0  0  0  0  0
   49.8020   30.1040   40.3230 O   0  0  0  0  0  0  0  0  0  0  0  0
  1  2  2  0  0  0  0
  1  6  1  0  0  0  0
  2  3  1  0  0  0  0
  3 10  1  0  0  0  0
  3  4  2  0  0  0  0
  5  4  1  0  0  0  0
  5  8  1  0  0  0  0
  6  5  2  0  0  0  0
  7  2  1  0  0  0  0
  9 18  1  0  0  0  0
  9 17  1  0  0  0  0
 10  9  2  0  0  0  0
 11 10  1  0  0  0  0
 11 12  2  0  0  0  0
 12 16  1  0  0  0  0
 13 12  1  0  0  0  0
 13 14  1  0  0  0  0
 14 21  1  0  0  0  0
 14 15  2  0  0  0  0
 16 15  1  0  0  0  0
 16 17  2  0  0  0  0
 17 22  1  0  0  0  0
 19 11  1  0  0  0  0
 20 13  1  0  0  0  0
 23  1  1  0  0  0  0
 24 25  2  0  0  0  0
 24 23  1  0  0  0  0
 25 29  1  0  0  0  0
 26 25  1  0  0  0  0
 27 28  2  0  0  0  0
 27 26  1  0  0  0  0
 28 24  1  0  0  0  0
 30 39  1  0  0  0  0
 31 30  1  0  0  0  0
 31 27  1  0  0  0  0
 32 31  2  0  0  0  0
 33 32  1  0  0  0  0
 34 32  1  0  0  0  0
 35 34  1  0  0  0  0
 36 34  2  0  0  0  0
 36 37  1  0  0  0  0
 37 30  2  0  0  0  0
 39 40  2  0  0  0  0
 39 38  1  0  0  0  0
 41 39  2  0  0  0  0
M  END
>  <minimizedAffinity>
-6.11982822

>  <minimizedRMSD>
5.61007452

$$$$
