
 OpenBabel03242513503D

 34 36  0  0  1  0  0  0  0  0999 V2000
   44.7550   34.2590   40.5140 C   0  0  2  0  0  0  0  0  0  0  0  0
   45.3920   34.2200   41.8780 C   0  0  0  0  0  0  0  0  0  0  0  0
   44.9100   35.5360   42.4670 C   0  0  0  0  0  0  0  0  0  0  0  0
   43.5940   35.8440   41.7590 C   0  0  0  0  0  0  0  0  0  0  0  0
   43.3740   34.6360   40.9050 C   0  0  1  0  0  0  0  0  0  0  0  0
   45.3030   34.9930   39.9370 H   0  0  0  0  0  0  0  0  0  0  0  0
   44.9410   33.3650   42.4180 H   0  0  0  0  0  0  0  0  0  0  0  0
   46.4910   34.1740   41.8170 H   0  0  0  0  0  0  0  0  0  0  0  0
   45.6490   36.3440   42.3520 H   0  0  0  0  0  0  0  0  0  0  0  0
   44.6590   35.3340   43.5250 H   0  0  0  0  0  0  0  0  0  0  0  0
   42.7530   35.9450   42.5080 H   0  0  0  0  0  0  0  0  0  0  0  0
   43.6720   36.8020   41.2750 H   0  0  0  0  0  0  0  0  0  0  0  0
   43.1670   33.8410   41.7150 H   0  0  0  0  0  0  0  0  0  0  0  0
   45.2280   31.6960   37.8130 C   0  0  0  0  0  0  0  0  0  0  0  0
   45.1660   32.9640   38.4090 C   0  0  0  0  0  0  0  0  0  0  0  0
   44.8400   32.9820   39.7830 C   0  0  0  0  0  0  0  0  0  0  0  0
   44.6070   31.8100   40.4570 N   0  0  0  0  0  0  0  0  0  0  0  0
   44.6880   30.6270   39.8050 C   0  0  0  0  0  0  0  0  0  0  0  0
   44.9950   30.5660   38.5000 N   0  0  0  0  0  0  0  0  0  0  0  0
   45.4820   31.7700   36.7640 H   0  0  0  0  0  0  0  0  0  0  0  0
   45.3490   33.8890   37.8840 H   0  0  0  0  0  0  0  0  0  0  0  0
   44.5120   29.6840   40.3000 H   0  0  0  0  0  0  0  0  0  0  0  0
   41.1840   33.7150   40.0630 C   0  0  0  0  0  0  0  0  0  0  0  0
   42.2660   34.5810   40.0160 C   0  0  0  0  0  0  0  0  0  0  0  0
   42.1660   35.4590   38.9170 C   0  0  0  0  0  0  0  0  0  0  0  0
   42.9850   36.1900   38.7950 H   0  0  0  0  0  0  0  0  0  0  0  0
   41.1870   35.5340   37.9690 C   0  0  0  0  0  0  0  0  0  0  0  0
   41.2360   36.2610   37.1730 H   0  0  0  0  0  0  0  0  0  0  0  0
   40.1590   34.6450   38.0900 C   0  0  0  0  0  0  0  0  0  0  0  0
   40.1510   33.7520   39.1150 C   0  0  0  0  0  0  0  0  0  0  0  0
   41.8340   32.7240   42.4020 H   0  0  0  0  0  0  0  0  0  0  0  0
   41.0520   32.5540   41.3160 S   0  0  0  0  0  0  0  0  0  0  0  0
   40.9430   31.1270   40.8360 O   0  0  0  0  0  0  0  0  0  0  0  0
   39.6540   32.7320   41.9510 O   0  0  0  0  0  0  0  0  0  0  0  0
  1  6  1  6  0  0  0
  1  5  1  0  0  0  0
  1  2  1  0  0  0  0
  2  7  1  0  0  0  0
  2  3  1  0  0  0  0
  3 10  1  0  0  0  0
  4  3  1  0  0  0  0
  4 11  1  0  0  0  0
  5 13  1  1  0  0  0
  5  4  1  0  0  0  0
  8  2  1  0  0  0  0
  9  3  1  0  0  0  0
 12  4  1  0  0  0  0
 14 15  2  0  0  0  0
 14 19  1  0  0  0  0
 15 16  1  0  0  0  0
 16 17  2  0  0  0  0
 16  1  1  0  0  0  0
 18 22  1  0  0  0  0
 18 17  1  0  0  0  0
 19 18  2  0  0  0  0
 20 14  1  0  0  0  0
 21 15  1  0  0  0  0
 23 32  1  0  0  0  0
 24 23  1  0  0  0  0
 24  5  1  0  0  0  0
 25 24  2  0  0  0  0
 26 25  1  0  0  0  0
 27 29  2  0  0  0  0
 27 25  1  0  0  0  0
 28 27  1  0  0  0  0
 29 30  1  0  0  0  0
 30 23  2  0  0  0  0
 32 34  2  0  0  0  0
 32 31  1  0  0  0  0
 33 32  2  0  0  0  0
M  END
>  <minimizedAffinity>
-4.55161047

>  <minimizedRMSD>
8.13920689

$$$$
