
 OpenBabel03252502013D

 37 40  0  0  0  0  0  0  0  0999 V2000
   47.2360   32.2640   48.0070 C   0  0  0  0  0  0  0  0  0  0  0  0
   47.4820   30.9000   47.8080 C   0  0  0  0  0  0  0  0  0  0  0  0
   47.3390   30.4160   46.5400 C   0  0  0  0  0  0  0  0  0  0  0  0
   46.9740   31.2720   45.5730 N   0  0  0  0  0  0  0  0  0  0  0  0
   46.7400   32.5600   45.7470 C   0  0  0  0  0  0  0  0  0  0  0  0
   46.8800   33.0240   46.9790 N   0  0  0  0  0  0  0  0  0  0  0  0
   47.3500   32.6610   49.0300 H   0  0  0  0  0  0  0  0  0  0  0  0
   46.3390   33.6070   44.8030 C   0  0  0  0  0  0  0  0  0  0  0  0
   45.2350   34.3890   44.9610 N   0  0  0  0  0  0  0  0  0  0  0  0
   44.8320   35.3470   44.1410 C   0  0  0  0  0  0  0  0  0  0  0  0
   45.5550   35.6080   43.0280 N   0  0  0  0  0  0  0  0  0  0  0  0
   46.6700   34.9050   42.7570 C   0  0  0  0  0  0  0  0  0  0  0  0
   47.4020   35.1840   41.6120 C   0  0  0  0  0  0  0  0  0  0  0  0
   48.5400   34.4750   41.3200 C   0  0  0  0  0  0  0  0  0  0  0  0
   48.9200   33.4900   42.2000 C   0  0  0  0  0  0  0  0  0  0  0  0
   48.1570   33.2500   43.3270 C   0  0  0  0  0  0  0  0  0  0  0  0
   47.0190   33.9280   43.6590 C   0  0  0  0  0  0  0  0  0  0  0  0
   43.9380   35.9230   44.3440 H   0  0  0  0  0  0  0  0  0  0  0  0
   47.0170   35.9830   40.9780 H   0  0  0  0  0  0  0  0  0  0  0  0
   49.0410   34.7650   40.4070 H   0  0  0  0  0  0  0  0  0  0  0  0
   49.8160   32.9460   41.9540 H   0  0  0  0  0  0  0  0  0  0  0  0
   48.5130   32.4520   43.9890 H   0  0  0  0  0  0  0  0  0  0  0  0
   46.4930   28.1320   46.2920 C   0  0  0  0  0  0  0  0  0  0  0  0
   47.5510   29.0380   46.1460 C   0  0  0  0  0  0  0  0  0  0  0  0
   48.7020   28.4940   45.6360 C   0  0  0  0  0  0  0  0  0  0  0  0
   49.5580   29.1200   45.4940 H   0  0  0  0  0  0  0  0  0  0  0  0
   48.9230   27.1900   45.2620 C   0  0  0  0  0  0  0  0  0  0  0  0
   49.8580   26.8350   44.8670 H   0  0  0  0  0  0  0  0  0  0  0  0
   47.8850   26.2990   45.4040 C   0  0  0  0  0  3  0  0  0  0  0  0
   46.7060   26.7980   45.9130 C   0  0  0  0  0  3  0  0  0  0  0  0
   44.3390   29.6050   46.2230 H   0  0  0  0  0  0  0  0  0  0  0  0
   44.9270   28.5590   46.9110 S   0  0  0  0  0  0  0  0  0  0  0  0
   44.8960   28.7510   48.3940 O   0  0  0  0  0  0  0  0  0  0  0  0
   43.9900   27.3870   46.6460 O   0  0  0  0  0  0  0  0  0  0  0  0
   47.8580   30.1290   48.9230 N   0  0  0  0  0  0  0  0  0  0  0  0
   46.8860   29.8410   49.2470 H   0  0  0  0  0  0  0  0  0  0  0  0
   48.9110   30.2510   48.8400 H   0  0  0  0  0  0  0  0  0  0  0  0
  1  7  1  0  0  0  0
  2  1  1  0  0  0  0
  2 35  1  0  0  0  0
  3  2  2  0  0  0  0
  4  5  2  0  0  0  0
  4  3  1  0  0  0  0
  5  6  1  0  0  0  0
  6  1  2  0  0  0  0
  8  9  1  0  0  0  0
  8  5  1  0  0  0  0
 10 18  1  0  0  0  0
 10  9  2  0  0  0  0
 11 10  1  0  0  0  0
 12 11  2  0  0  0  0
 12 17  1  0  0  0  0
 13 12  1  0  0  0  0
 14 13  2  0  0  0  0
 14 15  1  0  0  0  0
 15 16  2  0  0  0  0
 16 17  1  0  0  0  0
 16 22  1  0  0  0  0
 17  8  2  0  0  0  0
 19 13  1  0  0  0  0
 20 14  1  0  0  0  0
 21 15  1  0  0  0  0
 23 32  1  0  0  0  0
 24 23  1  0  0  0  0
 24  3  1  0  0  0  0
 25 24  2  0  0  0  0
 26 25  1  0  0  0  0
 27 29  2  0  0  0  0
 27 25  1  0  0  0  0
 28 27  1  0  0  0  0
 29 30  1  0  0  0  0
 30 23  2  0  0  0  0
 31 32  1  0  0  0  0
 32 33  2  0  0  0  0
 34 32  2  0  0  0  0
 35 36  1  0  0  0  0
 37 35  1  0  0  0  0
M  END
>  <minimizedAffinity>
-5.80890703

>  <minimizedRMSD>
1.93125999

$$$$
