
 OpenBabel03252506103D

 33 35  0  0  0  0  0  0  0  0999 V2000
   45.1370   33.2590   41.1560 F   0  0  0  0  0  0  0  0  0  0  0  0
   46.2930   33.8890   40.9630 C   0  0  0  0  0  0  0  0  0  0  0  0
   46.7970   34.7370   41.9380 C   0  0  0  0  0  0  0  0  0  0  0  0
   47.9830   35.4160   41.7960 C   0  0  0  0  0  0  0  0  0  0  0  0
   48.7360   35.2650   40.6320 C   0  0  0  0  0  0  0  0  0  0  0  0
   48.1930   34.4060   39.6800 C   0  0  0  0  0  0  0  0  0  0  0  0
   47.0080   33.7160   39.8010 C   0  0  0  0  0  0  0  0  0  0  0  0
   48.3470   36.0720   42.5800 H   0  0  0  0  0  0  0  0  0  0  0  0
   49.6560   35.7790   40.4980 H   0  0  0  0  0  0  0  0  0  0  0  0
   48.7990   34.3070   38.7840 H   0  0  0  0  0  0  0  0  0  0  0  0
   45.4710   34.2190   45.3320 C   0  0  0  0  0  0  0  0  0  0  0  0
   44.6190   35.3250   45.4840 C   0  0  0  0  0  0  0  0  0  0  0  0
   44.4980   36.2550   44.4170 C   0  0  0  0  0  0  0  0  0  0  0  0
   45.2360   35.9990   43.2940 N   0  0  0  0  0  0  0  0  0  0  0  0
   46.0410   34.9300   43.1840 C   0  0  0  0  0  0  0  0  0  0  0  0
   46.1490   34.0570   44.1960 N   0  0  0  0  0  0  0  0  0  0  0  0
   44.0380   35.5190   46.3790 H   0  0  0  0  0  0  0  0  0  0  0  0
   43.8560   37.1200   44.4850 H   0  0  0  0  0  0  0  0  0  0  0  0
   45.5770   33.3090   46.4000 N   0  0  0  0  0  0  0  0  0  0  0  0
   44.8960   33.3010   47.1880 H   0  0  0  0  0  0  0  0  0  0  0  0
   46.3240   32.5970   46.4790 H   0  0  0  0  0  0  0  0  0  0  0  0
   46.7910   31.4860   38.6710 C   0  0  0  0  0  0  0  0  0  0  0  0
   46.5530   32.8440   38.7220 C   0  0  0  0  0  0  0  0  0  0  0  0
   45.8300   33.4170   37.6730 C   0  0  0  0  0  0  0  0  0  0  0  0
   45.6280   34.4990   37.6930 H   0  0  0  0  0  0  0  0  0  0  0  0
   45.3760   32.6370   36.6290 C   0  0  0  0  0  0  0  0  0  0  0  0
   44.8080   33.1090   35.8120 H   0  0  0  0  0  0  0  0  0  0  0  0
   45.6180   31.2730   36.5830 C   0  0  0  0  0  3  0  0  0  0  0  0
   46.3350   30.7280   37.6300 C   0  0  0  0  0  3  0  0  0  0  0  0
   47.4360   31.3530   41.1940 H   0  0  0  0  0  0  0  0  0  0  0  0
   47.6930   30.7890   39.9880 S   0  0  0  0  0  0  0  0  0  0  0  0
   47.3720   29.3170   40.0340 O   0  0  0  0  0  0  0  0  0  0  0  0
   49.1570   30.8920   39.5960 O   0  0  0  0  0  0  0  0  0  0  0  0
  2  1  1  0  0  0  0
  2  3  1  0  0  0  0
  3 15  1  0  0  0  0
  4  3  2  0  0  0  0
  4  8  1  0  0  0  0
  5  4  1  0  0  0  0
  6  7  1  0  0  0  0
  6  5  2  0  0  0  0
  7  2  2  0  0  0  0
  9  5  1  0  0  0  0
 10  6  1  0  0  0  0
 11 12  1  0  0  0  0
 11 19  1  0  0  0  0
 12 17  1  0  0  0  0
 13 18  1  0  0  0  0
 13 12  2  0  0  0  0
 14 13  1  0  0  0  0
 15 14  2  0  0  0  0
 15 16  1  0  0  0  0
 16 11  2  0  0  0  0
 19 21  1  0  0  0  0
 19 20  1  0  0  0  0
 22 23  1  0  0  0  0
 22 31  1  0  0  0  0
 23  7  1  0  0  0  0
 24 25  1  0  0  0  0
 24 23  2  0  0  0  0
 26 24  1  0  0  0  0
 27 26  1  0  0  0  0
 28 26  2  0  0  0  0
 28 29  1  0  0  0  0
 29 22  2  0  0  0  0
 31 32  2  0  0  0  0
 31 30  1  0  0  0  0
 33 31  2  0  0  0  0
M  END
>  <minimizedAffinity>
-5.68238544

>  <minimizedRMSD>
0.960306764

$$$$
