
 OpenBabel03252504463D

 30 31  0  0  0  0  0  0  0  0999 V2000
   44.6640   31.2850   48.7860 O   0  0  0  0  0  0  0  0  0  0  0  0
   45.6210   30.9210   47.6390 P   0  0  1  0  0  0  0  0  0  0  0  0
   44.6890   30.3340   46.3780 O   0  0  0  0  0  0  0  0  0  0  0  0
   43.7520   30.6680   46.4190 H   0  0  0  0  0  0  0  0  0  0  0  0
   46.4400   32.3520   47.2600 O   0  0  0  0  0  0  0  0  0  0  0  0
   45.4060   34.6600   44.6730 C   0  0  0  0  0  0  0  0  0  0  0  0
   46.2560   34.3030   43.6320 C   0  0  0  0  0  0  0  0  0  0  0  0
   47.1790   33.2560   43.8650 C   0  0  0  0  0  0  0  0  0  0  0  0
   47.1650   32.6750   45.0890 N   0  0  0  0  0  0  0  0  0  0  0  0
   46.3180   33.0580   46.0650 C   0  0  0  0  0  0  0  0  0  0  0  0
   45.4310   34.0610   45.8500 N   0  0  0  0  0  0  0  0  0  0  0  0
   46.2800   34.7580   42.6500 H   0  0  0  0  0  0  0  0  0  0  0  0
   47.8630   32.9400   43.0870 H   0  0  0  0  0  0  0  0  0  0  0  0
   44.4410   35.7690   44.4010 C   0  0  0  0  0  0  0  0  0  0  0  0
   43.7810   35.8950   45.2720 H   0  0  0  0  0  0  0  0  0  0  0  0
   43.8520   35.5240   43.4760 H   0  0  0  0  0  0  0  0  0  0  0  0
   44.9710   36.7280   44.1890 H   0  0  0  0  0  0  0  0  0  0  0  0
   46.7120   29.7470   48.1440 O   0  0  0  0  0  0  0  0  0  0  0  0
   47.0790   27.8000   46.9610 C   0  0  0  0  0  0  0  0  0  0  0  0
   47.5130   29.0840   47.2270 C   0  0  0  0  0  0  0  0  0  0  0  0
   48.6160   29.6750   46.6620 C   0  0  0  0  0  0  0  0  0  0  0  0
   48.9090   30.6680   46.9000 H   0  0  0  0  0  0  0  0  0  0  0  0
   49.3150   28.8670   45.7560 C   0  0  0  0  0  0  0  0  0  0  0  0
   50.1940   29.2870   45.2830 H   0  0  0  0  0  0  0  0  0  0  0  0
   48.9220   27.5780   45.4570 C   0  0  0  0  0  3  0  0  0  0  0  0
   47.8050   27.0270   46.0510 C   0  0  0  0  0  3  0  0  0  0  0  0
   45.5100   27.5270   48.9700 H   0  0  0  0  0  0  0  0  0  0  0  0
   45.6750   27.0720   47.6920 S   0  0  0  0  0  0  0  0  0  0  0  0
   45.8060   25.5900   47.6220 O   0  0  0  0  0  0  0  0  0  0  0  0
   44.4410   27.4390   46.8900 O   0  0  0  0  0  0  0  0  0  0  0  0
  2 18  1  0  0  0  0
  2  1  2  1  0  0  0
  3  4  1  0  0  0  0
  3  2  1  0  0  0  0
  5  2  1  0  0  0  0
  6 11  1  0  0  0  0
  7  8  1  0  0  0  0
  7  6  2  0  0  0  0
  8  9  2  0  0  0  0
  9 10  1  0  0  0  0
 10  5  1  0  0  0  0
 11 10  2  0  0  0  0
 12  7  1  0  0  0  0
 13  8  1  0  0  0  0
 14  6  1  0  0  0  0
 14 15  1  0  0  0  0
 16 14  1  0  0  0  0
 17 14  1  0  0  0  0
 19 20  1  0  0  0  0
 19 28  1  0  0  0  0
 20 18  1  0  0  0  0
 21 22  1  0  0  0  0
 21 20  2  0  0  0  0
 23 21  1  0  0  0  0
 24 23  1  0  0  0  0
 25 23  2  0  0  0  0
 25 26  1  0  0  0  0
 26 19  2  0  0  0  0
 28 27  1  0  0  0  0
 29 28  2  0  0  0  0
 30 28  2  0  0  0  0
M  END
>  <minimizedAffinity>
-4.17588091

>  <minimizedRMSD>
2.2753129

$$$$
