
 OpenBabel03252505443D

 45 48  0  0  1  0  0  0  0  0999 V2000
   37.2650   29.3970   38.5770 C   0  0  0  0  0  0  0  0  0  0  0  0
   35.9540   29.4570   38.1530 C   0  0  0  0  0  0  0  0  0  0  0  0
   35.0930   28.3910   38.2700 C   0  0  0  0  0  0  0  0  0  0  0  0
   35.5680   27.2570   38.8210 N   0  0  0  0  0  0  0  0  0  0  0  0
   36.8640   27.1880   39.2430 C   0  0  0  0  0  0  0  0  0  0  0  0
   37.7010   28.2370   39.1260 N   0  0  0  0  0  0  0  0  0  0  0  0
   35.6200   30.3900   37.7170 H   0  0  0  0  0  0  0  0  0  0  0  0
   34.0780   28.5080   37.9170 H   0  0  0  0  0  0  0  0  0  0  0  0
   37.7260   31.7790   39.0620 C   0  0  1  0  0  0  0  0  0  0  0  0
   37.6920   31.7060   37.4960 C   0  0  0  0  0  0  0  0  0  0  0  0
   38.1870   30.5890   38.4090 C   0  0  2  0  0  0  0  0  0  0  0  0
   36.6920   31.8240   39.5200 H   0  0  0  0  0  0  0  0  0  0  0  0
   36.6840   31.6360   37.0630 H   0  0  0  0  0  0  0  0  0  0  0  0
   38.4500   32.2880   36.9650 H   0  0  0  0  0  0  0  0  0  0  0  0
   39.2020   30.2620   38.2010 H   0  0  0  0  0  0  0  0  0  0  0  0
   38.6180   32.8350   39.5830 C   0  0  0  0  0  0  0  0  0  0  0  0
   38.0400   34.0670   39.9260 C   0  0  0  0  0  0  0  0  0  0  0  0
   38.8670   35.0730   40.4240 C   0  0  0  0  0  0  0  0  0  0  0  0
   40.1890   34.8060   40.5520 N   0  0  0  0  0  0  0  0  0  0  0  0
   40.7080   33.6240   40.2180 C   0  0  0  0  0  0  0  0  0  0  0  0
   39.9040   32.6650   39.7400 N   0  0  0  0  0  0  0  0  0  0  0  0
   36.9700   34.2550   39.8130 H   0  0  0  0  0  0  0  0  0  0  0  0
   38.4780   36.0530   40.7090 H   0  0  0  0  0  0  0  0  0  0  0  0
   42.1930   33.5210   40.4350 C   0  0  0  0  0  0  0  0  0  0  0  0
   42.5100   33.5840   41.7830 F   0  0  0  0  0  0  0  0  0  0  0  0
   42.8170   34.6420   39.8500 F   0  0  0  0  0  0  0  0  0  0  0  0
   42.6830   32.4200   39.7900 F   0  0  0  0  0  0  0  0  0  0  0  0
   37.4370   25.9580   39.8470 C   0  0  0  0  0  0  0  0  0  0  0  0
   38.4970   25.8020   39.6150 H   0  0  0  0  0  0  0  0  0  0  0  0
   36.9110   25.0570   39.4190 H   0  0  0  0  0  0  0  0  0  0  0  0
   37.1620   25.9090   41.3280 C   0  0  0  0  0  0  0  0  0  0  0  0
   36.5900   24.9490   41.5230 H   0  0  0  0  0  0  0  0  0  0  0  0
   36.4660   26.7140   41.6010 H   0  0  0  0  0  0  0  0  0  0  0  0
   38.5140   26.8030   43.1900 C   0  0  0  0  0  0  0  0  0  0  0  0
   38.3550   25.8960   42.1700 C   0  0  0  0  0  0  0  0  0  0  0  0
   39.3690   24.9680   41.9560 C   0  0  0  0  0  0  0  0  0  0  0  0
   39.2180   24.2600   41.1430 H   0  0  0  0  0  0  0  0  0  0  0  0
   40.5470   24.8750   42.6960 C   0  0  0  0  0  0  0  0  0  0  0  0
   41.2600   24.1170   42.4410 H   0  0  0  0  0  0  0  0  0  0  0  0
   40.6890   25.8020   43.7250 C   0  0  0  0  0  3  0  0  0  0  0  0
   39.6880   26.7260   43.9420 C   0  0  0  0  0  3  0  0  0  0  0  0
   37.9080   28.7600   44.6990 H   0  0  0  0  0  0  0  0  0  0  0  0
   37.3740   28.0420   43.6320 S   0  0  0  0  0  0  0  0  0  0  0  0
   37.1870   29.0530   42.5270 O   0  0  0  0  0  0  0  0  0  0  0  0
   36.0660   27.5160   44.1310 O   0  0  0  0  0  0  0  0  0  0  0  0
  1  6  1  0  0  0  0
  2  3  1  0  0  0  0
  2  1  2  0  0  0  0
  3  4  2  0  0  0  0
  4  5  1  0  0  0  0
  5 28  1  0  0  0  0
  6  5  2  0  0  0  0
  7  2  1  0  0  0  0
  8  3  1  0  0  0  0
  9 12  1  1  0  0  0
  9 16  1  0  0  0  0
 10 11  1  0  0  0  0
 10  9  1  0  0  0  0
 11 15  1  1  0  0  0
 11  1  1  0  0  0  0
 11  9  1  0  0  0  0
 13 10  1  0  0  0  0
 14 10  1  0  0  0  0
 16 21  2  0  0  0  0
 16 17  1  0  0  0  0
 17 18  2  0  0  0  0
 18 19  1  0  0  0  0
 18 23  1  0  0  0  0
 20 24  1  0  0  0  0
 20 19  2  0  0  0  0
 21 20  1  0  0  0  0
 22 17  1  0  0  0  0
 24 25  1  0  0  0  0
 26 24  1  0  0  0  0
 27 24  1  0  0  0  0
 28 31  1  0  0  0  0
 29 28  1  0  0  0  0
 30 28  1  0  0  0  0
 31 32  1  0  0  0  0
 31 33  1  0  0  0  0
 31 35  1  0  0  0  0
 34 43  1  0  0  0  0
 34 41  1  0  0  0  0
 35 34  2  0  0  0  0
 36 35  1  0  0  0  0
 36 38  2  0  0  0  0
 37 36  1  0  0  0  0
 38 40  1  0  0  0  0
 39 38  1  0  0  0  0
 40 41  2  0  0  0  0
 43 45  2  0  0  0  0
 43 42  1  0  0  0  0
 44 43  2  0  0  0  0
M  END
>  <minimizedAffinity>
-6.390522

$$$$

 OpenBabel03252505443D

 45 48  0  0  1  0  0  0  0  0999 V2000
   37.0130   30.6390   39.7190 C   0  0  0  0  0  0  0  0  0  0  0  0
   35.9120   30.1090   39.0770 C   0  0  0  0  0  0  0  0  0  0  0  0
   35.1530   29.1040   39.6280 C   0  0  0  0  0  0  0  0  0  0  0  0
   35.5140   28.6340   40.8380 N   0  0  0  0  0  0  0  0  0  0  0  0
   36.6020   29.1520   41.4800 C   0  0  0  0  0  0  0  0  0  0  0  0
   37.3400   30.1380   40.9340 N   0  0  0  0  0  0  0  0  0  0  0  0
   35.6630   30.5200   38.1070 H   0  0  0  0  0  0  0  0  0  0  0  0
   34.3040   28.7350   39.0700 H   0  0  0  0  0  0  0  0  0  0  0  0
   38.5390   32.5670   39.9940 C   0  0  1  0  0  0  0  0  0  0  0  0
   37.3110   33.1560   39.2150 C   0  0  0  0  0  0  0  0  0  0  0  0
   37.8360   31.7330   39.0650 C   0  0  2  0  0  0  0  0  0  0  0  0
   38.3500   32.4820   41.1060 H   0  0  0  0  0  0  0  0  0  0  0  0
   36.4210   33.3370   39.8340 H   0  0  0  0  0  0  0  0  0  0  0  0
   37.5380   33.8590   38.4080 H   0  0  0  0  0  0  0  0  0  0  0  0
   38.0940   31.4590   38.0460 H   0  0  0  0  0  0  0  0  0  0  0  0
   39.8130   33.2520   39.6900 C   0  0  0  0  0  0  0  0  0  0  0  0
   40.0940   34.4420   40.3780 C   0  0  0  0  0  0  0  0  0  0  0  0
   41.2940   35.0980   40.1090 C   0  0  0  0  0  0  0  0  0  0  0  0
   42.1270   34.5490   39.1920 N   0  0  0  0  0  0  0  0  0  0  0  0
   41.8310   33.4160   38.5550 C   0  0  0  0  0  0  0  0  0  0  0  0
   40.6750   32.7940   38.8220 N   0  0  0  0  0  0  0  0  0  0  0  0
   39.4030   34.8620   41.1130 H   0  0  0  0  0  0  0  0  0  0  0  0
   41.5710   36.0270   40.6100 H   0  0  0  0  0  0  0  0  0  0  0  0
   42.8850   32.9660   37.5800 C   0  0  0  0  0  0  0  0  0  0  0  0
   42.3230   32.3040   36.5000 F   0  0  0  0  0  0  0  0  0  0  0  0
   43.7140   32.0170   38.2120 F   0  0  0  0  0  0  0  0  0  0  0  0
   43.6870   34.0200   37.2410 F   0  0  0  0  0  0  0  0  0  0  0  0
   37.0460   28.6620   42.8100 C   0  0  0  0  0  0  0  0  0  0  0  0
   36.5200   29.1240   43.6520 H   0  0  0  0  0  0  0  0  0  0  0  0
   38.1300   28.9350   42.9600 H   0  0  0  0  0  0  0  0  0  0  0  0
   37.0070   27.1560   42.8670 C   0  0  0  0  0  0  0  0  0  0  0  0
   36.4690   26.8070   41.9310 H   0  0  0  0  0  0  0  0  0  0  0  0
   36.3660   26.8350   43.6990 H   0  0  0  0  0  0  0  0  0  0  0  0
   38.6320   25.5070   42.0130 C   0  0  0  0  0  0  0  0  0  0  0  0
   38.3170   26.5120   42.8940 C   0  0  0  0  0  0  0  0  0  0  0  0
   39.2810   26.8950   43.8210 C   0  0  0  0  0  0  0  0  0  0  0  0
   39.0070   27.6940   44.5080 H   0  0  0  0  0  0  0  0  0  0  0  0
   40.5560   26.3420   43.9350 C   0  0  0  0  0  0  0  0  0  0  0  0
   41.2180   26.7170   44.6890 H   0  0  0  0  0  0  0  0  0  0  0  0
   40.8550   25.3240   43.0330 C   0  0  0  0  0  3  0  0  0  0  0  0
   39.9040   24.9390   42.1120 C   0  0  0  0  0  3  0  0  0  0  0  0
   38.2720   23.8810   40.0880 H   0  0  0  0  0  0  0  0  0  0  0  0
   37.5830   24.8770   40.7750 S   0  0  0  0  0  0  0  0  0  0  0  0
   36.3730   24.1900   41.3600 O   0  0  0  0  0  0  0  0  0  0  0  0
   37.2020   25.8790   39.7320 O   0  0  0  0  0  0  0  0  0  0  0  0
  1  6  1  0  0  0  0
  2  3  1  0  0  0  0
  2  1  2  0  0  0  0
  3  4  2  0  0  0  0
  4  5  1  0  0  0  0
  5 28  1  0  0  0  0
  6  5  2  0  0  0  0
  7  2  1  0  0  0  0
  8  3  1  0  0  0  0
  9 12  1  1  0  0  0
 10 13  1  0  0  0  0
 10  9  1  0  0  0  0
 11 15  1  6  0  0  0
 11 10  1  0  0  0  0
 11  1  1  0  0  0  0
 11  9  1  0  0  0  0
 14 10  1  0  0  0  0
 16  9  1  0  0  0  0
 16 17  1  0  0  0  0
 17 22  1  0  0  0  0
 18 17  2  0  0  0  0
 18 23  1  0  0  0  0
 19 18  1  0  0  0  0
 20 21  1  0  0  0  0
 20 19  2  0  0  0  0
 21 16  2  0  0  0  0
 24 26  1  0  0  0  0
 24 20  1  0  0  0  0
 25 24  1  0  0  0  0
 27 24  1  0  0  0  0
 28 31  1  0  0  0  0
 28 30  1  0  0  0  0
 28 29  1  0  0  0  0
 31 35  1  0  0  0  0
 31 33  1  0  0  0  0
 32 31  1  0  0  0  0
 34 41  2  0  0  0  0
 34 35  1  0  0  0  0
 35 36  2  0  0  0  0
 36 38  1  0  0  0  0
 36 37  1  0  0  0  0
 38 39  1  0  0  0  0
 40 38  2  0  0  0  0
 41 40  1  0  0  0  0
 42 43  1  0  0  0  0
 43 44  2  0  0  0  0
 43 34  1  0  0  0  0
 45 43  2  0  0  0  0
M  END
>  <minimizedAffinity>
-6.37372828

$$$$

 OpenBabel03252505443D

 45 48  0  0  1  0  0  0  0  0999 V2000
   37.6320   31.2020   40.1630 C   0  0  0  0  0  0  0  0  0  0  0  0
   36.5130   30.7710   39.4820 C   0  0  0  0  0  0  0  0  0  0  0  0
   35.6980   29.7730   39.9610 C   0  0  0  0  0  0  0  0  0  0  0  0
   36.0230   29.2080   41.1400 N   0  0  0  0  0  0  0  0  0  0  0  0
   37.1290   29.6270   41.8220 C   0  0  0  0  0  0  0  0  0  0  0  0
   37.9210   30.6070   41.3460 N   0  0  0  0  0  0  0  0  0  0  0  0
   36.2950   31.2560   38.5390 H   0  0  0  0  0  0  0  0  0  0  0  0
   34.8370   29.4840   39.3740 H   0  0  0  0  0  0  0  0  0  0  0  0
   39.6970   32.5520   40.3560 C   0  0  1  0  0  0  0  0  0  0  0  0
   38.5430   33.6140   40.3470 C   0  0  0  0  0  0  0  0  0  0  0  0
   38.5160   32.2920   39.5880 C   0  0  2  0  0  0  0  0  0  0  0  0
   39.8430   32.0740   41.3720 H   0  0  0  0  0  0  0  0  0  0  0  0
   37.9920   33.6980   41.2940 H   0  0  0  0  0  0  0  0  0  0  0  0
   38.7200   34.5210   39.7630 H   0  0  0  0  0  0  0  0  0  0  0  0
   38.3470   32.3970   38.5190 H   0  0  0  0  0  0  0  0  0  0  0  0
   40.9630   33.0530   39.7830 C   0  0  0  0  0  0  0  0  0  0  0  0
   41.0180   33.2500   38.3950 C   0  0  0  0  0  0  0  0  0  0  0  0
   42.2030   33.7280   37.8380 C   0  0  0  0  0  0  0  0  0  0  0  0
   43.2430   33.9770   38.6700 N   0  0  0  0  0  0  0  0  0  0  0  0
   43.1590   33.7800   39.9860 C   0  0  0  0  0  0  0  0  0  0  0  0
   42.0150   33.3210   40.5100 N   0  0  0  0  0  0  0  0  0  0  0  0
   40.1630   33.0410   37.7470 H   0  0  0  0  0  0  0  0  0  0  0  0
   42.3090   33.9020   36.7650 H   0  0  0  0  0  0  0  0  0  0  0  0
   44.4160   34.1190   40.7390 C   0  0  0  0  0  0  0  0  0  0  0  0
   44.1830   35.0900   41.6990 F   0  0  0  0  0  0  0  0  0  0  0  0
   45.3430   34.6910   39.8430 F   0  0  0  0  0  0  0  0  0  0  0  0
   44.9940   32.9760   41.2200 F   0  0  0  0  0  0  0  0  0  0  0  0
   37.5350   29.0300   43.1200 C   0  0  0  0  0  0  0  0  0  0  0  0
   37.1390   29.5580   43.9950 H   0  0  0  0  0  0  0  0  0  0  0  0
   38.6560   29.0990   43.2230 H   0  0  0  0  0  0  0  0  0  0  0  0
   37.2250   27.5550   43.1520 C   0  0  0  0  0  0  0  0  0  0  0  0
   36.6040   27.3310   42.2290 H   0  0  0  0  0  0  0  0  0  0  0  0
   36.5610   27.3360   44.0000 H   0  0  0  0  0  0  0  0  0  0  0  0
   38.3990   25.5220   42.3930 C   0  0  0  0  0  0  0  0  0  0  0  0
   38.3960   26.6850   43.1240 C   0  0  0  0  0  0  0  0  0  0  0  0
   39.5410   27.0060   43.8470 C   0  0  0  0  0  0  0  0  0  0  0  0
   39.5140   27.9320   44.4180 H   0  0  0  0  0  0  0  0  0  0  0  0
   40.7070   26.2420   43.8940 C   0  0  0  0  0  0  0  0  0  0  0  0
   41.5290   26.5890   44.4860 H   0  0  0  0  0  0  0  0  0  0  0  0
   40.6900   25.0680   43.1460 C   0  0  0  0  0  3  0  0  0  0  0  0
   39.5580   24.7440   42.4270 C   0  0  0  0  0  3  0  0  0  0  0  0
   35.9270   24.9540   42.1950 H   0  0  0  0  0  0  0  0  0  0  0  0
   37.0830   24.9330   41.4180 S   0  0  0  0  0  0  0  0  0  0  0  0
   36.7940   25.8480   40.2530 O   0  0  0  0  0  0  0  0  0  0  0  0
   37.2360   23.5110   40.9830 O   0  0  0  0  0  0  0  0  0  0  0  0
  1  6  1  0  0  0  0
  2  3  1  0  0  0  0
  2  1  2  0  0  0  0
  3  4  2  0  0  0  0
  4  5  1  0  0  0  0
  5 28  1  0  0  0  0
  6  5  2  0  0  0  0
  7  2  1  0  0  0  0
  8  3  1  0  0  0  0
  9 12  1  1  0  0  0
 10  9  1  0  0  0  0
 10 13  1  0  0  0  0
 11 15  1  6  0  0  0
 11  1  1  0  0  0  0
 11 10  1  0  0  0  0
 11  9  1  0  0  0  0
 14 10  1  0  0  0  0
 16  9  1  0  0  0  0
 16 21  1  0  0  0  0
 17 16  2  0  0  0  0
 18 17  1  0  0  0  0
 18 19  2  0  0  0  0
 19 20  1  0  0  0  0
 20 21  2  0  0  0  0
 20 24  1  0  0  0  0
 22 17  1  0  0  0  0
 23 18  1  0  0  0  0
 24 27  1  0  0  0  0
 24 25  1  0  0  0  0
 26 24  1  0  0  0  0
 28 31  1  0  0  0  0
 28 30  1  0  0  0  0
 28 29  1  0  0  0  0
 31 33  1  0  0  0  0
 32 31  1  0  0  0  0
 34 41  2  0  0  0  0
 34 35  1  0  0  0  0
 35 31  1  0  0  0  0
 35 36  2  0  0  0  0
 36 38  1  0  0  0  0
 36 37  1  0  0  0  0
 38 39  1  0  0  0  0
 40 38  2  0  0  0  0
 41 40  1  0  0  0  0
 43 42  1  0  0  0  0
 43 34  1  0  0  0  0
 44 43  2  0  0  0  0
 45 43  2  0  0  0  0
M  END
>  <minimizedAffinity>
-6.3480525

$$$$

 OpenBabel03252505443D

 45 48  0  0  1  0  0  0  0  0999 V2000
   37.6750   30.5620   40.6880 C   0  0  0  0  0  0  0  0  0  0  0  0
   38.9000   31.1710   40.8680 C   0  0  0  0  0  0  0  0  0  0  0  0
   39.6750   30.9510   41.9820 C   0  0  0  0  0  0  0  0  0  0  0  0
   39.2030   30.1060   42.9190 N   0  0  0  0  0  0  0  0  0  0  0  0
   37.9930   29.4980   42.7500 C   0  0  0  0  0  0  0  0  0  0  0  0
   37.2400   29.7190   41.6550 N   0  0  0  0  0  0  0  0  0  0  0  0
   39.2350   31.8420   40.0860 H   0  0  0  0  0  0  0  0  0  0  0  0
   40.6250   31.4620   42.0580 H   0  0  0  0  0  0  0  0  0  0  0  0
   37.4990   30.5310   38.2200 C   0  0  1  0  0  0  0  0  0  0  0  0
   37.2810   32.0360   38.6020 C   0  0  0  0  0  0  0  0  0  0  0  0
   36.8430   30.8500   39.4540 C   0  0  2  0  0  0  0  0  0  0  0  0
   38.5920   30.2380   38.2050 H   0  0  0  0  0  0  0  0  0  0  0  0
   38.1990   32.5770   38.8700 H   0  0  0  0  0  0  0  0  0  0  0  0
   36.5010   32.5700   38.0520 H   0  0  0  0  0  0  0  0  0  0  0  0
   35.7840   30.8450   39.6970 H   0  0  0  0  0  0  0  0  0  0  0  0
   36.7920   30.1280   36.9870 C   0  0  0  0  0  0  0  0  0  0  0  0
   35.8980   29.0500   37.0710 C   0  0  0  0  0  0  0  0  0  0  0  0
   35.2170   28.6600   35.9180 C   0  0  0  0  0  0  0  0  0  0  0  0
   35.4580   29.3450   34.7740 N   0  0  0  0  0  0  0  0  0  0  0  0
   36.3140   30.3660   34.7270 C   0  0  0  0  0  0  0  0  0  0  0  0
   36.9610   30.7320   35.8410 N   0  0  0  0  0  0  0  0  0  0  0  0
   35.7230   28.5150   38.0080 H   0  0  0  0  0  0  0  0  0  0  0  0
   34.5090   27.8290   35.9180 H   0  0  0  0  0  0  0  0  0  0  0  0
   36.4400   31.0000   33.3690 C   0  0  0  0  0  0  0  0  0  0  0  0
   37.3980   32.0010   33.3670 F   0  0  0  0  0  0  0  0  0  0  0  0
   35.2250   31.6430   33.0530 F   0  0  0  0  0  0  0  0  0  0  0  0
   36.6290   30.0340   32.4190 F   0  0  0  0  0  0  0  0  0  0  0  0
   37.4250   28.5680   43.7580 C   0  0  0  0  0  0  0  0  0  0  0  0
   36.5060   28.9320   44.2310 H   0  0  0  0  0  0  0  0  0  0  0  0
   38.1590   28.4470   44.6050 H   0  0  0  0  0  0  0  0  0  0  0  0
   37.2600   27.1850   43.1790 C   0  0  0  0  0  0  0  0  0  0  0  0
   36.7050   27.3050   42.1970 H   0  0  0  0  0  0  0  0  0  0  0  0
   36.5850   26.5970   43.8160 H   0  0  0  0  0  0  0  0  0  0  0  0
   38.7080   25.8280   41.7120 C   0  0  0  0  0  0  0  0  0  0  0  0
   38.5110   26.4870   42.9020 C   0  0  0  0  0  0  0  0  0  0  0  0
   39.5380   26.4620   43.8410 C   0  0  0  0  0  0  0  0  0  0  0  0
   39.3580   26.9920   44.7740 H   0  0  0  0  0  0  0  0  0  0  0  0
   40.7650   25.8200   43.6770 C   0  0  0  0  0  0  0  0  0  0  0  0
   41.4840   25.8680   44.4700 H   0  0  0  0  0  0  0  0  0  0  0  0
   40.9440   25.1590   42.4660 C   0  0  0  0  0  3  0  0  0  0  0  0
   39.9300   25.1790   41.5310 C   0  0  0  0  0  3  0  0  0  0  0  0
   36.2890   25.6130   40.9510 H   0  0  0  0  0  0  0  0  0  0  0  0
   37.5640   25.7350   40.4040 S   0  0  0  0  0  0  0  0  0  0  0  0
   37.5290   27.0100   39.5970 O   0  0  0  0  0  0  0  0  0  0  0  0
   37.7320   24.5310   39.5320 O   0  0  0  0  0  0  0  0  0  0  0  0
  1  2  2  0  0  0  0
  1  6  1  0  0  0  0
  2  3  1  0  0  0  0
  3  8  1  0  0  0  0
  3  4  2  0  0  0  0
  5  4  1  0  0  0  0
  5 28  1  0  0  0  0
  6  5  2  0  0  0  0
  7  2  1  0  0  0  0
  9 12  1  1  0  0  0
  9 10  1  0  0  0  0
  9 11  1  0  0  0  0
 10 13  1  0  0  0  0
 10 11  1  0  0  0  0
 11 15  1  1  0  0  0
 11  1  1  0  0  0  0
 14 10  1  0  0  0  0
 16 17  1  0  0  0  0
 16  9  1  0  0  0  0
 17 22  1  0  0  0  0
 18 17  2  0  0  0  0
 19 18  1  0  0  0  0
 20 19  2  0  0  0  0
 20 21  1  0  0  0  0
 21 16  2  0  0  0  0
 23 18  1  0  0  0  0
 24 20  1  0  0  0  0
 25 24  1  0  0  0  0
 26 24  1  0  0  0  0
 27 24  1  0  0  0  0
 28 29  1  0  0  0  0
 28 30  1  0  0  0  0
 31 28  1  0  0  0  0
 31 33  1  0  0  0  0
 32 31  1  0  0  0  0
 34 35  1  0  0  0  0
 35 31  1  0  0  0  0
 35 36  2  0  0  0  0
 36 37  1  0  0  0  0
 38 36  1  0  0  0  0
 38 39  1  0  0  0  0
 40 38  2  0  0  0  0
 41 34  2  0  0  0  0
 41 40  1  0  0  0  0
 43 42  1  0  0  0  0
 43 34  1  0  0  0  0
 44 43  2  0  0  0  0
 45 43  2  0  0  0  0
M  END
>  <minimizedAffinity>
-6.338099

$$$$

 OpenBabel03252505443D

 45 48  0  0  1  0  0  0  0  0999 V2000
   37.6750   30.6010   40.6930 C   0  0  0  0  0  0  0  0  0  0  0  0
   38.8390   31.2930   40.9590 C   0  0  0  0  0  0  0  0  0  0  0  0
   39.6010   31.0480   42.0770 C   0  0  0  0  0  0  0  0  0  0  0  0
   39.1780   30.0940   42.9300 N   0  0  0  0  0  0  0  0  0  0  0  0
   38.0280   29.4050   42.6750 C   0  0  0  0  0  0  0  0  0  0  0  0
   37.2870   29.6500   41.5770 N   0  0  0  0  0  0  0  0  0  0  0  0
   39.1360   32.0490   40.2440 H   0  0  0  0  0  0  0  0  0  0  0  0
   40.5020   31.6280   42.2230 H   0  0  0  0  0  0  0  0  0  0  0  0
   37.4960   30.5730   38.2250 C   0  0  1  0  0  0  0  0  0  0  0  0
   37.3350   32.0860   38.6050 C   0  0  0  0  0  0  0  0  0  0  0  0
   36.8530   30.9180   39.4590 C   0  0  2  0  0  0  0  0  0  0  0  0
   38.5770   30.2390   38.2100 H   0  0  0  0  0  0  0  0  0  0  0  0
   38.2720   32.5930   38.8720 H   0  0  0  0  0  0  0  0  0  0  0  0
   36.5750   32.6480   38.0550 H   0  0  0  0  0  0  0  0  0  0  0  0
   35.7950   30.9530   39.7020 H   0  0  0  0  0  0  0  0  0  0  0  0
   36.7730   30.1950   36.9930 C   0  0  0  0  0  0  0  0  0  0  0  0
   35.8320   29.1580   37.0820 C   0  0  0  0  0  0  0  0  0  0  0  0
   35.1370   28.7920   35.9300 C   0  0  0  0  0  0  0  0  0  0  0  0
   35.4090   29.4590   34.7830 N   0  0  0  0  0  0  0  0  0  0  0  0
   36.3100   30.4400   34.7310 C   0  0  0  0  0  0  0  0  0  0  0  0
   36.9720   30.7840   35.8440 N   0  0  0  0  0  0  0  0  0  0  0  0
   35.6320   28.6370   38.0210 H   0  0  0  0  0  0  0  0  0  0  0  0
   34.3920   27.9940   35.9330 H   0  0  0  0  0  0  0  0  0  0  0  0
   36.4660   31.0600   33.3700 C   0  0  0  0  0  0  0  0  0  0  0  0
   37.4310   32.0550   33.3770 F   0  0  0  0  0  0  0  0  0  0  0  0
   35.2620   31.7070   33.0240 F   0  0  0  0  0  0  0  0  0  0  0  0
   36.6680   30.0840   32.4330 F   0  0  0  0  0  0  0  0  0  0  0  0
   37.5140   28.3530   43.5890 C   0  0  0  0  0  0  0  0  0  0  0  0
   36.5070   28.0020   43.3400 H   0  0  0  0  0  0  0  0  0  0  0  0
   37.4240   28.7790   44.6290 H   0  0  0  0  0  0  0  0  0  0  0  0
   38.5010   27.2200   43.7110 C   0  0  0  0  0  0  0  0  0  0  0  0
   38.3400   26.7540   44.7330 H   0  0  0  0  0  0  0  0  0  0  0  0
   39.5230   27.6220   43.7400 H   0  0  0  0  0  0  0  0  0  0  0  0
   39.4140   25.7430   41.9560 C   0  0  0  0  0  0  0  0  0  0  0  0
   38.3470   26.1660   42.7120 C   0  0  0  0  0  0  0  0  0  0  0  0
   37.1110   25.5680   42.4920 C   0  0  0  0  0  0  0  0  0  0  0  0
   36.2820   25.9190   43.1040 H   0  0  0  0  0  0  0  0  0  0  0  0
   36.8560   24.5610   41.5610 C   0  0  0  0  0  0  0  0  0  0  0  0
   35.8620   24.1720   41.4780 H   0  0  0  0  0  0  0  0  0  0  0  0
   37.9500   24.1460   40.8050 C   0  0  0  0  0  3  0  0  0  0  0  0
   39.1780   24.7370   41.0180 C   0  0  0  0  0  3  0  0  0  0  0  0
   41.3470   26.5210   43.4170 H   0  0  0  0  0  0  0  0  0  0  0  0
   41.0410   26.3510   42.0690 S   0  0  0  0  0  0  0  0  0  0  0  0
   42.0500   25.3520   41.5570 O   0  0  0  0  0  0  0  0  0  0  0  0
   41.2320   27.6990   41.4520 O   0  0  0  0  0  0  0  0  0  0  0  0
  1  2  2  0  0  0  0
  1  6  1  0  0  0  0
  2  3  1  0  0  0  0
  3  8  1  0  0  0  0
  3  4  2  0  0  0  0
  5  4  1  0  0  0  0
  5 28  1  0  0  0  0
  6  5  2  0  0  0  0
  7  2  1  0  0  0  0
  9 12  1  1  0  0  0
  9 10  1  0  0  0  0
  9 11  1  0  0  0  0
 10 13  1  0  0  0  0
 10 11  1  0  0  0  0
 11 15  1  1  0  0  0
 11  1  1  0  0  0  0
 14 10  1  0  0  0  0
 16 17  1  0  0  0  0
 16  9  1  0  0  0  0
 17 22  1  0  0  0  0
 18 23  1  0  0  0  0
 18 17  2  0  0  0  0
 19 18  1  0  0  0  0
 20 19  2  0  0  0  0
 20 21  1  0  0  0  0
 21 16  2  0  0  0  0
 24 25  1  0  0  0  0
 24 20  1  0  0  0  0
 26 24  1  0  0  0  0
 27 24  1  0  0  0  0
 28 31  1  0  0  0  0
 28 30  1  0  0  0  0
 29 28  1  0  0  0  0
 31 33  1  0  0  0  0
 31 32  1  0  0  0  0
 34 43  1  0  0  0  0
 34 35  1  0  0  0  0
 35 31  1  0  0  0  0
 36 35  2  0  0  0  0
 36 37  1  0  0  0  0
 38 36  1  0  0  0  0
 39 38  1  0  0  0  0
 40 41  1  0  0  0  0
 40 38  2  0  0  0  0
 41 34  2  0  0  0  0
 43 42  1  0  0  0  0
 44 43  2  0  0  0  0
 45 43  2  0  0  0  0
M  END
>  <minimizedAffinity>
-6.27872562

$$$$

 OpenBabel03252505443D

 45 48  0  0  1  0  0  0  0  0999 V2000
   37.3380   29.8040   39.1080 C   0  0  0  0  0  0  0  0  0  0  0  0
   36.0230   29.5280   38.7950 C   0  0  0  0  0  0  0  0  0  0  0  0
   35.1290   29.0540   39.7260 C   0  0  0  0  0  0  0  0  0  0  0  0
   35.5740   28.8590   40.9830 N   0  0  0  0  0  0  0  0  0  0  0  0
   36.8740   29.1290   41.3010 C   0  0  0  0  0  0  0  0  0  0  0  0
   37.7430   29.5940   40.3840 N   0  0  0  0  0  0  0  0  0  0  0  0
   35.7150   29.7020   37.7720 H   0  0  0  0  0  0  0  0  0  0  0  0
   34.1140   28.8580   39.4120 H   0  0  0  0  0  0  0  0  0  0  0  0
   39.0590   31.4530   38.4420 C   0  0  1  0  0  0  0  0  0  0  0  0
   37.9280   31.6210   37.3680 C   0  0  0  0  0  0  0  0  0  0  0  0
   38.2970   30.3060   38.0450 C   0  0  2  0  0  0  0  0  0  0  0  0
   38.8280   31.9960   39.4080 H   0  0  0  0  0  0  0  0  0  0  0  0
   37.0450   32.1740   37.7160 H   0  0  0  0  0  0  0  0  0  0  0  0
   38.2570   31.7580   36.3330 H   0  0  0  0  0  0  0  0  0  0  0  0
   38.5550   29.5080   37.3550 H   0  0  0  0  0  0  0  0  0  0  0  0
   40.4090   31.7660   37.9310 C   0  0  0  0  0  0  0  0  0  0  0  0
   40.8720   33.0830   38.0730 C   0  0  0  0  0  0  0  0  0  0  0  0
   42.1460   33.3950   37.6010 C   0  0  0  0  0  0  0  0  0  0  0  0
   42.8720   32.4050   37.0280 N   0  0  0  0  0  0  0  0  0  0  0  0
   42.4040   31.1630   36.9070 C   0  0  0  0  0  0  0  0  0  0  0  0
   41.1780   30.8750   37.3640 N   0  0  0  0  0  0  0  0  0  0  0  0
   40.2640   33.8620   38.5410 H   0  0  0  0  0  0  0  0  0  0  0  0
   42.5630   34.4010   37.6820 H   0  0  0  0  0  0  0  0  0  0  0  0
   43.3600   30.2070   36.2470 C   0  0  0  0  0  0  0  0  0  0  0  0
   44.2830   30.8790   35.4620 F   0  0  0  0  0  0  0  0  0  0  0  0
   42.6390   29.3840   35.3570 F   0  0  0  0  0  0  0  0  0  0  0  0
   43.9120   29.3780   37.1840 F   0  0  0  0  0  0  0  0  0  0  0  0
   37.4150   28.9200   42.6690 C   0  0  0  0  0  0  0  0  0  0  0  0
   37.0810   29.6680   43.3970 H   0  0  0  0  0  0  0  0  0  0  0  0
   38.5380   29.0230   42.6410 H   0  0  0  0  0  0  0  0  0  0  0  0
   37.1600   27.5110   43.1380 C   0  0  0  0  0  0  0  0  0  0  0  0
   36.3530   27.0830   42.4650 H   0  0  0  0  0  0  0  0  0  0  0  0
   36.7100   27.5310   44.1410 H   0  0  0  0  0  0  0  0  0  0  0  0
   38.3170   25.5220   42.2460 C   0  0  0  0  0  0  0  0  0  0  0  0
   38.3170   26.6240   43.0660 C   0  0  0  0  0  0  0  0  0  0  0  0
   39.4510   26.8680   43.8350 C   0  0  0  0  0  0  0  0  0  0  0  0
   39.4270   27.7470   44.4750 H   0  0  0  0  0  0  0  0  0  0  0  0
   40.6030   26.0820   43.8440 C   0  0  0  0  0  0  0  0  0  0  0  0
   41.4180   26.3670   44.4780 H   0  0  0  0  0  0  0  0  0  0  0  0
   40.5830   24.9700   43.0070 C   0  0  0  0  0  3  0  0  0  0  0  0
   39.4620   24.7230   42.2430 C   0  0  0  0  0  3  0  0  0  0  0  0
   35.8120   25.2830   41.8640 H   0  0  0  0  0  0  0  0  0  0  0  0
   37.0120   25.0350   41.2020 S   0  0  0  0  0  0  0  0  0  0  0  0
   36.9540   25.8720   39.9480 O   0  0  0  0  0  0  0  0  0  0  0  0
   36.9930   23.5710   40.8940 O   0  0  0  0  0  0  0  0  0  0  0  0
  1  6  1  0  0  0  0
  2  1  2  0  0  0  0
  2  3  1  0  0  0  0
  3  4  2  0  0  0  0
  4  5  1  0  0  0  0
  5 28  1  0  0  0  0
  6  5  2  0  0  0  0
  7  2  1  0  0  0  0
  8  3  1  0  0  0  0
  9 12  1  1  0  0  0
 10 13  1  0  0  0  0
 10 11  1  0  0  0  0
 10  9  1  0  0  0  0
 11 15  1  6  0  0  0
 11  9  1  0  0  0  0
 11  1  1  0  0  0  0
 14 10  1  0  0  0  0
 16 17  1  0  0  0  0
 16  9  1  0  0  0  0
 17 22  1  0  0  0  0
 18 23  1  0  0  0  0
 18 17  2  0  0  0  0
 19 18  1  0  0  0  0
 20 19  2  0  0  0  0
 20 21  1  0  0  0  0
 21 16  2  0  0  0  0
 24 20  1  0  0  0  0
 24 27  1  0  0  0  0
 25 24  1  0  0  0  0
 26 24  1  0  0  0  0
 28 31  1  0  0  0  0
 28 29  1  0  0  0  0
 30 28  1  0  0  0  0
 31 33  1  0  0  0  0
 32 31  1  0  0  0  0
 34 35  1  0  0  0  0
 35 31  1  0  0  0  0
 35 36  2  0  0  0  0
 36 38  1  0  0  0  0
 36 37  1  0  0  0  0
 38 39  1  0  0  0  0
 40 38  2  0  0  0  0
 41 34  2  0  0  0  0
 41 40  1  0  0  0  0
 43 42  1  0  0  0  0
 43 34  1  0  0  0  0
 44 43  2  0  0  0  0
 45 43  2  0  0  0  0
M  END
>  <minimizedAffinity>
-6.22472525

$$$$

 OpenBabel03252505443D

 45 48  0  0  1  0  0  0  0  0999 V2000
   35.8010   26.6010   38.5060 C   0  0  0  0  0  0  0  0  0  0  0  0
   35.1150   25.8780   37.5520 C   0  0  0  0  0  0  0  0  0  0  0  0
   35.0310   24.5060   37.5880 C   0  0  0  0  0  0  0  0  0  0  0  0
   35.6480   23.8640   38.5990 N   0  0  0  0  0  0  0  0  0  0  0  0
   36.3300   24.5710   39.5470 C   0  0  0  0  0  0  0  0  0  0  0  0
   36.4060   25.9150   39.5060 N   0  0  0  0  0  0  0  0  0  0  0  0
   34.6360   26.4400   36.7600 H   0  0  0  0  0  0  0  0  0  0  0  0
   34.4770   24.0030   36.8070 H   0  0  0  0  0  0  0  0  0  0  0  0
   36.7860   28.7030   39.3640 C   0  0  1  0  0  0  0  0  0  0  0  0
   35.2410   28.8960   39.5550 C   0  0  0  0  0  0  0  0  0  0  0  0
   35.8860   28.1120   38.4170 C   0  0  2  0  0  0  0  0  0  0  0  0
   37.2530   28.0790   40.1840 H   0  0  0  0  0  0  0  0  0  0  0  0
   34.8140   28.3490   40.4060 H   0  0  0  0  0  0  0  0  0  0  0  0
   34.8410   29.8850   39.3140 H   0  0  0  0  0  0  0  0  0  0  0  0
   35.6020   28.4540   37.4250 H   0  0  0  0  0  0  0  0  0  0  0  0
   37.5140   29.9680   39.1350 C   0  0  0  0  0  0  0  0  0  0  0  0
   37.6080   30.4370   37.8160 C   0  0  0  0  0  0  0  0  0  0  0  0
   38.2860   31.6320   37.5830 C   0  0  0  0  0  0  0  0  0  0  0  0
   38.8210   32.2790   38.6470 N   0  0  0  0  0  0  0  0  0  0  0  0
   38.7150   31.8060   39.8890 C   0  0  0  0  0  0  0  0  0  0  0  0
   38.0610   30.6570   40.1010 N   0  0  0  0  0  0  0  0  0  0  0  0
   37.1650   29.8950   36.9770 H   0  0  0  0  0  0  0  0  0  0  0  0
   38.3940   32.0510   36.5810 H   0  0  0  0  0  0  0  0  0  0  0  0
   39.3710   32.6680   40.9330 C   0  0  0  0  0  0  0  0  0  0  0  0
   38.6710   33.8480   41.1250 F   0  0  0  0  0  0  0  0  0  0  0  0
   40.6440   33.0580   40.4660 F   0  0  0  0  0  0  0  0  0  0  0  0
   39.5800   31.9420   42.0730 F   0  0  0  0  0  0  0  0  0  0  0  0
   37.0350   23.9100   40.6740 C   0  0  0  0  0  0  0  0  0  0  0  0
   38.0780   23.6540   40.4570 H   0  0  0  0  0  0  0  0  0  0  0  0
   36.5350   22.9240   40.8960 H   0  0  0  0  0  0  0  0  0  0  0  0
   36.8960   24.7160   41.9410 C   0  0  0  0  0  0  0  0  0  0  0  0
   36.4360   24.0280   42.7170 H   0  0  0  0  0  0  0  0  0  0  0  0
   36.1530   25.5120   41.7920 H   0  0  0  0  0  0  0  0  0  0  0  0
   38.2500   26.5030   42.9720 C   0  0  0  0  0  0  0  0  0  0  0  0
   38.1530   25.2230   42.4840 C   0  0  0  0  0  0  0  0  0  0  0  0
   39.2910   24.4230   42.5110 C   0  0  0  0  0  0  0  0  0  0  0  0
   39.1880   23.4130   42.1190 H   0  0  0  0  0  0  0  0  0  0  0  0
   40.5380   24.8120   43.0000 C   0  0  0  0  0  0  0  0  0  0  0  0
   41.3470   24.1100   42.9720 H   0  0  0  0  0  0  0  0  0  0  0  0
   40.6160   26.1120   43.4910 C   0  0  0  0  0  3  0  0  0  0  0  0
   39.4910   26.9100   43.4650 C   0  0  0  0  0  3  0  0  0  0  0  0
   36.1660   27.4960   41.9020 H   0  0  0  0  0  0  0  0  0  0  0  0
   36.9560   27.6650   43.0370 S   0  0  0  0  0  0  0  0  0  0  0  0
   36.0330   27.4140   44.2040 O   0  0  0  0  0  0  0  0  0  0  0  0
   37.4130   29.0880   42.9860 O   0  0  0  0  0  0  0  0  0  0  0  0
  1  6  1  0  0  0  0
  2  3  1  0  0  0  0
  2  1  2  0  0  0  0
  3  4  2  0  0  0  0
  4  5  1  0  0  0  0
  5 28  1  0  0  0  0
  6  5  2  0  0  0  0
  7  2  1  0  0  0  0
  8  3  1  0  0  0  0
  9 10  1  0  0  0  0
  9 12  1  1  0  0  0
 10 13  1  0  0  0  0
 11 15  1  6  0  0  0
 11  1  1  0  0  0  0
 11  9  1  0  0  0  0
 11 10  1  0  0  0  0
 14 10  1  0  0  0  0
 16  9  1  0  0  0  0
 16 21  1  0  0  0  0
 17 16  2  0  0  0  0
 18 17  1  0  0  0  0
 18 19  2  0  0  0  0
 19 20  1  0  0  0  0
 20 21  2  0  0  0  0
 20 24  1  0  0  0  0
 22 17  1  0  0  0  0
 23 18  1  0  0  0  0
 24 25  1  0  0  0  0
 24 27  1  0  0  0  0
 26 24  1  0  0  0  0
 28 30  1  0  0  0  0
 28 31  1  0  0  0  0
 29 28  1  0  0  0  0
 31 35  1  0  0  0  0
 31 32  1  0  0  0  0
 33 31  1  0  0  0  0
 34 43  1  0  0  0  0
 34 41  1  0  0  0  0
 35 36  1  0  0  0  0
 35 34  2  0  0  0  0
 36 38  2  0  0  0  0
 37 36  1  0  0  0  0
 38 40  1  0  0  0  0
 39 38  1  0  0  0  0
 41 40  2  0  0  0  0
 42 43  1  0  0  0  0
 43 44  2  0  0  0  0
 45 43  2  0  0  0  0
M  END
>  <minimizedAffinity>
-6.16685772

$$$$

 OpenBabel03252505443D

 45 48  0  0  1  0  0  0  0  0999 V2000
   37.4980   29.1740   39.2020 C   0  0  0  0  0  0  0  0  0  0  0  0
   37.1000   28.1690   38.3440 C   0  0  0  0  0  0  0  0  0  0  0  0
   36.6050   26.9690   38.7970 C   0  0  0  0  0  0  0  0  0  0  0  0
   36.5140   26.7890   40.1290 N   0  0  0  0  0  0  0  0  0  0  0  0
   36.9060   27.7770   40.9850 C   0  0  0  0  0  0  0  0  0  0  0  0
   37.3880   28.9510   40.5340 N   0  0  0  0  0  0  0  0  0  0  0  0
   37.1930   28.3630   37.2830 H   0  0  0  0  0  0  0  0  0  0  0  0
   36.3130   26.2250   38.0690 H   0  0  0  0  0  0  0  0  0  0  0  0
   37.8040   31.6120   39.4950 C   0  0  1  0  0  0  0  0  0  0  0  0
   37.0430   31.4810   38.1290 C   0  0  0  0  0  0  0  0  0  0  0  0
   38.0580   30.4750   38.6600 C   0  0  2  0  0  0  0  0  0  0  0  0
   37.1140   31.5310   40.3880 H   0  0  0  0  0  0  0  0  0  0  0  0
   35.9710   31.2600   38.2220 H   0  0  0  0  0  0  0  0  0  0  0  0
   37.3730   32.1430   37.3230 H   0  0  0  0  0  0  0  0  0  0  0  0
   38.8880   30.2830   37.9860 H   0  0  0  0  0  0  0  0  0  0  0  0
   38.6830   32.7980   39.5690 C   0  0  0  0  0  0  0  0  0  0  0  0
   38.1510   33.9700   40.1260 C   0  0  0  0  0  0  0  0  0  0  0  0
   38.9680   35.0970   40.2090 C   0  0  0  0  0  0  0  0  0  0  0  0
   40.2370   34.9980   39.7440 N   0  0  0  0  0  0  0  0  0  0  0  0
   40.7130   33.8690   39.2190 C   0  0  0  0  0  0  0  0  0  0  0  0
   39.9190   32.7930   39.1450 N   0  0  0  0  0  0  0  0  0  0  0  0
   37.1230   34.0210   40.4940 H   0  0  0  0  0  0  0  0  0  0  0  0
   38.6140   36.0390   40.6320 H   0  0  0  0  0  0  0  0  0  0  0  0
   42.1440   33.9580   38.7640 C   0  0  0  0  0  0  0  0  0  0  0  0
   42.6520   32.7070   38.4520 F   0  0  0  0  0  0  0  0  0  0  0  0
   42.9330   34.4270   39.8350 F   0  0  0  0  0  0  0  0  0  0  0  0
   42.2580   34.8810   37.7620 F   0  0  0  0  0  0  0  0  0  0  0  0
   36.8350   27.6230   42.4600 C   0  0  0  0  0  0  0  0  0  0  0  0
   36.9020   26.5840   42.8020 H   0  0  0  0  0  0  0  0  0  0  0  0
   35.8280   27.9820   42.8210 H   0  0  0  0  0  0  0  0  0  0  0  0
   37.8400   28.5160   43.1420 C   0  0  0  0  0  0  0  0  0  0  0  0
   37.4540   28.6980   44.1940 H   0  0  0  0  0  0  0  0  0  0  0  0
   37.8380   29.5060   42.6650 H   0  0  0  0  0  0  0  0  0  0  0  0
   40.2780   28.6360   42.7820 C   0  0  0  0  0  0  0  0  0  0  0  0
   39.1820   27.9530   43.2510 C   0  0  0  0  0  0  0  0  0  0  0  0
   39.3860   26.7020   43.8250 C   0  0  0  0  0  0  0  0  0  0  0  0
   38.5030   26.1820   44.1890 H   0  0  0  0  0  0  0  0  0  0  0  0
   40.6230   26.0730   43.9700 C   0  0  0  0  0  0  0  0  0  0  0  0
   40.6610   25.1060   44.4290 H   0  0  0  0  0  0  0  0  0  0  0  0
   41.7210   26.7820   43.4890 C   0  0  0  0  0  3  0  0  0  0  0  0
   41.5250   28.0220   42.9180 C   0  0  0  0  0  3  0  0  0  0  0  0
   39.2400   30.2150   41.0780 H   0  0  0  0  0  0  0  0  0  0  0  0
   40.2510   30.2080   42.0360 S   0  0  0  0  0  0  0  0  0  0  0  0
   39.8730   31.2890   43.0180 O   0  0  0  0  0  0  0  0  0  0  0  0
   41.5000   30.5490   41.2880 O   0  0  0  0  0  0  0  0  0  0  0  0
  1  6  1  0  0  0  0
  2  3  1  0  0  0  0
  2  1  2  0  0  0  0
  3  4  2  0  0  0  0
  4  5  1  0  0  0  0
  5 28  1  0  0  0  0
  6  5  2  0  0  0  0
  7  2  1  0  0  0  0
  8  3  1  0  0  0  0
  9 16  1  0  0  0  0
  9 12  1  1  0  0  0
 10 13  1  0  0  0  0
 10 11  1  0  0  0  0
 10  9  1  0  0  0  0
 11 15  1  6  0  0  0
 11  1  1  0  0  0  0
 11  9  1  0  0  0  0
 14 10  1  0  0  0  0
 16 17  1  0  0  0  0
 17 18  2  0  0  0  0
 17 22  1  0  0  0  0
 18 23  1  0  0  0  0
 19 18  1  0  0  0  0
 20 19  2  0  0  0  0
 21 20  1  0  0  0  0
 21 16  2  0  0  0  0
 24 20  1  0  0  0  0
 24 26  1  0  0  0  0
 25 24  1  0  0  0  0
 27 24  1  0  0  0  0
 28 29  1  0  0  0  0
 28 30  1  0  0  0  0
 28 31  1  0  0  0  0
 31 35  1  0  0  0  0
 31 32  1  0  0  0  0
 33 31  1  0  0  0  0
 34 41  2  0  0  0  0
 34 35  1  0  0  0  0
 35 36  2  0  0  0  0
 36 38  1  0  0  0  0
 36 37  1  0  0  0  0
 38 39  1  0  0  0  0
 40 38  2  0  0  0  0
 41 40  1  0  0  0  0
 42 43  1  0  0  0  0
 43 34  1  0  0  0  0
 43 44  2  0  0  0  0
 45 43  2  0  0  0  0
M  END
>  <minimizedAffinity>
-6.14941359

$$$$

 OpenBabel03252505443D

 45 48  0  0  1  0  0  0  0  0999 V2000
   36.2300   27.9410   39.3520 C   0  0  0  0  0  0  0  0  0  0  0  0
   37.1520   27.2930   38.5570 C   0  0  0  0  0  0  0  0  0  0  0  0
   38.0260   26.3560   39.0570 C   0  0  0  0  0  0  0  0  0  0  0  0
   37.9610   26.0760   40.3730 N   0  0  0  0  0  0  0  0  0  0  0  0
   37.0530   26.7130   41.1680 C   0  0  0  0  0  0  0  0  0  0  0  0
   36.2000   27.6290   40.6700 N   0  0  0  0  0  0  0  0  0  0  0  0
   37.1640   27.5530   37.5060 H   0  0  0  0  0  0  0  0  0  0  0  0
   38.7230   25.8870   38.3760 H   0  0  0  0  0  0  0  0  0  0  0  0
   34.7660   28.6320   37.4810 C   0  0  1  0  0  0  0  0  0  0  0  0
   35.8340   29.7760   37.5750 C   0  0  0  0  0  0  0  0  0  0  0  0
   35.3000   28.9840   38.7630 C   0  0  2  0  0  0  0  0  0  0  0  0
   35.1470   27.7230   36.9250 H   0  0  0  0  0  0  0  0  0  0  0  0
   36.8180   29.5180   37.1590 H   0  0  0  0  0  0  0  0  0  0  0  0
   35.4650   30.7980   37.4510 H   0  0  0  0  0  0  0  0  0  0  0  0
   34.8680   29.5980   39.5480 H   0  0  0  0  0  0  0  0  0  0  0  0
   33.4550   29.0900   36.9760 C   0  0  0  0  0  0  0  0  0  0  0  0
   33.2580   29.1020   35.5870 C   0  0  0  0  0  0  0  0  0  0  0  0
   32.0250   29.5260   35.0940 C   0  0  0  0  0  0  0  0  0  0  0  0
   31.0790   29.9060   35.9870 N   0  0  0  0  0  0  0  0  0  0  0  0
   31.2970   29.8830   37.3020 C   0  0  0  0  0  0  0  0  0  0  0  0
   32.4860   29.4740   37.7640 N   0  0  0  0  0  0  0  0  0  0  0  0
   34.0400   28.7890   34.8900 H   0  0  0  0  0  0  0  0  0  0  0  0
   31.8100   29.5580   34.0240 H   0  0  0  0  0  0  0  0  0  0  0  0
   30.1240   30.3380   38.1270 C   0  0  0  0  0  0  0  0  0  0  0  0
   30.0960   31.7180   38.2460 F   0  0  0  0  0  0  0  0  0  0  0  0
   30.2770   29.8500   39.4410 F   0  0  0  0  0  0  0  0  0  0  0  0
   28.9700   29.7890   37.6390 F   0  0  0  0  0  0  0  0  0  0  0  0
   36.9490   26.4470   42.6250 C   0  0  0  0  0  0  0  0  0  0  0  0
   37.3400   25.4680   42.9270 H   0  0  0  0  0  0  0  0  0  0  0  0
   35.8610   26.4280   42.9210 H   0  0  0  0  0  0  0  0  0  0  0  0
   37.5560   27.5750   43.4210 C   0  0  0  0  0  0  0  0  0  0  0  0
   37.2020   27.4470   44.4910 H   0  0  0  0  0  0  0  0  0  0  0  0
   37.1250   28.5310   43.0930 H   0  0  0  0  0  0  0  0  0  0  0  0
   39.7130   28.6440   42.8820 C   0  0  0  0  0  0  0  0  0  0  0  0
   39.0150   27.5970   43.4330 C   0  0  0  0  0  0  0  0  0  0  0  0
   39.7400   26.5520   43.9980 C   0  0  0  0  0  0  0  0  0  0  0  0
   39.1640   25.7360   44.4290 H   0  0  0  0  0  0  0  0  0  0  0  0
   41.1310   26.4740   44.0550 C   0  0  0  0  0  0  0  0  0  0  0  0
   41.5830   25.6190   44.5160 H   0  0  0  0  0  0  0  0  0  0  0  0
   41.8200   27.5440   43.4910 C   0  0  0  0  0  3  0  0  0  0  0  0
   41.1070   28.5830   42.9290 C   0  0  0  0  0  3  0  0  0  0  0  0
   37.7370   30.2320   42.6610 H   0  0  0  0  0  0  0  0  0  0  0  0
   39.0110   30.0480   42.1300 S   0  0  0  0  0  0  0  0  0  0  0  0
   39.7690   31.3070   42.4740 O   0  0  0  0  0  0  0  0  0  0  0  0
   38.8030   29.9100   40.6550 O   0  0  0  0  0  0  0  0  0  0  0  0
  1  6  1  0  0  0  0
  2  3  1  0  0  0  0
  2  1  2  0  0  0  0
  3  4  2  0  0  0  0
  4  5  1  0  0  0  0
  5 28  1  0  0  0  0
  6  5  2  0  0  0  0
  7  2  1  0  0  0  0
  8  3  1  0  0  0  0
  9 12  1  6  0  0  0
  9 10  1  0  0  0  0
  9 11  1  0  0  0  0
 10 11  1  0  0  0  0
 11  1  1  0  0  0  0
 11 15  1  1  0  0  0
 13 10  1  0  0  0  0
 14 10  1  0  0  0  0
 16  9  1  0  0  0  0
 16 21  1  0  0  0  0
 17 16  2  0  0  0  0
 18 17  1  0  0  0  0
 18 19  2  0  0  0  0
 19 20  1  0  0  0  0
 20 21  2  0  0  0  0
 20 24  1  0  0  0  0
 22 17  1  0  0  0  0
 23 18  1  0  0  0  0
 24 25  1  0  0  0  0
 24 26  1  0  0  0  0
 27 24  1  0  0  0  0
 28 30  1  0  0  0  0
 28 29  1  0  0  0  0
 28 31  1  0  0  0  0
 31 35  1  0  0  0  0
 31 32  1  0  0  0  0
 33 31  1  0  0  0  0
 34 41  2  0  0  0  0
 34 35  1  0  0  0  0
 35 36  2  0  0  0  0
 36 38  1  0  0  0  0
 36 37  1  0  0  0  0
 38 39  1  0  0  0  0
 40 38  2  0  0  0  0
 41 40  1  0  0  0  0
 43 44  2  0  0  0  0
 43 42  1  0  0  0  0
 43 34  1  0  0  0  0
 45 43  2  0  0  0  0
M  END
>  <minimizedAffinity>
-6.1488471

$$$$
