
 OpenBabel03252509243D

 30 32  0  0  1  0  0  0  0  0999 V2000
   46.2970   34.9450   42.0470 C   0  0  1  0  0  0  0  0  0  0  0  0
   47.8160   35.1790   41.8670 C   0  0  0  0  0  0  0  0  0  0  0  0
   47.0090   33.9720   41.3010 C   0  0  2  0  0  0  0  0  0  0  0  0
   45.6800   35.7480   41.6350 H   0  0  0  0  0  0  0  0  0  0  0  0
   48.0380   35.9910   41.1840 H   0  0  0  0  0  0  0  0  0  0  0  0
   48.4960   35.0020   42.6980 H   0  0  0  0  0  0  0  0  0  0  0  0
   47.2840   33.0150   41.8540 H   0  0  0  0  0  0  0  0  0  0  0  0
   44.7580   35.0510   45.4770 C   0  0  0  0  0  0  0  0  0  0  0  0
   45.0340   35.4220   44.1360 C   0  0  0  0  0  0  0  0  0  0  0  0
   46.0000   34.6500   43.5090 C   0  0  0  0  0  0  0  0  0  0  0  0
   46.6280   33.6090   44.1650 N   0  0  0  0  0  0  0  0  0  0  0  0
   46.3220   33.3100   45.4300 C   0  0  0  0  0  0  0  0  0  0  0  0
   45.3780   34.0360   46.0930 N   0  0  0  0  0  0  0  0  0  0  0  0
   44.0130   35.6250   46.0010 H   0  0  0  0  0  0  0  0  0  0  0  0
   46.9060   32.4730   45.7800 H   0  0  0  0  0  0  0  0  0  0  0  0
   44.4020   36.5200   43.4750 N   0  0  0  0  0  0  0  0  0  0  0  0
   45.0080   37.3440   43.6840 H   0  0  0  0  0  0  0  0  0  0  0  0
   43.5310   36.4190   42.9300 H   0  0  0  0  0  0  0  0  0  0  0  0
   46.1840   33.2580   38.9240 C   0  0  0  0  0  0  0  0  0  0  0  0
   47.0330   33.8100   39.8280 C   0  0  0  0  0  0  0  0  0  0  0  0
   48.1970   34.3950   39.3100 C   0  0  0  0  0  0  0  0  0  0  0  0
   49.0020   34.8900   39.8720 H   0  0  0  0  0  0  0  0  0  0  0  0
   48.4670   34.4110   37.9500 C   0  0  0  0  0  0  0  0  0  0  0  0
   49.3470   34.8480   37.5010 H   0  0  0  0  0  0  0  0  0  0  0  0
   47.5870   33.8450   37.0770 C   0  0  0  0  0  3  0  0  0  0  0  0
   46.4390   33.2660   37.5720 C   0  0  0  0  0  3  0  0  0  0  0  0
   45.0390   31.7180   40.6410 H   0  0  0  0  0  0  0  0  0  0  0  0
   44.7600   32.5110   39.5610 S   0  0  0  0  0  0  0  0  0  0  0  0
   44.1890   31.5500   38.5210 O   0  0  0  0  0  0  0  0  0  0  0  0
   43.7240   33.5050   39.9720 O   0  0  0  0  0  0  0  0  0  0  0  0
  1  4  1  6  0  0  0
  1 10  1  0  0  0  0
  2  1  1  0  0  0  0
  2  6  1  0  0  0  0
  3  7  1  1  0  0  0
  3  2  1  0  0  0  0
  3  1  1  0  0  0  0
  5  2  1  0  0  0  0
  8 14  1  0  0  0  0
  8 13  1  0  0  0  0
  9  8  2  0  0  0  0
 10  9  1  0  0  0  0
 10 11  2  0  0  0  0
 11 12  1  0  0  0  0
 12 15  1  0  0  0  0
 12 13  2  0  0  0  0
 16 17  1  0  0  0  0
 16  9  1  0  0  0  0
 18 16  1  0  0  0  0
 19 28  1  0  0  0  0
 19 20  1  0  0  0  0
 20  3  1  0  0  0  0
 21 20  2  0  0  0  0
 21 22  1  0  0  0  0
 23 21  1  0  0  0  0
 24 23  1  0  0  0  0
 25 26  1  0  0  0  0
 25 23  2  0  0  0  0
 26 19  2  0  0  0  0
 28 30  2  0  0  0  0
 28 27  1  0  0  0  0
 29 28  2  0  0  0  0
M  END
>  <minimizedAffinity>
-5.43527985

>  <minimizedRMSD>
0.709059417

$$$$
