
 OpenBabel03252506423D

 43 46  0  0  1  0  0  0  0  0999 V2000
   48.6300   33.2460   42.7080 N   0  0  1  0  0  0  0  0  0  0  0  0
   49.7800   34.0660   42.4840 C   0  0  0  0  0  0  0  0  0  0  0  0
   49.5100   35.5010   42.2190 C   0  0  0  0  0  0  0  0  0  0  0  0
   48.7160   35.6510   40.9580 C   0  0  0  0  0  0  0  0  0  0  0  0
   47.7880   34.5010   40.7870 C   0  0  0  0  0  0  0  0  0  0  0  0
   47.4680   33.8210   42.0540 C   0  0  2  0  0  0  0  0  0  0  0  0
   50.3470   33.6800   41.5900 H   0  0  0  0  0  0  0  0  0  0  0  0
   50.5030   34.0330   43.3500 H   0  0  0  0  0  0  0  0  0  0  0  0
   49.1770   36.1220   43.0430 H   0  0  0  0  0  0  0  0  0  0  0  0
   50.5340   35.9430   41.9600 H   0  0  0  0  0  0  0  0  0  0  0  0
   48.1660   36.6380   40.9500 H   0  0  0  0  0  0  0  0  0  0  0  0
   49.3890   35.6950   40.0740 H   0  0  0  0  0  0  0  0  0  0  0  0
   46.9250   34.8710   40.2580 H   0  0  0  0  0  0  0  0  0  0  0  0
   48.2510   33.7270   40.1120 H   0  0  0  0  0  0  0  0  0  0  0  0
   46.9540   32.8550   41.7200 H   0  0  0  0  0  0  0  0  0  0  0  0
   46.1980   33.7330   44.1570 C   0  0  0  0  0  0  0  0  0  0  0  0
   46.5030   34.4240   42.9700 C   0  0  0  0  0  0  0  0  0  0  0  0
   45.8590   35.6570   42.7820 C   0  0  0  0  0  0  0  0  0  0  0  0
   46.0790   36.2230   41.8870 H   0  0  0  0  0  0  0  0  0  0  0  0
   44.9780   36.2320   43.6390 C   0  0  0  0  0  0  0  0  0  0  0  0
   44.5170   37.1880   43.4300 H   0  0  0  0  0  0  0  0  0  0  0  0
   44.6670   35.5770   44.7990 C   0  0  0  0  0  0  0  0  0  0  0  0
   45.2820   34.3600   45.0180 C   0  0  0  0  0  0  0  0  0  0  0  0
   47.8850   31.7720   43.8150 H   0  0  0  0  0  0  0  0  0  0  0  0
   46.8400   32.2130   44.6270 S   0  0  0  0  0  0  0  0  0  0  0  0
   47.1260   32.0060   46.0600 O   0  0  0  0  0  0  0  0  0  0  0  0
   45.7880   31.1330   44.3410 O   0  0  0  0  0  0  0  0  0  0  0  0
   49.9400   31.0570   43.0370 C   0  0  1  0  0  0  0  0  0  0  0  0
   50.4080   31.7590   41.8610 C   0  0  0  0  0  0  0  0  0  0  0  0
   48.9750   31.9290   42.2440 C   0  0  2  0  0  0  0  0  0  0  0  0
   50.1010   31.4670   44.0660 H   0  0  0  0  0  0  0  0  0  0  0  0
   50.6270   31.1280   40.9550 H   0  0  0  0  0  0  0  0  0  0  0  0
   51.0970   32.6130   41.9120 H   0  0  0  0  0  0  0  0  0  0  0  0
   48.2130   31.4130   41.6360 H   0  0  0  0  0  0  0  0  0  0  0  0
   50.3140   28.7670   42.0410 C   0  0  0  0  0  0  0  0  0  0  0  0
   49.7040   29.5910   43.0270 C   0  0  0  0  0  0  0  0  0  0  0  0
   48.8910   28.9690   43.9560 C   0  0  0  0  0  0  0  0  0  0  0  0
   48.7370   27.6230   43.8600 N   0  0  0  0  0  0  0  0  0  0  0  0
   49.3280   26.8660   42.9170 C   0  0  0  0  0  0  0  0  0  0  0  0
   50.1340   27.4380   41.9840 N   0  0  0  0  0  0  0  0  0  0  0  0
   50.9420   29.3150   41.3390 H   0  0  0  0  0  0  0  0  0  0  0  0
   48.4000   29.5440   44.7290 H   0  0  0  0  0  0  0  0  0  0  0  0
   49.1670   25.7950   42.8900 H   0  0  0  0  0  0  0  0  0  0  0  0
  1  2  1  6  0  0  0
  2  8  1  0  0  0  0
  3  2  1  0  0  0  0
  3  9  1  0  0  0  0
  4  3  1  0  0  0  0
  5  4  1  0  0  0  0
  5  6  1  0  0  0  0
  6 15  1  6  0  0  0
  6  1  1  0  0  0  0
  6 17  1  0  0  0  0
  7  2  1  0  0  0  0
 10  3  1  0  0  0  0
 11  4  1  0  0  0  0
 12  4  1  0  0  0  0
 13  5  1  0  0  0  0
 14  5  1  0  0  0  0
 16 25  1  0  0  0  0
 16 23  1  0  0  0  0
 17 16  2  0  0  0  0
 18 17  1  0  0  0  0
 18 20  2  0  0  0  0
 19 18  1  0  0  0  0
 20 22  1  0  0  0  0
 21 20  1  0  0  0  0
 22 23  2  0  0  0  0
 24 25  1  0  0  0  0
 25 26  2  0  0  0  0
 27 25  2  0  0  0  0
 28 31  1  1  0  0  0
 29 33  1  0  0  0  0
 29 30  1  0  0  0  0
 29 28  1  0  0  0  0
 30 34  1  6  0  0  0
 30  1  1  0  0  0  0
 30 28  1  0  0  0  0
 32 29  1  0  0  0  0
 35 36  1  0  0  0  0
 36 28  1  0  0  0  0
 36 37  2  0  0  0  0
 37 42  1  0  0  0  0
 38 37  1  0  0  0  0
 39 38  2  0  0  0  0
 40 35  2  0  0  0  0
 40 39  1  0  0  0  0
 41 35  1  0  0  0  0
 43 39  1  0  0  0  0
M  END
>  <minimizedAffinity>
-5.33719444

>  <minimizedRMSD>
6.648736

$$$$
