
 OpenBabel03242513003D

 38 41  0  0  0  0  0  0  0  0999 V2000
   40.3240   30.9620   38.9680 F   0  0  0  0  0  0  0  0  0  0  0  0
   39.4940   31.9790   39.3440 C   0  0  0  0  0  0  0  0  0  0  0  0
   39.9500   33.2680   39.4470 C   0  0  0  0  0  0  0  0  0  0  0  0
   39.0510   34.2230   39.8300 C   0  0  0  0  0  0  0  0  0  0  0  0
   37.7230   33.9620   40.1150 C   0  0  0  0  0  0  0  0  0  0  0  0
   37.3270   32.6610   39.9960 C   0  0  0  0  0  0  0  0  0  0  0  0
   38.1870   31.6620   39.6160 C   0  0  0  0  0  0  0  0  0  0  0  0
   39.4330   35.2410   39.9050 H   0  0  0  0  0  0  0  0  0  0  0  0
   37.0460   34.7560   40.4160 H   0  0  0  0  0  0  0  0  0  0  0  0
   36.3030   32.3850   40.2040 H   0  0  0  0  0  0  0  0  0  0  0  0
   43.6940   33.7910   39.7490 C   0  0  0  0  0  0  0  0  0  0  0  0
   42.3620   33.5350   40.0920 C   0  0  0  0  0  0  0  0  0  0  0  0
   41.3570   33.5290   39.1410 C   0  0  0  0  0  0  0  0  0  0  0  0
   41.7670   33.7880   37.8560 N   0  0  0  0  0  0  0  0  0  0  0  0
   43.0540   34.0310   37.5450 C   0  0  0  0  0  0  0  0  0  0  0  0
   44.0090   34.0340   38.4750 N   0  0  0  0  0  0  0  0  0  0  0  0
   44.4500   33.7870   40.5240 H   0  0  0  0  0  0  0  0  0  0  0  0
   42.0530   33.3320   41.1170 H   0  0  0  0  0  0  0  0  0  0  0  0
   43.1840   34.2140   36.4800 H   0  0  0  0  0  0  0  0  0  0  0  0
   37.7390   30.2750   39.4950 C   0  0  0  0  0  0  0  0  0  0  0  0
   37.1180   29.6990   38.3980 C   0  0  0  0  0  0  0  0  0  0  0  0
   36.8620   28.3590   38.7080 C   0  0  0  0  0  0  0  0  0  0  0  0
   37.3250   28.1840   39.9480 N   0  0  0  0  0  0  0  0  0  0  0  0
   37.8490   29.3060   40.4330 N   0  0  0  0  0  0  0  0  0  0  0  0
   36.9130   30.2790   37.5030 H   0  0  0  0  0  0  0  0  0  0  0  0
   36.3840   27.7340   37.9890 H   0  0  0  0  0  0  0  0  0  0  0  0
   37.4910   26.5570   41.8620 C   0  0  0  0  0  0  0  0  0  0  0  0
   37.2040   26.8970   40.5460 C   0  0  0  0  0  0  0  0  0  0  0  0
   36.7450   25.8970   39.6940 C   0  0  0  0  0  0  0  0  0  0  0  0
   36.4970   26.0890   38.6380 H   0  0  0  0  0  0  0  0  0  0  0  0
   36.5720   24.5830   40.1240 C   0  0  0  0  0  0  0  0  0  0  0  0
   36.2080   23.8120   39.4290 H   0  0  0  0  0  0  0  0  0  0  0  0
   36.8670   24.2650   41.4510 C   0  0  0  0  0  3  0  0  0  0  0  0
   37.3190   25.2570   42.2910 C   0  0  0  0  0  3  0  0  0  0  0  0
   38.2450   29.0180   42.1450 H   0  0  0  0  0  0  0  0  0  0  0  0
   38.0600   27.8600   42.8770 S   0  0  0  0  0  0  0  0  0  0  0  0
   39.3020   27.4700   43.6320 O   0  0  0  0  0  0  0  0  0  0  0  0
   36.9540   28.1500   43.8660 O   0  0  0  0  0  0  0  0  0  0  0  0
  1  2  1  0  0  0  0
  2  3  2  0  0  0  0
  2  7  1  0  0  0  0
  3  4  1  0  0  0  0
  4  8  1  0  0  0  0
  4  5  2  0  0  0  0
  5  9  1  0  0  0  0
  6  5  1  0  0  0  0
  6 10  1  0  0  0  0
  7  6  2  0  0  0  0
 11 12  1  0  0  0  0
 11 17  1  0  0  0  0
 12 18  1  0  0  0  0
 13  3  1  0  0  0  0
 13 12  2  0  0  0  0
 14 13  1  0  0  0  0
 15 14  2  0  0  0  0
 15 16  1  0  0  0  0
 16 11  2  0  0  0  0
 19 15  1  0  0  0  0
 20  7  1  0  0  0  0
 20 24  2  0  0  0  0
 21 22  2  0  0  0  0
 21 20  1  0  0  0  0
 22 23  1  0  0  0  0
 23 24  1  0  0  0  0
 23 28  1  0  0  0  0
 25 21  1  0  0  0  0
 26 22  1  0  0  0  0
 27 34  1  0  0  0  0
 27 36  1  0  0  0  0
 28 27  2  0  0  0  0
 29 31  2  0  0  0  0
 29 28  1  0  0  0  0
 30 29  1  0  0  0  0
 31 33  1  0  0  0  0
 32 31  1  0  0  0  0
 33 34  2  0  0  0  0
 35 36  1  0  0  0  0
 36 37  2  0  0  0  0
 36 38  2  0  0  0  0
M  END
>  <minimizedAffinity>
-6.21558809

$$$$

 OpenBabel03242513003D

 38 41  0  0  0  0  0  0  0  0999 V2000
   32.8640   29.2780   38.9070 F   0  0  0  0  0  0  0  0  0  0  0  0
   33.1060   29.0970   37.5760 C   0  0  0  0  0  0  0  0  0  0  0  0
   32.2330   29.5580   36.6240 C   0  0  0  0  0  0  0  0  0  0  0  0
   32.5530   29.3330   35.3160 C   0  0  0  0  0  0  0  0  0  0  0  0
   33.6980   28.6730   34.9050 C   0  0  0  0  0  0  0  0  0  0  0  0
   34.5290   28.2360   35.8960 C   0  0  0  0  0  0  0  0  0  0  0  0
   34.2560   28.4350   37.2250 C   0  0  0  0  0  0  0  0  0  0  0  0
   31.8470   29.7070   34.5760 H   0  0  0  0  0  0  0  0  0  0  0  0
   33.9090   28.5190   33.8510 H   0  0  0  0  0  0  0  0  0  0  0  0
   35.4410   27.7130   35.6470 H   0  0  0  0  0  0  0  0  0  0  0  0
   29.4190   32.0730   37.0010 C   0  0  0  0  0  0  0  0  0  0  0  0
   30.5800   31.4460   36.5340 C   0  0  0  0  0  0  0  0  0  0  0  0
   31.0270   30.2540   37.0750 C   0  0  0  0  0  0  0  0  0  0  0  0
   30.2520   29.7450   38.0890 N   0  0  0  0  0  0  0  0  0  0  0  0
   29.1380   30.3620   38.5240 C   0  0  0  0  0  0  0  0  0  0  0  0
   28.7230   31.5110   37.9910 N   0  0  0  0  0  0  0  0  0  0  0  0
   29.1040   33.0060   36.5510 H   0  0  0  0  0  0  0  0  0  0  0  0
   31.1840   31.8640   35.7290 H   0  0  0  0  0  0  0  0  0  0  0  0
   28.6590   29.8100   39.3310 H   0  0  0  0  0  0  0  0  0  0  0  0
   35.1630   27.9580   38.2700 C   0  0  0  0  0  0  0  0  0  0  0  0
   35.7940   26.7250   38.3180 C   0  0  0  0  0  0  0  0  0  0  0  0
   36.5650   26.6870   39.4830 C   0  0  0  0  0  0  0  0  0  0  0  0
   36.3740   27.8660   40.0790 N   0  0  0  0  0  0  0  0  0  0  0  0
   35.5480   28.6350   39.3760 N   0  0  0  0  0  0  0  0  0  0  0  0
   35.6440   25.9900   37.5320 H   0  0  0  0  0  0  0  0  0  0  0  0
   37.1360   25.8140   39.7100 H   0  0  0  0  0  0  0  0  0  0  0  0
   38.1860   28.8930   41.4940 C   0  0  0  0  0  0  0  0  0  0  0  0
   37.0430   28.1250   41.3090 C   0  0  0  0  0  0  0  0  0  0  0  0
   36.4620   27.5320   42.4270 C   0  0  0  0  0  0  0  0  0  0  0  0
   35.5560   26.9100   42.3600 H   0  0  0  0  0  0  0  0  0  0  0  0
   36.9940   27.6880   43.7050 C   0  0  0  0  0  0  0  0  0  0  0  0
   36.5150   27.2080   44.5700 H   0  0  0  0  0  0  0  0  0  0  0  0
   38.1440   28.4640   43.8660 C   0  0  0  0  0  3  0  0  0  0  0  0
   38.7140   29.0500   42.7580 C   0  0  0  0  0  3  0  0  0  0  0  0
   38.4140   28.9580   38.9150 H   0  0  0  0  0  0  0  0  0  0  0  0
   38.8620   29.6080   40.0500 S   0  0  0  0  0  0  0  0  0  0  0  0
   40.3650   29.6600   40.1110 O   0  0  0  0  0  0  0  0  0  0  0  0
   38.3240   31.0190   39.9770 O   0  0  0  0  0  0  0  0  0  0  0  0
  2  1  1  0  0  0  0
  3 13  1  0  0  0  0
  3  2  2  0  0  0  0
  4  3  1  0  0  0  0
  5  4  2  0  0  0  0
  5  6  1  0  0  0  0
  6  7  2  0  0  0  0
  7  2  1  0  0  0  0
  7 20  1  0  0  0  0
  8  4  1  0  0  0  0
  9  5  1  0  0  0  0
 10  6  1  0  0  0  0
 11 16  1  0  0  0  0
 12 11  2  0  0  0  0
 12 13  1  0  0  0  0
 13 14  2  0  0  0  0
 14 15  1  0  0  0  0
 15 19  1  0  0  0  0
 16 15  2  0  0  0  0
 17 11  1  0  0  0  0
 18 12  1  0  0  0  0
 20 21  1  0  0  0  0
 20 24  2  0  0  0  0
 21 22  2  0  0  0  0
 22 26  1  0  0  0  0
 22 23  1  0  0  0  0
 23 28  1  0  0  0  0
 24 23  1  0  0  0  0
 25 21  1  0  0  0  0
 27 34  1  0  0  0  0
 28 27  2  0  0  0  0
 28 29  1  0  0  0  0
 29 31  2  0  0  0  0
 30 29  1  0  0  0  0
 31 33  1  0  0  0  0
 31 32  1  0  0  0  0
 34 33  2  0  0  0  0
 35 36  1  0  0  0  0
 36 37  2  0  0  0  0
 36 27  1  0  0  0  0
 38 36  2  0  0  0  0
M  END
>  <minimizedAffinity>
-6.04597998

$$$$

 OpenBabel03242513003D

 38 41  0  0  0  0  0  0  0  0999 V2000
   40.7350   30.8890   40.5090 F   0  0  0  0  0  0  0  0  0  0  0  0
   39.6310   31.6550   40.2740 C   0  0  0  0  0  0  0  0  0  0  0  0
   39.7250   32.8610   39.6250 C   0  0  0  0  0  0  0  0  0  0  0  0
   38.5700   33.5620   39.4340 C   0  0  0  0  0  0  0  0  0  0  0  0
   37.3240   33.1280   39.8520 C   0  0  0  0  0  0  0  0  0  0  0  0
   37.2930   31.9230   40.4920 C   0  0  0  0  0  0  0  0  0  0  0  0
   38.4220   31.1760   40.7120 C   0  0  0  0  0  0  0  0  0  0  0  0
   38.6660   34.5170   38.9160 H   0  0  0  0  0  0  0  0  0  0  0  0
   36.4330   33.7230   39.6760 H   0  0  0  0  0  0  0  0  0  0  0  0
   36.3530   31.5220   40.8470 H   0  0  0  0  0  0  0  0  0  0  0  0
   42.7350   33.7590   37.4990 C   0  0  0  0  0  0  0  0  0  0  0  0
   41.4560   33.3240   37.8670 C   0  0  0  0  0  0  0  0  0  0  0  0
   41.0490   33.3060   39.1880 C   0  0  0  0  0  0  0  0  0  0  0  0
   41.9840   33.7430   40.0950 N   0  0  0  0  0  0  0  0  0  0  0  0
   43.2090   34.1590   39.7220 C   0  0  0  0  0  0  0  0  0  0  0  0
   43.5850   34.1690   38.4440 N   0  0  0  0  0  0  0  0  0  0  0  0
   43.0150   33.7570   36.4540 H   0  0  0  0  0  0  0  0  0  0  0  0
   40.7260   32.9800   37.1350 H   0  0  0  0  0  0  0  0  0  0  0  0
   43.8080   34.4670   40.5780 H   0  0  0  0  0  0  0  0  0  0  0  0
   38.3620   29.8870   41.4000 C   0  0  0  0  0  0  0  0  0  0  0  0
   38.3260   29.6810   42.7700 C   0  0  0  0  0  0  0  0  0  0  0  0
   38.2730   28.3010   42.9920 C   0  0  0  0  0  0  0  0  0  0  0  0
   38.2790   27.7420   41.7800 N   0  0  0  0  0  0  0  0  0  0  0  0
   38.3300   28.6640   40.8220 N   0  0  0  0  0  0  0  0  0  0  0  0
   38.3420   30.5180   43.4620 H   0  0  0  0  0  0  0  0  0  0  0  0
   38.2400   27.9290   43.9910 H   0  0  0  0  0  0  0  0  0  0  0  0
   39.3090   25.4550   41.5710 C   0  0  0  0  0  0  0  0  0  0  0  0
   38.2300   26.3230   41.6820 C   0  0  0  0  0  0  0  0  0  0  0  0
   36.9490   25.7780   41.7040 C   0  0  0  0  0  0  0  0  0  0  0  0
   36.0450   26.4010   41.7890 H   0  0  0  0  0  0  0  0  0  0  0  0
   36.7300   24.4050   41.6170 C   0  0  0  0  0  0  0  0  0  0  0  0
   35.7070   24.0020   41.6370 H   0  0  0  0  0  0  0  0  0  0  0  0
   37.8300   23.5530   41.5060 C   0  0  0  0  0  3  0  0  0  0  0  0
   39.0950   24.0950   41.4870 C   0  0  0  0  0  3  0  0  0  0  0  0
   40.9520   27.2550   42.4470 H   0  0  0  0  0  0  0  0  0  0  0  0
   40.8880   26.2050   41.5510 S   0  0  0  0  0  0  0  0  0  0  0  0
   41.2810   26.6280   40.1610 O   0  0  0  0  0  0  0  0  0  0  0  0
   41.8650   25.1610   42.0420 O   0  0  0  0  0  0  0  0  0  0  0  0
  2  1  1  0  0  0  0
  2  7  1  0  0  0  0
  3  2  2  0  0  0  0
  4  3  1  0  0  0  0
  4  5  2  0  0  0  0
  5  6  1  0  0  0  0
  6  7  2  0  0  0  0
  6 10  1  0  0  0  0
  7 20  1  0  0  0  0
  8  4  1  0  0  0  0
  9  5  1  0  0  0  0
 11 12  2  0  0  0  0
 11 16  1  0  0  0  0
 12 13  1  0  0  0  0
 13  3  1  0  0  0  0
 13 14  2  0  0  0  0
 15 14  1  0  0  0  0
 15 19  1  0  0  0  0
 16 15  2  0  0  0  0
 17 11  1  0  0  0  0
 18 12  1  0  0  0  0
 20 21  1  0  0  0  0
 21 22  2  0  0  0  0
 21 25  1  0  0  0  0
 22 26  1  0  0  0  0
 23 22  1  0  0  0  0
 24 20  2  0  0  0  0
 24 23  1  0  0  0  0
 27 28  1  0  0  0  0
 28 29  2  0  0  0  0
 28 23  1  0  0  0  0
 29 30  1  0  0  0  0
 31 32  1  0  0  0  0
 31 29  1  0  0  0  0
 33 31  2  0  0  0  0
 34 33  1  0  0  0  0
 34 27  2  0  0  0  0
 36 27  1  0  0  0  0
 36 38  2  0  0  0  0
 36 35  1  0  0  0  0
 37 36  2  0  0  0  0
M  END
>  <minimizedAffinity>
-5.87495804

$$$$

 OpenBabel03242513003D

 38 41  0  0  0  0  0  0  0  0999 V2000
   39.3020   30.3420   41.2970 F   0  0  0  0  0  0  0  0  0  0  0  0
   38.5060   30.4260   40.1910 C   0  0  0  0  0  0  0  0  0  0  0  0
   37.5930   29.4460   39.8960 C   0  0  0  0  0  0  0  0  0  0  0  0
   36.8380   29.6100   38.7690 C   0  0  0  0  0  0  0  0  0  0  0  0
   36.9440   30.6990   37.9210 C   0  0  0  0  0  0  0  0  0  0  0  0
   37.8700   31.6410   38.2660 C   0  0  0  0  0  0  0  0  0  0  0  0
   38.6540   31.5270   39.3850 C   0  0  0  0  0  0  0  0  0  0  0  0
   36.1190   28.8210   38.5520 H   0  0  0  0  0  0  0  0  0  0  0  0
   36.3210   30.7840   37.0370 H   0  0  0  0  0  0  0  0  0  0  0  0
   38.0060   32.5180   37.6490 H   0  0  0  0  0  0  0  0  0  0  0  0
   36.7050   27.1930   42.8150 C   0  0  0  0  0  0  0  0  0  0  0  0
   36.7690   28.3160   41.9810 C   0  0  0  0  0  0  0  0  0  0  0  0
   37.4920   28.3010   40.8020 C   0  0  0  0  0  0  0  0  0  0  0  0
   38.1290   27.1170   40.5200 N   0  0  0  0  0  0  0  0  0  0  0  0
   38.0550   26.0470   41.3340 C   0  0  0  0  0  0  0  0  0  0  0  0
   37.3540   26.0800   42.4680 N   0  0  0  0  0  0  0  0  0  0  0  0
   36.1290   27.2460   43.7290 H   0  0  0  0  0  0  0  0  0  0  0  0
   36.2590   29.2470   42.2190 H   0  0  0  0  0  0  0  0  0  0  0  0
   38.6230   25.2040   40.9460 H   0  0  0  0  0  0  0  0  0  0  0  0
   39.6400   32.5510   39.7340 C   0  0  0  0  0  0  0  0  0  0  0  0
   39.3900   33.8940   39.9640 C   0  0  0  0  0  0  0  0  0  0  0  0
   40.6100   34.5080   40.2660 C   0  0  0  0  0  0  0  0  0  0  0  0
   41.5240   33.5370   40.2060 N   0  0  0  0  0  0  0  0  0  0  0  0
   40.9710   32.3690   39.8930 N   0  0  0  0  0  0  0  0  0  0  0  0
   38.3830   34.2950   39.8960 H   0  0  0  0  0  0  0  0  0  0  0  0
   40.6360   35.5530   40.4770 H   0  0  0  0  0  0  0  0  0  0  0  0
   43.9220   33.9360   39.5500 C   0  0  0  0  0  0  0  0  0  0  0  0
   42.8850   33.8640   40.4710 C   0  0  0  0  0  0  0  0  0  0  0  0
   43.1720   34.1350   41.8060 C   0  0  0  0  0  0  0  0  0  0  0  0
   42.4040   34.0980   42.5940 H   0  0  0  0  0  0  0  0  0  0  0  0
   44.4560   34.4700   42.2310 C   0  0  0  0  0  0  0  0  0  0  0  0
   44.6550   34.6790   43.2920 H   0  0  0  0  0  0  0  0  0  0  0  0
   45.4820   34.5360   41.2860 C   0  0  0  0  0  3  0  0  0  0  0  0
   45.1930   34.2680   39.9670 C   0  0  0  0  0  3  0  0  0  0  0  0
   44.5660   33.7870   37.0460 H   0  0  0  0  0  0  0  0  0  0  0  0
   43.4920   33.5850   37.8930 S   0  0  0  0  0  0  0  0  0  0  0  0
   42.2800   34.3650   37.4590 O   0  0  0  0  0  0  0  0  0  0  0  0
   43.1720   32.1080   37.8350 O   0  0  0  0  0  0  0  0  0  0  0  0
  2  1  1  0  0  0  0
  3  2  1  0  0  0  0
  3 13  1  0  0  0  0
  4  3  2  0  0  0  0
  5  6  2  0  0  0  0
  5  4  1  0  0  0  0
  6  7  1  0  0  0  0
  7 20  1  0  0  0  0
  7  2  2  0  0  0  0
  8  4  1  0  0  0  0
  9  5  1  0  0  0  0
 10  6  1  0  0  0  0
 11 17  1  0  0  0  0
 12 18  1  0  0  0  0
 12 11  2  0  0  0  0
 13 12  1  0  0  0  0
 14 13  2  0  0  0  0
 14 15  1  0  0  0  0
 15 16  2  0  0  0  0
 16 11  1  0  0  0  0
 19 15  1  0  0  0  0
 20 24  2  0  0  0  0
 20 21  1  0  0  0  0
 21 22  2  0  0  0  0
 22 26  1  0  0  0  0
 23 22  1  0  0  0  0
 23 28  1  0  0  0  0
 24 23  1  0  0  0  0
 25 21  1  0  0  0  0
 27 34  2  0  0  0  0
 27 28  1  0  0  0  0
 28 29  2  0  0  0  0
 29 31  1  0  0  0  0
 29 30  1  0  0  0  0
 31 32  1  0  0  0  0
 33 31  2  0  0  0  0
 34 33  1  0  0  0  0
 35 36  1  0  0  0  0
 36 27  1  0  0  0  0
 37 36  2  0  0  0  0
 38 36  2  0  0  0  0
M  END
>  <minimizedAffinity>
-5.82810974

$$$$

 OpenBabel03242513003D

 38 41  0  0  0  0  0  0  0  0999 V2000
   39.1930   27.3280   40.5080 F   0  0  0  0  0  0  0  0  0  0  0  0
   38.4230   27.5540   41.6120 C   0  0  0  0  0  0  0  0  0  0  0  0
   37.4690   26.6530   42.0110 C   0  0  0  0  0  0  0  0  0  0  0  0
   36.7430   26.9590   43.1260 C   0  0  0  0  0  0  0  0  0  0  0  0
   36.9180   28.1150   43.8670 C   0  0  0  0  0  0  0  0  0  0  0  0
   37.8810   28.9740   43.4220 C   0  0  0  0  0  0  0  0  0  0  0  0
   38.6380   28.7170   42.3080 C   0  0  0  0  0  0  0  0  0  0  0  0
   35.9910   26.2300   43.4270 H   0  0  0  0  0  0  0  0  0  0  0  0
   36.3160   28.3140   44.7480 H   0  0  0  0  0  0  0  0  0  0  0  0
   38.0710   29.8970   43.9520 H   0  0  0  0  0  0  0  0  0  0  0  0
   37.6380   23.0720   40.7730 C   0  0  0  0  0  0  0  0  0  0  0  0
   37.8310   24.2080   41.5670 C   0  0  0  0  0  0  0  0  0  0  0  0
   37.2960   25.4350   41.2180 C   0  0  0  0  0  0  0  0  0  0  0  0
   36.5720   25.4470   40.0500 N   0  0  0  0  0  0  0  0  0  0  0  0
   36.3960   24.3430   39.3000 C   0  0  0  0  0  0  0  0  0  0  0  0
   36.9200   23.1690   39.6520 N   0  0  0  0  0  0  0  0  0  0  0  0
   38.0740   22.1300   41.0820 H   0  0  0  0  0  0  0  0  0  0  0  0
   38.4090   24.1820   42.4900 H   0  0  0  0  0  0  0  0  0  0  0  0
   35.7970   24.5480   38.4150 H   0  0  0  0  0  0  0  0  0  0  0  0
   39.6650   29.6530   41.8510 C   0  0  0  0  0  0  0  0  0  0  0  0
   40.8920   29.8920   42.4490 C   0  0  0  0  0  0  0  0  0  0  0  0
   41.5570   30.8570   41.6860 C   0  0  0  0  0  0  0  0  0  0  0  0
   40.7270   31.1570   40.6850 N   0  0  0  0  0  0  0  0  0  0  0  0
   39.6010   30.4550   40.7620 N   0  0  0  0  0  0  0  0  0  0  0  0
   41.1860   29.3640   43.3510 H   0  0  0  0  0  0  0  0  0  0  0  0
   42.5290   31.1850   41.9810 H   0  0  0  0  0  0  0  0  0  0  0  0
   41.5950   31.8890   38.4380 C   0  0  0  0  0  0  0  0  0  0  0  0
   41.1360   32.1280   39.7270 C   0  0  0  0  0  0  0  0  0  0  0  0
   41.0550   33.4480   40.1600 C   0  0  0  0  0  0  0  0  0  0  0  0
   40.7020   33.7170   41.1680 H   0  0  0  0  0  0  0  0  0  0  0  0
   41.4190   34.5170   39.3430 C   0  0  0  0  0  0  0  0  0  0  0  0
   41.3440   35.5500   39.7120 H   0  0  0  0  0  0  0  0  0  0  0  0
   41.8770   34.2510   38.0510 C   0  0  0  0  0  3  0  0  0  0  0  0
   41.9540   32.9440   37.6260 C   0  0  0  0  0  3  0  0  0  0  0  0
   41.9730   29.3970   39.0340 H   0  0  0  0  0  0  0  0  0  0  0  0
   41.6710   30.2100   37.9580 S   0  0  0  0  0  0  0  0  0  0  0  0
   42.6270   30.0050   36.8140 O   0  0  0  0  0  0  0  0  0  0  0  0
   40.2790   29.8280   37.5090 O   0  0  0  0  0  0  0  0  0  0  0  0
  1  2  1  0  0  0  0
  2  3  2  0  0  0  0
  2  7  1  0  0  0  0
  3  4  1  0  0  0  0
  4  8  1  0  0  0  0
  4  5  2  0  0  0  0
  5  9  1  0  0  0  0
  6  5  1  0  0  0  0
  6 10  1  0  0  0  0
  7  6  2  0  0  0  0
 11 17  1  0  0  0  0
 11 12  1  0  0  0  0
 12 18  1  0  0  0  0
 13 12  2  0  0  0  0
 13  3  1  0  0  0  0
 14 13  1  0  0  0  0
 15 16  1  0  0  0  0
 15 14  2  0  0  0  0
 16 11  2  0  0  0  0
 19 15  1  0  0  0  0
 20  7  1  0  0  0  0
 20 21  1  0  0  0  0
 21 25  1  0  0  0  0
 22 26  1  0  0  0  0
 22 21  2  0  0  0  0
 23 24  1  0  0  0  0
 23 22  1  0  0  0  0
 24 20  2  0  0  0  0
 27 28  1  0  0  0  0
 28 29  2  0  0  0  0
 28 23  1  0  0  0  0
 29 30  1  0  0  0  0
 31 32  1  0  0  0  0
 31 29  1  0  0  0  0
 33 31  2  0  0  0  0
 34 33  1  0  0  0  0
 34 27  2  0  0  0  0
 36 27  1  0  0  0  0
 36 35  1  0  0  0  0
 37 36  2  0  0  0  0
 38 36  2  0  0  0  0
M  END
>  <minimizedAffinity>
-5.71931458

$$$$

 OpenBabel03242513003D

 38 41  0  0  0  0  0  0  0  0999 V2000
   37.9970   27.2090   39.5320 F   0  0  0  0  0  0  0  0  0  0  0  0
   37.6420   27.3870   40.8370 C   0  0  0  0  0  0  0  0  0  0  0  0
   37.2900   26.3240   41.6310 C   0  0  0  0  0  0  0  0  0  0  0  0
   36.9480   26.5940   42.9260 C   0  0  0  0  0  0  0  0  0  0  0  0
   36.9360   27.8660   43.4720 C   0  0  0  0  0  0  0  0  0  0  0  0
   37.2940   28.8820   42.6340 C   0  0  0  0  0  0  0  0  0  0  0  0
   37.6470   28.6690   41.3270 C   0  0  0  0  0  0  0  0  0  0  0  0
   36.6720   25.7370   43.5390 H   0  0  0  0  0  0  0  0  0  0  0  0
   36.6560   28.0290   44.5080 H   0  0  0  0  0  0  0  0  0  0  0  0
   37.3070   29.9020   42.9950 H   0  0  0  0  0  0  0  0  0  0  0  0
   36.3150   23.1590   39.7830 C   0  0  0  0  0  0  0  0  0  0  0  0
   36.2500   24.4460   40.3300 C   0  0  0  0  0  0  0  0  0  0  0  0
   37.3070   24.9860   41.0390 C   0  0  0  0  0  0  0  0  0  0  0  0
   38.4070   24.1720   41.1600 N   0  0  0  0  0  0  0  0  0  0  0  0
   38.4520   22.9370   40.6260 C   0  0  0  0  0  0  0  0  0  0  0  0
   37.4230   22.4330   39.9470 N   0  0  0  0  0  0  0  0  0  0  0  0
   35.4650   22.7730   39.2360 H   0  0  0  0  0  0  0  0  0  0  0  0
   35.3700   25.0790   40.2260 H   0  0  0  0  0  0  0  0  0  0  0  0
   39.4030   22.4460   40.8260 H   0  0  0  0  0  0  0  0  0  0  0  0
   38.0270   29.7760   40.4490 C   0  0  0  0  0  0  0  0  0  0  0  0
   37.2200   30.4080   39.5170 C   0  0  0  0  0  0  0  0  0  0  0  0
   37.9810   31.4060   38.9010 C   0  0  0  0  0  0  0  0  0  0  0  0
   39.1870   31.3390   39.4690 N   0  0  0  0  0  0  0  0  0  0  0  0
   39.2360   30.3810   40.3890 N   0  0  0  0  0  0  0  0  0  0  0  0
   36.1880   30.1000   39.3710 H   0  0  0  0  0  0  0  0  0  0  0  0
   37.5390   32.0140   38.1440 H   0  0  0  0  0  0  0  0  0  0  0  0
   41.2370   31.9860   38.1590 C   0  0  0  0  0  0  0  0  0  0  0  0
   40.1950   32.2490   39.0390 C   0  0  0  0  0  0  0  0  0  0  0  0
   40.0960   33.5290   39.5770 C   0  0  0  0  0  0  0  0  0  0  0  0
   39.2980   33.8120   40.2810 H   0  0  0  0  0  0  0  0  0  0  0  0
   41.0050   34.5360   39.2590 C   0  0  0  0  0  0  0  0  0  0  0  0
   40.9020   35.5380   39.6990 H   0  0  0  0  0  0  0  0  0  0  0  0
   42.0440   34.2480   38.3720 C   0  0  0  0  0  3  0  0  0  0  0  0
   42.1380   32.9810   37.8410 C   0  0  0  0  0  3  0  0  0  0  0  0
   40.0690   29.9650   37.0390 H   0  0  0  0  0  0  0  0  0  0  0  0
   41.3020   30.3610   37.5210 S   0  0  0  0  0  0  0  0  0  0  0  0
   41.8460   29.3900   38.5350 O   0  0  0  0  0  0  0  0  0  0  0  0
   42.2350   30.4030   36.3320 O   0  0  0  0  0  0  0  0  0  0  0  0
  1  2  1  0  0  0  0
  2  7  2  0  0  0  0
  2  3  1  0  0  0  0
  3  4  2  0  0  0  0
  4  5  1  0  0  0  0
  4  8  1  0  0  0  0
  5  9  1  0  0  0  0
  6 10  1  0  0  0  0
  6  5  2  0  0  0  0
  7  6  1  0  0  0  0
 11 16  2  0  0  0  0
 11 12  1  0  0  0  0
 12 13  2  0  0  0  0
 13 14  1  0  0  0  0
 13  3  1  0  0  0  0
 15 19  1  0  0  0  0
 15 14  2  0  0  0  0
 16 15  1  0  0  0  0
 17 11  1  0  0  0  0
 18 12  1  0  0  0  0
 20  7  1  0  0  0  0
 21 20  1  0  0  0  0
 22 23  1  0  0  0  0
 22 21  2  0  0  0  0
 23 24  1  0  0  0  0
 24 20  2  0  0  0  0
 25 21  1  0  0  0  0
 26 22  1  0  0  0  0
 27 28  1  0  0  0  0
 28 23  1  0  0  0  0
 28 29  2  0  0  0  0
 29 30  1  0  0  0  0
 31 29  1  0  0  0  0
 31 32  1  0  0  0  0
 33 31  2  0  0  0  0
 34 27  2  0  0  0  0
 34 33  1  0  0  0  0
 35 36  1  0  0  0  0
 36 27  1  0  0  0  0
 36 37  2  0  0  0  0
 38 36  2  0  0  0  0
M  END
>  <minimizedAffinity>
-5.69776392

$$$$

 OpenBabel03242513003D

 38 41  0  0  0  0  0  0  0  0999 V2000
   41.8300   31.2500   40.4500 F   0  0  0  0  0  0  0  0  0  0  0  0
   40.9790   32.3150   40.4000 C   0  0  0  0  0  0  0  0  0  0  0  0
   41.3790   33.5230   39.8870 C   0  0  0  0  0  0  0  0  0  0  0  0
   40.4630   34.5350   39.8760 C   0  0  0  0  0  0  0  0  0  0  0  0
   39.1680   34.4090   40.3480 C   0  0  0  0  0  0  0  0  0  0  0  0
   38.8270   33.1850   40.8470 C   0  0  0  0  0  0  0  0  0  0  0  0
   39.7070   32.1340   40.8830 C   0  0  0  0  0  0  0  0  0  0  0  0
   40.8000   35.4860   39.4640 H   0  0  0  0  0  0  0  0  0  0  0  0
   38.4750   35.2450   40.3170 H   0  0  0  0  0  0  0  0  0  0  0  0
   37.8310   33.0160   41.2330 H   0  0  0  0  0  0  0  0  0  0  0  0
   44.4460   33.5230   37.6550 C   0  0  0  0  0  0  0  0  0  0  0  0
   43.1180   33.3970   38.0800 C   0  0  0  0  0  0  0  0  0  0  0  0
   42.7510   33.6400   39.3910 C   0  0  0  0  0  0  0  0  0  0  0  0
   43.7770   34.0100   40.2270 N   0  0  0  0  0  0  0  0  0  0  0  0
   45.0480   34.1270   39.8000 C   0  0  0  0  0  0  0  0  0  0  0  0
   45.3840   33.8870   38.5320 N   0  0  0  0  0  0  0  0  0  0  0  0
   44.6920   33.3220   36.6200 H   0  0  0  0  0  0  0  0  0  0  0  0
   42.3170   33.1020   37.4040 H   0  0  0  0  0  0  0  0  0  0  0  0
   45.7180   34.4280   40.6040 H   0  0  0  0  0  0  0  0  0  0  0  0
   39.3170   30.8310   41.4220 C   0  0  0  0  0  0  0  0  0  0  0  0
   39.2430   30.4780   42.7600 C   0  0  0  0  0  0  0  0  0  0  0  0
   38.8320   29.1430   42.8260 C   0  0  0  0  0  0  0  0  0  0  0  0
   38.6780   28.7520   41.5600 N   0  0  0  0  0  0  0  0  0  0  0  0
   38.9600   29.7370   40.7110 N   0  0  0  0  0  0  0  0  0  0  0  0
   39.4850   31.1930   43.5410 H   0  0  0  0  0  0  0  0  0  0  0  0
   38.7120   28.6750   43.7770 H   0  0  0  0  0  0  0  0  0  0  0  0
   37.1630   27.0140   40.5500 C   0  0  0  0  0  0  0  0  0  0  0  0
   38.2580   27.4160   41.3040 C   0  0  0  0  0  0  0  0  0  0  0  0
   39.0510   26.4310   41.8860 C   0  0  0  0  0  0  0  0  0  0  0  0
   39.9360   26.6720   42.4970 H   0  0  0  0  0  0  0  0  0  0  0  0
   38.7750   25.0740   41.7320 C   0  0  0  0  0  0  0  0  0  0  0  0
   39.4190   24.3180   42.2030 H   0  0  0  0  0  0  0  0  0  0  0  0
   37.6680   24.6950   40.9700 C   0  0  0  0  0  3  0  0  0  0  0  0
   36.8870   25.6720   40.3950 C   0  0  0  0  0  3  0  0  0  0  0  0
   37.0200   29.2710   39.2870 H   0  0  0  0  0  0  0  0  0  0  0  0
   36.2100   28.3000   39.8480 S   0  0  0  0  0  0  0  0  0  0  0  0
   35.2460   28.8830   40.8460 O   0  0  0  0  0  0  0  0  0  0  0  0
   35.4280   27.6840   38.7110 O   0  0  0  0  0  0  0  0  0  0  0  0
  2  1  1  0  0  0  0
  2  7  1  0  0  0  0
  3  2  2  0  0  0  0
  4  3  1  0  0  0  0
  4  5  2  0  0  0  0
  5  6  1  0  0  0  0
  6  7  2  0  0  0  0
  6 10  1  0  0  0  0
  7 20  1  0  0  0  0
  8  4  1  0  0  0  0
  9  5  1  0  0  0  0
 11 12  2  0  0  0  0
 11 16  1  0  0  0  0
 12 13  1  0  0  0  0
 13  3  1  0  0  0  0
 13 14  2  0  0  0  0
 15 14  1  0  0  0  0
 15 19  1  0  0  0  0
 16 15  2  0  0  0  0
 17 11  1  0  0  0  0
 18 12  1  0  0  0  0
 20 21  1  0  0  0  0
 21 22  2  0  0  0  0
 21 25  1  0  0  0  0
 22 26  1  0  0  0  0
 23 22  1  0  0  0  0
 24 20  2  0  0  0  0
 24 23  1  0  0  0  0
 27 28  1  0  0  0  0
 28 23  1  0  0  0  0
 28 29  2  0  0  0  0
 29 30  1  0  0  0  0
 31 29  1  0  0  0  0
 31 32  1  0  0  0  0
 33 31  2  0  0  0  0
 34 27  2  0  0  0  0
 34 33  1  0  0  0  0
 35 36  1  0  0  0  0
 36 27  1  0  0  0  0
 36 37  2  0  0  0  0
 38 36  2  0  0  0  0
M  END
>  <minimizedAffinity>
-5.6858077

$$$$

 OpenBabel03242513003D

 38 41  0  0  0  0  0  0  0  0999 V2000
   34.8860   29.3070   38.7580 F   0  0  0  0  0  0  0  0  0  0  0  0
   35.2880   28.0120   38.6010 C   0  0  0  0  0  0  0  0  0  0  0  0
   36.3260   27.4950   39.3340 C   0  0  0  0  0  0  0  0  0  0  0  0
   36.6620   26.1900   39.1130 C   0  0  0  0  0  0  0  0  0  0  0  0
   36.0190   25.3720   38.2000 C   0  0  0  0  0  0  0  0  0  0  0  0
   34.9950   25.9410   37.5000 C   0  0  0  0  0  0  0  0  0  0  0  0
   34.6160   27.2460   37.6820 C   0  0  0  0  0  0  0  0  0  0  0  0
   37.4890   25.7980   39.7050 H   0  0  0  0  0  0  0  0  0  0  0  0
   36.3230   24.3390   38.0600 H   0  0  0  0  0  0  0  0  0  0  0  0
   34.4480   25.3600   36.7710 H   0  0  0  0  0  0  0  0  0  0  0  0
   37.3680   29.2610   42.5250 C   0  0  0  0  0  0  0  0  0  0  0  0
   36.6980   28.4020   41.6460 C   0  0  0  0  0  0  0  0  0  0  0  0
   36.9960   28.3720   40.2950 C   0  0  0  0  0  0  0  0  0  0  0  0
   37.9840   29.2380   39.8940 N   0  0  0  0  0  0  0  0  0  0  0  0
   38.6180   30.0560   40.7550 C   0  0  0  0  0  0  0  0  0  0  0  0
   38.3180   30.0720   42.0530 N   0  0  0  0  0  0  0  0  0  0  0  0
   37.1050   29.2540   43.5740 H   0  0  0  0  0  0  0  0  0  0  0  0
   35.9160   27.7220   41.9800 H   0  0  0  0  0  0  0  0  0  0  0  0
   39.3680   30.6660   40.2540 H   0  0  0  0  0  0  0  0  0  0  0  0
   33.5140   27.8340   36.9190 C   0  0  0  0  0  0  0  0  0  0  0  0
   32.6770   27.1740   36.0330 C   0  0  0  0  0  0  0  0  0  0  0  0
   31.7680   28.1100   35.5290 C   0  0  0  0  0  0  0  0  0  0  0  0
   32.0840   29.2680   36.1140 N   0  0  0  0  0  0  0  0  0  0  0  0
   33.1150   29.1270   36.9420 N   0  0  0  0  0  0  0  0  0  0  0  0
   32.7950   26.1130   35.8380 H   0  0  0  0  0  0  0  0  0  0  0  0
   31.0310   27.8010   34.8230 H   0  0  0  0  0  0  0  0  0  0  0  0
   30.2820   30.9740   36.5350 C   0  0  0  0  0  0  0  0  0  0  0  0
   31.3200   30.4250   35.7930 C   0  0  0  0  0  0  0  0  0  0  0  0
   31.6770   31.0500   34.6010 C   0  0  0  0  0  0  0  0  0  0  0  0
   32.4890   30.6750   33.9590 H   0  0  0  0  0  0  0  0  0  0  0  0
   31.0270   32.1950   34.1440 C   0  0  0  0  0  0  0  0  0  0  0  0
   31.3300   32.6680   33.1990 H   0  0  0  0  0  0  0  0  0  0  0  0
   29.9860   32.7280   34.9080 C   0  0  0  0  0  3  0  0  0  0  0  0
   29.6370   32.1080   36.0860 C   0  0  0  0  0  3  0  0  0  0  0  0
   31.0250   29.8540   38.7490 H   0  0  0  0  0  0  0  0  0  0  0  0
   29.8860   30.1410   38.0190 S   0  0  0  0  0  0  0  0  0  0  0  0
   29.0610   28.9090   37.7580 O   0  0  0  0  0  0  0  0  0  0  0  0
   29.0750   31.1080   38.8520 O   0  0  0  0  0  0  0  0  0  0  0  0
  2  1  1  0  0  0  0
  2  3  1  0  0  0  0
  3 13  1  0  0  0  0
  4  3  2  0  0  0  0
  4  8  1  0  0  0  0
  5  4  1  0  0  0  0
  6  7  1  0  0  0  0
  6  5  2  0  0  0  0
  7  2  2  0  0  0  0
  9  5  1  0  0  0  0
 10  6  1  0  0  0  0
 11 17  1  0  0  0  0
 12 18  1  0  0  0  0
 12 11  2  0  0  0  0
 13 12  1  0  0  0  0
 14 13  2  0  0  0  0
 14 15  1  0  0  0  0
 15 16  2  0  0  0  0
 16 11  1  0  0  0  0
 19 15  1  0  0  0  0
 20 24  2  0  0  0  0
 20  7  1  0  0  0  0
 21 20  1  0  0  0  0
 22 21  2  0  0  0  0
 22 23  1  0  0  0  0
 23 24  1  0  0  0  0
 25 21  1  0  0  0  0
 26 22  1  0  0  0  0
 27 36  1  0  0  0  0
 28 23  1  0  0  0  0
 28 27  2  0  0  0  0
 29 28  1  0  0  0  0
 30 29  1  0  0  0  0
 31 29  2  0  0  0  0
 31 33  1  0  0  0  0
 32 31  1  0  0  0  0
 33 34  2  0  0  0  0
 34 27  1  0  0  0  0
 36 35  1  0  0  0  0
 36 38  2  0  0  0  0
 37 36  2  0  0  0  0
M  END
>  <minimizedAffinity>
-5.62581825

$$$$

 OpenBabel03242513003D

 38 41  0  0  0  0  0  0  0  0999 V2000
   38.2480   27.9620   39.8460 F   0  0  0  0  0  0  0  0  0  0  0  0
   37.9320   28.0040   41.1730 C   0  0  0  0  0  0  0  0  0  0  0  0
   37.4560   26.8960   41.8280 C   0  0  0  0  0  0  0  0  0  0  0  0
   37.1650   27.0280   43.1560 C   0  0  0  0  0  0  0  0  0  0  0  0
   37.3240   28.2050   43.8670 C   0  0  0  0  0  0  0  0  0  0  0  0
   37.8000   29.2720   43.1630 C   0  0  0  0  0  0  0  0  0  0  0  0
   38.1080   29.1960   41.8290 C   0  0  0  0  0  0  0  0  0  0  0  0
   36.7890   26.1370   43.6570 H   0  0  0  0  0  0  0  0  0  0  0  0
   37.0790   28.2590   44.9230 H   0  0  0  0  0  0  0  0  0  0  0  0
   37.9490   30.2230   43.6560 H   0  0  0  0  0  0  0  0  0  0  0  0
   37.6540   23.2900   40.6710 C   0  0  0  0  0  0  0  0  0  0  0  0
   37.8370   24.4450   41.4400 C   0  0  0  0  0  0  0  0  0  0  0  0
   37.2940   25.6600   41.0620 C   0  0  0  0  0  0  0  0  0  0  0  0
   36.5720   25.6400   39.8940 N   0  0  0  0  0  0  0  0  0  0  0  0
   36.4050   24.5180   39.1680 C   0  0  0  0  0  0  0  0  0  0  0  0
   36.9370   23.3560   39.5470 N   0  0  0  0  0  0  0  0  0  0  0  0
   38.0960   22.3590   41.0010 H   0  0  0  0  0  0  0  0  0  0  0  0
   38.4140   24.4440   42.3640 H   0  0  0  0  0  0  0  0  0  0  0  0
   35.8050   24.6990   38.2780 H   0  0  0  0  0  0  0  0  0  0  0  0
   38.6190   30.3560   41.0970 C   0  0  0  0  0  0  0  0  0  0  0  0
   37.9220   31.5150   40.7940 C   0  0  0  0  0  0  0  0  0  0  0  0
   38.7850   32.3570   40.0860 C   0  0  0  0  0  0  0  0  0  0  0  0
   39.9380   31.6910   39.9900 N   0  0  0  0  0  0  0  0  0  0  0  0
   39.8620   30.5030   40.5830 N   0  0  0  0  0  0  0  0  0  0  0  0
   36.8890   31.6420   41.1010 H   0  0  0  0  0  0  0  0  0  0  0  0
   38.4380   33.3100   39.7560 H   0  0  0  0  0  0  0  0  0  0  0  0
   42.1910   32.8090   39.8780 C   0  0  0  0  0  0  0  0  0  0  0  0
   41.0270   32.3060   39.3100 C   0  0  0  0  0  0  0  0  0  0  0  0
   40.8780   32.3970   37.9290 C   0  0  0  0  0  0  0  0  0  0  0  0
   39.9850   32.0210   37.4060 H   0  0  0  0  0  0  0  0  0  0  0  0
   41.8540   32.9720   37.1170 C   0  0  0  0  0  0  0  0  0  0  0  0
   41.7100   33.0300   36.0290 H   0  0  0  0  0  0  0  0  0  0  0  0
   43.0150   33.4710   37.7110 C   0  0  0  0  0  3  0  0  0  0  0  0
   43.1590   33.3780   39.0770 C   0  0  0  0  0  3  0  0  0  0  0  0
   41.0640   32.6960   42.2070 H   0  0  0  0  0  0  0  0  0  0  0  0
   42.3130   32.6630   41.6150 S   0  0  0  0  0  0  0  0  0  0  0  0
   43.2360   33.7020   42.1930 O   0  0  0  0  0  0  0  0  0  0  0  0
   42.8830   31.2900   41.8910 O   0  0  0  0  0  0  0  0  0  0  0  0
  1  2  1  0  0  0  0
  2  3  2  0  0  0  0
  2  7  1  0  0  0  0
  3  4  1  0  0  0  0
  4  8  1  0  0  0  0
  4  5  2  0  0  0  0
  5  9  1  0  0  0  0
  6 10  1  0  0  0  0
  6  5  1  0  0  0  0
  7  6  2  0  0  0  0
 11 17  1  0  0  0  0
 11 12  1  0  0  0  0
 12 18  1  0  0  0  0
 13 12  2  0  0  0  0
 13  3  1  0  0  0  0
 14 13  1  0  0  0  0
 15 16  1  0  0  0  0
 15 14  2  0  0  0  0
 16 11  2  0  0  0  0
 19 15  1  0  0  0  0
 20  7  1  0  0  0  0
 21 20  1  0  0  0  0
 21 25  1  0  0  0  0
 22 21  2  0  0  0  0
 23 22  1  0  0  0  0
 23 24  1  0  0  0  0
 24 20  2  0  0  0  0
 26 22  1  0  0  0  0
 27 36  1  0  0  0  0
 28 27  1  0  0  0  0
 28 23  1  0  0  0  0
 29 28  2  0  0  0  0
 30 29  1  0  0  0  0
 31 33  2  0  0  0  0
 31 29  1  0  0  0  0
 32 31  1  0  0  0  0
 33 34  1  0  0  0  0
 34 27  2  0  0  0  0
 36 38  2  0  0  0  0
 36 37  2  0  0  0  0
 36 35  1  0  0  0  0
M  END
>  <minimizedAffinity>
-5.62106419

$$$$
