
 OpenBabel03252508593D

 48 50  0  0  1  0  0  0  0  0999 V2000
   47.1360   34.0850   43.2780 N   0  0  0  0  0  0  0  0  0  0  0  0
   46.7490   35.3260   42.6990 C   0  0  0  0  0  0  0  0  0  0  0  0
   45.2940   35.6700   42.8100 C   0  0  0  0  0  0  0  0  0  0  0  0
   44.6210   35.1540   44.0490 C   0  0  0  0  0  0  0  0  0  0  0  0
   45.6010   34.4770   44.9790 C   0  0  0  0  0  0  0  0  0  0  0  0
   46.2580   33.3720   44.0760 C   0  0  2  0  0  0  0  0  0  0  0  0
   47.0410   35.4890   41.6600 H   0  0  0  0  0  0  0  0  0  0  0  0
   47.3060   36.1260   43.2740 H   0  0  0  0  0  0  0  0  0  0  0  0
   45.1530   36.7680   42.7900 H   0  0  0  0  0  0  0  0  0  0  0  0
   44.7890   35.3060   41.8740 H   0  0  0  0  0  0  0  0  0  0  0  0
   43.9120   34.3600   43.7280 H   0  0  0  0  0  0  0  0  0  0  0  0
   44.0220   35.9240   44.5600 H   0  0  0  0  0  0  0  0  0  0  0  0
   45.0160   33.9630   45.7680 H   0  0  0  0  0  0  0  0  0  0  0  0
   46.3880   35.1410   45.3620 H   0  0  0  0  0  0  0  0  0  0  0  0
   45.3980   32.8570   43.6020 H   0  0  0  0  0  0  0  0  0  0  0  0
   48.1270   33.3670   42.5210 C   0  0  0  0  0  0  0  0  0  0  0  0
   48.7600   34.1360   42.0080 H   0  0  0  0  0  0  0  0  0  0  0  0
   48.8080   32.7550   43.1130 H   0  0  0  0  0  0  0  0  0  0  0  0
   47.4290   32.4920   41.5220 C   0  0  0  0  0  0  0  0  0  0  0  0
   46.3440   32.7210   41.4940 H   0  0  0  0  0  0  0  0  0  0  0  0
   47.5330   31.4060   41.7250 H   0  0  0  0  0  0  0  0  0  0  0  0
   49.3040   32.1830   38.2800 C   0  0  0  0  0  0  0  0  0  0  0  0
   48.8010   31.9090   39.5670 C   0  0  0  0  0  0  0  0  0  0  0  0
   47.9490   32.7980   40.1660 C   0  0  0  0  0  0  0  0  0  0  0  0
   47.6320   33.9040   39.4840 N   0  0  0  0  0  0  0  0  0  0  0  0
   48.1110   34.1700   38.2530 C   0  0  0  0  0  0  0  0  0  0  0  0
   48.9470   33.3130   37.6450 N   0  0  0  0  0  0  0  0  0  0  0  0
   49.9790   31.4790   37.8030 H   0  0  0  0  0  0  0  0  0  0  0  0
   49.1360   30.9790   40.0060 H   0  0  0  0  0  0  0  0  0  0  0  0
   47.7960   35.0940   37.7790 H   0  0  0  0  0  0  0  0  0  0  0  0
   46.9280   32.6010   45.0130 O   0  0  0  0  0  0  0  0  0  0  0  0
   45.2350   30.7560   44.1300 O   0  0  0  0  0  0  0  0  0  0  0  0
   46.2270   31.0970   45.2520 P   0  0  2  0  0  0  0  0  0  0  0  0
   45.2540   31.2370   46.6560 O   0  0  0  0  0  0  0  0  0  0  0  0
   44.8710   30.3190   46.7850 H   0  0  0  0  0  0  0  0  0  0  0  0
   47.3100   29.8760   45.5180 O   0  0  0  0  0  0  0  0  0  0  0  0
   49.4190   29.2150   46.0590 C   0  0  0  0  0  0  0  0  0  0  0  0
   48.5910   29.7120   45.0460 C   0  0  0  0  0  0  0  0  0  0  0  0
   49.1490   29.9450   43.8060 C   0  0  0  0  0  0  0  0  0  0  0  0
   48.4180   30.3250   43.1070 H   0  0  0  0  0  0  0  0  0  0  0  0
   50.4860   29.6940   43.5810 C   0  0  0  0  0  0  0  0  0  0  0  0
   50.8440   29.9060   42.5770 H   0  0  0  0  0  0  0  0  0  0  0  0
   51.3140   29.2050   44.5700 C   0  0  0  0  0  3  0  0  0  0  0  0
   50.7750   28.9650   45.8170 C   0  0  0  0  0  3  0  0  0  0  0  0
   49.9950   28.5080   48.4770 H   0  0  0  0  0  0  0  0  0  0  0  0
   48.9130   28.8480   47.7090 S   0  0  0  0  0  0  0  0  0  0  0  0
   48.2840   30.0580   48.3480 O   0  0  0  0  0  0  0  0  0  0  0  0
   47.9040   27.7170   47.6400 O   0  0  0  0  0  0  0  0  0  0  0  0
  1  6  1  0  0  0  0
  2  3  1  0  0  0  0
  2  8  1  0  0  0  0
  2  1  1  0  0  0  0
  3  4  1  0  0  0  0
  4 12  1  0  0  0  0
  4  5  1  0  0  0  0
  5 14  1  0  0  0  0
  5 13  1  0  0  0  0
  6 15  1  6  0  0  0
  6  5  1  0  0  0  0
  6 31  1  0  0  0  0
  7  2  1  0  0  0  0
  9  3  1  0  0  0  0
 10  3  1  0  0  0  0
 11  4  1  0  0  0  0
 16 18  1  0  0  0  0
 16  1  1  0  0  0  0
 17 16  1  0  0  0  0
 19 21  1  0  0  0  0
 19 16  1  0  0  0  0
 20 19  1  0  0  0  0
 22 23  1  0  0  0  0
 23 29  1  0  0  0  0
 23 24  2  0  0  0  0
 24 19  1  0  0  0  0
 25 24  1  0  0  0  0
 26 25  2  0  0  0  0
 27 26  1  0  0  0  0
 27 22  2  0  0  0  0
 28 22  1  0  0  0  0
 30 26  1  0  0  0  0
 31 33  1  0  0  0  0
 33 32  2  6  0  0  0
 33 36  1  0  0  0  0
 33 34  1  0  0  0  0
 34 35  1  0  0  0  0
 37 46  1  0  0  0  0
 38 36  1  0  0  0  0
 38 37  2  0  0  0  0
 39 38  1  0  0  0  0
 40 39  1  0  0  0  0
 41 39  2  0  0  0  0
 41 43  1  0  0  0  0
 42 41  1  0  0  0  0
 43 44  2  0  0  0  0
 44 37  1  0  0  0  0
 46 47  2  0  0  0  0
 46 45  1  0  0  0  0
 48 46  2  0  0  0  0
M  END
>  <minimizedAffinity>
-4.24606133

>  <minimizedRMSD>
0.988393307

$$$$
