
 OpenBabel03252507033D

 50 53  0  0  0  0  0  0  0  0999 V2000
   43.5190   31.0810   40.9790 N   0  0  0  0  0  0  0  0  0  0  0  0
   44.1790   29.8930   40.5310 C   0  0  0  0  0  0  0  0  0  0  0  0
   42.9780   29.1680   39.9240 C   0  0  0  0  0  0  0  0  0  0  0  0
   42.3340   29.9010   38.8460 C   0  0  0  0  0  0  0  0  0  0  0  0
   42.4750   31.3400   38.8030 C   0  0  0  0  0  0  0  0  0  0  0  0
   43.1020   32.0690   39.9620 C   0  0  0  0  0  0  0  0  0  0  0  0
   44.9900   29.9730   39.8310 H   0  0  0  0  0  0  0  0  0  0  0  0
   44.5340   29.3170   41.4070 H   0  0  0  0  0  0  0  0  0  0  0  0
   43.4080   28.1970   39.5410 H   0  0  0  0  0  0  0  0  0  0  0  0
   42.3370   28.8740   40.7750 H   0  0  0  0  0  0  0  0  0  0  0  0
   41.2400   29.6620   38.8510 H   0  0  0  0  0  0  0  0  0  0  0  0
   42.6990   29.5160   37.8480 H   0  0  0  0  0  0  0  0  0  0  0  0
   42.1430   31.9470   38.0130 H   0  0  0  0  0  0  0  0  0  0  0  0
   43.2010   31.3990   42.2400 C   0  0  0  0  0  0  0  0  0  0  0  0
   42.9780   32.5130   42.3850 H   0  0  0  0  0  0  0  0  0  0  0  0
   42.2700   30.9080   42.5940 H   0  0  0  0  0  0  0  0  0  0  0  0
   44.2780   31.1140   43.2230 C   0  0  0  0  0  0  0  0  0  0  0  0
   44.7760   30.1170   43.0600 H   0  0  0  0  0  0  0  0  0  0  0  0
   43.8450   31.0910   44.2590 H   0  0  0  0  0  0  0  0  0  0  0  0
   45.2410   32.2290   43.1870 C   0  0  0  0  0  0  0  0  0  0  0  0
   44.8660   33.4920   43.5810 C   0  0  0  0  0  0  0  0  0  0  0  0
   45.8060   34.5090   43.5180 C   0  0  0  0  0  0  0  0  0  0  0  0
   47.0620   34.2020   43.0670 N   0  0  0  0  0  0  0  0  0  0  0  0
   47.3920   32.9760   42.6970 C   0  0  0  0  0  0  0  0  0  0  0  0
   46.4640   32.0110   42.7650 N   0  0  0  0  0  0  0  0  0  0  0  0
   43.9610   33.9220   43.9710 H   0  0  0  0  0  0  0  0  0  0  0  0
   45.6970   35.5550   43.7810 H   0  0  0  0  0  0  0  0  0  0  0  0
   48.7620   32.7280   42.2530 C   0  0  0  0  0  0  0  0  0  0  0  0
   49.0510   31.6510   41.4190 C   0  0  0  0  0  0  0  0  0  0  0  0
   50.3510   31.4290   41.0150 C   0  0  0  0  0  0  0  0  0  0  0  0
   51.2650   32.3350   41.4970 C   0  0  0  0  0  0  0  0  0  0  0  0
   51.0230   33.4260   42.3310 C   0  0  0  0  0  0  0  0  0  0  0  0
   49.7210   33.5750   42.6840 N   0  0  0  0  0  0  0  0  0  0  0  0
   48.2750   30.9770   41.0790 H   0  0  0  0  0  0  0  0  0  0  0  0
   50.6670   30.6350   40.3810 H   0  0  0  0  0  0  0  0  0  0  0  0
   52.3160   32.2110   41.2090 H   0  0  0  0  0  0  0  0  0  0  0  0
   51.8140   34.0740   42.6500 H   0  0  0  0  0  0  0  0  0  0  0  0
   43.2880   33.7700   40.0580 S   0  0  0  0  0  0  0  0  0  0  0  0
   41.3650   35.3360   39.8360 C   0  0  0  0  0  0  0  0  0  0  0  0
   42.4290   34.8570   39.0390 C   0  0  0  0  0  0  0  0  0  0  0  0
   42.4880   35.3750   37.7870 C   0  0  0  0  0  0  0  0  0  0  0  0
   43.2870   34.9650   37.2350 H   0  0  0  0  0  0  0  0  0  0  0  0
   41.6510   36.2880   37.2230 C   0  0  0  0  0  0  0  0  0  0  0  0
   41.8450   36.5870   36.2220 H   0  0  0  0  0  0  0  0  0  0  0  0
   40.6350   36.7200   38.0390 C   0  0  0  0  0  3  0  0  0  0  0  0
   40.4520   36.2780   39.3410 C   0  0  0  0  0  3  0  0  0  0  0  0
   39.8250   35.7750   41.8370 H   0  0  0  0  0  0  0  0  0  0  0  0
   40.8850   34.9620   41.5010 S   0  0  0  0  0  0  0  0  0  0  0  0
   42.0650   35.2170   42.3900 O   0  0  0  0  0  0  0  0  0  0  0  0
   40.4600   33.5370   41.5580 O   0  0  0  0  0  0  0  0  0  0  0  0
  1 14  1  0  0  0  0
  2  1  1  0  0  0  0
  2  8  1  0  0  0  0
  3  2  1  0  0  0  0
  3 10  1  0  0  0  0
  4 11  1  0  0  0  0
  4  3  1  0  0  0  0
  5  4  1  0  0  0  0
  5  6  2  0  0  0  0
  6 38  1  0  0  0  0
  6  1  1  0  0  0  0
  7  2  1  0  0  0  0
  9  3  1  0  0  0  0
 12  4  1  0  0  0  0
 13  5  1  0  0  0  0
 14 15  1  0  0  0  0
 14 16  1  0  0  0  0
 14 17  1  0  0  0  0
 17 19  1  0  0  0  0
 18 17  1  0  0  0  0
 20 17  1  0  0  0  0
 20 21  1  0  0  0  0
 21 26  1  0  0  0  0
 22 21  2  0  0  0  0
 22 27  1  0  0  0  0
 23 22  1  0  0  0  0
 24 25  1  0  0  0  0
 24 23  2  0  0  0  0
 25 20  2  0  0  0  0
 28 33  1  0  0  0  0
 28 24  1  0  0  0  0
 29 28  2  0  0  0  0
 30 29  1  0  0  0  0
 30 31  2  0  0  0  0
 31 32  1  0  0  0  0
 32 37  1  0  0  0  0
 32 33  2  0  0  0  0
 34 29  1  0  0  0  0
 35 30  1  0  0  0  0
 36 31  1  0  0  0  0
 39 48  1  0  0  0  0
 40 39  2  0  0  0  0
 40 38  1  0  0  0  0
 41 40  1  0  0  0  0
 42 41  1  0  0  0  0
 43 41  2  0  0  0  0
 43 45  1  0  0  0  0
 44 43  1  0  0  0  0
 45 46  2  0  0  0  0
 46 39  1  0  0  0  0
 48 50  2  0  0  0  0
 48 47  1  0  0  0  0
 48 49  2  0  0  0  0
M  END
>  <minimizedAffinity>
-3.7583487

>  <minimizedRMSD>
3.05084109

$$$$
