
 OpenBabel03252507383D

 41 45  0  0  0  0  0  0  0  0999 V2000
   47.8200   29.1440   43.5860 C   0  0  0  0  0  0  0  0  0  0  0  0
   46.4540   29.4640   43.7840 C   0  0  0  0  0  0  0  0  0  0  0  0
   45.5340   28.4390   43.6410 C   0  0  0  0  0  0  0  0  0  0  0  0
   45.9790   27.2060   43.3230 N   0  0  0  0  0  0  0  0  0  0  0  0
   47.2910   26.9240   43.1390 C   0  0  0  0  0  0  0  0  0  0  0  0
   48.1930   27.8880   43.2710 N   0  0  0  0  0  0  0  0  0  0  0  0
   46.0960   30.4530   44.0380 H   0  0  0  0  0  0  0  0  0  0  0  0
   47.5700   25.8990   42.8840 H   0  0  0  0  0  0  0  0  0  0  0  0
   43.5590   28.3150   45.0600 C   0  0  0  0  0  0  0  0  0  0  0  0
   44.0950   28.6090   43.8120 C   0  0  0  0  0  0  0  0  0  0  0  0
   43.2430   29.0400   42.8240 C   0  0  0  0  0  0  0  0  0  0  0  0
   41.8920   29.1890   43.0230 C   0  0  0  0  0  0  0  0  0  0  0  0
   40.8800   29.5860   42.2220 N   0  0  0  0  0  0  0  0  0  0  0  0
   39.7180   29.5370   42.9780 C   0  0  0  0  0  0  0  0  0  0  0  0
   40.0380   29.1180   44.2060 N   0  0  0  0  0  0  0  0  0  0  0  0
   41.3630   28.8990   44.2570 C   0  0  0  0  0  0  0  0  0  0  0  0
   42.1910   28.4640   45.2700 C   0  0  0  0  0  0  0  0  0  0  0  0
   44.1700   27.9700   45.8900 H   0  0  0  0  0  0  0  0  0  0  0  0
   43.6940   29.2630   41.8530 H   0  0  0  0  0  0  0  0  0  0  0  0
   40.9550   29.8770   41.2180 H   0  0  0  0  0  0  0  0  0  0  0  0
   38.7230   29.7960   42.6270 H   0  0  0  0  0  0  0  0  0  0  0  0
   41.8080   28.2250   46.2580 H   0  0  0  0  0  0  0  0  0  0  0  0
   48.7480   30.1820   43.7320 O   0  0  0  0  0  0  0  0  0  0  0  0
   49.1920   30.8690   42.6030 C   0  0  0  0  0  0  0  0  0  0  0  0
   50.5150   30.8930   42.8530 C   0  0  0  0  0  0  0  0  0  0  0  0
   51.1600   31.8240   41.3210 S   0  0  0  0  0  0  0  0  0  0  0  0
   49.4060   31.9670   40.6780 C   0  0  0  0  0  0  0  0  0  0  0  0
   48.8650   31.4570   41.4770 N   0  0  0  0  0  0  0  0  0  0  0  0
   51.6070   30.7170   43.4110 H   0  0  0  0  0  0  0  0  0  0  0  0
   48.4050   33.8490   39.3620 C   0  0  0  0  0  0  0  0  0  0  0  0
   49.0120   32.6400   39.3790 C   0  0  0  0  0  0  0  0  0  0  0  0
   49.3260   31.9190   38.2800 C   0  0  0  0  0  0  0  0  0  0  0  0
   49.8220   30.9370   38.3360 H   0  0  0  0  0  0  0  0  0  0  0  0
   49.0050   32.4560   37.0660 C   0  0  0  0  0  0  0  0  0  0  0  0
   49.2590   31.8770   36.1810 H   0  0  0  0  0  0  0  0  0  0  0  0
   48.3880   33.6720   36.9000 C   0  0  0  0  0  3  0  0  0  0  0  0
   48.1090   34.3290   38.0780 C   0  0  0  0  0  3  0  0  0  0  0  0
   47.6410   36.0360   40.5520 H   0  0  0  0  0  0  0  0  0  0  0  0
   48.0080   34.7610   40.7960 S   0  0  0  0  0  0  0  0  0  0  0  0
   49.2790   34.8270   41.6160 O   0  0  0  0  0  0  0  0  0  0  0  0
   47.0320   33.9910   41.6490 O   0  0  0  0  0  0  0  0  0  0  0  0
  1 23  1  0  0  0  0
  1  2  1  0  0  0  0
  2  7  1  0  0  0  0
  3  2  2  0  0  0  0
  3 10  1  0  0  0  0
  4  3  1  0  0  0  0
  5  6  1  0  0  0  0
  5  4  2  0  0  0  0
  6  1  2  0  0  0  0
  8  5  1  0  0  0  0
  9 17  1  0  0  0  0
  9 18  1  0  0  0  0
 10  9  2  0  0  0  0
 11 12  2  0  0  0  0
 11 10  1  0  0  0  0
 12 16  1  0  0  0  0
 13 14  1  0  0  0  0
 13 12  1  0  0  0  0
 14 15  2  0  0  0  0
 15 16  1  0  0  0  0
 16 17  2  0  0  0  0
 17 22  1  0  0  0  0
 19 11  1  0  0  0  0
 20 13  1  0  0  0  0
 21 14  1  0  0  0  0
 24 25  2  0  0  0  0
 24 23  1  0  0  0  0
 25 29  1  0  0  0  0
 26 25  1  0  0  0  0
 27 26  1  0  0  0  0
 27 28  2  0  0  0  0
 28 24  1  0  0  0  0
 30 31  1  0  0  0  0
 30 39  1  0  0  0  0
 31 27  1  0  0  0  0
 32 33  1  0  0  0  0
 32 31  2  0  0  0  0
 34 32  1  0  0  0  0
 35 34  1  0  0  0  0
 36 34  2  0  0  0  0
 36 37  1  0  0  0  0
 37 30  2  0  0  0  0
 38 39  1  0  0  0  0
 39 40  2  0  0  0  0
 39 41  2  0  0  0  0
M  END
>  <minimizedAffinity>
-4.01041794

>  <minimizedRMSD>
7.67983294

$$$$
