
 OpenBabel03252502503D

 37 39  0  0  0  0  0  0  0  0999 V2000
   44.5910   36.2540   43.9160 C   0  0  0  0  0  0  0  0  0  0  0  0
   44.7990   35.4710   45.0560 C   0  0  0  0  0  0  0  0  0  0  0  0
   45.5210   34.2960   44.9040 C   0  0  0  0  0  0  0  0  0  0  0  0
   45.9880   33.9600   43.6740 N   0  0  0  0  0  0  0  0  0  0  0  0
   45.7670   34.7460   42.5850 C   0  0  0  0  0  0  0  0  0  0  0  0
   45.0720   35.8850   42.7130 N   0  0  0  0  0  0  0  0  0  0  0  0
   44.0430   37.1850   43.9270 H   0  0  0  0  0  0  0  0  0  0  0  0
   44.3870   35.8350   45.9660 H   0  0  0  0  0  0  0  0  0  0  0  0
   48.5200   35.6990   41.9720 Cl  0  0  0  0  0  0  0  0  0  0  0  0
   47.5540   34.7020   40.9070 C   0  0  0  0  0  0  0  0  0  0  0  0
   46.2990   34.3220   41.2910 C   0  0  0  0  0  0  0  0  0  0  0  0
   45.4990   33.5230   40.4590 C   0  0  0  0  0  0  0  0  0  0  0  0
   46.0510   33.1570   39.2610 C   0  0  0  0  0  0  0  0  0  0  0  0
   47.2960   33.5340   38.8790 C   0  0  0  0  0  0  0  0  0  0  0  0
   48.0650   34.3070   39.6890 C   0  0  0  0  0  0  0  0  0  0  0  0
   44.4920   33.2290   40.7890 H   0  0  0  0  0  0  0  0  0  0  0  0
   45.3770   32.5360   38.6610 H   0  0  0  0  0  0  0  0  0  0  0  0
   47.6010   33.1710   37.9080 H   0  0  0  0  0  0  0  0  0  0  0  0
   49.0450   34.5750   39.3360 H   0  0  0  0  0  0  0  0  0  0  0  0
   45.7420   33.4630   46.1190 C   0  0  0  0  0  0  0  0  0  0  0  0
   44.7550   33.1740   46.4750 H   0  0  0  0  0  0  0  0  0  0  0  0
   46.2700   34.0960   46.8540 H   0  0  0  0  0  0  0  0  0  0  0  0
   46.6380   32.2660   45.8420 C   0  0  0  0  0  0  0  0  0  0  0  0
   46.8200   32.3130   44.7320 H   0  0  0  0  0  0  0  0  0  0  0  0
   47.6170   32.3640   46.3430 H   0  0  0  0  0  0  0  0  0  0  0  0
   45.7990   30.6000   47.3950 C   0  0  0  0  0  0  0  0  0  0  0  0
   45.9540   30.9850   46.0820 C   0  0  0  0  0  0  0  0  0  0  0  0
   45.4740   30.1780   45.0450 C   0  0  0  0  0  0  0  0  0  0  0  0
   45.6220   30.5270   44.0350 H   0  0  0  0  0  0  0  0  0  0  0  0
   44.8320   28.9740   45.3220 C   0  0  0  0  0  0  0  0  0  0  0  0
   44.4600   28.3480   44.5030 H   0  0  0  0  0  0  0  0  0  0  0  0
   44.6840   28.6000   46.6570 C   0  0  0  0  0  3  0  0  0  0  0  0
   45.1580   29.3970   47.6720 C   0  0  0  0  0  3  0  0  0  0  0  0
   46.6120   32.8180   48.4830 H   0  0  0  0  0  0  0  0  0  0  0  0
   46.3480   31.5100   48.7640 S   0  0  0  0  0  0  0  0  0  0  0  0
   45.2600   31.5080   49.8160 O   0  0  0  0  0  0  0  0  0  0  0  0
   47.5550   30.8470   49.3370 O   0  0  0  0  0  0  0  0  0  0  0  0
  1  7  1  0  0  0  0
  1  2  1  0  0  0  0
  2  8  1  0  0  0  0
  3  2  2  0  0  0  0
  3 20  1  0  0  0  0
  4  3  1  0  0  0  0
  5  6  1  0  0  0  0
  5  4  2  0  0  0  0
  6  1  2  0  0  0  0
 10 11  1  0  0  0  0
 10  9  1  0  0  0  0
 11  5  1  0  0  0  0
 12 16  1  0  0  0  0
 12 11  2  0  0  0  0
 13 12  1  0  0  0  0
 14 13  2  0  0  0  0
 14 15  1  0  0  0  0
 15 10  2  0  0  0  0
 17 13  1  0  0  0  0
 18 14  1  0  0  0  0
 19 15  1  0  0  0  0
 20 21  1  0  0  0  0
 20 22  1  0  0  0  0
 23 27  1  0  0  0  0
 23 20  1  0  0  0  0
 23 25  1  0  0  0  0
 24 23  1  0  0  0  0
 26 33  1  0  0  0  0
 26 35  1  0  0  0  0
 27 26  2  0  0  0  0
 28 30  2  0  0  0  0
 28 27  1  0  0  0  0
 29 28  1  0  0  0  0
 30 32  1  0  0  0  0
 31 30  1  0  0  0  0
 32 33  2  0  0  0  0
 34 35  1  0  0  0  0
 35 37  2  0  0  0  0
 35 36  2  0  0  0  0
M  END
>  <minimizedAffinity>
-6.18934298

>  <minimizedRMSD>
1.94794929

$$$$
