
 OpenBabel03242512013D

 50 53  0  0  1  0  0  0  0  0999 V2000
   47.1390   34.1170   42.4180 C   0  0  2  0  0  0  0  0  0  0  0  0
   48.5260   34.6700   42.5620 C   0  0  0  0  0  0  0  0  0  0  0  0
   48.8570   35.6540   41.5100 C   0  0  0  0  0  0  0  0  0  0  0  0
   48.6650   35.1060   40.1070 C   0  0  0  0  0  0  0  0  0  0  0  0
   47.4470   34.2450   39.9610 C   0  0  0  0  0  0  0  0  0  0  0  0
   46.4810   34.3840   41.1150 C   0  0  1  0  0  0  0  0  0  0  0  0
   47.2620   32.9960   42.5220 H   0  0  0  0  0  0  0  0  0  0  0  0
   48.5710   35.1800   43.5430 H   0  0  0  0  0  0  0  0  0  0  0  0
   49.3080   33.8860   42.5910 H   0  0  0  0  0  0  0  0  0  0  0  0
   48.3080   36.5960   41.6710 H   0  0  0  0  0  0  0  0  0  0  0  0
   49.9440   35.9000   41.5800 H   0  0  0  0  0  0  0  0  0  0  0  0
   49.5840   34.5410   39.8150 H   0  0  0  0  0  0  0  0  0  0  0  0
   48.6180   35.9890   39.4360 H   0  0  0  0  0  0  0  0  0  0  0  0
   46.9180   34.5590   39.0520 H   0  0  0  0  0  0  0  0  0  0  0  0
   47.7430   33.1860   39.8460 H   0  0  0  0  0  0  0  0  0  0  0  0
   46.0110   35.3680   40.9830 H   0  0  0  0  0  0  0  0  0  0  0  0
   46.2500   34.5000   43.5320 C   0  0  0  0  0  0  0  0  0  0  0  0
   45.5780   35.6890   43.3100 C   0  0  0  0  0  0  0  0  0  0  0  0
   44.6920   36.1770   44.2850 C   0  0  0  0  0  0  0  0  0  0  0  0
   44.5640   35.3890   45.4350 N   0  0  0  0  0  0  0  0  0  0  0  0
   45.2440   34.2360   45.6010 C   0  0  0  0  0  0  0  0  0  0  0  0
   46.0830   33.8060   44.6430 N   0  0  0  0  0  0  0  0  0  0  0  0
   45.5470   36.4250   42.5210 H   0  0  0  0  0  0  0  0  0  0  0  0
   44.0910   37.0720   44.2800 H   0  0  0  0  0  0  0  0  0  0  0  0
   45.0980   33.6830   46.5070 H   0  0  0  0  0  0  0  0  0  0  0  0
   45.3920   33.3650   40.9240 C   0  0  2  0  0  0  0  0  0  0  0  0
   44.7110   33.3090   39.5700 C   0  0  0  0  0  0  0  0  0  0  0  0
   43.9760   33.8020   40.7540 C   0  0  1  0  0  0  0  0  0  0  0  0
   45.6320   32.3600   41.3270 H   0  0  0  0  0  0  0  0  0  0  0  0
   44.9460   34.0460   38.7900 H   0  0  0  0  0  0  0  0  0  0  0  0
   44.4000   32.3210   39.1680 H   0  0  0  0  0  0  0  0  0  0  0  0
   43.8430   34.8960   40.8950 H   0  0  0  0  0  0  0  0  0  0  0  0
   43.0160   32.9610   41.5290 C   0  0  0  0  0  0  0  0  0  0  0  0
   43.1040   33.2760   42.6050 H   0  0  0  0  0  0  0  0  0  0  0  0
   43.3570   31.9090   41.4950 H   0  0  0  0  0  0  0  0  0  0  0  0
   41.5800   33.1390   41.1470 C   0  0  0  0  0  0  0  0  0  0  0  0
   41.4280   34.2300   40.8820 H   0  0  0  0  0  0  0  0  0  0  0  0
   40.9610   33.0090   42.0560 H   0  0  0  0  0  0  0  0  0  0  0  0
   40.3480   32.9580   39.0080 C   0  0  0  0  0  0  0  0  0  0  0  0
   41.1480   32.3860   39.9720 C   0  0  0  0  0  0  0  0  0  0  0  0
   41.5080   31.0520   39.7470 C   0  0  0  0  0  0  0  0  0  0  0  0
   42.1370   30.6210   40.5180 H   0  0  0  0  0  0  0  0  0  0  0  0
   41.1120   30.3040   38.6350 C   0  0  0  0  0  0  0  0  0  0  0  0
   41.4710   29.2920   38.6050 H   0  0  0  0  0  0  0  0  0  0  0  0
   40.3150   30.9200   37.7020 C   0  0  0  0  0  3  0  0  0  0  0  0
   39.9420   32.2350   37.8940 C   0  0  0  0  0  3  0  0  0  0  0  0
   39.1240   34.9230   37.8870 H   0  0  0  0  0  0  0  0  0  0  0  0
   39.7710   34.5930   39.0620 S   0  0  0  0  0  0  0  0  0  0  0  0
   38.6700   34.6340   40.1150 O   0  0  0  0  0  0  0  0  0  0  0  0
   40.8120   35.6220   39.2710 O   0  0  0  0  0  0  0  0  0  0  0  0
  1  7  1  1  0  0  0
  1  2  1  0  0  0  0
  1 17  1  0  0  0  0
  2  9  1  0  0  0  0
  2  8  1  0  0  0  0
  3 11  1  0  0  0  0
  3 10  1  0  0  0  0
  3  2  1  0  0  0  0
  4  3  1  0  0  0  0
  5  4  1  0  0  0  0
  5  6  1  0  0  0  0
  6 16  1  1  0  0  0
  6  1  1  0  0  0  0
 12  4  1  0  0  0  0
 13  4  1  0  0  0  0
 14  5  1  0  0  0  0
 15  5  1  0  0  0  0
 17 22  1  0  0  0  0
 18 17  2  0  0  0  0
 18 19  1  0  0  0  0
 19 20  2  0  0  0  0
 20 21  1  0  0  0  0
 21 25  1  0  0  0  0
 22 21  2  0  0  0  0
 23 18  1  0  0  0  0
 24 19  1  0  0  0  0
 26  6  1  0  0  0  0
 26 29  1  1  0  0  0
 27 28  1  0  0  0  0
 27 26  1  0  0  0  0
 28 32  1  1  0  0  0
 28 26  1  0  0  0  0
 28 33  1  0  0  0  0
 30 27  1  0  0  0  0
 31 27  1  0  0  0  0
 33 34  1  0  0  0  0
 35 33  1  0  0  0  0
 36 33  1  0  0  0  0
 36 38  1  0  0  0  0
 37 36  1  0  0  0  0
 39 48  1  0  0  0  0
 39 40  1  0  0  0  0
 40 36  1  0  0  0  0
 41 40  2  0  0  0  0
 41 42  1  0  0  0  0
 43 41  1  0  0  0  0
 44 43  1  0  0  0  0
 45 46  1  0  0  0  0
 45 43  2  0  0  0  0
 46 39  2  0  0  0  0
 47 48  1  0  0  0  0
 48 50  2  0  0  0  0
 48 49  2  0  0  0  0
M  END
>  <minimizedAffinity>
-6.15225267

>  <minimizedRMSD>
1.11700571

$$$$
