
 OpenBabel03252500273D

 46 48  0  0  1  0  0  0  0  0999 V2000
   47.1100   32.9640   46.9990 O   0  0  0  0  0  0  0  0  0  0  0  0
   45.6920   32.5220   46.9180 P   0  0  1  0  0  0  0  0  0  0  0  0
   45.5220   31.4150   45.6500 O   0  0  0  0  0  0  0  0  0  0  0  0
   44.6920   31.5310   45.1420 H   0  0  0  0  0  0  0  0  0  0  0  0
   45.3290   31.8000   48.3580 O   0  0  0  0  0  0  0  0  0  0  0  0
   47.3820   30.5870   48.2730 C   0  0  2  0  0  0  0  0  0  0  0  0
   45.9120   30.5590   48.4240 C   0  0  2  0  0  0  0  0  0  0  0  0
   45.4170   29.6380   47.4210 C   0  0  0  0  0  0  0  0  0  0  0  0
   46.4560   28.7660   47.0600 O   0  0  0  0  0  0  0  0  0  0  0  0
   47.5010   29.0670   47.8610 C   0  0  0  0  0  0  0  0  0  0  0  0
   47.8070   30.9600   47.3250 H   0  0  0  0  0  0  0  0  0  0  0  0
   45.7750   30.2730   49.5070 H   0  0  0  0  0  0  0  0  0  0  0  0
   44.6540   29.8390   46.7040 H   0  0  0  0  0  0  0  0  0  0  0  0
   44.8200   28.8790   48.0430 H   0  0  0  0  0  0  0  0  0  0  0  0
   47.3410   28.5400   48.8460 H   0  0  0  0  0  0  0  0  0  0  0  0
   48.5070   28.8410   47.5220 H   0  0  0  0  0  0  0  0  0  0  0  0
   48.1230   30.7700   49.3730 O   0  0  0  0  0  0  0  0  0  0  0  0
   49.3020   31.3170   49.4340 C   0  0  0  0  0  0  0  0  0  0  0  0
   49.4370   32.3470   49.2890 H   0  0  0  0  0  0  0  0  0  0  0  0
   49.8620   30.9340   48.4230 H   0  0  0  0  0  0  0  0  0  0  0  0
   50.0970   30.6390   50.5370 C   0  0  0  0  0  0  0  0  0  0  0  0
   51.1760   30.6210   50.2220 H   0  0  0  0  0  0  0  0  0  0  0  0
   49.8110   29.5900   50.6690 H   0  0  0  0  0  0  0  0  0  0  0  0
   50.0730   31.2240   51.4790 H   0  0  0  0  0  0  0  0  0  0  0  0
   44.7830   33.9450   46.6540 O   0  0  0  0  0  0  0  0  0  0  0  0
   45.0180   36.8080   44.5150 C   0  0  0  0  0  0  0  0  0  0  0  0
   45.1080   36.2510   43.2190 C   0  0  0  0  0  0  0  0  0  0  0  0
   45.0840   34.8290   43.1110 C   0  0  0  0  0  0  0  0  0  0  0  0
   44.9790   34.1030   44.2410 N   0  0  0  0  0  0  0  0  0  0  0  0
   44.8950   34.6800   45.4560 C   0  0  0  0  0  0  0  0  0  0  0  0
   44.9170   36.0070   45.5630 N   0  0  0  0  0  0  0  0  0  0  0  0
   45.1940   36.6040   42.2150 H   0  0  0  0  0  0  0  0  0  0  0  0
   45.1420   34.2240   42.2200 H   0  0  0  0  0  0  0  0  0  0  0  0
   45.0380   38.1390   44.5840 O   0  0  0  0  0  0  0  0  0  0  0  0
   45.0140   40.2410   44.7300 C   0  0  0  0  0  0  0  0  0  0  0  0
   45.1520   39.1820   43.8100 C   0  0  0  0  0  0  0  0  0  0  0  0
   45.3400   39.5960   42.5270 C   0  0  0  0  0  0  0  0  0  0  0  0
   45.4420   38.7850   41.8500 H   0  0  0  0  0  0  0  0  0  0  0  0
   45.4080   40.8840   42.0560 C   0  0  0  0  0  0  0  0  0  0  0  0
   45.5640   41.0210   40.9990 H   0  0  0  0  0  0  0  0  0  0  0  0
   45.2670   41.8680   43.0070 C   0  0  0  0  0  3  0  0  0  0  0  0
   45.0670   41.5900   44.3620 C   0  0  0  0  0  3  0  0  0  0  0  0
   43.9900   39.1430   46.7950 H   0  0  0  0  0  0  0  0  0  0  0  0
   44.7550   40.2360   46.4880 S   0  0  0  0  0  0  0  0  0  0  0  0
   46.0820   40.1570   47.1800 O   0  0  0  0  0  0  0  0  0  0  0  0
   44.0670   41.5270   46.8340 O   0  0  0  0  0  0  0  0  0  0  0  0
  2  1  2  1  0  0  0
  2  5  1  0  0  0  0
  3  2  1  0  0  0  0
  4  3  1  0  0  0  0
  5  7  1  0  0  0  0
  6 11  1  6  0  0  0
  6  7  1  0  0  0  0
  6 17  1  0  0  0  0
  7 12  1  1  0  0  0
  8 14  1  0  0  0  0
  8  7  1  0  0  0  0
  9  8  1  0  0  0  0
  9 10  1  0  0  0  0
 10  6  1  0  0  0  0
 10 15  1  0  0  0  0
 13  8  1  0  0  0  0
 16 10  1  0  0  0  0
 17 18  1  0  0  0  0
 18 21  1  0  0  0  0
 19 18  1  0  0  0  0
 20 18  1  0  0  0  0
 21 23  1  0  0  0  0
 21 24  1  0  0  0  0
 22 21  1  0  0  0  0
 25  2  1  0  0  0  0
 26 34  1  0  0  0  0
 26 31  1  0  0  0  0
 27 26  2  0  0  0  0
 28 27  1  0  0  0  0
 28 29  2  0  0  0  0
 29 30  1  0  0  0  0
 30 31  2  0  0  0  0
 30 25  1  0  0  0  0
 32 27  1  0  0  0  0
 33 28  1  0  0  0  0
 35 44  1  0  0  0  0
 36 34  1  0  0  0  0
 36 35  2  0  0  0  0
 37 36  1  0  0  0  0
 38 37  1  0  0  0  0
 39 37  2  0  0  0  0
 39 41  1  0  0  0  0
 40 39  1  0  0  0  0
 41 42  2  0  0  0  0
 42 35  1  0  0  0  0
 44 43  1  0  0  0  0
 44 46  2  0  0  0  0
 44 45  2  0  0  0  0
M  END
>  <minimizedAffinity>
1.69891858

>  <minimizedRMSD>
1.56162667

$$$$
