
 OpenBabel03242518253D

 48 52  0  0  1  0  0  0  0  0999 V2000
   46.9550   30.8090   43.4200 C   0  0  0  0  0  0  0  0  0  0  0  0
   46.0940   31.6860   44.0220 C   0  0  0  0  0  0  0  0  0  0  0  0
   46.1960   31.8630   45.3780 C   0  0  0  0  0  0  0  0  0  0  0  0
   47.1390   31.1730   46.1020 C   0  0  0  0  0  0  0  0  0  0  0  0
   48.0070   30.2870   45.4840 C   0  0  0  0  0  0  0  0  0  0  0  0
   47.9210   30.0910   44.1080 C   0  0  0  0  0  0  0  0  0  0  0  0
   48.8460   29.7410   46.4780 O   0  0  0  0  0  0  0  0  0  0  0  0
   48.2560   30.0240   47.7250 C   0  0  2  0  0  0  0  0  0  0  0  0
   47.4500   31.1690   47.4780 O   0  0  0  0  0  0  0  0  0  0  0  0
   46.8940   30.6520   42.3480 H   0  0  0  0  0  0  0  0  0  0  0  0
   45.5260   32.5530   45.8850 H   0  0  0  0  0  0  0  0  0  0  0  0
   48.6010   29.3950   43.6100 H   0  0  0  0  0  0  0  0  0  0  0  0
   47.5190   29.2020   47.9440 H   0  0  0  0  0  0  0  0  0  0  0  0
   44.2780   34.4300   42.3700 C   0  0  0  0  0  0  0  0  0  0  0  0
   43.2580   33.7610   41.7010 C   0  0  0  0  0  0  0  0  0  0  0  0
   43.2040   32.3690   41.8250 C   0  0  0  0  0  0  0  0  0  0  0  0
   44.1290   31.7260   42.5780 N   0  0  0  0  0  0  0  0  0  0  0  0
   45.1040   32.4010   43.2130 C   0  0  0  0  0  0  0  0  0  0  0  0
   45.1810   33.7510   43.1120 N   0  0  0  0  0  0  0  0  0  0  0  0
   44.3650   35.5110   42.3070 H   0  0  0  0  0  0  0  0  0  0  0  0
   42.4160   31.8820   41.3030 H   0  0  0  0  0  0  0  0  0  0  0  0
   42.3680   34.5660   40.9540 N   0  0  0  0  0  0  0  0  0  0  0  0
   42.4300   34.4600   39.5150 C   0  0  0  0  0  0  0  0  0  0  0  0
   41.5280   35.4000   38.8040 C   0  0  0  0  0  0  0  0  0  0  0  0
   40.2120   35.4140   39.3310 N   0  0  0  0  0  0  0  0  0  0  0  0
   40.0710   35.3080   40.7350 C   0  0  0  0  0  0  0  0  0  0  0  0
   41.3930   35.4920   41.4510 C   0  0  0  0  0  0  0  0  0  0  0  0
   43.4880   34.6260   39.1820 H   0  0  0  0  0  0  0  0  0  0  0  0
   42.1540   33.4210   39.2390 H   0  0  0  0  0  0  0  0  0  0  0  0
   41.5130   35.1530   37.7360 H   0  0  0  0  0  0  0  0  0  0  0  0
   41.9740   36.4220   38.9130 H   0  0  0  0  0  0  0  0  0  0  0  0
   39.5730   36.0400   38.8330 H   0  0  0  0  0  0  0  0  0  0  0  0
   39.6840   34.2910   41.0350 H   0  0  0  0  0  0  0  0  0  0  0  0
   39.3380   36.0290   41.1580 H   0  0  0  0  0  0  0  0  0  0  0  0
   41.7200   36.5420   41.4810 H   0  0  0  0  0  0  0  0  0  0  0  0
   41.1920   35.1870   42.5150 H   0  0  0  0  0  0  0  0  0  0  0  0
   49.8670   29.0960   49.3360 C   0  0  0  0  0  0  0  0  0  0  0  0
   49.2050   30.1950   48.8310 C   0  0  0  0  0  0  0  0  0  0  0  0
   49.4090   31.4670   49.3370 C   0  0  0  0  0  0  0  0  0  0  0  0
   48.8950   32.3370   48.9480 H   0  0  0  0  0  0  0  0  0  0  0  0
   50.2880   31.6960   50.3750 C   0  0  0  0  0  0  0  0  0  0  0  0
   50.4950   32.6520   50.8160 H   0  0  0  0  0  0  0  0  0  0  0  0
   50.9650   30.6350   50.9050 C   0  0  0  0  0  0  0  0  0  0  0  0
   50.7390   29.3820   50.3770 C   0  0  0  0  0  0  0  0  0  0  0  0
   48.3330   27.1920   48.4340 H   0  0  0  0  0  0  0  0  0  0  0  0
   49.6390   27.4760   48.7240 S   0  0  0  0  0  0  0  0  0  0  0  0
   50.0150   26.5230   49.8480 O   0  0  0  0  0  0  0  0  0  0  0  0
   50.5710   27.1430   47.5960 O   0  0  0  0  0  0  0  0  0  0  0  0
  1  2  2  0  0  0  0
  1  6  1  0  0  0  0
  2  3  1  0  0  0  0
  3 11  1  0  0  0  0
  3  4  2  0  0  0  0
  4  9  1  0  0  0  0
  5  4  1  0  0  0  0
  5  7  1  0  0  0  0
  6  5  2  0  0  0  0
  7  8  1  0  0  0  0
  8 13  1  1  0  0  0
  8 38  1  0  0  0  0
  9  8  1  0  0  0  0
 10  1  1  0  0  0  0
 12  6  1  0  0  0  0
 14 19  1  0  0  0  0
 15 16  1  0  0  0  0
 15 14  2  0  0  0  0
 16 17  2  0  0  0  0
 17 18  1  0  0  0  0
 18  2  1  0  0  0  0
 19 18  2  0  0  0  0
 20 14  1  0  0  0  0
 21 16  1  0  0  0  0
 22 27  1  0  0  0  0
 22 15  1  0  0  0  0
 23 22  1  0  0  0  0
 24 31  1  0  0  0  0
 24 25  1  0  0  0  0
 24 23  1  0  0  0  0
 25 26  1  0  0  0  0
 26 33  1  0  0  0  0
 26 34  1  0  0  0  0
 26 27  1  0  0  0  0
 27 35  1  0  0  0  0
 27 36  1  0  0  0  0
 28 23  1  0  0  0  0
 29 23  1  0  0  0  0
 30 24  1  0  0  0  0
 32 25  1  0  0  0  0
 37 44  1  0  0  0  0
 38 37  2  0  0  0  0
 38 39  1  0  0  0  0
 39 41  2  0  0  0  0
 40 39  1  0  0  0  0
 41 42  1  0  0  0  0
 41 43  1  0  0  0  0
 44 43  2  0  0  0  0
 45 46  1  0  0  0  0
 46 37  1  0  0  0  0
 46 47  2  0  0  0  0
 48 46  2  0  0  0  0
M  END
>  <minimizedAffinity>
-5.73256493

>  <minimizedRMSD>
1.51301372

$$$$
