
 OpenBabel03252504503D

 37 39  0  0  0  0  0  0  0  0999 V2000
   47.0440   34.6090   42.8530 C   0  0  0  0  0  0  0  0  0  0  0  0
   48.1900   34.1380   42.1950 C   0  0  0  0  0  0  0  0  0  0  0  0
   48.8060   33.0110   42.7160 C   0  0  0  0  0  0  0  0  0  0  0  0
   48.2560   32.4440   43.8270 N   0  0  0  0  0  0  0  0  0  0  0  0
   47.1680   32.9100   44.4350 C   0  0  0  0  0  0  0  0  0  0  0  0
   46.5540   34.0050   43.9430 N   0  0  0  0  0  0  0  0  0  0  0  0
   46.4930   35.4880   42.5220 H   0  0  0  0  0  0  0  0  0  0  0  0
   49.6880   32.6110   42.2480 H   0  0  0  0  0  0  0  0  0  0  0  0
   45.6570   30.3090   43.8880 Cl  0  0  0  0  0  0  0  0  0  0  0  0
   45.9330   31.0590   45.4730 C   0  0  0  0  0  0  0  0  0  0  0  0
   46.6370   32.2490   45.6210 C   0  0  0  0  0  0  0  0  0  0  0  0
   46.8340   32.8030   46.8570 C   0  0  0  0  0  0  0  0  0  0  0  0
   46.3210   32.1640   47.9800 C   0  0  0  0  0  0  0  0  0  0  0  0
   45.6310   30.9920   47.7960 C   0  0  0  0  0  0  0  0  0  0  0  0
   44.9900   30.2010   49.2120 Cl  0  0  0  0  0  0  0  0  0  0  0  0
   45.4140   30.4080   46.5770 C   0  0  0  0  0  0  0  0  0  0  0  0
   47.3760   33.7270   47.0110 H   0  0  0  0  0  0  0  0  0  0  0  0
   46.4520   32.5670   48.9780 H   0  0  0  0  0  0  0  0  0  0  0  0
   44.8530   29.4680   46.5090 H   0  0  0  0  0  0  0  0  0  0  0  0
   48.6710   34.8440   41.0200 C   0  0  0  0  0  0  0  0  0  0  0  0
   48.6360   35.9380   41.1940 H   0  0  0  0  0  0  0  0  0  0  0  0
   49.7220   34.5880   40.8540 H   0  0  0  0  0  0  0  0  0  0  0  0
   47.7550   34.5570   39.8590 C   0  0  0  0  0  0  0  0  0  0  0  0
   48.0480   35.2820   39.0540 H   0  0  0  0  0  0  0  0  0  0  0  0
   46.7410   34.9110   40.1840 H   0  0  0  0  0  0  0  0  0  0  0  0
   46.5740   32.4510   39.4360 C   0  0  0  0  0  0  0  0  0  0  0  0
   47.7580   33.1600   39.4160 C   0  0  0  0  0  0  0  0  0  0  0  0
   48.9280   32.5760   38.9750 C   0  0  0  0  0  0  0  0  0  0  0  0
   49.8570   33.1680   38.9700 H   0  0  0  0  0  0  0  0  0  0  0  0
   48.9890   31.2750   38.5360 C   0  0  0  0  0  0  0  0  0  0  0  0
   49.9310   30.8660   38.2010 H   0  0  0  0  0  0  0  0  0  0  0  0
   47.7860   30.5860   38.5670 C   0  0  0  0  0  3  0  0  0  0  0  0
   46.5990   31.1240   38.9960 C   0  0  0  0  0  3  0  0  0  0  0  0
   45.2050   34.1240   40.8680 H   0  0  0  0  0  0  0  0  0  0  0  0
   45.0540   33.0780   39.9740 S   0  0  0  0  0  0  0  0  0  0  0  0
   44.1100   33.4180   38.8580 O   0  0  0  0  0  0  0  0  0  0  0  0
   44.3510   31.9850   40.7660 O   0  0  0  0  0  0  0  0  0  0  0  0
  1  6  1  0  0  0  0
  2  3  1  0  0  0  0
  2  1  2  0  0  0  0
  3  4  2  0  0  0  0
  4  5  1  0  0  0  0
  5 11  1  0  0  0  0
  6  5  2  0  0  0  0
  7  1  1  0  0  0  0
  8  3  1  0  0  0  0
  9 10  1  0  0  0  0
 10 11  2  0  0  0  0
 10 16  1  0  0  0  0
 11 12  1  0  0  0  0
 12 17  1  0  0  0  0
 12 13  2  0  0  0  0
 13 18  1  0  0  0  0
 14 13  1  0  0  0  0
 14 15  1  0  0  0  0
 16 14  2  0  0  0  0
 19 16  1  0  0  0  0
 20 21  1  0  0  0  0
 20  2  1  0  0  0  0
 22 20  1  0  0  0  0
 23 25  1  0  0  0  0
 23 20  1  0  0  0  0
 24 23  1  0  0  0  0
 26 35  1  0  0  0  0
 27 26  1  0  0  0  0
 27 23  1  0  0  0  0
 28 27  2  0  0  0  0
 29 28  1  0  0  0  0
 30 32  2  0  0  0  0
 30 28  1  0  0  0  0
 31 30  1  0  0  0  0
 32 33  1  0  0  0  0
 33 26  2  0  0  0  0
 35 37  2  0  0  0  0
 35 34  1  0  0  0  0
 36 35  2  0  0  0  0
M  END
>  <minimizedAffinity>
-4.52239943

>  <minimizedRMSD>
1.03971648

$$$$
