
 OpenBabel03242521553D

 51 55  0  0  0  0  0  0  0  0999 V2000
   46.0720   32.2980   46.1200 C   0  0  0  0  0  0  0  0  0  0  0  0
   45.8610   32.9490   47.3310 C   0  0  0  0  0  0  0  0  0  0  0  0
   46.1250   32.3540   48.5710 C   0  0  0  0  0  0  0  0  0  0  0  0
   46.6130   31.0780   48.6410 C   0  0  0  0  0  0  0  0  0  0  0  0
   46.8280   30.3940   47.4300 C   0  0  0  0  0  0  0  0  0  0  0  0
   47.2550   29.1100   47.5400 C   0  0  0  0  0  0  0  0  0  0  0  0
   47.4010   28.3760   46.3570 C   0  0  0  0  0  0  0  0  0  0  0  0
   47.0850   29.0150   45.1080 C   0  0  0  0  0  0  0  0  0  0  0  0
   46.6620   30.3230   45.1670 C   0  0  0  0  0  0  0  0  0  0  0  0
   46.5250   31.0750   46.2490 C   0  0  0  0  0  0  0  0  0  0  0  0
   45.4680   33.9790   47.2910 H   0  0  0  0  0  0  0  0  0  0  0  0
   45.9220   32.9550   49.4350 H   0  0  0  0  0  0  0  0  0  0  0  0
   46.8150   30.6440   49.6200 H   0  0  0  0  0  0  0  0  0  0  0  0
   47.4730   28.6760   48.5080 H   0  0  0  0  0  0  0  0  0  0  0  0
   47.7470   27.3690   46.5250 H   0  0  0  0  0  0  0  0  0  0  0  0
   47.2840   28.2290   44.3960 H   0  0  0  0  0  0  0  0  0  0  0  0
   44.7690   29.8490   43.8840 C   0  0  0  0  0  0  0  0  0  0  0  0
   46.1490   30.2830   43.8100 C   0  0  0  0  0  0  0  0  0  0  0  0
   46.5530   30.3710   42.5440 C   0  0  0  0  0  0  0  0  0  0  0  0
   45.7760   30.0870   41.4320 C   0  0  0  0  0  0  0  0  0  0  0  0
   44.4700   29.6750   41.5370 C   0  0  0  0  0  0  0  0  0  0  0  0
   43.9560   29.5520   42.8040 C   0  0  0  0  0  0  0  0  0  0  0  0
   47.5940   30.7040   42.5920 H   0  0  0  0  0  0  0  0  0  0  0  0
   46.4090   30.2600   40.5610 H   0  0  0  0  0  0  0  0  0  0  0  0
   44.1800   29.5500   40.5230 H   0  0  0  0  0  0  0  0  0  0  0  0
   44.0100   29.6530   45.0660 O   0  0  0  0  0  0  0  0  0  0  0  0
   43.6850   30.4960   45.5610 H   0  0  0  0  0  0  0  0  0  0  0  0
   42.6710   29.1200   42.8380 O   0  0  0  0  0  0  0  0  0  0  0  0
   40.6060   29.1070   43.2510 C   0  0  0  0  0  0  0  0  0  0  0  0
   41.5820   29.3210   42.2330 C   0  0  0  0  0  0  0  0  0  0  0  0
   41.0070   29.6480   41.0460 C   0  0  0  0  0  0  0  0  0  0  0  0
   41.7080   29.8150   40.2570 H   0  0  0  0  0  0  0  0  0  0  0  0
   39.6970   29.8010   40.6670 C   0  0  0  0  0  0  0  0  0  0  0  0
   39.4270   30.0690   39.6590 H   0  0  0  0  0  0  0  0  0  0  0  0
   38.8120   29.5810   41.6940 C   0  0  0  0  0  0  0  0  0  0  0  0
   39.2300   29.2430   42.9540 C   0  0  0  0  0  0  0  0  0  0  0  0
   42.1290   29.2220   45.3560 H   0  0  0  0  0  0  0  0  0  0  0  0
   40.9530   28.6650   44.9340 S   0  0  0  0  0  0  0  0  0  0  0  0
   39.8550   29.2160   45.7790 O   0  0  0  0  0  0  0  0  0  0  0  0
   40.9200   27.1770   45.1000 O   0  0  0  0  0  0  0  0  0  0  0  0
   45.2650   34.1740   42.9960 C   0  0  0  0  0  0  0  0  0  0  0  0
   46.5660   34.5660   42.6050 C   0  0  0  0  0  0  0  0  0  0  0  0
   47.6000   34.1410   43.4130 C   0  0  0  0  0  0  0  0  0  0  0  0
   47.2370   33.4130   44.4690 N   0  0  0  0  0  0  0  0  0  0  0  0
   46.0300   33.0300   44.8650 C   0  0  0  0  0  0  0  0  0  0  0  0
   45.0670   33.4350   44.0900 N   0  0  0  0  0  0  0  0  0  0  0  0
   44.4410   34.4940   42.3760 H   0  0  0  0  0  0  0  0  0  0  0  0
   46.7590   35.1590   41.7340 H   0  0  0  0  0  0  0  0  0  0  0  0
   48.9580   34.4000   43.1090 N   0  0  0  0  0  0  0  0  0  0  0  0
   49.6860   33.6800   42.9080 H   0  0  0  0  0  0  0  0  0  0  0  0
   49.2530   35.3910   43.0850 H   0  0  0  0  0  0  0  0  0  0  0  0
  1 10  2  0  0  0  0
  1  2  1  0  0  0  0
  2  3  2  0  0  0  0
  3  4  1  0  0  0  0
  3 12  1  0  0  0  0
  4 13  1  0  0  0  0
  5  6  1  0  0  0  0
  5  4  2  0  0  0  0
  6 14  1  0  0  0  0
  7 15  1  0  0  0  0
  7  6  2  0  0  0  0
  8  9  2  0  0  0  0
  8  7  1  0  0  0  0
  9 10  1  0  0  0  0
 10  5  1  0  0  0  0
 11  2  1  0  0  0  0
 16  8  1  0  0  0  0
 17 26  1  0  0  0  0
 18 17  1  0  0  0  0
 18  9  1  0  0  0  0
 19 23  1  0  0  0  0
 19 18  2  0  0  0  0
 20 21  2  0  0  0  0
 20 19  1  0  0  0  0
 21 22  1  0  0  0  0
 22 28  1  0  0  0  0
 22 17  2  0  0  0  0
 24 20  1  0  0  0  0
 25 21  1  0  0  0  0
 26 27  1  0  0  0  0
 29 38  1  0  0  0  0
 30 28  1  0  0  0  0
 30 29  2  0  0  0  0
 31 30  1  0  0  0  0
 32 31  1  0  0  0  0
 33 31  2  0  0  0  0
 33 35  1  0  0  0  0
 34 33  1  0  0  0  0
 35 36  2  0  0  0  0
 36 29  1  0  0  0  0
 38 40  2  0  0  0  0
 38 37  1  0  0  0  0
 38 39  2  0  0  0  0
 41 46  1  0  0  0  0
 42 41  2  0  0  0  0
 42 43  1  0  0  0  0
 43 44  2  0  0  0  0
 44 45  1  0  0  0  0
 45  1  1  0  0  0  0
 46 45  2  0  0  0  0
 47 41  1  0  0  0  0
 48 42  1  0  0  0  0
 49 43  1  0  0  0  0
 50 49  1  0  0  0  0
 51 49  1  0  0  0  0
M  END
>  <minimizedAffinity>
-5.78857183

>  <minimizedRMSD>
0.891684175

$$$$
