
 OpenBabel03252505493D

 25 26  0  0  0  0  0  0  0  0999 V2000
   45.4790   32.7020   47.4980 O   0  0  0  0  0  0  0  0  0  0  0  0
   44.7030   35.3320   45.1970 C   0  0  0  0  0  0  0  0  0  0  0  0
   45.4570   35.0200   44.0800 C   0  0  0  0  0  0  0  0  0  0  0  0
   46.2520   33.8640   44.1410 C   0  0  0  0  0  0  0  0  0  0  0  0
   46.2430   33.1230   45.2630 N   0  0  0  0  0  0  0  0  0  0  0  0
   45.4990   33.4530   46.3290 C   0  0  0  0  0  0  0  0  0  0  0  0
   44.7290   34.5470   46.3130 N   0  0  0  0  0  0  0  0  0  0  0  0
   44.0690   36.2170   45.2040 H   0  0  0  0  0  0  0  0  0  0  0  0
   46.8330   33.6350   43.2640 H   0  0  0  0  0  0  0  0  0  0  0  0
   45.3670   35.9330   42.9150 C   0  0  0  0  0  0  0  0  0  0  0  0
   45.2220   37.2010   43.4390 F   0  0  0  0  0  0  0  0  0  0  0  0
   44.2800   35.5730   42.1640 F   0  0  0  0  0  0  0  0  0  0  0  0
   46.5470   35.8020   42.1820 F   0  0  0  0  0  0  0  0  0  0  0  0
   46.4590   30.4450   47.6670 C   0  0  0  0  0  0  0  0  0  0  0  0
   46.4620   31.8070   47.8300 C   0  0  0  0  0  0  0  0  0  0  0  0
   47.6170   32.3380   48.4080 C   0  0  0  0  0  0  0  0  0  0  0  0
   47.7550   33.3880   48.5950 H   0  0  0  0  0  0  0  0  0  0  0  0
   48.6730   31.5430   48.7850 C   0  0  0  0  0  0  0  0  0  0  0  0
   49.5710   31.9450   49.2340 H   0  0  0  0  0  0  0  0  0  0  0  0
   48.6560   30.1690   48.6160 C   0  0  0  0  0  3  0  0  0  0  0  0
   47.5100   29.6350   48.0400 C   0  0  0  0  0  3  0  0  0  0  0  0
   43.8800   30.3140   47.2970 H   0  0  0  0  0  0  0  0  0  0  0  0
   45.0480   29.7300   46.9400 S   0  0  0  0  0  0  0  0  0  0  0  0
   45.2030   29.7430   45.4260 O   0  0  0  0  0  0  0  0  0  0  0  0
   44.9520   28.2700   47.3700 O   0  0  0  0  0  0  0  0  0  0  0  0
  1 15  1  0  0  0  0
  2  8  1  0  0  0  0
  2  7  1  0  0  0  0
  3  4  1  0  0  0  0
  3  2  2  0  0  0  0
  4  5  2  0  0  0  0
  5  6  1  0  0  0  0
  6  1  1  0  0  0  0
  7  6  2  0  0  0  0
  9  4  1  0  0  0  0
 10 11  1  0  0  0  0
 10  3  1  0  0  0  0
 12 10  1  0  0  0  0
 13 10  1  0  0  0  0
 14 15  2  0  0  0  0
 14 21  1  0  0  0  0
 15 16  1  0  0  0  0
 16 17  1  0  0  0  0
 16 18  2  0  0  0  0
 18 19  1  0  0  0  0
 20 18  1  0  0  0  0
 21 20  2  0  0  0  0
 23 22  1  0  0  0  0
 23 25  2  0  0  0  0
 23 14  1  0  0  0  0
 24 23  2  0  0  0  0
M  END
>  <minimizedAffinity>
-5.21724176

>  <minimizedRMSD>
0.888274133

$$$$
