
 OpenBabel03252507393D

 41 45  0  0  0  0  0  0  0  0999 V2000
   37.2800   28.7620   42.1010 C   0  0  0  0  0  0  0  0  0  0  0  0
   38.6590   28.7330   42.4280 C   0  0  0  0  0  0  0  0  0  0  0  0
   39.2560   27.4900   42.5570 C   0  0  0  0  0  0  0  0  0  0  0  0
   38.5040   26.3860   42.3690 N   0  0  0  0  0  0  0  0  0  0  0  0
   37.1870   26.4390   42.0570 C   0  0  0  0  0  0  0  0  0  0  0  0
   36.5920   27.6180   41.9270 N   0  0  0  0  0  0  0  0  0  0  0  0
   39.2630   29.6190   42.5790 H   0  0  0  0  0  0  0  0  0  0  0  0
   36.6490   25.4980   41.9210 H   0  0  0  0  0  0  0  0  0  0  0  0
   41.4350   28.4310   43.0970 C   0  0  0  0  0  0  0  0  0  0  0  0
   40.6630   27.2950   42.8880 C   0  0  0  0  0  0  0  0  0  0  0  0
   41.2670   26.0670   43.0080 C   0  0  0  0  0  0  0  0  0  0  0  0
   42.5970   25.9220   43.3230 C   0  0  0  0  0  0  0  0  0  0  0  0
   43.3930   24.8450   43.4890 N   0  0  0  0  0  0  0  0  0  0  0  0
   44.6600   25.3180   43.8010 C   0  0  0  0  0  0  0  0  0  0  0  0
   44.6120   26.6530   43.8180 N   0  0  0  0  0  0  0  0  0  0  0  0
   43.3600   27.0450   43.5290 C   0  0  0  0  0  0  0  0  0  0  0  0
   42.7830   28.2930   43.4170 C   0  0  0  0  0  0  0  0  0  0  0  0
   41.0280   29.4350   43.0200 H   0  0  0  0  0  0  0  0  0  0  0  0
   40.6340   25.1920   42.8380 H   0  0  0  0  0  0  0  0  0  0  0  0
   43.1110   23.8400   43.4000 H   0  0  0  0  0  0  0  0  0  0  0  0
   45.5340   24.7040   43.9960 H   0  0  0  0  0  0  0  0  0  0  0  0
   43.3560   29.2030   43.5730 H   0  0  0  0  0  0  0  0  0  0  0  0
   36.6800   30.0200   41.9710 O   0  0  0  0  0  0  0  0  0  0  0  0
   37.2150   30.9460   41.0760 C   0  0  0  0  0  0  0  0  0  0  0  0
   36.5540   30.5960   39.9570 C   0  0  0  0  0  0  0  0  0  0  0  0
   37.2570   31.8490   38.7070 S   0  0  0  0  0  0  0  0  0  0  0  0
   38.3300   32.5820   40.0580 C   0  0  0  0  0  0  0  0  0  0  0  0
   38.0420   31.9490   40.8990 N   0  0  0  0  0  0  0  0  0  0  0  0
   35.7880   30.0030   39.1830 H   0  0  0  0  0  0  0  0  0  0  0  0
   40.5360   33.5590   39.3850 C   0  0  0  0  0  0  0  0  0  0  0  0
   39.2880   33.7410   39.8700 C   0  0  0  0  0  0  0  0  0  0  0  0
   38.7660   34.9350   40.2300 C   0  0  0  0  0  0  0  0  0  0  0  0
   37.7430   35.0430   40.6230 H   0  0  0  0  0  0  0  0  0  0  0  0
   39.5660   36.0360   40.0910 C   0  0  0  0  0  0  0  0  0  0  0  0
   39.1480   36.9960   40.3800 H   0  0  0  0  0  0  0  0  0  0  0  0
   40.8520   35.9970   39.6130 C   0  0  0  0  0  3  0  0  0  0  0  0
   41.2910   34.7360   39.2730 C   0  0  0  0  0  3  0  0  0  0  0  0
   41.0070   31.0410   39.8520 H   0  0  0  0  0  0  0  0  0  0  0  0
   41.1880   32.0060   38.9270 S   0  0  0  0  0  0  0  0  0  0  0  0
   42.6840   32.2020   38.7930 O   0  0  0  0  0  0  0  0  0  0  0  0
   40.7170   31.6300   37.5440 O   0  0  0  0  0  0  0  0  0  0  0  0
  1  2  1  0  0  0  0
  2  3  2  0  0  0  0
  2  7  1  0  0  0  0
  3 10  1  0  0  0  0
  4  3  1  0  0  0  0
  5  4  2  0  0  0  0
  6  5  1  0  0  0  0
  6  1  2  0  0  0  0
  8  5  1  0  0  0  0
  9 17  1  0  0  0  0
 10 11  1  0  0  0  0
 10  9  2  0  0  0  0
 11 12  2  0  0  0  0
 12 13  1  0  0  0  0
 12 16  1  0  0  0  0
 13 14  1  0  0  0  0
 14 15  2  0  0  0  0
 14 21  1  0  0  0  0
 16 15  1  0  0  0  0
 17 16  2  0  0  0  0
 17 22  1  0  0  0  0
 18  9  1  0  0  0  0
 19 11  1  0  0  0  0
 20 13  1  0  0  0  0
 23  1  1  0  0  0  0
 24 23  1  0  0  0  0
 25 24  2  0  0  0  0
 26 25  1  0  0  0  0
 26 27  1  0  0  0  0
 27 28  2  0  0  0  0
 28 24  1  0  0  0  0
 29 25  1  0  0  0  0
 30 31  1  0  0  0  0
 31 27  1  0  0  0  0
 31 32  2  0  0  0  0
 32 33  1  0  0  0  0
 34 32  1  0  0  0  0
 34 35  1  0  0  0  0
 36 34  2  0  0  0  0
 37 30  2  0  0  0  0
 37 36  1  0  0  0  0
 39 30  1  0  0  0  0
 39 38  1  0  0  0  0
 40 39  2  0  0  0  0
 41 39  2  0  0  0  0
M  END
>  <minimizedAffinity>
-6.995296

$$$$

 OpenBabel03252507393D

 41 45  0  0  0  0  0  0  0  0999 V2000
   37.8970   28.4750   42.5060 C   0  0  0  0  0  0  0  0  0  0  0  0
   37.4130   27.4070   41.7090 C   0  0  0  0  0  0  0  0  0  0  0  0
   38.0080   26.1680   41.8780 C   0  0  0  0  0  0  0  0  0  0  0  0
   39.0040   26.0430   42.7780 N   0  0  0  0  0  0  0  0  0  0  0  0
   39.4500   27.0790   43.5280 C   0  0  0  0  0  0  0  0  0  0  0  0
   38.8960   28.2760   43.3860 N   0  0  0  0  0  0  0  0  0  0  0  0
   36.6130   27.5070   40.9860 H   0  0  0  0  0  0  0  0  0  0  0  0
   40.2620   26.8950   44.2360 H   0  0  0  0  0  0  0  0  0  0  0  0
   36.5800   25.0950   40.2230 C   0  0  0  0  0  0  0  0  0  0  0  0
   37.6220   24.9740   41.1340 C   0  0  0  0  0  0  0  0  0  0  0  0
   38.2210   23.7460   41.2760 C   0  0  0  0  0  0  0  0  0  0  0  0
   37.8310   22.6420   40.5570 C   0  0  0  0  0  0  0  0  0  0  0  0
   38.2580   21.3620   40.5280 N   0  0  0  0  0  0  0  0  0  0  0  0
   37.4770   20.6930   39.5960 C   0  0  0  0  0  0  0  0  0  0  0  0
   36.6030   21.5640   39.0840 N   0  0  0  0  0  0  0  0  0  0  0  0
   36.8010   22.7630   39.6560 C   0  0  0  0  0  0  0  0  0  0  0  0
   36.1780   23.9820   39.4900 C   0  0  0  0  0  0  0  0  0  0  0  0
   36.0580   26.0330   40.0560 H   0  0  0  0  0  0  0  0  0  0  0  0
   39.0380   23.6810   42.0010 H   0  0  0  0  0  0  0  0  0  0  0  0
   39.0330   20.9490   41.0990 H   0  0  0  0  0  0  0  0  0  0  0  0
   37.5670   19.6420   39.3340 H   0  0  0  0  0  0  0  0  0  0  0  0
   35.3600   24.1140   38.7870 H   0  0  0  0  0  0  0  0  0  0  0  0
   37.2930   29.7260   42.3340 O   0  0  0  0  0  0  0  0  0  0  0  0
   37.6880   30.5380   41.2710 C   0  0  0  0  0  0  0  0  0  0  0  0
   36.4820   30.9310   40.8200 C   0  0  0  0  0  0  0  0  0  0  0  0
   36.9820   32.0530   39.3640 S   0  0  0  0  0  0  0  0  0  0  0  0
   38.7880   31.7060   39.7280 C   0  0  0  0  0  0  0  0  0  0  0  0
   38.6880   31.0390   40.5850 N   0  0  0  0  0  0  0  0  0  0  0  0
   35.2530   31.0580   40.7110 H   0  0  0  0  0  0  0  0  0  0  0  0
   40.4800   33.4880   39.2420 C   0  0  0  0  0  0  0  0  0  0  0  0
   39.9540   32.2780   38.9470 C   0  0  0  0  0  0  0  0  0  0  0  0
   40.3900   31.4670   37.9590 C   0  0  0  0  0  0  0  0  0  0  0  0
   39.9340   30.4860   37.7490 H   0  0  0  0  0  0  0  0  0  0  0  0
   41.4420   31.9070   37.2050 C   0  0  0  0  0  0  0  0  0  0  0  0
   41.7940   31.2560   36.4090 H   0  0  0  0  0  0  0  0  0  0  0  0
   42.0720   33.1130   37.3920 C   0  0  0  0  0  3  0  0  0  0  0  0
   41.5540   33.8660   38.4230 C   0  0  0  0  0  3  0  0  0  0  0  0
   39.4590   33.8490   41.6100 H   0  0  0  0  0  0  0  0  0  0  0  0
   39.8980   34.5190   40.5240 S   0  0  0  0  0  0  0  0  0  0  0  0
   38.7020   35.2570   39.9580 O   0  0  0  0  0  0  0  0  0  0  0  0
   40.9110   35.5920   40.8300 O   0  0  0  0  0  0  0  0  0  0  0  0
  1  6  1  0  0  0  0
  2  3  1  0  0  0  0
  2  1  2  0  0  0  0
  3  4  2  0  0  0  0
  4  5  1  0  0  0  0
  5  8  1  0  0  0  0
  6  5  2  0  0  0  0
  7  2  1  0  0  0  0
  9 10  1  0  0  0  0
 10 11  2  0  0  0  0
 10  3  1  0  0  0  0
 11 19  1  0  0  0  0
 12 11  1  0  0  0  0
 13 12  1  0  0  0  0
 13 20  1  0  0  0  0
 14 13  1  0  0  0  0
 15 14  2  0  0  0  0
 15 16  1  0  0  0  0
 16 12  2  0  0  0  0
 17 16  1  0  0  0  0
 17  9  2  0  0  0  0
 18  9  1  0  0  0  0
 21 14  1  0  0  0  0
 22 17  1  0  0  0  0
 23  1  1  0  0  0  0
 24 23  1  0  0  0  0
 25 24  2  0  0  0  0
 26 27  1  0  0  0  0
 26 25  1  0  0  0  0
 27 28  2  0  0  0  0
 28 24  1  0  0  0  0
 29 25  1  0  0  0  0
 30 39  1  0  0  0  0
 31 30  1  0  0  0  0
 31 27  1  0  0  0  0
 32 31  2  0  0  0  0
 33 32  1  0  0  0  0
 34 36  2  0  0  0  0
 34 32  1  0  0  0  0
 35 34  1  0  0  0  0
 36 37  1  0  0  0  0
 37 30  2  0  0  0  0
 39 41  2  0  0  0  0
 39 38  1  0  0  0  0
 40 39  2  0  0  0  0
M  END
>  <minimizedAffinity>
-6.76177883

$$$$

 OpenBabel03252507393D

 41 45  0  0  0  0  0  0  0  0999 V2000
   35.9020   27.4550   37.5760 C   0  0  0  0  0  0  0  0  0  0  0  0
   36.4820   28.3770   38.4840 C   0  0  0  0  0  0  0  0  0  0  0  0
   36.7920   29.6360   37.9980 C   0  0  0  0  0  0  0  0  0  0  0  0
   36.5320   29.9160   36.7040 N   0  0  0  0  0  0  0  0  0  0  0  0
   35.9770   29.0170   35.8560 C   0  0  0  0  0  0  0  0  0  0  0  0
   35.6700   27.8040   36.2970 N   0  0  0  0  0  0  0  0  0  0  0  0
   36.6910   28.1530   39.5210 H   0  0  0  0  0  0  0  0  0  0  0  0
   35.7980   29.3230   34.8220 H   0  0  0  0  0  0  0  0  0  0  0  0
   38.1980   30.3070   39.8690 C   0  0  0  0  0  0  0  0  0  0  0  0
   37.3910   30.6930   38.8050 C   0  0  0  0  0  0  0  0  0  0  0  0
   37.2090   32.0360   38.5810 C   0  0  0  0  0  0  0  0  0  0  0  0
   37.7910   33.0050   39.3630 C   0  0  0  0  0  0  0  0  0  0  0  0
   37.7580   34.3540   39.3390 N   0  0  0  0  0  0  0  0  0  0  0  0
   38.5460   34.8010   40.3890 C   0  0  0  0  0  0  0  0  0  0  0  0
   39.0370   33.7330   41.0240 N   0  0  0  0  0  0  0  0  0  0  0  0
   38.5890   32.6230   40.4140 C   0  0  0  0  0  0  0  0  0  0  0  0
   38.7910   31.2820   40.6660 C   0  0  0  0  0  0  0  0  0  0  0  0
   38.3880   29.2650   40.1080 H   0  0  0  0  0  0  0  0  0  0  0  0
   36.5690   32.3090   37.7370 H   0  0  0  0  0  0  0  0  0  0  0  0
   37.2350   34.9530   38.6560 H   0  0  0  0  0  0  0  0  0  0  0  0
   38.7280   35.8410   40.6450 H   0  0  0  0  0  0  0  0  0  0  0  0
   39.4160   30.9440   41.4890 H   0  0  0  0  0  0  0  0  0  0  0  0
   35.5890   26.1830   38.0700 O   0  0  0  0  0  0  0  0  0  0  0  0
   36.3090   25.6690   39.1480 C   0  0  0  0  0  0  0  0  0  0  0  0
   35.8630   24.3980   39.1390 C   0  0  0  0  0  0  0  0  0  0  0  0
   36.8330   23.6590   40.6010 S   0  0  0  0  0  0  0  0  0  0  0  0
   37.6470   25.3210   40.8920 C   0  0  0  0  0  0  0  0  0  0  0  0
   37.1830   25.9060   40.0970 N   0  0  0  0  0  0  0  0  0  0  0  0
   35.2420   23.3750   38.8170 H   0  0  0  0  0  0  0  0  0  0  0  0
   38.4990   26.6400   42.8440 C   0  0  0  0  0  0  0  0  0  0  0  0
   38.6590   25.6110   41.9820 C   0  0  0  0  0  0  0  0  0  0  0  0
   39.7020   24.7520   41.9910 C   0  0  0  0  0  0  0  0  0  0  0  0
   39.7980   23.9240   41.2700 H   0  0  0  0  0  0  0  0  0  0  0  0
   40.6630   24.9420   42.9460 C   0  0  0  0  0  0  0  0  0  0  0  0
   41.5030   24.2520   42.9540 H   0  0  0  0  0  0  0  0  0  0  0  0
   40.6290   25.9440   43.8830 C   0  0  0  0  0  3  0  0  0  0  0  0
   39.5260   26.7670   43.7910 C   0  0  0  0  0  3  0  0  0  0  0  0
   36.6440   27.9570   41.5780 H   0  0  0  0  0  0  0  0  0  0  0  0
   37.1430   27.7370   42.8120 S   0  0  0  0  0  0  0  0  0  0  0  0
   37.6680   29.0680   43.3100 O   0  0  0  0  0  0  0  0  0  0  0  0
   36.1100   27.3200   43.8280 O   0  0  0  0  0  0  0  0  0  0  0  0
  1 23  1  0  0  0  0
  1  2  1  0  0  0  0
  2  7  1  0  0  0  0
  3  2  2  0  0  0  0
  3 10  1  0  0  0  0
  4  3  1  0  0  0  0
  5  6  1  0  0  0  0
  5  4  2  0  0  0  0
  6  1  2  0  0  0  0
  8  5  1  0  0  0  0
  9 18  1  0  0  0  0
  9 17  1  0  0  0  0
 10  9  2  0  0  0  0
 11 10  1  0  0  0  0
 11 12  2  0  0  0  0
 12 16  1  0  0  0  0
 13 12  1  0  0  0  0
 13 14  1  0  0  0  0
 14 21  1  0  0  0  0
 14 15  2  0  0  0  0
 16 17  2  0  0  0  0
 16 15  1  0  0  0  0
 17 22  1  0  0  0  0
 19 11  1  0  0  0  0
 20 13  1  0  0  0  0
 23 24  1  0  0  0  0
 24 28  1  0  0  0  0
 25 24  2  0  0  0  0
 25 26  1  0  0  0  0
 26 27  1  0  0  0  0
 27 31  1  0  0  0  0
 28 27  2  0  0  0  0
 29 25  1  0  0  0  0
 30 37  1  0  0  0  0
 31 32  1  0  0  0  0
 31 30  2  0  0  0  0
 32 34  2  0  0  0  0
 33 32  1  0  0  0  0
 34 35  1  0  0  0  0
 34 36  1  0  0  0  0
 37 36  2  0  0  0  0
 38 39  1  0  0  0  0
 39 30  1  0  0  0  0
 39 40  2  0  0  0  0
 39 41  2  0  0  0  0
M  END
>  <minimizedAffinity>
-6.75541687

$$$$

 OpenBabel03252507393D

 41 45  0  0  0  0  0  0  0  0999 V2000
   36.7730   28.6800   41.9320 C   0  0  0  0  0  0  0  0  0  0  0  0
   37.6030   29.8240   41.8170 C   0  0  0  0  0  0  0  0  0  0  0  0
   37.2510   30.7720   40.8720 C   0  0  0  0  0  0  0  0  0  0  0  0
   36.1530   30.5620   40.1180 N   0  0  0  0  0  0  0  0  0  0  0  0
   35.3750   29.4590   40.2460 C   0  0  0  0  0  0  0  0  0  0  0  0
   35.6900   28.5360   41.1450 N   0  0  0  0  0  0  0  0  0  0  0  0
   38.4840   29.9930   42.4220 H   0  0  0  0  0  0  0  0  0  0  0  0
   34.5010   29.3640   39.5960 H   0  0  0  0  0  0  0  0  0  0  0  0
   37.3390   33.0440   40.0000 C   0  0  0  0  0  0  0  0  0  0  0  0
   38.0010   32.0000   40.6350 C   0  0  0  0  0  0  0  0  0  0  0  0
   39.3130   32.1880   40.9990 C   0  0  0  0  0  0  0  0  0  0  0  0
   39.9880   33.3610   40.7600 C   0  0  0  0  0  0  0  0  0  0  0  0
   41.2490   33.7680   41.0180 N   0  0  0  0  0  0  0  0  0  0  0  0
   41.3640   35.0660   40.5410 C   0  0  0  0  0  0  0  0  0  0  0  0
   40.1900   35.4190   40.0090 N   0  0  0  0  0  0  0  0  0  0  0  0
   39.3330   34.3930   40.1320 C   0  0  0  0  0  0  0  0  0  0  0  0
   38.0160   34.2350   39.7540 C   0  0  0  0  0  0  0  0  0  0  0  0
   36.3030   32.9690   39.6830 H   0  0  0  0  0  0  0  0  0  0  0  0
   39.8070   31.3500   41.4960 H   0  0  0  0  0  0  0  0  0  0  0  0
   42.0010   33.2110   41.4890 H   0  0  0  0  0  0  0  0  0  0  0  0
   42.2570   35.6820   40.5940 H   0  0  0  0  0  0  0  0  0  0  0  0
   37.4670   35.0290   39.2550 H   0  0  0  0  0  0  0  0  0  0  0  0
   37.1310   27.7230   42.8890 O   0  0  0  0  0  0  0  0  0  0  0  0
   38.4700   27.3590   43.0270 C   0  0  0  0  0  0  0  0  0  0  0  0
   38.4450   26.1560   42.4240 C   0  0  0  0  0  0  0  0  0  0  0  0
   40.2670   25.6260   42.5880 S   0  0  0  0  0  0  0  0  0  0  0  0
   40.6460   27.2310   43.4780 C   0  0  0  0  0  0  0  0  0  0  0  0
   39.6570   27.6920   43.4740 N   0  0  0  0  0  0  0  0  0  0  0  0
   38.0340   25.1500   41.8260 H   0  0  0  0  0  0  0  0  0  0  0  0
   42.6030   28.7880   43.6230 C   0  0  0  0  0  0  0  0  0  0  0  0
   42.0120   27.6310   43.9980 C   0  0  0  0  0  0  0  0  0  0  0  0
   42.5500   26.7300   44.8490 C   0  0  0  0  0  0  0  0  0  0  0  0
   42.0360   25.7970   45.1300 H   0  0  0  0  0  0  0  0  0  0  0  0
   43.7830   27.0150   45.3670 C   0  0  0  0  0  0  0  0  0  0  0  0
   44.2170   26.2910   46.0520 H   0  0  0  0  0  0  0  0  0  0  0  0
   44.4970   28.1500   45.0740 C   0  0  0  0  0  3  0  0  0  0  0  0
   43.8640   29.0050   44.1970 C   0  0  0  0  0  3  0  0  0  0  0  0
   40.6170   29.6450   42.1730 H   0  0  0  0  0  0  0  0  0  0  0  0
   41.8880   29.9360   42.5200 S   0  0  0  0  0  0  0  0  0  0  0  0
   42.7110   29.8650   41.2500 O   0  0  0  0  0  0  0  0  0  0  0  0
   42.0810   31.3410   43.0330 O   0  0  0  0  0  0  0  0  0  0  0  0
  1 23  1  0  0  0  0
  2  1  1  0  0  0  0
  2  7  1  0  0  0  0
  3  2  2  0  0  0  0
  4  5  2  0  0  0  0
  4  3  1  0  0  0  0
  5  6  1  0  0  0  0
  6  1  2  0  0  0  0
  8  5  1  0  0  0  0
  9 10  1  0  0  0  0
 10  3  1  0  0  0  0
 10 11  2  0  0  0  0
 11 19  1  0  0  0  0
 12 11  1  0  0  0  0
 12 13  1  0  0  0  0
 13 20  1  0  0  0  0
 14 21  1  0  0  0  0
 14 13  1  0  0  0  0
 15 16  1  0  0  0  0
 15 14  2  0  0  0  0
 16 12  2  0  0  0  0
 17  9  2  0  0  0  0
 17 16  1  0  0  0  0
 18  9  1  0  0  0  0
 22 17  1  0  0  0  0
 23 24  1  0  0  0  0
 24 28  1  0  0  0  0
 25 26  1  0  0  0  0
 25 24  2  0  0  0  0
 26 27  1  0  0  0  0
 27 31  1  0  0  0  0
 28 27  2  0  0  0  0
 29 25  1  0  0  0  0
 30 31  2  0  0  0  0
 30 37  1  0  0  0  0
 31 32  1  0  0  0  0
 32 33  1  0  0  0  0
 32 34  2  0  0  0  0
 34 35  1  0  0  0  0
 36 34  1  0  0  0  0
 37 36  2  0  0  0  0
 38 39  1  0  0  0  0
 39 41  2  0  0  0  0
 39 30  1  0  0  0  0
 40 39  2  0  0  0  0
M  END
>  <minimizedAffinity>
-6.68399143

$$$$

 OpenBabel03252507393D

 41 45  0  0  0  0  0  0  0  0999 V2000
   37.6160   31.9930   39.8360 C   0  0  0  0  0  0  0  0  0  0  0  0
   37.6600   30.7980   40.5970 C   0  0  0  0  0  0  0  0  0  0  0  0
   37.3220   29.6200   39.9510 C   0  0  0  0  0  0  0  0  0  0  0  0
   36.9730   29.6700   38.6490 N   0  0  0  0  0  0  0  0  0  0  0  0
   36.9390   30.8250   37.9420 C   0  0  0  0  0  0  0  0  0  0  0  0
   37.2580   31.9670   38.5370 N   0  0  0  0  0  0  0  0  0  0  0  0
   37.9390   30.7570   41.6420 H   0  0  0  0  0  0  0  0  0  0  0  0
   36.6460   30.7810   36.8910 H   0  0  0  0  0  0  0  0  0  0  0  0
   36.8050   28.2350   41.8850 C   0  0  0  0  0  0  0  0  0  0  0  0
   37.3190   28.3120   40.5960 C   0  0  0  0  0  0  0  0  0  0  0  0
   37.7880   27.1600   40.0130 C   0  0  0  0  0  0  0  0  0  0  0  0
   37.7680   25.9430   40.6520 C   0  0  0  0  0  0  0  0  0  0  0  0
   38.1650   24.7050   40.2910 N   0  0  0  0  0  0  0  0  0  0  0  0
   37.8960   23.8620   41.3600 C   0  0  0  0  0  0  0  0  0  0  0  0
   37.3480   24.5910   42.3360 N   0  0  0  0  0  0  0  0  0  0  0  0
   37.2590   25.8670   41.9260 C   0  0  0  0  0  0  0  0  0  0  0  0
   36.7810   27.0070   42.5400 C   0  0  0  0  0  0  0  0  0  0  0  0
   36.4160   29.1020   42.4100 H   0  0  0  0  0  0  0  0  0  0  0  0
   38.1870   27.2520   38.9990 H   0  0  0  0  0  0  0  0  0  0  0  0
   38.5970   24.4290   39.3770 H   0  0  0  0  0  0  0  0  0  0  0  0
   38.0970   22.7950   41.3900 H   0  0  0  0  0  0  0  0  0  0  0  0
   36.3720   26.9840   43.5460 H   0  0  0  0  0  0  0  0  0  0  0  0
   37.9580   33.1810   40.4910 O   0  0  0  0  0  0  0  0  0  0  0  0
   39.1820   33.7900   40.2150 C   0  0  0  0  0  0  0  0  0  0  0  0
   38.8240   35.0840   40.3100 C   0  0  0  0  0  0  0  0  0  0  0  0
   40.4790   35.9510   39.9430 S   0  0  0  0  0  0  0  0  0  0  0  0
   41.3000   34.2790   39.7360 C   0  0  0  0  0  0  0  0  0  0  0  0
   40.4500   33.6210   39.9220 N   0  0  0  0  0  0  0  0  0  0  0  0
   38.1380   36.1020   40.4780 H   0  0  0  0  0  0  0  0  0  0  0  0
   43.7210   34.0970   40.3540 C   0  0  0  0  0  0  0  0  0  0  0  0
   42.7630   34.0680   39.4010 C   0  0  0  0  0  0  0  0  0  0  0  0
   42.9890   33.8540   38.0860 C   0  0  0  0  0  0  0  0  0  0  0  0
   42.1800   33.8380   37.3380 H   0  0  0  0  0  0  0  0  0  0  0  0
   44.2840   33.6520   37.6970 C   0  0  0  0  0  0  0  0  0  0  0  0
   44.4680   33.4810   36.6400 H   0  0  0  0  0  0  0  0  0  0  0  0
   45.3550   33.6570   38.5560 C   0  0  0  0  0  3  0  0  0  0  0  0
   45.0210   33.8830   39.8740 C   0  0  0  0  0  3  0  0  0  0  0  0
   42.1300   34.1250   42.4160 H   0  0  0  0  0  0  0  0  0  0  0  0
   43.4040   34.3760   42.0470 S   0  0  0  0  0  0  0  0  0  0  0  0
   43.6370   35.8550   42.2790 O   0  0  0  0  0  0  0  0  0  0  0  0
   44.4390   33.6800   42.8930 O   0  0  0  0  0  0  0  0  0  0  0  0
  1 23  1  0  0  0  0
  1  2  1  0  0  0  0
  2  7  1  0  0  0  0
  3 10  1  0  0  0  0
  3  2  2  0  0  0  0
  4  3  1  0  0  0  0
  5  6  1  0  0  0  0
  5  4  2  0  0  0  0
  6  1  2  0  0  0  0
  8  5  1  0  0  0  0
  9 18  1  0  0  0  0
  9 17  1  0  0  0  0
 10  9  2  0  0  0  0
 11 10  1  0  0  0  0
 11 12  2  0  0  0  0
 12 16  1  0  0  0  0
 13 12  1  0  0  0  0
 13 14  1  0  0  0  0
 14 21  1  0  0  0  0
 14 15  2  0  0  0  0
 16 15  1  0  0  0  0
 16 17  2  0  0  0  0
 17 22  1  0  0  0  0
 19 11  1  0  0  0  0
 20 13  1  0  0  0  0
 24 25  2  0  0  0  0
 24 23  1  0  0  0  0
 25 29  1  0  0  0  0
 26 25  1  0  0  0  0
 27 28  2  0  0  0  0
 27 26  1  0  0  0  0
 28 24  1  0  0  0  0
 30 39  1  0  0  0  0
 31 27  1  0  0  0  0
 31 30  2  0  0  0  0
 32 31  1  0  0  0  0
 33 32  1  0  0  0  0
 34 32  2  0  0  0  0
 34 36  1  0  0  0  0
 35 34  1  0  0  0  0
 36 37  2  0  0  0  0
 37 30  1  0  0  0  0
 39 40  2  0  0  0  0
 39 38  1  0  0  0  0
 39 41  2  0  0  0  0
M  END
>  <minimizedAffinity>
-6.56689024

$$$$

 OpenBabel03252507393D

 41 45  0  0  0  0  0  0  0  0999 V2000
   39.0520   34.1630   39.9380 C   0  0  0  0  0  0  0  0  0  0  0  0
   39.9890   33.3580   39.2430 C   0  0  0  0  0  0  0  0  0  0  0  0
   41.2080   33.9340   38.9250 C   0  0  0  0  0  0  0  0  0  0  0  0
   41.4370   35.2120   39.2870 N   0  0  0  0  0  0  0  0  0  0  0  0
   40.5250   35.9630   39.9510 C   0  0  0  0  0  0  0  0  0  0  0  0
   39.3500   35.4340   40.2680 N   0  0  0  0  0  0  0  0  0  0  0  0
   39.8060   32.3320   38.9520 H   0  0  0  0  0  0  0  0  0  0  0  0
   40.7880   36.9910   40.2080 H   0  0  0  0  0  0  0  0  0  0  0  0
   43.5680   33.7200   38.3650 C   0  0  0  0  0  0  0  0  0  0  0  0
   42.2740   33.2370   38.2140 C   0  0  0  0  0  0  0  0  0  0  0  0
   42.0790   32.1390   37.4110 C   0  0  0  0  0  0  0  0  0  0  0  0
   43.1090   31.5060   36.7570 C   0  0  0  0  0  0  0  0  0  0  0  0
   43.1610   30.4390   35.9320 N   0  0  0  0  0  0  0  0  0  0  0  0
   44.4900   30.2640   35.5740 C   0  0  0  0  0  0  0  0  0  0  0  0
   45.2120   31.2130   36.1780 N   0  0  0  0  0  0  0  0  0  0  0  0
   44.3890   31.9840   36.9070 C   0  0  0  0  0  0  0  0  0  0  0  0
   44.6170   33.0850   37.7060 C   0  0  0  0  0  0  0  0  0  0  0  0
   43.7990   34.5820   38.9840 H   0  0  0  0  0  0  0  0  0  0  0  0
   41.0510   31.7820   37.3110 H   0  0  0  0  0  0  0  0  0  0  0  0
   42.3510   29.8520   35.6200 H   0  0  0  0  0  0  0  0  0  0  0  0
   44.8710   29.4870   34.9180 H   0  0  0  0  0  0  0  0  0  0  0  0
   45.6150   33.4900   37.8480 H   0  0  0  0  0  0  0  0  0  0  0  0
   37.8210   33.5790   40.2590 O   0  0  0  0  0  0  0  0  0  0  0  0
   37.7510   32.2050   40.4860 C   0  0  0  0  0  0  0  0  0  0  0  0
   36.9200   31.8480   39.4890 C   0  0  0  0  0  0  0  0  0  0  0  0
   36.8050   29.9670   39.7630 S   0  0  0  0  0  0  0  0  0  0  0  0
   37.9610   30.1180   41.2300 C   0  0  0  0  0  0  0  0  0  0  0  0
   38.1430   31.1940   41.2230 N   0  0  0  0  0  0  0  0  0  0  0  0
   36.1720   31.9170   38.5030 H   0  0  0  0  0  0  0  0  0  0  0  0
   39.5790   28.3040   41.8380 C   0  0  0  0  0  0  0  0  0  0  0  0
   38.4240   28.9600   42.0910 C   0  0  0  0  0  0  0  0  0  0  0  0
   37.5790   28.6700   43.1040 C   0  0  0  0  0  0  0  0  0  0  0  0
   36.6450   29.2280   43.2780 H   0  0  0  0  0  0  0  0  0  0  0  0
   37.9230   27.6360   43.9310 C   0  0  0  0  0  0  0  0  0  0  0  0
   37.2430   27.4020   44.7470 H   0  0  0  0  0  0  0  0  0  0  0  0
   39.0630   26.8860   43.7920 C   0  0  0  0  0  3  0  0  0  0  0  0
   39.8590   27.2600   42.7300 C   0  0  0  0  0  3  0  0  0  0  0  0
   40.4110   29.8960   39.9520 H   0  0  0  0  0  0  0  0  0  0  0  0
   40.6550   28.6980   40.5210 S   0  0  0  0  0  0  0  0  0  0  0  0
   40.4080   27.6530   39.4520 O   0  0  0  0  0  0  0  0  0  0  0  0
   42.0890   28.4960   40.9410 O   0  0  0  0  0  0  0  0  0  0  0  0
  1 23  1  0  0  0  0
  1  6  1  0  0  0  0
  2  1  2  0  0  0  0
  3  2  1  0  0  0  0
  3  4  2  0  0  0  0
  4  5  1  0  0  0  0
  5  8  1  0  0  0  0
  5  6  2  0  0  0  0
  7  2  1  0  0  0  0
  9 18  1  0  0  0  0
 10  9  1  0  0  0  0
 10  3  1  0  0  0  0
 11 10  2  0  0  0  0
 12 16  2  0  0  0  0
 12 11  1  0  0  0  0
 13 12  1  0  0  0  0
 14 13  1  0  0  0  0
 14 15  2  0  0  0  0
 15 16  1  0  0  0  0
 16 17  1  0  0  0  0
 17 22  1  0  0  0  0
 17  9  2  0  0  0  0
 19 11  1  0  0  0  0
 20 13  1  0  0  0  0
 21 14  1  0  0  0  0
 23 24  1  0  0  0  0
 24 28  1  0  0  0  0
 25 26  1  0  0  0  0
 25 24  2  0  0  0  0
 26 27  1  0  0  0  0
 27 31  1  0  0  0  0
 28 27  2  0  0  0  0
 29 25  1  0  0  0  0
 30 31  2  0  0  0  0
 30 37  1  0  0  0  0
 31 32  1  0  0  0  0
 32 33  1  0  0  0  0
 32 34  2  0  0  0  0
 34 35  1  0  0  0  0
 36 34  1  0  0  0  0
 37 36  2  0  0  0  0
 38 39  1  0  0  0  0
 39 41  2  0  0  0  0
 39 30  1  0  0  0  0
 40 39  2  0  0  0  0
M  END
>  <minimizedAffinity>
-6.51521778

$$$$

 OpenBabel03252507393D

 41 45  0  0  0  0  0  0  0  0999 V2000
   36.8830   28.7340   41.9320 C   0  0  0  0  0  0  0  0  0  0  0  0
   37.6360   29.9270   41.7940 C   0  0  0  0  0  0  0  0  0  0  0  0
   37.2050   30.8440   40.8490 C   0  0  0  0  0  0  0  0  0  0  0  0
   36.1080   30.5590   40.1190 N   0  0  0  0  0  0  0  0  0  0  0  0
   35.4040   29.4110   40.2700 C   0  0  0  0  0  0  0  0  0  0  0  0
   35.7950   28.5160   41.1680 N   0  0  0  0  0  0  0  0  0  0  0  0
   38.5170   30.1560   42.3790 H   0  0  0  0  0  0  0  0  0  0  0  0
   34.5260   29.2550   39.6390 H   0  0  0  0  0  0  0  0  0  0  0  0
   37.1620   33.0790   39.8840 C   0  0  0  0  0  0  0  0  0  0  0  0
   37.8720   32.1150   40.5900 C   0  0  0  0  0  0  0  0  0  0  0  0
   39.1490   32.4170   40.9970 C   0  0  0  0  0  0  0  0  0  0  0  0
   39.7450   33.6270   40.7350 C   0  0  0  0  0  0  0  0  0  0  0  0
   40.9590   34.1400   41.0250 N   0  0  0  0  0  0  0  0  0  0  0  0
   40.9980   35.4220   40.4970 C   0  0  0  0  0  0  0  0  0  0  0  0
   39.8250   35.6630   39.9040 N   0  0  0  0  0  0  0  0  0  0  0  0
   39.0420   34.5800   40.0370 C   0  0  0  0  0  0  0  0  0  0  0  0
   37.7580   34.3070   39.6140 C   0  0  0  0  0  0  0  0  0  0  0  0
   36.1490   32.9130   39.5290 H   0  0  0  0  0  0  0  0  0  0  0  0
   39.6830   31.6390   41.5500 H   0  0  0  0  0  0  0  0  0  0  0  0
   41.7300   33.6610   41.5500 H   0  0  0  0  0  0  0  0  0  0  0  0
   41.8400   36.1060   40.5590 H   0  0  0  0  0  0  0  0  0  0  0  0
   37.1730   35.0360   39.0600 H   0  0  0  0  0  0  0  0  0  0  0  0
   37.3190   27.8090   42.8880 O   0  0  0  0  0  0  0  0  0  0  0  0
   37.9940   26.6610   42.4730 C   0  0  0  0  0  0  0  0  0  0  0  0
   38.9540   26.6040   43.4160 C   0  0  0  0  0  0  0  0  0  0  0  0
   39.8970   25.0370   42.8840 S   0  0  0  0  0  0  0  0  0  0  0  0
   38.7150   24.8220   41.4460 C   0  0  0  0  0  0  0  0  0  0  0  0
   38.0640   25.6840   41.6010 N   0  0  0  0  0  0  0  0  0  0  0  0
   39.6450   26.8850   44.4050 H   0  0  0  0  0  0  0  0  0  0  0  0
   39.6160   23.7500   39.3700 C   0  0  0  0  0  0  0  0  0  0  0  0
   38.7800   23.6990   40.4310 C   0  0  0  0  0  0  0  0  0  0  0  0
   37.9380   22.6780   40.7020 C   0  0  0  0  0  0  0  0  0  0  0  0
   37.2700   22.6740   41.5790 H   0  0  0  0  0  0  0  0  0  0  0  0
   37.9350   21.6210   39.8350 C   0  0  0  0  0  0  0  0  0  0  0  0
   37.2570   20.7990   40.0510 H   0  0  0  0  0  0  0  0  0  0  0  0
   38.7280   21.5400   38.7180 C   0  0  0  0  0  3  0  0  0  0  0  0
   39.5520   22.6290   38.5290 C   0  0  0  0  0  3  0  0  0  0  0  0
   41.2010   25.6640   40.1470 H   0  0  0  0  0  0  0  0  0  0  0  0
   40.6950   25.0810   39.0410 S   0  0  0  0  0  0  0  0  0  0  0  0
   39.8610   26.1340   38.3400 O   0  0  0  0  0  0  0  0  0  0  0  0
   41.7360   24.6710   38.0300 O   0  0  0  0  0  0  0  0  0  0  0  0
  1 23  1  0  0  0  0
  2  1  1  0  0  0  0
  2  7  1  0  0  0  0
  3  2  2  0  0  0  0
  4  5  2  0  0  0  0
  4  3  1  0  0  0  0
  5  6  1  0  0  0  0
  6  1  2  0  0  0  0
  8  5  1  0  0  0  0
  9 10  1  0  0  0  0
 10  3  1  0  0  0  0
 10 11  2  0  0  0  0
 11 19  1  0  0  0  0
 12 11  1  0  0  0  0
 12 13  1  0  0  0  0
 13 20  1  0  0  0  0
 14 21  1  0  0  0  0
 14 13  1  0  0  0  0
 15 16  1  0  0  0  0
 15 14  2  0  0  0  0
 16 12  2  0  0  0  0
 17  9  2  0  0  0  0
 17 16  1  0  0  0  0
 18  9  1  0  0  0  0
 22 17  1  0  0  0  0
 24 23  1  0  0  0  0
 24 25  2  0  0  0  0
 25 29  1  0  0  0  0
 26 25  1  0  0  0  0
 27 28  2  0  0  0  0
 27 26  1  0  0  0  0
 28 24  1  0  0  0  0
 30 31  1  0  0  0  0
 31 32  2  0  0  0  0
 31 27  1  0  0  0  0
 32 33  1  0  0  0  0
 34 35  1  0  0  0  0
 34 32  1  0  0  0  0
 36 34  2  0  0  0  0
 37 36  1  0  0  0  0
 37 30  2  0  0  0  0
 39 30  1  0  0  0  0
 39 38  1  0  0  0  0
 40 39  2  0  0  0  0
 41 39  2  0  0  0  0
M  END
>  <minimizedAffinity>
-6.47305679

$$$$

 OpenBabel03252507393D

 41 45  0  0  0  0  0  0  0  0999 V2000
   40.1130   32.3190   38.2680 C   0  0  0  0  0  0  0  0  0  0  0  0
   40.8460   33.0060   39.2680 C   0  0  0  0  0  0  0  0  0  0  0  0
   42.2160   33.1070   39.0930 C   0  0  0  0  0  0  0  0  0  0  0  0
   42.7750   32.5540   37.9980 N   0  0  0  0  0  0  0  0  0  0  0  0
   42.0520   31.9020   37.0550 C   0  0  0  0  0  0  0  0  0  0  0  0
   40.7380   31.7920   37.1980 N   0  0  0  0  0  0  0  0  0  0  0  0
   40.3990   33.4490   40.1480 H   0  0  0  0  0  0  0  0  0  0  0  0
   42.5810   31.4830   36.1960 H   0  0  0  0  0  0  0  0  0  0  0  0
   44.4530   33.8570   39.6970 C   0  0  0  0  0  0  0  0  0  0  0  0
   43.1060   33.7810   40.0320 C   0  0  0  0  0  0  0  0  0  0  0  0
   42.6990   34.3430   41.2180 C   0  0  0  0  0  0  0  0  0  0  0  0
   43.5670   34.9720   42.0780 C   0  0  0  0  0  0  0  0  0  0  0  0
   43.4040   35.5810   43.2710 N   0  0  0  0  0  0  0  0  0  0  0  0
   44.6530   36.0340   43.6720 C   0  0  0  0  0  0  0  0  0  0  0  0
   45.5390   35.6970   42.7310 N   0  0  0  0  0  0  0  0  0  0  0  0
   44.8980   35.0470   41.7460 C   0  0  0  0  0  0  0  0  0  0  0  0
   45.3390   34.4930   40.5620 C   0  0  0  0  0  0  0  0  0  0  0  0
   44.8490   33.4370   38.7770 H   0  0  0  0  0  0  0  0  0  0  0  0
   41.6340   34.2670   41.4550 H   0  0  0  0  0  0  0  0  0  0  0  0
   42.5050   35.6920   43.7980 H   0  0  0  0  0  0  0  0  0  0  0  0
   44.8650   36.5700   44.5930 H   0  0  0  0  0  0  0  0  0  0  0  0
   46.3840   34.5330   40.2670 H   0  0  0  0  0  0  0  0  0  0  0  0
   38.7280   32.2190   38.4460 O   0  0  0  0  0  0  0  0  0  0  0  0
   38.2200   31.3140   39.3780 C   0  0  0  0  0  0  0  0  0  0  0  0
   37.0510   31.9160   39.6700 C   0  0  0  0  0  0  0  0  0  0  0  0
   36.3210   30.7000   40.9420 S   0  0  0  0  0  0  0  0  0  0  0  0
   37.8420   29.6180   40.7690 C   0  0  0  0  0  0  0  0  0  0  0  0
   38.4070   30.1940   40.0340 N   0  0  0  0  0  0  0  0  0  0  0  0
   36.1200   32.7330   39.6700 H   0  0  0  0  0  0  0  0  0  0  0  0
   37.7310   27.1250   40.9890 C   0  0  0  0  0  0  0  0  0  0  0  0
   38.0720   28.3210   41.5180 C   0  0  0  0  0  0  0  0  0  0  0  0
   38.6370   28.4940   42.7340 C   0  0  0  0  0  0  0  0  0  0  0  0
   38.9010   29.4870   43.1310 H   0  0  0  0  0  0  0  0  0  0  0  0
   38.8810   27.3720   43.4770 C   0  0  0  0  0  0  0  0  0  0  0  0
   39.3360   27.5100   44.4550 H   0  0  0  0  0  0  0  0  0  0  0  0
   38.5860   26.0970   43.0650 C   0  0  0  0  0  3  0  0  0  0  0  0
   38.0120   26.0260   41.8130 C   0  0  0  0  0  3  0  0  0  0  0  0
   36.0860   27.8730   39.1140 H   0  0  0  0  0  0  0  0  0  0  0  0
   37.0000   26.9280   39.4160 S   0  0  0  0  0  0  0  0  0  0  0  0
   36.2590   25.6080   39.4620 O   0  0  0  0  0  0  0  0  0  0  0  0
   38.0660   26.7420   38.3660 O   0  0  0  0  0  0  0  0  0  0  0  0
  1 23  1  0  0  0  0
  1  2  1  0  0  0  0
  2  7  1  0  0  0  0
  3  2  2  0  0  0  0
  3 10  1  0  0  0  0
  4  3  1  0  0  0  0
  5  6  1  0  0  0  0
  5  4  2  0  0  0  0
  6  1  2  0  0  0  0
  8  5  1  0  0  0  0
  9 10  2  0  0  0  0
  9 17  1  0  0  0  0
 10 11  1  0  0  0  0
 11 19  1  0  0  0  0
 11 12  2  0  0  0  0
 12 13  1  0  0  0  0
 13 14  1  0  0  0  0
 13 20  1  0  0  0  0
 14 21  1  0  0  0  0
 15 14  2  0  0  0  0
 16 12  1  0  0  0  0
 16 15  1  0  0  0  0
 17 16  2  0  0  0  0
 18  9  1  0  0  0  0
 22 17  1  0  0  0  0
 23 24  1  0  0  0  0
 24 25  2  0  0  0  0
 24 28  1  0  0  0  0
 25 26  1  0  0  0  0
 27 26  1  0  0  0  0
 27 31  1  0  0  0  0
 28 27  2  0  0  0  0
 29 25  1  0  0  0  0
 30 31  2  0  0  0  0
 30 37  1  0  0  0  0
 31 32  1  0  0  0  0
 32 33  1  0  0  0  0
 32 34  2  0  0  0  0
 34 35  1  0  0  0  0
 36 34  1  0  0  0  0
 37 36  2  0  0  0  0
 38 39  1  0  0  0  0
 39 40  2  0  0  0  0
 39 30  1  0  0  0  0
 41 39  2  0  0  0  0
M  END
>  <minimizedAffinity>
-6.47232723

$$$$

 OpenBabel03252507393D

 41 45  0  0  0  0  0  0  0  0999 V2000
   40.3470   31.0860   38.0670 C   0  0  0  0  0  0  0  0  0  0  0  0
   40.9250   32.0610   38.9190 C   0  0  0  0  0  0  0  0  0  0  0  0
   42.3010   32.0320   39.0740 C   0  0  0  0  0  0  0  0  0  0  0  0
   43.0100   31.0920   38.4170 N   0  0  0  0  0  0  0  0  0  0  0  0
   42.4340   30.1690   37.6090 C   0  0  0  0  0  0  0  0  0  0  0  0
   41.1180   30.1750   37.4420 N   0  0  0  0  0  0  0  0  0  0  0  0
   40.3570   32.8160   39.4460 H   0  0  0  0  0  0  0  0  0  0  0  0
   43.0790   29.4410   37.1130 H   0  0  0  0  0  0  0  0  0  0  0  0
   44.3980   33.1240   39.6540 C   0  0  0  0  0  0  0  0  0  0  0  0
   43.0420   32.9660   39.9130 C   0  0  0  0  0  0  0  0  0  0  0  0
   42.4870   33.6960   40.9370 C   0  0  0  0  0  0  0  0  0  0  0  0
   43.2170   34.5690   41.7070 C   0  0  0  0  0  0  0  0  0  0  0  0
   42.8990   35.3730   42.7430 N   0  0  0  0  0  0  0  0  0  0  0  0
   44.0620   36.0280   43.1230 C   0  0  0  0  0  0  0  0  0  0  0  0
   45.0510   35.6170   42.3250 N   0  0  0  0  0  0  0  0  0  0  0  0
   44.5580   34.7250   41.4500 C   0  0  0  0  0  0  0  0  0  0  0  0
   45.1460   34.0060   40.4300 C   0  0  0  0  0  0  0  0  0  0  0  0
   44.9070   32.5810   38.8630 H   0  0  0  0  0  0  0  0  0  0  0  0
   41.4180   33.5510   41.1170 H   0  0  0  0  0  0  0  0  0  0  0  0
   41.9530   35.4840   43.1800 H   0  0  0  0  0  0  0  0  0  0  0  0
   44.1460   36.7500   43.9310 H   0  0  0  0  0  0  0  0  0  0  0  0
   46.2030   34.1030   40.1990 H   0  0  0  0  0  0  0  0  0  0  0  0
   38.9560   31.1170   37.9110 O   0  0  0  0  0  0  0  0  0  0  0  0
   38.1570   30.3010   38.7120 C   0  0  0  0  0  0  0  0  0  0  0  0
   37.0820   31.0990   38.8550 C   0  0  0  0  0  0  0  0  0  0  0  0
   35.9600   30.0110   39.9440 S   0  0  0  0  0  0  0  0  0  0  0  0
   37.2740   28.6740   39.9480 C   0  0  0  0  0  0  0  0  0  0  0  0
   38.0390   29.1530   39.3350 N   0  0  0  0  0  0  0  0  0  0  0  0
   36.3210   32.0730   38.7550 H   0  0  0  0  0  0  0  0  0  0  0  0
   37.2670   27.2430   42.0030 C   0  0  0  0  0  0  0  0  0  0  0  0
   37.1520   27.3420   40.6600 C   0  0  0  0  0  0  0  0  0  0  0  0
   36.9220   26.3040   39.8260 C   0  0  0  0  0  0  0  0  0  0  0  0
   36.8340   26.4260   38.7350 H   0  0  0  0  0  0  0  0  0  0  0  0
   36.7970   25.0640   40.3880 C   0  0  0  0  0  0  0  0  0  0  0  0
   36.6120   24.2280   39.7190 H   0  0  0  0  0  0  0  0  0  0  0  0
   36.8920   24.8170   41.7350 C   0  0  0  0  0  3  0  0  0  0  0  0
   37.1270   25.9390   42.5010 C   0  0  0  0  0  3  0  0  0  0  0  0
   37.1500   29.7830   42.5640 H   0  0  0  0  0  0  0  0  0  0  0  0
   37.5650   28.5990   43.0600 S   0  0  0  0  0  0  0  0  0  0  0  0
   39.0700   28.6940   43.2050 O   0  0  0  0  0  0  0  0  0  0  0  0
   37.0560   28.3000   44.4480 O   0  0  0  0  0  0  0  0  0  0  0  0
  1  2  1  0  0  0  0
  2  3  2  0  0  0  0
  2  7  1  0  0  0  0
  3 10  1  0  0  0  0
  4  3  1  0  0  0  0
  5  4  2  0  0  0  0
  6  5  1  0  0  0  0
  6  1  2  0  0  0  0
  8  5  1  0  0  0  0
  9 10  2  0  0  0  0
  9 17  1  0  0  0  0
 10 11  1  0  0  0  0
 11 19  1  0  0  0  0
 11 12  2  0  0  0  0
 12 13  1  0  0  0  0
 13 14  1  0  0  0  0
 13 20  1  0  0  0  0
 14 21  1  0  0  0  0
 15 14  2  0  0  0  0
 16 12  1  0  0  0  0
 16 15  1  0  0  0  0
 17 16  2  0  0  0  0
 18  9  1  0  0  0  0
 22 17  1  0  0  0  0
 23  1  1  0  0  0  0
 23 24  1  0  0  0  0
 24 25  2  0  0  0  0
 24 28  1  0  0  0  0
 25 26  1  0  0  0  0
 26 27  1  0  0  0  0
 27 31  1  0  0  0  0
 28 27  2  0  0  0  0
 29 25  1  0  0  0  0
 30 37  1  0  0  0  0
 30 39  1  0  0  0  0
 31 30  2  0  0  0  0
 32 34  2  0  0  0  0
 32 31  1  0  0  0  0
 33 32  1  0  0  0  0
 34 36  1  0  0  0  0
 35 34  1  0  0  0  0
 36 37  2  0  0  0  0
 38 39  1  0  0  0  0
 39 40  2  0  0  0  0
 39 41  2  0  0  0  0
M  END
>  <minimizedAffinity>
-6.41438866

$$$$
