
 OpenBabel03242512593D

 38 41  0  0  0  0  0  0  0  0999 V2000
   43.0520   32.2280   41.9920 F   0  0  0  0  0  0  0  0  0  0  0  0
   43.2990   32.5930   40.7010 C   0  0  0  0  0  0  0  0  0  0  0  0
   42.2820   32.7130   39.7870 C   0  0  0  0  0  0  0  0  0  0  0  0
   42.6200   33.0830   38.5170 C   0  0  0  0  0  0  0  0  0  0  0  0
   43.9160   33.3410   38.1070 C   0  0  0  0  0  0  0  0  0  0  0  0
   44.8850   33.2050   39.0590 C   0  0  0  0  0  0  0  0  0  0  0  0
   44.6030   32.8360   40.3490 C   0  0  0  0  0  0  0  0  0  0  0  0
   41.7980   33.1720   37.8070 H   0  0  0  0  0  0  0  0  0  0  0  0
   44.1350   33.6320   37.0840 H   0  0  0  0  0  0  0  0  0  0  0  0
   45.9210   33.3910   38.8080 H   0  0  0  0  0  0  0  0  0  0  0  0
   39.1390   30.9630   40.9880 C   0  0  0  0  0  0  0  0  0  0  0  0
   40.4560   31.1750   40.5640 C   0  0  0  0  0  0  0  0  0  0  0  0
   40.9170   32.4370   40.2360 C   0  0  0  0  0  0  0  0  0  0  0  0
   39.9940   33.4470   40.3580 N   0  0  0  0  0  0  0  0  0  0  0  0
   38.7310   33.2240   40.7690 C   0  0  0  0  0  0  0  0  0  0  0  0
   38.3040   32.0000   41.0800 N   0  0  0  0  0  0  0  0  0  0  0  0
   38.8180   29.9590   41.2350 H   0  0  0  0  0  0  0  0  0  0  0  0
   41.1750   30.3630   40.4720 H   0  0  0  0  0  0  0  0  0  0  0  0
   38.1500   34.1440   40.8030 H   0  0  0  0  0  0  0  0  0  0  0  0
   45.6600   32.6980   41.3510 C   0  0  0  0  0  0  0  0  0  0  0  0
   45.9810   33.6080   42.3460 C   0  0  0  0  0  0  0  0  0  0  0  0
   47.0490   33.0800   43.0780 C   0  0  0  0  0  0  0  0  0  0  0  0
   47.3260   31.9040   42.5110 N   0  0  0  0  0  0  0  0  0  0  0  0
   46.5140   31.6570   41.4860 N   0  0  0  0  0  0  0  0  0  0  0  0
   45.4320   34.5390   42.4490 H   0  0  0  0  0  0  0  0  0  0  0  0
   47.4510   33.6320   43.8970 H   0  0  0  0  0  0  0  0  0  0  0  0
   49.7030   31.0820   42.6090 C   0  0  0  0  0  0  0  0  0  0  0  0
   48.3860   31.1200   43.0480 C   0  0  0  0  0  0  0  0  0  0  0  0
   48.0300   30.3160   44.1270 C   0  0  0  0  0  0  0  0  0  0  0  0
   47.0070   30.2910   44.5310 H   0  0  0  0  0  0  0  0  0  0  0  0
   48.9520   29.4890   44.7660 C   0  0  0  0  0  0  0  0  0  0  0  0
   48.6430   28.8630   45.6170 H   0  0  0  0  0  0  0  0  0  0  0  0
   50.2700   29.4690   44.3060 C   0  0  0  0  0  3  0  0  0  0  0  0
   50.6170   30.2640   43.2390 C   0  0  0  0  0  3  0  0  0  0  0  0
   49.5680   33.3870   41.4340 H   0  0  0  0  0  0  0  0  0  0  0  0
   50.0810   32.1160   41.2510 S   0  0  0  0  0  0  0  0  0  0  0  0
   49.6270   31.5090   39.9510 O   0  0  0  0  0  0  0  0  0  0  0  0
   51.5850   32.2600   41.2260 O   0  0  0  0  0  0  0  0  0  0  0  0
  2  1  1  0  0  0  0
  3 13  1  0  0  0  0
  3  2  2  0  0  0  0
  4  3  1  0  0  0  0
  5  4  2  0  0  0  0
  5  6  1  0  0  0  0
  6  7  2  0  0  0  0
  7  2  1  0  0  0  0
  7 20  1  0  0  0  0
  8  4  1  0  0  0  0
  9  5  1  0  0  0  0
 10  6  1  0  0  0  0
 11 16  1  0  0  0  0
 11 17  1  0  0  0  0
 12 11  2  0  0  0  0
 13 14  2  0  0  0  0
 13 12  1  0  0  0  0
 14 15  1  0  0  0  0
 15 19  1  0  0  0  0
 15 16  2  0  0  0  0
 18 12  1  0  0  0  0
 20 24  2  0  0  0  0
 20 21  1  0  0  0  0
 21 25  1  0  0  0  0
 21 22  2  0  0  0  0
 22 26  1  0  0  0  0
 23 28  1  0  0  0  0
 23 22  1  0  0  0  0
 24 23  1  0  0  0  0
 27 28  2  0  0  0  0
 27 34  1  0  0  0  0
 28 29  1  0  0  0  0
 29 30  1  0  0  0  0
 29 31  2  0  0  0  0
 31 32  1  0  0  0  0
 33 31  1  0  0  0  0
 34 33  2  0  0  0  0
 36 35  1  0  0  0  0
 36 27  1  0  0  0  0
 37 36  2  0  0  0  0
 38 36  2  0  0  0  0
M  END
>  <minimizedAffinity>
-4.18193293

>  <minimizedRMSD>
7.53576183

$$$$
