
 OpenBabel03252502373D

 27 28  0  0  1  0  0  0  0  0999 V2000
   36.7810   27.4730   42.1550 C   0  0  2  0  0  0  0  0  0  0  0  0
   35.7840   27.4990   41.6470 H   0  0  0  0  0  0  0  0  0  0  0  0
   38.5390   26.2650   40.8850 C   0  0  0  0  0  0  0  0  0  0  0  0
   37.4520   26.2520   41.7500 C   0  0  0  0  0  0  0  0  0  0  0  0
   37.0510   24.9720   42.2110 C   0  0  0  0  0  0  0  0  0  0  0  0
   37.7370   23.8820   41.7850 N   0  0  0  0  0  0  0  0  0  0  0  0
   38.7770   23.9650   40.9510 C   0  0  0  0  0  0  0  0  0  0  0  0
   39.1790   25.1640   40.4980 N   0  0  0  0  0  0  0  0  0  0  0  0
   38.9410   27.1730   40.4640 H   0  0  0  0  0  0  0  0  0  0  0  0
   36.2120   24.8860   42.8860 H   0  0  0  0  0  0  0  0  0  0  0  0
   39.2800   23.0530   40.6520 H   0  0  0  0  0  0  0  0  0  0  0  0
   37.3570   29.5680   40.7940 C   0  0  0  0  0  0  0  0  0  0  0  0
   37.5160   28.7290   41.8680 C   0  0  0  0  0  0  0  0  0  0  0  0
   38.4860   29.0630   42.8150 C   0  0  0  0  0  0  0  0  0  0  0  0
   38.7140   28.4940   43.7040 H   0  0  0  0  0  0  0  0  0  0  0  0
   39.2720   30.1960   42.6920 C   0  0  0  0  0  0  0  0  0  0  0  0
   40.0320   30.5180   43.3690 H   0  0  0  0  0  0  0  0  0  0  0  0
   39.0800   31.0120   41.5960 C   0  0  0  0  0  3  0  0  0  0  0  0
   38.1300   30.7090   40.6450 C   0  0  0  0  0  3  0  0  0  0  0  0
   36.3980   27.9630   39.0720 H   0  0  0  0  0  0  0  0  0  0  0  0
   36.1530   29.1800   39.6190 S   0  0  0  0  0  0  0  0  0  0  0  0
   34.7460   29.3590   40.1150 O   0  0  0  0  0  0  0  0  0  0  0  0
   36.2630   30.1700   38.4590 O   0  0  0  0  0  0  0  0  0  0  0  0
   36.4340   27.3480   43.6280 C   0  0  0  0  0  0  0  0  0  0  0  0
   35.7250   26.4710   43.6820 H   0  0  0  0  0  0  0  0  0  0  0  0
   35.8800   28.2610   43.9510 H   0  0  0  0  0  0  0  0  0  0  0  0
   37.2760   27.0660   44.2610 H   0  0  0  0  0  0  0  0  0  0  0  0
  1  2  1  6  0  0  0
  1 24  1  0  0  0  0
  3  4  1  0  0  0  0
  4  1  1  0  0  0  0
  4  5  2  0  0  0  0
  5 10  1  0  0  0  0
  6  5  1  0  0  0  0
  7  6  2  0  0  0  0
  8  3  2  0  0  0  0
  8  7  1  0  0  0  0
  9  3  1  0  0  0  0
 11  7  1  0  0  0  0
 12 13  1  0  0  0  0
 13  1  1  0  0  0  0
 13 14  2  0  0  0  0
 14 15  1  0  0  0  0
 16 14  1  0  0  0  0
 16 17  1  0  0  0  0
 18 16  2  0  0  0  0
 19 12  2  0  0  0  0
 19 18  1  0  0  0  0
 20 21  1  0  0  0  0
 21 22  2  0  0  0  0
 21 12  1  0  0  0  0
 23 21  2  0  0  0  0
 24 25  1  0  0  0  0
 24 26  1  0  0  0  0
 24 27  1  0  0  0  0
M  END
>  <minimizedAffinity>
-4.59745932

$$$$

 OpenBabel03252502373D

 27 28  0  0  1  0  0  0  0  0999 V2000
   36.8300   27.7320   42.2600 C   0  0  2  0  0  0  0  0  0  0  0  0
   35.9600   28.2900   41.8310 H   0  0  0  0  0  0  0  0  0  0  0  0
   37.0750   26.4400   40.1550 C   0  0  0  0  0  0  0  0  0  0  0  0
   36.9530   26.4790   41.5390 C   0  0  0  0  0  0  0  0  0  0  0  0
   36.9620   25.2200   42.1920 C   0  0  0  0  0  0  0  0  0  0  0  0
   37.0860   24.0980   41.4400 N   0  0  0  0  0  0  0  0  0  0  0  0
   37.2000   24.1300   40.1100 C   0  0  0  0  0  0  0  0  0  0  0  0
   37.1950   25.3080   39.4640 N   0  0  0  0  0  0  0  0  0  0  0  0
   37.0810   27.3270   39.5420 H   0  0  0  0  0  0  0  0  0  0  0  0
   36.8710   25.1760   43.2670 H   0  0  0  0  0  0  0  0  0  0  0  0
   37.2960   23.1940   39.5720 H   0  0  0  0  0  0  0  0  0  0  0  0
   38.1560   29.8500   41.6890 C   0  0  0  0  0  0  0  0  0  0  0  0
   38.0330   28.6000   42.2400 C   0  0  0  0  0  0  0  0  0  0  0  0
   39.1600   28.0450   42.8510 C   0  0  0  0  0  0  0  0  0  0  0  0
   39.2020   27.0750   43.3210 H   0  0  0  0  0  0  0  0  0  0  0  0
   40.3690   28.7170   42.9060 C   0  0  0  0  0  0  0  0  0  0  0  0
   41.2720   28.3620   43.3520 H   0  0  0  0  0  0  0  0  0  0  0  0
   40.4500   29.9720   42.3390 C   0  0  0  0  0  3  0  0  0  0  0  0
   39.3550   30.5450   41.7300 C   0  0  0  0  0  3  0  0  0  0  0  0
   35.6490   30.2660   41.6440 H   0  0  0  0  0  0  0  0  0  0  0  0
   36.7710   30.5600   40.9410 S   0  0  0  0  0  0  0  0  0  0  0  0
   36.9360   32.0210   40.6280 O   0  0  0  0  0  0  0  0  0  0  0  0
   36.5670   29.9120   39.5720 O   0  0  0  0  0  0  0  0  0  0  0  0
   36.3920   27.4130   43.6790 C   0  0  0  0  0  0  0  0  0  0  0  0
   35.3800   26.9220   43.5620 H   0  0  0  0  0  0  0  0  0  0  0  0
   36.2510   28.3660   44.2410 H   0  0  0  0  0  0  0  0  0  0  0  0
   37.0100   26.6640   44.1770 H   0  0  0  0  0  0  0  0  0  0  0  0
  1  2  1  6  0  0  0
  1 24  1  0  0  0  0
  3  4  1  0  0  0  0
  4  5  2  0  0  0  0
  4  1  1  0  0  0  0
  5 10  1  0  0  0  0
  6  5  1  0  0  0  0
  7  6  2  0  0  0  0
  8  7  1  0  0  0  0
  8  3  2  0  0  0  0
  9  3  1  0  0  0  0
 11  7  1  0  0  0  0
 12 19  2  0  0  0  0
 12 13  1  0  0  0  0
 13  1  1  0  0  0  0
 13 14  2  0  0  0  0
 14 16  1  0  0  0  0
 14 15  1  0  0  0  0
 16 17  1  0  0  0  0
 18 16  2  0  0  0  0
 19 18  1  0  0  0  0
 21 20  1  0  0  0  0
 21 12  1  0  0  0  0
 22 21  2  0  0  0  0
 23 21  2  0  0  0  0
 24 27  1  0  0  0  0
 24 26  1  0  0  0  0
 25 24  1  0  0  0  0
M  END
>  <minimizedAffinity>
-4.49360466

$$$$

 OpenBabel03252502373D

 27 28  0  0  1  0  0  0  0  0999 V2000
   35.9900   28.9260   39.6610 C   0  0  2  0  0  0  0  0  0  0  0  0
   35.8580   28.2880   38.7510 H   0  0  0  0  0  0  0  0  0  0  0  0
   36.3120   27.9810   41.9330 C   0  0  0  0  0  0  0  0  0  0  0  0
   36.7560   28.1640   40.6300 C   0  0  0  0  0  0  0  0  0  0  0  0
   37.9970   27.5560   40.3130 C   0  0  0  0  0  0  0  0  0  0  0  0
   38.6460   26.8580   41.2790 N   0  0  0  0  0  0  0  0  0  0  0  0
   38.1620   26.7190   42.5160 C   0  0  0  0  0  0  0  0  0  0  0  0
   36.9880   27.2840   42.8440 N   0  0  0  0  0  0  0  0  0  0  0  0
   35.3850   28.3920   42.3000 H   0  0  0  0  0  0  0  0  0  0  0  0
   38.4030   27.6590   39.3180 H   0  0  0  0  0  0  0  0  0  0  0  0
   38.7320   26.1460   43.2380 H   0  0  0  0  0  0  0  0  0  0  0  0
   37.0010   30.6200   38.0230 C   0  0  0  0  0  0  0  0  0  0  0  0
   36.5770   30.2310   39.2680 C   0  0  0  0  0  0  0  0  0  0  0  0
   36.7130   31.1450   40.3160 C   0  0  0  0  0  0  0  0  0  0  0  0
   36.4220   30.9700   41.3400 H   0  0  0  0  0  0  0  0  0  0  0  0
   37.2560   32.4040   40.1250 C   0  0  0  0  0  0  0  0  0  0  0  0
   37.3940   33.1560   40.8700 H   0  0  0  0  0  0  0  0  0  0  0  0
   37.6700   32.7550   38.8560 C   0  0  0  0  0  3  0  0  0  0  0  0
   37.5480   31.8740   37.8030 C   0  0  0  0  0  3  0  0  0  0  0  0
   35.8960   28.5700   37.0040 H   0  0  0  0  0  0  0  0  0  0  0  0
   36.8290   29.5100   36.7120 S   0  0  0  0  0  0  0  0  0  0  0  0
   36.6350   30.1760   35.3790 O   0  0  0  0  0  0  0  0  0  0  0  0
   38.1380   28.7370   36.5490 O   0  0  0  0  0  0  0  0  0  0  0  0
   34.5800   29.0840   40.2010 C   0  0  0  0  0  0  0  0  0  0  0  0
   34.1830   28.0290   40.2770 H   0  0  0  0  0  0  0  0  0  0  0  0
   33.9610   29.6330   39.4520 H   0  0  0  0  0  0  0  0  0  0  0  0
   34.5340   29.4750   41.2180 H   0  0  0  0  0  0  0  0  0  0  0  0
  1  2  1  6  0  0  0
  1 24  1  0  0  0  0
  1  4  1  0  0  0  0
  3  9  1  0  0  0  0
  3  8  1  0  0  0  0
  4  3  2  0  0  0  0
  5  4  1  0  0  0  0
  5  6  2  0  0  0  0
  6  7  1  0  0  0  0
  7  8  2  0  0  0  0
  7 11  1  0  0  0  0
 10  5  1  0  0  0  0
 12 13  1  0  0  0  0
 13  1  1  0  0  0  0
 13 14  2  0  0  0  0
 14 15  1  0  0  0  0
 16 14  1  0  0  0  0
 16 17  1  0  0  0  0
 18 16  2  0  0  0  0
 19 12  2  0  0  0  0
 19 18  1  0  0  0  0
 21 20  1  0  0  0  0
 21 12  1  0  0  0  0
 22 21  2  0  0  0  0
 23 21  2  0  0  0  0
 24 25  1  0  0  0  0
 24 27  1  0  0  0  0
 26 24  1  0  0  0  0
M  END
>  <minimizedAffinity>
-4.4097333

$$$$

 OpenBabel03252502373D

 27 28  0  0  1  0  0  0  0  0999 V2000
   35.7470   29.5470   40.7590 C   0  0  2  0  0  0  0  0  0  0  0  0
   34.7880   29.4830   41.3330 H   0  0  0  0  0  0  0  0  0  0  0  0
   37.5800   28.9860   42.3360 C   0  0  0  0  0  0  0  0  0  0  0  0
   36.6790   28.6050   41.3480 C   0  0  0  0  0  0  0  0  0  0  0  0
   36.7320   27.2410   40.9630 C   0  0  0  0  0  0  0  0  0  0  0  0
   37.6330   26.4280   41.5690 N   0  0  0  0  0  0  0  0  0  0  0  0
   38.4720   26.8590   42.5150 C   0  0  0  0  0  0  0  0  0  0  0  0
   38.4440   28.1460   42.9000 N   0  0  0  0  0  0  0  0  0  0  0  0
   37.6410   29.9930   42.7160 H   0  0  0  0  0  0  0  0  0  0  0  0
   36.0610   26.8760   40.2000 H   0  0  0  0  0  0  0  0  0  0  0  0
   39.1650   26.1530   42.9570 H   0  0  0  0  0  0  0  0  0  0  0  0
   36.3360   29.5340   38.2640 C   0  0  0  0  0  0  0  0  0  0  0  0
   35.4720   29.3530   39.3130 C   0  0  0  0  0  0  0  0  0  0  0  0
   34.1680   28.9500   39.0190 C   0  0  0  0  0  0  0  0  0  0  0  0
   33.3900   28.7720   39.7460 H   0  0  0  0  0  0  0  0  0  0  0  0
   33.7420   28.7380   37.7200 C   0  0  0  0  0  0  0  0  0  0  0  0
   32.7660   28.4320   37.4130 H   0  0  0  0  0  0  0  0  0  0  0  0
   34.6420   28.9320   36.6930 C   0  0  0  0  0  3  0  0  0  0  0  0
   35.9370   29.3290   36.9530 C   0  0  0  0  0  3  0  0  0  0  0  0
   37.9940   30.8090   39.7090 H   0  0  0  0  0  0  0  0  0  0  0  0
   37.9570   30.0190   38.6080 S   0  0  0  0  0  0  0  0  0  0  0  0
   38.9350   28.8770   38.6380 O   0  0  0  0  0  0  0  0  0  0  0  0
   38.4590   30.9010   37.4640 O   0  0  0  0  0  0  0  0  0  0  0  0
   36.2510   30.9490   41.0510 C   0  0  0  0  0  0  0  0  0  0  0  0
   36.2360   31.0300   42.1780 H   0  0  0  0  0  0  0  0  0  0  0  0
   35.5270   31.6920   40.6420 H   0  0  0  0  0  0  0  0  0  0  0  0
   37.2930   31.1140   40.7740 H   0  0  0  0  0  0  0  0  0  0  0  0
  1 24  1  0  0  0  0
  1  2  1  1  0  0  0
  1  4  1  0  0  0  0
  3  9  1  0  0  0  0
  3  8  1  0  0  0  0
  4  3  2  0  0  0  0
  5  4  1  0  0  0  0
  5  6  2  0  0  0  0
  6  7  1  0  0  0  0
  7  8  2  0  0  0  0
  7 11  1  0  0  0  0
 10  5  1  0  0  0  0
 12 21  1  0  0  0  0
 12 13  1  0  0  0  0
 13  1  1  0  0  0  0
 14 13  2  0  0  0  0
 14 15  1  0  0  0  0
 16 14  1  0  0  0  0
 17 16  1  0  0  0  0
 18 19  1  0  0  0  0
 18 16  2  0  0  0  0
 19 12  2  0  0  0  0
 21 22  2  0  0  0  0
 21 20  1  0  0  0  0
 23 21  2  0  0  0  0
 24 25  1  0  0  0  0
 26 24  1  0  0  0  0
 27 24  1  0  0  0  0
M  END
>  <minimizedAffinity>
-4.39648771

$$$$

 OpenBabel03252502373D

 27 28  0  0  1  0  0  0  0  0999 V2000
   38.2660   28.1880   42.4160 C   0  0  2  0  0  0  0  0  0  0  0  0
   39.3030   28.5660   42.6020 H   0  0  0  0  0  0  0  0  0  0  0  0
   36.6790   29.8630   41.5010 C   0  0  0  0  0  0  0  0  0  0  0  0
   37.7080   28.9490   41.3140 C   0  0  0  0  0  0  0  0  0  0  0  0
   38.1750   28.8150   39.9810 C   0  0  0  0  0  0  0  0  0  0  0  0
   37.5990   29.5680   39.0110 N   0  0  0  0  0  0  0  0  0  0  0  0
   36.6110   30.4320   39.2600 C   0  0  0  0  0  0  0  0  0  0  0  0
   36.1490   30.5800   40.5130 N   0  0  0  0  0  0  0  0  0  0  0  0
   36.2360   30.0570   42.4650 H   0  0  0  0  0  0  0  0  0  0  0  0
   38.9730   28.1220   39.7630 H   0  0  0  0  0  0  0  0  0  0  0  0
   36.1980   31.0030   38.4360 H   0  0  0  0  0  0  0  0  0  0  0  0
   39.4020   25.9260   42.0140 C   0  0  0  0  0  0  0  0  0  0  0  0
   38.3020   26.7180   42.2220 C   0  0  0  0  0  0  0  0  0  0  0  0
   37.0510   26.0980   42.2470 C   0  0  0  0  0  0  0  0  0  0  0  0
   36.1080   26.5990   42.4020 H   0  0  0  0  0  0  0  0  0  0  0  0
   36.9050   24.7330   42.0690 C   0  0  0  0  0  0  0  0  0  0  0  0
   35.9880   24.1860   42.0730 H   0  0  0  0  0  0  0  0  0  0  0  0
   38.0370   23.9730   41.8610 C   0  0  0  0  0  3  0  0  0  0  0  0
   39.2860   24.5570   41.8320 C   0  0  0  0  0  3  0  0  0  0  0  0
   40.9960   27.6710   41.0780 H   0  0  0  0  0  0  0  0  0  0  0  0
   40.9600   26.6710   41.9930 S   0  0  0  0  0  0  0  0  0  0  0  0
   41.4580   27.0660   43.3550 O   0  0  0  0  0  0  0  0  0  0  0  0
   41.9870   25.6480   41.5100 O   0  0  0  0  0  0  0  0  0  0  0  0
   37.5100   28.5700   43.6770 C   0  0  0  0  0  0  0  0  0  0  0  0
   37.7170   29.6730   43.8120 H   0  0  0  0  0  0  0  0  0  0  0  0
   37.9500   28.0270   44.5460 H   0  0  0  0  0  0  0  0  0  0  0  0
   36.4250   28.4990   43.5840 H   0  0  0  0  0  0  0  0  0  0  0  0
  1  2  1  1  0  0  0
  1 24  1  0  0  0  0
  3  9  1  0  0  0  0
  4  3  1  0  0  0  0
  4  1  1  0  0  0  0
  5  4  2  0  0  0  0
  6  7  2  0  0  0  0
  6  5  1  0  0  0  0
  7  8  1  0  0  0  0
  8  3  2  0  0  0  0
 10  5  1  0  0  0  0
 11  7  1  0  0  0  0
 12 13  1  0  0  0  0
 13 14  2  0  0  0  0
 13  1  1  0  0  0  0
 14 15  1  0  0  0  0
 16 17  1  0  0  0  0
 16 14  1  0  0  0  0
 18 16  2  0  0  0  0
 19 18  1  0  0  0  0
 19 12  2  0  0  0  0
 20 21  1  0  0  0  0
 21 12  1  0  0  0  0
 21 22  2  0  0  0  0
 23 21  2  0  0  0  0
 24 25  1  0  0  0  0
 24 26  1  0  0  0  0
 27 24  1  0  0  0  0
M  END
>  <minimizedAffinity>
-4.36217928

$$$$

 OpenBabel03252502373D

 27 28  0  0  1  0  0  0  0  0999 V2000
   39.3860   29.8080   41.2310 C   0  0  2  0  0  0  0  0  0  0  0  0
   40.0110   29.3730   40.4110 H   0  0  0  0  0  0  0  0  0  0  0  0
   37.6490   30.8620   39.8060 C   0  0  0  0  0  0  0  0  0  0  0  0
   38.7070   30.9740   40.7000 C   0  0  0  0  0  0  0  0  0  0  0  0
   39.0700   32.2980   41.0570 C   0  0  0  0  0  0  0  0  0  0  0  0
   38.3790   33.3320   40.5150 N   0  0  0  0  0  0  0  0  0  0  0  0
   37.3680   33.1540   39.6600 C   0  0  0  0  0  0  0  0  0  0  0  0
   37.0020   31.9110   39.3040 N   0  0  0  0  0  0  0  0  0  0  0  0
   37.2760   29.9120   39.4550 H   0  0  0  0  0  0  0  0  0  0  0  0
   39.8850   32.4600   41.7460 H   0  0  0  0  0  0  0  0  0  0  0  0
   36.8590   34.0260   39.2660 H   0  0  0  0  0  0  0  0  0  0  0  0
   38.1860   27.5420   41.2350 C   0  0  0  0  0  0  0  0  0  0  0  0
   38.5020   28.7560   41.7910 C   0  0  0  0  0  0  0  0  0  0  0  0
   37.9310   29.0740   43.0250 C   0  0  0  0  0  0  0  0  0  0  0  0
   38.0940   29.9900   43.5720 H   0  0  0  0  0  0  0  0  0  0  0  0
   37.0700   28.2100   43.6800 C   0  0  0  0  0  0  0  0  0  0  0  0
   36.5940   28.3790   44.6200 H   0  0  0  0  0  0  0  0  0  0  0  0
   36.7770   27.0000   43.0850 C   0  0  0  0  0  3  0  0  0  0  0  0
   37.3270   26.6570   41.8680 C   0  0  0  0  0  3  0  0  0  0  0  0
   40.0390   27.8210   39.5180 H   0  0  0  0  0  0  0  0  0  0  0  0
   38.8930   27.1240   39.7170 S   0  0  0  0  0  0  0  0  0  0  0  0
   39.0290   25.6430   39.5030 O   0  0  0  0  0  0  0  0  0  0  0  0
   37.9530   27.5720   38.5980 O   0  0  0  0  0  0  0  0  0  0  0  0
   40.4060   30.2850   42.2500 C   0  0  0  0  0  0  0  0  0  0  0  0
   41.1240   30.9250   41.6570 H   0  0  0  0  0  0  0  0  0  0  0  0
   40.9700   29.4070   42.6430 H   0  0  0  0  0  0  0  0  0  0  0  0
   39.9970   30.9540   43.0090 H   0  0  0  0  0  0  0  0  0  0  0  0
  1  2  1  6  0  0  0
  1 13  1  0  0  0  0
  1 24  1  0  0  0  0
  3  4  1  0  0  0  0
  4  5  2  0  0  0  0
  4  1  1  0  0  0  0
  5 10  1  0  0  0  0
  6  5  1  0  0  0  0
  7  6  2  0  0  0  0
  8  7  1  0  0  0  0
  8  3  2  0  0  0  0
  9  3  1  0  0  0  0
 11  7  1  0  0  0  0
 12 13  2  0  0  0  0
 12 19  1  0  0  0  0
 13 14  1  0  0  0  0
 14 15  1  0  0  0  0
 14 16  2  0  0  0  0
 16 17  1  0  0  0  0
 18 16  1  0  0  0  0
 19 18  2  0  0  0  0
 20 21  1  0  0  0  0
 21 12  1  0  0  0  0
 22 21  2  0  0  0  0
 23 21  2  0  0  0  0
 24 26  1  0  0  0  0
 24 27  1  0  0  0  0
 25 24  1  0  0  0  0
M  END
>  <minimizedAffinity>
-4.35171413

$$$$

 OpenBabel03252502373D

 27 28  0  0  1  0  0  0  0  0999 V2000
   39.3420   29.9500   40.8880 C   0  0  2  0  0  0  0  0  0  0  0  0
   39.7310   29.4900   39.9450 H   0  0  0  0  0  0  0  0  0  0  0  0
   39.2860   32.4280   41.0240 C   0  0  0  0  0  0  0  0  0  0  0  0
   38.7590   31.2340   40.5480 C   0  0  0  0  0  0  0  0  0  0  0  0
   37.6230   31.3570   39.7070 C   0  0  0  0  0  0  0  0  0  0  0  0
   37.1440   32.5970   39.4370 N   0  0  0  0  0  0  0  0  0  0  0  0
   37.7010   33.7080   39.9280 C   0  0  0  0  0  0  0  0  0  0  0  0
   38.7780   33.6210   40.7260 N   0  0  0  0  0  0  0  0  0  0  0  0
   40.1480   32.4700   41.6710 H   0  0  0  0  0  0  0  0  0  0  0  0
   37.1610   30.4700   39.3020 H   0  0  0  0  0  0  0  0  0  0  0  0
   37.2670   34.6670   39.6700 H   0  0  0  0  0  0  0  0  0  0  0  0
   37.8190   27.8920   41.0250 C   0  0  0  0  0  0  0  0  0  0  0  0
   38.4300   28.9950   41.5650 C   0  0  0  0  0  0  0  0  0  0  0  0
   38.1730   29.2890   42.9060 C   0  0  0  0  0  0  0  0  0  0  0  0
   38.5850   30.1220   43.4530 H   0  0  0  0  0  0  0  0  0  0  0  0
   37.3320   28.5070   43.6800 C   0  0  0  0  0  0  0  0  0  0  0  0
   37.0850   28.6650   44.7060 H   0  0  0  0  0  0  0  0  0  0  0  0
   36.7370   27.4070   43.0980 C   0  0  0  0  0  3  0  0  0  0  0  0
   36.9730   27.0910   41.7760 C   0  0  0  0  0  3  0  0  0  0  0  0
   39.2770   28.1030   38.9530 H   0  0  0  0  0  0  0  0  0  0  0  0
   38.1350   27.5030   39.3730 S   0  0  0  0  0  0  0  0  0  0  0  0
   38.0690   26.0310   39.0760 O   0  0  0  0  0  0  0  0  0  0  0  0
   37.0270   28.1030   38.5070 O   0  0  0  0  0  0  0  0  0  0  0  0
   40.5940   30.2080   41.7090 C   0  0  0  0  0  0  0  0  0  0  0  0
   41.2770   30.7810   41.0150 H   0  0  0  0  0  0  0  0  0  0  0  0
   41.0820   29.2340   41.9480 H   0  0  0  0  0  0  0  0  0  0  0  0
   40.4380   30.8730   42.5600 H   0  0  0  0  0  0  0  0  0  0  0  0
  1  2  1  6  0  0  0
  1 13  1  0  0  0  0
  1 24  1  0  0  0  0
  3  9  1  0  0  0  0
  4  1  1  0  0  0  0
  4  3  2  0  0  0  0
  5  4  1  0  0  0  0
  6  5  2  0  0  0  0
  6  7  1  0  0  0  0
  7  8  2  0  0  0  0
  8  3  1  0  0  0  0
 10  5  1  0  0  0  0
 11  7  1  0  0  0  0
 12 13  2  0  0  0  0
 12 19  1  0  0  0  0
 13 14  1  0  0  0  0
 14 15  1  0  0  0  0
 14 16  2  0  0  0  0
 16 17  1  0  0  0  0
 18 16  1  0  0  0  0
 19 18  2  0  0  0  0
 20 21  1  0  0  0  0
 21 12  1  0  0  0  0
 22 21  2  0  0  0  0
 23 21  2  0  0  0  0
 24 26  1  0  0  0  0
 24 27  1  0  0  0  0
 25 24  1  0  0  0  0
M  END
>  <minimizedAffinity>
-4.34734726

$$$$

 OpenBabel03252502373D

 27 28  0  0  1  0  0  0  0  0999 V2000
   37.4470   28.1830   42.5980 C   0  0  2  0  0  0  0  0  0  0  0  0
   36.5390   28.1450   43.2530 H   0  0  0  0  0  0  0  0  0  0  0  0
   37.6820   25.7670   42.0790 C   0  0  0  0  0  0  0  0  0  0  0  0
   38.1360   26.9120   42.7220 C   0  0  0  0  0  0  0  0  0  0  0  0
   39.3130   26.7550   43.4970 C   0  0  0  0  0  0  0  0  0  0  0  0
   39.8960   25.5310   43.5550 N   0  0  0  0  0  0  0  0  0  0  0  0
   39.4070   24.4680   42.9100 C   0  0  0  0  0  0  0  0  0  0  0  0
   38.2930   24.5880   42.1680 N   0  0  0  0  0  0  0  0  0  0  0  0
   36.7990   25.7530   41.4610 H   0  0  0  0  0  0  0  0  0  0  0  0
   39.7220   27.6030   44.0250 H   0  0  0  0  0  0  0  0  0  0  0  0
   39.9250   23.5200   43.0000 H   0  0  0  0  0  0  0  0  0  0  0  0
   37.8630   28.7790   40.1400 C   0  0  0  0  0  0  0  0  0  0  0  0
   37.0470   28.5590   41.2200 C   0  0  0  0  0  0  0  0  0  0  0  0
   35.6710   28.7130   41.0360 C   0  0  0  0  0  0  0  0  0  0  0  0
   34.9190   28.5710   41.7970 H   0  0  0  0  0  0  0  0  0  0  0  0
   35.1310   29.0750   39.8140 C   0  0  0  0  0  0  0  0  0  0  0  0
   34.0950   29.2140   39.5940 H   0  0  0  0  0  0  0  0  0  0  0  0
   35.9870   29.2870   38.7540 C   0  0  0  0  0  3  0  0  0  0  0  0
   37.3500   29.1430   38.9050 C   0  0  0  0  0  3  0  0  0  0  0  0
   39.9300   28.8700   41.6170 H   0  0  0  0  0  0  0  0  0  0  0  0
   39.5660   28.5810   40.3430 S   0  0  0  0  0  0  0  0  0  0  0  0
   40.0850   27.2620   39.8400 O   0  0  0  0  0  0  0  0  0  0  0  0
   40.2870   29.6130   39.4760 O   0  0  0  0  0  0  0  0  0  0  0  0
   38.3150   29.2490   43.2420 C   0  0  0  0  0  0  0  0  0  0  0  0
   38.3860   28.9420   44.3280 H   0  0  0  0  0  0  0  0  0  0  0  0
   37.7850   30.2290   43.1950 H   0  0  0  0  0  0  0  0  0  0  0  0
   39.3450   29.2590   42.8860 H   0  0  0  0  0  0  0  0  0  0  0  0
  1  4  1  0  0  0  0
  1 24  1  0  0  0  0
  1  2  1  1  0  0  0
  3  8  2  0  0  0  0
  3  4  1  0  0  0  0
  4  5  2  0  0  0  0
  5  6  1  0  0  0  0
  5 10  1  0  0  0  0
  7 11  1  0  0  0  0
  7  6  2  0  0  0  0
  8  7  1  0  0  0  0
  9  3  1  0  0  0  0
 12 21  1  0  0  0  0
 12 13  1  0  0  0  0
 13  1  1  0  0  0  0
 14 13  2  0  0  0  0
 14 15  1  0  0  0  0
 16 14  1  0  0  0  0
 17 16  1  0  0  0  0
 18 19  1  0  0  0  0
 18 16  2  0  0  0  0
 19 12  2  0  0  0  0
 21 20  1  0  0  0  0
 22 21  2  0  0  0  0
 23 21  2  0  0  0  0
 24 25  1  0  0  0  0
 26 24  1  0  0  0  0
 27 24  1  0  0  0  0
M  END
>  <minimizedAffinity>
-4.32968569

$$$$

 OpenBabel03252502373D

 27 28  0  0  1  0  0  0  0  0999 V2000
   36.4360   28.7740   40.4260 C   0  0  2  0  0  0  0  0  0  0  0  0
   36.7110   29.0470   41.4750 H   0  0  0  0  0  0  0  0  0  0  0  0
   36.6540   30.5330   38.6880 C   0  0  0  0  0  0  0  0  0  0  0  0
   37.2320   29.5920   39.5310 C   0  0  0  0  0  0  0  0  0  0  0  0
   38.6450   29.4930   39.4610 C   0  0  0  0  0  0  0  0  0  0  0  0
   39.3130   30.3000   38.5980 N   0  0  0  0  0  0  0  0  0  0  0  0
   38.6940   31.1860   37.8140 C   0  0  0  0  0  0  0  0  0  0  0  0
   37.3560   31.3030   37.8600 N   0  0  0  0  0  0  0  0  0  0  0  0
   35.5900   30.7060   38.6460 H   0  0  0  0  0  0  0  0  0  0  0  0
   39.1620   28.7820   40.0870 H   0  0  0  0  0  0  0  0  0  0  0  0
   39.2900   31.8000   37.1490 H   0  0  0  0  0  0  0  0  0  0  0  0
   37.0450   26.3910   41.1500 C   0  0  0  0  0  0  0  0  0  0  0  0
   36.5770   27.3080   40.2430 C   0  0  0  0  0  0  0  0  0  0  0  0
   36.1920   26.8390   38.9850 C   0  0  0  0  0  0  0  0  0  0  0  0
   35.8080   27.4490   38.1820 H   0  0  0  0  0  0  0  0  0  0  0  0
   36.2730   25.5000   38.6450 C   0  0  0  0  0  0  0  0  0  0  0  0
   36.0010   25.0650   37.7090 H   0  0  0  0  0  0  0  0  0  0  0  0
   36.7500   24.6110   39.5860 C   0  0  0  0  0  3  0  0  0  0  0  0
   37.1380   25.0440   40.8360 C   0  0  0  0  0  3  0  0  0  0  0  0
   37.9690   25.9170   43.4700 H   0  0  0  0  0  0  0  0  0  0  0  0
   37.5140   26.9480   42.7150 S   0  0  0  0  0  0  0  0  0  0  0  0
   38.4310   28.1380   42.6820 O   0  0  0  0  0  0  0  0  0  0  0  0
   36.2730   27.4610   43.4450 O   0  0  0  0  0  0  0  0  0  0  0  0
   34.9890   29.2180   40.3010 C   0  0  0  0  0  0  0  0  0  0  0  0
   34.9900   30.2940   40.6460 H   0  0  0  0  0  0  0  0  0  0  0  0
   34.3630   28.6280   41.0120 H   0  0  0  0  0  0  0  0  0  0  0  0
   34.6210   29.2530   39.2750 H   0  0  0  0  0  0  0  0  0  0  0  0
  1  2  1  1  0  0  0
  3  4  1  0  0  0  0
  4  1  1  0  0  0  0
  5  4  2  0  0  0  0
  5 10  1  0  0  0  0
  6  5  1  0  0  0  0
  7  8  1  0  0  0  0
  7  6  2  0  0  0  0
  8  3  2  0  0  0  0
  9  3  1  0  0  0  0
 11  7  1  0  0  0  0
 12 21  1  0  0  0  0
 13  1  1  0  0  0  0
 13 12  2  0  0  0  0
 14 13  1  0  0  0  0
 15 14  1  0  0  0  0
 16 14  2  0  0  0  0
 16 18  1  0  0  0  0
 17 16  1  0  0  0  0
 18 19  2  0  0  0  0
 19 12  1  0  0  0  0
 21 23  2  0  0  0  0
 21 20  1  0  0  0  0
 22 21  2  0  0  0  0
 24  1  1  0  0  0  0
 24 25  1  0  0  0  0
 24 26  1  0  0  0  0
 27 24  1  0  0  0  0
M  END
>  <minimizedAffinity>
-4.2283535

$$$$
