
 OpenBabel03242523433D

 27 28  0  0  1  0  0  0  0  0999 V2000
   35.4050   29.3360   40.3800 C   0  0  2  0  0  0  0  0  0  0  0  0
   34.7690   29.7250   41.2140 H   0  0  0  0  0  0  0  0  0  0  0  0
   36.7810   31.3600   40.7930 C   0  0  0  0  0  0  0  0  0  0  0  0
   36.2430   30.4260   39.9170 C   0  0  0  0  0  0  0  0  0  0  0  0
   36.5730   30.6070   38.5490 C   0  0  0  0  0  0  0  0  0  0  0  0
   37.3680   31.6510   38.2030 N   0  0  0  0  0  0  0  0  0  0  0  0
   37.8530   32.5150   39.0990 C   0  0  0  0  0  0  0  0  0  0  0  0
   37.5580   32.3680   40.4020 N   0  0  0  0  0  0  0  0  0  0  0  0
   36.6060   31.3340   41.8570 H   0  0  0  0  0  0  0  0  0  0  0  0
   36.1890   29.9180   37.8120 H   0  0  0  0  0  0  0  0  0  0  0  0
   38.4830   33.3260   38.7530 H   0  0  0  0  0  0  0  0  0  0  0  0
   36.5390   27.0570   40.0740 C   0  0  0  0  0  0  0  0  0  0  0  0
   36.1290   28.1230   40.8330 C   0  0  0  0  0  0  0  0  0  0  0  0
   36.3990   28.0870   42.2030 C   0  0  0  0  0  0  0  0  0  0  0  0
   36.1340   28.8560   42.9130 H   0  0  0  0  0  0  0  0  0  0  0  0
   37.0550   27.0210   42.7930 C   0  0  0  0  0  0  0  0  0  0  0  0
   37.2970   26.9180   43.8280 H   0  0  0  0  0  0  0  0  0  0  0  0
   37.4500   25.9680   41.9930 C   0  0  0  0  0  3  0  0  0  0  0  0
   37.1970   25.9760   40.6380 C   0  0  0  0  0  3  0  0  0  0  0  0
   35.2030   27.9340   38.0970 H   0  0  0  0  0  0  0  0  0  0  0  0
   36.2260   27.0890   38.3760 S   0  0  0  0  0  0  0  0  0  0  0  0
   37.4550   27.3150   37.5410 O   0  0  0  0  0  0  0  0  0  0  0  0
   35.7360   25.7080   37.9420 O   0  0  0  0  0  0  0  0  0  0  0  0
   34.4060   29.0160   39.2810 C   0  0  0  0  0  0  0  0  0  0  0  0
   33.7980   29.9610   39.1640 H   0  0  0  0  0  0  0  0  0  0  0  0
   33.7230   28.2070   39.6320 H   0  0  0  0  0  0  0  0  0  0  0  0
   34.8590   28.8520   38.3030 H   0  0  0  0  0  0  0  0  0  0  0  0
  1 13  1  0  0  0  0
  1  2  1  1  0  0  0
  3  9  1  0  0  0  0
  4  1  1  0  0  0  0
  4  3  2  0  0  0  0
  5  4  1  0  0  0  0
  6  5  2  0  0  0  0
  6  7  1  0  0  0  0
  7  8  2  0  0  0  0
  8  3  1  0  0  0  0
 10  5  1  0  0  0  0
 11  7  1  0  0  0  0
 12 19  2  0  0  0  0
 12 13  1  0  0  0  0
 13 14  2  0  0  0  0
 14 16  1  0  0  0  0
 14 15  1  0  0  0  0
 16 17  1  0  0  0  0
 18 16  2  0  0  0  0
 19 18  1  0  0  0  0
 20 21  1  0  0  0  0
 21 12  1  0  0  0  0
 22 21  2  0  0  0  0
 23 21  2  0  0  0  0
 24 26  1  0  0  0  0
 24  1  1  0  0  0  0
 25 24  1  0  0  0  0
 27 24  1  0  0  0  0
M  END
>  <minimizedAffinity>
-4.68769789

$$$$

 OpenBabel03242523433D

 27 28  0  0  1  0  0  0  0  0999 V2000
   36.8520   27.7300   42.2520 C   0  0  2  0  0  0  0  0  0  0  0  0
   35.9660   28.2770   41.8420 H   0  0  0  0  0  0  0  0  0  0  0  0
   37.0150   25.2540   42.1730 C   0  0  0  0  0  0  0  0  0  0  0  0
   36.9780   26.4820   41.5240 C   0  0  0  0  0  0  0  0  0  0  0  0
   37.0660   26.4300   40.1090 C   0  0  0  0  0  0  0  0  0  0  0  0
   37.1790   25.2190   39.5070 N   0  0  0  0  0  0  0  0  0  0  0  0
   37.2070   24.0730   40.1930 C   0  0  0  0  0  0  0  0  0  0  0  0
   37.1250   24.0920   41.5340 N   0  0  0  0  0  0  0  0  0  0  0  0
   36.9570   25.1570   43.2460 H   0  0  0  0  0  0  0  0  0  0  0  0
   37.0450   27.3460   39.5390 H   0  0  0  0  0  0  0  0  0  0  0  0
   37.2980   23.1410   39.6480 H   0  0  0  0  0  0  0  0  0  0  0  0
   38.1440   29.8590   41.6450 C   0  0  0  0  0  0  0  0  0  0  0  0
   38.0420   28.6150   42.2120 C   0  0  0  0  0  0  0  0  0  0  0  0
   39.1810   28.0830   42.8210 C   0  0  0  0  0  0  0  0  0  0  0  0
   39.2400   27.1190   43.3040 H   0  0  0  0  0  0  0  0  0  0  0  0
   40.3810   28.7720   42.8600 C   0  0  0  0  0  0  0  0  0  0  0  0
   41.2920   28.4360   43.3030 H   0  0  0  0  0  0  0  0  0  0  0  0
   40.4400   30.0210   42.2770 C   0  0  0  0  0  3  0  0  0  0  0  0
   39.3320   30.5720   41.6690 C   0  0  0  0  0  3  0  0  0  0  0  0
   35.6260   30.2020   41.5890 H   0  0  0  0  0  0  0  0  0  0  0  0
   36.7430   30.5390   40.8990 S   0  0  0  0  0  0  0  0  0  0  0  0
   36.8670   32.0090   40.6100 O   0  0  0  0  0  0  0  0  0  0  0  0
   36.5670   29.9080   39.5180 O   0  0  0  0  0  0  0  0  0  0  0  0
   36.4450   27.3990   43.6780 C   0  0  0  0  0  0  0  0  0  0  0  0
   35.4390   26.8950   43.5790 H   0  0  0  0  0  0  0  0  0  0  0  0
   36.3020   28.3480   44.2470 H   0  0  0  0  0  0  0  0  0  0  0  0
   37.0830   26.6570   44.1610 H   0  0  0  0  0  0  0  0  0  0  0  0
  1  2  1  6  0  0  0
  1 24  1  0  0  0  0
  3  9  1  0  0  0  0
  4  3  2  0  0  0  0
  4  1  1  0  0  0  0
  5  4  1  0  0  0  0
  6  5  2  0  0  0  0
  6  7  1  0  0  0  0
  7  8  2  0  0  0  0
  8  3  1  0  0  0  0
 10  5  1  0  0  0  0
 11  7  1  0  0  0  0
 12 19  2  0  0  0  0
 12 13  1  0  0  0  0
 13  1  1  0  0  0  0
 13 14  2  0  0  0  0
 14 16  1  0  0  0  0
 14 15  1  0  0  0  0
 16 17  1  0  0  0  0
 18 16  2  0  0  0  0
 19 18  1  0  0  0  0
 21 20  1  0  0  0  0
 21 12  1  0  0  0  0
 22 21  2  0  0  0  0
 23 21  2  0  0  0  0
 24 27  1  0  0  0  0
 24 26  1  0  0  0  0
 25 24  1  0  0  0  0
M  END
>  <minimizedAffinity>
-4.50237083

$$$$

 OpenBabel03242523433D

 27 28  0  0  1  0  0  0  0  0999 V2000
   37.2920   26.6850   42.6440 C   0  0  2  0  0  0  0  0  0  0  0  0
   37.1130   25.6050   42.8770 H   0  0  0  0  0  0  0  0  0  0  0  0
   39.5520   26.0030   43.4130 C   0  0  0  0  0  0  0  0  0  0  0  0
   38.6860   26.9730   42.9220 C   0  0  0  0  0  0  0  0  0  0  0  0
   39.2580   28.2540   42.7090 C   0  0  0  0  0  0  0  0  0  0  0  0
   40.5730   28.4350   42.9920 N   0  0  0  0  0  0  0  0  0  0  0  0
   41.3510   27.4570   43.4620 C   0  0  0  0  0  0  0  0  0  0  0  0
   40.8360   26.2340   43.6740 N   0  0  0  0  0  0  0  0  0  0  0  0
   39.2410   24.9910   43.6190 H   0  0  0  0  0  0  0  0  0  0  0  0
   38.6440   29.0560   42.3290 H   0  0  0  0  0  0  0  0  0  0  0  0
   42.3930   27.6720   43.6660 H   0  0  0  0  0  0  0  0  0  0  0  0
   36.9750   26.1710   40.1520 C   0  0  0  0  0  0  0  0  0  0  0  0
   36.8460   26.9720   41.2580 C   0  0  0  0  0  0  0  0  0  0  0  0
   36.2390   28.2190   41.0900 C   0  0  0  0  0  0  0  0  0  0  0  0
   36.0750   28.9450   41.8720 H   0  0  0  0  0  0  0  0  0  0  0  0
   35.7780   28.6500   39.8580 C   0  0  0  0  0  0  0  0  0  0  0  0
   35.3070   29.5840   39.6480 H   0  0  0  0  0  0  0  0  0  0  0  0
   35.9280   27.8140   38.7710 C   0  0  0  0  0  3  0  0  0  0  0  0
   36.5230   26.5770   38.9070 C   0  0  0  0  0  3  0  0  0  0  0  0
   38.8740   24.7270   41.0300 H   0  0  0  0  0  0  0  0  0  0  0  0
   37.7100   24.6210   40.3410 S   0  0  0  0  0  0  0  0  0  0  0  0
   36.7750   23.5700   40.8730 O   0  0  0  0  0  0  0  0  0  0  0  0
   38.1070   24.0940   38.9620 O   0  0  0  0  0  0  0  0  0  0  0  0
   36.4490   27.4220   43.6690 C   0  0  0  0  0  0  0  0  0  0  0  0
   36.7540   26.9780   44.6630 H   0  0  0  0  0  0  0  0  0  0  0  0
   35.3730   27.1820   43.4990 H   0  0  0  0  0  0  0  0  0  0  0  0
   36.6810   28.4850   43.7550 H   0  0  0  0  0  0  0  0  0  0  0  0
  1  2  1  1  0  0  0
  1  4  1  0  0  0  0
  1 24  1  0  0  0  0
  3  9  1  0  0  0  0
  3  8  1  0  0  0  0
  4  3  2  0  0  0  0
  5  4  1  0  0  0  0
  5  6  2  0  0  0  0
  6  7  1  0  0  0  0
  7 11  1  0  0  0  0
  7  8  2  0  0  0  0
 10  5  1  0  0  0  0
 12 21  1  0  0  0  0
 12 13  1  0  0  0  0
 13  1  1  0  0  0  0
 14 13  2  0  0  0  0
 14 15  1  0  0  0  0
 16 14  1  0  0  0  0
 17 16  1  0  0  0  0
 18 19  1  0  0  0  0
 18 16  2  0  0  0  0
 19 12  2  0  0  0  0
 21 22  2  0  0  0  0
 21 20  1  0  0  0  0
 23 21  2  0  0  0  0
 24 27  1  0  0  0  0
 24 25  1  0  0  0  0
 26 24  1  0  0  0  0
M  END
>  <minimizedAffinity>
-4.45315361

$$$$

 OpenBabel03242523433D

 27 28  0  0  1  0  0  0  0  0999 V2000
   37.5960   26.9960   42.5000 C   0  0  2  0  0  0  0  0  0  0  0  0
   38.0230   26.1020   43.0210 H   0  0  0  0  0  0  0  0  0  0  0  0
   39.9030   27.8000   42.0610 C   0  0  0  0  0  0  0  0  0  0  0  0
   38.6070   28.0360   42.5040 C   0  0  0  0  0  0  0  0  0  0  0  0
   38.3430   29.3550   42.9530 C   0  0  0  0  0  0  0  0  0  0  0  0
   39.3470   30.2680   42.9190 N   0  0  0  0  0  0  0  0  0  0  0  0
   40.5730   29.9750   42.4780 C   0  0  0  0  0  0  0  0  0  0  0  0
   40.8520   28.7330   42.0470 N   0  0  0  0  0  0  0  0  0  0  0  0
   40.2310   26.8400   41.6960 H   0  0  0  0  0  0  0  0  0  0  0  0
   37.3580   29.6090   43.3120 H   0  0  0  0  0  0  0  0  0  0  0  0
   41.3270   30.7530   42.4780 H   0  0  0  0  0  0  0  0  0  0  0  0
   37.1620   25.3580   40.5760 C   0  0  0  0  0  0  0  0  0  0  0  0
   37.0970   26.5970   41.1610 C   0  0  0  0  0  0  0  0  0  0  0  0
   36.5100   27.6310   40.4290 C   0  0  0  0  0  0  0  0  0  0  0  0
   36.3950   28.6490   40.7670 H   0  0  0  0  0  0  0  0  0  0  0  0
   36.0060   27.4330   39.1550 C   0  0  0  0  0  0  0  0  0  0  0  0
   35.5450   28.1680   38.5330 H   0  0  0  0  0  0  0  0  0  0  0  0
   36.0910   26.1710   38.6030 C   0  0  0  0  0  3  0  0  0  0  0  0
   36.6650   25.1310   39.3020 C   0  0  0  0  0  3  0  0  0  0  0  0
   37.4880   24.1150   42.7700 H   0  0  0  0  0  0  0  0  0  0  0  0
   37.8720   24.0630   41.4700 S   0  0  0  0  0  0  0  0  0  0  0  0
   37.6890   22.7160   40.8290 O   0  0  0  0  0  0  0  0  0  0  0  0
   39.3880   24.2560   41.4930 O   0  0  0  0  0  0  0  0  0  0  0  0
   36.4650   27.4410   43.4110 C   0  0  0  0  0  0  0  0  0  0  0  0
   36.9390   27.5280   44.4330 H   0  0  0  0  0  0  0  0  0  0  0  0
   35.6930   26.6360   43.4550 H   0  0  0  0  0  0  0  0  0  0  0  0
   36.0850   28.4390   43.1930 H   0  0  0  0  0  0  0  0  0  0  0  0
  1  4  1  0  0  0  0
  1  2  1  1  0  0  0
  1 24  1  0  0  0  0
  3  4  1  0  0  0  0
  4  5  2  0  0  0  0
  5 10  1  0  0  0  0
  6  5  1  0  0  0  0
  7  6  2  0  0  0  0
  8  3  2  0  0  0  0
  8  7  1  0  0  0  0
  9  3  1  0  0  0  0
 11  7  1  0  0  0  0
 12 13  1  0  0  0  0
 12 21  1  0  0  0  0
 13  1  1  0  0  0  0
 14 15  1  0  0  0  0
 14 13  2  0  0  0  0
 16 14  1  0  0  0  0
 17 16  1  0  0  0  0
 18 16  2  0  0  0  0
 18 19  1  0  0  0  0
 19 12  2  0  0  0  0
 21 23  2  0  0  0  0
 21 20  1  0  0  0  0
 22 21  2  0  0  0  0
 24 26  1  0  0  0  0
 24 25  1  0  0  0  0
 27 24  1  0  0  0  0
M  END
>  <minimizedAffinity>
-4.37693167

$$$$

 OpenBabel03242523433D

 27 28  0  0  1  0  0  0  0  0999 V2000
   36.5520   27.8650   42.2070 C   0  0  2  0  0  0  0  0  0  0  0  0
   35.4340   27.8940   42.1890 H   0  0  0  0  0  0  0  0  0  0  0  0
   36.9960   26.5770   40.1320 C   0  0  0  0  0  0  0  0  0  0  0  0
   36.9750   26.6600   41.5190 C   0  0  0  0  0  0  0  0  0  0  0  0
   37.3970   25.4950   42.2090 C   0  0  0  0  0  0  0  0  0  0  0  0
   37.7800   24.4120   41.4860 N   0  0  0  0  0  0  0  0  0  0  0  0
   37.7780   24.4000   40.1500 C   0  0  0  0  0  0  0  0  0  0  0  0
   37.3830   25.4900   39.4700 N   0  0  0  0  0  0  0  0  0  0  0  0
   36.6990   27.3940   39.4920 H   0  0  0  0  0  0  0  0  0  0  0  0
   37.4050   25.4880   43.2880 H   0  0  0  0  0  0  0  0  0  0  0  0
   38.0980   23.5010   39.6370 H   0  0  0  0  0  0  0  0  0  0  0  0
   38.3910   29.5670   41.6630 C   0  0  0  0  0  0  0  0  0  0  0  0
   37.0890   29.1340   41.6580 C   0  0  0  0  0  0  0  0  0  0  0  0
   36.1290   29.9720   41.0870 C   0  0  0  0  0  0  0  0  0  0  0  0
   35.0740   29.7560   41.0160 H   0  0  0  0  0  0  0  0  0  0  0  0
   36.4590   31.2000   40.5410 C   0  0  0  0  0  0  0  0  0  0  0  0
   35.7870   31.8950   40.0890 H   0  0  0  0  0  0  0  0  0  0  0  0
   37.7800   31.5970   40.5670 C   0  0  0  0  0  3  0  0  0  0  0  0
   38.7500   30.7920   41.1240 C   0  0  0  0  0  3  0  0  0  0  0  0
   39.1250   27.9410   43.4750 H   0  0  0  0  0  0  0  0  0  0  0  0
   39.5960   28.5400   42.3530 S   0  0  0  0  0  0  0  0  0  0  0  0
   40.2180   27.5920   41.3660 O   0  0  0  0  0  0  0  0  0  0  0  0
   40.7670   29.4030   42.8210 O   0  0  0  0  0  0  0  0  0  0  0  0
   36.8870   27.7030   43.6790 C   0  0  0  0  0  0  0  0  0  0  0  0
   36.2720   26.8180   44.0170 H   0  0  0  0  0  0  0  0  0  0  0  0
   36.5330   28.6030   44.2360 H   0  0  0  0  0  0  0  0  0  0  0  0
   37.9220   27.4140   43.8710 H   0  0  0  0  0  0  0  0  0  0  0  0
  1  2  1  6  0  0  0
  1 24  1  0  0  0  0
  3  4  1  0  0  0  0
  4  1  1  0  0  0  0
  4  5  2  0  0  0  0
  5 10  1  0  0  0  0
  6  5  1  0  0  0  0
  7  6  2  0  0  0  0
  8  3  2  0  0  0  0
  8  7  1  0  0  0  0
  9  3  1  0  0  0  0
 11  7  1  0  0  0  0
 12 21  1  0  0  0  0
 13 12  1  0  0  0  0
 13  1  1  0  0  0  0
 14 13  2  0  0  0  0
 15 14  1  0  0  0  0
 16 18  2  0  0  0  0
 16 14  1  0  0  0  0
 17 16  1  0  0  0  0
 18 19  1  0  0  0  0
 19 12  2  0  0  0  0
 21 23  2  0  0  0  0
 21 20  1  0  0  0  0
 22 21  2  0  0  0  0
 24 27  1  0  0  0  0
 24 25  1  0  0  0  0
 24 26  1  0  0  0  0
M  END
>  <minimizedAffinity>
-4.36750507

$$$$

 OpenBabel03242523433D

 27 28  0  0  1  0  0  0  0  0999 V2000
   37.2270   28.1830   42.5430 C   0  0  2  0  0  0  0  0  0  0  0  0
   36.2940   28.1060   43.1560 H   0  0  0  0  0  0  0  0  0  0  0  0
   37.4510   25.7840   41.9450 C   0  0  0  0  0  0  0  0  0  0  0  0
   37.9140   26.9070   42.6190 C   0  0  0  0  0  0  0  0  0  0  0  0
   39.0990   26.7220   43.3770 C   0  0  0  0  0  0  0  0  0  0  0  0
   39.6790   25.4960   43.3900 N   0  0  0  0  0  0  0  0  0  0  0  0
   39.1800   24.4560   42.7170 C   0  0  0  0  0  0  0  0  0  0  0  0
   38.0590   24.6010   41.9900 N   0  0  0  0  0  0  0  0  0  0  0  0
   36.5610   25.7930   41.3350 H   0  0  0  0  0  0  0  0  0  0  0  0
   39.5150   27.5530   43.9270 H   0  0  0  0  0  0  0  0  0  0  0  0
   39.6960   23.5040   42.7710 H   0  0  0  0  0  0  0  0  0  0  0  0
   37.7450   28.9700   40.1580 C   0  0  0  0  0  0  0  0  0  0  0  0
   36.8840   28.6410   41.1740 C   0  0  0  0  0  0  0  0  0  0  0  0
   35.5140   28.7520   40.9250 C   0  0  0  0  0  0  0  0  0  0  0  0
   34.7300   28.5260   41.6320 H   0  0  0  0  0  0  0  0  0  0  0  0
   35.0230   29.1790   39.7040 C   0  0  0  0  0  0  0  0  0  0  0  0
   33.9950   29.2910   39.4370 H   0  0  0  0  0  0  0  0  0  0  0  0
   35.9230   29.5010   38.7090 C   0  0  0  0  0  3  0  0  0  0  0  0
   37.2810   29.4000   38.9250 C   0  0  0  0  0  3  0  0  0  0  0  0
   39.7230   29.0090   41.7550 H   0  0  0  0  0  0  0  0  0  0  0  0
   39.4420   28.8270   40.4410 S   0  0  0  0  0  0  0  0  0  0  0  0
   40.0500   27.5860   39.8490 O   0  0  0  0  0  0  0  0  0  0  0  0
   40.1580   29.9670   39.7170 O   0  0  0  0  0  0  0  0  0  0  0  0
   38.0650   29.2090   43.2850 C   0  0  0  0  0  0  0  0  0  0  0  0
   38.0930   28.8380   44.3520 H   0  0  0  0  0  0  0  0  0  0  0  0
   37.5350   30.1910   43.2740 H   0  0  0  0  0  0  0  0  0  0  0  0
   39.1100   29.2400   42.9720 H   0  0  0  0  0  0  0  0  0  0  0  0
  1  4  1  0  0  0  0
  1  2  1  1  0  0  0
  1 24  1  0  0  0  0
  3  8  2  0  0  0  0
  3  4  1  0  0  0  0
  4  5  2  0  0  0  0
  5  6  1  0  0  0  0
  5 10  1  0  0  0  0
  7 11  1  0  0  0  0
  7  6  2  0  0  0  0
  8  7  1  0  0  0  0
  9  3  1  0  0  0  0
 12 21  1  0  0  0  0
 12 13  1  0  0  0  0
 13  1  1  0  0  0  0
 14 13  2  0  0  0  0
 14 15  1  0  0  0  0
 16 14  1  0  0  0  0
 17 16  1  0  0  0  0
 18 19  1  0  0  0  0
 18 16  2  0  0  0  0
 19 12  2  0  0  0  0
 21 20  1  0  0  0  0
 22 21  2  0  0  0  0
 23 21  2  0  0  0  0
 24 25  1  0  0  0  0
 26 24  1  0  0  0  0
 27 24  1  0  0  0  0
M  END
>  <minimizedAffinity>
-4.34828377

$$$$

 OpenBabel03242523433D

 27 28  0  0  1  0  0  0  0  0999 V2000
   39.3580   29.7750   41.1440 C   0  0  2  0  0  0  0  0  0  0  0  0
   39.9590   29.3190   40.3170 H   0  0  0  0  0  0  0  0  0  0  0  0
   37.6710   30.8230   39.6550 C   0  0  0  0  0  0  0  0  0  0  0  0
   38.6760   30.9370   40.6070 C   0  0  0  0  0  0  0  0  0  0  0  0
   38.9840   32.2600   41.0180 C   0  0  0  0  0  0  0  0  0  0  0  0
   38.2940   33.2900   40.4670 N   0  0  0  0  0  0  0  0  0  0  0  0
   37.3360   33.1090   39.5550 C   0  0  0  0  0  0  0  0  0  0  0  0
   37.0230   31.8680   39.1470 N   0  0  0  0  0  0  0  0  0  0  0  0
   37.3440   29.8740   39.2600 H   0  0  0  0  0  0  0  0  0  0  0  0
   39.7560   32.4230   41.7550 H   0  0  0  0  0  0  0  0  0  0  0  0
   36.8240   33.9780   39.1570 H   0  0  0  0  0  0  0  0  0  0  0  0
   38.1340   27.5230   41.2160 C   0  0  0  0  0  0  0  0  0  0  0  0
   38.4790   28.7410   41.7440 C   0  0  0  0  0  0  0  0  0  0  0  0
   37.9450   29.0840   42.9890 C   0  0  0  0  0  0  0  0  0  0  0  0
   38.1340   30.0060   43.5170 H   0  0  0  0  0  0  0  0  0  0  0  0
   37.0950   28.2390   43.6800 C   0  0  0  0  0  0  0  0  0  0  0  0
   36.6460   28.4270   44.6300 H   0  0  0  0  0  0  0  0  0  0  0  0
   36.7720   27.0230   43.1120 C   0  0  0  0  0  3  0  0  0  0  0  0
   37.2840   26.6570   41.8850 C   0  0  0  0  0  3  0  0  0  0  0  0
   38.6820   28.0970   38.8010 H   0  0  0  0  0  0  0  0  0  0  0  0
   38.7930   27.0750   39.6840 S   0  0  0  0  0  0  0  0  0  0  0  0
   40.1740   26.4860   39.7720 O   0  0  0  0  0  0  0  0  0  0  0  0
   37.9480   25.9440   39.0980 O   0  0  0  0  0  0  0  0  0  0  0  0
   40.4060   30.2610   42.1290 C   0  0  0  0  0  0  0  0  0  0  0  0
   41.1160   30.8840   41.5080 H   0  0  0  0  0  0  0  0  0  0  0  0
   40.9710   29.3850   42.5250 H   0  0  0  0  0  0  0  0  0  0  0  0
   40.0210   30.9470   42.8850 H   0  0  0  0  0  0  0  0  0  0  0  0
  1  2  1  6  0  0  0
  1 13  1  0  0  0  0
  1 24  1  0  0  0  0
  3  4  1  0  0  0  0
  4  5  2  0  0  0  0
  4  1  1  0  0  0  0
  5 10  1  0  0  0  0
  6  5  1  0  0  0  0
  7  6  2  0  0  0  0
  8  7  1  0  0  0  0
  8  3  2  0  0  0  0
  9  3  1  0  0  0  0
 11  7  1  0  0  0  0
 12 13  2  0  0  0  0
 12 19  1  0  0  0  0
 13 14  1  0  0  0  0
 14 15  1  0  0  0  0
 14 16  2  0  0  0  0
 16 17  1  0  0  0  0
 18 16  1  0  0  0  0
 19 18  2  0  0  0  0
 20 21  1  0  0  0  0
 21 22  2  0  0  0  0
 21 12  1  0  0  0  0
 23 21  2  0  0  0  0
 24 26  1  0  0  0  0
 24 27  1  0  0  0  0
 25 24  1  0  0  0  0
M  END
>  <minimizedAffinity>
-4.33714819

$$$$

 OpenBabel03242523433D

 27 28  0  0  1  0  0  0  0  0999 V2000
   38.8410   29.9620   39.9690 C   0  0  2  0  0  0  0  0  0  0  0  0
   38.4230   29.6350   38.9840 H   0  0  0  0  0  0  0  0  0  0  0  0
   37.5510   32.0790   39.8420 C   0  0  0  0  0  0  0  0  0  0  0  0
   38.7540   31.4090   40.0280 C   0  0  0  0  0  0  0  0  0  0  0  0
   39.8810   32.2310   40.2840 C   0  0  0  0  0  0  0  0  0  0  0  0
   39.7100   33.5760   40.3260 N   0  0  0  0  0  0  0  0  0  0  0  0
   38.5220   34.1580   40.1390 C   0  0  0  0  0  0  0  0  0  0  0  0
   37.4370   33.4040   39.8950 N   0  0  0  0  0  0  0  0  0  0  0  0
   36.6220   31.5700   39.6410 H   0  0  0  0  0  0  0  0  0  0  0  0
   40.8480   31.7770   40.4380 H   0  0  0  0  0  0  0  0  0  0  0  0
   38.4580   35.2390   40.1880 H   0  0  0  0  0  0  0  0  0  0  0  0
   36.9600   28.5580   41.0020 C   0  0  0  0  0  0  0  0  0  0  0  0
   38.1510   29.2360   41.0650 C   0  0  0  0  0  0  0  0  0  0  0  0
   38.8110   29.2790   42.2940 C   0  0  0  0  0  0  0  0  0  0  0  0
   39.7510   29.7750   42.4820 H   0  0  0  0  0  0  0  0  0  0  0  0
   38.2980   28.6650   43.4240 C   0  0  0  0  0  0  0  0  0  0  0  0
   38.7390   28.6530   44.3960 H   0  0  0  0  0  0  0  0  0  0  0  0
   37.0970   27.9940   43.3180 C   0  0  0  0  0  3  0  0  0  0  0  0
   36.4220   27.9350   42.1170 C   0  0  0  0  0  3  0  0  0  0  0  0
   36.7070   29.3260   38.5920 H   0  0  0  0  0  0  0  0  0  0  0  0
   36.1350   28.4830   39.4880 S   0  0  0  0  0  0  0  0  0  0  0  0
   35.9390   27.0830   38.9770 O   0  0  0  0  0  0  0  0  0  0  0  0
   34.7120   29.0070   39.6780 O   0  0  0  0  0  0  0  0  0  0  0  0
   40.3090   29.5850   39.8830 C   0  0  0  0  0  0  0  0  0  0  0  0
   40.6660   30.0430   38.9140 H   0  0  0  0  0  0  0  0  0  0  0  0
   40.3980   28.4770   39.7950 H   0  0  0  0  0  0  0  0  0  0  0  0
   40.9310   30.0430   40.6540 H   0  0  0  0  0  0  0  0  0  0  0  0
  1  2  1  6  0  0  0
  1  4  1  0  0  0  0
  1 13  1  0  0  0  0
  3  8  2  0  0  0  0
  3  4  1  0  0  0  0
  4  5  2  0  0  0  0
  5  6  1  0  0  0  0
  5 10  1  0  0  0  0
  7 11  1  0  0  0  0
  7  6  2  0  0  0  0
  8  7  1  0  0  0  0
  9  3  1  0  0  0  0
 12 13  2  0  0  0  0
 12 19  1  0  0  0  0
 13 14  1  0  0  0  0
 14 15  1  0  0  0  0
 14 16  2  0  0  0  0
 16 17  1  0  0  0  0
 18 16  1  0  0  0  0
 19 18  2  0  0  0  0
 20 21  1  0  0  0  0
 21 23  2  0  0  0  0
 21 12  1  0  0  0  0
 22 21  2  0  0  0  0
 24  1  1  0  0  0  0
 24 27  1  0  0  0  0
 25 24  1  0  0  0  0
 26 24  1  0  0  0  0
M  END
>  <minimizedAffinity>
-4.28553247

$$$$

 OpenBabel03242523433D

 27 28  0  0  1  0  0  0  0  0999 V2000
   36.1670   29.0720   39.7700 C   0  0  2  0  0  0  0  0  0  0  0  0
   36.4830   30.0550   39.3390 H   0  0  0  0  0  0  0  0  0  0  0  0
   37.8310   27.7770   38.4600 C   0  0  0  0  0  0  0  0  0  0  0  0
   36.5120   28.0370   38.8130 C   0  0  0  0  0  0  0  0  0  0  0  0
   35.5360   27.2240   38.1830 C   0  0  0  0  0  0  0  0  0  0  0  0
   35.9480   26.2760   37.3030 N   0  0  0  0  0  0  0  0  0  0  0  0
   37.2350   26.0770   37.0080 C   0  0  0  0  0  0  0  0  0  0  0  0
   38.1820   26.8320   37.5900 N   0  0  0  0  0  0  0  0  0  0  0  0
   38.6660   28.3250   38.8680 H   0  0  0  0  0  0  0  0  0  0  0  0
   34.4910   27.3720   38.4090 H   0  0  0  0  0  0  0  0  0  0  0  0
   37.4930   25.3010   36.2960 H   0  0  0  0  0  0  0  0  0  0  0  0
   37.7170   29.6890   41.7160 C   0  0  0  0  0  0  0  0  0  0  0  0
   36.7550   28.9120   41.1220 C   0  0  0  0  0  0  0  0  0  0  0  0
   36.2600   27.8240   41.8460 C   0  0  0  0  0  0  0  0  0  0  0  0
   35.5060   27.1350   41.5000 H   0  0  0  0  0  0  0  0  0  0  0  0
   36.7130   27.5240   43.1190 C   0  0  0  0  0  0  0  0  0  0  0  0
   36.3870   26.7140   43.7340 H   0  0  0  0  0  0  0  0  0  0  0  0
   37.6810   28.3310   43.6800 C   0  0  0  0  0  3  0  0  0  0  0  0
   38.1880   29.4120   42.9900 C   0  0  0  0  0  3  0  0  0  0  0  0
   38.9150   30.6430   39.6870 H   0  0  0  0  0  0  0  0  0  0  0  0
   38.3320   31.0460   40.8440 S   0  0  0  0  0  0  0  0  0  0  0  0
   37.3340   32.1570   40.6740 O   0  0  0  0  0  0  0  0  0  0  0  0
   39.4570   31.6840   41.6580 O   0  0  0  0  0  0  0  0  0  0  0  0
   34.6520   29.1700   39.8240 C   0  0  0  0  0  0  0  0  0  0  0  0
   34.3480   29.4780   38.7810 H   0  0  0  0  0  0  0  0  0  0  0  0
   34.3640   29.9890   40.5240 H   0  0  0  0  0  0  0  0  0  0  0  0
   34.1510   28.2160   39.9910 H   0  0  0  0  0  0  0  0  0  0  0  0
  1  2  1  6  0  0  0
  1 24  1  0  0  0  0
  1 13  1  0  0  0  0
  3  4  1  0  0  0  0
  3  9  1  0  0  0  0
  4  1  1  0  0  0  0
  5 10  1  0  0  0  0
  5  4  2  0  0  0  0
  6  5  1  0  0  0  0
  7  6  2  0  0  0  0
  7  8  1  0  0  0  0
  8  3  2  0  0  0  0
 11  7  1  0  0  0  0
 12 19  1  0  0  0  0
 13 12  2  0  0  0  0
 13 14  1  0  0  0  0
 14 16  2  0  0  0  0
 15 14  1  0  0  0  0
 16 18  1  0  0  0  0
 16 17  1  0  0  0  0
 19 18  2  0  0  0  0
 20 21  1  0  0  0  0
 21 23  2  0  0  0  0
 21 12  1  0  0  0  0
 22 21  2  0  0  0  0
 24 27  1  0  0  0  0
 24 26  1  0  0  0  0
 25 24  1  0  0  0  0
M  END
>  <minimizedAffinity>
-4.27638674

$$$$
