
 OpenBabel03252509243D

 30 32  0  0  1  0  0  0  0  0999 V2000
   46.6730   34.7540   42.0740 C   0  0  1  0  0  0  0  0  0  0  0  0
   48.1690   35.1370   42.1680 C   0  0  0  0  0  0  0  0  0  0  0  0
   47.6130   33.7450   41.7430 C   0  0  2  0  0  0  0  0  0  0  0  0
   46.1090   35.3670   41.3640 H   0  0  0  0  0  0  0  0  0  0  0  0
   48.4820   35.8080   41.3760 H   0  0  0  0  0  0  0  0  0  0  0  0
   48.6480   35.2270   43.1410 H   0  0  0  0  0  0  0  0  0  0  0  0
   47.8230   32.9690   42.5500 H   0  0  0  0  0  0  0  0  0  0  0  0
   44.5320   35.5820   45.0530 C   0  0  0  0  0  0  0  0  0  0  0  0
   45.1060   35.6950   43.7600 C   0  0  0  0  0  0  0  0  0  0  0  0
   46.0650   34.7390   43.4670 C   0  0  0  0  0  0  0  0  0  0  0  0
   46.4150   33.7640   44.3830 N   0  0  0  0  0  0  0  0  0  0  0  0
   45.8360   33.7120   45.5850 C   0  0  0  0  0  0  0  0  0  0  0  0
   44.8850   34.6280   45.9240 N   0  0  0  0  0  0  0  0  0  0  0  0
   43.7810   36.3060   45.3200 H   0  0  0  0  0  0  0  0  0  0  0  0
   46.2270   32.8920   46.1660 H   0  0  0  0  0  0  0  0  0  0  0  0
   44.7610   36.7240   42.8310 N   0  0  0  0  0  0  0  0  0  0  0  0
   45.4180   37.5080   43.0420 H   0  0  0  0  0  0  0  0  0  0  0  0
   44.0050   36.6200   42.1350 H   0  0  0  0  0  0  0  0  0  0  0  0
   49.0140   32.5370   39.8960 C   0  0  0  0  0  0  0  0  0  0  0  0
   47.9930   33.2810   40.3880 C   0  0  0  0  0  0  0  0  0  0  0  0
   47.0380   33.7170   39.4580 C   0  0  0  0  0  0  0  0  0  0  0  0
   46.1440   34.3260   39.6550 H   0  0  0  0  0  0  0  0  0  0  0  0
   47.1310   33.4040   38.1080 C   0  0  0  0  0  0  0  0  0  0  0  0
   46.4240   33.7150   37.3550 H   0  0  0  0  0  0  0  0  0  0  0  0
   48.1750   32.6540   37.6590 C   0  0  0  0  0  3  0  0  0  0  0  0
   49.1210   32.2190   38.5610 C   0  0  0  0  0  3  0  0  0  0  0  0
   50.5210   33.0080   41.9310 H   0  0  0  0  0  0  0  0  0  0  0  0
   50.2090   32.0210   41.0350 S   0  0  0  0  0  0  0  0  0  0  0  0
   51.5180   31.7450   40.3000 O   0  0  0  0  0  0  0  0  0  0  0  0
   49.7840   30.8140   41.8060 O   0  0  0  0  0  0  0  0  0  0  0  0
  1  4  1  6  0  0  0
  1  2  1  0  0  0  0
  1 10  1  0  0  0  0
  2  6  1  0  0  0  0
  3  1  1  0  0  0  0
  3  2  1  0  0  0  0
  3  7  1  1  0  0  0
  5  2  1  0  0  0  0
  8 14  1  0  0  0  0
  8 13  1  0  0  0  0
  9  8  2  0  0  0  0
 10  9  1  0  0  0  0
 10 11  2  0  0  0  0
 11 12  1  0  0  0  0
 12 13  2  0  0  0  0
 12 15  1  0  0  0  0
 16 17  1  0  0  0  0
 16  9  1  0  0  0  0
 18 16  1  0  0  0  0
 19 20  1  0  0  0  0
 19 28  1  0  0  0  0
 20  3  1  0  0  0  0
 21 22  1  0  0  0  0
 21 20  2  0  0  0  0
 23 21  1  0  0  0  0
 24 23  1  0  0  0  0
 25 23  2  0  0  0  0
 25 26  1  0  0  0  0
 26 19  2  0  0  0  0
 28 30  2  0  0  0  0
 28 27  1  0  0  0  0
 29 28  2  0  0  0  0
M  END
>  <minimizedAffinity>
-5.03949976

>  <minimizedRMSD>
0.825557947

$$$$
