
 OpenBabel03252501093D

 43 46  0  0  1  0  0  0  0  0999 V2000
   37.6500   30.8570   38.8840 O   0  0  0  0  0  0  0  0  0  0  0  0
   36.8430   29.7550   38.6010 C   0  0  0  0  0  0  0  0  0  0  0  0
   35.8010   29.6930   37.6940 C   0  0  0  0  0  0  0  0  0  0  0  0
   35.0930   28.5240   37.5280 C   0  0  0  0  0  0  0  0  0  0  0  0
   35.4170   27.4140   38.2600 C   0  0  0  0  0  0  0  0  0  0  0  0
   36.4750   27.5130   39.1660 C   0  0  0  0  0  0  0  0  0  0  0  0
   37.1610   28.6750   39.3150 N   0  0  0  0  0  0  0  0  0  0  0  0
   35.6310   30.6230   37.1710 H   0  0  0  0  0  0  0  0  0  0  0  0
   34.3100   28.6000   36.7960 H   0  0  0  0  0  0  0  0  0  0  0  0
   34.7680   26.5980   38.0450 H   0  0  0  0  0  0  0  0  0  0  0  0
   36.9910   26.3440   41.3750 C   0  0  0  0  0  0  0  0  0  0  0  0
   36.8010   26.3940   40.0240 C   0  0  0  0  0  0  0  0  0  0  0  0
   36.9170   25.1610   39.4160 C   0  0  0  0  0  0  0  0  0  0  0  0
   36.7870   25.0460   38.3380 H   0  0  0  0  0  0  0  0  0  0  0  0
   37.1950   23.9880   40.0620 C   0  0  0  0  0  0  0  0  0  0  0  0
   37.2930   23.0180   39.5850 H   0  0  0  0  0  0  0  0  0  0  0  0
   37.3800   23.9820   41.4140 C   0  0  0  0  0  3  0  0  0  0  0  0
   37.2730   25.1900   42.0690 C   0  0  0  0  0  3  0  0  0  0  0  0
   36.0050   28.7160   41.8290 H   0  0  0  0  0  0  0  0  0  0  0  0
   36.7990   27.7640   42.3670 S   0  0  0  0  0  0  0  0  0  0  0  0
   38.0820   28.3490   42.8400 O   0  0  0  0  0  0  0  0  0  0  0  0
   36.0700   27.3610   43.6740 O   0  0  0  0  0  0  0  0  0  0  0  0
   36.9320   33.2270   39.4420 O   0  0  0  0  0  0  0  0  0  0  0  0
   37.3710   31.9370   40.1370 P   0  0  1  0  0  0  0  0  0  0  0  0
   36.0160   31.3930   40.9820 O   0  0  0  0  0  0  0  0  0  0  0  0
   35.1670   31.6870   40.5550 H   0  0  0  0  0  0  0  0  0  0  0  0
   38.7190   32.1520   41.0420 O   0  0  0  0  0  0  0  0  0  0  0  0
   40.7730   30.9160   40.7200 C   0  0  1  0  0  0  0  0  0  0  0  0
   40.7700   31.2410   42.1520 C   0  0  0  0  0  0  0  0  0  0  0  0
   39.4650   31.0660   41.3480 C   0  0  1  0  0  0  0  0  0  0  0  0
   41.1640   29.9210   40.4140 H   0  0  0  0  0  0  0  0  0  0  0  0
   41.0140   30.4790   42.9170 H   0  0  0  0  0  0  0  0  0  0  0  0
   40.8780   32.2880   42.5180 H   0  0  0  0  0  0  0  0  0  0  0  0
   38.9070   30.1690   41.6760 H   0  0  0  0  0  0  0  0  0  0  0  0
   41.4650   32.9880   37.6250 C   0  0  0  0  0  0  0  0  0  0  0  0
   41.0310   31.9370   38.4280 C   0  0  0  0  0  0  0  0  0  0  0  0
   41.2160   32.0360   39.8210 C   0  0  0  0  0  0  0  0  0  0  0  0
   41.8120   33.1500   40.3400 N   0  0  0  0  0  0  0  0  0  0  0  0
   42.2190   34.1530   39.5140 C   0  0  0  0  0  0  0  0  0  0  0  0
   42.0480   34.0750   38.1740 N   0  0  0  0  0  0  0  0  0  0  0  0
   41.3480   32.9650   36.5610 H   0  0  0  0  0  0  0  0  0  0  0  0
   40.5650   31.0700   37.9910 H   0  0  0  0  0  0  0  0  0  0  0  0
   42.6470   34.9190   40.1330 H   0  0  0  0  0  0  0  0  0  0  0  0
  1 24  1  0  0  0  0
  2  1  1  0  0  0  0
  2  7  1  0  0  0  0
  3  2  2  0  0  0  0
  4  3  1  0  0  0  0
  4  5  2  0  0  0  0
  5  6  1  0  0  0  0
  6  7  2  0  0  0  0
  6 12  1  0  0  0  0
  8  3  1  0  0  0  0
  9  4  1  0  0  0  0
 10  5  1  0  0  0  0
 11 18  1  0  0  0  0
 11 20  1  0  0  0  0
 12 11  2  0  0  0  0
 13 12  1  0  0  0  0
 13 15  2  0  0  0  0
 14 13  1  0  0  0  0
 15 17  1  0  0  0  0
 16 15  1  0  0  0  0
 17 18  2  0  0  0  0
 19 20  1  0  0  0  0
 20 21  2  0  0  0  0
 20 22  2  0  0  0  0
 24 23  2  6  0  0  0
 24 25  1  0  0  0  0
 24 27  1  0  0  0  0
 26 25  1  0  0  0  0
 27 30  1  0  0  0  0
 28 31  1  6  0  0  0
 28 30  1  0  0  0  0
 28 29  1  0  0  0  0
 29 33  1  0  0  0  0
 29 32  1  0  0  0  0
 30 34  1  1  0  0  0
 30 29  1  0  0  0  0
 35 40  2  0  0  0  0
 35 36  1  0  0  0  0
 36 37  2  0  0  0  0
 37 38  1  0  0  0  0
 37 28  1  0  0  0  0
 39 43  1  0  0  0  0
 39 38  2  0  0  0  0
 40 39  1  0  0  0  0
 41 35  1  0  0  0  0
 42 36  1  0  0  0  0
M  END
>  <minimizedAffinity>
-6.03443003

$$$$

 OpenBabel03252501093D

 43 46  0  0  1  0  0  0  0  0999 V2000
   40.2680   29.9910   37.7090 O   0  0  0  0  0  0  0  0  0  0  0  0
   40.6350   29.0910   38.7090 C   0  0  0  0  0  0  0  0  0  0  0  0
   41.8360   28.4140   38.8250 C   0  0  0  0  0  0  0  0  0  0  0  0
   42.0480   27.5520   39.8770 C   0  0  0  0  0  0  0  0  0  0  0  0
   41.0710   27.3590   40.8160 C   0  0  0  0  0  0  0  0  0  0  0  0
   39.8720   28.0590   40.6670 C   0  0  0  0  0  0  0  0  0  0  0  0
   39.6820   28.9040   39.6220 N   0  0  0  0  0  0  0  0  0  0  0  0
   42.5340   28.6410   38.0330 H   0  0  0  0  0  0  0  0  0  0  0  0
   43.0170   27.0880   39.8590 H   0  0  0  0  0  0  0  0  0  0  0  0
   41.3670   26.6470   41.5510 H   0  0  0  0  0  0  0  0  0  0  0  0
   37.7880   26.8850   41.5550 C   0  0  0  0  0  0  0  0  0  0  0  0
   38.7780   27.8240   41.5850 C   0  0  0  0  0  0  0  0  0  0  0  0
   38.7120   28.6440   42.6920 C   0  0  0  0  0  0  0  0  0  0  0  0
   39.4410   29.4410   42.8520 H   0  0  0  0  0  0  0  0  0  0  0  0
   37.7680   28.5600   43.6790 C   0  0  0  0  0  0  0  0  0  0  0  0
   37.7100   29.2080   44.5470 H   0  0  0  0  0  0  0  0  0  0  0  0
   36.7930   27.6070   43.6100 C   0  0  0  0  0  3  0  0  0  0  0  0
   36.8160   26.7610   42.5220 C   0  0  0  0  0  3  0  0  0  0  0  0
   38.1790   26.0990   39.0990 H   0  0  0  0  0  0  0  0  0  0  0  0
   37.7260   25.6770   40.3000 S   0  0  0  0  0  0  0  0  0  0  0  0
   36.4020   25.0150   40.1630 O   0  0  0  0  0  0  0  0  0  0  0  0
   38.6840   24.5190   40.6770 O   0  0  0  0  0  0  0  0  0  0  0  0
   41.8090   32.0020   37.5400 O   0  0  0  0  0  0  0  0  0  0  0  0
   40.3530   31.6600   37.8620 P   0  0  1  0  0  0  0  0  0  0  0  0
   39.4420   32.3310   36.6090 O   0  0  0  0  0  0  0  0  0  0  0  0
   39.9610   32.3930   35.7630 H   0  0  0  0  0  0  0  0  0  0  0  0
   39.9260   32.1370   39.3690 O   0  0  0  0  0  0  0  0  0  0  0  0
   37.8380   33.3390   39.5860 C   0  0  1  0  0  0  0  0  0  0  0  0
   38.5600   33.6450   40.8280 C   0  0  0  0  0  0  0  0  0  0  0  0
   39.2940   33.3250   39.5100 C   0  0  1  0  0  0  0  0  0  0  0  0
   37.2360   34.1500   39.1220 H   0  0  0  0  0  0  0  0  0  0  0  0
   38.6220   34.6780   41.2190 H   0  0  0  0  0  0  0  0  0  0  0  0
   38.7610   32.8650   41.5990 H   0  0  0  0  0  0  0  0  0  0  0  0
   39.8330   34.2110   39.1240 H   0  0  0  0  0  0  0  0  0  0  0  0
   36.0970   30.1720   40.7210 C   0  0  0  0  0  0  0  0  0  0  0  0
   36.7170   31.4180   40.7740 C   0  0  0  0  0  0  0  0  0  0  0  0
   37.1540   32.0010   39.5680 C   0  0  0  0  0  0  0  0  0  0  0  0
   36.9600   31.3340   38.3930 N   0  0  0  0  0  0  0  0  0  0  0  0
   36.3480   30.1180   38.3910 C   0  0  0  0  0  0  0  0  0  0  0  0
   35.9220   29.5430   39.5390 N   0  0  0  0  0  0  0  0  0  0  0  0
   35.7460   29.6830   41.6060 H   0  0  0  0  0  0  0  0  0  0  0  0
   36.8570   31.9190   41.7160 H   0  0  0  0  0  0  0  0  0  0  0  0
   36.2990   29.7890   37.3700 H   0  0  0  0  0  0  0  0  0  0  0  0
  1 24  1  0  0  0  0
  1  2  1  0  0  0  0
  2  3  2  0  0  0  0
  2  7  1  0  0  0  0
  3  4  1  0  0  0  0
  4  5  2  0  0  0  0
  5 10  1  0  0  0  0
  6  5  1  0  0  0  0
  6 12  1  0  0  0  0
  7  6  2  0  0  0  0
  8  3  1  0  0  0  0
  9  4  1  0  0  0  0
 11 12  2  0  0  0  0
 11 18  1  0  0  0  0
 12 13  1  0  0  0  0
 13 14  1  0  0  0  0
 13 15  2  0  0  0  0
 15 16  1  0  0  0  0
 17 15  1  0  0  0  0
 18 17  2  0  0  0  0
 19 20  1  0  0  0  0
 20 22  2  0  0  0  0
 20 11  1  0  0  0  0
 21 20  2  0  0  0  0
 24 23  2  6  0  0  0
 24 27  1  0  0  0  0
 25 24  1  0  0  0  0
 26 25  1  0  0  0  0
 27 30  1  0  0  0  0
 28 31  1  6  0  0  0
 28 29  1  0  0  0  0
 29 32  1  0  0  0  0
 29 33  1  0  0  0  0
 30 34  1  6  0  0  0
 30 28  1  0  0  0  0
 30 29  1  0  0  0  0
 35 36  1  0  0  0  0
 35 41  1  0  0  0  0
 36 42  1  0  0  0  0
 37 28  1  0  0  0  0
 37 36  2  0  0  0  0
 38 37  1  0  0  0  0
 39 38  2  0  0  0  0
 39 40  1  0  0  0  0
 40 35  2  0  0  0  0
 43 39  1  0  0  0  0
M  END
>  <minimizedAffinity>
-6.01449251

$$$$

 OpenBabel03252501093D

 43 46  0  0  1  0  0  0  0  0999 V2000
   35.4110   28.2690   38.0040 O   0  0  0  0  0  0  0  0  0  0  0  0
   34.2440   27.9510   37.3070 C   0  0  0  0  0  0  0  0  0  0  0  0
   33.8110   26.6920   36.9340 C   0  0  0  0  0  0  0  0  0  0  0  0
   32.6290   26.5410   36.2440 C   0  0  0  0  0  0  0  0  0  0  0  0
   31.8750   27.6370   35.9230 C   0  0  0  0  0  0  0  0  0  0  0  0
   32.3440   28.8920   36.3160 C   0  0  0  0  0  0  0  0  0  0  0  0
   33.5120   29.0200   36.9960 N   0  0  0  0  0  0  0  0  0  0  0  0
   34.4800   25.9000   37.2380 H   0  0  0  0  0  0  0  0  0  0  0  0
   32.3990   25.5170   36.0130 H   0  0  0  0  0  0  0  0  0  0  0  0
   31.0070   27.3680   35.3690 H   0  0  0  0  0  0  0  0  0  0  0  0
   30.6370   30.7710   36.5710 C   0  0  0  0  0  0  0  0  0  0  0  0
   31.6270   30.0870   35.9260 C   0  0  0  0  0  0  0  0  0  0  0  0
   31.9960   30.6690   34.7310 C   0  0  0  0  0  0  0  0  0  0  0  0
   32.7790   30.2340   34.1070 H   0  0  0  0  0  0  0  0  0  0  0  0
   31.4520   31.8100   34.2100 C   0  0  0  0  0  0  0  0  0  0  0  0
   31.7360   32.2670   33.2670 H   0  0  0  0  0  0  0  0  0  0  0  0
   30.4610   32.4630   34.8860 C   0  0  0  0  0  3  0  0  0  0  0  0
   30.0570   31.9210   36.0870 C   0  0  0  0  0  3  0  0  0  0  0  0
   31.0540   30.0890   39.0530 H   0  0  0  0  0  0  0  0  0  0  0  0
   30.0730   30.2750   38.1430 S   0  0  0  0  0  0  0  0  0  0  0  0
   29.1480   29.1110   38.1160 O   0  0  0  0  0  0  0  0  0  0  0  0
   29.2140   31.4180   38.7450 O   0  0  0  0  0  0  0  0  0  0  0  0
   36.1160   30.2780   39.3870 O   0  0  0  0  0  0  0  0  0  0  0  0
   35.4410   28.9150   39.5520 P   0  0  1  0  0  0  0  0  0  0  0  0
   33.8460   29.2490   39.9930 O   0  0  0  0  0  0  0  0  0  0  0  0
   33.5400   30.1290   39.6440 H   0  0  0  0  0  0  0  0  0  0  0  0
   36.2600   27.9410   40.5820 O   0  0  0  0  0  0  0  0  0  0  0  0
   36.8760   27.3230   42.8380 C   0  0  1  0  0  0  0  0  0  0  0  0
   37.5660   28.6000   42.6140 C   0  0  0  0  0  0  0  0  0  0  0  0
   36.2460   28.2450   41.9000 C   0  0  1  0  0  0  0  0  0  0  0  0
   36.4500   27.1340   43.8470 H   0  0  0  0  0  0  0  0  0  0  0  0
   37.5460   29.4080   43.3710 H   0  0  0  0  0  0  0  0  0  0  0  0
   38.4040   28.6970   41.8840 H   0  0  0  0  0  0  0  0  0  0  0  0
   35.4170   28.8940   42.2390 H   0  0  0  0  0  0  0  0  0  0  0  0
   39.5070   25.0830   41.2870 C   0  0  0  0  0  0  0  0  0  0  0  0
   38.9090   26.2090   41.8450 C   0  0  0  0  0  0  0  0  0  0  0  0
   37.5600   26.1260   42.2420 C   0  0  0  0  0  0  0  0  0  0  0  0
   36.8830   24.9520   42.0680 N   0  0  0  0  0  0  0  0  0  0  0  0
   37.5100   23.8770   41.5180 C   0  0  0  0  0  0  0  0  0  0  0  0
   38.8060   23.9400   41.1310 N   0  0  0  0  0  0  0  0  0  0  0  0
   40.5290   25.0910   40.9680 H   0  0  0  0  0  0  0  0  0  0  0  0
   39.4680   27.1210   41.9690 H   0  0  0  0  0  0  0  0  0  0  0  0
   36.7970   23.0760   41.4840 H   0  0  0  0  0  0  0  0  0  0  0  0
  1 24  1  0  0  0  0
  2  1  1  0  0  0  0
  3  8  1  0  0  0  0
  3  2  2  0  0  0  0
  4  3  1  0  0  0  0
  5  4  2  0  0  0  0
  5  6  1  0  0  0  0
  6  7  2  0  0  0  0
  7  2  1  0  0  0  0
  9  4  1  0  0  0  0
 10  5  1  0  0  0  0
 11 20  1  0  0  0  0
 12  6  1  0  0  0  0
 12 11  2  0  0  0  0
 13 12  1  0  0  0  0
 14 13  1  0  0  0  0
 15 13  2  0  0  0  0
 15 17  1  0  0  0  0
 16 15  1  0  0  0  0
 17 18  2  0  0  0  0
 18 11  1  0  0  0  0
 20 22  2  0  0  0  0
 20 19  1  0  0  0  0
 21 20  2  0  0  0  0
 24 23  2  6  0  0  0
 24 25  1  0  0  0  0
 24 27  1  0  0  0  0
 26 25  1  0  0  0  0
 27 30  1  0  0  0  0
 28 31  1  1  0  0  0
 29 28  1  0  0  0  0
 29 32  1  0  0  0  0
 30 34  1  1  0  0  0
 30 29  1  0  0  0  0
 30 28  1  0  0  0  0
 33 29  1  0  0  0  0
 35 36  1  0  0  0  0
 36 42  1  0  0  0  0
 36 37  2  0  0  0  0
 37 28  1  0  0  0  0
 38 37  1  0  0  0  0
 39 38  2  0  0  0  0
 40 35  2  0  0  0  0
 40 39  1  0  0  0  0
 41 35  1  0  0  0  0
 43 39  1  0  0  0  0
M  END
>  <minimizedAffinity>
-5.98866081

$$$$

 OpenBabel03252501093D

 43 46  0  0  1  0  0  0  0  0999 V2000
   35.9820   30.3650   40.0990 O   0  0  0  0  0  0  0  0  0  0  0  0
   35.7930   29.1600   39.4230 C   0  0  0  0  0  0  0  0  0  0  0  0
   34.9020   28.9080   38.3960 C   0  0  0  0  0  0  0  0  0  0  0  0
   34.8330   27.6570   37.8270 C   0  0  0  0  0  0  0  0  0  0  0  0
   35.6480   26.6520   38.2750 C   0  0  0  0  0  0  0  0  0  0  0  0
   36.5350   26.9420   39.3130 C   0  0  0  0  0  0  0  0  0  0  0  0
   36.5880   28.1830   39.8610 N   0  0  0  0  0  0  0  0  0  0  0  0
   34.3090   29.7690   38.1210 H   0  0  0  0  0  0  0  0  0  0  0  0
   34.1050   27.5860   37.0400 H   0  0  0  0  0  0  0  0  0  0  0  0
   35.4630   25.7380   37.7600 H   0  0  0  0  0  0  0  0  0  0  0  0
   38.6680   25.5860   39.6610 C   0  0  0  0  0  0  0  0  0  0  0  0
   37.3560   25.8930   39.8780 C   0  0  0  0  0  0  0  0  0  0  0  0
   36.7550   25.0700   40.8080 C   0  0  0  0  0  0  0  0  0  0  0  0
   35.7070   25.1980   41.0860 H   0  0  0  0  0  0  0  0  0  0  0  0
   37.3730   24.0420   41.4650 C   0  0  0  0  0  0  0  0  0  0  0  0
   36.9010   23.3890   42.1920 H   0  0  0  0  0  0  0  0  0  0  0  0
   38.6870   23.7670   41.2180 C   0  0  0  0  0  3  0  0  0  0  0  0
   39.3340   24.5620   40.2950 C   0  0  0  0  0  3  0  0  0  0  0  0
   39.0360   26.9400   37.4620 H   0  0  0  0  0  0  0  0  0  0  0  0
   39.6570   26.5490   38.5970 S   0  0  0  0  0  0  0  0  0  0  0  0
   40.9830   25.9500   38.2960 O   0  0  0  0  0  0  0  0  0  0  0  0
   40.0040   27.8810   39.3120 O   0  0  0  0  0  0  0  0  0  0  0  0
   37.2480   31.6140   38.2880 O   0  0  0  0  0  0  0  0  0  0  0  0
   37.2490   31.4260   39.8060 P   0  0  1  0  0  0  0  0  0  0  0  0
   36.8140   32.9240   40.4490 O   0  0  0  0  0  0  0  0  0  0  0  0
   36.2460   33.4480   39.8230 H   0  0  0  0  0  0  0  0  0  0  0  0
   38.6670   30.8160   40.3520 O   0  0  0  0  0  0  0  0  0  0  0  0
   39.6720   31.0050   42.5430 C   0  0  1  0  0  0  0  0  0  0  0  0
   40.8080   31.0980   41.6170 C   0  0  0  0  0  0  0  0  0  0  0  0
   39.3900   31.5560   41.2230 C   0  0  1  0  0  0  0  0  0  0  0  0
   39.6900   31.6450   43.4530 H   0  0  0  0  0  0  0  0  0  0  0  0
   41.5890   31.8740   41.7380 H   0  0  0  0  0  0  0  0  0  0  0  0
   41.1370   30.2310   40.9990 H   0  0  0  0  0  0  0  0  0  0  0  0
   39.3450   32.6530   41.0830 H   0  0  0  0  0  0  0  0  0  0  0  0
   39.5860   27.2390   42.9340 C   0  0  0  0  0  0  0  0  0  0  0  0
   40.0750   28.5210   42.6970 C   0  0  0  0  0  0  0  0  0  0  0  0
   39.1850   29.6080   42.8040 C   0  0  0  0  0  0  0  0  0  0  0  0
   37.8810   29.3750   43.1330 N   0  0  0  0  0  0  0  0  0  0  0  0
   37.4490   28.1040   43.3570 C   0  0  0  0  0  0  0  0  0  0  0  0
   38.2900   27.0480   43.2590 N   0  0  0  0  0  0  0  0  0  0  0  0
   40.2180   26.3770   42.8670 H   0  0  0  0  0  0  0  0  0  0  0  0
   41.1090   28.6730   42.4380 H   0  0  0  0  0  0  0  0  0  0  0  0
   36.4060   28.1610   43.6030 H   0  0  0  0  0  0  0  0  0  0  0  0
  2  7  1  0  0  0  0
  2  1  1  0  0  0  0
  3  2  2  0  0  0  0
  4  5  2  0  0  0  0
  4  3  1  0  0  0  0
  5  6  1  0  0  0  0
  6  7  2  0  0  0  0
  6 12  1  0  0  0  0
  8  3  1  0  0  0  0
  9  4  1  0  0  0  0
 10  5  1  0  0  0  0
 11 12  2  0  0  0  0
 11 18  1  0  0  0  0
 12 13  1  0  0  0  0
 13 14  1  0  0  0  0
 13 15  2  0  0  0  0
 15 16  1  0  0  0  0
 17 15  1  0  0  0  0
 18 17  2  0  0  0  0
 19 20  1  0  0  0  0
 20 22  2  0  0  0  0
 20 11  1  0  0  0  0
 21 20  2  0  0  0  0
 24 23  2  6  0  0  0
 24  1  1  0  0  0  0
 24 27  1  0  0  0  0
 24 25  1  0  0  0  0
 26 25  1  0  0  0  0
 27 30  1  0  0  0  0
 28 37  1  0  0  0  0
 28 31  1  1  0  0  0
 29 32  1  0  0  0  0
 29 28  1  0  0  0  0
 30 34  1  6  0  0  0
 30 29  1  0  0  0  0
 30 28  1  0  0  0  0
 33 29  1  0  0  0  0
 35 40  1  0  0  0  0
 36 37  1  0  0  0  0
 36 35  2  0  0  0  0
 37 38  2  0  0  0  0
 38 39  1  0  0  0  0
 39 43  1  0  0  0  0
 40 39  2  0  0  0  0
 41 35  1  0  0  0  0
 42 36  1  0  0  0  0
M  END
>  <minimizedAffinity>
-5.7388196

$$$$

 OpenBabel03252501093D

 43 46  0  0  1  0  0  0  0  0999 V2000
   37.7670   29.4490   38.4000 O   0  0  0  0  0  0  0  0  0  0  0  0
   37.9060   30.6520   39.0930 C   0  0  0  0  0  0  0  0  0  0  0  0
   37.0220   31.7150   39.1100 C   0  0  0  0  0  0  0  0  0  0  0  0
   37.3040   32.8420   39.8480 C   0  0  0  0  0  0  0  0  0  0  0  0
   38.4640   32.9180   40.5710 C   0  0  0  0  0  0  0  0  0  0  0  0
   39.3330   31.8260   40.5300 C   0  0  0  0  0  0  0  0  0  0  0  0
   39.0360   30.7230   39.7960 N   0  0  0  0  0  0  0  0  0  0  0  0
   36.1400   31.5490   38.5070 H   0  0  0  0  0  0  0  0  0  0  0  0
   36.5410   33.5960   39.7820 H   0  0  0  0  0  0  0  0  0  0  0  0
   38.5570   33.8560   41.0660 H   0  0  0  0  0  0  0  0  0  0  0  0
   41.7420   32.5850   40.8900 C   0  0  0  0  0  0  0  0  0  0  0  0
   40.6100   31.8920   41.2080 C   0  0  0  0  0  0  0  0  0  0  0  0
   40.7260   31.1750   42.3820 C   0  0  0  0  0  0  0  0  0  0  0  0
   39.8980   30.5750   42.7640 H   0  0  0  0  0  0  0  0  0  0  0  0
   41.8420   31.1340   43.1710 C   0  0  0  0  0  0  0  0  0  0  0  0
   41.9390   30.5660   44.0910 H   0  0  0  0  0  0  0  0  0  0  0  0
   42.9550   31.8400   42.8160 C   0  0  0  0  0  3  0  0  0  0  0  0
   42.8890   32.5750   41.6510 C   0  0  0  0  0  3  0  0  0  0  0  0
   41.0550   34.7590   39.6230 H   0  0  0  0  0  0  0  0  0  0  0  0
   41.7980   33.6360   39.5020 S   0  0  0  0  0  0  0  0  0  0  0  0
   41.5150   32.9520   38.2120 O   0  0  0  0  0  0  0  0  0  0  0  0
   43.2480   34.1610   39.3340 O   0  0  0  0  0  0  0  0  0  0  0  0
   35.6230   28.2400   39.0210 O   0  0  0  0  0  0  0  0  0  0  0  0
   37.1390   28.0420   39.0650 P   0  0  1  0  0  0  0  0  0  0  0  0
   37.4630   26.7840   37.9880 O   0  0  0  0  0  0  0  0  0  0  0  0
   36.7850   26.7300   37.2630 H   0  0  0  0  0  0  0  0  0  0  0  0
   37.6880   27.8150   40.5910 O   0  0  0  0  0  0  0  0  0  0  0  0
   37.0890   27.5440   42.9180 C   0  0  1  0  0  0  0  0  0  0  0  0
   37.4870   28.9530   42.8110 C   0  0  0  0  0  0  0  0  0  0  0  0
   36.8900   28.1770   41.6200 C   0  0  1  0  0  0  0  0  0  0  0  0
   36.2350   27.2950   43.5850 H   0  0  0  0  0  0  0  0  0  0  0  0
   36.8800   29.7610   43.2630 H   0  0  0  0  0  0  0  0  0  0  0  0
   38.5420   29.2530   42.6070 H   0  0  0  0  0  0  0  0  0  0  0  0
   35.8910   28.5670   41.3460 H   0  0  0  0  0  0  0  0  0  0  0  0
   40.4870   26.0510   43.6740 C   0  0  0  0  0  0  0  0  0  0  0  0
   39.4470   26.9740   43.6060 C   0  0  0  0  0  0  0  0  0  0  0  0
   38.2300   26.5720   43.0200 C   0  0  0  0  0  0  0  0  0  0  0  0
   38.1080   25.3000   42.5390 N   0  0  0  0  0  0  0  0  0  0  0  0
   39.1530   24.4330   42.6280 C   0  0  0  0  0  0  0  0  0  0  0  0
   40.3280   24.8020   43.1880 N   0  0  0  0  0  0  0  0  0  0  0  0
   41.4320   26.3040   44.1090 H   0  0  0  0  0  0  0  0  0  0  0  0
   39.5730   27.9710   43.9940 H   0  0  0  0  0  0  0  0  0  0  0  0
   38.8320   23.5030   42.1980 H   0  0  0  0  0  0  0  0  0  0  0  0
  1 24  1  0  0  0  0
  1  2  1  0  0  0  0
  2  3  2  0  0  0  0
  2  7  1  0  0  0  0
  3  4  1  0  0  0  0
  4  5  2  0  0  0  0
  5 10  1  0  0  0  0
  6  5  1  0  0  0  0
  6 12  1  0  0  0  0
  7  6  2  0  0  0  0
  8  3  1  0  0  0  0
  9  4  1  0  0  0  0
 11 12  2  0  0  0  0
 11 18  1  0  0  0  0
 12 13  1  0  0  0  0
 13 14  1  0  0  0  0
 13 15  2  0  0  0  0
 15 16  1  0  0  0  0
 17 15  1  0  0  0  0
 18 17  2  0  0  0  0
 20 19  1  0  0  0  0
 20 11  1  0  0  0  0
 21 20  2  0  0  0  0
 22 20  2  0  0  0  0
 24 23  2  1  0  0  0
 24 27  1  0  0  0  0
 25 24  1  0  0  0  0
 26 25  1  0  0  0  0
 27 30  1  0  0  0  0
 28 37  1  0  0  0  0
 28 31  1  1  0  0  0
 29 28  1  0  0  0  0
 29 32  1  0  0  0  0
 30 34  1  6  0  0  0
 30 29  1  0  0  0  0
 30 28  1  0  0  0  0
 33 29  1  0  0  0  0
 35 41  1  0  0  0  0
 36 35  1  0  0  0  0
 36 42  1  0  0  0  0
 37 36  2  0  0  0  0
 38 39  2  0  0  0  0
 38 37  1  0  0  0  0
 39 40  1  0  0  0  0
 40 35  2  0  0  0  0
 43 39  1  0  0  0  0
M  END
>  <minimizedAffinity>
-5.69406414

$$$$

 OpenBabel03252501093D

 43 46  0  0  1  0  0  0  0  0999 V2000
   36.7350   27.6760   37.3620 O   0  0  0  0  0  0  0  0  0  0  0  0
   36.4690   27.9680   38.7000 C   0  0  0  0  0  0  0  0  0  0  0  0
   35.5350   28.8610   39.1920 C   0  0  0  0  0  0  0  0  0  0  0  0
   35.3910   29.0380   40.5490 C   0  0  0  0  0  0  0  0  0  0  0  0
   36.1740   28.3310   41.4220 C   0  0  0  0  0  0  0  0  0  0  0  0
   37.1060   27.4390   40.8900 C   0  0  0  0  0  0  0  0  0  0  0  0
   37.2320   27.2780   39.5480 N   0  0  0  0  0  0  0  0  0  0  0  0
   34.9720   29.3630   38.4180 H   0  0  0  0  0  0  0  0  0  0  0  0
   34.6340   29.7560   40.8070 H   0  0  0  0  0  0  0  0  0  0  0  0
   35.9690   28.5930   42.4340 H   0  0  0  0  0  0  0  0  0  0  0  0
   38.3150   25.4030   41.8400 C   0  0  0  0  0  0  0  0  0  0  0  0
   38.0140   26.7320   41.7670 C   0  0  0  0  0  0  0  0  0  0  0  0
   38.7260   27.4980   42.6680 C   0  0  0  0  0  0  0  0  0  0  0  0
   38.5930   28.5800   42.7230 H   0  0  0  0  0  0  0  0  0  0  0  0
   39.6450   27.0140   43.5590 C   0  0  0  0  0  0  0  0  0  0  0  0
   40.2010   27.6120   44.2730 H   0  0  0  0  0  0  0  0  0  0  0  0
   39.9150   25.6760   43.6010 C   0  0  0  0  0  3  0  0  0  0  0  0
   39.2290   24.8680   42.7190 C   0  0  0  0  0  3  0  0  0  0  0  0
   37.7820   24.5590   39.4300 H   0  0  0  0  0  0  0  0  0  0  0  0
   37.6080   24.2550   40.7350 S   0  0  0  0  0  0  0  0  0  0  0  0
   36.1830   23.9390   41.0200 O   0  0  0  0  0  0  0  0  0  0  0  0
   38.3320   22.8940   40.9040 O   0  0  0  0  0  0  0  0  0  0  0  0
   38.9300   26.8620   36.3810 O   0  0  0  0  0  0  0  0  0  0  0  0
   38.1240   28.1510   36.5490 P   0  0  1  0  0  0  0  0  0  0  0  0
   37.6670   28.6070   34.9890 O   0  0  0  0  0  0  0  0  0  0  0  0
   37.5910   27.8250   34.3790 H   0  0  0  0  0  0  0  0  0  0  0  0
   38.9450   29.2860   37.3960 O   0  0  0  0  0  0  0  0  0  0  0  0
   40.8400   29.8330   38.7960 C   0  0  1  0  0  0  0  0  0  0  0  0
   40.5110   28.4490   39.1610 C   0  0  0  0  0  0  0  0  0  0  0  0
   40.2200   29.0190   37.7570 C   0  0  1  0  0  0  0  0  0  0  0  0
   41.9140   30.1180   38.7540 H   0  0  0  0  0  0  0  0  0  0  0  0
   41.2960   27.6750   39.2550 H   0  0  0  0  0  0  0  0  0  0  0  0
   39.5660   28.1890   39.6920 H   0  0  0  0  0  0  0  0  0  0  0  0
   40.8520   28.5350   36.9880 H   0  0  0  0  0  0  0  0  0  0  0  0
   38.2900   31.5100   41.0400 C   0  0  0  0  0  0  0  0  0  0  0  0
   39.0900   30.5190   40.4780 C   0  0  0  0  0  0  0  0  0  0  0  0
   39.9690   30.8770   39.4360 C   0  0  0  0  0  0  0  0  0  0  0  0
   40.0100   32.1740   39.0120 N   0  0  0  0  0  0  0  0  0  0  0  0
   39.2080   33.1080   39.5930 C   0  0  0  0  0  0  0  0  0  0  0  0
   38.3590   32.7820   40.5940 N   0  0  0  0  0  0  0  0  0  0  0  0
   37.6050   31.2930   41.8340 H   0  0  0  0  0  0  0  0  0  0  0  0
   39.0350   29.5040   40.8330 H   0  0  0  0  0  0  0  0  0  0  0  0
   39.4110   34.0450   39.1100 H   0  0  0  0  0  0  0  0  0  0  0  0
  1  2  1  0  0  0  0
  2  3  2  0  0  0  0
  2  7  1  0  0  0  0
  3  4  1  0  0  0  0
  4  9  1  0  0  0  0
  4  5  2  0  0  0  0
  5 10  1  0  0  0  0
  6  5  1  0  0  0  0
  6 12  1  0  0  0  0
  7  6  2  0  0  0  0
  8  3  1  0  0  0  0
 11 18  1  0  0  0  0
 12 11  2  0  0  0  0
 12 13  1  0  0  0  0
 13 14  1  0  0  0  0
 13 15  2  0  0  0  0
 15 17  1  0  0  0  0
 15 16  1  0  0  0  0
 18 17  2  0  0  0  0
 19 20  1  0  0  0  0
 20 22  2  0  0  0  0
 20 21  2  0  0  0  0
 20 11  1  0  0  0  0
 24 23  2  6  0  0  0
 24  1  1  0  0  0  0
 24 27  1  0  0  0  0
 25 24  1  0  0  0  0
 26 25  1  0  0  0  0
 27 30  1  0  0  0  0
 28 31  1  6  0  0  0
 28 29  1  0  0  0  0
 28 37  1  0  0  0  0
 29 32  1  0  0  0  0
 29 33  1  0  0  0  0
 30 34  1  6  0  0  0
 30 28  1  0  0  0  0
 30 29  1  0  0  0  0
 35 41  1  0  0  0  0
 36 42  1  0  0  0  0
 36 35  2  0  0  0  0
 37 36  1  0  0  0  0
 38 37  2  0  0  0  0
 38 39  1  0  0  0  0
 39 40  2  0  0  0  0
 40 35  1  0  0  0  0
 43 39  1  0  0  0  0
M  END
>  <minimizedAffinity>
-5.68120193

$$$$

 OpenBabel03252501093D

 43 46  0  0  1  0  0  0  0  0999 V2000
   35.3360   28.5060   37.8840 O   0  0  0  0  0  0  0  0  0  0  0  0
   34.1550   28.1600   37.2270 C   0  0  0  0  0  0  0  0  0  0  0  0
   33.7410   26.8920   36.8630 C   0  0  0  0  0  0  0  0  0  0  0  0
   32.5400   26.7120   36.2160 C   0  0  0  0  0  0  0  0  0  0  0  0
   31.7460   27.7900   35.9280 C   0  0  0  0  0  0  0  0  0  0  0  0
   32.1960   29.0550   36.3100 C   0  0  0  0  0  0  0  0  0  0  0  0
   33.3840   29.2110   36.9490 N   0  0  0  0  0  0  0  0  0  0  0  0
   34.4420   26.1160   37.1390 H   0  0  0  0  0  0  0  0  0  0  0  0
   32.3290   25.6830   35.9870 H   0  0  0  0  0  0  0  0  0  0  0  0
   30.8660   27.4990   35.4030 H   0  0  0  0  0  0  0  0  0  0  0  0
   30.4340   30.8730   36.6260 C   0  0  0  0  0  0  0  0  0  0  0  0
   31.4340   30.2320   35.9530 C   0  0  0  0  0  0  0  0  0  0  0  0
   31.7630   30.8450   34.7620 C   0  0  0  0  0  0  0  0  0  0  0  0
   32.5480   30.4460   34.1170 H   0  0  0  0  0  0  0  0  0  0  0  0
   31.1730   31.9760   34.2690 C   0  0  0  0  0  0  0  0  0  0  0  0
   31.4250   32.4570   33.3290 H   0  0  0  0  0  0  0  0  0  0  0  0
   30.1740   32.5860   34.9730 C   0  0  0  0  0  3  0  0  0  0  0  0
   29.8090   32.0120   36.1720 C   0  0  0  0  0  3  0  0  0  0  0  0
   30.9060   30.2500   39.1140 H   0  0  0  0  0  0  0  0  0  0  0  0
   29.9150   30.3340   38.2000 S   0  0  0  0  0  0  0  0  0  0  0  0
   29.1080   29.0860   38.1770 O   0  0  0  0  0  0  0  0  0  0  0  0
   28.9470   31.3920   38.7920 O   0  0  0  0  0  0  0  0  0  0  0  0
   36.1830   30.2490   39.5230 O   0  0  0  0  0  0  0  0  0  0  0  0
   35.4300   28.9180   39.5080 P   0  0  1  0  0  0  0  0  0  0  0  0
   33.8660   29.2750   40.0310 O   0  0  0  0  0  0  0  0  0  0  0  0
   33.6070   30.2120   39.8210 H   0  0  0  0  0  0  0  0  0  0  0  0
   36.2060   27.7600   40.3660 O   0  0  0  0  0  0  0  0  0  0  0  0
   37.9090   26.0660   40.0770 C   0  0  1  0  0  0  0  0  0  0  0  0
   36.7140   25.3110   40.4750 C   0  0  0  0  0  0  0  0  0  0  0  0
   36.6230   26.6500   39.7150 C   0  0  1  0  0  0  0  0  0  0  0  0
   38.5810   25.6130   39.3160 H   0  0  0  0  0  0  0  0  0  0  0  0
   36.4100   24.3890   39.9410 H   0  0  0  0  0  0  0  0  0  0  0  0
   36.2760   25.3970   41.4960 H   0  0  0  0  0  0  0  0  0  0  0  0
   36.2220   26.5070   38.6940 H   0  0  0  0  0  0  0  0  0  0  0  0
   39.1010   26.9450   43.5630 C   0  0  0  0  0  0  0  0  0  0  0  0
   38.4090   26.3090   42.5370 C   0  0  0  0  0  0  0  0  0  0  0  0
   38.6460   26.7210   41.2110 C   0  0  0  0  0  0  0  0  0  0  0  0
   39.5390   27.7260   40.9720 N   0  0  0  0  0  0  0  0  0  0  0  0
   40.1930   28.3190   42.0090 C   0  0  0  0  0  0  0  0  0  0  0  0
   39.9770   27.9350   43.2880 N   0  0  0  0  0  0  0  0  0  0  0  0
   38.9600   26.6710   44.5880 H   0  0  0  0  0  0  0  0  0  0  0  0
   37.7100   25.5200   42.7560 H   0  0  0  0  0  0  0  0  0  0  0  0
   40.8400   29.0660   41.5910 H   0  0  0  0  0  0  0  0  0  0  0  0
  1 24  1  0  0  0  0
  2  1  1  0  0  0  0
  3  8  1  0  0  0  0
  3  2  2  0  0  0  0
  4  3  1  0  0  0  0
  5  4  2  0  0  0  0
  5  6  1  0  0  0  0
  6  7  2  0  0  0  0
  7  2  1  0  0  0  0
  9  4  1  0  0  0  0
 10  5  1  0  0  0  0
 11 20  1  0  0  0  0
 12  6  1  0  0  0  0
 12 11  2  0  0  0  0
 13 12  1  0  0  0  0
 14 13  1  0  0  0  0
 15 13  2  0  0  0  0
 15 17  1  0  0  0  0
 16 15  1  0  0  0  0
 17 18  2  0  0  0  0
 18 11  1  0  0  0  0
 20 22  2  0  0  0  0
 20 19  1  0  0  0  0
 21 20  2  0  0  0  0
 24 23  2  1  0  0  0
 24 25  1  0  0  0  0
 24 27  1  0  0  0  0
 26 25  1  0  0  0  0
 28 31  1  6  0  0  0
 28 29  1  0  0  0  0
 28 37  1  0  0  0  0
 29 33  1  0  0  0  0
 30 34  1  6  0  0  0
 30 28  1  0  0  0  0
 30 27  1  0  0  0  0
 30 29  1  0  0  0  0
 32 29  1  0  0  0  0
 35 41  1  0  0  0  0
 36 42  1  0  0  0  0
 36 35  2  0  0  0  0
 37 36  1  0  0  0  0
 38 37  2  0  0  0  0
 38 39  1  0  0  0  0
 39 40  2  0  0  0  0
 40 35  1  0  0  0  0
 43 39  1  0  0  0  0
M  END
>  <minimizedAffinity>
-5.60089397

$$$$

 OpenBabel03252501093D

 43 46  0  0  1  0  0  0  0  0999 V2000
   37.2680   27.6960   37.5300 O   0  0  0  0  0  0  0  0  0  0  0  0
   36.6720   28.4100   38.5710 C   0  0  0  0  0  0  0  0  0  0  0  0
   35.5190   28.0790   39.2580 C   0  0  0  0  0  0  0  0  0  0  0  0
   35.0550   28.8920   40.2670 C   0  0  0  0  0  0  0  0  0  0  0  0
   35.7320   30.0340   40.5970 C   0  0  0  0  0  0  0  0  0  0  0  0
   36.8920   30.3370   39.8810 C   0  0  0  0  0  0  0  0  0  0  0  0
   37.3340   29.5220   38.8900 N   0  0  0  0  0  0  0  0  0  0  0  0
   35.0660   27.1580   38.9180 H   0  0  0  0  0  0  0  0  0  0  0  0
   34.1530   28.5280   40.7260 H   0  0  0  0  0  0  0  0  0  0  0  0
   35.2410   30.5720   41.3740 H   0  0  0  0  0  0  0  0  0  0  0  0
   38.6990   31.8230   40.9000 C   0  0  0  0  0  0  0  0  0  0  0  0
   37.5960   31.5760   40.1350 C   0  0  0  0  0  0  0  0  0  0  0  0
   37.1200   32.7010   39.4930 C   0  0  0  0  0  0  0  0  0  0  0  0
   36.2440   32.6550   38.8430 H   0  0  0  0  0  0  0  0  0  0  0  0
   37.6640   33.9510   39.5900 C   0  0  0  0  0  0  0  0  0  0  0  0
   37.2880   34.8390   39.0920 H   0  0  0  0  0  0  0  0  0  0  0  0
   38.7670   34.1570   40.3690 C   0  0  0  0  0  3  0  0  0  0  0  0
   39.2820   33.0620   41.0300 C   0  0  0  0  0  3  0  0  0  0  0  0
   39.8890   29.5020   40.9340 H   0  0  0  0  0  0  0  0  0  0  0  0
   39.5300   30.5350   41.7290 S   0  0  0  0  0  0  0  0  0  0  0  0
   38.8300   30.0470   42.9470 O   0  0  0  0  0  0  0  0  0  0  0  0
   40.8780   31.0810   42.2680 O   0  0  0  0  0  0  0  0  0  0  0  0
   36.4760   25.3720   36.8870 O   0  0  0  0  0  0  0  0  0  0  0  0
   37.6420   26.0620   37.5970 P   0  0  1  0  0  0  0  0  0  0  0  0
   38.9870   25.8090   36.6100 O   0  0  0  0  0  0  0  0  0  0  0  0
   38.7340   25.7000   35.6550 H   0  0  0  0  0  0  0  0  0  0  0  0
   37.8080   25.5580   39.1460 O   0  0  0  0  0  0  0  0  0  0  0  0
   37.6400   23.8150   40.8150 C   0  0  1  0  0  0  0  0  0  0  0  0
   36.2600   23.9990   40.3470 C   0  0  0  0  0  0  0  0  0  0  0  0
   37.4770   24.2800   39.4430 C   0  0  1  0  0  0  0  0  0  0  0  0
   37.9760   22.7810   41.0460 H   0  0  0  0  0  0  0  0  0  0  0  0
   35.6150   23.1350   40.0970 H   0  0  0  0  0  0  0  0  0  0  0  0
   35.6880   24.9340   40.5530 H   0  0  0  0  0  0  0  0  0  0  0  0
   37.5330   23.5570   38.6070 H   0  0  0  0  0  0  0  0  0  0  0  0
   37.7400   26.8440   43.0880 C   0  0  0  0  0  0  0  0  0  0  0  0
   37.2700   25.9130   42.1650 C   0  0  0  0  0  0  0  0  0  0  0  0
   38.1060   24.8340   41.8160 C   0  0  0  0  0  0  0  0  0  0  0  0
   39.3430   24.7340   42.3860 N   0  0  0  0  0  0  0  0  0  0  0  0
   39.7590   25.6690   43.2840 C   0  0  0  0  0  0  0  0  0  0  0  0
   38.9680   26.7110   43.6310 N   0  0  0  0  0  0  0  0  0  0  0  0
   37.1460   27.6820   43.3890 H   0  0  0  0  0  0  0  0  0  0  0  0
   36.2900   26.0180   41.7320 H   0  0  0  0  0  0  0  0  0  0  0  0
   40.7450   25.3890   43.6000 H   0  0  0  0  0  0  0  0  0  0  0  0
  1 24  1  0  0  0  0
  1  2  1  0  0  0  0
  2  7  2  0  0  0  0
  2  3  1  0  0  0  0
  3  4  2  0  0  0  0
  4  5  1  0  0  0  0
  4  9  1  0  0  0  0
  5 10  1  0  0  0  0
  6 12  1  0  0  0  0
  6  5  2  0  0  0  0
  7  6  1  0  0  0  0
  8  3  1  0  0  0  0
 11 18  1  0  0  0  0
 11 20  1  0  0  0  0
 12 11  2  0  0  0  0
 13 15  2  0  0  0  0
 13 12  1  0  0  0  0
 14 13  1  0  0  0  0
 15 17  1  0  0  0  0
 16 15  1  0  0  0  0
 17 18  2  0  0  0  0
 19 20  1  0  0  0  0
 20 22  2  0  0  0  0
 20 21  2  0  0  0  0
 24 23  2  6  0  0  0
 24 27  1  0  0  0  0
 25 24  1  0  0  0  0
 26 25  1  0  0  0  0
 27 30  1  0  0  0  0
 28 31  1  1  0  0  0
 28 37  1  0  0  0  0
 29 33  1  0  0  0  0
 29 28  1  0  0  0  0
 30 34  1  6  0  0  0
 30 29  1  0  0  0  0
 30 28  1  0  0  0  0
 32 29  1  0  0  0  0
 35 41  1  0  0  0  0
 35 40  1  0  0  0  0
 36 35  2  0  0  0  0
 37 36  1  0  0  0  0
 37 38  2  0  0  0  0
 38 39  1  0  0  0  0
 39 43  1  0  0  0  0
 39 40  2  0  0  0  0
 42 36  1  0  0  0  0
M  END
>  <minimizedAffinity>
-5.58678389

$$$$

 OpenBabel03252501093D

 43 46  0  0  1  0  0  0  0  0999 V2000
   40.0280   29.9060   37.5080 O   0  0  0  0  0  0  0  0  0  0  0  0
   40.3250   28.7900   38.2920 C   0  0  0  0  0  0  0  0  0  0  0  0
   41.2940   27.8340   38.0510 C   0  0  0  0  0  0  0  0  0  0  0  0
   41.4670   26.7850   38.9240 C   0  0  0  0  0  0  0  0  0  0  0  0
   40.6800   26.6810   40.0390 C   0  0  0  0  0  0  0  0  0  0  0  0
   39.7120   27.6650   40.2500 C   0  0  0  0  0  0  0  0  0  0  0  0
   39.5570   28.6920   39.3770 N   0  0  0  0  0  0  0  0  0  0  0  0
   41.8580   28.0130   37.1460 H   0  0  0  0  0  0  0  0  0  0  0  0
   42.2500   26.1100   38.6300 H   0  0  0  0  0  0  0  0  0  0  0  0
   40.9100   25.8070   40.6030 H   0  0  0  0  0  0  0  0  0  0  0  0
   38.7920   28.2010   42.5690 C   0  0  0  0  0  0  0  0  0  0  0  0
   38.7990   27.5530   41.3680 C   0  0  0  0  0  0  0  0  0  0  0  0
   37.7390   26.6820   41.2170 C   0  0  0  0  0  0  0  0  0  0  0  0
   37.6120   26.0960   40.3050 H   0  0  0  0  0  0  0  0  0  0  0  0
   36.7640   26.4610   42.1500 C   0  0  0  0  0  0  0  0  0  0  0  0
   35.9330   25.7710   42.0370 H   0  0  0  0  0  0  0  0  0  0  0  0
   36.7950   27.1280   43.3400 C   0  0  0  0  0  3  0  0  0  0  0  0
   37.8350   28.0120   43.5390 C   0  0  0  0  0  3  0  0  0  0  0  0
   40.0010   29.7940   44.2430 H   0  0  0  0  0  0  0  0  0  0  0  0
   39.9800   29.4190   42.9450 S   0  0  0  0  0  0  0  0  0  0  0  0
   39.9320   30.6070   42.0520 O   0  0  0  0  0  0  0  0  0  0  0  0
   41.3920   28.8270   42.7020 O   0  0  0  0  0  0  0  0  0  0  0  0
   41.9680   31.4770   37.9670 O   0  0  0  0  0  0  0  0  0  0  0  0
   40.4390   31.4820   37.9120 P   0  0  1  0  0  0  0  0  0  0  0  0
   40.0360   32.4630   36.5990 O   0  0  0  0  0  0  0  0  0  0  0  0
   40.7470   32.4670   35.9040 H   0  0  0  0  0  0  0  0  0  0  0  0
   39.7710   31.9190   39.3410 O   0  0  0  0  0  0  0  0  0  0  0  0
   37.6700   33.1060   39.5010 C   0  0  1  0  0  0  0  0  0  0  0  0
   38.3990   33.5010   40.7120 C   0  0  0  0  0  0  0  0  0  0  0  0
   39.1250   33.1050   39.4110 C   0  0  1  0  0  0  0  0  0  0  0  0
   37.0530   33.8770   38.9910 H   0  0  0  0  0  0  0  0  0  0  0  0
   38.4520   34.5590   41.0350 H   0  0  0  0  0  0  0  0  0  0  0  0
   38.6180   32.7770   41.5310 H   0  0  0  0  0  0  0  0  0  0  0  0
   39.6490   33.9700   38.9620 H   0  0  0  0  0  0  0  0  0  0  0  0
   36.0190   29.9800   40.8620 C   0  0  0  0  0  0  0  0  0  0  0  0
   36.6240   31.2340   40.8280 C   0  0  0  0  0  0  0  0  0  0  0  0
   37.0030   31.7610   39.5780 C   0  0  0  0  0  0  0  0  0  0  0  0
   36.7700   31.0340   38.4460 N   0  0  0  0  0  0  0  0  0  0  0  0
   36.1740   29.8130   38.5300 C   0  0  0  0  0  0  0  0  0  0  0  0
   35.8040   29.2910   39.7220 N   0  0  0  0  0  0  0  0  0  0  0  0
   35.7100   29.5330   41.7850 H   0  0  0  0  0  0  0  0  0  0  0  0
   36.7960   31.7840   41.7370 H   0  0  0  0  0  0  0  0  0  0  0  0
   36.0870   29.4330   37.5300 H   0  0  0  0  0  0  0  0  0  0  0  0
  1 24  1  0  0  0  0
  1  2  1  0  0  0  0
  2  7  1  0  0  0  0
  3  2  2  0  0  0  0
  3  4  1  0  0  0  0
  4  5  2  0  0  0  0
  5  6  1  0  0  0  0
  5 10  1  0  0  0  0
  6 12  1  0  0  0  0
  7  6  2  0  0  0  0
  8  3  1  0  0  0  0
  9  4  1  0  0  0  0
 11 20  1  0  0  0  0
 11 18  1  0  0  0  0
 12 11  2  0  0  0  0
 13 12  1  0  0  0  0
 13 15  2  0  0  0  0
 14 13  1  0  0  0  0
 15 17  1  0  0  0  0
 16 15  1  0  0  0  0
 17 18  2  0  0  0  0
 20 19  1  0  0  0  0
 21 20  2  0  0  0  0
 22 20  2  0  0  0  0
 24 23  2  1  0  0  0
 24 27  1  0  0  0  0
 25 24  1  0  0  0  0
 26 25  1  0  0  0  0
 27 30  1  0  0  0  0
 28 31  1  6  0  0  0
 28 37  1  0  0  0  0
 28 29  1  0  0  0  0
 29 32  1  0  0  0  0
 29 33  1  0  0  0  0
 30 34  1  6  0  0  0
 30 28  1  0  0  0  0
 30 29  1  0  0  0  0
 35 41  1  0  0  0  0
 36 35  1  0  0  0  0
 36 42  1  0  0  0  0
 37 36  2  0  0  0  0
 38 39  2  0  0  0  0
 38 37  1  0  0  0  0
 39 40  1  0  0  0  0
 40 35  2  0  0  0  0
 43 39  1  0  0  0  0
M  END
>  <minimizedAffinity>
-5.5788126

$$$$
