
 OpenBabel03252506593D

 27 28  0  0  0  0  0  0  0  0999 V2000
   35.7550   30.2220   40.5970 C   0  0  0  0  0  0  0  0  0  0  0  0
   36.3890   30.7590   41.2980 H   0  0  0  0  0  0  0  0  0  0  0  0
   34.7100   30.6470   40.5840 H   0  0  0  0  0  0  0  0  0  0  0  0
   37.1380   31.4470   38.9640 C   0  0  0  0  0  0  0  0  0  0  0  0
   36.2910   30.3850   39.2120 C   0  0  0  0  0  0  0  0  0  0  0  0
   35.9990   29.5460   38.1540 C   0  0  0  0  0  0  0  0  0  0  0  0
   35.3490   28.7260   38.3300 H   0  0  0  0  0  0  0  0  0  0  0  0
   36.5200   29.7430   36.8940 C   0  0  0  0  0  0  0  0  0  0  0  0
   36.2720   29.0670   36.0820 H   0  0  0  0  0  0  0  0  0  0  0  0
   37.3610   30.7920   36.6380 C   0  0  0  0  0  3  0  0  0  0  0  0
   37.6630   31.6400   37.6880 C   0  0  0  0  0  3  0  0  0  0  0  0
   36.6680   32.4160   41.2790 H   0  0  0  0  0  0  0  0  0  0  0  0
   37.5460   32.5370   40.2460 S   0  0  0  0  0  0  0  0  0  0  0  0
   37.6250   33.9750   39.7550 O   0  0  0  0  0  0  0  0  0  0  0  0
   38.9030   32.1670   40.8140 O   0  0  0  0  0  0  0  0  0  0  0  0
   35.6070   28.7420   40.8890 C   0  0  0  0  0  0  0  0  0  0  0  0
   34.6450   28.6360   41.4470 H   0  0  0  0  0  0  0  0  0  0  0  0
   35.6010   28.2430   39.9260 H   0  0  0  0  0  0  0  0  0  0  0  0
   36.6950   28.3240   41.7730 C   0  0  0  0  0  0  0  0  0  0  0  0
   37.0520   26.9890   41.9100 C   0  0  0  0  0  0  0  0  0  0  0  0
   38.1170   26.6670   42.7830 C   0  0  0  0  0  0  0  0  0  0  0  0
   38.7300   27.7010   43.4380 N   0  0  0  0  0  0  0  0  0  0  0  0
   38.3440   28.9930   43.2710 C   0  0  0  0  0  0  0  0  0  0  0  0
   37.3260   29.2870   42.4350 N   0  0  0  0  0  0  0  0  0  0  0  0
   36.5570   26.2140   41.3880 H   0  0  0  0  0  0  0  0  0  0  0  0
   38.4480   25.6430   42.9380 H   0  0  0  0  0  0  0  0  0  0  0  0
   38.8470   29.7960   43.8050 H   0  0  0  0  0  0  0  0  0  0  0  0
  1 16  1  0  0  0  0
  1  2  1  0  0  0  0
  3  1  1  0  0  0  0
  4  5  1  0  0  0  0
  4 13  1  0  0  0  0
  5  1  1  0  0  0  0
  6  7  1  0  0  0  0
  6  5  2  0  0  0  0
  8  6  1  0  0  0  0
  9  8  1  0  0  0  0
 10  8  2  0  0  0  0
 10 11  1  0  0  0  0
 11  4  2  0  0  0  0
 13 15  2  0  0  0  0
 13 12  1  0  0  0  0
 14 13  2  0  0  0  0
 16 17  1  0  0  0  0
 16 19  1  0  0  0  0
 18 16  1  0  0  0  0
 19 20  2  0  0  0  0
 19 24  1  0  0  0  0
 20 21  1  0  0  0  0
 21 26  1  0  0  0  0
 21 22  2  0  0  0  0
 23 22  1  0  0  0  0
 23 27  1  0  0  0  0
 24 23  2  0  0  0  0
 25 20  1  0  0  0  0
M  END
>  <minimizedAffinity>
-4.8414793

$$$$

 OpenBabel03252506593D

 27 28  0  0  0  0  0  0  0  0999 V2000
   38.4920   27.4660   43.6250 C   0  0  0  0  0  0  0  0  0  0  0  0
   38.6560   27.2030   44.6670 H   0  0  0  0  0  0  0  0  0  0  0  0
   39.3930   27.9880   43.1900 H   0  0  0  0  0  0  0  0  0  0  0  0
   39.4210   25.5110   42.4430 C   0  0  0  0  0  0  0  0  0  0  0  0
   38.2990   26.2220   42.8190 C   0  0  0  0  0  0  0  0  0  0  0  0
   37.0720   25.7290   42.4190 C   0  0  0  0  0  0  0  0  0  0  0  0
   36.2010   26.2660   42.7010 H   0  0  0  0  0  0  0  0  0  0  0  0
   36.9510   24.5760   41.6750 C   0  0  0  0  0  0  0  0  0  0  0  0
   35.9720   24.2130   41.3750 H   0  0  0  0  0  0  0  0  0  0  0  0
   38.0570   23.8640   41.2970 C   0  0  0  0  0  3  0  0  0  0  0  0
   39.2920   24.3450   41.6910 C   0  0  0  0  0  3  0  0  0  0  0  0
   40.9760   26.5290   44.1940 H   0  0  0  0  0  0  0  0  0  0  0  0
   40.9900   26.0740   42.9110 S   0  0  0  0  0  0  0  0  0  0  0  0
   41.5130   27.1360   41.9550 O   0  0  0  0  0  0  0  0  0  0  0  0
   41.9710   24.9160   42.8960 O   0  0  0  0  0  0  0  0  0  0  0  0
   37.3130   28.3870   43.3850 C   0  0  0  0  0  0  0  0  0  0  0  0
   36.5660   27.7840   42.8140 H   0  0  0  0  0  0  0  0  0  0  0  0
   36.9610   28.6890   44.3670 H   0  0  0  0  0  0  0  0  0  0  0  0
   37.7460   29.4990   42.5380 C   0  0  0  0  0  0  0  0  0  0  0  0
   39.0370   30.0070   42.6040 C   0  0  0  0  0  0  0  0  0  0  0  0
   39.3780   31.0810   41.7490 C   0  0  0  0  0  0  0  0  0  0  0  0
   38.4050   31.5500   40.9080 N   0  0  0  0  0  0  0  0  0  0  0  0
   37.1550   31.0190   40.8800 C   0  0  0  0  0  0  0  0  0  0  0  0
   36.8420   29.9940   41.7010 N   0  0  0  0  0  0  0  0  0  0  0  0
   39.7640   29.6200   43.2660 H   0  0  0  0  0  0  0  0  0  0  0  0
   40.3690   31.5270   41.7500 H   0  0  0  0  0  0  0  0  0  0  0  0
   36.4010   31.4110   40.2020 H   0  0  0  0  0  0  0  0  0  0  0  0
  1  2  1  0  0  0  0
  3  1  1  0  0  0  0
  4  5  1  0  0  0  0
  4 13  1  0  0  0  0
  5  1  1  0  0  0  0
  6  7  1  0  0  0  0
  6  5  2  0  0  0  0
  8  6  1  0  0  0  0
  9  8  1  0  0  0  0
 10  8  2  0  0  0  0
 10 11  1  0  0  0  0
 11  4  2  0  0  0  0
 13 12  1  0  0  0  0
 14 13  2  0  0  0  0
 15 13  2  0  0  0  0
 16  1  1  0  0  0  0
 16 18  1  0  0  0  0
 17 16  1  0  0  0  0
 19 20  1  0  0  0  0
 19 16  1  0  0  0  0
 20 25  1  0  0  0  0
 21 26  1  0  0  0  0
 21 20  2  0  0  0  0
 22 21  1  0  0  0  0
 23 22  2  0  0  0  0
 23 24  1  0  0  0  0
 24 19  2  0  0  0  0
 27 23  1  0  0  0  0
M  END
>  <minimizedAffinity>
-4.70149803

$$$$

 OpenBabel03252506593D

 27 28  0  0  0  0  0  0  0  0999 V2000
   36.4720   30.3830   41.3280 C   0  0  0  0  0  0  0  0  0  0  0  0
   35.8800   30.9510   42.0410 H   0  0  0  0  0  0  0  0  0  0  0  0
   37.2930   31.0180   40.8840 H   0  0  0  0  0  0  0  0  0  0  0  0
   38.4850   29.3910   42.3480 C   0  0  0  0  0  0  0  0  0  0  0  0
   37.1500   29.2510   42.0290 C   0  0  0  0  0  0  0  0  0  0  0  0
   36.5340   28.0660   42.3830 C   0  0  0  0  0  0  0  0  0  0  0  0
   35.5070   27.9450   42.1430 H   0  0  0  0  0  0  0  0  0  0  0  0
   37.2070   27.0520   43.0280 C   0  0  0  0  0  0  0  0  0  0  0  0
   36.6960   26.1320   43.2940 H   0  0  0  0  0  0  0  0  0  0  0  0
   38.5310   27.1810   43.3490 C   0  0  0  0  0  3  0  0  0  0  0  0
   39.1610   28.3620   43.0010 C   0  0  0  0  0  3  0  0  0  0  0  0
   38.4970   31.9290   42.0660 H   0  0  0  0  0  0  0  0  0  0  0  0
   39.3180   30.8510   41.9330 S   0  0  0  0  0  0  0  0  0  0  0  0
   39.9120   30.7800   40.5330 O   0  0  0  0  0  0  0  0  0  0  0  0
   40.4590   31.0800   42.9070 O   0  0  0  0  0  0  0  0  0  0  0  0
   35.6850   29.8290   40.1580 C   0  0  0  0  0  0  0  0  0  0  0  0
   35.7790   28.7180   40.2260 H   0  0  0  0  0  0  0  0  0  0  0  0
   34.6670   30.1820   40.2830 H   0  0  0  0  0  0  0  0  0  0  0  0
   36.3200   30.2640   38.9130 C   0  0  0  0  0  0  0  0  0  0  0  0
   36.2300   29.5160   37.7470 C   0  0  0  0  0  0  0  0  0  0  0  0
   36.8700   30.0070   36.5850 C   0  0  0  0  0  0  0  0  0  0  0  0
   37.5390   31.1970   36.6900 N   0  0  0  0  0  0  0  0  0  0  0  0
   37.5990   31.8930   37.8550 C   0  0  0  0  0  0  0  0  0  0  0  0
   36.9840   31.4130   38.9560 N   0  0  0  0  0  0  0  0  0  0  0  0
   35.7040   28.6000   37.7010 H   0  0  0  0  0  0  0  0  0  0  0  0
   36.8400   29.4720   35.6400 H   0  0  0  0  0  0  0  0  0  0  0  0
   38.1380   32.8360   37.9100 H   0  0  0  0  0  0  0  0  0  0  0  0
  1  5  1  0  0  0  0
  1  2  1  0  0  0  0
  3  1  1  0  0  0  0
  4 11  1  0  0  0  0
  5  4  2  0  0  0  0
  5  6  1  0  0  0  0
  6  8  2  0  0  0  0
  7  6  1  0  0  0  0
  8  9  1  0  0  0  0
  8 10  1  0  0  0  0
 11 10  2  0  0  0  0
 13 12  1  0  0  0  0
 13  4  1  0  0  0  0
 13 15  2  0  0  0  0
 14 13  2  0  0  0  0
 16 17  1  0  0  0  0
 16 18  1  0  0  0  0
 16  1  1  0  0  0  0
 19 24  1  0  0  0  0
 19 16  1  0  0  0  0
 20 19  2  0  0  0  0
 21 22  2  0  0  0  0
 21 20  1  0  0  0  0
 22 23  1  0  0  0  0
 23 27  1  0  0  0  0
 23 24  2  0  0  0  0
 25 20  1  0  0  0  0
 26 21  1  0  0  0  0
M  END
>  <minimizedAffinity>
-4.57667208

$$$$

 OpenBabel03252506593D

 27 28  0  0  0  0  0  0  0  0999 V2000
   36.1680   27.9340   40.0910 C   0  0  0  0  0  0  0  0  0  0  0  0
   36.7820   27.8830   39.1950 H   0  0  0  0  0  0  0  0  0  0  0  0
   35.4060   27.1020   40.1110 H   0  0  0  0  0  0  0  0  0  0  0  0
   38.3770   27.5260   41.1070 C   0  0  0  0  0  0  0  0  0  0  0  0
   37.0270   27.7440   41.2990 C   0  0  0  0  0  0  0  0  0  0  0  0
   36.5670   27.7700   42.6010 C   0  0  0  0  0  0  0  0  0  0  0  0
   35.5310   27.9370   42.7630 H   0  0  0  0  0  0  0  0  0  0  0  0
   37.4040   27.5880   43.6800 C   0  0  0  0  0  0  0  0  0  0  0  0
   37.0130   27.6140   44.6920 H   0  0  0  0  0  0  0  0  0  0  0  0
   38.7440   27.3710   43.5010 C   0  0  0  0  0  3  0  0  0  0  0  0
   39.2180   27.3430   42.2030 C   0  0  0  0  0  3  0  0  0  0  0  0
   38.0330   27.2470   38.5930 H   0  0  0  0  0  0  0  0  0  0  0  0
   39.0200   27.4820   39.5000 S   0  0  0  0  0  0  0  0  0  0  0  0
   40.1400   26.4590   39.3730 O   0  0  0  0  0  0  0  0  0  0  0  0
   39.5920   28.8410   39.1440 O   0  0  0  0  0  0  0  0  0  0  0  0
   35.3890   29.2250   40.2470 C   0  0  0  0  0  0  0  0  0  0  0  0
   34.5060   29.1330   39.5700 H   0  0  0  0  0  0  0  0  0  0  0  0
   35.1210   29.2910   41.2970 H   0  0  0  0  0  0  0  0  0  0  0  0
   36.2150   30.3350   39.7710 C   0  0  0  0  0  0  0  0  0  0  0  0
   36.5910   30.4460   38.4390 C   0  0  0  0  0  0  0  0  0  0  0  0
   37.3890   31.5500   38.0580 C   0  0  0  0  0  0  0  0  0  0  0  0
   37.7380   32.4430   39.0360 N   0  0  0  0  0  0  0  0  0  0  0  0
   37.3440   32.2910   40.3280 C   0  0  0  0  0  0  0  0  0  0  0  0
   36.5830   31.2320   40.6770 N   0  0  0  0  0  0  0  0  0  0  0  0
   36.3040   29.7380   37.7080 H   0  0  0  0  0  0  0  0  0  0  0  0
   37.7190   31.6970   37.0330 H   0  0  0  0  0  0  0  0  0  0  0  0
   37.6360   33.0140   41.0840 H   0  0  0  0  0  0  0  0  0  0  0  0
  1  3  1  0  0  0  0
  1 16  1  0  0  0  0
  1  5  1  0  0  0  0
  2  1  1  0  0  0  0
  4  5  2  0  0  0  0
  4 11  1  0  0  0  0
  5  6  1  0  0  0  0
  6  7  1  0  0  0  0
  6  8  2  0  0  0  0
  8  9  1  0  0  0  0
 10  8  1  0  0  0  0
 11 10  2  0  0  0  0
 12 13  1  0  0  0  0
 13  4  1  0  0  0  0
 14 13  2  0  0  0  0
 15 13  2  0  0  0  0
 16 18  1  0  0  0  0
 17 16  1  0  0  0  0
 19 16  1  0  0  0  0
 19 24  1  0  0  0  0
 20 19  2  0  0  0  0
 21 20  1  0  0  0  0
 21 22  2  0  0  0  0
 22 23  1  0  0  0  0
 23 24  2  0  0  0  0
 23 27  1  0  0  0  0
 25 20  1  0  0  0  0
 26 21  1  0  0  0  0
M  END
>  <minimizedAffinity>
-4.49489164

$$$$

 OpenBabel03252506593D

 27 28  0  0  0  0  0  0  0  0999 V2000
   36.0910   28.7960   39.6350 C   0  0  0  0  0  0  0  0  0  0  0  0
   35.2990   28.5920   38.9190 H   0  0  0  0  0  0  0  0  0  0  0  0
   36.9720   28.1100   39.4750 H   0  0  0  0  0  0  0  0  0  0  0  0
   37.0260   30.5460   38.1710 C   0  0  0  0  0  0  0  0  0  0  0  0
   36.6010   30.1870   39.4340 C   0  0  0  0  0  0  0  0  0  0  0  0
   36.6800   31.1440   40.4260 C   0  0  0  0  0  0  0  0  0  0  0  0
   36.3570   30.8810   41.4030 H   0  0  0  0  0  0  0  0  0  0  0  0
   37.1600   32.4130   40.1870 C   0  0  0  0  0  0  0  0  0  0  0  0
   37.2100   33.1450   40.9870 H   0  0  0  0  0  0  0  0  0  0  0  0
   37.5830   32.7800   38.9380 C   0  0  0  0  0  3  0  0  0  0  0  0
   37.5100   31.8310   37.9340 C   0  0  0  0  0  3  0  0  0  0  0  0
   35.9530   28.4950   37.0920 H   0  0  0  0  0  0  0  0  0  0  0  0
   36.9540   29.3930   36.8810 S   0  0  0  0  0  0  0  0  0  0  0  0
   38.2900   28.6930   36.6800 O   0  0  0  0  0  0  0  0  0  0  0  0
   36.6040   30.1010   35.5850 O   0  0  0  0  0  0  0  0  0  0  0  0
   35.6850   28.6330   41.0860 C   0  0  0  0  0  0  0  0  0  0  0  0
   35.6800   29.6620   41.5190 H   0  0  0  0  0  0  0  0  0  0  0  0
   34.7050   28.1670   41.0760 H   0  0  0  0  0  0  0  0  0  0  0  0
   36.7110   27.8520   41.7780 C   0  0  0  0  0  0  0  0  0  0  0  0
   37.2990   28.2980   42.9540 C   0  0  0  0  0  0  0  0  0  0  0  0
   38.2810   27.4830   43.5630 C   0  0  0  0  0  0  0  0  0  0  0  0
   38.5880   26.2990   42.9470 N   0  0  0  0  0  0  0  0  0  0  0  0
   37.9840   25.9060   41.7950 C   0  0  0  0  0  0  0  0  0  0  0  0
   37.0480   26.6930   41.2250 N   0  0  0  0  0  0  0  0  0  0  0  0
   37.0380   29.2190   43.4040 H   0  0  0  0  0  0  0  0  0  0  0  0
   38.7810   27.7720   44.4840 H   0  0  0  0  0  0  0  0  0  0  0  0
   38.2480   24.9610   41.3270 H   0  0  0  0  0  0  0  0  0  0  0  0
  1 16  1  0  0  0  0
  2  1  1  0  0  0  0
  3  1  1  0  0  0  0
  4  5  1  0  0  0  0
  5  1  1  0  0  0  0
  5  6  2  0  0  0  0
  6  7  1  0  0  0  0
  8  6  1  0  0  0  0
  8  9  1  0  0  0  0
 10  8  2  0  0  0  0
 11  4  2  0  0  0  0
 11 10  1  0  0  0  0
 13 12  1  0  0  0  0
 13  4  1  0  0  0  0
 14 13  2  0  0  0  0
 15 13  2  0  0  0  0
 16 17  1  0  0  0  0
 16 19  1  0  0  0  0
 18 16  1  0  0  0  0
 19 20  1  0  0  0  0
 20 25  1  0  0  0  0
 20 21  2  0  0  0  0
 21 26  1  0  0  0  0
 22 21  1  0  0  0  0
 23 22  2  0  0  0  0
 24 19  2  0  0  0  0
 24 23  1  0  0  0  0
 27 23  1  0  0  0  0
M  END
>  <minimizedAffinity>
-4.47168255

$$$$

 OpenBabel03252506593D

 27 28  0  0  0  0  0  0  0  0999 V2000
   37.0600   27.4440   42.9510 C   0  0  0  0  0  0  0  0  0  0  0  0
   36.8530   28.4150   42.5070 H   0  0  0  0  0  0  0  0  0  0  0  0
   36.3050   27.1920   43.7510 H   0  0  0  0  0  0  0  0  0  0  0  0
   36.6840   26.7710   40.6090 C   0  0  0  0  0  0  0  0  0  0  0  0
   36.9380   26.3800   41.9080 C   0  0  0  0  0  0  0  0  0  0  0  0
   37.0610   25.0260   42.1520 C   0  0  0  0  0  0  0  0  0  0  0  0
   37.2560   24.7120   43.1470 H   0  0  0  0  0  0  0  0  0  0  0  0
   36.9390   24.0860   41.1530 C   0  0  0  0  0  0  0  0  0  0  0  0
   37.0400   23.0280   41.3740 H   0  0  0  0  0  0  0  0  0  0  0  0
   36.6870   24.4620   39.8610 C   0  0  0  0  0  3  0  0  0  0  0  0
   36.5620   25.8150   39.6030 C   0  0  0  0  0  3  0  0  0  0  0  0
   37.4160   29.1940   40.9410 H   0  0  0  0  0  0  0  0  0  0  0  0
   36.5190   28.4530   40.2350 S   0  0  0  0  0  0  0  0  0  0  0  0
   35.0970   28.9420   40.4670 O   0  0  0  0  0  0  0  0  0  0  0  0
   36.8540   28.6840   38.7730 O   0  0  0  0  0  0  0  0  0  0  0  0
   38.4230   27.3300   43.6050 C   0  0  0  0  0  0  0  0  0  0  0  0
   38.2490   27.4680   44.6990 H   0  0  0  0  0  0  0  0  0  0  0  0
   38.7980   26.3440   43.3510 H   0  0  0  0  0  0  0  0  0  0  0  0
   39.2660   28.4300   43.1340 C   0  0  0  0  0  0  0  0  0  0  0  0
   38.7590   29.7070   42.9420 C   0  0  0  0  0  0  0  0  0  0  0  0
   39.6400   30.7160   42.4880 C   0  0  0  0  0  0  0  0  0  0  0  0
   40.9440   30.3610   42.2680 N   0  0  0  0  0  0  0  0  0  0  0  0
   41.3930   29.0950   42.4710 C   0  0  0  0  0  0  0  0  0  0  0  0
   40.5410   28.1420   42.9050 N   0  0  0  0  0  0  0  0  0  0  0  0
   37.7450   29.9480   43.1220 H   0  0  0  0  0  0  0  0  0  0  0  0
   39.3090   31.7370   42.3160 H   0  0  0  0  0  0  0  0  0  0  0  0
   42.4340   28.8400   42.2870 H   0  0  0  0  0  0  0  0  0  0  0  0
  1 16  1  0  0  0  0
  1  3  1  0  0  0  0
  2  1  1  0  0  0  0
  4  5  1  0  0  0  0
  5  6  2  0  0  0  0
  5  1  1  0  0  0  0
  6  7  1  0  0  0  0
  8  9  1  0  0  0  0
  8  6  1  0  0  0  0
 10  8  2  0  0  0  0
 11 10  1  0  0  0  0
 11  4  2  0  0  0  0
 13 14  2  0  0  0  0
 13  4  1  0  0  0  0
 13 12  1  0  0  0  0
 15 13  2  0  0  0  0
 16 17  1  0  0  0  0
 18 16  1  0  0  0  0
 19 16  1  0  0  0  0
 20 25  1  0  0  0  0
 20 19  1  0  0  0  0
 21 20  2  0  0  0  0
 22 23  2  0  0  0  0
 22 21  1  0  0  0  0
 23 24  1  0  0  0  0
 24 19  2  0  0  0  0
 26 21  1  0  0  0  0
 27 23  1  0  0  0  0
M  END
>  <minimizedAffinity>
-4.45509624

$$$$

 OpenBabel03252506593D

 27 28  0  0  0  0  0  0  0  0999 V2000
   36.7910   28.0790   42.5200 C   0  0  0  0  0  0  0  0  0  0  0  0
   36.2710   28.1240   43.4730 H   0  0  0  0  0  0  0  0  0  0  0  0
   37.5650   28.8960   42.4390 H   0  0  0  0  0  0  0  0  0  0  0  0
   38.9110   26.8200   42.5020 C   0  0  0  0  0  0  0  0  0  0  0  0
   37.5340   26.7860   42.4160 C   0  0  0  0  0  0  0  0  0  0  0  0
   36.9400   25.5520   42.2370 C   0  0  0  0  0  0  0  0  0  0  0  0
   35.8810   25.5110   42.1690 H   0  0  0  0  0  0  0  0  0  0  0  0
   37.6730   24.3900   42.1470 C   0  0  0  0  0  0  0  0  0  0  0  0
   37.1780   23.4330   42.0070 H   0  0  0  0  0  0  0  0  0  0  0  0
   39.0390   24.4120   42.2310 C   0  0  0  0  0  3  0  0  0  0  0  0
   39.6480   25.6410   42.4100 C   0  0  0  0  0  3  0  0  0  0  0  0
   39.0530   29.1090   43.6240 H   0  0  0  0  0  0  0  0  0  0  0  0
   39.7200   28.3350   42.7250 S   0  0  0  0  0  0  0  0  0  0  0  0
   39.9160   29.0660   41.4050 O   0  0  0  0  0  0  0  0  0  0  0  0
   41.0920   28.0950   43.3280 O   0  0  0  0  0  0  0  0  0  0  0  0
   35.8950   28.2230   41.3060 C   0  0  0  0  0  0  0  0  0  0  0  0
   36.1030   27.3320   40.6660 H   0  0  0  0  0  0  0  0  0  0  0  0
   34.8780   28.2520   41.6830 H   0  0  0  0  0  0  0  0  0  0  0  0
   36.2930   29.4200   40.5650 C   0  0  0  0  0  0  0  0  0  0  0  0
   36.2870   29.4550   39.1770 C   0  0  0  0  0  0  0  0  0  0  0  0
   36.6840   30.6510   38.5360 C   0  0  0  0  0  0  0  0  0  0  0  0
   37.0480   31.7030   39.3330 N   0  0  0  0  0  0  0  0  0  0  0  0
   37.0370   31.6200   40.6890 C   0  0  0  0  0  0  0  0  0  0  0  0
   36.6560   30.4720   41.2880 N   0  0  0  0  0  0  0  0  0  0  0  0
   36.0000   28.6230   38.5910 H   0  0  0  0  0  0  0  0  0  0  0  0
   36.7030   30.7470   37.4530 H   0  0  0  0  0  0  0  0  0  0  0  0
   37.3320   32.4710   41.2990 H   0  0  0  0  0  0  0  0  0  0  0  0
  1  2  1  0  0  0  0
  3  1  1  0  0  0  0
  4 13  1  0  0  0  0
  5  4  1  0  0  0  0
  5  1  1  0  0  0  0
  6  5  2  0  0  0  0
  7  6  1  0  0  0  0
  8 10  2  0  0  0  0
  8  6  1  0  0  0  0
  9  8  1  0  0  0  0
 10 11  1  0  0  0  0
 11  4  2  0  0  0  0
 13 15  2  0  0  0  0
 13 12  1  0  0  0  0
 14 13  2  0  0  0  0
 16 18  1  0  0  0  0
 16  1  1  0  0  0  0
 17 16  1  0  0  0  0
 19 24  1  0  0  0  0
 19 16  1  0  0  0  0
 20 19  2  0  0  0  0
 21 20  1  0  0  0  0
 21 22  2  0  0  0  0
 22 23  1  0  0  0  0
 23 24  2  0  0  0  0
 23 27  1  0  0  0  0
 25 20  1  0  0  0  0
 26 21  1  0  0  0  0
M  END
>  <minimizedAffinity>
-4.41918421

$$$$

 OpenBabel03252506593D

 27 28  0  0  0  0  0  0  0  0999 V2000
   35.5090   29.5000   40.5340 C   0  0  0  0  0  0  0  0  0  0  0  0
   35.4300   29.4550   39.4510 H   0  0  0  0  0  0  0  0  0  0  0  0
   34.4890   29.5350   41.0160 H   0  0  0  0  0  0  0  0  0  0  0  0
   36.4650   27.2630   40.1310 C   0  0  0  0  0  0  0  0  0  0  0  0
   36.1700   28.2590   41.0410 C   0  0  0  0  0  0  0  0  0  0  0  0
   36.5090   28.0340   42.3610 C   0  0  0  0  0  0  0  0  0  0  0  0
   36.2880   28.7910   43.0710 H   0  0  0  0  0  0  0  0  0  0  0  0
   37.1170   26.8690   42.7740 C   0  0  0  0  0  0  0  0  0  0  0  0
   37.3720   26.7200   43.8190 H   0  0  0  0  0  0  0  0  0  0  0  0
   37.4140   25.8760   41.8810 C   0  0  0  0  0  3  0  0  0  0  0  0
   37.0810   26.0880   40.5560 C   0  0  0  0  0  3  0  0  0  0  0  0
   35.2020   28.5210   38.3030 H   0  0  0  0  0  0  0  0  0  0  0  0
   36.0660   27.4820   38.4600 S   0  0  0  0  0  0  0  0  0  0  0  0
   35.5110   26.2050   37.8450 O   0  0  0  0  0  0  0  0  0  0  0  0
   37.3140   27.8630   37.6860 O   0  0  0  0  0  0  0  0  0  0  0  0
   36.2670   30.7030   41.0600 C   0  0  0  0  0  0  0  0  0  0  0  0
   35.5110   31.5180   41.1650 H   0  0  0  0  0  0  0  0  0  0  0  0
   36.7010   30.3970   42.0060 H   0  0  0  0  0  0  0  0  0  0  0  0
   37.2490   31.1170   40.0570 C   0  0  0  0  0  0  0  0  0  0  0  0
   36.9160   31.2370   38.7150 C   0  0  0  0  0  0  0  0  0  0  0  0
   37.9230   31.6460   37.8100 C   0  0  0  0  0  0  0  0  0  0  0  0
   39.1670   31.8980   38.3220 N   0  0  0  0  0  0  0  0  0  0  0  0
   39.4440   31.7660   39.6460 C   0  0  0  0  0  0  0  0  0  0  0  0
   38.4740   31.3760   40.4990 N   0  0  0  0  0  0  0  0  0  0  0  0
   35.9440   31.0340   38.3520 H   0  0  0  0  0  0  0  0  0  0  0  0
   37.7310   31.7590   36.7460 H   0  0  0  0  0  0  0  0  0  0  0  0
   40.4410   31.9730   40.0260 H   0  0  0  0  0  0  0  0  0  0  0  0
  1  3  1  0  0  0  0
  1  5  1  0  0  0  0
  1 16  1  0  0  0  0
  2  1  1  0  0  0  0
  4 11  2  0  0  0  0
  4  5  1  0  0  0  0
  5  6  2  0  0  0  0
  6  8  1  0  0  0  0
  6  7  1  0  0  0  0
  8  9  1  0  0  0  0
 10  8  2  0  0  0  0
 11 10  1  0  0  0  0
 12 13  1  0  0  0  0
 13  4  1  0  0  0  0
 14 13  2  0  0  0  0
 15 13  2  0  0  0  0
 16 17  1  0  0  0  0
 16 18  1  0  0  0  0
 19 24  1  0  0  0  0
 19 16  1  0  0  0  0
 20 19  2  0  0  0  0
 21 22  2  0  0  0  0
 21 20  1  0  0  0  0
 22 23  1  0  0  0  0
 23 27  1  0  0  0  0
 23 24  2  0  0  0  0
 25 20  1  0  0  0  0
 26 21  1  0  0  0  0
M  END
>  <minimizedAffinity>
-4.38590622

$$$$

 OpenBabel03252506593D

 27 28  0  0  0  0  0  0  0  0999 V2000
   37.5250   28.1330   43.3600 C   0  0  0  0  0  0  0  0  0  0  0  0
   37.0710   28.4970   44.2780 H   0  0  0  0  0  0  0  0  0  0  0  0
   36.7650   27.6170   42.7050 H   0  0  0  0  0  0  0  0  0  0  0  0
   37.3820   29.6310   41.4060 C   0  0  0  0  0  0  0  0  0  0  0  0
   38.0470   29.2880   42.5670 C   0  0  0  0  0  0  0  0  0  0  0  0
   39.1520   30.0410   42.9120 C   0  0  0  0  0  0  0  0  0  0  0  0
   39.6730   29.7880   43.8020 H   0  0  0  0  0  0  0  0  0  0  0  0
   39.5910   31.0960   42.1430 C   0  0  0  0  0  0  0  0  0  0  0  0
   40.4640   31.6700   42.4400 H   0  0  0  0  0  0  0  0  0  0  0  0
   38.9400   31.4450   40.9910 C   0  0  0  0  0  3  0  0  0  0  0  0
   37.8310   30.7000   40.6330 C   0  0  0  0  0  3  0  0  0  0  0  0
   35.3300   28.2330   41.9990 H   0  0  0  0  0  0  0  0  0  0  0  0
   35.9880   28.7280   40.9160 S   0  0  0  0  0  0  0  0  0  0  0  0
   36.3540   27.6200   39.9390 O   0  0  0  0  0  0  0  0  0  0  0  0
   35.0040   29.6500   40.2220 O   0  0  0  0  0  0  0  0  0  0  0  0
   38.6500   27.1390   43.5660 C   0  0  0  0  0  0  0  0  0  0  0  0
   39.5830   27.6620   43.2450 H   0  0  0  0  0  0  0  0  0  0  0  0
   38.6420   26.8870   44.6220 H   0  0  0  0  0  0  0  0  0  0  0  0
   38.4390   25.9950   42.6780 C   0  0  0  0  0  0  0  0  0  0  0  0
   39.4960   25.3670   42.0330 C   0  0  0  0  0  0  0  0  0  0  0  0
   39.2080   24.2670   41.1920 C   0  0  0  0  0  0  0  0  0  0  0  0
   37.8970   23.8930   41.0710 N   0  0  0  0  0  0  0  0  0  0  0  0
   36.8960   24.5400   41.7230 C   0  0  0  0  0  0  0  0  0  0  0  0
   37.1850   25.5890   42.5230 N   0  0  0  0  0  0  0  0  0  0  0  0
   40.4980   25.6820   42.1490 H   0  0  0  0  0  0  0  0  0  0  0  0
   39.9870   23.7300   40.6570 H   0  0  0  0  0  0  0  0  0  0  0  0
   35.8630   24.2220   41.6080 H   0  0  0  0  0  0  0  0  0  0  0  0
  1 16  1  0  0  0  0
  1  2  1  0  0  0  0
  3  1  1  0  0  0  0
  4  5  1  0  0  0  0
  5  6  2  0  0  0  0
  5  1  1  0  0  0  0
  6  7  1  0  0  0  0
  8  9  1  0  0  0  0
  8  6  1  0  0  0  0
 10  8  2  0  0  0  0
 11 10  1  0  0  0  0
 11  4  2  0  0  0  0
 13  4  1  0  0  0  0
 13 12  1  0  0  0  0
 14 13  2  0  0  0  0
 15 13  2  0  0  0  0
 16 18  1  0  0  0  0
 17 16  1  0  0  0  0
 19 16  1  0  0  0  0
 20 25  1  0  0  0  0
 20 19  2  0  0  0  0
 21 20  1  0  0  0  0
 22 21  2  0  0  0  0
 22 23  1  0  0  0  0
 23 24  2  0  0  0  0
 24 19  1  0  0  0  0
 26 21  1  0  0  0  0
 27 23  1  0  0  0  0
M  END
>  <minimizedAffinity>
-4.38326359

$$$$
