
 OpenBabel03252501413D

 48 51  0  0  0  0  0  0  0  0999 V2000
   44.3000   34.4420   41.6490 C   0  0  0  0  0  0  0  0  0  0  0  0
   44.1530   33.2550   42.1140 O   0  0  0  0  0  0  0  0  0  0  0  0
   45.1920   35.2120   42.4450 N   0  0  0  0  0  0  0  0  0  0  0  0
   45.4650   36.1650   42.2140 H   0  0  0  0  0  0  0  0  0  0  0  0
   45.6230   34.4350   43.5860 C   0  0  0  0  0  0  0  0  0  0  0  0
   45.1980   34.5870   44.8710 C   0  0  0  0  0  0  0  0  0  0  0  0
   45.7420   33.7370   45.8000 C   0  0  0  0  0  0  0  0  0  0  0  0
   46.6470   32.8210   45.3780 N   0  0  0  0  0  0  0  0  0  0  0  0
   47.0440   32.6970   44.1090 C   0  0  0  0  0  0  0  0  0  0  0  0
   46.5190   33.5250   43.1870 N   0  0  0  0  0  0  0  0  0  0  0  0
   45.4160   33.8400   46.8320 H   0  0  0  0  0  0  0  0  0  0  0  0
   49.1340   31.8500   43.0120 C   0  0  0  0  0  0  0  0  0  0  0  0
   48.0280   31.6620   43.8120 C   0  0  0  0  0  0  0  0  0  0  0  0
   47.8530   30.4100   44.3610 C   0  0  0  0  0  0  0  0  0  0  0  0
   47.0270   30.1850   44.9880 H   0  0  0  0  0  0  0  0  0  0  0  0
   48.7380   29.3660   44.1330 C   0  0  0  0  0  0  0  0  0  0  0  0
   48.6080   28.3780   44.5600 H   0  0  0  0  0  0  0  0  0  0  0  0
   49.8460   29.5500   43.3330 C   0  0  0  0  0  0  0  0  0  0  0  0
   50.0170   30.8040   42.7860 C   0  0  0  0  0  0  0  0  0  0  0  0
   48.6410   34.3370   42.9200 H   0  0  0  0  0  0  0  0  0  0  0  0
   49.4070   33.4160   42.2890 S   0  0  0  0  0  0  0  0  0  0  0  0
   50.8640   33.8300   42.3830 O   0  0  0  0  0  0  0  0  0  0  0  0
   48.9850   33.3970   40.8490 O   0  0  0  0  0  0  0  0  0  0  0  0
   44.2450   35.5940   45.1300 N   0  0  0  0  0  0  0  0  0  0  0  0
   43.5280   35.8570   44.4320 H   0  0  0  0  0  0  0  0  0  0  0  0
   44.1970   36.1410   46.0360 H   0  0  0  0  0  0  0  0  0  0  0  0
   43.6940   34.9750   40.5150 O   0  0  0  0  0  0  0  0  0  0  0  0
   42.9330   32.3830   39.2750 Cl  0  0  0  0  0  0  0  0  0  0  0  0
   41.8450   33.6530   39.8130 C   0  0  0  0  0  0  0  0  0  0  0  0
   42.3000   34.8390   40.3860 C   0  0  0  0  0  0  0  0  0  0  0  0
   41.4140   35.7940   40.7870 C   0  0  0  0  0  0  0  0  0  0  0  0
   40.0450   35.6550   40.6560 C   0  0  0  0  0  0  0  0  0  0  0  0
   39.5620   34.4650   40.0810 C   0  0  0  0  0  0  0  0  0  0  0  0
   37.8380   34.2000   39.8750 Cl  0  0  0  0  0  0  0  0  0  0  0  0
   40.4890   33.5190   39.6860 C   0  0  0  0  0  0  0  0  0  0  0  0
   41.8330   36.6940   41.2260 H   0  0  0  0  0  0  0  0  0  0  0  0
   39.3500   36.4260   40.9820 H   0  0  0  0  0  0  0  0  0  0  0  0
   39.9200   31.3800   41.2670 F   0  0  0  0  0  0  0  0  0  0  0  0
   39.7190   31.2150   39.9180 C   0  0  0  0  0  0  0  0  0  0  0  0
   39.9970   32.2790   39.0870 C   0  0  0  0  0  0  0  0  0  0  0  0
   39.7810   32.0770   37.7190 C   0  0  0  0  0  0  0  0  0  0  0  0
   39.3120   30.8510   37.2820 C   0  0  0  0  0  0  0  0  0  0  0  0
   39.0490   29.8090   38.1810 C   0  0  0  0  0  0  0  0  0  0  0  0
   39.2530   29.9770   39.5470 C   0  0  0  0  0  0  0  0  0  0  0  0
   40.0000   32.9120   37.0710 H   0  0  0  0  0  0  0  0  0  0  0  0
   39.1580   30.7340   36.2180 H   0  0  0  0  0  0  0  0  0  0  0  0
   38.6790   28.8480   37.8150 H   0  0  0  0  0  0  0  0  0  0  0  0
   39.0620   29.1990   40.2710 H   0  0  0  0  0  0  0  0  0  0  0  0
  1  2  2  0  0  0  0
  1  3  1  0  0  0  0
  3  5  1  0  0  0  0
  4  3  1  0  0  0  0
  5  6  1  0  0  0  0
  6 24  1  0  0  0  0
  6  7  2  0  0  0  0
  7 11  1  0  0  0  0
  8  7  1  0  0  0  0
  9  8  2  0  0  0  0
 10  5  2  0  0  0  0
 10  9  1  0  0  0  0
 12 13  1  0  0  0  0
 13  9  1  0  0  0  0
 13 14  2  0  0  0  0
 14 15  1  0  0  0  0
 16 14  1  0  0  0  0
 16 17  1  0  0  0  0
 18 16  2  0  0  0  0
 19 12  2  0  0  0  0
 19 18  1  0  0  0  0
 21 22  2  0  0  0  0
 21 20  1  0  0  0  0
 21 12  1  0  0  0  0
 23 21  2  0  0  0  0
 24 26  1  0  0  0  0
 25 24  1  0  0  0  0
 27  1  1  0  0  0  0
 28 29  1  0  0  0  0
 29 30  1  0  0  0  0
 30 27  1  0  0  0  0
 30 31  2  0  0  0  0
 31 36  1  0  0  0  0
 32 31  1  0  0  0  0
 32 37  1  0  0  0  0
 33 32  2  0  0  0  0
 34 33  1  0  0  0  0
 35 29  2  0  0  0  0
 35 33  1  0  0  0  0
 39 38  1  0  0  0  0
 40 35  1  0  0  0  0
 40 39  2  0  0  0  0
 41 40  1  0  0  0  0
 42 41  2  0  0  0  0
 42 43  1  0  0  0  0
 43 44  2  0  0  0  0
 44 39  1  0  0  0  0
 44 48  1  0  0  0  0
 45 41  1  0  0  0  0
 46 42  1  0  0  0  0
 47 43  1  0  0  0  0
M  END
>  <minimizedAffinity>
-6.77134752

>  <minimizedRMSD>
0.804079115

$$$$
