
 OpenBabel03252505113D

 47 50  0  0  1  0  0  0  0  0999 V2000
   44.5610   35.5550   44.6050 C   0  0  0  0  0  0  0  0  0  0  0  0
   45.2540   35.5990   43.3750 C   0  0  0  0  0  0  0  0  0  0  0  0
   46.3700   34.7150   43.2110 C   0  0  0  0  0  0  0  0  0  0  0  0
   46.7020   33.8940   44.2260 N   0  0  0  0  0  0  0  0  0  0  0  0
   46.0160   33.8840   45.3820 C   0  0  0  0  0  0  0  0  0  0  0  0
   44.9420   34.7140   45.5800 N   0  0  0  0  0  0  0  0  0  0  0  0
   43.7110   36.2200   44.7440 H   0  0  0  0  0  0  0  0  0  0  0  0
   44.9850   36.2520   42.5740 H   0  0  0  0  0  0  0  0  0  0  0  0
   46.4220   32.9650   46.4690 C   0  0  2  0  0  0  0  0  0  0  0  0
   46.9400   31.7280   45.7650 C   0  0  0  0  0  0  0  0  0  0  0  0
   46.0430   30.5510   45.7860 C   0  0  0  0  0  0  0  0  0  0  0  0
   45.7820   30.2880   47.2640 C   0  0  0  0  0  0  0  0  0  0  0  0
   44.9940   31.3660   47.8830 C   0  0  0  0  0  0  0  0  0  0  0  0
   45.3770   32.7290   47.4250 C   0  0  0  0  0  0  0  0  0  0  0  0
   47.2930   33.4650   46.9650 H   0  0  0  0  0  0  0  0  0  0  0  0
   47.2250   31.9160   44.7080 H   0  0  0  0  0  0  0  0  0  0  0  0
   47.8880   31.4190   46.2550 H   0  0  0  0  0  0  0  0  0  0  0  0
   45.1130   30.6180   45.2230 H   0  0  0  0  0  0  0  0  0  0  0  0
   46.6320   29.6850   45.4370 H   0  0  0  0  0  0  0  0  0  0  0  0
   46.7010   30.0170   47.7830 H   0  0  0  0  0  0  0  0  0  0  0  0
   45.1100   29.4040   47.2700 H   0  0  0  0  0  0  0  0  0  0  0  0
   44.2020   31.3680   48.5940 H   0  0  0  0  0  0  0  0  0  0  0  0
   44.6920   33.8630   47.9370 N   0  0  0  0  0  0  0  0  0  0  0  0
   43.6910   34.0670   47.6930 H   0  0  0  0  0  0  0  0  0  0  0  0
   45.1640   34.5330   48.5770 H   0  0  0  0  0  0  0  0  0  0  0  0
   47.0960   34.7380   41.9510 C   0  0  0  0  0  0  0  0  0  0  0  0
   48.2200   35.5010   41.8810 C   0  0  0  0  0  0  0  0  0  0  0  0
   48.8860   35.4940   40.6430 C   0  0  0  0  0  0  0  0  0  0  0  0
   48.3270   34.7140   39.6380 C   0  0  0  0  0  0  0  0  0  0  0  0
   47.1970   33.9450   39.7060 C   0  0  0  0  0  0  0  0  0  0  0  0
   46.5890   33.9920   40.9370 N   0  0  0  0  0  0  0  0  0  0  0  0
   48.5500   36.0660   42.7420 H   0  0  0  0  0  0  0  0  0  0  0  0
   49.7740   36.0990   40.5930 H   0  0  0  0  0  0  0  0  0  0  0  0
   48.9580   34.8230   38.7710 H   0  0  0  0  0  0  0  0  0  0  0  0
   46.7200   33.2180   38.6820 O   0  0  0  0  0  0  0  0  0  0  0  0
   45.7770   32.4420   36.9110 C   0  0  0  0  0  0  0  0  0  0  0  0
   47.0020   32.9060   37.4400 C   0  0  0  0  0  0  0  0  0  0  0  0
   48.0390   32.8910   36.5510 C   0  0  0  0  0  0  0  0  0  0  0  0
   48.9460   33.2430   36.9690 H   0  0  0  0  0  0  0  0  0  0  0  0
   48.0060   32.4810   35.2410 C   0  0  0  0  0  0  0  0  0  0  0  0
   48.9150   32.5330   34.6770 H   0  0  0  0  0  0  0  0  0  0  0  0
   46.7830   32.0420   34.7940 C   0  0  0  0  0  3  0  0  0  0  0  0
   45.6440   32.0060   35.5950 C   0  0  0  0  0  3  0  0  0  0  0  0
   43.2610   31.8680   36.7850 H   0  0  0  0  0  0  0  0  0  0  0  0
   44.1970   32.2920   37.6950 S   0  0  0  0  0  0  0  0  0  0  0  0
   44.3110   31.3640   38.8480 O   0  0  0  0  0  0  0  0  0  0  0  0
   43.7630   33.6350   38.1770 O   0  0  0  0  0  0  0  0  0  0  0  0
  1  7  1  0  0  0  0
  1  6  1  0  0  0  0
  2  1  2  0  0  0  0
  3  2  1  0  0  0  0
  3  4  2  0  0  0  0
  4  5  1  0  0  0  0
  5  6  2  0  0  0  0
  5  9  1  0  0  0  0
  8  2  1  0  0  0  0
  9 15  1  1  0  0  0
  9 14  1  0  0  0  0
 10 11  1  0  0  0  0
 10 17  1  0  0  0  0
 10  9  1  0  0  0  0
 11 12  1  0  0  0  0
 12 21  1  0  0  0  0
 12 20  1  0  0  0  0
 12 13  1  0  0  0  0
 13 22  1  0  0  0  0
 14 13  2  0  0  0  0
 14 23  1  0  0  0  0
 16 10  1  0  0  0  0
 18 11  1  0  0  0  0
 19 11  1  0  0  0  0
 23 25  1  0  0  0  0
 24 23  1  0  0  0  0
 26  3  1  0  0  0  0
 27 26  1  0  0  0  0
 27 32  1  0  0  0  0
 28 27  2  0  0  0  0
 29 30  2  0  0  0  0
 29 28  1  0  0  0  0
 30 31  1  0  0  0  0
 31 26  2  0  0  0  0
 33 28  1  0  0  0  0
 34 29  1  0  0  0  0
 35 30  1  0  0  0  0
 36 37  1  0  0  0  0
 36 45  1  0  0  0  0
 37 35  1  0  0  0  0
 38 39  1  0  0  0  0
 38 37  2  0  0  0  0
 40 38  1  0  0  0  0
 41 40  1  0  0  0  0
 42 40  2  0  0  0  0
 42 43  1  0  0  0  0
 43 36  2  0  0  0  0
 44 45  1  0  0  0  0
 45 47  2  0  0  0  0
 45 46  2  0  0  0  0
M  END
>  <minimizedAffinity>
-7.31991291

>  <minimizedRMSD>
0.549302697

$$$$
