
 OpenBabel03242519543D

 43 45  0  0  1  0  0  0  0  0999 V2000
   47.5020   34.0750   42.4530 C   0  0  2  0  0  0  0  0  0  0  0  0
   48.8240   34.7170   42.6270 C   0  0  0  0  0  0  0  0  0  0  0  0
   49.0520   35.8330   41.6650 C   0  0  0  0  0  0  0  0  0  0  0  0
   48.8640   35.4330   40.2220 C   0  0  0  0  0  0  0  0  0  0  0  0
   47.7630   34.4450   40.0020 C   0  0  2  0  0  0  0  0  0  0  0  0
   46.8080   34.4040   41.1760 C   0  0  0  0  0  0  0  0  0  0  0  0
   47.7030   32.9580   42.4610 H   0  0  0  0  0  0  0  0  0  0  0  0
   49.6660   33.9980   42.5860 H   0  0  0  0  0  0  0  0  0  0  0  0
   48.8540   35.1580   43.6500 H   0  0  0  0  0  0  0  0  0  0  0  0
   48.4580   36.7390   41.9300 H   0  0  0  0  0  0  0  0  0  0  0  0
   50.1150   36.1500   41.7740 H   0  0  0  0  0  0  0  0  0  0  0  0
   49.8320   35.0950   39.7690 H   0  0  0  0  0  0  0  0  0  0  0  0
   48.6100   36.3660   39.6610 H   0  0  0  0  0  0  0  0  0  0  0  0
   47.1220   34.7490   39.1250 H   0  0  0  0  0  0  0  0  0  0  0  0
   46.1100   33.5340   40.9710 H   0  0  0  0  0  0  0  0  0  0  0  0
   46.1870   35.2810   41.1230 H   0  0  0  0  0  0  0  0  0  0  0  0
   46.5820   34.2980   43.5790 C   0  0  0  0  0  0  0  0  0  0  0  0
   45.6730   35.3320   43.3690 C   0  0  0  0  0  0  0  0  0  0  0  0
   44.7270   35.6400   44.3500 C   0  0  0  0  0  0  0  0  0  0  0  0
   44.7710   34.8680   45.4990 N   0  0  0  0  0  0  0  0  0  0  0  0
   45.6680   33.8780   45.6640 C   0  0  0  0  0  0  0  0  0  0  0  0
   46.5580   33.6050   44.7070 N   0  0  0  0  0  0  0  0  0  0  0  0
   45.4620   36.0530   42.5930 H   0  0  0  0  0  0  0  0  0  0  0  0
   43.9550   36.3680   44.4060 H   0  0  0  0  0  0  0  0  0  0  0  0
   45.6430   33.3100   46.5990 H   0  0  0  0  0  0  0  0  0  0  0  0
   48.3520   33.1260   39.6560 C   0  0  0  0  0  0  0  0  0  0  0  0
   48.9960   33.3280   38.7440 H   0  0  0  0  0  0  0  0  0  0  0  0
   49.0670   32.8620   40.4320 H   0  0  0  0  0  0  0  0  0  0  0  0
   47.3870   32.0890   39.2260 C   0  0  0  0  0  0  0  0  0  0  0  0
   46.5770   31.8510   39.9680 H   0  0  0  0  0  0  0  0  0  0  0  0
   46.8130   32.5070   38.3720 H   0  0  0  0  0  0  0  0  0  0  0  0
   47.5370   29.7640   38.1530 C   0  0  0  0  0  0  0  0  0  0  0  0
   48.0770   30.8550   38.7790 C   0  0  0  0  0  0  0  0  0  0  0  0
   49.4510   30.7590   39.0430 C   0  0  0  0  0  0  0  0  0  0  0  0
   49.9420   31.6080   39.5470 H   0  0  0  0  0  0  0  0  0  0  0  0
   50.2800   29.7060   38.7410 C   0  0  0  0  0  0  0  0  0  0  0  0
   51.3300   29.7410   38.9930 H   0  0  0  0  0  0  0  0  0  0  0  0
   49.7020   28.6240   38.1110 C   0  0  0  0  0  3  0  0  0  0  0  0
   48.3540   28.6700   37.8300 C   0  0  0  0  0  3  0  0  0  0  0  0
   45.6030   28.5550   37.1500 H   0  0  0  0  0  0  0  0  0  0  0  0
   45.8680   29.7890   37.7580 S   0  0  0  0  0  0  0  0  0  0  0  0
   45.4980   30.7810   36.7020 O   0  0  0  0  0  0  0  0  0  0  0  0
   44.9400   29.7900   38.9360 O   0  0  0  0  0  0  0  0  0  0  0  0
  1  7  1  6  0  0  0
  1  2  1  0  0  0  0
  1 17  1  0  0  0  0
  2  9  1  0  0  0  0
  3 11  1  0  0  0  0
  3 10  1  0  0  0  0
  3  2  1  0  0  0  0
  4  3  1  0  0  0  0
  5 14  1  6  0  0  0
  5  4  1  0  0  0  0
  5  6  1  0  0  0  0
  6  1  1  0  0  0  0
  8  2  1  0  0  0  0
 12  4  1  0  0  0  0
 13  4  1  0  0  0  0
 15  6  1  0  0  0  0
 16  6  1  0  0  0  0
 17 22  1  0  0  0  0
 18 17  2  0  0  0  0
 18 19  1  0  0  0  0
 19 24  1  0  0  0  0
 19 20  2  0  0  0  0
 20 21  1  0  0  0  0
 21 25  1  0  0  0  0
 22 21  2  0  0  0  0
 23 18  1  0  0  0  0
 26  5  1  0  0  0  0
 26 28  1  0  0  0  0
 27 26  1  0  0  0  0
 29 26  1  0  0  0  0
 29 30  1  0  0  0  0
 31 29  1  0  0  0  0
 32 33  1  0  0  0  0
 33 34  2  0  0  0  0
 33 29  1  0  0  0  0
 34 35  1  0  0  0  0
 36 37  1  0  0  0  0
 36 34  1  0  0  0  0
 38 36  2  0  0  0  0
 39 38  1  0  0  0  0
 39 32  2  0  0  0  0
 40 41  1  0  0  0  0
 41 32  1  0  0  0  0
 41 43  2  0  0  0  0
 42 41  2  0  0  0  0
M  END
>  <minimizedAffinity>
-4.70716476

>  <minimizedRMSD>
0.6394279

$$$$
