
 OpenBabel03252505523D

 28 29  0  0  0  0  0  0  0  0999 V2000
   37.0880   27.3590   42.8680 C   0  0  0  0  0  0  0  0  0  0  0  0
   36.6550   27.2850   41.8530 H   0  0  0  0  0  0  0  0  0  0  0  0
   36.3890   26.9140   43.6340 H   0  0  0  0  0  0  0  0  0  0  0  0
   38.3020   25.3470   42.2180 C   0  0  0  0  0  0  0  0  0  0  0  0
   38.3270   26.5440   42.9260 C   0  0  0  0  0  0  0  0  0  0  0  0
   39.4600   26.8970   43.6280 C   0  0  0  0  0  0  0  0  0  0  0  0
   39.3870   27.8620   44.1560 H   0  0  0  0  0  0  0  0  0  0  0  0
   40.6020   26.1280   43.6800 C   0  0  0  0  0  0  0  0  0  0  0  0
   41.4640   26.4520   44.2460 H   0  0  0  0  0  0  0  0  0  0  0  0
   40.6070   24.9180   42.9780 C   0  0  0  0  0  3  0  0  0  0  0  0
   39.4600   24.5960   42.2880 C   0  0  0  0  0  3  0  0  0  0  0  0
   35.8430   24.7840   41.9600 H   0  0  0  0  0  0  0  0  0  0  0  0
   37.0010   24.7120   41.2720 S   0  0  0  0  0  0  0  0  0  0  0  0
   37.2180   23.2670   40.9110 O   0  0  0  0  0  0  0  0  0  0  0  0
   36.8720   25.4910   39.9710 O   0  0  0  0  0  0  0  0  0  0  0  0
   37.3110   28.7310   43.1320 O   0  0  0  0  0  0  0  0  0  0  0  0
   38.5470   31.2910   40.9910 C   0  0  0  0  0  0  0  0  0  0  0  0
   37.4670   31.5830   40.1650 C   0  0  0  0  0  0  0  0  0  0  0  0
   36.2760   30.8610   40.3700 C   0  0  0  0  0  0  0  0  0  0  0  0
   36.2370   29.9260   41.3480 N   0  0  0  0  0  0  0  0  0  0  0  0
   37.3180   29.6800   42.1240 C   0  0  0  0  0  0  0  0  0  0  0  0
   38.4560   30.3500   41.9510 N   0  0  0  0  0  0  0  0  0  0  0  0
   39.4640   31.8170   40.8660 H   0  0  0  0  0  0  0  0  0  0  0  0
   35.4460   31.1000   39.7200 H   0  0  0  0  0  0  0  0  0  0  0  0
   37.6420   32.6410   39.1200 C   0  0  0  0  0  0  0  0  0  0  0  0
   37.1700   32.0690   37.9580 F   0  0  0  0  0  0  0  0  0  0  0  0
   38.9930   32.8990   39.0370 F   0  0  0  0  0  0  0  0  0  0  0  0
   36.9310   33.7550   39.5120 F   0  0  0  0  0  0  0  0  0  0  0  0
  1  5  1  0  0  0  0
  1 16  1  0  0  0  0
  1  3  1  0  0  0  0
  2  1  1  0  0  0  0
  4 11  2  0  0  0  0
  4  5  1  0  0  0  0
  5  6  2  0  0  0  0
  6  8  1  0  0  0  0
  6  7  1  0  0  0  0
  8  9  1  0  0  0  0
 10  8  2  0  0  0  0
 11 10  1  0  0  0  0
 13 12  1  0  0  0  0
 13  4  1  0  0  0  0
 14 13  2  0  0  0  0
 15 13  2  0  0  0  0
 17 22  1  0  0  0  0
 18 19  1  0  0  0  0
 18 17  2  0  0  0  0
 19 20  2  0  0  0  0
 20 21  1  0  0  0  0
 21 16  1  0  0  0  0
 22 21  2  0  0  0  0
 23 17  1  0  0  0  0
 24 19  1  0  0  0  0
 25 28  1  0  0  0  0
 25 18  1  0  0  0  0
 26 25  1  0  0  0  0
 27 25  1  0  0  0  0
M  END
>  <minimizedAffinity>
-5.44489431

$$$$

 OpenBabel03252505523D

 28 29  0  0  0  0  0  0  0  0999 V2000
   38.4560   27.9730   43.4320 C   0  0  0  0  0  0  0  0  0  0  0  0
   38.5630   27.8990   44.5300 H   0  0  0  0  0  0  0  0  0  0  0  0
   39.3900   28.4020   42.9670 H   0  0  0  0  0  0  0  0  0  0  0  0
   39.4840   25.8750   42.7340 C   0  0  0  0  0  0  0  0  0  0  0  0
   38.3100   26.6080   42.8670 C   0  0  0  0  0  0  0  0  0  0  0  0
   37.1110   26.0510   42.4740 C   0  0  0  0  0  0  0  0  0  0  0  0
   36.2350   26.7050   42.6190 H   0  0  0  0  0  0  0  0  0  0  0  0
   36.9900   24.7860   41.9450 C   0  0  0  0  0  0  0  0  0  0  0  0
   36.0240   24.3960   41.6530 H   0  0  0  0  0  0  0  0  0  0  0  0
   38.1540   24.0240   41.7990 C   0  0  0  0  0  3  0  0  0  0  0  0
   39.3330   24.6100   42.2010 C   0  0  0  0  0  3  0  0  0  0  0  0
   41.0740   27.0200   44.3440 H   0  0  0  0  0  0  0  0  0  0  0  0
   41.0850   26.3690   43.1640 S   0  0  0  0  0  0  0  0  0  0  0  0
   41.6810   27.3020   42.1440 O   0  0  0  0  0  0  0  0  0  0  0  0
   41.9980   25.1550   43.2580 O   0  0  0  0  0  0  0  0  0  0  0  0
   37.3410   28.8050   43.1730 O   0  0  0  0  0  0  0  0  0  0  0  0
   38.5610   31.3670   41.0250 C   0  0  0  0  0  0  0  0  0  0  0  0
   37.4900   31.6260   40.1760 C   0  0  0  0  0  0  0  0  0  0  0  0
   36.3120   30.8810   40.3670 C   0  0  0  0  0  0  0  0  0  0  0  0
   36.2740   29.9560   41.3550 N   0  0  0  0  0  0  0  0  0  0  0  0
   37.3460   29.7430   42.1540 C   0  0  0  0  0  0  0  0  0  0  0  0
   38.4720   30.4350   41.9940 N   0  0  0  0  0  0  0  0  0  0  0  0
   39.4690   31.9120   40.9100 H   0  0  0  0  0  0  0  0  0  0  0  0
   35.4880   31.0940   39.6990 H   0  0  0  0  0  0  0  0  0  0  0  0
   37.6610   32.6760   39.1220 C   0  0  0  0  0  0  0  0  0  0  0  0
   37.1110   32.1250   37.9840 F   0  0  0  0  0  0  0  0  0  0  0  0
   39.0170   32.8740   38.9750 F   0  0  0  0  0  0  0  0  0  0  0  0
   37.0190   33.8190   39.5450 F   0  0  0  0  0  0  0  0  0  0  0  0
  1  2  1  0  0  0  0
  3  1  1  0  0  0  0
  4  5  1  0  0  0  0
  4 13  1  0  0  0  0
  5  1  1  0  0  0  0
  6  7  1  0  0  0  0
  6  5  2  0  0  0  0
  8  6  1  0  0  0  0
  9  8  1  0  0  0  0
 10  8  2  0  0  0  0
 10 11  1  0  0  0  0
 11  4  2  0  0  0  0
 13 15  2  0  0  0  0
 13 12  1  0  0  0  0
 14 13  2  0  0  0  0
 16  1  1  0  0  0  0
 17 22  1  0  0  0  0
 18 19  1  0  0  0  0
 18 17  2  0  0  0  0
 19 20  2  0  0  0  0
 20 21  1  0  0  0  0
 21 16  1  0  0  0  0
 22 21  2  0  0  0  0
 23 17  1  0  0  0  0
 24 19  1  0  0  0  0
 25 28  1  0  0  0  0
 25 18  1  0  0  0  0
 26 25  1  0  0  0  0
 27 25  1  0  0  0  0
M  END
>  <minimizedAffinity>
-5.39859867

$$$$

 OpenBabel03252505523D

 28 29  0  0  0  0  0  0  0  0999 V2000
   36.9810   27.2670   42.5080 C   0  0  0  0  0  0  0  0  0  0  0  0
   36.7160   27.3560   41.4380 H   0  0  0  0  0  0  0  0  0  0  0  0
   36.1880   26.6920   43.0680 H   0  0  0  0  0  0  0  0  0  0  0  0
   38.3710   25.4200   41.7330 C   0  0  0  0  0  0  0  0  0  0  0  0
   38.2270   26.4700   42.6330 C   0  0  0  0  0  0  0  0  0  0  0  0
   39.2110   26.7050   43.5690 C   0  0  0  0  0  0  0  0  0  0  0  0
   39.0110   27.5590   44.2370 H   0  0  0  0  0  0  0  0  0  0  0  0
   40.3610   25.9540   43.6800 C   0  0  0  0  0  0  0  0  0  0  0  0
   41.1030   26.1820   44.4330 H   0  0  0  0  0  0  0  0  0  0  0  0
   40.5340   24.8910   42.7880 C   0  0  0  0  0  3  0  0  0  0  0  0
   39.5330   24.6840   41.8670 C   0  0  0  0  0  3  0  0  0  0  0  0
   36.6740   26.0340   39.9520 H   0  0  0  0  0  0  0  0  0  0  0  0
   37.2740   24.9490   40.4820 S   0  0  0  0  0  0  0  0  0  0  0  0
   36.1860   24.0440   40.9960 O   0  0  0  0  0  0  0  0  0  0  0  0
   38.0170   24.1920   39.3920 O   0  0  0  0  0  0  0  0  0  0  0  0
   37.1040   28.5790   43.0230 O   0  0  0  0  0  0  0  0  0  0  0  0
   36.6370   31.1940   40.6560 C   0  0  0  0  0  0  0  0  0  0  0  0
   37.8890   31.7930   40.5720 C   0  0  0  0  0  0  0  0  0  0  0  0
   38.9210   31.2620   41.3680 C   0  0  0  0  0  0  0  0  0  0  0  0
   38.6510   30.2050   42.1700 N   0  0  0  0  0  0  0  0  0  0  0  0
   37.4130   29.6590   42.2140 C   0  0  0  0  0  0  0  0  0  0  0  0
   36.4210   30.1440   41.4700 N   0  0  0  0  0  0  0  0  0  0  0  0
   35.8320   31.5690   40.0680 H   0  0  0  0  0  0  0  0  0  0  0  0
   39.8890   31.7390   41.2910 H   0  0  0  0  0  0  0  0  0  0  0  0
   38.0550   32.9570   39.6450 C   0  0  0  0  0  0  0  0  0  0  0  0
   38.3520   34.0230   40.4680 F   0  0  0  0  0  0  0  0  0  0  0  0
   36.8450   33.1380   39.0110 F   0  0  0  0  0  0  0  0  0  0  0  0
   39.0610   32.6560   38.7520 F   0  0  0  0  0  0  0  0  0  0  0  0
  1  5  1  0  0  0  0
  1 16  1  0  0  0  0
  1  3  1  0  0  0  0
  2  1  1  0  0  0  0
  4 11  2  0  0  0  0
  4  5  1  0  0  0  0
  5  6  2  0  0  0  0
  6  8  1  0  0  0  0
  6  7  1  0  0  0  0
  8  9  1  0  0  0  0
 10  8  2  0  0  0  0
 11 10  1  0  0  0  0
 12 13  1  0  0  0  0
 13 14  2  0  0  0  0
 13  4  1  0  0  0  0
 15 13  2  0  0  0  0
 17 22  1  0  0  0  0
 18 17  2  0  0  0  0
 18 19  1  0  0  0  0
 19 20  2  0  0  0  0
 20 21  1  0  0  0  0
 21 16  1  0  0  0  0
 22 21  2  0  0  0  0
 23 17  1  0  0  0  0
 24 19  1  0  0  0  0
 25 26  1  0  0  0  0
 25 18  1  0  0  0  0
 27 25  1  0  0  0  0
 28 25  1  0  0  0  0
M  END
>  <minimizedAffinity>
-5.29277468

$$$$

 OpenBabel03252505523D

 28 29  0  0  0  0  0  0  0  0999 V2000
   36.4740   30.7840   41.0640 C   0  0  0  0  0  0  0  0  0  0  0  0
   36.3630   31.8510   41.3330 H   0  0  0  0  0  0  0  0  0  0  0  0
   35.5180   30.2200   41.2660 H   0  0  0  0  0  0  0  0  0  0  0  0
   37.5840   31.6100   39.0570 C   0  0  0  0  0  0  0  0  0  0  0  0
   36.7120   30.6750   39.6030 C   0  0  0  0  0  0  0  0  0  0  0  0
   36.1260   29.7310   38.7870 C   0  0  0  0  0  0  0  0  0  0  0  0
   35.4520   29.0320   39.3080 H   0  0  0  0  0  0  0  0  0  0  0  0
   36.3490   29.6450   37.4300 C   0  0  0  0  0  0  0  0  0  0  0  0
   35.8640   28.8830   36.8350 H   0  0  0  0  0  0  0  0  0  0  0  0
   37.2220   30.5720   36.8520 C   0  0  0  0  0  3  0  0  0  0  0  0
   37.7900   31.5000   37.6950 C   0  0  0  0  0  3  0  0  0  0  0  0
   38.6410   32.5240   41.1730 H   0  0  0  0  0  0  0  0  0  0  0  0
   38.4290   32.8700   39.8870 S   0  0  0  0  0  0  0  0  0  0  0  0
   37.6550   34.1610   39.8930 O   0  0  0  0  0  0  0  0  0  0  0  0
   39.7620   33.1430   39.2050 O   0  0  0  0  0  0  0  0  0  0  0  0
   37.5360   30.2620   41.8420 O   0  0  0  0  0  0  0  0  0  0  0  0
   39.2310   27.1340   41.8200 C   0  0  0  0  0  0  0  0  0  0  0  0
   38.2650   26.2300   42.2480 C   0  0  0  0  0  0  0  0  0  0  0  0
   36.9860   26.7360   42.5500 C   0  0  0  0  0  0  0  0  0  0  0  0
   36.7580   28.0640   42.4130 N   0  0  0  0  0  0  0  0  0  0  0  0
   37.7350   28.9010   41.9920 C   0  0  0  0  0  0  0  0  0  0  0  0
   38.9520   28.4460   41.7000 N   0  0  0  0  0  0  0  0  0  0  0  0
   40.2090   26.7870   41.5820 H   0  0  0  0  0  0  0  0  0  0  0  0
   36.2460   26.0210   42.8820 H   0  0  0  0  0  0  0  0  0  0  0  0
   38.6460   24.7860   42.3580 C   0  0  0  0  0  0  0  0  0  0  0  0
   39.5280   24.7350   43.4160 F   0  0  0  0  0  0  0  0  0  0  0  0
   39.2650   24.4470   41.1750 F   0  0  0  0  0  0  0  0  0  0  0  0
   37.4970   24.0530   42.5640 F   0  0  0  0  0  0  0  0  0  0  0  0
  1  3  1  0  0  0  0
  1  2  1  0  0  0  0
  1 16  1  0  0  0  0
  4  5  1  0  0  0  0
  4 13  1  0  0  0  0
  5  1  1  0  0  0  0
  6  7  1  0  0  0  0
  6  5  2  0  0  0  0
  8  6  1  0  0  0  0
  9  8  1  0  0  0  0
 10  8  2  0  0  0  0
 10 11  1  0  0  0  0
 11  4  2  0  0  0  0
 13 14  2  0  0  0  0
 13 12  1  0  0  0  0
 15 13  2  0  0  0  0
 16 21  1  0  0  0  0
 17 18  1  0  0  0  0
 18 25  1  0  0  0  0
 18 19  2  0  0  0  0
 19 24  1  0  0  0  0
 20 19  1  0  0  0  0
 21 20  2  0  0  0  0
 22 17  2  0  0  0  0
 22 21  1  0  0  0  0
 23 17  1  0  0  0  0
 25 28  1  0  0  0  0
 25 26  1  0  0  0  0
 27 25  1  0  0  0  0
M  END
>  <minimizedAffinity>
-5.2213521

$$$$

 OpenBabel03252505523D

 28 29  0  0  0  0  0  0  0  0999 V2000
   36.0090   30.3020   41.0630 C   0  0  0  0  0  0  0  0  0  0  0  0
   35.4580   31.1620   41.4870 H   0  0  0  0  0  0  0  0  0  0  0  0
   35.3140   29.4310   40.8860 H   0  0  0  0  0  0  0  0  0  0  0  0
   36.3360   29.7520   38.7100 C   0  0  0  0  0  0  0  0  0  0  0  0
   36.5380   30.6780   39.7280 C   0  0  0  0  0  0  0  0  0  0  0  0
   37.2040   31.8540   39.4570 C   0  0  0  0  0  0  0  0  0  0  0  0
   37.3140   32.5260   40.3250 H   0  0  0  0  0  0  0  0  0  0  0  0
   37.6970   32.1890   38.2160 C   0  0  0  0  0  0  0  0  0  0  0  0
   38.2120   33.1270   38.0570 H   0  0  0  0  0  0  0  0  0  0  0  0
   37.5100   31.2780   37.1710 C   0  0  0  0  0  3  0  0  0  0  0  0
   36.8410   30.1130   37.4760 C   0  0  0  0  0  3  0  0  0  0  0  0
   34.6030   28.2560   39.8000 H   0  0  0  0  0  0  0  0  0  0  0  0
   35.5300   28.2270   38.8210 S   0  0  0  0  0  0  0  0  0  0  0  0
   36.4820   27.1060   39.1420 O   0  0  0  0  0  0  0  0  0  0  0  0
   34.8630   27.8900   37.4950 O   0  0  0  0  0  0  0  0  0  0  0  0
   37.0220   29.9530   41.9870 O   0  0  0  0  0  0  0  0  0  0  0  0
   37.1060   26.4530   42.6230 C   0  0  0  0  0  0  0  0  0  0  0  0
   38.4020   26.0840   42.2810 C   0  0  0  0  0  0  0  0  0  0  0  0
   39.2660   27.0940   41.8150 C   0  0  0  0  0  0  0  0  0  0  0  0
   38.8010   28.3620   41.7230 N   0  0  0  0  0  0  0  0  0  0  0  0
   37.5290   28.6680   42.0700 C   0  0  0  0  0  0  0  0  0  0  0  0
   36.6930   27.7300   42.5130 N   0  0  0  0  0  0  0  0  0  0  0  0
   36.4250   25.7160   42.9800 H   0  0  0  0  0  0  0  0  0  0  0  0
   40.2700   26.7910   41.5530 H   0  0  0  0  0  0  0  0  0  0  0  0
   38.7910   24.6460   42.4290 C   0  0  0  0  0  0  0  0  0  0  0  0
   37.5980   23.9740   42.5940 F   0  0  0  0  0  0  0  0  0  0  0  0
   39.5730   24.5600   43.5610 F   0  0  0  0  0  0  0  0  0  0  0  0
   39.4830   24.2690   41.2980 F   0  0  0  0  0  0  0  0  0  0  0  0
  1  2  1  0  0  0  0
  1 16  1  0  0  0  0
  3  1  1  0  0  0  0
  4 13  1  0  0  0  0
  4  5  1  0  0  0  0
  5  1  1  0  0  0  0
  6  5  2  0  0  0  0
  6  7  1  0  0  0  0
  8  6  1  0  0  0  0
  9  8  1  0  0  0  0
 10 11  1  0  0  0  0
 10  8  2  0  0  0  0
 11  4  2  0  0  0  0
 13 14  2  0  0  0  0
 13 12  1  0  0  0  0
 15 13  2  0  0  0  0
 16 21  1  0  0  0  0
 17 23  1  0  0  0  0
 18 25  1  0  0  0  0
 18 17  2  0  0  0  0
 19 18  1  0  0  0  0
 20 19  2  0  0  0  0
 20 21  1  0  0  0  0
 21 22  2  0  0  0  0
 22 17  1  0  0  0  0
 24 19  1  0  0  0  0
 25 26  1  0  0  0  0
 25 27  1  0  0  0  0
 28 25  1  0  0  0  0
M  END
>  <minimizedAffinity>
-4.97594118

$$$$

 OpenBabel03252505523D

 28 29  0  0  0  0  0  0  0  0999 V2000
   36.3180   27.0130   38.7900 C   0  0  0  0  0  0  0  0  0  0  0  0
   37.2790   27.4040   38.4060 H   0  0  0  0  0  0  0  0  0  0  0  0
   35.8170   26.3600   38.0190 H   0  0  0  0  0  0  0  0  0  0  0  0
   36.3720   24.7740   39.7560 C   0  0  0  0  0  0  0  0  0  0  0  0
   36.5850   26.1340   39.9560 C   0  0  0  0  0  0  0  0  0  0  0  0
   37.0110   26.5820   41.1880 C   0  0  0  0  0  0  0  0  0  0  0  0
   37.1550   27.6730   41.2520 H   0  0  0  0  0  0  0  0  0  0  0  0
   37.2490   25.7570   42.2650 C   0  0  0  0  0  0  0  0  0  0  0  0
   37.5840   26.1610   43.2110 H   0  0  0  0  0  0  0  0  0  0  0  0
   37.0430   24.3850   42.0940 C   0  0  0  0  0  3  0  0  0  0  0  0
   36.6180   23.9710   40.8520 C   0  0  0  0  0  3  0  0  0  0  0  0
   36.3690   24.6140   37.2250 H   0  0  0  0  0  0  0  0  0  0  0  0
   35.8470   23.9960   38.3040 S   0  0  0  0  0  0  0  0  0  0  0  0
   34.3500   24.0260   38.1550 O   0  0  0  0  0  0  0  0  0  0  0  0
   36.2730   22.5350   38.3100 O   0  0  0  0  0  0  0  0  0  0  0  0
   35.5060   28.1270   39.1060 O   0  0  0  0  0  0  0  0  0  0  0  0
   37.1860   31.1890   38.4250 C   0  0  0  0  0  0  0  0  0  0  0  0
   37.1360   31.8720   39.6350 C   0  0  0  0  0  0  0  0  0  0  0  0
   36.4950   31.2370   40.7150 C   0  0  0  0  0  0  0  0  0  0  0  0
   35.9630   30.0060   40.5300 N   0  0  0  0  0  0  0  0  0  0  0  0
   36.0400   29.3850   39.3300 C   0  0  0  0  0  0  0  0  0  0  0  0
   36.6410   29.9640   38.2920 N   0  0  0  0  0  0  0  0  0  0  0  0
   37.6630   31.6380   37.5850 H   0  0  0  0  0  0  0  0  0  0  0  0
   36.4640   31.7810   41.6500 H   0  0  0  0  0  0  0  0  0  0  0  0
   37.7630   33.2290   39.7080 C   0  0  0  0  0  0  0  0  0  0  0  0
   38.8870   33.1410   38.9140 F   0  0  0  0  0  0  0  0  0  0  0  0
   38.1000   33.4420   41.0270 F   0  0  0  0  0  0  0  0  0  0  0  0
   36.8440   34.1520   39.2580 F   0  0  0  0  0  0  0  0  0  0  0  0
  1 16  1  0  0  0  0
  1  5  1  0  0  0  0
  2  1  1  0  0  0  0
  3  1  1  0  0  0  0
  4  5  2  0  0  0  0
  4 11  1  0  0  0  0
  5  6  1  0  0  0  0
  6  7  1  0  0  0  0
  6  8  2  0  0  0  0
  8  9  1  0  0  0  0
 10  8  1  0  0  0  0
 11 10  2  0  0  0  0
 12 13  1  0  0  0  0
 13 15  2  0  0  0  0
 13  4  1  0  0  0  0
 14 13  2  0  0  0  0
 16 21  1  0  0  0  0
 17 18  1  0  0  0  0
 18 25  1  0  0  0  0
 18 19  2  0  0  0  0
 19 24  1  0  0  0  0
 20 19  1  0  0  0  0
 21 20  2  0  0  0  0
 22 17  2  0  0  0  0
 22 21  1  0  0  0  0
 23 17  1  0  0  0  0
 25 27  1  0  0  0  0
 26 25  1  0  0  0  0
 28 25  1  0  0  0  0
M  END
>  <minimizedAffinity>
-4.88867474

$$$$

 OpenBabel03252505523D

 28 29  0  0  0  0  0  0  0  0999 V2000
   36.5890   31.2400   40.3710 C   0  0  0  0  0  0  0  0  0  0  0  0
   35.7710   31.9830   40.4300 H   0  0  0  0  0  0  0  0  0  0  0  0
   36.3850   30.4880   39.5550 H   0  0  0  0  0  0  0  0  0  0  0  0
   38.4520   31.4820   38.8170 C   0  0  0  0  0  0  0  0  0  0  0  0
   37.8430   31.9320   39.9830 C   0  0  0  0  0  0  0  0  0  0  0  0
   38.4200   32.9590   40.6990 C   0  0  0  0  0  0  0  0  0  0  0  0
   37.8660   33.2500   41.6070 H   0  0  0  0  0  0  0  0  0  0  0  0
   39.5890   33.5890   40.3330 C   0  0  0  0  0  0  0  0  0  0  0  0
   39.9990   34.3910   40.9320 H   0  0  0  0  0  0  0  0  0  0  0  0
   40.2240   33.1580   39.1650 C   0  0  0  0  0  3  0  0  0  0  0  0
   39.6220   32.1310   38.4730 C   0  0  0  0  0  3  0  0  0  0  0  0
   37.0020   29.4450   38.3950 H   0  0  0  0  0  0  0  0  0  0  0  0
   37.9070   30.2210   37.7660 S   0  0  0  0  0  0  0  0  0  0  0  0
   39.0330   29.3260   37.3250 O   0  0  0  0  0  0  0  0  0  0  0  0
   37.2830   30.8180   36.5120 O   0  0  0  0  0  0  0  0  0  0  0  0
   36.6710   30.6020   41.6310 O   0  0  0  0  0  0  0  0  0  0  0  0
   36.8080   27.1740   40.6850 C   0  0  0  0  0  0  0  0  0  0  0  0
   37.2030   26.5240   41.8480 C   0  0  0  0  0  0  0  0  0  0  0  0
   37.4270   27.3140   42.9920 C   0  0  0  0  0  0  0  0  0  0  0  0
   37.2480   28.6530   42.9090 N   0  0  0  0  0  0  0  0  0  0  0  0
   36.8610   29.2360   41.7500 C   0  0  0  0  0  0  0  0  0  0  0  0
   36.6440   28.5110   40.6550 N   0  0  0  0  0  0  0  0  0  0  0  0
   36.6290   26.6090   39.8000 H   0  0  0  0  0  0  0  0  0  0  0  0
   37.7340   26.7930   43.8890 H   0  0  0  0  0  0  0  0  0  0  0  0
   37.3650   25.0360   41.8080 C   0  0  0  0  0  0  0  0  0  0  0  0
   37.1810   24.6980   40.4840 F   0  0  0  0  0  0  0  0  0  0  0  0
   36.3710   24.5060   42.6010 F   0  0  0  0  0  0  0  0  0  0  0  0
   38.6210   24.7270   42.2840 F   0  0  0  0  0  0  0  0  0  0  0  0
  1  2  1  0  0  0  0
  1 16  1  0  0  0  0
  3  1  1  0  0  0  0
  4  5  1  0  0  0  0
  5  1  1  0  0  0  0
  5  6  2  0  0  0  0
  6  7  1  0  0  0  0
  8  6  1  0  0  0  0
  8  9  1  0  0  0  0
 10  8  2  0  0  0  0
 11  4  2  0  0  0  0
 11 10  1  0  0  0  0
 13 12  1  0  0  0  0
 13  4  1  0  0  0  0
 14 13  2  0  0  0  0
 15 13  2  0  0  0  0
 16 21  1  0  0  0  0
 17 18  1  0  0  0  0
 18 19  2  0  0  0  0
 19 24  1  0  0  0  0
 20 19  1  0  0  0  0
 21 20  2  0  0  0  0
 22 17  2  0  0  0  0
 22 21  1  0  0  0  0
 23 17  1  0  0  0  0
 25 18  1  0  0  0  0
 25 28  1  0  0  0  0
 25 27  1  0  0  0  0
 26 25  1  0  0  0  0
M  END
>  <minimizedAffinity>
-4.87011337

$$$$

 OpenBabel03252505523D

 28 29  0  0  0  0  0  0  0  0999 V2000
   38.1290   30.5000   37.5090 C   0  0  0  0  0  0  0  0  0  0  0  0
   37.0420   30.3290   37.4000 H   0  0  0  0  0  0  0  0  0  0  0  0
   38.5910   30.7750   36.5170 H   0  0  0  0  0  0  0  0  0  0  0  0
   39.6420   32.1750   38.4320 C   0  0  0  0  0  0  0  0  0  0  0  0
   38.3470   31.6700   38.3970 C   0  0  0  0  0  0  0  0  0  0  0  0
   37.3660   32.2560   39.1680 C   0  0  0  0  0  0  0  0  0  0  0  0
   36.3710   31.7900   39.0740 H   0  0  0  0  0  0  0  0  0  0  0  0
   37.5820   33.3370   39.9940 C   0  0  0  0  0  0  0  0  0  0  0  0
   36.7760   33.7600   40.5780 H   0  0  0  0  0  0  0  0  0  0  0  0
   38.8750   33.8670   40.0510 C   0  0  0  0  0  3  0  0  0  0  0  0
   39.8300   33.2580   39.2690 C   0  0  0  0  0  3  0  0  0  0  0  0
   40.6250   30.9830   36.4210 H   0  0  0  0  0  0  0  0  0  0  0  0
   41.0170   31.6040   37.5520 S   0  0  0  0  0  0  0  0  0  0  0  0
   41.8270   30.6160   38.3470 O   0  0  0  0  0  0  0  0  0  0  0  0
   41.9340   32.7680   37.2030 O   0  0  0  0  0  0  0  0  0  0  0  0
   38.6960   29.3050   38.0120 O   0  0  0  0  0  0  0  0  0  0  0  0
   38.7810   27.9010   41.2810 C   0  0  0  0  0  0  0  0  0  0  0  0
   37.4620   27.5310   41.5180 C   0  0  0  0  0  0  0  0  0  0  0  0
   36.5220   27.7830   40.5010 C   0  0  0  0  0  0  0  0  0  0  0  0
   36.9390   28.3670   39.3530 N   0  0  0  0  0  0  0  0  0  0  0  0
   38.2370   28.7070   39.1730 C   0  0  0  0  0  0  0  0  0  0  0  0
   39.1450   28.4790   40.1190 N   0  0  0  0  0  0  0  0  0  0  0  0
   39.5200   27.7260   42.0270 H   0  0  0  0  0  0  0  0  0  0  0  0
   35.5000   27.4900   40.7000 H   0  0  0  0  0  0  0  0  0  0  0  0
   37.1310   26.8940   42.8310 C   0  0  0  0  0  0  0  0  0  0  0  0
   36.8780   25.5730   42.5270 F   0  0  0  0  0  0  0  0  0  0  0  0
   36.0000   27.5220   43.3050 F   0  0  0  0  0  0  0  0  0  0  0  0
   38.2060   27.0670   43.6760 F   0  0  0  0  0  0  0  0  0  0  0  0
  1 16  1  0  0  0  0
  1  5  1  0  0  0  0
  2  1  1  0  0  0  0
  3  1  1  0  0  0  0
  4 11  1  0  0  0  0
  5  4  2  0  0  0  0
  5  6  1  0  0  0  0
  6  8  2  0  0  0  0
  7  6  1  0  0  0  0
  8 10  1  0  0  0  0
  8  9  1  0  0  0  0
 11 10  2  0  0  0  0
 12 13  1  0  0  0  0
 13 14  2  0  0  0  0
 13  4  1  0  0  0  0
 15 13  2  0  0  0  0
 16 21  1  0  0  0  0
 17 18  1  0  0  0  0
 17 23  1  0  0  0  0
 18 25  1  0  0  0  0
 19 24  1  0  0  0  0
 19 18  2  0  0  0  0
 20 19  1  0  0  0  0
 21 20  2  0  0  0  0
 21 22  1  0  0  0  0
 22 17  2  0  0  0  0
 25 27  1  0  0  0  0
 25 28  1  0  0  0  0
 26 25  1  0  0  0  0
M  END
>  <minimizedAffinity>
-4.83400345

$$$$

 OpenBabel03252505523D

 28 29  0  0  0  0  0  0  0  0999 V2000
   36.4850   27.4930   42.0560 C   0  0  0  0  0  0  0  0  0  0  0  0
   35.9750   28.0400   41.2410 H   0  0  0  0  0  0  0  0  0  0  0  0
   35.7460   27.1820   42.8500 H   0  0  0  0  0  0  0  0  0  0  0  0
   37.2490   26.1990   40.1360 C   0  0  0  0  0  0  0  0  0  0  0  0
   37.0520   26.2340   41.5120 C   0  0  0  0  0  0  0  0  0  0  0  0
   37.3770   25.1320   42.2740 C   0  0  0  0  0  0  0  0  0  0  0  0
   37.1890   25.2530   43.3540 H   0  0  0  0  0  0  0  0  0  0  0  0
   37.8970   23.9670   41.7560 C   0  0  0  0  0  0  0  0  0  0  0  0
   38.1360   23.1310   42.4000 H   0  0  0  0  0  0  0  0  0  0  0  0
   38.1050   23.9010   40.3750 C   0  0  0  0  0  3  0  0  0  0  0  0
   37.7710   25.0190   39.6430 C   0  0  0  0  0  3  0  0  0  0  0  0
   37.2250   28.6600   39.5220 H   0  0  0  0  0  0  0  0  0  0  0  0
   36.9190   27.4570   38.9950 S   0  0  0  0  0  0  0  0  0  0  0  0
   35.4670   27.4980   38.6020 O   0  0  0  0  0  0  0  0  0  0  0  0
   37.7280   27.2350   37.7250 O   0  0  0  0  0  0  0  0  0  0  0  0
   37.4650   28.3580   42.5960 O   0  0  0  0  0  0  0  0  0  0  0  0
   36.9760   31.4190   40.8470 C   0  0  0  0  0  0  0  0  0  0  0  0
   38.2420   31.9920   40.8220 C   0  0  0  0  0  0  0  0  0  0  0  0
   39.2920   31.2830   41.4350 C   0  0  0  0  0  0  0  0  0  0  0  0
   39.0250   30.0890   42.0150 N   0  0  0  0  0  0  0  0  0  0  0  0
   37.7720   29.5750   42.0120 C   0  0  0  0  0  0  0  0  0  0  0  0
   36.7630   30.2270   41.4380 N   0  0  0  0  0  0  0  0  0  0  0  0
   36.1570   31.9260   40.3930 H   0  0  0  0  0  0  0  0  0  0  0  0
   40.2700   31.7430   41.4060 H   0  0  0  0  0  0  0  0  0  0  0  0
   38.4040   33.3190   40.1470 C   0  0  0  0  0  0  0  0  0  0  0  0
   38.8780   34.1590   41.1320 F   0  0  0  0  0  0  0  0  0  0  0  0
   37.1510   33.7050   39.7230 F   0  0  0  0  0  0  0  0  0  0  0  0
   39.2760   33.1620   39.0920 F   0  0  0  0  0  0  0  0  0  0  0  0
  1 16  1  0  0  0  0
  1  3  1  0  0  0  0
  2  1  1  0  0  0  0
  4  5  1  0  0  0  0
  5  1  1  0  0  0  0
  5  6  2  0  0  0  0
  6  7  1  0  0  0  0
  8  6  1  0  0  0  0
  8  9  1  0  0  0  0
 10  8  2  0  0  0  0
 11  4  2  0  0  0  0
 11 10  1  0  0  0  0
 13 12  1  0  0  0  0
 13  4  1  0  0  0  0
 14 13  2  0  0  0  0
 15 13  2  0  0  0  0
 17 22  1  0  0  0  0
 18 17  2  0  0  0  0
 18 19  1  0  0  0  0
 19 20  2  0  0  0  0
 21 20  1  0  0  0  0
 21 16  1  0  0  0  0
 22 21  2  0  0  0  0
 23 17  1  0  0  0  0
 24 19  1  0  0  0  0
 25 18  1  0  0  0  0
 25 26  1  0  0  0  0
 27 25  1  0  0  0  0
 28 25  1  0  0  0  0
M  END
>  <minimizedAffinity>
-4.7237649

$$$$
