
 OpenBabel03252500523D

 38 40  0  0  0  0  0  0  0  0999 V2000
   36.1420   29.5400   40.4260 C   0  0  0  0  0  0  0  0  0  0  0  0
   35.0110   29.6890   39.9200 O   0  0  0  0  0  0  0  0  0  0  0  0
   38.3590   29.9180   39.4490 C   0  0  0  0  0  0  0  0  0  0  0  0
   37.2050   30.4500   40.0090 C   0  0  0  0  0  0  0  0  0  0  0  0
   37.0500   31.8330   40.1780 C   0  0  0  0  0  0  0  0  0  0  0  0
   38.0920   32.6250   39.7640 N   0  0  0  0  0  0  0  0  0  0  0  0
   39.2030   32.1000   39.2260 C   0  0  0  0  0  0  0  0  0  0  0  0
   39.3270   30.7720   39.0730 N   0  0  0  0  0  0  0  0  0  0  0  0
   38.5260   28.8610   39.2970 H   0  0  0  0  0  0  0  0  0  0  0  0
   36.1560   32.2080   40.6110 H   0  0  0  0  0  0  0  0  0  0  0  0
   40.2890   32.9720   38.8020 C   0  0  0  0  0  0  0  0  0  0  0  0
   40.6160   34.1110   39.4650 C   0  0  0  0  0  0  0  0  0  0  0  0
   41.6300   34.9400   39.0820 C   0  0  0  0  0  0  0  0  0  0  0  0
   42.3280   34.5800   37.9780 N   0  0  0  0  0  0  0  0  0  0  0  0
   42.0030   33.4710   37.3380 C   0  0  0  0  0  0  0  0  0  0  0  0
   41.0110   32.6240   37.6800 N   0  0  0  0  0  0  0  0  0  0  0  0
   40.0360   34.3690   40.3480 H   0  0  0  0  0  0  0  0  0  0  0  0
   41.8160   35.8350   39.6820 H   0  0  0  0  0  0  0  0  0  0  0  0
   42.5820   33.1930   36.4390 H   0  0  0  0  0  0  0  0  0  0  0  0
   36.0950   28.4940   41.2970 O   0  0  0  0  0  0  0  0  0  0  0  0
   36.9310   28.3870   42.3970 C   0  0  0  0  0  0  0  0  0  0  0  0
   37.0330   29.2360   43.0650 H   0  0  0  0  0  0  0  0  0  0  0  0
   37.9760   28.2970   41.9390 H   0  0  0  0  0  0  0  0  0  0  0  0
   36.7770   27.0820   43.1310 C   0  0  0  0  0  0  0  0  0  0  0  0
   36.0250   26.4200   42.6410 H   0  0  0  0  0  0  0  0  0  0  0  0
   36.4560   27.1940   44.1840 H   0  0  0  0  0  0  0  0  0  0  0  0
   38.1390   25.2550   42.3570 C   0  0  0  0  0  0  0  0  0  0  0  0
   38.0970   26.4000   43.1160 C   0  0  0  0  0  0  0  0  0  0  0  0
   39.2140   26.8240   43.8000 C   0  0  0  0  0  0  0  0  0  0  0  0
   39.0110   27.7420   44.3470 H   0  0  0  0  0  0  0  0  0  0  0  0
   40.4120   26.1450   43.7680 C   0  0  0  0  0  0  0  0  0  0  0  0
   41.1980   26.5940   44.3510 H   0  0  0  0  0  0  0  0  0  0  0  0
   40.4780   24.9740   43.0000 C   0  0  0  0  0  3  0  0  0  0  0  0
   39.3360   24.5560   42.3110 C   0  0  0  0  0  3  0  0  0  0  0  0
   35.8200   24.1800   42.0960 H   0  0  0  0  0  0  0  0  0  0  0  0
   36.9510   24.4590   41.3670 S   0  0  0  0  0  0  0  0  0  0  0  0
   37.5170   23.1080   40.9750 O   0  0  0  0  0  0  0  0  0  0  0  0
   36.5650   25.1930   40.1400 O   0  0  0  0  0  0  0  0  0  0  0  0
  1 20  1  0  0  0  0
  2  1  2  0  0  0  0
  3  4  1  0  0  0  0
  4  5  2  0  0  0  0
  4  1  1  0  0  0  0
  5 10  1  0  0  0  0
  6  5  1  0  0  0  0
  7  6  2  0  0  0  0
  8  7  1  0  0  0  0
  8  3  2  0  0  0  0
  9  3  1  0  0  0  0
 11  7  1  0  0  0  0
 11 12  1  0  0  0  0
 12 17  1  0  0  0  0
 13 12  2  0  0  0  0
 13 18  1  0  0  0  0
 14 13  1  0  0  0  0
 15 16  1  0  0  0  0
 15 14  2  0  0  0  0
 16 11  2  0  0  0  0
 19 15  1  0  0  0  0
 20 21  1  0  0  0  0
 21 22  1  0  0  0  0
 21 24  1  0  0  0  0
 23 21  1  0  0  0  0
 24 26  1  0  0  0  0
 25 24  1  0  0  0  0
 27 28  1  0  0  0  0
 28 24  1  0  0  0  0
 28 29  2  0  0  0  0
 29 30  1  0  0  0  0
 31 29  1  0  0  0  0
 31 32  1  0  0  0  0
 33 31  2  0  0  0  0
 34 27  2  0  0  0  0
 34 33  1  0  0  0  0
 36 35  1  0  0  0  0
 36 27  1  0  0  0  0
 37 36  2  0  0  0  0
 38 36  2  0  0  0  0
M  END
>  <minimizedAffinity>
-5.73516178

$$$$

 OpenBabel03252500523D

 38 40  0  0  0  0  0  0  0  0999 V2000
   37.3780   29.6290   41.0340 C   0  0  0  0  0  0  0  0  0  0  0  0
   38.5720   29.7890   40.7070 O   0  0  0  0  0  0  0  0  0  0  0  0
   36.8160   29.5040   38.6510 C   0  0  0  0  0  0  0  0  0  0  0  0
   36.3960   29.4290   39.9730 C   0  0  0  0  0  0  0  0  0  0  0  0
   35.0570   29.1700   40.2960 C   0  0  0  0  0  0  0  0  0  0  0  0
   34.1920   28.9950   39.2450 N   0  0  0  0  0  0  0  0  0  0  0  0
   34.6080   29.0710   37.9720 C   0  0  0  0  0  0  0  0  0  0  0  0
   35.8960   29.3200   37.6880 N   0  0  0  0  0  0  0  0  0  0  0  0
   37.8350   29.7020   38.3510 H   0  0  0  0  0  0  0  0  0  0  0  0
   34.7680   29.1200   41.3170 H   0  0  0  0  0  0  0  0  0  0  0  0
   33.6600   28.8840   36.8830 C   0  0  0  0  0  0  0  0  0  0  0  0
   32.3630   29.2800   36.9640 C   0  0  0  0  0  0  0  0  0  0  0  0
   31.4610   29.1130   35.9540 C   0  0  0  0  0  0  0  0  0  0  0  0
   31.9140   28.5170   34.8250 N   0  0  0  0  0  0  0  0  0  0  0  0
   33.1760   28.1350   34.7540 C   0  0  0  0  0  0  0  0  0  0  0  0
   34.1000   28.2800   35.7250 N   0  0  0  0  0  0  0  0  0  0  0  0
   32.0340   29.7550   37.8850 H   0  0  0  0  0  0  0  0  0  0  0  0
   30.4380   29.4650   36.1150 H   0  0  0  0  0  0  0  0  0  0  0  0
   33.5280   27.6500   33.8260 H   0  0  0  0  0  0  0  0  0  0  0  0
   37.2890   29.6840   42.3920 O   0  0  0  0  0  0  0  0  0  0  0  0
   38.2240   29.1050   43.2360 C   0  0  0  0  0  0  0  0  0  0  0  0
   38.6730   29.7090   44.0170 H   0  0  0  0  0  0  0  0  0  0  0  0
   39.1100   28.8780   42.5480 H   0  0  0  0  0  0  0  0  0  0  0  0
   37.8180   27.7380   43.7170 C   0  0  0  0  0  0  0  0  0  0  0  0
   36.9160   27.3630   43.1790 H   0  0  0  0  0  0  0  0  0  0  0  0
   37.5790   27.6930   44.7960 H   0  0  0  0  0  0  0  0  0  0  0  0
   38.6400   25.7470   42.6410 C   0  0  0  0  0  0  0  0  0  0  0  0
   38.9510   26.8130   43.4500 C   0  0  0  0  0  0  0  0  0  0  0  0
   40.2220   26.9540   43.9590 C   0  0  0  0  0  0  0  0  0  0  0  0
   40.2980   27.8470   44.5770 H   0  0  0  0  0  0  0  0  0  0  0  0
   41.2350   26.0590   43.6970 C   0  0  0  0  0  0  0  0  0  0  0  0
   42.1770   26.2960   44.1640 H   0  0  0  0  0  0  0  0  0  0  0  0
   40.9410   24.9630   42.8740 C   0  0  0  0  0  3  0  0  0  0  0  0
   39.6460   24.8340   42.3650 C   0  0  0  0  0  3  0  0  0  0  0  0
   36.0990   25.3620   42.6740 H   0  0  0  0  0  0  0  0  0  0  0  0
   37.1770   25.2810   41.8250 S   0  0  0  0  0  0  0  0  0  0  0  0
   37.3000   23.8110   41.4750 O   0  0  0  0  0  0  0  0  0  0  0  0
   36.8770   26.0460   40.5910 O   0  0  0  0  0  0  0  0  0  0  0  0
  1 20  1  0  0  0  0
  2  1  2  0  0  0  0
  3  4  1  0  0  0  0
  4  5  2  0  0  0  0
  4  1  1  0  0  0  0
  5 10  1  0  0  0  0
  6  5  1  0  0  0  0
  7  6  2  0  0  0  0
  8  7  1  0  0  0  0
  8  3  2  0  0  0  0
  9  3  1  0  0  0  0
 11 12  1  0  0  0  0
 11  7  1  0  0  0  0
 12 17  1  0  0  0  0
 13 18  1  0  0  0  0
 13 12  2  0  0  0  0
 14 13  1  0  0  0  0
 15 14  2  0  0  0  0
 15 16  1  0  0  0  0
 16 11  2  0  0  0  0
 19 15  1  0  0  0  0
 20 21  1  0  0  0  0
 21 24  1  0  0  0  0
 21 22  1  0  0  0  0
 23 21  1  0  0  0  0
 24 26  1  0  0  0  0
 25 24  1  0  0  0  0
 27 28  1  0  0  0  0
 28 24  1  0  0  0  0
 28 29  2  0  0  0  0
 29 30  1  0  0  0  0
 31 29  1  0  0  0  0
 31 32  1  0  0  0  0
 33 31  2  0  0  0  0
 34 27  2  0  0  0  0
 34 33  1  0  0  0  0
 36 27  1  0  0  0  0
 36 35  1  0  0  0  0
 37 36  2  0  0  0  0
 38 36  2  0  0  0  0
M  END
>  <minimizedAffinity>
-5.24457979

$$$$

 OpenBabel03252500523D

 38 40  0  0  0  0  0  0  0  0999 V2000
   36.5910   26.0380   39.2730 C   0  0  0  0  0  0  0  0  0  0  0  0
   35.7620   25.7120   38.3980 O   0  0  0  0  0  0  0  0  0  0  0  0
   38.1690   27.9140   39.2400 C   0  0  0  0  0  0  0  0  0  0  0  0
   36.8750   27.4590   39.4530 C   0  0  0  0  0  0  0  0  0  0  0  0
   35.8500   28.3350   39.8380 C   0  0  0  0  0  0  0  0  0  0  0  0
   36.1930   29.6550   39.9900 N   0  0  0  0  0  0  0  0  0  0  0  0
   37.4470   30.0840   39.7820 C   0  0  0  0  0  0  0  0  0  0  0  0
   38.4110   29.2260   39.4140 N   0  0  0  0  0  0  0  0  0  0  0  0
   38.9920   27.2800   38.9440 H   0  0  0  0  0  0  0  0  0  0  0  0
   34.8710   27.9540   39.9940 H   0  0  0  0  0  0  0  0  0  0  0  0
   37.7740   31.4920   39.9570 C   0  0  0  0  0  0  0  0  0  0  0  0
   38.8220   31.9140   40.7100 C   0  0  0  0  0  0  0  0  0  0  0  0
   39.1420   33.2280   40.8850 C   0  0  0  0  0  0  0  0  0  0  0  0
   38.3530   34.1360   40.2610 N   0  0  0  0  0  0  0  0  0  0  0  0
   37.3360   33.7180   39.5300 C   0  0  0  0  0  0  0  0  0  0  0  0
   36.9830   32.4320   39.3300 N   0  0  0  0  0  0  0  0  0  0  0  0
   39.4340   31.1580   41.1970 H   0  0  0  0  0  0  0  0  0  0  0  0
   40.0060   33.4680   41.5110 H   0  0  0  0  0  0  0  0  0  0  0  0
   36.7030   34.4720   39.0290 H   0  0  0  0  0  0  0  0  0  0  0  0
   37.0520   24.9080   39.8770 O   0  0  0  0  0  0  0  0  0  0  0  0
   36.6630   24.5180   41.1490 C   0  0  0  0  0  0  0  0  0  0  0  0
   36.0550   23.6270   41.2620 H   0  0  0  0  0  0  0  0  0  0  0  0
   35.9570   25.3520   41.4870 H   0  0  0  0  0  0  0  0  0  0  0  0
   37.7770   24.5960   42.1570 C   0  0  0  0  0  0  0  0  0  0  0  0
   38.7420   24.2290   41.7350 H   0  0  0  0  0  0  0  0  0  0  0  0
   37.5940   24.0080   43.0760 H   0  0  0  0  0  0  0  0  0  0  0  0
   39.2110   26.5150   42.3940 C   0  0  0  0  0  0  0  0  0  0  0  0
   37.9360   26.0230   42.5410 C   0  0  0  0  0  0  0  0  0  0  0  0
   36.9290   26.8280   43.0240 C   0  0  0  0  0  0  0  0  0  0  0  0
   35.9880   26.2860   43.0770 H   0  0  0  0  0  0  0  0  0  0  0  0
   37.1320   28.1420   43.3840 C   0  0  0  0  0  0  0  0  0  0  0  0
   36.2530   28.6490   43.7460 H   0  0  0  0  0  0  0  0  0  0  0  0
   38.4240   28.6660   43.2430 C   0  0  0  0  0  3  0  0  0  0  0  0
   39.4360   27.8360   42.7500 C   0  0  0  0  0  3  0  0  0  0  0  0
   40.4430   25.0500   40.6800 H   0  0  0  0  0  0  0  0  0  0  0  0
   40.6830   25.8020   41.8050 S   0  0  0  0  0  0  0  0  0  0  0  0
   41.1600   24.8140   42.8510 O   0  0  0  0  0  0  0  0  0  0  0  0
   41.7740   26.7640   41.5180 O   0  0  0  0  0  0  0  0  0  0  0  0
  1  4  1  0  0  0  0
  1 20  1  0  0  0  0
  2  1  2  0  0  0  0
  3  8  2  0  0  0  0
  3  4  1  0  0  0  0
  4  5  2  0  0  0  0
  5  6  1  0  0  0  0
  5 10  1  0  0  0  0
  7 11  1  0  0  0  0
  7  6  2  0  0  0  0
  8  7  1  0  0  0  0
  9  3  1  0  0  0  0
 11 12  1  0  0  0  0
 12 13  2  0  0  0  0
 12 17  1  0  0  0  0
 13 18  1  0  0  0  0
 14 13  1  0  0  0  0
 15 14  2  0  0  0  0
 16 15  1  0  0  0  0
 16 11  2  0  0  0  0
 19 15  1  0  0  0  0
 20 21  1  0  0  0  0
 21 22  1  0  0  0  0
 21 23  1  0  0  0  0
 21 24  1  0  0  0  0
 24 28  1  0  0  0  0
 24 26  1  0  0  0  0
 25 24  1  0  0  0  0
 27 28  2  0  0  0  0
 27 34  1  0  0  0  0
 28 29  1  0  0  0  0
 29 30  1  0  0  0  0
 29 31  2  0  0  0  0
 31 32  1  0  0  0  0
 33 31  1  0  0  0  0
 34 33  2  0  0  0  0
 35 36  1  0  0  0  0
 36 27  1  0  0  0  0
 36 37  2  0  0  0  0
 38 36  2  0  0  0  0
M  END
>  <minimizedAffinity>
-5.24340963

$$$$

 OpenBabel03252500523D

 38 40  0  0  0  0  0  0  0  0999 V2000
   37.1410   30.0490   40.7410 C   0  0  0  0  0  0  0  0  0  0  0  0
   36.1660   30.6820   41.1950 O   0  0  0  0  0  0  0  0  0  0  0  0
   38.7310   30.7610   39.0150 C   0  0  0  0  0  0  0  0  0  0  0  0
   38.3240   30.8050   40.3420 C   0  0  0  0  0  0  0  0  0  0  0  0
   39.0290   31.5570   41.2930 C   0  0  0  0  0  0  0  0  0  0  0  0
   40.1310   32.2410   40.8450 N   0  0  0  0  0  0  0  0  0  0  0  0
   40.5150   32.1900   39.5610 C   0  0  0  0  0  0  0  0  0  0  0  0
   39.8240   31.4630   38.6690 N   0  0  0  0  0  0  0  0  0  0  0  0
   38.2230   30.1980   38.2460 H   0  0  0  0  0  0  0  0  0  0  0  0
   38.6920   31.5690   42.3010 H   0  0  0  0  0  0  0  0  0  0  0  0
   41.6930   32.9260   39.1230 C   0  0  0  0  0  0  0  0  0  0  0  0
   42.7620   33.1450   39.9310 C   0  0  0  0  0  0  0  0  0  0  0  0
   43.8740   33.8320   39.5380 C   0  0  0  0  0  0  0  0  0  0  0  0
   43.8790   34.3080   38.2690 N   0  0  0  0  0  0  0  0  0  0  0  0
   42.8350   34.0910   37.4900 C   0  0  0  0  0  0  0  0  0  0  0  0
   41.7190   33.4190   37.8360 N   0  0  0  0  0  0  0  0  0  0  0  0
   42.7240   32.7490   40.9430 H   0  0  0  0  0  0  0  0  0  0  0  0
   44.6840   33.9570   40.2620 H   0  0  0  0  0  0  0  0  0  0  0  0
   42.8570   34.4860   36.4590 H   0  0  0  0  0  0  0  0  0  0  0  0
   36.8320   28.7230   40.7310 O   0  0  0  0  0  0  0  0  0  0  0  0
   36.0950   28.1100   41.7330 C   0  0  0  0  0  0  0  0  0  0  0  0
   35.3740   27.3460   41.4630 H   0  0  0  0  0  0  0  0  0  0  0  0
   35.4330   28.9510   42.1390 H   0  0  0  0  0  0  0  0  0  0  0  0
   36.9250   27.7330   42.9300 C   0  0  0  0  0  0  0  0  0  0  0  0
   36.2930   27.5780   43.8370 H   0  0  0  0  0  0  0  0  0  0  0  0
   37.6860   28.4870   43.2050 H   0  0  0  0  0  0  0  0  0  0  0  0
   38.9930   26.5370   42.6410 C   0  0  0  0  0  0  0  0  0  0  0  0
   37.6220   26.4600   42.6100 C   0  0  0  0  0  0  0  0  0  0  0  0
   36.9970   25.2770   42.2870 C   0  0  0  0  0  0  0  0  0  0  0  0
   35.9150   25.3880   42.3100 H   0  0  0  0  0  0  0  0  0  0  0  0
   37.6900   24.1270   41.9800 C   0  0  0  0  0  0  0  0  0  0  0  0
   37.0690   23.2780   41.7460 H   0  0  0  0  0  0  0  0  0  0  0  0
   39.0900   24.1820   42.0040 C   0  0  0  0  0  3  0  0  0  0  0  0
   39.7090   25.3900   42.3350 C   0  0  0  0  0  3  0  0  0  0  0  0
   39.4250   28.8600   43.6520 H   0  0  0  0  0  0  0  0  0  0  0  0
   40.0880   27.8340   43.0220 S   0  0  0  0  0  0  0  0  0  0  0  0
   40.5750   28.4180   41.7110 O   0  0  0  0  0  0  0  0  0  0  0  0
   41.2610   27.4430   43.8390 O   0  0  0  0  0  0  0  0  0  0  0  0
  1  2  2  0  0  0  0
  3  4  1  0  0  0  0
  4  1  1  0  0  0  0
  4  5  2  0  0  0  0
  5 10  1  0  0  0  0
  6  5  1  0  0  0  0
  7  6  2  0  0  0  0
  8  3  2  0  0  0  0
  8  7  1  0  0  0  0
  9  3  1  0  0  0  0
 11  7  1  0  0  0  0
 11 12  1  0  0  0  0
 12 17  1  0  0  0  0
 13 12  2  0  0  0  0
 13 18  1  0  0  0  0
 14 13  1  0  0  0  0
 15 16  1  0  0  0  0
 15 14  2  0  0  0  0
 16 11  2  0  0  0  0
 19 15  1  0  0  0  0
 20  1  1  0  0  0  0
 20 21  1  0  0  0  0
 21 23  1  0  0  0  0
 21 24  1  0  0  0  0
 22 21  1  0  0  0  0
 24 26  1  0  0  0  0
 24 25  1  0  0  0  0
 27 36  1  0  0  0  0
 28 27  1  0  0  0  0
 28 24  1  0  0  0  0
 29 30  1  0  0  0  0
 29 28  2  0  0  0  0
 31 33  2  0  0  0  0
 31 29  1  0  0  0  0
 32 31  1  0  0  0  0
 33 34  1  0  0  0  0
 34 27  2  0  0  0  0
 36 35  1  0  0  0  0
 36 38  2  0  0  0  0
 37 36  2  0  0  0  0
M  END
>  <minimizedAffinity>
-5.20541239

$$$$

 OpenBabel03252500523D

 38 40  0  0  0  0  0  0  0  0999 V2000
   34.3160   28.0980   36.7940 C   0  0  0  0  0  0  0  0  0  0  0  0
   33.9660   27.0270   37.3320 O   0  0  0  0  0  0  0  0  0  0  0  0
   36.2020   29.6580   36.9260 C   0  0  0  0  0  0  0  0  0  0  0  0
   35.1530   29.0120   37.5650 C   0  0  0  0  0  0  0  0  0  0  0  0
   34.8920   29.2210   38.9270 C   0  0  0  0  0  0  0  0  0  0  0  0
   35.7220   30.0930   39.5860 N   0  0  0  0  0  0  0  0  0  0  0  0
   36.7330   30.7110   38.9580 C   0  0  0  0  0  0  0  0  0  0  0  0
   36.9630   30.4950   37.6540 N   0  0  0  0  0  0  0  0  0  0  0  0
   36.4440   29.5300   35.8810 H   0  0  0  0  0  0  0  0  0  0  0  0
   34.0820   28.7100   39.3870 H   0  0  0  0  0  0  0  0  0  0  0  0
   37.5950   31.6260   39.6930 C   0  0  0  0  0  0  0  0  0  0  0  0
   37.5230   32.9750   39.5510 C   0  0  0  0  0  0  0  0  0  0  0  0
   38.3230   33.8470   40.2300 C   0  0  0  0  0  0  0  0  0  0  0  0
   39.2260   33.3070   41.0840 N   0  0  0  0  0  0  0  0  0  0  0  0
   39.2900   31.9950   41.2160 C   0  0  0  0  0  0  0  0  0  0  0  0
   38.5220   31.0980   40.5670 N   0  0  0  0  0  0  0  0  0  0  0  0
   36.7870   33.3740   38.8570 H   0  0  0  0  0  0  0  0  0  0  0  0
   38.1890   34.9170   40.0480 H   0  0  0  0  0  0  0  0  0  0  0  0
   40.0330   31.5720   41.9170 H   0  0  0  0  0  0  0  0  0  0  0  0
   33.7920   28.1440   35.5380 O   0  0  0  0  0  0  0  0  0  0  0  0
   33.1980   29.2800   35.0070 C   0  0  0  0  0  0  0  0  0  0  0  0
   33.6530   29.7560   34.1450 H   0  0  0  0  0  0  0  0  0  0  0  0
   33.3270   30.0650   35.8290 H   0  0  0  0  0  0  0  0  0  0  0  0
   31.7030   29.1640   34.8900 C   0  0  0  0  0  0  0  0  0  0  0  0
   31.3590   28.1110   35.0200 H   0  0  0  0  0  0  0  0  0  0  0  0
   31.3000   29.5060   33.9180 H   0  0  0  0  0  0  0  0  0  0  0  0
   30.6930   31.2450   35.5570 C   0  0  0  0  0  0  0  0  0  0  0  0
   31.1020   29.9980   35.9630 C   0  0  0  0  0  0  0  0  0  0  0  0
   30.9580   29.6100   37.2770 C   0  0  0  0  0  0  0  0  0  0  0  0
   31.3290   28.5990   37.4280 H   0  0  0  0  0  0  0  0  0  0  0  0
   30.4100   30.4280   38.2400 C   0  0  0  0  0  0  0  0  0  0  0  0
   30.3610   29.9920   39.2240 H   0  0  0  0  0  0  0  0  0  0  0  0
   29.9860   31.7050   37.8490 C   0  0  0  0  0  3  0  0  0  0  0  0
   30.1390   32.0830   36.5120 C   0  0  0  0  0  3  0  0  0  0  0  0
   30.9730   31.1370   33.0050 H   0  0  0  0  0  0  0  0  0  0  0  0
   30.7030   32.0360   34.0090 S   0  0  0  0  0  0  0  0  0  0  0  0
   31.8690   33.0050   34.0010 O   0  0  0  0  0  0  0  0  0  0  0  0
   29.4620   32.7740   33.6740 O   0  0  0  0  0  0  0  0  0  0  0  0
  1  2  2  0  0  0  0
  1  4  1  0  0  0  0
  3  4  2  0  0  0  0
  3  8  1  0  0  0  0
  4  5  1  0  0  0  0
  5 10  1  0  0  0  0
  5  6  2  0  0  0  0
  7  6  1  0  0  0  0
  7 11  1  0  0  0  0
  8  7  2  0  0  0  0
  9  3  1  0  0  0  0
 11 16  1  0  0  0  0
 12 11  2  0  0  0  0
 12 13  1  0  0  0  0
 13 14  2  0  0  0  0
 14 15  1  0  0  0  0
 15 19  1  0  0  0  0
 16 15  2  0  0  0  0
 17 12  1  0  0  0  0
 18 13  1  0  0  0  0
 20  1  1  0  0  0  0
 21 20  1  0  0  0  0
 21 23  1  0  0  0  0
 22 21  1  0  0  0  0
 24 21  1  0  0  0  0
 24 25  1  0  0  0  0
 24 28  1  0  0  0  0
 26 24  1  0  0  0  0
 27 28  2  0  0  0  0
 27 34  1  0  0  0  0
 28 29  1  0  0  0  0
 29 30  1  0  0  0  0
 29 31  2  0  0  0  0
 31 32  1  0  0  0  0
 33 31  1  0  0  0  0
 34 33  2  0  0  0  0
 35 36  1  0  0  0  0
 36 27  1  0  0  0  0
 37 36  2  0  0  0  0
 38 36  2  0  0  0  0
M  END
>  <minimizedAffinity>
-5.20248365

$$$$

 OpenBabel03252500523D

 38 40  0  0  0  0  0  0  0  0999 V2000
   37.3620   28.0310   43.1980 C   0  0  0  0  0  0  0  0  0  0  0  0
   36.9420   28.1060   44.3710 O   0  0  0  0  0  0  0  0  0  0  0  0
   37.1440   29.9660   41.7090 C   0  0  0  0  0  0  0  0  0  0  0  0
   37.9250   29.2340   42.5930 C   0  0  0  0  0  0  0  0  0  0  0  0
   39.2330   29.6300   42.9070 C   0  0  0  0  0  0  0  0  0  0  0  0
   39.6940   30.7710   42.2980 N   0  0  0  0  0  0  0  0  0  0  0  0
   38.9300   31.4690   41.4440 C   0  0  0  0  0  0  0  0  0  0  0  0
   37.6810   31.0700   41.1600 N   0  0  0  0  0  0  0  0  0  0  0  0
   36.1320   29.7020   41.4350 H   0  0  0  0  0  0  0  0  0  0  0  0
   39.8050   29.0480   43.5860 H   0  0  0  0  0  0  0  0  0  0  0  0
   39.4560   32.6720   40.8150 C   0  0  0  0  0  0  0  0  0  0  0  0
   38.7540   33.8330   40.7510 C   0  0  0  0  0  0  0  0  0  0  0  0
   39.2300   34.9700   40.1650 C   0  0  0  0  0  0  0  0  0  0  0  0
   40.4730   34.9030   39.6270 N   0  0  0  0  0  0  0  0  0  0  0  0
   41.1490   33.7710   39.6930 C   0  0  0  0  0  0  0  0  0  0  0  0
   40.7180   32.6270   40.2610 N   0  0  0  0  0  0  0  0  0  0  0  0
   37.7600   33.8510   41.1920 H   0  0  0  0  0  0  0  0  0  0  0  0
   38.5890   35.8550   40.1640 H   0  0  0  0  0  0  0  0  0  0  0  0
   42.1600   33.7350   39.2500 H   0  0  0  0  0  0  0  0  0  0  0  0
   37.1750   26.7580   42.7500 O   0  0  0  0  0  0  0  0  0  0  0  0
   37.8610   26.2290   41.6680 C   0  0  0  0  0  0  0  0  0  0  0  0
   38.9040   25.9570   41.7880 H   0  0  0  0  0  0  0  0  0  0  0  0
   37.9090   27.0960   40.9230 H   0  0  0  0  0  0  0  0  0  0  0  0
   37.0700   25.1910   40.9180 C   0  0  0  0  0  0  0  0  0  0  0  0
   36.2150   24.8070   41.5240 H   0  0  0  0  0  0  0  0  0  0  0  0
   37.6610   24.3060   40.6160 H   0  0  0  0  0  0  0  0  0  0  0  0
   35.9230   24.9730   38.8130 C   0  0  0  0  0  0  0  0  0  0  0  0
   36.5330   25.8360   39.6910 C   0  0  0  0  0  0  0  0  0  0  0  0
   36.6260   27.1780   39.3990 C   0  0  0  0  0  0  0  0  0  0  0  0
   37.1340   27.7160   40.1960 H   0  0  0  0  0  0  0  0  0  0  0  0
   36.1270   27.7250   38.2380 C   0  0  0  0  0  0  0  0  0  0  0  0
   36.2720   28.7880   38.1440 H   0  0  0  0  0  0  0  0  0  0  0  0
   35.5010   26.8630   37.3260 C   0  0  0  0  0  3  0  0  0  0  0  0
   35.4150   25.5040   37.6370 C   0  0  0  0  0  3  0  0  0  0  0  0
   35.0580   22.8280   37.6920 H   0  0  0  0  0  0  0  0  0  0  0  0
   35.6170   23.2620   38.8710 S   0  0  0  0  0  0  0  0  0  0  0  0
   34.5560   23.0250   39.9270 O   0  0  0  0  0  0  0  0  0  0  0  0
   36.7990   22.4240   39.1800 O   0  0  0  0  0  0  0  0  0  0  0  0
  1  2  2  0  0  0  0
  3  4  1  0  0  0  0
  4  5  2  0  0  0  0
  4  1  1  0  0  0  0
  5 10  1  0  0  0  0
  6  5  1  0  0  0  0
  7  6  2  0  0  0  0
  8  7  1  0  0  0  0
  8  3  2  0  0  0  0
  9  3  1  0  0  0  0
 11  7  1  0  0  0  0
 12 11  1  0  0  0  0
 12 17  1  0  0  0  0
 13 12  2  0  0  0  0
 14 15  2  0  0  0  0
 14 13  1  0  0  0  0
 15 16  1  0  0  0  0
 16 11  2  0  0  0  0
 18 13  1  0  0  0  0
 19 15  1  0  0  0  0
 20  1  1  0  0  0  0
 21 22  1  0  0  0  0
 21 20  1  0  0  0  0
 23 21  1  0  0  0  0
 24 25  1  0  0  0  0
 24 21  1  0  0  0  0
 26 24  1  0  0  0  0
 27 36  1  0  0  0  0
 27 28  1  0  0  0  0
 28 24  1  0  0  0  0
 29 28  2  0  0  0  0
 29 30  1  0  0  0  0
 31 29  1  0  0  0  0
 32 31  1  0  0  0  0
 33 34  1  0  0  0  0
 33 31  2  0  0  0  0
 34 27  2  0  0  0  0
 35 36  1  0  0  0  0
 36 38  2  0  0  0  0
 36 37  2  0  0  0  0
M  END
>  <minimizedAffinity>
-5.18833876

$$$$

 OpenBabel03252500523D

 38 40  0  0  0  0  0  0  0  0999 V2000
   34.9770   28.0510   35.7900 C   0  0  0  0  0  0  0  0  0  0  0  0
   35.7250   28.4630   34.8790 O   0  0  0  0  0  0  0  0  0  0  0  0
   35.6520   26.8940   37.8440 C   0  0  0  0  0  0  0  0  0  0  0  0
   35.4800   28.0900   37.1600 C   0  0  0  0  0  0  0  0  0  0  0  0
   35.7770   29.3210   37.7630 C   0  0  0  0  0  0  0  0  0  0  0  0
   36.2430   29.2780   39.0530 N   0  0  0  0  0  0  0  0  0  0  0  0
   36.4040   28.1160   39.7040 C   0  0  0  0  0  0  0  0  0  0  0  0
   36.1130   26.9510   39.1060 N   0  0  0  0  0  0  0  0  0  0  0  0
   35.4370   25.9220   37.4240 H   0  0  0  0  0  0  0  0  0  0  0  0
   35.6330   30.2180   37.2140 H   0  0  0  0  0  0  0  0  0  0  0  0
   36.8970   28.1120   41.0740 C   0  0  0  0  0  0  0  0  0  0  0  0
   37.0910   26.9680   41.7800 C   0  0  0  0  0  0  0  0  0  0  0  0
   37.5520   26.9440   43.0640 C   0  0  0  0  0  0  0  0  0  0  0  0
   37.8220   28.1430   43.6360 N   0  0  0  0  0  0  0  0  0  0  0  0
   37.6310   29.2510   42.9430 C   0  0  0  0  0  0  0  0  0  0  0  0
   37.1780   29.3200   41.6760 N   0  0  0  0  0  0  0  0  0  0  0  0
   36.8640   26.0240   41.2900 H   0  0  0  0  0  0  0  0  0  0  0  0
   37.6740   25.9720   43.5490 H   0  0  0  0  0  0  0  0  0  0  0  0
   37.8560   30.2190   43.4260 H   0  0  0  0  0  0  0  0  0  0  0  0
   33.8030   27.6410   35.2360 O   0  0  0  0  0  0  0  0  0  0  0  0
   32.5680   28.1290   35.6350 C   0  0  0  0  0  0  0  0  0  0  0  0
   32.2690   28.0180   36.6710 H   0  0  0  0  0  0  0  0  0  0  0  0
   31.8190   27.4620   35.0820 H   0  0  0  0  0  0  0  0  0  0  0  0
   32.2650   29.4950   35.0820 C   0  0  0  0  0  0  0  0  0  0  0  0
   31.7120   29.4360   34.1160 H   0  0  0  0  0  0  0  0  0  0  0  0
   33.1640   30.1110   34.8900 H   0  0  0  0  0  0  0  0  0  0  0  0
   30.8220   31.3490   35.6040 C   0  0  0  0  0  0  0  0  0  0  0  0
   31.4170   30.2040   36.0750 C   0  0  0  0  0  0  0  0  0  0  0  0
   31.2220   29.8020   37.3780 C   0  0  0  0  0  0  0  0  0  0  0  0
   31.7620   28.8800   37.5860 H   0  0  0  0  0  0  0  0  0  0  0  0
   30.4400   30.5050   38.2670 C   0  0  0  0  0  0  0  0  0  0  0  0
   30.3790   30.0710   39.2510 H   0  0  0  0  0  0  0  0  0  0  0  0
   29.8220   31.6760   37.8080 C   0  0  0  0  0  3  0  0  0  0  0  0
   30.0300   32.0710   36.4840 C   0  0  0  0  0  3  0  0  0  0  0  0
   31.1830   31.2280   33.0630 H   0  0  0  0  0  0  0  0  0  0  0  0
   30.8320   32.1220   34.0460 S   0  0  0  0  0  0  0  0  0  0  0  0
   31.9400   33.1560   34.0590 O   0  0  0  0  0  0  0  0  0  0  0  0
   29.5610   32.7820   33.6670 O   0  0  0  0  0  0  0  0  0  0  0  0
  1  4  1  0  0  0  0
  2  1  2  0  0  0  0
  3  8  1  0  0  0  0
  4  5  1  0  0  0  0
  4  3  2  0  0  0  0
  5  6  2  0  0  0  0
  6  7  1  0  0  0  0
  7 11  1  0  0  0  0
  8  7  2  0  0  0  0
  9  3  1  0  0  0  0
 10  5  1  0  0  0  0
 11 16  2  0  0  0  0
 11 12  1  0  0  0  0
 12 13  2  0  0  0  0
 13 18  1  0  0  0  0
 13 14  1  0  0  0  0
 15 19  1  0  0  0  0
 15 14  2  0  0  0  0
 16 15  1  0  0  0  0
 17 12  1  0  0  0  0
 20 21  1  0  0  0  0
 20  1  1  0  0  0  0
 21 22  1  0  0  0  0
 23 21  1  0  0  0  0
 24 21  1  0  0  0  0
 24 28  1  0  0  0  0
 25 24  1  0  0  0  0
 26 24  1  0  0  0  0
 27 28  2  0  0  0  0
 27 34  1  0  0  0  0
 28 29  1  0  0  0  0
 29 30  1  0  0  0  0
 29 31  2  0  0  0  0
 31 32  1  0  0  0  0
 33 31  1  0  0  0  0
 34 33  2  0  0  0  0
 35 36  1  0  0  0  0
 36 37  2  0  0  0  0
 36 27  1  0  0  0  0
 38 36  2  0  0  0  0
M  END
>  <minimizedAffinity>
-5.14683008

$$$$

 OpenBabel03252500523D

 38 40  0  0  0  0  0  0  0  0999 V2000
   37.4670   30.7670   40.9140 C   0  0  0  0  0  0  0  0  0  0  0  0
   37.7490   31.9710   40.7440 O   0  0  0  0  0  0  0  0  0  0  0  0
   36.6680   30.2510   38.6550 C   0  0  0  0  0  0  0  0  0  0  0  0
   36.4780   30.1630   40.0270 C   0  0  0  0  0  0  0  0  0  0  0  0
   35.3600   29.5090   40.5660 C   0  0  0  0  0  0  0  0  0  0  0  0
   34.4720   28.9670   39.6700 N   0  0  0  0  0  0  0  0  0  0  0  0
   34.6660   29.0600   38.3460 C   0  0  0  0  0  0  0  0  0  0  0  0
   35.7440   29.6900   37.8540 N   0  0  0  0  0  0  0  0  0  0  0  0
   37.5110   30.7430   38.1920 H   0  0  0  0  0  0  0  0  0  0  0  0
   35.2430   29.4600   41.6200 H   0  0  0  0  0  0  0  0  0  0  0  0
   33.7000   28.4750   37.4260 C   0  0  0  0  0  0  0  0  0  0  0  0
   32.6480   29.1740   36.9260 C   0  0  0  0  0  0  0  0  0  0  0  0
   31.7330   28.6420   36.0640 C   0  0  0  0  0  0  0  0  0  0  0  0
   31.9130   27.3470   35.7080 N   0  0  0  0  0  0  0  0  0  0  0  0
   32.9380   26.6750   36.1990 C   0  0  0  0  0  0  0  0  0  0  0  0
   33.8630   27.1590   37.0510 N   0  0  0  0  0  0  0  0  0  0  0  0
   32.5350   30.2110   37.2330 H   0  0  0  0  0  0  0  0  0  0  0  0
   30.9200   29.2850   35.7170 H   0  0  0  0  0  0  0  0  0  0  0  0
   33.0680   25.6200   35.8970 H   0  0  0  0  0  0  0  0  0  0  0  0
   38.2040   30.2910   41.9560 O   0  0  0  0  0  0  0  0  0  0  0  0
   38.8810   29.0820   41.9130 C   0  0  0  0  0  0  0  0  0  0  0  0
   39.8860   29.0560   41.5050 H   0  0  0  0  0  0  0  0  0  0  0  0
   38.2850   28.4600   41.1600 H   0  0  0  0  0  0  0  0  0  0  0  0
   38.7460   28.2850   43.1820 C   0  0  0  0  0  0  0  0  0  0  0  0
   37.9240   28.6740   43.8280 H   0  0  0  0  0  0  0  0  0  0  0  0
   39.6580   28.2780   43.8090 H   0  0  0  0  0  0  0  0  0  0  0  0
   39.5240   26.0550   42.7170 C   0  0  0  0  0  0  0  0  0  0  0  0
   38.4310   26.8830   42.8010 C   0  0  0  0  0  0  0  0  0  0  0  0
   37.1700   26.4040   42.5270 C   0  0  0  0  0  0  0  0  0  0  0  0
   36.4220   27.1860   42.6400 H   0  0  0  0  0  0  0  0  0  0  0  0
   36.9320   25.0980   42.1590 C   0  0  0  0  0  0  0  0  0  0  0  0
   35.8960   24.8660   41.9750 H   0  0  0  0  0  0  0  0  0  0  0  0
   38.0320   24.2350   42.0660 C   0  0  0  0  0  3  0  0  0  0  0  0
   39.3050   24.7360   42.3480 C   0  0  0  0  0  3  0  0  0  0  0  0
   41.4030   27.1660   44.0720 H   0  0  0  0  0  0  0  0  0  0  0  0
   41.2180   26.3140   43.0100 S   0  0  0  0  0  0  0  0  0  0  0  0
   41.7810   27.0460   41.8080 O   0  0  0  0  0  0  0  0  0  0  0  0
   42.0100   25.0820   43.2360 O   0  0  0  0  0  0  0  0  0  0  0  0
  1 20  1  0  0  0  0
  2  1  2  0  0  0  0
  3  4  1  0  0  0  0
  4  5  2  0  0  0  0
  4  1  1  0  0  0  0
  5 10  1  0  0  0  0
  6  5  1  0  0  0  0
  7  6  2  0  0  0  0
  8  7  1  0  0  0  0
  8  3  2  0  0  0  0
  9  3  1  0  0  0  0
 11  7  1  0  0  0  0
 12 17  1  0  0  0  0
 12 11  2  0  0  0  0
 13 12  1  0  0  0  0
 14 13  2  0  0  0  0
 14 15  1  0  0  0  0
 15 16  2  0  0  0  0
 16 11  1  0  0  0  0
 18 13  1  0  0  0  0
 19 15  1  0  0  0  0
 21 20  1  0  0  0  0
 21 24  1  0  0  0  0
 22 21  1  0  0  0  0
 23 21  1  0  0  0  0
 24 26  1  0  0  0  0
 24 25  1  0  0  0  0
 27 28  1  0  0  0  0
 27 36  1  0  0  0  0
 28 24  1  0  0  0  0
 29 30  1  0  0  0  0
 29 28  2  0  0  0  0
 31 29  1  0  0  0  0
 32 31  1  0  0  0  0
 33 31  2  0  0  0  0
 33 34  1  0  0  0  0
 34 27  2  0  0  0  0
 36 38  2  0  0  0  0
 36 35  1  0  0  0  0
 37 36  2  0  0  0  0
M  END
>  <minimizedAffinity>
-5.13798475

$$$$

 OpenBabel03252500523D

 38 40  0  0  0  0  0  0  0  0999 V2000
   37.2760   28.2170   43.0790 C   0  0  0  0  0  0  0  0  0  0  0  0
   37.0300   28.2590   44.3030 O   0  0  0  0  0  0  0  0  0  0  0  0
   39.1590   29.7270   42.6480 C   0  0  0  0  0  0  0  0  0  0  0  0
   37.8210   29.4150   42.4480 C   0  0  0  0  0  0  0  0  0  0  0  0
   36.9960   30.2290   41.6580 C   0  0  0  0  0  0  0  0  0  0  0  0
   37.5780   31.3390   41.0990 N   0  0  0  0  0  0  0  0  0  0  0  0
   38.8720   31.6300   41.3000 C   0  0  0  0  0  0  0  0  0  0  0  0
   39.6420   30.8350   42.0600 N   0  0  0  0  0  0  0  0  0  0  0  0
   39.8350   29.1330   43.2460 H   0  0  0  0  0  0  0  0  0  0  0  0
   35.9760   29.9640   41.5260 H   0  0  0  0  0  0  0  0  0  0  0  0
   39.4530   32.8190   40.6930 C   0  0  0  0  0  0  0  0  0  0  0  0
   40.5660   32.7760   39.9160 C   0  0  0  0  0  0  0  0  0  0  0  0
   41.1250   33.8790   39.3390 C   0  0  0  0  0  0  0  0  0  0  0  0
   40.5120   35.0650   39.5740 N   0  0  0  0  0  0  0  0  0  0  0  0
   39.4310   35.0990   40.3310 C   0  0  0  0  0  0  0  0  0  0  0  0
   38.8460   34.0360   40.9190 N   0  0  0  0  0  0  0  0  0  0  0  0
   41.0310   31.8070   39.7480 H   0  0  0  0  0  0  0  0  0  0  0  0
   42.0220   33.7420   38.7300 H   0  0  0  0  0  0  0  0  0  0  0  0
   38.9450   36.0740   40.5120 H   0  0  0  0  0  0  0  0  0  0  0  0
   36.9510   26.9800   42.6130 O   0  0  0  0  0  0  0  0  0  0  0  0
   37.6120   26.3720   41.5560 C   0  0  0  0  0  0  0  0  0  0  0  0
   38.0210   25.3770   41.6950 H   0  0  0  0  0  0  0  0  0  0  0  0
   38.5480   27.0140   41.4130 H   0  0  0  0  0  0  0  0  0  0  0  0
   36.8960   26.5320   40.2420 C   0  0  0  0  0  0  0  0  0  0  0  0
   35.8370   26.8530   40.3860 H   0  0  0  0  0  0  0  0  0  0  0  0
   36.8630   25.6090   39.6330 H   0  0  0  0  0  0  0  0  0  0  0  0
   36.7950   28.3840   38.7080 C   0  0  0  0  0  0  0  0  0  0  0  0
   37.6110   27.5780   39.4660 C   0  0  0  0  0  0  0  0  0  0  0  0
   38.9760   27.7600   39.4550 C   0  0  0  0  0  0  0  0  0  0  0  0
   39.4700   27.0420   40.1060 H   0  0  0  0  0  0  0  0  0  0  0  0
   39.5930   28.7340   38.7020 C   0  0  0  0  0  0  0  0  0  0  0  0
   40.6660   28.7590   38.7920 H   0  0  0  0  0  0  0  0  0  0  0  0
   38.7810   29.5680   37.9210 C   0  0  0  0  0  3  0  0  0  0  0  0
   37.3970   29.3710   37.9430 C   0  0  0  0  0  3  0  0  0  0  0  0
   34.5520   27.1850   38.3430 H   0  0  0  0  0  0  0  0  0  0  0  0
   35.0700   28.4480   38.5060 S   0  0  0  0  0  0  0  0  0  0  0  0
   34.7910   29.1650   37.1990 O   0  0  0  0  0  0  0  0  0  0  0  0
   34.3360   29.1330   39.5960 O   0  0  0  0  0  0  0  0  0  0  0  0
  1  2  2  0  0  0  0
  3  9  1  0  0  0  0
  4  3  1  0  0  0  0
  4  1  1  0  0  0  0
  5  4  2  0  0  0  0
  6  7  2  0  0  0  0
  6  5  1  0  0  0  0
  7  8  1  0  0  0  0
  8  3  2  0  0  0  0
 10  5  1  0  0  0  0
 11 16  1  0  0  0  0
 11  7  1  0  0  0  0
 12 11  2  0  0  0  0
 13 14  2  0  0  0  0
 13 12  1  0  0  0  0
 14 15  1  0  0  0  0
 15 19  1  0  0  0  0
 15 16  2  0  0  0  0
 17 12  1  0  0  0  0
 18 13  1  0  0  0  0
 20  1  1  0  0  0  0
 21 22  1  0  0  0  0
 21 20  1  0  0  0  0
 23 21  1  0  0  0  0
 24 25  1  0  0  0  0
 24 21  1  0  0  0  0
 26 24  1  0  0  0  0
 27 28  1  0  0  0  0
 28 24  1  0  0  0  0
 29 28  2  0  0  0  0
 29 30  1  0  0  0  0
 31 32  1  0  0  0  0
 31 29  1  0  0  0  0
 33 34  1  0  0  0  0
 33 31  2  0  0  0  0
 34 27  2  0  0  0  0
 35 36  1  0  0  0  0
 36 27  1  0  0  0  0
 36 38  2  0  0  0  0
 37 36  2  0  0  0  0
M  END
>  <minimizedAffinity>
-5.12217808

$$$$
