
 OpenBabel03252505103D

 47 50  0  0  1  0  0  0  0  0999 V2000
   44.5610   35.5550   44.6050 C   0  0  0  0  0  0  0  0  0  0  0  0
   45.2540   35.5980   43.3760 C   0  0  0  0  0  0  0  0  0  0  0  0
   46.3700   34.7140   43.2110 C   0  0  0  0  0  0  0  0  0  0  0  0
   46.7020   33.8940   44.2260 N   0  0  0  0  0  0  0  0  0  0  0  0
   46.0160   33.8830   45.3830 C   0  0  0  0  0  0  0  0  0  0  0  0
   44.9420   34.7140   45.5810 N   0  0  0  0  0  0  0  0  0  0  0  0
   43.7120   36.2210   44.7450 H   0  0  0  0  0  0  0  0  0  0  0  0
   44.9860   36.2520   42.5740 H   0  0  0  0  0  0  0  0  0  0  0  0
   46.4230   32.9640   46.4690 C   0  0  2  0  0  0  0  0  0  0  0  0
   46.9400   31.7280   45.7660 C   0  0  0  0  0  0  0  0  0  0  0  0
   46.0430   30.5510   45.7860 C   0  0  0  0  0  0  0  0  0  0  0  0
   45.7820   30.2870   47.2640 C   0  0  0  0  0  0  0  0  0  0  0  0
   44.9940   31.3650   47.8830 C   0  0  0  0  0  0  0  0  0  0  0  0
   45.3770   32.7280   47.4260 C   0  0  0  0  0  0  0  0  0  0  0  0
   47.2930   33.4650   46.9660 H   0  0  0  0  0  0  0  0  0  0  0  0
   47.2260   31.9160   44.7090 H   0  0  0  0  0  0  0  0  0  0  0  0
   47.8880   31.4190   46.2560 H   0  0  0  0  0  0  0  0  0  0  0  0
   45.1140   30.6180   45.2230 H   0  0  0  0  0  0  0  0  0  0  0  0
   46.6320   29.6850   45.4370 H   0  0  0  0  0  0  0  0  0  0  0  0
   46.7010   30.0170   47.7840 H   0  0  0  0  0  0  0  0  0  0  0  0
   45.1100   29.4040   47.2700 H   0  0  0  0  0  0  0  0  0  0  0  0
   44.2020   31.3680   48.5940 H   0  0  0  0  0  0  0  0  0  0  0  0
   44.6920   33.8620   47.9380 N   0  0  0  0  0  0  0  0  0  0  0  0
   43.6910   34.0670   47.6930 H   0  0  0  0  0  0  0  0  0  0  0  0
   45.1640   34.5330   48.5770 H   0  0  0  0  0  0  0  0  0  0  0  0
   47.0950   34.7370   41.9510 C   0  0  0  0  0  0  0  0  0  0  0  0
   48.2190   35.5010   41.8810 C   0  0  0  0  0  0  0  0  0  0  0  0
   48.8850   35.4930   40.6430 C   0  0  0  0  0  0  0  0  0  0  0  0
   48.3260   34.7120   39.6380 C   0  0  0  0  0  0  0  0  0  0  0  0
   47.1970   33.9430   39.7060 C   0  0  0  0  0  0  0  0  0  0  0  0
   46.5890   33.9900   40.9380 N   0  0  0  0  0  0  0  0  0  0  0  0
   48.5490   36.0660   42.7410 H   0  0  0  0  0  0  0  0  0  0  0  0
   49.7730   36.0980   40.5920 H   0  0  0  0  0  0  0  0  0  0  0  0
   48.9570   34.8210   38.7710 H   0  0  0  0  0  0  0  0  0  0  0  0
   46.7200   33.2140   38.6830 O   0  0  0  0  0  0  0  0  0  0  0  0
   45.7740   32.4420   36.9120 C   0  0  0  0  0  0  0  0  0  0  0  0
   47.0000   32.9040   37.4400 C   0  0  0  0  0  0  0  0  0  0  0  0
   48.0360   32.8860   36.5500 C   0  0  0  0  0  0  0  0  0  0  0  0
   48.9440   33.2370   36.9690 H   0  0  0  0  0  0  0  0  0  0  0  0
   48.0020   32.4780   35.2420 C   0  0  0  0  0  0  0  0  0  0  0  0
   48.9110   32.5290   34.6770 H   0  0  0  0  0  0  0  0  0  0  0  0
   46.7790   32.0410   34.7940 C   0  0  0  0  0  3  0  0  0  0  0  0
   45.6390   32.0070   35.5950 C   0  0  0  0  0  3  0  0  0  0  0  0
   43.2580   31.8710   36.7870 H   0  0  0  0  0  0  0  0  0  0  0  0
   44.1940   32.2930   37.6970 S   0  0  0  0  0  0  0  0  0  0  0  0
   44.3070   31.3650   38.8490 O   0  0  0  0  0  0  0  0  0  0  0  0
   43.7620   33.6360   38.1790 O   0  0  0  0  0  0  0  0  0  0  0  0
  1  7  1  0  0  0  0
  1  6  1  0  0  0  0
  2  1  2  0  0  0  0
  3  2  1  0  0  0  0
  3  4  2  0  0  0  0
  4  5  1  0  0  0  0
  5  6  2  0  0  0  0
  5  9  1  0  0  0  0
  8  2  1  0  0  0  0
  9 15  1  1  0  0  0
  9 14  1  0  0  0  0
 10 11  1  0  0  0  0
 10 17  1  0  0  0  0
 10  9  1  0  0  0  0
 11 12  1  0  0  0  0
 12 21  1  0  0  0  0
 12 20  1  0  0  0  0
 12 13  1  0  0  0  0
 13 22  1  0  0  0  0
 14 13  2  0  0  0  0
 14 23  1  0  0  0  0
 16 10  1  0  0  0  0
 18 11  1  0  0  0  0
 19 11  1  0  0  0  0
 23 25  1  0  0  0  0
 24 23  1  0  0  0  0
 26  3  1  0  0  0  0
 27 26  1  0  0  0  0
 27 32  1  0  0  0  0
 28 27  2  0  0  0  0
 29 30  2  0  0  0  0
 29 28  1  0  0  0  0
 30 31  1  0  0  0  0
 31 26  2  0  0  0  0
 33 28  1  0  0  0  0
 34 29  1  0  0  0  0
 35 30  1  0  0  0  0
 36 37  1  0  0  0  0
 36 45  1  0  0  0  0
 37 35  1  0  0  0  0
 38 39  1  0  0  0  0
 38 37  2  0  0  0  0
 40 38  1  0  0  0  0
 41 40  1  0  0  0  0
 42 40  2  0  0  0  0
 42 43  1  0  0  0  0
 43 36  2  0  0  0  0
 44 45  1  0  0  0  0
 45 47  2  0  0  0  0
 45 46  2  0  0  0  0
M  END
>  <minimizedAffinity>
-7.31793261

>  <minimizedRMSD>
2.04892755

$$$$
