
 OpenBabel03242521203D

 29 31  0  0  0  0  0  0  0  0999 V2000
   39.2600   31.7580   39.1590 C   0  0  0  0  0  0  0  0  0  0  0  0
   38.4020   32.7990   39.1660 C   0  0  0  0  0  0  0  0  0  0  0  0
   37.2670   32.8660   39.9250 C   0  0  0  0  0  0  0  0  0  0  0  0
   37.0290   31.7870   40.7050 N   0  0  0  0  0  0  0  0  0  0  0  0
   37.8700   30.7380   40.7130 C   0  0  0  0  0  0  0  0  0  0  0  0
   38.9890   30.6950   39.9530 N   0  0  0  0  0  0  0  0  0  0  0  0
   38.6190   33.6550   38.5280 H   0  0  0  0  0  0  0  0  0  0  0  0
   36.5900   33.6930   39.9280 H   0  0  0  0  0  0  0  0  0  0  0  0
   42.1630   32.8340   37.1850 C   0  0  0  0  0  0  0  0  0  0  0  0
   42.7150   31.6030   36.8010 C   0  0  0  0  0  0  0  0  0  0  0  0
   42.1000   30.4040   37.2130 C   0  0  0  0  0  0  0  0  0  0  0  0
   40.9770   30.5080   37.9800 N   0  0  0  0  0  0  0  0  0  0  0  0
   40.4750   31.7190   38.3290 C   0  0  0  0  0  0  0  0  0  0  0  0
   41.0530   32.8550   37.9430 N   0  0  0  0  0  0  0  0  0  0  0  0
   42.6510   33.7400   36.8580 H   0  0  0  0  0  0  0  0  0  0  0  0
   43.6070   31.5170   36.1920 H   0  0  0  0  0  0  0  0  0  0  0  0
   42.4970   29.4390   36.9360 H   0  0  0  0  0  0  0  0  0  0  0  0
   36.7630   28.5520   41.1790 C   0  0  0  0  0  0  0  0  0  0  0  0
   37.6010   29.5790   41.5610 C   0  0  0  0  0  0  0  0  0  0  0  0
   38.1720   29.4330   42.8120 C   0  0  0  0  0  0  0  0  0  0  0  0
   38.8420   30.2370   43.1390 H   0  0  0  0  0  0  0  0  0  0  0  0
   37.9750   28.3780   43.6780 C   0  0  0  0  0  0  0  0  0  0  0  0
   38.4930   28.3850   44.6480 H   0  0  0  0  0  0  0  0  0  0  0  0
   37.1340   27.3710   43.2660 C   0  0  0  0  0  3  0  0  0  0  0  0
   36.5420   27.4650   42.0330 C   0  0  0  0  0  3  0  0  0  0  0  0
   36.5960   29.4300   38.7280 H   0  0  0  0  0  0  0  0  0  0  0  0
   35.9700   28.6020   39.6210 S   0  0  0  0  0  0  0  0  0  0  0  0
   35.7440   27.2340   39.0410 O   0  0  0  0  0  0  0  0  0  0  0  0
   34.5790   29.1960   39.7940 O   0  0  0  0  0  0  0  0  0  0  0  0
  1  2  2  0  0  0  0
  1  6  1  0  0  0  0
  2  3  1  0  0  0  0
  3  8  1  0  0  0  0
  3  4  2  0  0  0  0
  4  5  1  0  0  0  0
  5 19  1  0  0  0  0
  6  5  2  0  0  0  0
  7  2  1  0  0  0  0
  9 14  1  0  0  0  0
 10  9  2  0  0  0  0
 10 11  1  0  0  0  0
 11 12  2  0  0  0  0
 12 13  1  0  0  0  0
 13  1  1  0  0  0  0
 14 13  2  0  0  0  0
 15  9  1  0  0  0  0
 16 10  1  0  0  0  0
 17 11  1  0  0  0  0
 18 19  2  0  0  0  0
 18 25  1  0  0  0  0
 19 20  1  0  0  0  0
 20 21  1  0  0  0  0
 20 22  2  0  0  0  0
 22 23  1  0  0  0  0
 24 22  1  0  0  0  0
 25 24  2  0  0  0  0
 26 27  1  0  0  0  0
 27 29  2  0  0  0  0
 27 18  1  0  0  0  0
 28 27  2  0  0  0  0
M  END
>  <minimizedAffinity>
-5.21089935

$$$$

 OpenBabel03242521203D

 29 31  0  0  0  0  0  0  0  0999 V2000
   37.5730   29.0920   41.4050 C   0  0  0  0  0  0  0  0  0  0  0  0
   37.6230   29.2860   42.7400 C   0  0  0  0  0  0  0  0  0  0  0  0
   37.7060   28.2860   43.6690 C   0  0  0  0  0  0  0  0  0  0  0  0
   37.7350   27.0300   43.1650 N   0  0  0  0  0  0  0  0  0  0  0  0
   37.6840   26.8140   41.8390 C   0  0  0  0  0  0  0  0  0  0  0  0
   37.6040   27.8200   40.9380 N   0  0  0  0  0  0  0  0  0  0  0  0
   37.5990   30.3070   43.1170 H   0  0  0  0  0  0  0  0  0  0  0  0
   37.7460   28.4450   44.7240 H   0  0  0  0  0  0  0  0  0  0  0  0
   37.3290   32.4660   39.9790 C   0  0  0  0  0  0  0  0  0  0  0  0
   37.3250   32.1920   38.6040 C   0  0  0  0  0  0  0  0  0  0  0  0
   37.4040   30.8570   38.1590 C   0  0  0  0  0  0  0  0  0  0  0  0
   37.4840   29.8830   39.1110 N   0  0  0  0  0  0  0  0  0  0  0  0
   37.4850   30.1920   40.4320 C   0  0  0  0  0  0  0  0  0  0  0  0
   37.4110   31.4520   40.8580 N   0  0  0  0  0  0  0  0  0  0  0  0
   37.2670   33.4960   40.2980 H   0  0  0  0  0  0  0  0  0  0  0  0
   37.2620   32.9630   37.8460 H   0  0  0  0  0  0  0  0  0  0  0  0
   37.4030   30.6090   37.1080 H   0  0  0  0  0  0  0  0  0  0  0  0
   38.8830   24.7250   41.1930 C   0  0  0  0  0  0  0  0  0  0  0  0
   37.7170   25.4530   41.3100 C   0  0  0  0  0  0  0  0  0  0  0  0
   36.5740   24.7980   40.8880 C   0  0  0  0  0  0  0  0  0  0  0  0
   35.6340   25.3570   40.9710 H   0  0  0  0  0  0  0  0  0  0  0  0
   36.5110   23.5190   40.3760 C   0  0  0  0  0  0  0  0  0  0  0  0
   35.5330   23.1160   40.0770 H   0  0  0  0  0  0  0  0  0  0  0  0
   37.6910   22.8210   40.2720 C   0  0  0  0  0  3  0  0  0  0  0  0
   38.8550   23.4230   40.6770 C   0  0  0  0  0  3  0  0  0  0  0  0
   40.3580   26.7880   41.8010 H   0  0  0  0  0  0  0  0  0  0  0  0
   40.4070   25.4250   41.6880 S   0  0  0  0  0  0  0  0  0  0  0  0
   40.9620   24.7870   42.9300 O   0  0  0  0  0  0  0  0  0  0  0  0
   41.4450   25.1610   40.6060 O   0  0  0  0  0  0  0  0  0  0  0  0
  1  2  1  0  0  0  0
  2  7  1  0  0  0  0
  2  3  2  0  0  0  0
  3  8  1  0  0  0  0
  4  3  1  0  0  0  0
  5  4  2  0  0  0  0
  6  1  2  0  0  0  0
  6  5  1  0  0  0  0
  9 15  1  0  0  0  0
  9 14  1  0  0  0  0
 10  9  2  0  0  0  0
 11 10  1  0  0  0  0
 11 12  2  0  0  0  0
 12 13  1  0  0  0  0
 13 14  2  0  0  0  0
 13  1  1  0  0  0  0
 16 10  1  0  0  0  0
 17 11  1  0  0  0  0
 18 19  1  0  0  0  0
 18 27  1  0  0  0  0
 19  5  1  0  0  0  0
 20 21  1  0  0  0  0
 20 19  2  0  0  0  0
 22 20  1  0  0  0  0
 23 22  1  0  0  0  0
 24 22  2  0  0  0  0
 24 25  1  0  0  0  0
 25 18  2  0  0  0  0
 27 26  1  0  0  0  0
 27 28  2  0  0  0  0
 29 27  2  0  0  0  0
M  END
>  <minimizedAffinity>
-5.10813475

$$$$

 OpenBabel03242521203D

 29 31  0  0  0  0  0  0  0  0999 V2000
   37.1080   29.5880   39.1340 C   0  0  0  0  0  0  0  0  0  0  0  0
   36.3700   30.5760   39.6810 C   0  0  0  0  0  0  0  0  0  0  0  0
   36.4260   30.9520   40.9950 C   0  0  0  0  0  0  0  0  0  0  0  0
   37.2960   30.2530   41.7600 N   0  0  0  0  0  0  0  0  0  0  0  0
   38.0400   29.2630   41.2350 C   0  0  0  0  0  0  0  0  0  0  0  0
   37.9680   28.9090   39.9310 N   0  0  0  0  0  0  0  0  0  0  0  0
   35.6780   31.1230   39.0420 H   0  0  0  0  0  0  0  0  0  0  0  0
   35.8410   31.7360   41.4240 H   0  0  0  0  0  0  0  0  0  0  0  0
   35.8790   29.2390   35.6920 C   0  0  0  0  0  0  0  0  0  0  0  0
   36.9060   28.4900   35.1000 C   0  0  0  0  0  0  0  0  0  0  0  0
   38.0190   28.1010   35.8720 C   0  0  0  0  0  0  0  0  0  0  0  0
   38.0380   28.4840   37.1810 N   0  0  0  0  0  0  0  0  0  0  0  0
   37.0230   29.2090   37.7150 C   0  0  0  0  0  0  0  0  0  0  0  0
   35.9690   29.5790   36.9890 N   0  0  0  0  0  0  0  0  0  0  0  0
   35.0350   29.5260   35.0820 H   0  0  0  0  0  0  0  0  0  0  0  0
   36.8940   28.1840   34.0610 H   0  0  0  0  0  0  0  0  0  0  0  0
   38.8280   27.5240   35.4500 H   0  0  0  0  0  0  0  0  0  0  0  0
   38.6380   27.3360   42.7000 C   0  0  0  0  0  0  0  0  0  0  0  0
   38.9760   28.5170   42.0730 C   0  0  0  0  0  0  0  0  0  0  0  0
   40.2720   28.9460   42.2940 C   0  0  0  0  0  0  0  0  0  0  0  0
   40.5640   29.8840   41.8060 H   0  0  0  0  0  0  0  0  0  0  0  0
   41.2200   28.3090   43.0670 C   0  0  0  0  0  0  0  0  0  0  0  0
   42.2170   28.7600   43.1600 H   0  0  0  0  0  0  0  0  0  0  0  0
   40.8500   27.1340   43.6780 C   0  0  0  0  0  3  0  0  0  0  0  0
   39.5760   26.6620   43.4920 C   0  0  0  0  0  3  0  0  0  0  0  0
   36.3890   27.1350   41.3940 H   0  0  0  0  0  0  0  0  0  0  0  0
   37.0310   26.6710   42.5100 S   0  0  0  0  0  0  0  0  0  0  0  0
   37.0140   25.1700   42.5740 O   0  0  0  0  0  0  0  0  0  0  0  0
   36.1670   27.1300   43.6770 O   0  0  0  0  0  0  0  0  0  0  0  0
  1  2  2  0  0  0  0
  1  6  1  0  0  0  0
  2  3  1  0  0  0  0
  3  8  1  0  0  0  0
  3  4  2  0  0  0  0
  5  4  1  0  0  0  0
  5 19  1  0  0  0  0
  6  5  2  0  0  0  0
  7  2  1  0  0  0  0
  9 14  1  0  0  0  0
 10  9  2  0  0  0  0
 10 11  1  0  0  0  0
 11 12  2  0  0  0  0
 12 13  1  0  0  0  0
 13  1  1  0  0  0  0
 14 13  2  0  0  0  0
 15  9  1  0  0  0  0
 16 10  1  0  0  0  0
 17 11  1  0  0  0  0
 18 25  1  0  0  0  0
 19 20  1  0  0  0  0
 19 18  2  0  0  0  0
 20 22  2  0  0  0  0
 21 20  1  0  0  0  0
 22 23  1  0  0  0  0
 22 24  1  0  0  0  0
 25 24  2  0  0  0  0
 26 27  1  0  0  0  0
 27 28  2  0  0  0  0
 27 18  1  0  0  0  0
 27 29  2  0  0  0  0
M  END
>  <minimizedAffinity>
-5.04247093

$$$$

 OpenBabel03242521203D

 29 31  0  0  0  0  0  0  0  0999 V2000
   39.6560   32.2830   40.2170 C   0  0  0  0  0  0  0  0  0  0  0  0
   38.6670   33.0790   39.7570 C   0  0  0  0  0  0  0  0  0  0  0  0
   37.3330   32.8000   39.8640 C   0  0  0  0  0  0  0  0  0  0  0  0
   37.0330   31.6330   40.4800 N   0  0  0  0  0  0  0  0  0  0  0  0
   38.0020   30.8260   40.9440 C   0  0  0  0  0  0  0  0  0  0  0  0
   39.3170   31.1230   40.8280 N   0  0  0  0  0  0  0  0  0  0  0  0
   38.9370   34.0120   39.2660 H   0  0  0  0  0  0  0  0  0  0  0  0
   36.5530   33.4320   39.4990 H   0  0  0  0  0  0  0  0  0  0  0  0
   43.1790   32.1530   39.1900 C   0  0  0  0  0  0  0  0  0  0  0  0
   43.7120   33.2570   39.8710 C   0  0  0  0  0  0  0  0  0  0  0  0
   42.8740   34.0480   40.6810 C   0  0  0  0  0  0  0  0  0  0  0  0
   41.5600   33.6900   40.7610 N   0  0  0  0  0  0  0  0  0  0  0  0
   41.0840   32.6140   40.0860 C   0  0  0  0  0  0  0  0  0  0  0  0
   41.8720   31.8630   39.3180 N   0  0  0  0  0  0  0  0  0  0  0  0
   43.8400   31.5600   38.5750 H   0  0  0  0  0  0  0  0  0  0  0  0
   44.7550   33.5440   39.8100 H   0  0  0  0  0  0  0  0  0  0  0  0
   43.2500   34.9050   41.2200 H   0  0  0  0  0  0  0  0  0  0  0  0
   37.1730   28.4740   40.9280 C   0  0  0  0  0  0  0  0  0  0  0  0
   37.6640   29.5690   41.6080 C   0  0  0  0  0  0  0  0  0  0  0  0
   37.8150   29.3910   42.9710 C   0  0  0  0  0  0  0  0  0  0  0  0
   38.2040   30.2480   43.5340 H   0  0  0  0  0  0  0  0  0  0  0  0
   37.5220   28.2440   43.6800 C   0  0  0  0  0  0  0  0  0  0  0  0
   37.6900   28.2360   44.7650 H   0  0  0  0  0  0  0  0  0  0  0  0
   37.0340   27.1710   42.9710 C   0  0  0  0  0  3  0  0  0  0  0  0
   36.8660   27.2940   41.6160 C   0  0  0  0  0  3  0  0  0  0  0  0
   36.3020   29.7020   38.7980 H   0  0  0  0  0  0  0  0  0  0  0  0
   36.9300   28.5530   39.1970 S   0  0  0  0  0  0  0  0  0  0  0  0
   38.1960   28.3170   38.4230 O   0  0  0  0  0  0  0  0  0  0  0  0
   35.9910   27.4290   38.7800 O   0  0  0  0  0  0  0  0  0  0  0  0
  1  6  1  0  0  0  0
  2  3  1  0  0  0  0
  2  1  2  0  0  0  0
  3  4  2  0  0  0  0
  4  5  1  0  0  0  0
  5 19  1  0  0  0  0
  6  5  2  0  0  0  0
  7  2  1  0  0  0  0
  8  3  1  0  0  0  0
  9 14  2  0  0  0  0
  9 10  1  0  0  0  0
 10 11  2  0  0  0  0
 11 12  1  0  0  0  0
 11 17  1  0  0  0  0
 13  1  1  0  0  0  0
 13 12  2  0  0  0  0
 14 13  1  0  0  0  0
 15  9  1  0  0  0  0
 16 10  1  0  0  0  0
 18 19  2  0  0  0  0
 18 25  1  0  0  0  0
 19 20  1  0  0  0  0
 20 21  1  0  0  0  0
 20 22  2  0  0  0  0
 22 23  1  0  0  0  0
 24 22  1  0  0  0  0
 25 24  2  0  0  0  0
 26 27  1  0  0  0  0
 27 18  1  0  0  0  0
 28 27  2  0  0  0  0
 29 27  2  0  0  0  0
M  END
>  <minimizedAffinity>
-4.96224165

$$$$

 OpenBabel03242521203D

 29 31  0  0  0  0  0  0  0  0999 V2000
   37.4420   29.8690   39.5260 C   0  0  0  0  0  0  0  0  0  0  0  0
   36.3790   30.1940   38.7610 C   0  0  0  0  0  0  0  0  0  0  0  0
   35.3770   29.3300   38.4160 C   0  0  0  0  0  0  0  0  0  0  0  0
   35.5060   28.0720   38.8980 N   0  0  0  0  0  0  0  0  0  0  0  0
   36.5580   27.7260   39.6600 C   0  0  0  0  0  0  0  0  0  0  0  0
   37.5380   28.5990   39.9900 N   0  0  0  0  0  0  0  0  0  0  0  0
   36.3010   31.2130   38.3880 H   0  0  0  0  0  0  0  0  0  0  0  0
   34.5370   29.5910   37.8100 H   0  0  0  0  0  0  0  0  0  0  0  0
   40.6690   31.6200   39.5920 C   0  0  0  0  0  0  0  0  0  0  0  0
   40.4350   32.6050   40.5620 C   0  0  0  0  0  0  0  0  0  0  0  0
   39.1790   32.6750   41.1970 C   0  0  0  0  0  0  0  0  0  0  0  0
   38.2380   31.7610   40.8240 N   0  0  0  0  0  0  0  0  0  0  0  0
   38.5040   30.8240   39.8800 C   0  0  0  0  0  0  0  0  0  0  0  0
   39.6890   30.7540   39.2770 N   0  0  0  0  0  0  0  0  0  0  0  0
   41.6390   31.5850   39.1180 H   0  0  0  0  0  0  0  0  0  0  0  0
   41.1810   33.3320   40.8600 H   0  0  0  0  0  0  0  0  0  0  0  0
   38.9640   33.4200   41.9490 H   0  0  0  0  0  0  0  0  0  0  0  0
   37.0720   26.0890   41.4690 C   0  0  0  0  0  0  0  0  0  0  0  0
   36.6840   26.3650   40.1740 C   0  0  0  0  0  0  0  0  0  0  0  0
   36.4230   25.2540   39.3920 C   0  0  0  0  0  0  0  0  0  0  0  0
   36.1130   25.4480   38.3580 H   0  0  0  0  0  0  0  0  0  0  0  0
   36.5160   23.9370   39.7920 C   0  0  0  0  0  0  0  0  0  0  0  0
   36.2780   23.1470   39.0670 H   0  0  0  0  0  0  0  0  0  0  0  0
   36.9050   23.6970   41.0890 C   0  0  0  0  0  3  0  0  0  0  0  0
   37.1760   24.7630   41.9080 C   0  0  0  0  0  3  0  0  0  0  0  0
   37.6700   28.5840   41.9360 H   0  0  0  0  0  0  0  0  0  0  0  0
   37.4350   27.3950   42.5730 S   0  0  0  0  0  0  0  0  0  0  0  0
   36.4050   27.5430   43.6570 O   0  0  0  0  0  0  0  0  0  0  0  0
   38.7360   27.0790   43.2990 O   0  0  0  0  0  0  0  0  0  0  0  0
  1 13  1  0  0  0  0
  1  6  1  0  0  0  0
  2  1  2  0  0  0  0
  3  2  1  0  0  0  0
  3  4  2  0  0  0  0
  4  5  1  0  0  0  0
  5  6  2  0  0  0  0
  5 19  1  0  0  0  0
  7  2  1  0  0  0  0
  8  3  1  0  0  0  0
  9 10  1  0  0  0  0
 10 16  1  0  0  0  0
 10 11  2  0  0  0  0
 11 17  1  0  0  0  0
 12 11  1  0  0  0  0
 13 12  2  0  0  0  0
 14  9  2  0  0  0  0
 14 13  1  0  0  0  0
 15  9  1  0  0  0  0
 18 25  1  0  0  0  0
 18 27  1  0  0  0  0
 19 18  2  0  0  0  0
 20 22  2  0  0  0  0
 20 19  1  0  0  0  0
 21 20  1  0  0  0  0
 22 24  1  0  0  0  0
 23 22  1  0  0  0  0
 24 25  2  0  0  0  0
 26 27  1  0  0  0  0
 27 29  2  0  0  0  0
 27 28  2  0  0  0  0
M  END
>  <minimizedAffinity>
-4.93691349

$$$$

 OpenBabel03242521203D

 29 31  0  0  0  0  0  0  0  0999 V2000
   38.5790   31.1750   40.2170 C   0  0  0  0  0  0  0  0  0  0  0  0
   37.2920   31.5350   40.4060 C   0  0  0  0  0  0  0  0  0  0  0  0
   36.3600   30.7740   41.0570 C   0  0  0  0  0  0  0  0  0  0  0  0
   36.8080   29.5870   41.5250 N   0  0  0  0  0  0  0  0  0  0  0  0
   38.0850   29.2080   41.3470 C   0  0  0  0  0  0  0  0  0  0  0  0
   38.9910   29.9780   40.7000 N   0  0  0  0  0  0  0  0  0  0  0  0
   36.9590   32.4960   40.0190 H   0  0  0  0  0  0  0  0  0  0  0  0
   35.3420   31.0630   41.2040 H   0  0  0  0  0  0  0  0  0  0  0  0
   40.9220   33.9000   39.4620 C   0  0  0  0  0  0  0  0  0  0  0  0
   41.3610   33.5460   38.1790 C   0  0  0  0  0  0  0  0  0  0  0  0
   40.8600   32.3800   37.5670 C   0  0  0  0  0  0  0  0  0  0  0  0
   39.9560   31.6410   38.2720 N   0  0  0  0  0  0  0  0  0  0  0  0
   39.5570   32.0190   39.5120 C   0  0  0  0  0  0  0  0  0  0  0  0
   40.0280   33.1200   40.0950 N   0  0  0  0  0  0  0  0  0  0  0  0
   41.3180   34.7980   39.9120 H   0  0  0  0  0  0  0  0  0  0  0  0
   42.0790   34.1310   37.6150 H   0  0  0  0  0  0  0  0  0  0  0  0
   41.1760   32.0770   36.5790 H   0  0  0  0  0  0  0  0  0  0  0  0
   38.4760   26.7550   41.1280 C   0  0  0  0  0  0  0  0  0  0  0  0
   38.5550   27.9230   41.8590 C   0  0  0  0  0  0  0  0  0  0  0  0
   39.1140   27.7890   43.1170 C   0  0  0  0  0  0  0  0  0  0  0  0
   39.1870   28.7050   43.7170 H   0  0  0  0  0  0  0  0  0  0  0  0
   39.5820   26.6210   43.6800 C   0  0  0  0  0  0  0  0  0  0  0  0
   40.0050   26.6540   44.6930 H   0  0  0  0  0  0  0  0  0  0  0  0
   39.4880   25.4750   42.9250 C   0  0  0  0  0  3  0  0  0  0  0  0
   38.9430   25.5510   41.6700 C   0  0  0  0  0  3  0  0  0  0  0  0
   38.0390   27.9370   38.8450 H   0  0  0  0  0  0  0  0  0  0  0  0
   37.7920   26.7720   39.5190 S   0  0  0  0  0  0  0  0  0  0  0  0
   38.1860   25.5690   38.7090 O   0  0  0  0  0  0  0  0  0  0  0  0
   36.2750   26.6990   39.6280 O   0  0  0  0  0  0  0  0  0  0  0  0
  1  2  2  0  0  0  0
  1  6  1  0  0  0  0
  2  3  1  0  0  0  0
  3  8  1  0  0  0  0
  3  4  2  0  0  0  0
  5  4  1  0  0  0  0
  5 19  1  0  0  0  0
  6  5  2  0  0  0  0
  7  2  1  0  0  0  0
  9 15  1  0  0  0  0
  9 14  1  0  0  0  0
 10  9  2  0  0  0  0
 11 10  1  0  0  0  0
 11 12  2  0  0  0  0
 12 13  1  0  0  0  0
 13 14  2  0  0  0  0
 13  1  1  0  0  0  0
 16 10  1  0  0  0  0
 17 11  1  0  0  0  0
 18 25  2  0  0  0  0
 18 19  1  0  0  0  0
 19 20  2  0  0  0  0
 20 22  1  0  0  0  0
 20 21  1  0  0  0  0
 22 23  1  0  0  0  0
 24 22  2  0  0  0  0
 25 24  1  0  0  0  0
 26 27  1  0  0  0  0
 27 29  2  0  0  0  0
 27 18  1  0  0  0  0
 28 27  2  0  0  0  0
M  END
>  <minimizedAffinity>
-4.9030757

$$$$

 OpenBabel03242521203D

 29 31  0  0  0  0  0  0  0  0999 V2000
   35.7120   29.3550   37.9160 C   0  0  0  0  0  0  0  0  0  0  0  0
   34.9050   28.8050   38.8470 C   0  0  0  0  0  0  0  0  0  0  0  0
   34.8800   29.1670   40.1660 C   0  0  0  0  0  0  0  0  0  0  0  0
   35.7440   30.1500   40.5120 N   0  0  0  0  0  0  0  0  0  0  0  0
   36.5570   30.7110   39.6010 C   0  0  0  0  0  0  0  0  0  0  0  0
   36.5640   30.3360   38.3010 N   0  0  0  0  0  0  0  0  0  0  0  0
   34.2200   28.0170   38.5400 H   0  0  0  0  0  0  0  0  0  0  0  0
   34.2390   28.7290   40.9000 H   0  0  0  0  0  0  0  0  0  0  0  0
   34.9880   27.5000   34.8320 C   0  0  0  0  0  0  0  0  0  0  0  0
   35.7430   28.2130   33.8900 C   0  0  0  0  0  0  0  0  0  0  0  0
   36.5000   29.3280   34.3020 C   0  0  0  0  0  0  0  0  0  0  0  0
   36.4570   29.6590   35.6240 N   0  0  0  0  0  0  0  0  0  0  0  0
   35.7140   28.9420   36.5040 C   0  0  0  0  0  0  0  0  0  0  0  0
   34.9950   27.8880   36.1190 N   0  0  0  0  0  0  0  0  0  0  0  0
   34.4150   26.6490   34.4940 H   0  0  0  0  0  0  0  0  0  0  0  0
   35.7800   27.9520   32.8390 H   0  0  0  0  0  0  0  0  0  0  0  0
   37.0930   29.9000   33.6050 H   0  0  0  0  0  0  0  0  0  0  0  0
   38.6360   31.5280   40.7090 C   0  0  0  0  0  0  0  0  0  0  0  0
   37.4840   31.7700   39.9890 C   0  0  0  0  0  0  0  0  0  0  0  0
   37.2700   33.0960   39.6580 C   0  0  0  0  0  0  0  0  0  0  0  0
   36.3600   33.3140   39.0860 H   0  0  0  0  0  0  0  0  0  0  0  0
   38.0870   34.1590   39.9820 C   0  0  0  0  0  0  0  0  0  0  0  0
   37.7990   35.1670   39.6550 H   0  0  0  0  0  0  0  0  0  0  0  0
   39.2270   33.8830   40.7000 C   0  0  0  0  0  3  0  0  0  0  0  0
   39.4890   32.5840   41.0540 C   0  0  0  0  0  3  0  0  0  0  0  0
   38.4800   28.9440   40.3890 H   0  0  0  0  0  0  0  0  0  0  0  0
   39.0380   29.8980   41.1970 S   0  0  0  0  0  0  0  0  0  0  0  0
   40.5170   29.6890   41.3600 O   0  0  0  0  0  0  0  0  0  0  0  0
   38.4450   29.6360   42.5760 O   0  0  0  0  0  0  0  0  0  0  0  0
  1  6  2  0  0  0  0
  1  2  1  0  0  0  0
  2  3  2  0  0  0  0
  3  4  1  0  0  0  0
  3  8  1  0  0  0  0
  5 19  1  0  0  0  0
  5  4  2  0  0  0  0
  6  5  1  0  0  0  0
  7  2  1  0  0  0  0
  9 14  1  0  0  0  0
 10 11  1  0  0  0  0
 10  9  2  0  0  0  0
 11 12  2  0  0  0  0
 12 13  1  0  0  0  0
 13  1  1  0  0  0  0
 14 13  2  0  0  0  0
 15  9  1  0  0  0  0
 16 10  1  0  0  0  0
 17 11  1  0  0  0  0
 18 25  1  0  0  0  0
 18 27  1  0  0  0  0
 19 18  2  0  0  0  0
 20 22  2  0  0  0  0
 20 19  1  0  0  0  0
 21 20  1  0  0  0  0
 22 24  1  0  0  0  0
 23 22  1  0  0  0  0
 24 25  2  0  0  0  0
 26 27  1  0  0  0  0
 27 28  2  0  0  0  0
 27 29  2  0  0  0  0
M  END
>  <minimizedAffinity>
-4.89014864

$$$$

 OpenBabel03242521203D

 29 31  0  0  0  0  0  0  0  0999 V2000
   37.6590   27.8610   41.6410 C   0  0  0  0  0  0  0  0  0  0  0  0
   37.7720   29.0360   42.2940 C   0  0  0  0  0  0  0  0  0  0  0  0
   37.2060   30.2110   41.8830 C   0  0  0  0  0  0  0  0  0  0  0  0
   36.4960   30.1400   40.7330 N   0  0  0  0  0  0  0  0  0  0  0  0
   36.3720   28.9800   40.0650 C   0  0  0  0  0  0  0  0  0  0  0  0
   36.9400   27.8280   40.4930 N   0  0  0  0  0  0  0  0  0  0  0  0
   38.3490   29.0640   43.2170 H   0  0  0  0  0  0  0  0  0  0  0  0
   37.2970   31.1390   42.4040 H   0  0  0  0  0  0  0  0  0  0  0  0
   38.4310   24.2940   42.0460 C   0  0  0  0  0  0  0  0  0  0  0  0
   39.4520   24.3340   43.0060 C   0  0  0  0  0  0  0  0  0  0  0  0
   39.8800   25.5750   43.5180 C   0  0  0  0  0  0  0  0  0  0  0  0
   39.2650   26.6950   43.0410 N   0  0  0  0  0  0  0  0  0  0  0  0
   38.2800   26.6130   42.1120 C   0  0  0  0  0  0  0  0  0  0  0  0
   37.8730   25.4420   41.6240 N   0  0  0  0  0  0  0  0  0  0  0  0
   38.1180   23.3320   41.6670 H   0  0  0  0  0  0  0  0  0  0  0  0
   39.9420   23.4460   43.3880 H   0  0  0  0  0  0  0  0  0  0  0  0
   40.6630   25.6430   44.2590 H   0  0  0  0  0  0  0  0  0  0  0  0
   36.1940   28.8790   37.5810 C   0  0  0  0  0  0  0  0  0  0  0  0
   35.6020   28.9170   38.8260 C   0  0  0  0  0  0  0  0  0  0  0  0
   34.2190   28.8930   38.8170 C   0  0  0  0  0  0  0  0  0  0  0  0
   33.7250   28.9230   39.7960 H   0  0  0  0  0  0  0  0  0  0  0  0
   33.4130   28.8350   37.7000 C   0  0  0  0  0  0  0  0  0  0  0  0
   32.3230   28.8210   37.8340 H   0  0  0  0  0  0  0  0  0  0  0  0
   34.0350   28.7980   36.4740 C   0  0  0  0  0  3  0  0  0  0  0  0
   35.4050   28.8190   36.4250 C   0  0  0  0  0  3  0  0  0  0  0  0
   38.5700   28.3520   38.5180 H   0  0  0  0  0  0  0  0  0  0  0  0
   37.9370   28.9030   37.4370 S   0  0  0  0  0  0  0  0  0  0  0  0
   38.4210   28.3040   36.1470 O   0  0  0  0  0  0  0  0  0  0  0  0
   38.4080   30.3520   37.4050 O   0  0  0  0  0  0  0  0  0  0  0  0
  1 13  1  0  0  0  0
  1  2  1  0  0  0  0
  2  7  1  0  0  0  0
  3  2  2  0  0  0  0
  3  8  1  0  0  0  0
  4  3  1  0  0  0  0
  5  6  1  0  0  0  0
  5  4  2  0  0  0  0
  6  1  2  0  0  0  0
  9 10  1  0  0  0  0
 10 16  1  0  0  0  0
 10 11  2  0  0  0  0
 11 17  1  0  0  0  0
 12 11  1  0  0  0  0
 13 12  2  0  0  0  0
 14  9  2  0  0  0  0
 14 13  1  0  0  0  0
 15  9  1  0  0  0  0
 18 19  1  0  0  0  0
 19  5  1  0  0  0  0
 20 19  2  0  0  0  0
 20 21  1  0  0  0  0
 22 23  1  0  0  0  0
 22 20  1  0  0  0  0
 24 22  2  0  0  0  0
 25 24  1  0  0  0  0
 25 18  2  0  0  0  0
 27 18  1  0  0  0  0
 27 26  1  0  0  0  0
 28 27  2  0  0  0  0
 29 27  2  0  0  0  0
M  END
>  <minimizedAffinity>
-4.87177753

$$$$

 OpenBabel03242521203D

 29 31  0  0  0  0  0  0  0  0999 V2000
   37.1750   26.9480   41.5870 C   0  0  0  0  0  0  0  0  0  0  0  0
   37.0740   27.0000   42.9310 C   0  0  0  0  0  0  0  0  0  0  0  0
   37.2260   28.1350   43.6790 C   0  0  0  0  0  0  0  0  0  0  0  0
   37.5000   29.2580   42.9760 N   0  0  0  0  0  0  0  0  0  0  0  0
   37.6070   29.2290   41.6360 C   0  0  0  0  0  0  0  0  0  0  0  0
   37.4500   28.0930   40.9170 N   0  0  0  0  0  0  0  0  0  0  0  0
   36.8530   26.0810   43.4720 H   0  0  0  0  0  0  0  0  0  0  0  0
   37.1450   28.1720   44.7430 H   0  0  0  0  0  0  0  0  0  0  0  0
   37.2660   23.4070   40.6190 C   0  0  0  0  0  0  0  0  0  0  0  0
   36.6690   23.4460   39.3510 C   0  0  0  0  0  0  0  0  0  0  0  0
   36.2350   24.6780   38.8220 C   0  0  0  0  0  0  0  0  0  0  0  0
   36.4220   25.7900   39.5890 N   0  0  0  0  0  0  0  0  0  0  0  0
   37.0040   25.7090   40.8120 C   0  0  0  0  0  0  0  0  0  0  0  0
   37.4150   24.5470   41.3170 N   0  0  0  0  0  0  0  0  0  0  0  0
   37.5910   22.4530   41.0050 H   0  0  0  0  0  0  0  0  0  0  0  0
   36.5190   22.5650   38.7390 H   0  0  0  0  0  0  0  0  0  0  0  0
   35.7720   24.7460   37.8490 H   0  0  0  0  0  0  0  0  0  0  0  0
   39.1880   30.8840   40.6490 C   0  0  0  0  0  0  0  0  0  0  0  0
   37.9010   30.4490   40.8900 C   0  0  0  0  0  0  0  0  0  0  0  0
   36.9050   31.2560   40.3710 C   0  0  0  0  0  0  0  0  0  0  0  0
   35.8720   30.9300   40.5500 H   0  0  0  0  0  0  0  0  0  0  0  0
   37.0890   32.4210   39.6570 C   0  0  0  0  0  0  0  0  0  0  0  0
   36.2060   32.9680   39.3000 H   0  0  0  0  0  0  0  0  0  0  0  0
   38.3840   32.8270   39.4340 C   0  0  0  0  0  3  0  0  0  0  0  0
   39.4120   32.0630   39.9260 C   0  0  0  0  0  3  0  0  0  0  0  0
   40.3050   28.6200   41.3010 H   0  0  0  0  0  0  0  0  0  0  0  0
   40.5510   29.9650   41.2450 S   0  0  0  0  0  0  0  0  0  0  0  0
   41.8220   30.2650   40.5020 O   0  0  0  0  0  0  0  0  0  0  0  0
   40.8260   30.3710   42.6870 O   0  0  0  0  0  0  0  0  0  0  0  0
  1  2  1  0  0  0  0
  2  7  1  0  0  0  0
  2  3  2  0  0  0  0
  3  8  1  0  0  0  0
  4  3  1  0  0  0  0
  5  4  2  0  0  0  0
  6  1  2  0  0  0  0
  6  5  1  0  0  0  0
  9 15  1  0  0  0  0
  9 14  1  0  0  0  0
 10  9  2  0  0  0  0
 11 10  1  0  0  0  0
 11 12  2  0  0  0  0
 12 13  1  0  0  0  0
 13 14  2  0  0  0  0
 13  1  1  0  0  0  0
 16 10  1  0  0  0  0
 17 11  1  0  0  0  0
 18 19  1  0  0  0  0
 18 27  1  0  0  0  0
 19  5  1  0  0  0  0
 20 21  1  0  0  0  0
 20 19  2  0  0  0  0
 22 20  1  0  0  0  0
 23 22  1  0  0  0  0
 24 22  2  0  0  0  0
 24 25  1  0  0  0  0
 25 18  2  0  0  0  0
 27 26  1  0  0  0  0
 27 29  2  0  0  0  0
 28 27  2  0  0  0  0
M  END
>  <minimizedAffinity>
-4.82318544

$$$$
