
 OpenBabel03252508593D

 48 50  0  0  1  0  0  0  0  0999 V2000
   47.1720   34.0710   43.2000 N   0  0  0  0  0  0  0  0  0  0  0  0
   46.7960   35.3400   42.6780 C   0  0  0  0  0  0  0  0  0  0  0  0
   45.3450   35.6940   42.8120 C   0  0  0  0  0  0  0  0  0  0  0  0
   44.6740   35.1320   44.0320 C   0  0  0  0  0  0  0  0  0  0  0  0
   45.6510   34.4040   44.9250 C   0  0  0  0  0  0  0  0  0  0  0  0
   46.2910   33.3330   43.9710 C   0  0  2  0  0  0  0  0  0  0  0  0
   47.0830   35.5450   41.6450 H   0  0  0  0  0  0  0  0  0  0  0  0
   47.3640   36.1090   43.2830 H   0  0  0  0  0  0  0  0  0  0  0  0
   45.2160   36.7940   42.8410 H   0  0  0  0  0  0  0  0  0  0  0  0
   44.8310   35.3760   41.8640 H   0  0  0  0  0  0  0  0  0  0  0  0
   43.9540   34.3600   43.6800 H   0  0  0  0  0  0  0  0  0  0  0  0
   44.0860   35.8860   44.5790 H   0  0  0  0  0  0  0  0  0  0  0  0
   45.0650   33.8630   45.6950 H   0  0  0  0  0  0  0  0  0  0  0  0
   46.4480   35.0440   45.3320 H   0  0  0  0  0  0  0  0  0  0  0  0
   45.4230   32.8490   43.4800 H   0  0  0  0  0  0  0  0  0  0  0  0
   48.1510   33.3760   42.4060 C   0  0  0  0  0  0  0  0  0  0  0  0
   48.7790   34.1610   41.9100 H   0  0  0  0  0  0  0  0  0  0  0  0
   48.8390   32.7440   42.9680 H   0  0  0  0  0  0  0  0  0  0  0  0
   47.4380   32.5350   41.3890 C   0  0  0  0  0  0  0  0  0  0  0  0
   46.3610   32.7990   41.3520 H   0  0  0  0  0  0  0  0  0  0  0  0
   47.5060   31.4450   41.5800 H   0  0  0  0  0  0  0  0  0  0  0  0
   49.3730   32.2260   38.1820 C   0  0  0  0  0  0  0  0  0  0  0  0
   48.8460   31.9520   39.4600 C   0  0  0  0  0  0  0  0  0  0  0  0
   47.9820   32.8410   40.0420 C   0  0  0  0  0  0  0  0  0  0  0  0
   47.6760   33.9460   39.3530 N   0  0  0  0  0  0  0  0  0  0  0  0
   48.1780   34.2110   38.1310 C   0  0  0  0  0  0  0  0  0  0  0  0
   49.0260   33.3560   37.5400 N   0  0  0  0  0  0  0  0  0  0  0  0
   50.0580   31.5230   37.7190 H   0  0  0  0  0  0  0  0  0  0  0  0
   49.1750   31.0240   39.9060 H   0  0  0  0  0  0  0  0  0  0  0  0
   47.8700   35.1350   37.6510 H   0  0  0  0  0  0  0  0  0  0  0  0
   46.9580   32.5150   44.8700 O   0  0  0  0  0  0  0  0  0  0  0  0
   45.0630   30.8190   44.1080 O   0  0  0  0  0  0  0  0  0  0  0  0
   46.1770   31.0570   45.1390 P   0  0  2  0  0  0  0  0  0  0  0  0
   45.3510   31.2220   46.6310 O   0  0  0  0  0  0  0  0  0  0  0  0
   44.9160   30.3290   46.7740 H   0  0  0  0  0  0  0  0  0  0  0  0
   47.1890   29.7570   45.2730 O   0  0  0  0  0  0  0  0  0  0  0  0
   49.2420   29.2150   46.0960 C   0  0  0  0  0  0  0  0  0  0  0  0
   48.5270   29.6420   44.9700 C   0  0  0  0  0  0  0  0  0  0  0  0
   49.2250   29.8690   43.8030 C   0  0  0  0  0  0  0  0  0  0  0  0
   48.5720   30.1930   43.0060 H   0  0  0  0  0  0  0  0  0  0  0  0
   50.5900   29.6770   43.7550 C   0  0  0  0  0  0  0  0  0  0  0  0
   51.0630   29.8780   42.7980 H   0  0  0  0  0  0  0  0  0  0  0  0
   51.3070   29.2570   44.8560 C   0  0  0  0  0  3  0  0  0  0  0  0
   50.6260   29.0250   46.0340 C   0  0  0  0  0  3  0  0  0  0  0  0
   49.5360   28.5570   48.5770 H   0  0  0  0  0  0  0  0  0  0  0  0
   48.5470   28.8680   47.6810 S   0  0  0  0  0  0  0  0  0  0  0  0
   47.8310   30.0790   48.2180 O   0  0  0  0  0  0  0  0  0  0  0  0
   47.5680   27.7210   47.5140 O   0  0  0  0  0  0  0  0  0  0  0  0
  1  6  1  0  0  0  0
  2  3  1  0  0  0  0
  2  1  1  0  0  0  0
  2  8  1  0  0  0  0
  3  9  1  0  0  0  0
  3  4  1  0  0  0  0
  4 12  1  0  0  0  0
  4  5  1  0  0  0  0
  5 14  1  0  0  0  0
  5 13  1  0  0  0  0
  6 15  1  6  0  0  0
  6 31  1  0  0  0  0
  6  5  1  0  0  0  0
  7  2  1  0  0  0  0
 10  3  1  0  0  0  0
 11  4  1  0  0  0  0
 16 18  1  0  0  0  0
 16  1  1  0  0  0  0
 17 16  1  0  0  0  0
 19 21  1  0  0  0  0
 19 16  1  0  0  0  0
 20 19  1  0  0  0  0
 22 23  1  0  0  0  0
 23 29  1  0  0  0  0
 23 24  2  0  0  0  0
 24 19  1  0  0  0  0
 25 24  1  0  0  0  0
 26 25  2  0  0  0  0
 27 26  1  0  0  0  0
 27 22  2  0  0  0  0
 28 22  1  0  0  0  0
 30 26  1  0  0  0  0
 31 33  1  0  0  0  0
 33 32  2  6  0  0  0
 33 36  1  0  0  0  0
 33 34  1  0  0  0  0
 34 35  1  0  0  0  0
 37 46  1  0  0  0  0
 38 36  1  0  0  0  0
 38 37  2  0  0  0  0
 39 38  1  0  0  0  0
 40 39  1  0  0  0  0
 41 39  2  0  0  0  0
 41 43  1  0  0  0  0
 42 41  1  0  0  0  0
 43 44  2  0  0  0  0
 44 37  1  0  0  0  0
 46 47  2  0  0  0  0
 46 45  1  0  0  0  0
 48 46  2  0  0  0  0
M  END
>  <minimizedAffinity>
-4.23117304

>  <minimizedRMSD>
1.15385973

$$$$
