
 OpenBabel03242515413D

 39 42  0  0  0  0  0  0  0  0999 V2000
   40.5260   30.5060   41.0460 C   0  0  0  0  0  0  0  0  0  0  0  0
   41.4130   30.1630   40.0610 C   0  0  0  0  0  0  0  0  0  0  0  0
   41.4010   30.8890   38.8730 C   0  0  0  0  0  0  0  0  0  0  0  0
   40.4950   31.9060   38.7770 N   0  0  0  0  0  0  0  0  0  0  0  0
   39.6400   32.2190   39.7570 C   0  0  0  0  0  0  0  0  0  0  0  0
   39.6770   31.5100   40.8680 N   0  0  0  0  0  0  0  0  0  0  0  0
   42.1160   29.3880   40.2150 H   0  0  0  0  0  0  0  0  0  0  0  0
   43.3390   31.5140   37.3390 C   0  0  0  0  0  0  0  0  0  0  0  0
   42.2770   30.7410   37.7350 C   0  0  0  0  0  0  0  0  0  0  0  0
   42.0520   29.6260   36.9190 C   0  0  0  0  0  0  0  0  0  0  0  0
   41.2320   28.9410   37.1470 H   0  0  0  0  0  0  0  0  0  0  0  0
   42.7760   29.2700   35.8050 C   0  0  0  0  0  0  0  0  0  0  0  0
   42.5420   28.3940   35.2220 H   0  0  0  0  0  0  0  0  0  0  0  0
   43.8290   30.0620   35.4300 C   0  0  0  0  0  3  0  0  0  0  0  0
   44.0840   31.1630   36.2060 C   0  0  0  0  0  3  0  0  0  0  0  0
   43.6470   32.5540   39.6100 H   0  0  0  0  0  0  0  0  0  0  0  0
   43.8630   32.8900   38.2580 S   0  0  0  0  0  0  0  0  0  0  0  0
   45.3020   33.1980   38.1270 O   0  0  0  0  0  0  0  0  0  0  0  0
   43.0240   34.1110   38.0560 O   0  0  0  0  0  0  0  0  0  0  0  0
   40.5910   29.5200   42.5630 S   0  0  0  0  0  0  0  0  0  0  0  0
   38.2360   28.4380   43.2800 C   0  0  0  0  0  0  0  0  0  0  0  0
   39.3820   28.2190   42.5160 C   0  0  0  0  0  0  0  0  0  0  0  0
   39.5320   27.0660   41.7900 C   0  0  0  0  0  0  0  0  0  0  0  0
   38.5650   26.0760   41.7800 C   0  0  0  0  0  0  0  0  0  0  0  0
   37.4040   26.3010   42.5560 C   0  0  0  0  0  0  0  0  0  0  0  0
   37.2350   27.4630   43.2980 C   0  0  0  0  0  0  0  0  0  0  0  0
   36.5740   25.1690   42.3900 O   0  0  0  0  0  0  0  0  0  0  0  0
   37.3750   24.1740   41.8050 C   0  0  0  0  0  0  0  0  0  0  0  0
   38.4460   24.8350   41.1550 O   0  0  0  0  0  0  0  0  0  0  0  0
   38.0290   29.3130   43.8830 H   0  0  0  0  0  0  0  0  0  0  0  0
   40.4350   26.9310   41.2090 H   0  0  0  0  0  0  0  0  0  0  0  0
   36.3410   27.6030   43.8760 H   0  0  0  0  0  0  0  0  0  0  0  0
   37.7140   23.4010   42.5060 H   0  0  0  0  0  0  0  0  0  0  0  0
   36.7560   23.6750   41.0260 H   0  0  0  0  0  0  0  0  0  0  0  0
   38.7160   33.2360   39.6890 O   0  0  0  0  0  0  0  0  0  0  0  0
   37.3790   32.9460   39.4110 C   0  0  0  0  0  0  0  0  0  0  0  0
   37.2110   32.1710   38.3060 F   0  0  0  0  0  0  0  0  0  0  0  0
   36.8810   32.3590   40.5890 F   0  0  0  0  0  0  0  0  0  0  0  0
   36.7380   34.1610   39.1780 F   0  0  0  0  0  0  0  0  0  0  0  0
  1 20  1  0  0  0  0
  2  7  1  0  0  0  0
  2  1  2  0  0  0  0
  3  2  1  0  0  0  0
  4  3  2  0  0  0  0
  4  5  1  0  0  0  0
  5  6  2  0  0  0  0
  6  1  1  0  0  0  0
  8  9  1  0  0  0  0
  8 17  1  0  0  0  0
  9  3  1  0  0  0  0
 10 11  1  0  0  0  0
 10  9  2  0  0  0  0
 12 10  1  0  0  0  0
 13 12  1  0  0  0  0
 14 12  2  0  0  0  0
 14 15  1  0  0  0  0
 15  8  2  0  0  0  0
 17 16  1  0  0  0  0
 18 17  2  0  0  0  0
 19 17  2  0  0  0  0
 21 26  1  0  0  0  0
 21 30  1  0  0  0  0
 22 20  1  0  0  0  0
 22 21  2  0  0  0  0
 23 22  1  0  0  0  0
 24 23  2  0  0  0  0
 24 25  1  0  0  0  0
 25 26  2  0  0  0  0
 26 32  1  0  0  0  0
 27 25  1  0  0  0  0
 28 27  1  0  0  0  0
 28 33  1  0  0  0  0
 29 24  1  0  0  0  0
 29 28  1  0  0  0  0
 31 23  1  0  0  0  0
 34 28  1  0  0  0  0
 35  5  1  0  0  0  0
 36 35  1  0  0  0  0
 36 38  1  0  0  0  0
 37 36  1  0  0  0  0
 39 36  1  0  0  0  0
M  END
>  <minimizedAffinity>
-6.01072121

$$$$

 OpenBabel03242515413D

 39 42  0  0  0  0  0  0  0  0999 V2000
   35.3070   28.5450   38.0890 C   0  0  0  0  0  0  0  0  0  0  0  0
   35.7890   27.8050   39.1370 C   0  0  0  0  0  0  0  0  0  0  0  0
   36.7780   28.3620   39.9430 C   0  0  0  0  0  0  0  0  0  0  0  0
   37.2000   29.6210   39.6280 N   0  0  0  0  0  0  0  0  0  0  0  0
   36.7100   30.3200   38.5980 C   0  0  0  0  0  0  0  0  0  0  0  0
   35.7760   29.7640   37.8530 N   0  0  0  0  0  0  0  0  0  0  0  0
   35.3910   26.8490   39.3500 H   0  0  0  0  0  0  0  0  0  0  0  0
   38.3780   26.8520   41.2330 C   0  0  0  0  0  0  0  0  0  0  0  0
   37.3830   27.7910   41.1240 C   0  0  0  0  0  0  0  0  0  0  0  0
   36.9280   28.2810   42.3540 C   0  0  0  0  0  0  0  0  0  0  0  0
   36.1370   29.0350   42.3800 H   0  0  0  0  0  0  0  0  0  0  0  0
   37.3770   27.9060   43.5980 C   0  0  0  0  0  0  0  0  0  0  0  0
   36.9770   28.3290   44.5060 H   0  0  0  0  0  0  0  0  0  0  0  0
   38.3690   26.9650   43.6790 C   0  0  0  0  0  3  0  0  0  0  0  0
   38.8430   26.4620   42.4950 C   0  0  0  0  0  3  0  0  0  0  0  0
   40.2180   25.3900   40.3320 H   0  0  0  0  0  0  0  0  0  0  0  0
   39.1610   26.1810   39.8380 S   0  0  0  0  0  0  0  0  0  0  0  0
   38.3060   25.2850   39.0320 O   0  0  0  0  0  0  0  0  0  0  0  0
   39.8470   27.1950   38.9790 O   0  0  0  0  0  0  0  0  0  0  0  0
   34.0250   27.7620   37.0780 S   0  0  0  0  0  0  0  0  0  0  0  0
   32.9590   29.3360   35.1770 C   0  0  0  0  0  0  0  0  0  0  0  0
   32.8470   28.9680   36.5180 C   0  0  0  0  0  0  0  0  0  0  0  0
   31.8820   29.5190   37.3200 C   0  0  0  0  0  0  0  0  0  0  0  0
   30.9820   30.4560   36.8440 C   0  0  0  0  0  0  0  0  0  0  0  0
   31.0970   30.8280   35.4840 C   0  0  0  0  0  0  0  0  0  0  0  0
   32.0690   30.2800   34.6570 C   0  0  0  0  0  0  0  0  0  0  0  0
   30.0860   31.7830   35.2330 O   0  0  0  0  0  0  0  0  0  0  0  0
   29.6140   32.2000   36.4890 C   0  0  0  0  0  0  0  0  0  0  0  0
   29.9240   31.1690   37.4090 O   0  0  0  0  0  0  0  0  0  0  0  0
   33.6850   28.9570   34.4690 H   0  0  0  0  0  0  0  0  0  0  0  0
   31.8270   29.2090   38.3550 H   0  0  0  0  0  0  0  0  0  0  0  0
   32.1280   30.5830   33.6290 H   0  0  0  0  0  0  0  0  0  0  0  0
   29.9900   33.1810   36.8060 H   0  0  0  0  0  0  0  0  0  0  0  0
   28.5070   32.2710   36.4130 H   0  0  0  0  0  0  0  0  0  0  0  0
   37.1160   31.5900   38.2560 O   0  0  0  0  0  0  0  0  0  0  0  0
   37.3370   32.5430   39.2510 C   0  0  0  0  0  0  0  0  0  0  0  0
   36.6580   32.2920   40.4020 F   0  0  0  0  0  0  0  0  0  0  0  0
   38.7330   32.5780   39.4200 F   0  0  0  0  0  0  0  0  0  0  0  0
   36.8880   33.7640   38.7520 F   0  0  0  0  0  0  0  0  0  0  0  0
  1  2  1  0  0  0  0
  2  7  1  0  0  0  0
  2  3  2  0  0  0  0
  3  9  1  0  0  0  0
  4  3  1  0  0  0  0
  5  4  2  0  0  0  0
  6  1  2  0  0  0  0
  6  5  1  0  0  0  0
  8 15  1  0  0  0  0
  9  8  2  0  0  0  0
  9 10  1  0  0  0  0
 10 11  1  0  0  0  0
 10 12  2  0  0  0  0
 12 14  1  0  0  0  0
 12 13  1  0  0  0  0
 15 14  2  0  0  0  0
 17 16  1  0  0  0  0
 17  8  1  0  0  0  0
 18 17  2  0  0  0  0
 19 17  2  0  0  0  0
 20  1  1  0  0  0  0
 21 22  1  0  0  0  0
 22 20  1  0  0  0  0
 22 23  2  0  0  0  0
 23 31  1  0  0  0  0
 24 23  1  0  0  0  0
 24 29  1  0  0  0  0
 25 24  2  0  0  0  0
 26 21  2  0  0  0  0
 26 25  1  0  0  0  0
 27 25  1  0  0  0  0
 27 28  1  0  0  0  0
 28 33  1  0  0  0  0
 28 29  1  0  0  0  0
 30 21  1  0  0  0  0
 32 26  1  0  0  0  0
 34 28  1  0  0  0  0
 35  5  1  0  0  0  0
 35 36  1  0  0  0  0
 36 38  1  0  0  0  0
 36 37  1  0  0  0  0
 39 36  1  0  0  0  0
M  END
>  <minimizedAffinity>
-5.97437906

$$$$

 OpenBabel03242515413D

 39 42  0  0  0  0  0  0  0  0999 V2000
   33.4380   28.9610   36.4110 C   0  0  0  0  0  0  0  0  0  0  0  0
   33.8640   28.8620   37.7090 C   0  0  0  0  0  0  0  0  0  0  0  0
   35.2200   29.0300   37.9790 C   0  0  0  0  0  0  0  0  0  0  0  0
   36.0370   29.2850   36.9150 N   0  0  0  0  0  0  0  0  0  0  0  0
   35.5930   29.3760   35.6570 C   0  0  0  0  0  0  0  0  0  0  0  0
   34.3030   29.2100   35.4360 N   0  0  0  0  0  0  0  0  0  0  0  0
   33.1720   28.7010   38.4930 H   0  0  0  0  0  0  0  0  0  0  0  0
   36.5460   28.0150   39.9050 C   0  0  0  0  0  0  0  0  0  0  0  0
   35.8740   29.0260   39.2660 C   0  0  0  0  0  0  0  0  0  0  0  0
   35.8650   30.2350   39.9710 C   0  0  0  0  0  0  0  0  0  0  0  0
   35.3590   31.1070   39.5500 H   0  0  0  0  0  0  0  0  0  0  0  0
   36.4470   30.4710   41.1950 C   0  0  0  0  0  0  0  0  0  0  0  0
   36.3980   31.4330   41.6800 H   0  0  0  0  0  0  0  0  0  0  0  0
   37.1090   29.4430   41.8130 C   0  0  0  0  0  3  0  0  0  0  0  0
   37.1420   28.2420   41.1520 C   0  0  0  0  0  3  0  0  0  0  0  0
   35.8260   26.3850   38.1280 H   0  0  0  0  0  0  0  0  0  0  0  0
   36.7700   26.4580   39.1730 S   0  0  0  0  0  0  0  0  0  0  0  0
   38.0970   26.2600   38.5550 O   0  0  0  0  0  0  0  0  0  0  0  0
   36.4060   25.3100   40.0600 O   0  0  0  0  0  0  0  0  0  0  0  0
   31.6650   28.7290   36.1290 S   0  0  0  0  0  0  0  0  0  0  0  0
   30.9860   31.2360   35.4360 C   0  0  0  0  0  0  0  0  0  0  0  0
   31.0560   29.9250   34.9660 C   0  0  0  0  0  0  0  0  0  0  0  0
   30.6710   29.6160   33.6860 C   0  0  0  0  0  0  0  0  0  0  0  0
   30.2010   30.5790   32.8110 C   0  0  0  0  0  0  0  0  0  0  0  0
   30.1320   31.9080   33.2900 C   0  0  0  0  0  0  0  0  0  0  0  0
   30.5170   32.2390   34.5830 C   0  0  0  0  0  0  0  0  0  0  0  0
   29.6290   32.7000   32.2330 O   0  0  0  0  0  0  0  0  0  0  0  0
   29.1090   31.8060   31.2820 C   0  0  0  0  0  0  0  0  0  0  0  0
   29.7510   30.5610   31.4910 O   0  0  0  0  0  0  0  0  0  0  0  0
   31.2660   31.5750   36.4250 H   0  0  0  0  0  0  0  0  0  0  0  0
   30.7390   28.5870   33.3570 H   0  0  0  0  0  0  0  0  0  0  0  0
   30.4530   33.2580   34.9150 H   0  0  0  0  0  0  0  0  0  0  0  0
   28.0150   31.7280   31.2910 H   0  0  0  0  0  0  0  0  0  0  0  0
   29.4120   32.1850   30.2810 H   0  0  0  0  0  0  0  0  0  0  0  0
   36.3910   29.6320   34.5660 O   0  0  0  0  0  0  0  0  0  0  0  0
   36.3140   30.8670   33.9200 C   0  0  0  0  0  0  0  0  0  0  0  0
   35.0450   31.2280   33.5910 F   0  0  0  0  0  0  0  0  0  0  0  0
   36.9490   31.7730   34.7880 F   0  0  0  0  0  0  0  0  0  0  0  0
   37.0420   30.7530   32.7370 F   0  0  0  0  0  0  0  0  0  0  0  0
  1  2  1  0  0  0  0
  2  3  2  0  0  0  0
  2  7  1  0  0  0  0
  3  9  1  0  0  0  0
  4  3  1  0  0  0  0
  5  4  2  0  0  0  0
  6  5  1  0  0  0  0
  6  1  2  0  0  0  0
  8 15  1  0  0  0  0
  9  8  2  0  0  0  0
  9 10  1  0  0  0  0
 10 12  2  0  0  0  0
 11 10  1  0  0  0  0
 12 13  1  0  0  0  0
 12 14  1  0  0  0  0
 15 14  2  0  0  0  0
 16 17  1  0  0  0  0
 17  8  1  0  0  0  0
 17 19  2  0  0  0  0
 18 17  2  0  0  0  0
 20  1  1  0  0  0  0
 21 30  1  0  0  0  0
 22 21  1  0  0  0  0
 22 20  1  0  0  0  0
 23 22  2  0  0  0  0
 24 25  2  0  0  0  0
 24 23  1  0  0  0  0
 25 26  1  0  0  0  0
 26 32  1  0  0  0  0
 26 21  2  0  0  0  0
 27 25  1  0  0  0  0
 28 33  1  0  0  0  0
 28 29  1  0  0  0  0
 28 27  1  0  0  0  0
 29 24  1  0  0  0  0
 31 23  1  0  0  0  0
 34 28  1  0  0  0  0
 35  5  1  0  0  0  0
 36 35  1  0  0  0  0
 36 38  1  0  0  0  0
 37 36  1  0  0  0  0
 39 36  1  0  0  0  0
M  END
>  <minimizedAffinity>
-5.94871426

$$$$

 OpenBabel03242515413D

 39 42  0  0  0  0  0  0  0  0999 V2000
   34.0060   28.9500   36.1750 C   0  0  0  0  0  0  0  0  0  0  0  0
   34.7210   28.7170   37.3190 C   0  0  0  0  0  0  0  0  0  0  0  0
   36.0990   28.9190   37.2950 C   0  0  0  0  0  0  0  0  0  0  0  0
   36.6430   29.3420   36.1160 N   0  0  0  0  0  0  0  0  0  0  0  0
   35.9190   29.5620   35.0140 C   0  0  0  0  0  0  0  0  0  0  0  0
   34.6170   29.3590   35.0700 N   0  0  0  0  0  0  0  0  0  0  0  0
   34.2320   28.4270   38.2110 H   0  0  0  0  0  0  0  0  0  0  0  0
   37.5040   29.7480   39.2540 C   0  0  0  0  0  0  0  0  0  0  0  0
   37.0320   28.7920   38.3890 C   0  0  0  0  0  0  0  0  0  0  0  0
   37.5120   27.5040   38.6510 C   0  0  0  0  0  0  0  0  0  0  0  0
   37.1960   26.6670   38.0220 H   0  0  0  0  0  0  0  0  0  0  0  0
   38.3810   27.1440   39.6540 C   0  0  0  0  0  0  0  0  0  0  0  0
   38.7090   26.1270   39.7950 H   0  0  0  0  0  0  0  0  0  0  0  0
   38.8400   28.1190   40.5010 C   0  0  0  0  0  3  0  0  0  0  0  0
   38.3900   29.3940   40.2790 C   0  0  0  0  0  3  0  0  0  0  0  0
   35.5700   31.3370   38.9920 H   0  0  0  0  0  0  0  0  0  0  0  0
   36.9660   31.3960   39.1800 S   0  0  0  0  0  0  0  0  0  0  0  0
   37.1910   32.1660   40.4200 O   0  0  0  0  0  0  0  0  0  0  0  0
   37.4550   32.1420   37.9800 O   0  0  0  0  0  0  0  0  0  0  0  0
   32.2210   28.6650   36.2720 S   0  0  0  0  0  0  0  0  0  0  0  0
   30.9860   31.0480   36.1130 C   0  0  0  0  0  0  0  0  0  0  0  0
   31.3370   29.9170   35.3750 C   0  0  0  0  0  0  0  0  0  0  0  0
   31.0060   29.8140   34.0480 C   0  0  0  0  0  0  0  0  0  0  0  0
   30.3160   30.8140   33.3860 C   0  0  0  0  0  0  0  0  0  0  0  0
   29.9620   31.9590   34.1370 C   0  0  0  0  0  0  0  0  0  0  0  0
   30.2890   32.0810   35.4820 C   0  0  0  0  0  0  0  0  0  0  0  0
   29.2750   32.8280   33.2590 O   0  0  0  0  0  0  0  0  0  0  0  0
   28.9480   32.0680   32.1240 C   0  0  0  0  0  0  0  0  0  0  0  0
   29.8550   30.9810   32.0800 O   0  0  0  0  0  0  0  0  0  0  0  0
   31.2040   31.2190   37.1600 H   0  0  0  0  0  0  0  0  0  0  0  0
   31.2950   28.9210   33.5090 H   0  0  0  0  0  0  0  0  0  0  0  0
   30.0060   32.9640   36.0220 H   0  0  0  0  0  0  0  0  0  0  0  0
   27.8990   31.7490   32.0850 H   0  0  0  0  0  0  0  0  0  0  0  0
   29.1390   32.7110   31.2370 H   0  0  0  0  0  0  0  0  0  0  0  0
   36.4390   29.9880   33.8120 O   0  0  0  0  0  0  0  0  0  0  0  0
   36.5050   31.3520   33.5260 C   0  0  0  0  0  0  0  0  0  0  0  0
   36.9600   32.1020   34.5660 F   0  0  0  0  0  0  0  0  0  0  0  0
   37.3060   31.4450   32.3740 F   0  0  0  0  0  0  0  0  0  0  0  0
   35.2070   31.7710   33.2370 F   0  0  0  0  0  0  0  0  0  0  0  0
  1 20  1  0  0  0  0
  1  2  1  0  0  0  0
  2  7  1  0  0  0  0
  3  2  2  0  0  0  0
  3  9  1  0  0  0  0
  4  3  1  0  0  0  0
  5  6  1  0  0  0  0
  5  4  2  0  0  0  0
  6  1  2  0  0  0  0
  8 15  1  0  0  0  0
  9 10  1  0  0  0  0
  9  8  2  0  0  0  0
 10 12  2  0  0  0  0
 11 10  1  0  0  0  0
 12 13  1  0  0  0  0
 12 14  1  0  0  0  0
 15 14  2  0  0  0  0
 16 17  1  0  0  0  0
 17  8  1  0  0  0  0
 17 18  2  0  0  0  0
 19 17  2  0  0  0  0
 21 30  1  0  0  0  0
 22 21  2  0  0  0  0
 22 20  1  0  0  0  0
 23 22  1  0  0  0  0
 24 23  2  0  0  0  0
 24 25  1  0  0  0  0
 25 26  2  0  0  0  0
 26 32  1  0  0  0  0
 26 21  1  0  0  0  0
 27 25  1  0  0  0  0
 28 27  1  0  0  0  0
 29 28  1  0  0  0  0
 29 24  1  0  0  0  0
 31 23  1  0  0  0  0
 33 28  1  0  0  0  0
 34 28  1  0  0  0  0
 35  5  1  0  0  0  0
 36 35  1  0  0  0  0
 36 37  1  0  0  0  0
 38 36  1  0  0  0  0
 39 36  1  0  0  0  0
M  END
>  <minimizedAffinity>
-5.94846058

$$$$

 OpenBabel03242515413D

 39 42  0  0  0  0  0  0  0  0999 V2000
   36.5920   28.6650   41.6470 C   0  0  0  0  0  0  0  0  0  0  0  0
   36.0200   28.2020   40.4930 C   0  0  0  0  0  0  0  0  0  0  0  0
   35.8550   29.0880   39.4310 C   0  0  0  0  0  0  0  0  0  0  0  0
   36.2830   30.3700   39.6200 N   0  0  0  0  0  0  0  0  0  0  0  0
   36.8400   30.7940   40.7600 C   0  0  0  0  0  0  0  0  0  0  0  0
   36.9800   29.9300   41.7460 N   0  0  0  0  0  0  0  0  0  0  0  0
   35.7440   27.1860   40.3970 H   0  0  0  0  0  0  0  0  0  0  0  0
   35.9960   28.4490   36.9660 C   0  0  0  0  0  0  0  0  0  0  0  0
   35.3330   28.8050   38.1140 C   0  0  0  0  0  0  0  0  0  0  0  0
   33.9420   28.8600   37.9720 C   0  0  0  0  0  0  0  0  0  0  0  0
   33.3170   29.1310   38.8270 H   0  0  0  0  0  0  0  0  0  0  0  0
   33.2280   28.6010   36.8250 C   0  0  0  0  0  0  0  0  0  0  0  0
   32.1520   28.6640   36.7900 H   0  0  0  0  0  0  0  0  0  0  0  0
   33.9150   28.2510   35.6920 C   0  0  0  0  0  3  0  0  0  0  0  0
   35.2800   28.1840   35.7920 C   0  0  0  0  0  3  0  0  0  0  0  0
   38.0350   27.8780   35.6060 H   0  0  0  0  0  0  0  0  0  0  0  0
   37.7160   28.2220   36.9350 S   0  0  0  0  0  0  0  0  0  0  0  0
   38.4960   29.4350   37.2540 O   0  0  0  0  0  0  0  0  0  0  0  0
   38.1890   27.0470   37.7290 O   0  0  0  0  0  0  0  0  0  0  0  0
   36.7740   27.4640   42.9900 S   0  0  0  0  0  0  0  0  0  0  0  0
   38.4540   25.4120   42.5500 C   0  0  0  0  0  0  0  0  0  0  0  0
   38.3970   26.7420   42.9680 C   0  0  0  0  0  0  0  0  0  0  0  0
   39.5350   27.4140   43.3300 C   0  0  0  0  0  0  0  0  0  0  0  0
   40.7810   26.8140   43.2980 C   0  0  0  0  0  0  0  0  0  0  0  0
   40.8370   25.4660   42.8740 C   0  0  0  0  0  0  0  0  0  0  0  0
   39.6940   24.7690   42.5030 C   0  0  0  0  0  0  0  0  0  0  0  0
   42.1950   25.0760   42.9240 O   0  0  0  0  0  0  0  0  0  0  0  0
   42.8620   26.0600   43.6710 C   0  0  0  0  0  0  0  0  0  0  0  0
   42.0760   27.2360   43.6000 O   0  0  0  0  0  0  0  0  0  0  0  0
   37.6130   24.8020   42.2450 H   0  0  0  0  0  0  0  0  0  0  0  0
   39.4510   28.4450   43.6490 H   0  0  0  0  0  0  0  0  0  0  0  0
   39.7710   23.7460   42.1850 H   0  0  0  0  0  0  0  0  0  0  0  0
   43.0900   25.7620   44.7020 H   0  0  0  0  0  0  0  0  0  0  0  0
   43.8270   26.2600   43.1560 H   0  0  0  0  0  0  0  0  0  0  0  0
   37.2810   32.0790   40.9800 O   0  0  0  0  0  0  0  0  0  0  0  0
   37.9820   32.7560   39.9810 C   0  0  0  0  0  0  0  0  0  0  0  0
   37.1940   33.1740   38.9550 F   0  0  0  0  0  0  0  0  0  0  0  0
   38.6430   33.8060   40.6450 F   0  0  0  0  0  0  0  0  0  0  0  0
   38.9150   31.8610   39.4610 F   0  0  0  0  0  0  0  0  0  0  0  0
  1  6  1  0  0  0  0
  1 20  1  0  0  0  0
  2  1  2  0  0  0  0
  3  4  2  0  0  0  0
  3  2  1  0  0  0  0
  4  5  1  0  0  0  0
  5 35  1  0  0  0  0
  5  6  2  0  0  0  0
  7  2  1  0  0  0  0
  8  9  1  0  0  0  0
  9  3  1  0  0  0  0
 10  9  2  0  0  0  0
 10 11  1  0  0  0  0
 12 10  1  0  0  0  0
 13 12  1  0  0  0  0
 14 15  1  0  0  0  0
 14 12  2  0  0  0  0
 15  8  2  0  0  0  0
 16 17  1  0  0  0  0
 17  8  1  0  0  0  0
 17 18  2  0  0  0  0
 17 19  2  0  0  0  0
 21 22  1  0  0  0  0
 22 20  1  0  0  0  0
 22 23  2  0  0  0  0
 23 31  1  0  0  0  0
 24 23  1  0  0  0  0
 24 29  1  0  0  0  0
 25 27  1  0  0  0  0
 25 24  2  0  0  0  0
 26 21  2  0  0  0  0
 26 25  1  0  0  0  0
 27 28  1  0  0  0  0
 28 33  1  0  0  0  0
 29 28  1  0  0  0  0
 30 21  1  0  0  0  0
 32 26  1  0  0  0  0
 34 28  1  0  0  0  0
 36 38  1  0  0  0  0
 36 35  1  0  0  0  0
 37 36  1  0  0  0  0
 39 36  1  0  0  0  0
M  END
>  <minimizedAffinity>
-5.94190741

$$$$

 OpenBabel03242515413D

 39 42  0  0  0  0  0  0  0  0999 V2000
   37.7320   30.3020   39.2500 C   0  0  0  0  0  0  0  0  0  0  0  0
   38.0070   29.2230   40.0480 C   0  0  0  0  0  0  0  0  0  0  0  0
   37.1680   28.1140   39.9780 C   0  0  0  0  0  0  0  0  0  0  0  0
   36.1180   28.1840   39.1080 N   0  0  0  0  0  0  0  0  0  0  0  0
   35.8740   29.2520   38.3410 C   0  0  0  0  0  0  0  0  0  0  0  0
   36.6870   30.2860   38.4320 N   0  0  0  0  0  0  0  0  0  0  0  0
   38.8600   29.2180   40.6730 H   0  0  0  0  0  0  0  0  0  0  0  0
   37.7180   26.6080   41.9610 C   0  0  0  0  0  0  0  0  0  0  0  0
   37.3010   26.8580   40.6780 C   0  0  0  0  0  0  0  0  0  0  0  0
   36.9170   25.7110   39.9730 C   0  0  0  0  0  0  0  0  0  0  0  0
   36.5660   25.7980   38.9420 H   0  0  0  0  0  0  0  0  0  0  0  0
   36.9320   24.4190   40.4450 C   0  0  0  0  0  0  0  0  0  0  0  0
   36.6210   23.5820   39.8420 H   0  0  0  0  0  0  0  0  0  0  0  0
   37.3560   24.1980   41.7290 C   0  0  0  0  0  3  0  0  0  0  0  0
   37.7380   25.2970   42.4530 C   0  0  0  0  0  3  0  0  0  0  0  0
   38.2350   27.2970   44.3260 H   0  0  0  0  0  0  0  0  0  0  0  0
   38.1460   27.8900   43.0500 S   0  0  0  0  0  0  0  0  0  0  0  0
   39.4620   28.5050   42.7800 O   0  0  0  0  0  0  0  0  0  0  0  0
   37.0840   28.9290   43.2140 O   0  0  0  0  0  0  0  0  0  0  0  0
   38.8590   31.7120   39.3910 S   0  0  0  0  0  0  0  0  0  0  0  0
   41.0960   32.5990   38.1940 C   0  0  0  0  0  0  0  0  0  0  0  0
   40.2890   31.4740   38.3660 C   0  0  0  0  0  0  0  0  0  0  0  0
   40.6100   30.2820   37.7690 C   0  0  0  0  0  0  0  0  0  0  0  0
   41.7350   30.1390   36.9770 C   0  0  0  0  0  0  0  0  0  0  0  0
   42.5510   31.2810   36.8040 C   0  0  0  0  0  0  0  0  0  0  0  0
   42.2420   32.4970   37.4010 C   0  0  0  0  0  0  0  0  0  0  0  0
   43.6240   30.8960   35.9690 O   0  0  0  0  0  0  0  0  0  0  0  0
   43.2620   29.6620   35.4040 C   0  0  0  0  0  0  0  0  0  0  0  0
   42.2980   29.0820   36.2630 O   0  0  0  0  0  0  0  0  0  0  0  0
   40.9260   33.5780   38.6230 H   0  0  0  0  0  0  0  0  0  0  0  0
   39.9590   29.4320   37.9260 H   0  0  0  0  0  0  0  0  0  0  0  0
   42.8840   33.3450   37.2500 H   0  0  0  0  0  0  0  0  0  0  0  0
   42.9210   29.7280   34.3630 H   0  0  0  0  0  0  0  0  0  0  0  0
   44.1690   29.0180   35.4210 H   0  0  0  0  0  0  0  0  0  0  0  0
   34.8250   29.3510   37.4550 O   0  0  0  0  0  0  0  0  0  0  0  0
   33.5580   28.8940   37.8220 C   0  0  0  0  0  0  0  0  0  0  0  0
   32.5430   29.5580   37.2070 F   0  0  0  0  0  0  0  0  0  0  0  0
   33.5740   27.5140   37.5470 F   0  0  0  0  0  0  0  0  0  0  0  0
   33.4320   29.1030   39.1940 F   0  0  0  0  0  0  0  0  0  0  0  0
  1 20  1  0  0  0  0
  1  2  1  0  0  0  0
  2  7  1  0  0  0  0
  3  2  2  0  0  0  0
  3  9  1  0  0  0  0
  4  3  1  0  0  0  0
  5  6  1  0  0  0  0
  5  4  2  0  0  0  0
  6  1  2  0  0  0  0
  8 15  1  0  0  0  0
  8 17  1  0  0  0  0
  9  8  2  0  0  0  0
 10 12  2  0  0  0  0
 10  9  1  0  0  0  0
 11 10  1  0  0  0  0
 12 14  1  0  0  0  0
 13 12  1  0  0  0  0
 14 15  2  0  0  0  0
 17 19  2  0  0  0  0
 17 16  1  0  0  0  0
 18 17  2  0  0  0  0
 21 22  1  0  0  0  0
 21 30  1  0  0  0  0
 22 20  1  0  0  0  0
 23 31  1  0  0  0  0
 23 22  2  0  0  0  0
 24 23  1  0  0  0  0
 25 24  2  0  0  0  0
 25 26  1  0  0  0  0
 26 21  2  0  0  0  0
 27 25  1  0  0  0  0
 28 34  1  0  0  0  0
 28 27  1  0  0  0  0
 28 29  1  0  0  0  0
 29 24  1  0  0  0  0
 32 26  1  0  0  0  0
 33 28  1  0  0  0  0
 35 36  1  0  0  0  0
 35  5  1  0  0  0  0
 36 39  1  0  0  0  0
 37 36  1  0  0  0  0
 38 36  1  0  0  0  0
M  END
>  <minimizedAffinity>
-5.93579149

$$$$

 OpenBabel03242515413D

 39 42  0  0  0  0  0  0  0  0999 V2000
   35.3690   28.1610   37.5690 C   0  0  0  0  0  0  0  0  0  0  0  0
   35.9510   27.1980   38.3500 C   0  0  0  0  0  0  0  0  0  0  0  0
   36.9920   27.5680   39.1970 C   0  0  0  0  0  0  0  0  0  0  0  0
   37.3610   28.8820   39.1890 N   0  0  0  0  0  0  0  0  0  0  0  0
   36.7740   29.8020   38.4150 C   0  0  0  0  0  0  0  0  0  0  0  0
   35.7930   29.4180   37.6230 N   0  0  0  0  0  0  0  0  0  0  0  0
   35.5910   26.2030   38.3370 H   0  0  0  0  0  0  0  0  0  0  0  0
   37.6880   26.7600   41.5130 C   0  0  0  0  0  0  0  0  0  0  0  0
   37.7030   26.7380   40.1410 C   0  0  0  0  0  0  0  0  0  0  0  0
   38.5070   25.7290   39.5990 C   0  0  0  0  0  0  0  0  0  0  0  0
   38.5880   25.6220   38.5140 H   0  0  0  0  0  0  0  0  0  0  0  0
   39.2480   24.8090   40.3030 C   0  0  0  0  0  0  0  0  0  0  0  0
   39.8470   24.0570   39.8140 H   0  0  0  0  0  0  0  0  0  0  0  0
   39.2170   24.8550   41.6720 C   0  0  0  0  0  3  0  0  0  0  0  0
   38.4380   25.8280   42.2410 C   0  0  0  0  0  3  0  0  0  0  0  0
   35.5560   28.0960   41.5860 H   0  0  0  0  0  0  0  0  0  0  0  0
   36.6830   27.8620   42.4010 S   0  0  0  0  0  0  0  0  0  0  0  0
   36.1740   27.3270   43.6800 O   0  0  0  0  0  0  0  0  0  0  0  0
   37.2810   29.2210   42.5790 O   0  0  0  0  0  0  0  0  0  0  0  0
   34.0250   27.6130   36.4870 S   0  0  0  0  0  0  0  0  0  0  0  0
   32.7570   29.4400   34.9770 C   0  0  0  0  0  0  0  0  0  0  0  0
   32.8330   28.9110   36.2650 C   0  0  0  0  0  0  0  0  0  0  0  0
   32.0260   29.3840   37.2670 C   0  0  0  0  0  0  0  0  0  0  0  0
   31.1090   30.3970   37.0520 C   0  0  0  0  0  0  0  0  0  0  0  0
   31.0340   30.9320   35.7450 C   0  0  0  0  0  0  0  0  0  0  0  0
   31.8430   30.4650   34.7170 C   0  0  0  0  0  0  0  0  0  0  0  0
   30.0410   31.9390   35.7690 O   0  0  0  0  0  0  0  0  0  0  0  0
   29.7850   32.2080   37.1240 C   0  0  0  0  0  0  0  0  0  0  0  0
   30.1830   31.0630   37.8550 O   0  0  0  0  0  0  0  0  0  0  0  0
   33.3490   29.1320   34.1240 H   0  0  0  0  0  0  0  0  0  0  0  0
   32.1140   28.9490   38.2540 H   0  0  0  0  0  0  0  0  0  0  0  0
   31.7600   30.8920   33.7350 H   0  0  0  0  0  0  0  0  0  0  0  0
   30.2490   33.1310   37.4930 H   0  0  0  0  0  0  0  0  0  0  0  0
   28.6830   32.3180   37.2300 H   0  0  0  0  0  0  0  0  0  0  0  0
   37.1240   31.1330   38.3850 O   0  0  0  0  0  0  0  0  0  0  0  0
   37.1200   31.8810   39.5630 C   0  0  0  0  0  0  0  0  0  0  0  0
   36.1680   31.4880   40.4510 F   0  0  0  0  0  0  0  0  0  0  0  0
   38.4310   31.7810   40.0640 F   0  0  0  0  0  0  0  0  0  0  0  0
   36.8480   33.2000   39.2060 F   0  0  0  0  0  0  0  0  0  0  0  0
  1  6  2  0  0  0  0
  1  2  1  0  0  0  0
  2  3  2  0  0  0  0
  3  9  1  0  0  0  0
  4  3  1  0  0  0  0
  5  4  2  0  0  0  0
  6  5  1  0  0  0  0
  7  2  1  0  0  0  0
  8 15  1  0  0  0  0
  8 17  1  0  0  0  0
  9  8  2  0  0  0  0
 10  9  1  0  0  0  0
 10 12  2  0  0  0  0
 11 10  1  0  0  0  0
 12 14  1  0  0  0  0
 13 12  1  0  0  0  0
 14 15  2  0  0  0  0
 16 17  1  0  0  0  0
 17 19  2  0  0  0  0
 17 18  2  0  0  0  0
 20  1  1  0  0  0  0
 21 22  1  0  0  0  0
 22 20  1  0  0  0  0
 22 23  2  0  0  0  0
 23 31  1  0  0  0  0
 24 23  1  0  0  0  0
 24 29  1  0  0  0  0
 25 27  1  0  0  0  0
 25 24  2  0  0  0  0
 26 21  2  0  0  0  0
 26 25  1  0  0  0  0
 27 28  1  0  0  0  0
 28 34  1  0  0  0  0
 28 33  1  0  0  0  0
 28 29  1  0  0  0  0
 30 21  1  0  0  0  0
 32 26  1  0  0  0  0
 35  5  1  0  0  0  0
 35 36  1  0  0  0  0
 36 38  1  0  0  0  0
 36 37  1  0  0  0  0
 39 36  1  0  0  0  0
M  END
>  <minimizedAffinity>
-5.9121294

$$$$

 OpenBabel03242515413D

 39 42  0  0  0  0  0  0  0  0999 V2000
   36.4000   28.5000   37.9340 C   0  0  0  0  0  0  0  0  0  0  0  0
   36.8620   29.7880   38.0000 C   0  0  0  0  0  0  0  0  0  0  0  0
   37.5520   30.1880   39.1410 C   0  0  0  0  0  0  0  0  0  0  0  0
   37.7210   29.2560   40.1230 N   0  0  0  0  0  0  0  0  0  0  0  0
   37.2590   28.0040   40.0310 C   0  0  0  0  0  0  0  0  0  0  0  0
   36.6080   27.6580   38.9380 N   0  0  0  0  0  0  0  0  0  0  0  0
   36.7310   30.4500   37.1860 H   0  0  0  0  0  0  0  0  0  0  0  0
   39.4990   31.8190   39.3760 C   0  0  0  0  0  0  0  0  0  0  0  0
   38.1720   31.4670   39.3980 C   0  0  0  0  0  0  0  0  0  0  0  0
   37.3080   32.5320   39.6770 C   0  0  0  0  0  0  0  0  0  0  0  0
   36.2300   32.3620   39.7160 H   0  0  0  0  0  0  0  0  0  0  0  0
   37.6710   33.8350   39.9230 C   0  0  0  0  0  0  0  0  0  0  0  0
   36.9460   34.6050   40.1320 H   0  0  0  0  0  0  0  0  0  0  0  0
   39.0030   34.1580   39.8980 C   0  0  0  0  0  3  0  0  0  0  0  0
   39.8810   33.1420   39.6250 C   0  0  0  0  0  3  0  0  0  0  0  0
   40.4920   29.5340   39.7320 H   0  0  0  0  0  0  0  0  0  0  0  0
   40.7400   30.6820   38.9530 S   0  0  0  0  0  0  0  0  0  0  0  0
   40.7130   30.2470   37.5420 O   0  0  0  0  0  0  0  0  0  0  0  0
   42.1150   31.1010   39.3670 O   0  0  0  0  0  0  0  0  0  0  0  0
   35.5080   28.0440   36.4260 S   0  0  0  0  0  0  0  0  0  0  0  0
   33.5020   29.2610   35.1120 C   0  0  0  0  0  0  0  0  0  0  0  0
   33.9200   28.8370   36.3740 C   0  0  0  0  0  0  0  0  0  0  0  0
   33.1310   29.0370   37.4780 C   0  0  0  0  0  0  0  0  0  0  0  0
   31.8980   29.6590   37.3950 C   0  0  0  0  0  0  0  0  0  0  0  0
   31.4770   30.0870   36.1140 C   0  0  0  0  0  0  0  0  0  0  0  0
   32.2630   29.8940   34.9840 C   0  0  0  0  0  0  0  0  0  0  0  0
   30.2080   30.6860   36.2780 O   0  0  0  0  0  0  0  0  0  0  0  0
   30.0460   30.8980   37.6570 C   0  0  0  0  0  0  0  0  0  0  0  0
   30.9070   29.9890   38.3180 O   0  0  0  0  0  0  0  0  0  0  0  0
   34.0530   29.1480   34.1870 H   0  0  0  0  0  0  0  0  0  0  0  0
   33.4890   28.6940   38.4410 H   0  0  0  0  0  0  0  0  0  0  0  0
   31.9140   30.2300   34.0270 H   0  0  0  0  0  0  0  0  0  0  0  0
   30.2000   31.9380   37.9720 H   0  0  0  0  0  0  0  0  0  0  0  0
   28.9980   30.6220   37.9070 H   0  0  0  0  0  0  0  0  0  0  0  0
   37.4130   27.0430   41.0040 O   0  0  0  0  0  0  0  0  0  0  0  0
   36.9800   27.2950   42.3070 C   0  0  0  0  0  0  0  0  0  0  0  0
   37.9290   27.8740   43.0900 F   0  0  0  0  0  0  0  0  0  0  0  0
   35.8190   28.0760   42.1620 F   0  0  0  0  0  0  0  0  0  0  0  0
   36.6570   26.0640   42.8740 F   0  0  0  0  0  0  0  0  0  0  0  0
  1  2  2  0  0  0  0
  1  6  1  0  0  0  0
  2  3  1  0  0  0  0
  3  9  1  0  0  0  0
  3  4  2  0  0  0  0
  5  4  1  0  0  0  0
  5 35  1  0  0  0  0
  6  5  2  0  0  0  0
  7  2  1  0  0  0  0
  8  9  2  0  0  0  0
  8 15  1  0  0  0  0
  9 10  1  0  0  0  0
 10 11  1  0  0  0  0
 10 12  2  0  0  0  0
 12 13  1  0  0  0  0
 14 12  1  0  0  0  0
 15 14  2  0  0  0  0
 17 19  2  0  0  0  0
 17  8  1  0  0  0  0
 17 16  1  0  0  0  0
 18 17  2  0  0  0  0
 20  1  1  0  0  0  0
 21 22  1  0  0  0  0
 22 20  1  0  0  0  0
 22 23  2  0  0  0  0
 23 31  1  0  0  0  0
 24 23  1  0  0  0  0
 24 29  1  0  0  0  0
 25 27  1  0  0  0  0
 25 24  2  0  0  0  0
 26 21  2  0  0  0  0
 26 25  1  0  0  0  0
 27 28  1  0  0  0  0
 28 34  1  0  0  0  0
 28 33  1  0  0  0  0
 28 29  1  0  0  0  0
 30 21  1  0  0  0  0
 32 26  1  0  0  0  0
 35 36  1  0  0  0  0
 36 39  1  0  0  0  0
 36 37  1  0  0  0  0
 38 36  1  0  0  0  0
M  END
>  <minimizedAffinity>
-5.90834522

$$$$

 OpenBabel03242515413D

 39 42  0  0  0  0  0  0  0  0999 V2000
   38.2000   29.2700   41.7080 C   0  0  0  0  0  0  0  0  0  0  0  0
   37.5130   29.5950   40.5690 C   0  0  0  0  0  0  0  0  0  0  0  0
   36.6440   28.6520   40.0250 C   0  0  0  0  0  0  0  0  0  0  0  0
   36.5370   27.4580   40.6770 N   0  0  0  0  0  0  0  0  0  0  0  0
   37.2210   27.1680   41.7900 C   0  0  0  0  0  0  0  0  0  0  0  0
   38.0370   28.0820   42.2770 N   0  0  0  0  0  0  0  0  0  0  0  0
   37.6130   30.5530   40.1340 H   0  0  0  0  0  0  0  0  0  0  0  0
   36.1010   28.8190   37.5390 C   0  0  0  0  0  0  0  0  0  0  0  0
   35.7840   28.8000   38.8750 C   0  0  0  0  0  0  0  0  0  0  0  0
   34.4130   28.9060   39.1330 C   0  0  0  0  0  0  0  0  0  0  0  0
   34.0510   28.8990   40.1650 H   0  0  0  0  0  0  0  0  0  0  0  0
   33.4120   29.0250   38.1980 C   0  0  0  0  0  0  0  0  0  0  0  0
   32.3720   29.1030   38.4730 H   0  0  0  0  0  0  0  0  0  0  0  0
   33.7560   29.0450   36.8710 C   0  0  0  0  0  3  0  0  0  0  0  0
   35.0910   28.9410   36.5770 C   0  0  0  0  0  3  0  0  0  0  0  0
   38.2720   27.5680   37.7700 H   0  0  0  0  0  0  0  0  0  0  0  0
   37.7300   28.6030   36.9820 S   0  0  0  0  0  0  0  0  0  0  0  0
   37.8390   28.1610   35.5760 O   0  0  0  0  0  0  0  0  0  0  0  0
   38.6270   29.7670   37.2570 O   0  0  0  0  0  0  0  0  0  0  0  0
   39.3160   30.5370   42.3610 S   0  0  0  0  0  0  0  0  0  0  0  0
   39.4050   32.8030   40.9170 C   0  0  0  0  0  0  0  0  0  0  0  0
   39.9700   31.5340   41.0440 C   0  0  0  0  0  0  0  0  0  0  0  0
   40.9600   31.1170   40.1930 C   0  0  0  0  0  0  0  0  0  0  0  0
   41.4420   31.9260   39.1790 C   0  0  0  0  0  0  0  0  0  0  0  0
   40.8680   33.2120   39.0520 C   0  0  0  0  0  0  0  0  0  0  0  0
   39.8640   33.6510   39.9060 C   0  0  0  0  0  0  0  0  0  0  0  0
   41.5120   33.8440   37.9640 O   0  0  0  0  0  0  0  0  0  0  0  0
   42.2000   32.8340   37.2720 C   0  0  0  0  0  0  0  0  0  0  0  0
   42.4130   31.7760   38.1890 O   0  0  0  0  0  0  0  0  0  0  0  0
   38.6230   33.2190   41.5400 H   0  0  0  0  0  0  0  0  0  0  0  0
   41.3730   30.1250   40.3220 H   0  0  0  0  0  0  0  0  0  0  0  0
   39.4500   34.6350   39.7830 H   0  0  0  0  0  0  0  0  0  0  0  0
   41.7060   32.5040   36.3500 H   0  0  0  0  0  0  0  0  0  0  0  0
   43.1930   33.2510   36.9920 H   0  0  0  0  0  0  0  0  0  0  0  0
   37.1350   25.9740   42.4680 O   0  0  0  0  0  0  0  0  0  0  0  0
   37.4510   24.7790   41.8190 C   0  0  0  0  0  0  0  0  0  0  0  0
   38.1960   24.9540   40.6950 F   0  0  0  0  0  0  0  0  0  0  0  0
   38.0850   23.9900   42.7960 F   0  0  0  0  0  0  0  0  0  0  0  0
   36.2460   24.1900   41.4420 F   0  0  0  0  0  0  0  0  0  0  0  0
  1  6  1  0  0  0  0
  1 20  1  0  0  0  0
  2  1  2  0  0  0  0
  3  2  1  0  0  0  0
  3  4  2  0  0  0  0
  4  5  1  0  0  0  0
  5  6  2  0  0  0  0
  5 35  1  0  0  0  0
  7  2  1  0  0  0  0
  8  9  1  0  0  0  0
  9 10  2  0  0  0  0
  9  3  1  0  0  0  0
 10 11  1  0  0  0  0
 12 13  1  0  0  0  0
 12 10  1  0  0  0  0
 14 12  2  0  0  0  0
 15 14  1  0  0  0  0
 15  8  2  0  0  0  0
 17 19  2  0  0  0  0
 17  8  1  0  0  0  0
 17 16  1  0  0  0  0
 18 17  2  0  0  0  0
 21 22  1  0  0  0  0
 21 30  1  0  0  0  0
 22 20  1  0  0  0  0
 23 31  1  0  0  0  0
 23 22  2  0  0  0  0
 24 23  1  0  0  0  0
 25 24  2  0  0  0  0
 25 26  1  0  0  0  0
 26 21  2  0  0  0  0
 27 25  1  0  0  0  0
 28 27  1  0  0  0  0
 28 29  1  0  0  0  0
 29 24  1  0  0  0  0
 32 26  1  0  0  0  0
 33 28  1  0  0  0  0
 34 28  1  0  0  0  0
 36 35  1  0  0  0  0
 36 38  1  0  0  0  0
 37 36  1  0  0  0  0
 39 36  1  0  0  0  0
M  END
>  <minimizedAffinity>
-5.85781336

$$$$
