
 OpenBabel03252501513D

 48 51  0  0  1  0  0  0  0  0999 V2000
   47.3570   35.0300   42.5090 C   0  0  0  0  0  0  0  0  0  0  0  0
   47.3030   36.1320   42.6270 H   0  0  0  0  0  0  0  0  0  0  0  0
   47.3250   34.5010   43.4900 H   0  0  0  0  0  0  0  0  0  0  0  0
   48.5760   34.7400   41.7850 N   0  0  0  0  0  0  0  0  0  0  0  0
   49.6900   34.8020   42.7010 C   0  0  0  0  0  0  0  0  0  0  0  0
   50.6890   33.7530   42.2900 C   0  0  0  0  0  0  0  0  0  0  0  0
   49.8500   32.7700   41.5480 C   0  0  0  0  0  0  0  0  0  0  0  0
   48.5400   33.4380   41.2140 C   0  0  2  0  0  0  0  0  0  0  0  0
   49.3190   34.6170   43.7360 H   0  0  0  0  0  0  0  0  0  0  0  0
   50.1440   35.8150   42.6590 H   0  0  0  0  0  0  0  0  0  0  0  0
   51.1360   33.3240   43.2100 H   0  0  0  0  0  0  0  0  0  0  0  0
   51.5360   34.1550   41.7050 H   0  0  0  0  0  0  0  0  0  0  0  0
   50.3810   32.5120   40.5930 H   0  0  0  0  0  0  0  0  0  0  0  0
   49.7380   31.8150   42.1000 H   0  0  0  0  0  0  0  0  0  0  0  0
   47.7630   32.8560   41.7550 H   0  0  0  0  0  0  0  0  0  0  0  0
   47.6080   32.3150   39.1140 C   0  0  0  0  0  0  0  0  0  0  0  0
   48.2240   33.3580   39.7730 C   0  0  0  0  0  0  0  0  0  0  0  0
   48.5680   34.4460   38.9580 C   0  0  0  0  0  0  0  0  0  0  0  0
   49.0600   35.3030   39.4370 H   0  0  0  0  0  0  0  0  0  0  0  0
   48.3350   34.5260   37.6030 C   0  0  0  0  0  0  0  0  0  0  0  0
   48.6450   35.4200   37.0740 H   0  0  0  0  0  0  0  0  0  0  0  0
   47.7220   33.4740   36.9760 C   0  0  0  0  0  0  0  0  0  0  0  0
   47.3740   32.3910   37.7550 C   0  0  0  0  0  0  0  0  0  0  0  0
   47.9550   30.6660   41.1040 H   0  0  0  0  0  0  0  0  0  0  0  0
   47.1510   30.9350   40.0490 S   0  0  0  0  0  0  0  0  0  0  0  0
   46.8780   29.7320   39.1730 O   0  0  0  0  0  0  0  0  0  0  0  0
   45.7920   31.2450   40.6750 O   0  0  0  0  0  0  0  0  0  0  0  0
   44.9810   35.2910   41.9260 C   0  0  0  0  0  0  0  0  0  0  0  0
   46.1340   34.6230   41.7360 C   0  0  0  0  0  0  0  0  0  0  0  0
   43.7640   34.0410   40.0680 C   0  0  0  0  0  0  0  0  0  0  0  0
   43.7580   34.9220   41.1890 C   0  0  0  0  0  0  0  0  0  0  0  0
   42.5360   35.4550   41.6090 C   0  0  0  0  0  0  0  0  0  0  0  0
   41.4040   35.1130   40.9350 N   0  0  0  0  0  0  0  0  0  0  0  0
   41.4480   34.2850   39.8900 C   0  0  0  0  0  0  0  0  0  0  0  0
   42.6230   33.7600   39.4690 N   0  0  0  0  0  0  0  0  0  0  0  0
   44.7340   33.6540   39.7810 H   0  0  0  0  0  0  0  0  0  0  0  0
   42.5090   36.1250   42.4570 H   0  0  0  0  0  0  0  0  0  0  0  0
   39.7140   32.3590   40.8910 F   0  0  0  0  0  0  0  0  0  0  0  0
   39.3650   32.9630   39.7160 C   0  0  0  0  0  0  0  0  0  0  0  0
   40.2180   33.9360   39.1880 C   0  0  0  0  0  0  0  0  0  0  0  0
   39.9360   34.5880   38.0090 C   0  0  0  0  0  0  0  0  0  0  0  0
   38.7530   34.2330   37.3600 C   0  0  0  0  0  0  0  0  0  0  0  0
   37.8790   33.2620   37.8660 C   0  0  0  0  0  0  0  0  0  0  0  0
   38.1960   32.6260   39.0560 C   0  0  0  0  0  0  0  0  0  0  0  0
   40.5900   35.3440   37.5900 H   0  0  0  0  0  0  0  0  0  0  0  0
   38.5670   34.7760   36.4270 H   0  0  0  0  0  0  0  0  0  0  0  0
   36.9930   33.0500   37.3050 H   0  0  0  0  0  0  0  0  0  0  0  0
   37.5330   31.8880   39.4410 H   0  0  0  0  0  0  0  0  0  0  0  0
  1  2  1  0  0  0  0
  1  3  1  0  0  0  0
  4  1  1  0  0  0  0
  4  5  1  0  0  0  0
  5  9  1  0  0  0  0
  6  5  1  0  0  0  0
  6 11  1  0  0  0  0
  7 14  1  0  0  0  0
  7  6  1  0  0  0  0
  8  7  1  0  0  0  0
  8 15  1  1  0  0  0
  8  4  1  0  0  0  0
 10  5  1  0  0  0  0
 12  6  1  0  0  0  0
 13  7  1  0  0  0  0
 16 17  1  0  0  0  0
 16 25  1  0  0  0  0
 17  8  1  0  0  0  0
 18 19  1  0  0  0  0
 18 17  2  0  0  0  0
 20 18  1  0  0  0  0
 21 20  1  0  0  0  0
 22 20  2  0  0  0  0
 22 23  1  0  0  0  0
 23 16  2  0  0  0  0
 25 27  2  0  0  0  0
 25 24  1  0  0  0  0
 26 25  2  0  0  0  0
 29 28  2  0  0  0  0
 29  1  1  0  0  0  0
 30 31  1  0  0  0  0
 31 32  2  0  0  0  0
 31 28  1  0  0  0  0
 32 37  1  0  0  0  0
 33 32  1  0  0  0  0
 34 33  2  0  0  0  0
 35 34  1  0  0  0  0
 35 30  2  0  0  0  0
 36 30  1  0  0  0  0
 39 38  1  0  0  0  0
 40 39  1  0  0  0  0
 40 34  1  0  0  0  0
 41 40  2  0  0  0  0
 42 43  2  0  0  0  0
 42 41  1  0  0  0  0
 43 44  1  0  0  0  0
 44 48  1  0  0  0  0
 44 39  2  0  0  0  0
 45 41  1  0  0  0  0
 46 42  1  0  0  0  0
 47 43  1  0  0  0  0
M  END
>  <minimizedAffinity>
-6.45385933

>  <minimizedRMSD>
1.69888735

$$$$
