
 OpenBabel03252508593D

 48 50  0  0  1  0  0  0  0  0999 V2000
   47.0560   34.0610   42.9590 N   0  0  0  0  0  0  0  0  0  0  0  0
   46.7990   35.4060   42.5700 C   0  0  0  0  0  0  0  0  0  0  0  0
   45.3740   35.8570   42.6880 C   0  0  0  0  0  0  0  0  0  0  0  0
   44.6070   35.2170   43.8100 C   0  0  0  0  0  0  0  0  0  0  0  0
   45.4850   34.3210   44.6520 C   0  0  0  0  0  0  0  0  0  0  0  0
   46.0880   33.3150   43.6070 C   0  0  2  0  0  0  0  0  0  0  0  0
   47.1490   35.7010   41.5790 H   0  0  0  0  0  0  0  0  0  0  0  0
   47.3940   36.0560   43.2800 H   0  0  0  0  0  0  0  0  0  0  0  0
   45.3250   36.9530   42.8370 H   0  0  0  0  0  0  0  0  0  0  0  0
   44.8830   35.6870   41.6910 H   0  0  0  0  0  0  0  0  0  0  0  0
   43.8490   34.5480   43.3460 H   0  0  0  0  0  0  0  0  0  0  0  0
   44.0510   35.9500   44.4160 H   0  0  0  0  0  0  0  0  0  0  0  0
   44.8250   33.7460   45.3320 H   0  0  0  0  0  0  0  0  0  0  0  0
   46.3070   34.8470   45.1580 H   0  0  0  0  0  0  0  0  0  0  0  0
   45.2100   32.9580   43.0320 H   0  0  0  0  0  0  0  0  0  0  0  0
   48.0170   33.3830   42.1290 C   0  0  0  0  0  0  0  0  0  0  0  0
   48.6860   34.1730   41.7000 H   0  0  0  0  0  0  0  0  0  0  0  0
   48.6670   32.6820   42.6530 H   0  0  0  0  0  0  0  0  0  0  0  0
   47.2850   32.6520   41.0440 C   0  0  0  0  0  0  0  0  0  0  0  0
   46.2360   33.0070   40.9720 H   0  0  0  0  0  0  0  0  0  0  0  0
   47.2530   31.5520   41.1860 H   0  0  0  0  0  0  0  0  0  0  0  0
   49.3470   32.3220   37.9190 C   0  0  0  0  0  0  0  0  0  0  0  0
   48.7390   32.0400   39.1590 C   0  0  0  0  0  0  0  0  0  0  0  0
   47.9160   32.9680   39.7380 C   0  0  0  0  0  0  0  0  0  0  0  0
   47.7260   34.1190   39.0830 N   0  0  0  0  0  0  0  0  0  0  0  0
   48.3050   34.3930   37.8980 C   0  0  0  0  0  0  0  0  0  0  0  0
   49.1160   33.4990   37.3100 N   0  0  0  0  0  0  0  0  0  0  0  0
   50.0000   31.5890   37.4580 H   0  0  0  0  0  0  0  0  0  0  0  0
   48.9760   31.0720   39.5790 H   0  0  0  0  0  0  0  0  0  0  0  0
   48.0910   35.3560   37.4440 H   0  0  0  0  0  0  0  0  0  0  0  0
   46.6500   32.3520   44.4320 O   0  0  0  0  0  0  0  0  0  0  0  0
   44.6360   30.9370   43.4370 O   0  0  0  0  0  0  0  0  0  0  0  0
   45.8980   30.8590   44.3090 P   0  0  2  0  0  0  0  0  0  0  0  0
   45.3130   30.4850   45.8750 O   0  0  0  0  0  0  0  0  0  0  0  0
   44.8930   29.5790   45.7730 H   0  0  0  0  0  0  0  0  0  0  0  0
   46.9010   29.6290   43.8460 O   0  0  0  0  0  0  0  0  0  0  0  0
   48.0160   29.0050   41.9630 C   0  0  0  0  0  0  0  0  0  0  0  0
   48.1100   29.6720   43.1910 C   0  0  0  0  0  0  0  0  0  0  0  0
   49.3210   30.2340   43.5340 C   0  0  0  0  0  0  0  0  0  0  0  0
   49.2740   30.7200   44.4990 H   0  0  0  0  0  0  0  0  0  0  0  0
   50.4050   30.1380   42.6860 C   0  0  0  0  0  0  0  0  0  0  0  0
   51.3200   30.6080   43.0340 H   0  0  0  0  0  0  0  0  0  0  0  0
   50.3260   29.4840   41.4740 C   0  0  0  0  0  3  0  0  0  0  0  0
   49.1230   28.9140   41.1120 C   0  0  0  0  0  3  0  0  0  0  0  0
   46.8990   27.3360   40.3350 H   0  0  0  0  0  0  0  0  0  0  0  0
   46.5680   28.2180   41.3320 S   0  0  0  0  0  0  0  0  0  0  0  0
   45.8870   27.4240   42.4130 O   0  0  0  0  0  0  0  0  0  0  0  0
   45.6380   29.3050   40.8250 O   0  0  0  0  0  0  0  0  0  0  0  0
  1  6  1  0  0  0  0
  2  3  1  0  0  0  0
  2  1  1  0  0  0  0
  2  8  1  0  0  0  0
  3  9  1  0  0  0  0
  3  4  1  0  0  0  0
  4 12  1  0  0  0  0
  4  5  1  0  0  0  0
  5 14  1  0  0  0  0
  5 13  1  0  0  0  0
  6 15  1  6  0  0  0
  6 31  1  0  0  0  0
  6  5  1  0  0  0  0
  7  2  1  0  0  0  0
 10  3  1  0  0  0  0
 11  4  1  0  0  0  0
 16 18  1  0  0  0  0
 16  1  1  0  0  0  0
 17 16  1  0  0  0  0
 19 21  1  0  0  0  0
 19 16  1  0  0  0  0
 20 19  1  0  0  0  0
 22 23  1  0  0  0  0
 23 29  1  0  0  0  0
 23 24  2  0  0  0  0
 24 19  1  0  0  0  0
 25 24  1  0  0  0  0
 26 25  2  0  0  0  0
 27 26  1  0  0  0  0
 27 22  2  0  0  0  0
 28 22  1  0  0  0  0
 30 26  1  0  0  0  0
 33 32  2  6  0  0  0
 33 31  1  0  0  0  0
 33 34  1  0  0  0  0
 35 34  1  0  0  0  0
 36 33  1  0  0  0  0
 37 38  1  0  0  0  0
 38 39  2  0  0  0  0
 38 36  1  0  0  0  0
 39 40  1  0  0  0  0
 41 42  1  0  0  0  0
 41 39  1  0  0  0  0
 43 41  2  0  0  0  0
 44 43  1  0  0  0  0
 44 37  2  0  0  0  0
 45 46  1  0  0  0  0
 46 37  1  0  0  0  0
 46 47  2  0  0  0  0
 48 46  2  0  0  0  0
M  END
>  <minimizedAffinity>
-3.54243422

>  <minimizedRMSD>
2.16461754

$$$$
