
 OpenBabel03252502503D

 37 39  0  0  0  0  0  0  0  0999 V2000
   44.5900   36.2520   43.9170 C   0  0  0  0  0  0  0  0  0  0  0  0
   44.7990   35.4700   45.0570 C   0  0  0  0  0  0  0  0  0  0  0  0
   45.5220   34.2950   44.9050 C   0  0  0  0  0  0  0  0  0  0  0  0
   45.9880   33.9600   43.6750 N   0  0  0  0  0  0  0  0  0  0  0  0
   45.7670   34.7450   42.5850 C   0  0  0  0  0  0  0  0  0  0  0  0
   45.0710   35.8830   42.7140 N   0  0  0  0  0  0  0  0  0  0  0  0
   44.0420   37.1830   43.9290 H   0  0  0  0  0  0  0  0  0  0  0  0
   44.3860   35.8330   45.9670 H   0  0  0  0  0  0  0  0  0  0  0  0
   48.5200   35.6980   41.9740 Cl  0  0  0  0  0  0  0  0  0  0  0  0
   47.5530   34.7010   40.9080 C   0  0  0  0  0  0  0  0  0  0  0  0
   46.2990   34.3220   41.2920 C   0  0  0  0  0  0  0  0  0  0  0  0
   45.4990   33.5240   40.4600 C   0  0  0  0  0  0  0  0  0  0  0  0
   46.0500   33.1570   39.2610 C   0  0  0  0  0  0  0  0  0  0  0  0
   47.2950   33.5340   38.8790 C   0  0  0  0  0  0  0  0  0  0  0  0
   48.0640   34.3070   39.6890 C   0  0  0  0  0  0  0  0  0  0  0  0
   44.4920   33.2300   40.7890 H   0  0  0  0  0  0  0  0  0  0  0  0
   45.3760   32.5370   38.6600 H   0  0  0  0  0  0  0  0  0  0  0  0
   47.6000   33.1720   37.9080 H   0  0  0  0  0  0  0  0  0  0  0  0
   49.0440   34.5750   39.3360 H   0  0  0  0  0  0  0  0  0  0  0  0
   45.7430   33.4620   46.1200 C   0  0  0  0  0  0  0  0  0  0  0  0
   44.7570   33.1730   46.4760 H   0  0  0  0  0  0  0  0  0  0  0  0
   46.2720   34.0950   46.8540 H   0  0  0  0  0  0  0  0  0  0  0  0
   46.6390   32.2640   45.8420 C   0  0  0  0  0  0  0  0  0  0  0  0
   46.8200   32.3110   44.7310 H   0  0  0  0  0  0  0  0  0  0  0  0
   47.6180   32.3620   46.3420 H   0  0  0  0  0  0  0  0  0  0  0  0
   45.7980   30.6000   47.3960 C   0  0  0  0  0  0  0  0  0  0  0  0
   45.9540   30.9840   46.0820 C   0  0  0  0  0  0  0  0  0  0  0  0
   45.4740   30.1760   45.0450 C   0  0  0  0  0  0  0  0  0  0  0  0
   45.6220   30.5250   44.0350 H   0  0  0  0  0  0  0  0  0  0  0  0
   44.8320   28.9730   45.3220 C   0  0  0  0  0  0  0  0  0  0  0  0
   44.4590   28.3480   44.5030 H   0  0  0  0  0  0  0  0  0  0  0  0
   44.6830   28.5990   46.6580 C   0  0  0  0  0  0  0  0  0  0  0  0
   45.1570   29.3980   47.6730 C   0  0  0  0  0  0  0  0  0  0  0  0
   46.6110   32.8180   48.4840 H   0  0  0  0  0  0  0  0  0  0  0  0
   46.3460   31.5090   48.7640 S   0  0  0  0  0  0  0  0  0  0  0  0
   45.2590   31.5070   49.8170 O   0  0  0  0  0  0  0  0  0  0  0  0
   47.5550   30.8470   49.3370 O   0  0  0  0  0  0  0  0  0  0  0  0
  1  7  1  0  0  0  0
  1  2  1  0  0  0  0
  2  8  1  0  0  0  0
  3  2  2  0  0  0  0
  3 20  1  0  0  0  0
  4  3  1  0  0  0  0
  5  6  1  0  0  0  0
  5  4  2  0  0  0  0
  6  1  2  0  0  0  0
 10 11  1  0  0  0  0
 10  9  1  0  0  0  0
 11  5  1  0  0  0  0
 12 16  1  0  0  0  0
 12 11  2  0  0  0  0
 13 12  1  0  0  0  0
 14 13  2  0  0  0  0
 14 15  1  0  0  0  0
 15 10  2  0  0  0  0
 17 13  1  0  0  0  0
 18 14  1  0  0  0  0
 19 15  1  0  0  0  0
 20 21  1  0  0  0  0
 20 22  1  0  0  0  0
 23 27  1  0  0  0  0
 23 20  1  0  0  0  0
 23 25  1  0  0  0  0
 24 23  1  0  0  0  0
 26 33  1  0  0  0  0
 26 35  1  0  0  0  0
 27 26  2  0  0  0  0
 28 30  2  0  0  0  0
 28 27  1  0  0  0  0
 29 28  1  0  0  0  0
 30 32  1  0  0  0  0
 31 30  1  0  0  0  0
 32 33  2  0  0  0  0
 34 35  1  0  0  0  0
 35 37  2  0  0  0  0
 35 36  2  0  0  0  0
M  END
>  <minimizedAffinity>
-6.19033241

>  <minimizedRMSD>
1.84679461

$$$$
