
 OpenBabel03252506123D

 39 41  0  0  0  0  0  0  0  0999 V2000
   45.0890   33.7060   41.0380 F   0  0  0  0  0  0  0  0  0  0  0  0
   46.3140   34.2260   40.9640 C   0  0  0  0  0  0  0  0  0  0  0  0
   46.8610   34.8410   42.0870 C   0  0  0  0  0  0  0  0  0  0  0  0
   48.1320   35.4060   42.0970 C   0  0  0  0  0  0  0  0  0  0  0  0
   48.9070   35.3630   40.9380 C   0  0  0  0  0  0  0  0  0  0  0  0
   48.3280   34.7420   39.8420 C   0  0  0  0  0  0  0  0  0  0  0  0
   47.0880   34.1860   39.8160 C   0  0  0  0  0  0  0  0  0  0  0  0
   48.4920   35.8730   43.0210 H   0  0  0  0  0  0  0  0  0  0  0  0
   49.8660   35.8110   41.0130 H   0  0  0  0  0  0  0  0  0  0  0  0
   49.0380   34.7750   39.0230 H   0  0  0  0  0  0  0  0  0  0  0  0
   45.4930   33.9670   45.3780 C   0  0  0  0  0  0  0  0  0  0  0  0
   44.6370   35.0520   45.6360 C   0  0  0  0  0  0  0  0  0  0  0  0
   44.5320   36.0830   44.6750 C   0  0  0  0  0  0  0  0  0  0  0  0
   45.2840   35.9520   43.5390 N   0  0  0  0  0  0  0  0  0  0  0  0
   46.0870   34.9090   43.3280 C   0  0  0  0  0  0  0  0  0  0  0  0
   46.1870   33.9280   44.2410 N   0  0  0  0  0  0  0  0  0  0  0  0
   44.0440   35.1510   46.5310 H   0  0  0  0  0  0  0  0  0  0  0  0
   43.8870   36.9360   44.8270 H   0  0  0  0  0  0  0  0  0  0  0  0
   45.5910   32.9380   46.3480 N   0  0  0  0  0  0  0  0  0  0  0  0
   44.8850   32.1960   46.6280 H   0  0  0  0  0  0  0  0  0  0  0  0
   46.4730   32.8570   46.8960 H   0  0  0  0  0  0  0  0  0  0  0  0
   46.6200   33.6000   38.6730 O   0  0  0  0  0  0  0  0  0  0  0  0
   48.5120   34.1780   36.9120 O   0  0  0  0  0  0  0  0  0  0  0  0
   47.5260   33.1140   37.3460 P   0  0  2  0  0  0  0  0  0  0  0  0
   46.4500   32.7610   36.0620 O   0  0  0  0  0  0  0  0  0  0  0  0
   46.7830   33.1580   35.2210 H   0  0  0  0  0  0  0  0  0  0  0  0
   48.3810   31.6780   37.6000 O   0  0  0  0  0  0  0  0  0  0  0  0
   50.3000   31.1940   38.7970 C   0  0  0  0  0  0  0  0  0  0  0  0
   48.9030   31.2250   38.7800 C   0  0  0  0  0  0  0  0  0  0  0  0
   48.2600   30.8070   39.9210 C   0  0  0  0  0  0  0  0  0  0  0  0
   47.1830   30.8490   39.8590 H   0  0  0  0  0  0  0  0  0  0  0  0
   48.9450   30.3760   41.0340 C   0  0  0  0  0  0  0  0  0  0  0  0
   48.4080   30.0560   41.9110 H   0  0  0  0  0  0  0  0  0  0  0  0
   50.3270   30.3380   41.0690 C   0  0  0  0  0  3  0  0  0  0  0  0
   50.9700   30.7590   39.9220 C   0  0  0  0  0  3  0  0  0  0  0  0
   50.7280   32.8250   36.9020 H   0  0  0  0  0  0  0  0  0  0  0  0
   51.2790   31.6970   37.4130 S   0  0  0  0  0  0  0  0  0  0  0  0
   52.7000   31.9470   37.8970 O   0  0  0  0  0  0  0  0  0  0  0  0
   51.3650   30.5690   36.4390 O   0  0  0  0  0  0  0  0  0  0  0  0
  2  1  1  0  0  0  0
  2  3  1  0  0  0  0
  3  4  2  0  0  0  0
  3 15  1  0  0  0  0
  4  8  1  0  0  0  0
  5  9  1  0  0  0  0
  5  4  1  0  0  0  0
  6  5  2  0  0  0  0
  7  6  1  0  0  0  0
  7  2  2  0  0  0  0
 10  6  1  0  0  0  0
 11 12  1  0  0  0  0
 11 19  1  0  0  0  0
 12 17  1  0  0  0  0
 13 18  1  0  0  0  0
 13 12  2  0  0  0  0
 14 13  1  0  0  0  0
 15 14  2  0  0  0  0
 15 16  1  0  0  0  0
 16 11  2  0  0  0  0
 19 20  1  0  0  0  0
 19 21  1  0  0  0  0
 22  7  1  0  0  0  0
 24 23  2  6  0  0  0
 24 27  1  0  0  0  0
 24 22  1  0  0  0  0
 25 24  1  0  0  0  0
 26 25  1  0  0  0  0
 27 29  1  0  0  0  0
 28 35  1  0  0  0  0
 29 28  2  0  0  0  0
 29 30  1  0  0  0  0
 30 32  2  0  0  0  0
 31 30  1  0  0  0  0
 32 34  1  0  0  0  0
 32 33  1  0  0  0  0
 35 34  2  0  0  0  0
 36 37  1  0  0  0  0
 37 38  2  0  0  0  0
 37 28  1  0  0  0  0
 39 37  2  0  0  0  0
M  END
>  <minimizedAffinity>
-5.85790634

>  <minimizedRMSD>
2.1898067

$$$$
