
 OpenBabel03252508073D

 47 50  0  0  0  0  0  0  0  0999 V2000
   45.0120   35.4730   43.3730 C   0  0  0  0  0  0  0  0  0  0  0  0
   45.4590   34.1620   43.4040 C   0  0  0  0  0  0  0  0  0  0  0  0
   45.4780   33.4680   44.5890 C   0  0  0  0  0  0  0  0  0  0  0  0
   45.0340   34.1400   45.7100 N   0  0  0  0  0  0  0  0  0  0  0  0
   44.6050   35.3990   45.6770 C   0  0  0  0  0  0  0  0  0  0  0  0
   44.6010   36.0550   44.4970 N   0  0  0  0  0  0  0  0  0  0  0  0
   44.9830   36.0530   42.4580 H   0  0  0  0  0  0  0  0  0  0  0  0
   44.2630   35.8990   46.5780 H   0  0  0  0  0  0  0  0  0  0  0  0
   45.9020   32.1340   44.7860 C   0  0  0  0  0  0  0  0  0  0  0  0
   45.6280   31.0870   43.8990 C   0  0  0  0  0  0  0  0  0  0  0  0
   45.9790   29.7810   44.1200 C   0  0  0  0  0  0  0  0  0  0  0  0
   46.6430   29.4380   45.2760 C   0  0  0  0  0  0  0  0  0  0  0  0
   46.9290   30.4840   46.1830 C   0  0  0  0  0  0  0  0  0  0  0  0
   47.5870   30.1600   47.3440 C   0  0  0  0  0  0  0  0  0  0  0  0
   47.8990   31.1270   48.2780 C   0  0  0  0  0  0  0  0  0  0  0  0
   47.5370   32.4620   48.0300 C   0  0  0  0  0  0  0  0  0  0  0  0
   46.8640   32.7510   46.8300 C   0  0  0  0  0  0  0  0  0  0  0  0
   46.5660   31.7670   45.9270 C   0  0  0  0  0  0  0  0  0  0  0  0
   45.1040   31.3570   42.9870 H   0  0  0  0  0  0  0  0  0  0  0  0
   45.7370   29.0110   43.3900 H   0  0  0  0  0  0  0  0  0  0  0  0
   46.9470   28.4270   45.5140 H   0  0  0  0  0  0  0  0  0  0  0  0
   47.8590   29.1250   47.5170 H   0  0  0  0  0  0  0  0  0  0  0  0
   48.4170   30.7990   49.1720 H   0  0  0  0  0  0  0  0  0  0  0  0
   47.8210   33.1490   48.8100 H   0  0  0  0  0  0  0  0  0  0  0  0
   46.6970   33.8070   46.8150 H   0  0  0  0  0  0  0  0  0  0  0  0
   45.8670   33.6130   42.2180 O   0  0  0  0  0  0  0  0  0  0  0  0
   48.2110   32.5850   41.6700 O   0  0  0  0  0  0  0  0  0  0  0  0
   47.4030   33.8280   41.5380 P   0  0  1  0  0  0  0  0  0  0  0  0
   47.2870   34.1650   39.8810 O   0  0  0  0  0  0  0  0  0  0  0  0
   47.2780   32.6300   38.0910 C   0  0  0  0  0  0  0  0  0  0  0  0
   46.5630   33.3050   39.0660 C   0  0  0  0  0  0  0  0  0  0  0  0
   45.2080   33.0950   39.1740 C   0  0  0  0  0  0  0  0  0  0  0  0
   44.6560   33.6140   39.9240 H   0  0  0  0  0  0  0  0  0  0  0  0
   44.5680   32.2190   38.3180 C   0  0  0  0  0  0  0  0  0  0  0  0
   43.4960   32.0690   38.4230 H   0  0  0  0  0  0  0  0  0  0  0  0
   45.2640   31.5340   37.3370 C   0  0  0  0  0  3  0  0  0  0  0  0
   46.6230   31.7500   37.2350 C   0  0  0  0  0  3  0  0  0  0  0  0
   49.4170   34.0830   37.9800 H   0  0  0  0  0  0  0  0  0  0  0  0
   48.9990   32.7880   37.8270 S   0  0  0  0  0  0  0  0  0  0  0  0
   49.3310   32.2920   36.4320 O   0  0  0  0  0  0  0  0  0  0  0  0
   49.7690   31.9460   38.8030 O   0  0  0  0  0  0  0  0  0  0  0  0
   48.1430   35.1230   42.3040 O   0  0  0  0  0  0  0  0  0  0  0  0
   49.4510   35.5490   42.1340 C   0  0  0  0  0  0  0  0  0  0  0  0
   49.3760   36.4750   41.3050 O   0  0  0  0  0  0  0  0  0  0  0  0
   50.3520   34.7800   42.9560 N   0  0  0  0  0  0  0  0  0  0  0  0
   50.2770   34.9550   44.0020 H   0  0  0  0  0  0  0  0  0  0  0  0
   51.0710   34.0720   42.6680 H   0  0  0  0  0  0  0  0  0  0  0  0
  1  2  2  0  0  0  0
  1  6  1  0  0  0  0
  2  3  1  0  0  0  0
  3  9  1  0  0  0  0
  3  4  2  0  0  0  0
  5  4  1  0  0  0  0
  5  8  1  0  0  0  0
  6  5  2  0  0  0  0
  7  1  1  0  0  0  0
  9 18  1  0  0  0  0
 10 11  1  0  0  0  0
 10  9  2  0  0  0  0
 11 12  2  0  0  0  0
 12 21  1  0  0  0  0
 12 13  1  0  0  0  0
 13 14  1  0  0  0  0
 14 22  1  0  0  0  0
 14 15  2  0  0  0  0
 15 23  1  0  0  0  0
 16 15  1  0  0  0  0
 16 24  1  0  0  0  0
 17 16  2  0  0  0  0
 18 13  2  0  0  0  0
 18 17  1  0  0  0  0
 19 10  1  0  0  0  0
 20 11  1  0  0  0  0
 25 17  1  0  0  0  0
 26  2  1  0  0  0  0
 28 27  2  1  0  0  0
 28 26  1  0  0  0  0
 28 42  1  0  0  0  0
 29 28  1  0  0  0  0
 30 31  1  0  0  0  0
 31 32  2  0  0  0  0
 31 29  1  0  0  0  0
 32 33  1  0  0  0  0
 34 35  1  0  0  0  0
 34 32  1  0  0  0  0
 36 34  2  0  0  0  0
 37 36  1  0  0  0  0
 37 30  2  0  0  0  0
 39 38  1  0  0  0  0
 39 30  1  0  0  0  0
 39 41  2  0  0  0  0
 40 39  2  0  0  0  0
 43 42  1  0  0  0  0
 43 45  1  0  0  0  0
 44 43  2  0  0  0  0
 45 46  1  0  0  0  0
 47 45  1  0  0  0  0
M  END
>  <minimizedAffinity>
-6.26653099

>  <minimizedRMSD>
1.36526489

$$$$
