
 OpenBabel03242522323D

 42 45  0  0  0  0  0  0  0  0999 V2000
   40.7480   31.3240   38.6730 F   0  0  0  0  0  0  0  0  0  0  0  0
   40.1460   32.4290   39.1760 C   0  0  0  0  0  0  0  0  0  0  0  0
   38.8150   32.4590   39.4100 C   0  0  0  0  0  0  0  0  0  0  0  0
   38.2910   33.6200   39.9200 C   0  0  0  0  0  0  0  0  0  0  0  0
   39.0640   34.7240   40.1920 C   0  0  0  0  0  0  0  0  0  0  0  0
   40.4050   34.6210   39.9300 C   0  0  0  0  0  0  0  0  0  0  0  0
   40.9810   33.4990   39.4240 C   0  0  0  0  0  0  0  0  0  0  0  0
   37.2180   33.6520   40.1120 H   0  0  0  0  0  0  0  0  0  0  0  0
   38.6180   35.6280   40.5960 H   0  0  0  0  0  0  0  0  0  0  0  0
   41.0020   35.5050   40.1520 H   0  0  0  0  0  0  0  0  0  0  0  0
   42.3960   33.5170   39.1950 C   0  0  0  0  0  0  0  0  0  0  0  0
   43.2670   33.2710   40.2410 C   0  0  0  0  0  0  0  0  0  0  0  0
   44.6070   33.2880   40.0230 C   0  0  0  0  0  0  0  0  0  0  0  0
   45.1140   33.5490   38.7580 C   0  0  0  0  0  0  0  0  0  0  0  0
   44.2090   33.7930   37.7230 C   0  0  0  0  0  0  0  0  0  0  0  0
   42.8480   33.7760   37.9440 C   0  0  0  0  0  0  0  0  0  0  0  0
   42.8440   33.0720   41.2090 H   0  0  0  0  0  0  0  0  0  0  0  0
   45.2370   33.0880   40.8780 H   0  0  0  0  0  0  0  0  0  0  0  0
   46.1880   33.5510   38.6360 H   0  0  0  0  0  0  0  0  0  0  0  0
   44.7190   33.9820   36.7890 H   0  0  0  0  0  0  0  0  0  0  0  0
   42.1670   34.0410   36.7860 O   0  0  0  0  0  0  0  0  0  0  0  0
   42.0930   33.3520   36.0580 H   0  0  0  0  0  0  0  0  0  0  0  0
   36.5730   29.9490   37.6870 C   0  0  0  0  0  0  0  0  0  0  0  0
   37.3090   31.1110   37.9340 C   0  0  0  0  0  0  0  0  0  0  0  0
   38.0250   31.2560   39.1040 C   0  0  0  0  0  0  0  0  0  0  0  0
   37.9570   30.2180   39.9590 N   0  0  0  0  0  0  0  0  0  0  0  0
   37.2530   29.1060   39.7240 C   0  0  0  0  0  0  0  0  0  0  0  0
   36.5660   28.9770   38.5930 N   0  0  0  0  0  0  0  0  0  0  0  0
   36.0360   29.9080   36.7470 H   0  0  0  0  0  0  0  0  0  0  0  0
   37.3180   31.9060   37.2020 H   0  0  0  0  0  0  0  0  0  0  0  0
   38.0040   26.9080   40.6470 C   0  0  0  0  0  0  0  0  0  0  0  0
   37.2760   28.0660   40.7490 C   0  0  0  0  0  0  0  0  0  0  0  0
   36.5290   28.2370   41.8950 C   0  0  0  0  0  0  0  0  0  0  0  0
   35.9230   29.1450   42.0380 H   0  0  0  0  0  0  0  0  0  0  0  0
   36.4450   27.3520   42.9490 C   0  0  0  0  0  0  0  0  0  0  0  0
   35.8460   27.5370   43.8200 H   0  0  0  0  0  0  0  0  0  0  0  0
   37.1880   26.1870   42.8290 C   0  0  0  0  0  3  0  0  0  0  0  0
   37.9520   25.9900   41.6780 C   0  0  0  0  0  3  0  0  0  0  0  0
   38.4080   27.2410   38.1040 H   0  0  0  0  0  0  0  0  0  0  0  0
   38.9640   26.6400   39.2230 S   0  0  0  0  0  0  0  0  0  0  0  0
   39.2170   25.1680   38.9950 O   0  0  0  0  0  0  0  0  0  0  0  0
   40.2950   27.3250   39.4300 O   0  0  0  0  0  0  0  0  0  0  0  0
  1  2  1  0  0  0  0
  2  3  2  0  0  0  0
  2  7  1  0  0  0  0
  3  4  1  0  0  0  0
  4  8  1  0  0  0  0
  4  5  2  0  0  0  0
  5  9  1  0  0  0  0
  6 10  1  0  0  0  0
  6  5  1  0  0  0  0
  7  6  2  0  0  0  0
 11  7  1  0  0  0  0
 11 12  1  0  0  0  0
 12 17  1  0  0  0  0
 13 12  2  0  0  0  0
 13 18  1  0  0  0  0
 14 13  1  0  0  0  0
 15 16  1  0  0  0  0
 15 14  2  0  0  0  0
 16 11  2  0  0  0  0
 19 14  1  0  0  0  0
 20 15  1  0  0  0  0
 21 16  1  0  0  0  0
 22 21  1  0  0  0  0
 23 24  2  0  0  0  0
 23 28  1  0  0  0  0
 24 25  1  0  0  0  0
 25  3  1  0  0  0  0
 25 26  2  0  0  0  0
 27 26  1  0  0  0  0
 27 32  1  0  0  0  0
 28 27  2  0  0  0  0
 29 23  1  0  0  0  0
 30 24  1  0  0  0  0
 31 32  2  0  0  0  0
 31 38  1  0  0  0  0
 32 33  1  0  0  0  0
 33 34  1  0  0  0  0
 33 35  2  0  0  0  0
 35 36  1  0  0  0  0
 37 35  1  0  0  0  0
 38 37  2  0  0  0  0
 39 40  1  0  0  0  0
 40 42  2  0  0  0  0
 40 31  1  0  0  0  0
 41 40  2  0  0  0  0
M  END
>  <minimizedAffinity>
-6.68856478

$$$$

 OpenBabel03242522323D

 42 45  0  0  0  0  0  0  0  0999 V2000
   34.1710   29.6440   37.4990 F   0  0  0  0  0  0  0  0  0  0  0  0
   33.6220   28.5050   37.0080 C   0  0  0  0  0  0  0  0  0  0  0  0
   34.2960   27.3340   37.0290 C   0  0  0  0  0  0  0  0  0  0  0  0
   33.6620   26.2330   36.5110 C   0  0  0  0  0  0  0  0  0  0  0  0
   32.3940   26.2890   35.9850 C   0  0  0  0  0  0  0  0  0  0  0  0
   31.7710   27.5100   35.9960 C   0  0  0  0  0  0  0  0  0  0  0  0
   32.3480   28.6340   36.4950 C   0  0  0  0  0  0  0  0  0  0  0  0
   34.1990   25.2840   36.5240 H   0  0  0  0  0  0  0  0  0  0  0  0
   31.9200   25.3980   35.5820 H   0  0  0  0  0  0  0  0  0  0  0  0
   30.7670   27.5350   35.5760 H   0  0  0  0  0  0  0  0  0  0  0  0
   31.5910   29.8510   36.4510 C   0  0  0  0  0  0  0  0  0  0  0  0
   31.5690   30.6070   35.2930 C   0  0  0  0  0  0  0  0  0  0  0  0
   30.8510   31.7590   35.2510 C   0  0  0  0  0  0  0  0  0  0  0  0
   30.1370   32.1870   36.3610 C   0  0  0  0  0  0  0  0  0  0  0  0
   30.1790   31.4020   37.5150 C   0  0  0  0  0  0  0  0  0  0  0  0
   30.9070   30.2320   37.5570 C   0  0  0  0  0  0  0  0  0  0  0  0
   32.1320   30.2500   34.4490 H   0  0  0  0  0  0  0  0  0  0  0  0
   30.8720   32.3070   34.3200 H   0  0  0  0  0  0  0  0  0  0  0  0
   29.5810   33.1110   36.2780 H   0  0  0  0  0  0  0  0  0  0  0  0
   29.5870   31.8340   38.3090 H   0  0  0  0  0  0  0  0  0  0  0  0
   30.7970   29.6390   38.7860 O   0  0  0  0  0  0  0  0  0  0  0  0
   29.9530   29.1640   39.0600 H   0  0  0  0  0  0  0  0  0  0  0  0
   38.0500   27.1140   37.4240 C   0  0  0  0  0  0  0  0  0  0  0  0
   36.7820   27.1190   36.8350 C   0  0  0  0  0  0  0  0  0  0  0  0
   35.6520   27.3190   37.6010 C   0  0  0  0  0  0  0  0  0  0  0  0
   35.8670   27.5010   38.9180 N   0  0  0  0  0  0  0  0  0  0  0  0
   37.0790   27.4950   39.4810 C   0  0  0  0  0  0  0  0  0  0  0  0
   38.1620   27.3020   38.7350 N   0  0  0  0  0  0  0  0  0  0  0  0
   38.8900   26.9510   36.7590 H   0  0  0  0  0  0  0  0  0  0  0  0
   36.6830   26.9660   35.7700 H   0  0  0  0  0  0  0  0  0  0  0  0
   37.3410   28.9320   41.5100 C   0  0  0  0  0  0  0  0  0  0  0  0
   37.1510   27.7060   40.9240 C   0  0  0  0  0  0  0  0  0  0  0  0
   37.0240   26.6220   41.7680 C   0  0  0  0  0  0  0  0  0  0  0  0
   36.8690   25.6110   41.3610 H   0  0  0  0  0  0  0  0  0  0  0  0
   37.0690   26.6560   43.1450 C   0  0  0  0  0  0  0  0  0  0  0  0
   36.9630   25.7780   43.7540 H   0  0  0  0  0  0  0  0  0  0  0  0
   37.2610   27.9030   43.7190 C   0  0  0  0  0  3  0  0  0  0  0  0
   37.3940   29.0160   42.8880 C   0  0  0  0  0  3  0  0  0  0  0  0
   37.7880   29.9880   39.1810 H   0  0  0  0  0  0  0  0  0  0  0  0
   37.5080   30.3320   40.4940 S   0  0  0  0  0  0  0  0  0  0  0  0
   38.5330   31.2970   41.0460 O   0  0  0  0  0  0  0  0  0  0  0  0
   36.1700   31.0320   40.4510 O   0  0  0  0  0  0  0  0  0  0  0  0
  2  3  1  0  0  0  0
  2  1  1  0  0  0  0
  3 25  1  0  0  0  0
  4  8  1  0  0  0  0
  4  3  2  0  0  0  0
  5  6  2  0  0  0  0
  5  4  1  0  0  0  0
  6  7  1  0  0  0  0
  7  2  2  0  0  0  0
  9  5  1  0  0  0  0
 10  6  1  0  0  0  0
 11  7  1  0  0  0  0
 11 16  1  0  0  0  0
 12 11  2  0  0  0  0
 13 12  1  0  0  0  0
 13 14  2  0  0  0  0
 14 15  1  0  0  0  0
 15 16  2  0  0  0  0
 15 20  1  0  0  0  0
 16 21  1  0  0  0  0
 17 12  1  0  0  0  0
 18 13  1  0  0  0  0
 19 14  1  0  0  0  0
 21 22  1  0  0  0  0
 23 28  1  0  0  0  0
 24 23  2  0  0  0  0
 24 25  1  0  0  0  0
 25 26  2  0  0  0  0
 26 27  1  0  0  0  0
 27 32  1  0  0  0  0
 28 27  2  0  0  0  0
 29 23  1  0  0  0  0
 30 24  1  0  0  0  0
 31 38  1  0  0  0  0
 32 31  2  0  0  0  0
 32 33  1  0  0  0  0
 33 35  2  0  0  0  0
 34 33  1  0  0  0  0
 35 37  1  0  0  0  0
 35 36  1  0  0  0  0
 38 37  2  0  0  0  0
 39 40  1  0  0  0  0
 40 41  2  0  0  0  0
 40 31  1  0  0  0  0
 42 40  2  0  0  0  0
M  END
>  <minimizedAffinity>
-6.67899895

$$$$

 OpenBabel03242522323D

 42 45  0  0  0  0  0  0  0  0999 V2000
   40.1920   30.7600   38.6540 F   0  0  0  0  0  0  0  0  0  0  0  0
   39.2570   31.6720   39.0180 C   0  0  0  0  0  0  0  0  0  0  0  0
   37.9380   31.3720   38.9980 C   0  0  0  0  0  0  0  0  0  0  0  0
   37.0640   32.3560   39.3830 C   0  0  0  0  0  0  0  0  0  0  0  0
   37.4810   33.6050   39.7760 C   0  0  0  0  0  0  0  0  0  0  0  0
   38.8320   33.8380   39.7710 C   0  0  0  0  0  0  0  0  0  0  0  0
   39.7460   32.9030   39.4000 C   0  0  0  0  0  0  0  0  0  0  0  0
   35.9980   32.1230   39.3700 H   0  0  0  0  0  0  0  0  0  0  0  0
   36.7620   34.3630   40.0750 H   0  0  0  0  0  0  0  0  0  0  0  0
   39.1440   34.8320   40.0860 H   0  0  0  0  0  0  0  0  0  0  0  0
   41.1310   33.2700   39.4390 C   0  0  0  0  0  0  0  0  0  0  0  0
   41.7290   33.8260   38.3230 C   0  0  0  0  0  0  0  0  0  0  0  0
   43.0410   34.1740   38.3610 C   0  0  0  0  0  0  0  0  0  0  0  0
   43.7910   33.9770   39.5120 C   0  0  0  0  0  0  0  0  0  0  0  0
   43.1590   33.4130   40.6220 C   0  0  0  0  0  0  0  0  0  0  0  0
   41.8270   33.0610   40.5830 C   0  0  0  0  0  0  0  0  0  0  0  0
   41.1220   33.9660   37.4460 H   0  0  0  0  0  0  0  0  0  0  0  0
   43.4520   34.6030   37.4590 H   0  0  0  0  0  0  0  0  0  0  0  0
   44.8310   34.2700   39.4920 H   0  0  0  0  0  0  0  0  0  0  0  0
   43.8410   33.3100   41.4540 H   0  0  0  0  0  0  0  0  0  0  0  0
   41.4320   32.5320   41.7840 O   0  0  0  0  0  0  0  0  0  0  0  0
   41.2900   33.1180   42.5880 H   0  0  0  0  0  0  0  0  0  0  0  0
   36.8160   28.4280   36.9080 C   0  0  0  0  0  0  0  0  0  0  0  0
   37.1930   29.7250   37.2680 C   0  0  0  0  0  0  0  0  0  0  0  0
   37.5350   30.0230   38.5700 C   0  0  0  0  0  0  0  0  0  0  0  0
   37.4780   28.9930   39.4360 N   0  0  0  0  0  0  0  0  0  0  0  0
   37.1180   27.7530   39.0920 C   0  0  0  0  0  0  0  0  0  0  0  0
   36.7890   27.4760   37.8350 N   0  0  0  0  0  0  0  0  0  0  0  0
   36.5610   28.2710   35.8660 H   0  0  0  0  0  0  0  0  0  0  0  0
   37.2160   30.5050   36.5190 H   0  0  0  0  0  0  0  0  0  0  0  0
   37.5530   26.9590   41.4230 C   0  0  0  0  0  0  0  0  0  0  0  0
   37.1030   26.7410   40.1450 C   0  0  0  0  0  0  0  0  0  0  0  0
   36.6120   25.4840   39.8600 C   0  0  0  0  0  0  0  0  0  0  0  0
   36.2350   25.2450   38.8540 H   0  0  0  0  0  0  0  0  0  0  0  0
   36.5310   24.4260   40.7410 C   0  0  0  0  0  0  0  0  0  0  0  0
   36.1380   23.4660   40.4640 H   0  0  0  0  0  0  0  0  0  0  0  0
   36.9900   24.6650   42.0270 C   0  0  0  0  0  3  0  0  0  0  0  0
   37.4930   25.9280   42.3400 C   0  0  0  0  0  3  0  0  0  0  0  0
   38.0810   29.4190   40.7820 H   0  0  0  0  0  0  0  0  0  0  0  0
   38.1830   28.5250   41.8370 S   0  0  0  0  0  0  0  0  0  0  0  0
   39.6010   28.4330   42.3510 O   0  0  0  0  0  0  0  0  0  0  0  0
   37.3140   29.0950   42.9340 O   0  0  0  0  0  0  0  0  0  0  0  0
  1  2  1  0  0  0  0
  2  7  1  0  0  0  0
  3  2  2  0  0  0  0
  3  4  1  0  0  0  0
  4  5  2  0  0  0  0
  5  9  1  0  0  0  0
  6  5  1  0  0  0  0
  6 10  1  0  0  0  0
  7 11  1  0  0  0  0
  7  6  2  0  0  0  0
  8  4  1  0  0  0  0
 11 16  1  0  0  0  0
 12 13  1  0  0  0  0
 12 11  2  0  0  0  0
 13 14  2  0  0  0  0
 14 15  1  0  0  0  0
 15 20  1  0  0  0  0
 16 15  2  0  0  0  0
 16 21  1  0  0  0  0
 17 12  1  0  0  0  0
 18 13  1  0  0  0  0
 19 14  1  0  0  0  0
 21 22  1  0  0  0  0
 23 24  2  0  0  0  0
 23 28  1  0  0  0  0
 24 25  1  0  0  0  0
 25  3  1  0  0  0  0
 25 26  2  0  0  0  0
 27 26  1  0  0  0  0
 27 32  1  0  0  0  0
 28 27  2  0  0  0  0
 29 23  1  0  0  0  0
 30 24  1  0  0  0  0
 31 40  1  0  0  0  0
 31 38  1  0  0  0  0
 32 31  2  0  0  0  0
 33 32  1  0  0  0  0
 33 35  2  0  0  0  0
 34 33  1  0  0  0  0
 35 37  1  0  0  0  0
 36 35  1  0  0  0  0
 37 38  2  0  0  0  0
 39 40  1  0  0  0  0
 40 41  2  0  0  0  0
 40 42  2  0  0  0  0
M  END
>  <minimizedAffinity>
-6.66834736

$$$$

 OpenBabel03242522323D

 42 45  0  0  0  0  0  0  0  0999 V2000
   40.9320   31.4470   38.7240 F   0  0  0  0  0  0  0  0  0  0  0  0
   40.2320   32.5060   39.2000 C   0  0  0  0  0  0  0  0  0  0  0  0
   38.8990   32.4310   39.4090 C   0  0  0  0  0  0  0  0  0  0  0  0
   38.2730   33.5520   39.8920 C   0  0  0  0  0  0  0  0  0  0  0  0
   38.9480   34.7190   40.1600 C   0  0  0  0  0  0  0  0  0  0  0  0
   40.2980   34.7230   39.9230 C   0  0  0  0  0  0  0  0  0  0  0  0
   40.9720   33.6440   39.4450 C   0  0  0  0  0  0  0  0  0  0  0  0
   37.1970   33.5000   40.0640 H   0  0  0  0  0  0  0  0  0  0  0  0
   38.4230   35.5900   40.5420 H   0  0  0  0  0  0  0  0  0  0  0  0
   40.8170   35.6550   40.1410 H   0  0  0  0  0  0  0  0  0  0  0  0
   42.3850   33.7740   39.2410 C   0  0  0  0  0  0  0  0  0  0  0  0
   43.2480   33.7010   40.3190 C   0  0  0  0  0  0  0  0  0  0  0  0
   44.5860   33.8240   40.1250 C   0  0  0  0  0  0  0  0  0  0  0  0
   45.0990   34.0210   38.8510 C   0  0  0  0  0  0  0  0  0  0  0  0
   44.2030   34.0910   37.7830 C   0  0  0  0  0  0  0  0  0  0  0  0
   42.8450   33.9660   37.9810 C   0  0  0  0  0  0  0  0  0  0  0  0
   42.8200   33.5470   41.2940 H   0  0  0  0  0  0  0  0  0  0  0  0
   45.2090   33.7580   41.0060 H   0  0  0  0  0  0  0  0  0  0  0  0
   46.1720   34.1130   38.7490 H   0  0  0  0  0  0  0  0  0  0  0  0
   44.7180   34.2460   36.8460 H   0  0  0  0  0  0  0  0  0  0  0  0
   42.1730   34.0660   36.7910 O   0  0  0  0  0  0  0  0  0  0  0  0
   42.1800   33.3130   36.1250 H   0  0  0  0  0  0  0  0  0  0  0  0
   36.5360   29.8500   37.9780 C   0  0  0  0  0  0  0  0  0  0  0  0
   37.1530   31.0780   38.2330 C   0  0  0  0  0  0  0  0  0  0  0  0
   38.2150   31.1630   39.1090 C   0  0  0  0  0  0  0  0  0  0  0  0
   38.5920   30.0030   39.6790 N   0  0  0  0  0  0  0  0  0  0  0  0
   38.0020   28.8290   39.4360 C   0  0  0  0  0  0  0  0  0  0  0  0
   36.9790   28.7570   38.5910 N   0  0  0  0  0  0  0  0  0  0  0  0
   35.7080   29.8620   37.2780 H   0  0  0  0  0  0  0  0  0  0  0  0
   36.7970   31.9710   37.7390 H   0  0  0  0  0  0  0  0  0  0  0  0
   38.1600   27.2960   41.4050 C   0  0  0  0  0  0  0  0  0  0  0  0
   38.5240   27.6560   40.1330 C   0  0  0  0  0  0  0  0  0  0  0  0
   39.4410   26.8490   39.4920 C   0  0  0  0  0  0  0  0  0  0  0  0
   39.7740   27.0820   38.4690 H   0  0  0  0  0  0  0  0  0  0  0  0
   40.0240   25.7120   40.0110 C   0  0  0  0  0  0  0  0  0  0  0  0
   40.7330   25.1190   39.4650 H   0  0  0  0  0  0  0  0  0  0  0  0
   39.6430   25.3640   41.2980 C   0  0  0  0  0  3  0  0  0  0  0  0
   38.7180   26.1650   41.9680 C   0  0  0  0  0  3  0  0  0  0  0  0
   35.9960   28.7310   41.4290 H   0  0  0  0  0  0  0  0  0  0  0  0
   37.0090   28.2790   42.2600 S   0  0  0  0  0  0  0  0  0  0  0  0
   37.6850   29.4210   42.9830 O   0  0  0  0  0  0  0  0  0  0  0  0
   36.3280   27.4020   43.2870 O   0  0  0  0  0  0  0  0  0  0  0  0
  1  2  1  0  0  0  0
  2  3  2  0  0  0  0
  2  7  1  0  0  0  0
  3  4  1  0  0  0  0
  4  8  1  0  0  0  0
  4  5  2  0  0  0  0
  5  9  1  0  0  0  0
  6 10  1  0  0  0  0
  6  5  1  0  0  0  0
  7  6  2  0  0  0  0
 11  7  1  0  0  0  0
 11 12  1  0  0  0  0
 12 17  1  0  0  0  0
 13 12  2  0  0  0  0
 13 18  1  0  0  0  0
 14 13  1  0  0  0  0
 15 16  1  0  0  0  0
 15 14  2  0  0  0  0
 16 11  2  0  0  0  0
 19 14  1  0  0  0  0
 20 15  1  0  0  0  0
 21 16  1  0  0  0  0
 22 21  1  0  0  0  0
 23 24  2  0  0  0  0
 23 28  1  0  0  0  0
 24 25  1  0  0  0  0
 25  3  1  0  0  0  0
 25 26  2  0  0  0  0
 27 26  1  0  0  0  0
 27 32  1  0  0  0  0
 28 27  2  0  0  0  0
 29 23  1  0  0  0  0
 30 24  1  0  0  0  0
 31 38  1  0  0  0  0
 31 40  1  0  0  0  0
 32 31  2  0  0  0  0
 33 35  2  0  0  0  0
 33 32  1  0  0  0  0
 34 33  1  0  0  0  0
 35 37  1  0  0  0  0
 36 35  1  0  0  0  0
 37 38  2  0  0  0  0
 39 40  1  0  0  0  0
 40 41  2  0  0  0  0
 40 42  2  0  0  0  0
M  END
>  <minimizedAffinity>
-6.64976835

$$$$

 OpenBabel03242522323D

 42 45  0  0  0  0  0  0  0  0999 V2000
   40.3950   30.4850   40.6900 F   0  0  0  0  0  0  0  0  0  0  0  0
   39.2310   31.1160   40.3990 C   0  0  0  0  0  0  0  0  0  0  0  0
   38.0410   30.6180   40.8040 C   0  0  0  0  0  0  0  0  0  0  0  0
   36.9150   31.3230   40.4640 C   0  0  0  0  0  0  0  0  0  0  0  0
   36.9630   32.4910   39.7420 C   0  0  0  0  0  0  0  0  0  0  0  0
   38.2030   32.9370   39.3650 C   0  0  0  0  0  0  0  0  0  0  0  0
   39.3540   32.2820   39.6710 C   0  0  0  0  0  0  0  0  0  0  0  0
   35.9510   30.9280   40.7870 H   0  0  0  0  0  0  0  0  0  0  0  0
   36.0520   33.0260   39.4890 H   0  0  0  0  0  0  0  0  0  0  0  0
   38.2230   33.8640   38.7940 H   0  0  0  0  0  0  0  0  0  0  0  0
   40.5890   32.8510   39.2200 C   0  0  0  0  0  0  0  0  0  0  0  0
   41.4620   33.4160   40.1320 C   0  0  0  0  0  0  0  0  0  0  0  0
   42.6330   33.9550   39.7040 C   0  0  0  0  0  0  0  0  0  0  0  0
   42.9640   33.9440   38.3560 C   0  0  0  0  0  0  0  0  0  0  0  0
   42.0630   33.3660   37.4610 C   0  0  0  0  0  0  0  0  0  0  0  0
   40.8750   32.8190   37.8960 C   0  0  0  0  0  0  0  0  0  0  0  0
   41.1770   33.4090   41.1690 H   0  0  0  0  0  0  0  0  0  0  0  0
   43.2730   34.3810   40.4630 H   0  0  0  0  0  0  0  0  0  0  0  0
   43.9070   34.3850   38.0660 H   0  0  0  0  0  0  0  0  0  0  0  0
   42.4280   33.4160   36.4450 H   0  0  0  0  0  0  0  0  0  0  0  0
   40.1600   32.3150   36.8410 O   0  0  0  0  0  0  0  0  0  0  0  0
   40.4320   31.4570   36.3930 H   0  0  0  0  0  0  0  0  0  0  0  0
   38.0430   28.1220   43.6430 C   0  0  0  0  0  0  0  0  0  0  0  0
   38.0510   29.3380   42.9540 C   0  0  0  0  0  0  0  0  0  0  0  0
   38.0350   29.3640   41.5750 C   0  0  0  0  0  0  0  0  0  0  0  0
   38.0140   28.1610   40.9710 N   0  0  0  0  0  0  0  0  0  0  0  0
   38.0070   26.9990   41.6300 C   0  0  0  0  0  0  0  0  0  0  0  0
   38.0230   26.9830   42.9580 N   0  0  0  0  0  0  0  0  0  0  0  0
   38.0570   28.1810   44.7260 H   0  0  0  0  0  0  0  0  0  0  0  0
   38.0690   30.2670   43.5040 H   0  0  0  0  0  0  0  0  0  0  0  0
   39.0990   25.0310   40.5400 C   0  0  0  0  0  0  0  0  0  0  0  0
   37.9840   25.7740   40.8340 C   0  0  0  0  0  0  0  0  0  0  0  0
   36.7800   25.3200   40.3370 C   0  0  0  0  0  0  0  0  0  0  0  0
   35.8480   25.8700   40.5380 H   0  0  0  0  0  0  0  0  0  0  0  0
   36.5930   24.1870   39.5730 C   0  0  0  0  0  0  0  0  0  0  0  0
   35.6300   23.8790   39.2130 H   0  0  0  0  0  0  0  0  0  0  0  0
   37.7310   23.4490   39.2870 C   0  0  0  0  0  3  0  0  0  0  0  0
   38.9610   23.8880   39.7770 C   0  0  0  0  0  3  0  0  0  0  0  0
   40.6780   26.9290   41.3440 H   0  0  0  0  0  0  0  0  0  0  0  0
   40.6430   25.5580   41.1390 S   0  0  0  0  0  0  0  0  0  0  0  0
   41.7700   25.1020   40.2430 O   0  0  0  0  0  0  0  0  0  0  0  0
   40.8410   24.9410   42.5050 O   0  0  0  0  0  0  0  0  0  0  0  0
  2  1  1  0  0  0  0
  2  3  1  0  0  0  0
  3 25  1  0  0  0  0
  4  8  1  0  0  0  0
  4  3  2  0  0  0  0
  5  4  1  0  0  0  0
  6  7  1  0  0  0  0
  6  5  2  0  0  0  0
  7  2  2  0  0  0  0
  9  5  1  0  0  0  0
 10  6  1  0  0  0  0
 11  7  1  0  0  0  0
 11 12  1  0  0  0  0
 12 17  1  0  0  0  0
 13 12  2  0  0  0  0
 13 18  1  0  0  0  0
 14 13  1  0  0  0  0
 15 16  1  0  0  0  0
 15 14  2  0  0  0  0
 16 11  2  0  0  0  0
 19 14  1  0  0  0  0
 20 15  1  0  0  0  0
 21 16  1  0  0  0  0
 22 21  1  0  0  0  0
 23 29  1  0  0  0  0
 24 30  1  0  0  0  0
 24 23  2  0  0  0  0
 25 24  1  0  0  0  0
 26 25  2  0  0  0  0
 26 27  1  0  0  0  0
 27 28  2  0  0  0  0
 28 23  1  0  0  0  0
 31 32  1  0  0  0  0
 31 40  1  0  0  0  0
 32 27  1  0  0  0  0
 33 34  1  0  0  0  0
 33 32  2  0  0  0  0
 35 33  1  0  0  0  0
 36 35  1  0  0  0  0
 37 35  2  0  0  0  0
 37 38  1  0  0  0  0
 38 31  2  0  0  0  0
 40 39  1  0  0  0  0
 40 42  2  0  0  0  0
 41 40  2  0  0  0  0
M  END
>  <minimizedAffinity>
-6.61157084

$$$$

 OpenBabel03242522323D

 42 45  0  0  0  0  0  0  0  0999 V2000
   37.7070   27.8000   39.8780 F   0  0  0  0  0  0  0  0  0  0  0  0
   37.5210   27.7660   41.2200 C   0  0  0  0  0  0  0  0  0  0  0  0
   37.2360   26.6100   41.8610 C   0  0  0  0  0  0  0  0  0  0  0  0
   37.0650   26.6690   43.2210 C   0  0  0  0  0  0  0  0  0  0  0  0
   37.1700   27.8420   43.9290 C   0  0  0  0  0  0  0  0  0  0  0  0
   37.4600   28.9750   43.2140 C   0  0  0  0  0  0  0  0  0  0  0  0
   37.6410   28.9780   41.8670 C   0  0  0  0  0  0  0  0  0  0  0  0
   36.8350   25.7410   43.7450 H   0  0  0  0  0  0  0  0  0  0  0  0
   37.0280   27.8550   45.0060 H   0  0  0  0  0  0  0  0  0  0  0  0
   37.5410   29.8940   43.7910 H   0  0  0  0  0  0  0  0  0  0  0  0
   37.9420   30.2290   41.2350 C   0  0  0  0  0  0  0  0  0  0  0  0
   39.2490   30.5400   40.9090 C   0  0  0  0  0  0  0  0  0  0  0  0
   39.5330   31.7250   40.3090 C   0  0  0  0  0  0  0  0  0  0  0  0
   38.5210   32.6290   40.0180 C   0  0  0  0  0  0  0  0  0  0  0  0
   37.2120   32.2860   40.3590 C   0  0  0  0  0  0  0  0  0  0  0  0
   36.9240   31.0830   40.9680 C   0  0  0  0  0  0  0  0  0  0  0  0
   40.0100   29.8190   41.1470 H   0  0  0  0  0  0  0  0  0  0  0  0
   40.5720   31.9120   40.0790 H   0  0  0  0  0  0  0  0  0  0  0  0
   38.7990   33.5590   39.5400 H   0  0  0  0  0  0  0  0  0  0  0  0
   36.5150   33.0650   40.0840 H   0  0  0  0  0  0  0  0  0  0  0  0
   35.5790   30.9710   41.2030 O   0  0  0  0  0  0  0  0  0  0  0  0
   34.9340   30.7870   40.4550 H   0  0  0  0  0  0  0  0  0  0  0  0
   37.7150   23.0870   40.5750 C   0  0  0  0  0  0  0  0  0  0  0  0
   37.8470   24.2350   41.3610 C   0  0  0  0  0  0  0  0  0  0  0  0
   37.1320   25.3760   41.0640 C   0  0  0  0  0  0  0  0  0  0  0  0
   36.3250   25.2940   39.9900 N   0  0  0  0  0  0  0  0  0  0  0  0
   36.1990   24.1970   39.2380 C   0  0  0  0  0  0  0  0  0  0  0  0
   36.8920   23.1010   39.5320 N   0  0  0  0  0  0  0  0  0  0  0  0
   38.3080   22.2290   40.8700 H   0  0  0  0  0  0  0  0  0  0  0  0
   38.5150   24.2300   42.2110 H   0  0  0  0  0  0  0  0  0  0  0  0
   34.0620   23.6360   38.0670 C   0  0  0  0  0  0  0  0  0  0  0  0
   35.2830   24.2610   38.1020 C   0  0  0  0  0  0  0  0  0  0  0  0
   35.6460   24.9880   36.9870 C   0  0  0  0  0  0  0  0  0  0  0  0
   36.6120   25.5140   36.9530 H   0  0  0  0  0  0  0  0  0  0  0  0
   34.8960   25.1440   35.8410 C   0  0  0  0  0  0  0  0  0  0  0  0
   35.2290   25.7240   35.0010 H   0  0  0  0  0  0  0  0  0  0  0  0
   33.6660   24.5060   35.8240 C   0  0  0  0  0  3  0  0  0  0  0  0
   33.2750   23.7630   36.9390 C   0  0  0  0  0  3  0  0  0  0  0  0
   34.1040   23.1840   40.6230 H   0  0  0  0  0  0  0  0  0  0  0  0
   33.5540   22.7050   39.4450 S   0  0  0  0  0  0  0  0  0  0  0  0
   33.8420   21.2340   39.2550 O   0  0  0  0  0  0  0  0  0  0  0  0
   32.0610   22.8830   39.5940 O   0  0  0  0  0  0  0  0  0  0  0  0
  1  2  1  0  0  0  0
  2  3  2  0  0  0  0
  2  7  1  0  0  0  0
  3  4  1  0  0  0  0
  4  8  1  0  0  0  0
  4  5  2  0  0  0  0
  5  9  1  0  0  0  0
  6 10  1  0  0  0  0
  6  5  1  0  0  0  0
  7  6  2  0  0  0  0
 11  7  1  0  0  0  0
 12 17  1  0  0  0  0
 12 11  2  0  0  0  0
 13 12  1  0  0  0  0
 14 13  2  0  0  0  0
 14 15  1  0  0  0  0
 15 16  2  0  0  0  0
 16 21  1  0  0  0  0
 16 11  1  0  0  0  0
 18 13  1  0  0  0  0
 19 14  1  0  0  0  0
 20 15  1  0  0  0  0
 22 21  1  0  0  0  0
 23 29  1  0  0  0  0
 23 24  1  0  0  0  0
 24 30  1  0  0  0  0
 25 24  2  0  0  0  0
 25  3  1  0  0  0  0
 26 25  1  0  0  0  0
 27 28  1  0  0  0  0
 27 26  2  0  0  0  0
 28 23  2  0  0  0  0
 31 32  1  0  0  0  0
 31 40  1  0  0  0  0
 32 27  1  0  0  0  0
 33 32  2  0  0  0  0
 34 33  1  0  0  0  0
 35 33  1  0  0  0  0
 36 35  1  0  0  0  0
 37 35  2  0  0  0  0
 37 38  1  0  0  0  0
 38 31  2  0  0  0  0
 40 42  2  0  0  0  0
 40 39  1  0  0  0  0
 41 40  2  0  0  0  0
M  END
>  <minimizedAffinity>
-6.51457405

$$$$

 OpenBabel03242522323D

 42 45  0  0  0  0  0  0  0  0999 V2000
   37.8140   27.7040   40.0060 F   0  0  0  0  0  0  0  0  0  0  0  0
   37.6510   27.7490   41.3510 C   0  0  0  0  0  0  0  0  0  0  0  0
   37.4700   26.6220   42.0760 C   0  0  0  0  0  0  0  0  0  0  0  0
   37.3140   26.7640   43.4310 C   0  0  0  0  0  0  0  0  0  0  0  0
   37.3350   27.9880   44.0550 C   0  0  0  0  0  0  0  0  0  0  0  0
   37.5220   29.0870   43.2570 C   0  0  0  0  0  0  0  0  0  0  0  0
   37.6830   29.0100   41.9100 C   0  0  0  0  0  0  0  0  0  0  0  0
   37.1670   25.8590   44.0230 H   0  0  0  0  0  0  0  0  0  0  0  0
   37.2080   28.0660   45.1310 H   0  0  0  0  0  0  0  0  0  0  0  0
   37.5370   30.0490   43.7680 H   0  0  0  0  0  0  0  0  0  0  0  0
   37.8720   30.2330   41.1870 C   0  0  0  0  0  0  0  0  0  0  0  0
   39.1490   30.6480   40.8570 C   0  0  0  0  0  0  0  0  0  0  0  0
   39.3290   31.8060   40.1720 C   0  0  0  0  0  0  0  0  0  0  0  0
   38.2400   32.5800   39.7960 C   0  0  0  0  0  0  0  0  0  0  0  0
   36.9630   32.1350   40.1430 C   0  0  0  0  0  0  0  0  0  0  0  0
   36.7820   30.9580   40.8390 C   0  0  0  0  0  0  0  0  0  0  0  0
   39.9730   30.0270   41.1610 H   0  0  0  0  0  0  0  0  0  0  0  0
   40.3490   32.0790   39.9430 H   0  0  0  0  0  0  0  0  0  0  0  0
   38.4340   33.4940   39.2520 H   0  0  0  0  0  0  0  0  0  0  0  0
   36.1990   32.8170   39.7990 H   0  0  0  0  0  0  0  0  0  0  0  0
   35.4500   30.7310   41.0630 O   0  0  0  0  0  0  0  0  0  0  0  0
   34.8430   30.4260   40.3210 H   0  0  0  0  0  0  0  0  0  0  0  0
   38.4500   23.2330   40.7190 C   0  0  0  0  0  0  0  0  0  0  0  0
   38.5110   24.4480   41.4070 C   0  0  0  0  0  0  0  0  0  0  0  0
   37.4540   25.3320   41.3680 C   0  0  0  0  0  0  0  0  0  0  0  0
   36.3940   24.9390   40.6360 N   0  0  0  0  0  0  0  0  0  0  0  0
   36.3360   23.7780   39.9780 C   0  0  0  0  0  0  0  0  0  0  0  0
   37.3600   22.9320   40.0210 N   0  0  0  0  0  0  0  0  0  0  0  0
   39.3200   22.5900   40.7960 H   0  0  0  0  0  0  0  0  0  0  0  0
   39.3950   24.6990   41.9760 H   0  0  0  0  0  0  0  0  0  0  0  0
   34.8810   23.9430   37.9510 C   0  0  0  0  0  0  0  0  0  0  0  0
   35.1170   23.4920   39.2250 C   0  0  0  0  0  0  0  0  0  0  0  0
   34.1310   22.7250   39.8100 C   0  0  0  0  0  0  0  0  0  0  0  0
   34.2600   22.3320   40.8300 H   0  0  0  0  0  0  0  0  0  0  0  0
   32.9310   22.3690   39.2330 C   0  0  0  0  0  0  0  0  0  0  0  0
   32.1980   21.7670   39.7370 H   0  0  0  0  0  0  0  0  0  0  0  0
   32.7100   22.8340   37.9460 C   0  0  0  0  0  3  0  0  0  0  0  0
   33.6910   23.6120   37.3320 C   0  0  0  0  0  3  0  0  0  0  0  0
   37.3690   24.4400   37.4030 H   0  0  0  0  0  0  0  0  0  0  0  0
   36.0890   24.9150   37.1650 S   0  0  0  0  0  0  0  0  0  0  0  0
   35.9580   26.3720   37.5430 O   0  0  0  0  0  0  0  0  0  0  0  0
   35.8820   24.7890   35.6730 O   0  0  0  0  0  0  0  0  0  0  0  0
  1  2  1  0  0  0  0
  2  7  2  0  0  0  0
  2  3  1  0  0  0  0
  3  4  2  0  0  0  0
  4  8  1  0  0  0  0
  4  5  1  0  0  0  0
  5  9  1  0  0  0  0
  6 10  1  0  0  0  0
  6  5  2  0  0  0  0
  7  6  1  0  0  0  0
 11  7  1  0  0  0  0
 12 17  1  0  0  0  0
 12 11  1  0  0  0  0
 13 12  2  0  0  0  0
 14 15  2  0  0  0  0
 14 13  1  0  0  0  0
 15 16  1  0  0  0  0
 16 21  1  0  0  0  0
 16 11  2  0  0  0  0
 18 13  1  0  0  0  0
 19 14  1  0  0  0  0
 20 15  1  0  0  0  0
 22 21  1  0  0  0  0
 23 29  1  0  0  0  0
 23 24  1  0  0  0  0
 24 30  1  0  0  0  0
 25 24  2  0  0  0  0
 25  3  1  0  0  0  0
 26 25  1  0  0  0  0
 27 28  1  0  0  0  0
 27 26  2  0  0  0  0
 28 23  2  0  0  0  0
 31 32  1  0  0  0  0
 32 33  2  0  0  0  0
 32 27  1  0  0  0  0
 33 34  1  0  0  0  0
 35 36  1  0  0  0  0
 35 33  1  0  0  0  0
 37 35  2  0  0  0  0
 38 37  1  0  0  0  0
 38 31  2  0  0  0  0
 40 39  1  0  0  0  0
 40 41  2  0  0  0  0
 40 31  1  0  0  0  0
 42 40  2  0  0  0  0
M  END
>  <minimizedAffinity>
-6.49614668

$$$$

 OpenBabel03242522323D

 42 45  0  0  0  0  0  0  0  0999 V2000
   38.7200   29.9880   40.9710 F   0  0  0  0  0  0  0  0  0  0  0  0
   37.8730   29.9000   39.9160 C   0  0  0  0  0  0  0  0  0  0  0  0
   37.6420   30.9610   39.1100 C   0  0  0  0  0  0  0  0  0  0  0  0
   36.7700   30.7810   38.0660 C   0  0  0  0  0  0  0  0  0  0  0  0
   36.1400   29.5830   37.8270 C   0  0  0  0  0  0  0  0  0  0  0  0
   36.4210   28.5520   38.6850 C   0  0  0  0  0  0  0  0  0  0  0  0
   37.2750   28.6700   39.7350 C   0  0  0  0  0  0  0  0  0  0  0  0
   36.5790   31.6310   37.4110 H   0  0  0  0  0  0  0  0  0  0  0  0
   35.4540   29.4730   36.9910 H   0  0  0  0  0  0  0  0  0  0  0  0
   35.9140   27.6110   38.4800 H   0  0  0  0  0  0  0  0  0  0  0  0
   37.4870   27.5170   40.5600 C   0  0  0  0  0  0  0  0  0  0  0  0
   38.2970   26.4890   40.1130 C   0  0  0  0  0  0  0  0  0  0  0  0
   38.4980   25.3970   40.8950 C   0  0  0  0  0  0  0  0  0  0  0  0
   37.8960   25.3020   42.1420 C   0  0  0  0  0  0  0  0  0  0  0  0
   37.0830   26.3550   42.5650 C   0  0  0  0  0  0  0  0  0  0  0  0
   36.8810   27.4640   41.7710 C   0  0  0  0  0  0  0  0  0  0  0  0
   38.7500   26.5920   39.1430 H   0  0  0  0  0  0  0  0  0  0  0  0
   39.1410   24.6280   40.4930 H   0  0  0  0  0  0  0  0  0  0  0  0
   38.0870   24.4120   42.7260 H   0  0  0  0  0  0  0  0  0  0  0  0
   36.6730   26.1680   43.5460 H   0  0  0  0  0  0  0  0  0  0  0  0
   36.0520   28.3590   42.3940 O   0  0  0  0  0  0  0  0  0  0  0  0
   36.3780   28.9230   43.1590 H   0  0  0  0  0  0  0  0  0  0  0  0
   38.3920   34.5100   40.1740 C   0  0  0  0  0  0  0  0  0  0  0  0
   37.6900   33.3310   39.9110 C   0  0  0  0  0  0  0  0  0  0  0  0
   38.3380   32.2250   39.4020 C   0  0  0  0  0  0  0  0  0  0  0  0
   39.6580   32.3730   39.1880 N   0  0  0  0  0  0  0  0  0  0  0  0
   40.3300   33.5000   39.4380 C   0  0  0  0  0  0  0  0  0  0  0  0
   39.6970   34.5610   39.9280 N   0  0  0  0  0  0  0  0  0  0  0  0
   37.8160   35.3370   40.5720 H   0  0  0  0  0  0  0  0  0  0  0  0
   36.6280   33.2830   40.1080 H   0  0  0  0  0  0  0  0  0  0  0  0
   42.7190   33.0500   40.0230 C   0  0  0  0  0  0  0  0  0  0  0  0
   41.7620   33.5070   39.1520 C   0  0  0  0  0  0  0  0  0  0  0  0
   42.2020   33.9970   37.9400 C   0  0  0  0  0  0  0  0  0  0  0  0
   41.4850   34.3780   37.1970 H   0  0  0  0  0  0  0  0  0  0  0  0
   43.5140   34.0710   37.5220 C   0  0  0  0  0  0  0  0  0  0  0  0
   43.8000   34.4640   36.5650 H   0  0  0  0  0  0  0  0  0  0  0  0
   44.4670   33.6060   38.4160 C   0  0  0  0  0  3  0  0  0  0  0  0
   44.0480   33.1050   39.6490 C   0  0  0  0  0  3  0  0  0  0  0  0
   41.0050   32.9490   41.9690 H   0  0  0  0  0  0  0  0  0  0  0  0
   42.2210   32.4220   41.5650 S   0  0  0  0  0  0  0  0  0  0  0  0
   43.2900   32.6220   42.6150 O   0  0  0  0  0  0  0  0  0  0  0  0
   41.9850   30.9380   41.4020 O   0  0  0  0  0  0  0  0  0  0  0  0
  2  1  1  0  0  0  0
  3 25  1  0  0  0  0
  3  2  2  0  0  0  0
  4  3  1  0  0  0  0
  5  4  2  0  0  0  0
  5  6  1  0  0  0  0
  6  7  2  0  0  0  0
  7  2  1  0  0  0  0
  7 11  1  0  0  0  0
  8  4  1  0  0  0  0
  9  5  1  0  0  0  0
 10  6  1  0  0  0  0
 11 16  1  0  0  0  0
 12 11  2  0  0  0  0
 12 13  1  0  0  0  0
 13 14  2  0  0  0  0
 14 15  1  0  0  0  0
 14 19  1  0  0  0  0
 15 20  1  0  0  0  0
 16 21  1  0  0  0  0
 16 15  2  0  0  0  0
 17 12  1  0  0  0  0
 18 13  1  0  0  0  0
 21 22  1  0  0  0  0
 23 29  1  0  0  0  0
 24 30  1  0  0  0  0
 24 23  2  0  0  0  0
 25 24  1  0  0  0  0
 26 25  2  0  0  0  0
 26 27  1  0  0  0  0
 27 28  2  0  0  0  0
 28 23  1  0  0  0  0
 31 40  1  0  0  0  0
 32 27  1  0  0  0  0
 32 31  2  0  0  0  0
 33 32  1  0  0  0  0
 34 33  1  0  0  0  0
 35 33  2  0  0  0  0
 35 37  1  0  0  0  0
 36 35  1  0  0  0  0
 37 38  2  0  0  0  0
 38 31  1  0  0  0  0
 40 39  1  0  0  0  0
 40 41  2  0  0  0  0
 42 40  2  0  0  0  0
M  END
>  <minimizedAffinity>
-6.45827913

$$$$

 OpenBabel03242522323D

 42 45  0  0  0  0  0  0  0  0999 V2000
   39.4700   26.8770   40.9220 F   0  0  0  0  0  0  0  0  0  0  0  0
   38.5540   27.1210   41.8910 C   0  0  0  0  0  0  0  0  0  0  0  0
   38.6830   28.1720   42.7310 C   0  0  0  0  0  0  0  0  0  0  0  0
   37.7080   28.3420   43.6810 C   0  0  0  0  0  0  0  0  0  0  0  0
   36.6330   27.4940   43.7980 C   0  0  0  0  0  0  0  0  0  0  0  0
   36.5680   26.4500   42.9130 C   0  0  0  0  0  0  0  0  0  0  0  0
   37.5030   26.2300   41.9510 C   0  0  0  0  0  0  0  0  0  0  0  0
   37.8040   29.1890   44.3630 H   0  0  0  0  0  0  0  0  0  0  0  0
   35.8770   27.6570   44.5620 H   0  0  0  0  0  0  0  0  0  0  0  0
   35.7100   25.7880   43.0200 H   0  0  0  0  0  0  0  0  0  0  0  0
   37.3200   25.1030   41.0850 C   0  0  0  0  0  0  0  0  0  0  0  0
   37.7730   23.8550   41.4720 C   0  0  0  0  0  0  0  0  0  0  0  0
   37.5990   22.7870   40.6520 C   0  0  0  0  0  0  0  0  0  0  0  0
   36.9690   22.9350   39.4250 C   0  0  0  0  0  0  0  0  0  0  0  0
   36.5230   24.2070   39.0620 C   0  0  0  0  0  0  0  0  0  0  0  0
   36.6990   25.2910   39.8950 C   0  0  0  0  0  0  0  0  0  0  0  0
   38.2570   23.7720   42.4290 H   0  0  0  0  0  0  0  0  0  0  0  0
   37.9740   21.8390   41.0090 H   0  0  0  0  0  0  0  0  0  0  0  0
   36.8550   22.0550   38.8070 H   0  0  0  0  0  0  0  0  0  0  0  0
   36.0500   24.1970   38.0900 H   0  0  0  0  0  0  0  0  0  0  0  0
   36.1820   26.4250   39.3280 O   0  0  0  0  0  0  0  0  0  0  0  0
   35.1890   26.5770   39.2830 H   0  0  0  0  0  0  0  0  0  0  0  0
   42.1800   29.6020   42.8720 C   0  0  0  0  0  0  0  0  0  0  0  0
   41.1010   28.7310   43.0490 C   0  0  0  0  0  0  0  0  0  0  0  0
   39.8490   29.0560   42.5710 C   0  0  0  0  0  0  0  0  0  0  0  0
   39.7580   30.2430   41.9410 N   0  0  0  0  0  0  0  0  0  0  0  0
   40.7880   31.0760   41.7730 C   0  0  0  0  0  0  0  0  0  0  0  0
   41.9910   30.7540   42.2370 N   0  0  0  0  0  0  0  0  0  0  0  0
   43.1330   29.2790   43.2760 H   0  0  0  0  0  0  0  0  0  0  0  0
   41.2470   27.7930   43.5650 H   0  0  0  0  0  0  0  0  0  0  0  0
   41.4890   33.0320   40.3820 C   0  0  0  0  0  0  0  0  0  0  0  0
   40.5310   32.3290   41.0690 C   0  0  0  0  0  0  0  0  0  0  0  0
   39.2570   32.8580   41.0810 C   0  0  0  0  0  0  0  0  0  0  0  0
   38.4430   32.3420   41.6140 H   0  0  0  0  0  0  0  0  0  0  0  0
   38.8570   34.0260   40.4680 C   0  0  0  0  0  0  0  0  0  0  0  0
   37.8480   34.3900   40.5100 H   0  0  0  0  0  0  0  0  0  0  0  0
   39.8380   34.7210   39.7790 C   0  0  0  0  0  3  0  0  0  0  0  0
   41.1360   34.2090   39.7520 C   0  0  0  0  0  3  0  0  0  0  0  0
   43.3130   31.4120   41.2720 H   0  0  0  0  0  0  0  0  0  0  0  0
   43.1130   32.4120   40.3340 S   0  0  0  0  0  0  0  0  0  0  0  0
   44.1320   33.5190   40.4760 O   0  0  0  0  0  0  0  0  0  0  0  0
   43.3130   31.7510   38.9900 O   0  0  0  0  0  0  0  0  0  0  0  0
  1  2  1  0  0  0  0
  2  7  2  0  0  0  0
  2  3  1  0  0  0  0
  3  4  2  0  0  0  0
  4  5  1  0  0  0  0
  4  8  1  0  0  0  0
  5  9  1  0  0  0  0
  6 10  1  0  0  0  0
  6  5  2  0  0  0  0
  7  6  1  0  0  0  0
 11 12  1  0  0  0  0
 11  7  1  0  0  0  0
 12 17  1  0  0  0  0
 13 18  1  0  0  0  0
 13 12  2  0  0  0  0
 14 13  1  0  0  0  0
 15 14  2  0  0  0  0
 15 16  1  0  0  0  0
 16 11  2  0  0  0  0
 19 14  1  0  0  0  0
 20 15  1  0  0  0  0
 21 16  1  0  0  0  0
 22 21  1  0  0  0  0
 23 24  1  0  0  0  0
 23 29  1  0  0  0  0
 24 30  1  0  0  0  0
 25  3  1  0  0  0  0
 25 24  2  0  0  0  0
 26 25  1  0  0  0  0
 27 26  2  0  0  0  0
 27 28  1  0  0  0  0
 28 23  2  0  0  0  0
 31 32  1  0  0  0  0
 32 33  2  0  0  0  0
 32 27  1  0  0  0  0
 33 34  1  0  0  0  0
 35 36  1  0  0  0  0
 35 33  1  0  0  0  0
 37 35  2  0  0  0  0
 38 37  1  0  0  0  0
 38 31  2  0  0  0  0
 40 31  1  0  0  0  0
 40 41  2  0  0  0  0
 40 39  1  0  0  0  0
 42 40  2  0  0  0  0
M  END
>  <minimizedAffinity>
-6.45513058

$$$$
