
 OpenBabel03252507383D

 41 45  0  0  0  0  0  0  0  0999 V2000
   45.3890   34.3640   43.7180 C   0  0  0  0  0  0  0  0  0  0  0  0
   46.1630   33.3480   44.3330 C   0  0  0  0  0  0  0  0  0  0  0  0
   46.1180   33.2650   45.7150 C   0  0  0  0  0  0  0  0  0  0  0  0
   45.3520   34.1420   46.3950 N   0  0  0  0  0  0  0  0  0  0  0  0
   44.6210   35.1050   45.7840 C   0  0  0  0  0  0  0  0  0  0  0  0
   44.6460   35.2060   44.4620 N   0  0  0  0  0  0  0  0  0  0  0  0
   46.7770   32.6440   43.7890 H   0  0  0  0  0  0  0  0  0  0  0  0
   44.0260   35.7770   46.4080 H   0  0  0  0  0  0  0  0  0  0  0  0
   47.2370   32.6280   47.7810 C   0  0  0  0  0  0  0  0  0  0  0  0
   46.8560   32.2760   46.4920 C   0  0  0  0  0  0  0  0  0  0  0  0
   47.1950   31.0260   46.0340 C   0  0  0  0  0  0  0  0  0  0  0  0
   47.8910   30.1180   46.7960 C   0  0  0  0  0  0  0  0  0  0  0  0
   48.3280   28.8630   46.5650 N   0  0  0  0  0  0  0  0  0  0  0  0
   48.9810   28.4400   47.7150 C   0  0  0  0  0  0  0  0  0  0  0  0
   48.9290   29.4310   48.6100 N   0  0  0  0  0  0  0  0  0  0  0  0
   48.2670   30.4670   48.0700 C   0  0  0  0  0  0  0  0  0  0  0  0
   47.9430   31.7150   48.5600 C   0  0  0  0  0  0  0  0  0  0  0  0
   47.0060   33.5980   48.2130 H   0  0  0  0  0  0  0  0  0  0  0  0
   46.8820   30.7770   45.0160 H   0  0  0  0  0  0  0  0  0  0  0  0
   48.2010   28.3090   45.6850 H   0  0  0  0  0  0  0  0  0  0  0  0
   49.4490   27.4700   47.8550 H   0  0  0  0  0  0  0  0  0  0  0  0
   48.2240   32.0250   49.5630 H   0  0  0  0  0  0  0  0  0  0  0  0
   45.4350   34.4470   42.3220 O   0  0  0  0  0  0  0  0  0  0  0  0
   44.3730   33.9460   41.5690 C   0  0  0  0  0  0  0  0  0  0  0  0
   44.9950   32.9340   40.9360 C   0  0  0  0  0  0  0  0  0  0  0  0
   43.5680   32.2190   39.8970 S   0  0  0  0  0  0  0  0  0  0  0  0
   42.4160   33.5210   40.5980 C   0  0  0  0  0  0  0  0  0  0  0  0
   43.1050   34.0550   41.2540 N   0  0  0  0  0  0  0  0  0  0  0  0
   45.8780   32.1450   40.5690 H   0  0  0  0  0  0  0  0  0  0  0  0
   40.5230   34.5330   39.3070 C   0  0  0  0  0  0  0  0  0  0  0  0
   40.9490   33.6580   40.2460 C   0  0  0  0  0  0  0  0  0  0  0  0
   40.1450   32.8350   40.9540 C   0  0  0  0  0  0  0  0  0  0  0  0
   40.5300   32.1340   41.7120 H   0  0  0  0  0  0  0  0  0  0  0  0
   38.8040   32.8940   40.6970 C   0  0  0  0  0  0  0  0  0  0  0  0
   38.1550   32.2320   41.2660 H   0  0  0  0  0  0  0  0  0  0  0  0
   38.2340   33.7340   39.7720 C   0  0  0  0  0  3  0  0  0  0  0  0
   39.1350   34.5330   39.1040 C   0  0  0  0  0  3  0  0  0  0  0  0
   41.9350   36.7090   39.0690 H   0  0  0  0  0  0  0  0  0  0  0  0
   41.5820   35.5880   38.4060 S   0  0  0  0  0  0  0  0  0  0  0  0
   40.7940   36.0330   37.1910 O   0  0  0  0  0  0  0  0  0  0  0  0
   42.7460   34.8080   37.8520 O   0  0  0  0  0  0  0  0  0  0  0  0
  1  2  2  0  0  0  0
  1  6  1  0  0  0  0
  2  3  1  0  0  0  0
  3  4  2  0  0  0  0
  3 10  1  0  0  0  0
  5  4  1  0  0  0  0
  5  8  1  0  0  0  0
  6  5  2  0  0  0  0
  7  2  1  0  0  0  0
  9 18  1  0  0  0  0
  9 17  1  0  0  0  0
 10  9  2  0  0  0  0
 11 10  1  0  0  0  0
 11 12  2  0  0  0  0
 12 16  1  0  0  0  0
 13 12  1  0  0  0  0
 13 14  1  0  0  0  0
 14 21  1  0  0  0  0
 14 15  2  0  0  0  0
 16 17  2  0  0  0  0
 16 15  1  0  0  0  0
 17 22  1  0  0  0  0
 19 11  1  0  0  0  0
 20 13  1  0  0  0  0
 23  1  1  0  0  0  0
 24 23  1  0  0  0  0
 25 24  2  0  0  0  0
 26 27  1  0  0  0  0
 26 25  1  0  0  0  0
 27 28  2  0  0  0  0
 28 24  1  0  0  0  0
 29 25  1  0  0  0  0
 30 31  1  0  0  0  0
 31 27  1  0  0  0  0
 31 32  2  0  0  0  0
 32 33  1  0  0  0  0
 34 32  1  0  0  0  0
 34 35  1  0  0  0  0
 36 34  2  0  0  0  0
 37 30  2  0  0  0  0
 37 36  1  0  0  0  0
 39 38  1  0  0  0  0
 39 30  1  0  0  0  0
 40 39  2  0  0  0  0
 41 39  2  0  0  0  0
M  END
>  <minimizedAffinity>
-6.62450171

>  <minimizedRMSD>
1.4200418

$$$$
