
 OpenBabel03242515513D

 23 24  0  0  0  0  0  0  0  0999 V2000
   37.0500   28.1010   40.9450 C   0  0  0  0  0  0  0  0  0  0  0  0
   37.7980   29.2530   41.1400 C   0  0  0  0  0  0  0  0  0  0  0  0
   38.1680   29.6040   42.4390 C   0  0  0  0  0  0  0  0  0  0  0  0
   38.7580   30.5220   42.5360 H   0  0  0  0  0  0  0  0  0  0  0  0
   37.8280   28.8630   43.5420 C   0  0  0  0  0  0  0  0  0  0  0  0
   38.1740   29.2370   44.4920 H   0  0  0  0  0  0  0  0  0  0  0  0
   37.0840   27.7110   43.3740 C   0  0  0  0  0  3  0  0  0  0  0  0
   36.7320   27.3850   42.1030 C   0  0  0  0  0  3  0  0  0  0  0  0
   39.7790   30.5760   38.3760 C   0  0  0  0  0  0  0  0  0  0  0  0
   38.9750   31.5870   37.8530 C   0  0  0  0  0  0  0  0  0  0  0  0
   37.7430   31.8200   38.4530 C   0  0  0  0  0  0  0  0  0  0  0  0
   37.3990   31.0490   39.5080 N   0  0  0  0  0  0  0  0  0  0  0  0
   38.1870   30.0790   39.9960 C   0  0  0  0  0  0  0  0  0  0  0  0
   39.3800   29.8510   39.4200 N   0  0  0  0  0  0  0  0  0  0  0  0
   40.7480   30.3490   37.9510 H   0  0  0  0  0  0  0  0  0  0  0  0
   37.1510   32.5920   38.0390 H   0  0  0  0  0  0  0  0  0  0  0  0
   39.5070   32.2950   36.7370 N   0  0  0  0  0  0  0  0  0  0  0  0
   39.3610   31.8060   35.8280 H   0  0  0  0  0  0  0  0  0  0  0  0
   40.0180   33.2260   36.6740 H   0  0  0  0  0  0  0  0  0  0  0  0
   37.3730   27.9860   38.3540 H   0  0  0  0  0  0  0  0  0  0  0  0
   36.5440   27.5870   39.3650 S   0  0  0  0  0  0  0  0  0  0  0  0
   35.2210   28.2830   39.0740 O   0  0  0  0  0  0  0  0  0  0  0  0
   36.2550   26.1110   39.3400 O   0  0  0  0  0  0  0  0  0  0  0  0
  1  2  2  0  0  0  0
  1  8  1  0  0  0  0
  2  3  1  0  0  0  0
  3  4  1  0  0  0  0
  3  5  2  0  0  0  0
  5  6  1  0  0  0  0
  7  5  1  0  0  0  0
  8  7  2  0  0  0  0
  9 14  1  0  0  0  0
 10  9  2  0  0  0  0
 10 11  1  0  0  0  0
 11 12  2  0  0  0  0
 12 13  1  0  0  0  0
 13  2  1  0  0  0  0
 14 13  2  0  0  0  0
 15  9  1  0  0  0  0
 16 11  1  0  0  0  0
 17 10  1  0  0  0  0
 18 17  1  0  0  0  0
 19 17  1  0  0  0  0
 20 21  1  0  0  0  0
 21  1  1  0  0  0  0
 22 21  2  0  0  0  0
 23 21  2  0  0  0  0
M  END
>  <minimizedAffinity>
-4.75147057

$$$$

 OpenBabel03242515513D

 23 24  0  0  0  0  0  0  0  0999 V2000
   37.6110   29.0480   41.6000 C   0  0  0  0  0  0  0  0  0  0  0  0
   38.9430   29.3210   41.3210 C   0  0  0  0  0  0  0  0  0  0  0  0
   39.9290   28.7590   42.1320 C   0  0  0  0  0  0  0  0  0  0  0  0
   40.9630   29.0070   41.8680 H   0  0  0  0  0  0  0  0  0  0  0  0
   39.6480   27.9420   43.1980 C   0  0  0  0  0  0  0  0  0  0  0  0
   40.4970   27.5680   43.7480 H   0  0  0  0  0  0  0  0  0  0  0  0
   38.3310   27.6550   43.4950 C   0  0  0  0  0  3  0  0  0  0  0  0
   37.3830   28.2110   42.6960 C   0  0  0  0  0  3  0  0  0  0  0  0
   39.8260   30.3640   37.9370 C   0  0  0  0  0  0  0  0  0  0  0  0
   39.9580   31.7470   38.0460 C   0  0  0  0  0  0  0  0  0  0  0  0
   39.7430   32.3290   39.2910 C   0  0  0  0  0  0  0  0  0  0  0  0
   39.4190   31.5170   40.3200 N   0  0  0  0  0  0  0  0  0  0  0  0
   39.2960   30.1870   40.1950 C   0  0  0  0  0  0  0  0  0  0  0  0
   39.5030   29.6190   38.9930 N   0  0  0  0  0  0  0  0  0  0  0  0
   39.9810   29.8540   36.9950 H   0  0  0  0  0  0  0  0  0  0  0  0
   39.8500   33.3800   39.3480 H   0  0  0  0  0  0  0  0  0  0  0  0
   40.3070   32.4380   36.8510 N   0  0  0  0  0  0  0  0  0  0  0  0
   39.4910   32.6350   36.2320 H   0  0  0  0  0  0  0  0  0  0  0  0
   41.2440   32.7850   36.4870 H   0  0  0  0  0  0  0  0  0  0  0  0
   36.6330   29.8980   39.3300 H   0  0  0  0  0  0  0  0  0  0  0  0
   36.3170   29.7040   40.6450 S   0  0  0  0  0  0  0  0  0  0  0  0
   36.0340   31.1020   41.1810 O   0  0  0  0  0  0  0  0  0  0  0  0
   35.0480   28.9180   40.8350 O   0  0  0  0  0  0  0  0  0  0  0  0
  1  8  1  0  0  0  0
  2  1  2  0  0  0  0
  2  3  1  0  0  0  0
  3  5  2  0  0  0  0
  4  3  1  0  0  0  0
  5  7  1  0  0  0  0
  5  6  1  0  0  0  0
  8  7  2  0  0  0  0
  9 10  2  0  0  0  0
  9 14  1  0  0  0  0
 10 11  1  0  0  0  0
 11 16  1  0  0  0  0
 11 12  2  0  0  0  0
 13 12  1  0  0  0  0
 13  2  1  0  0  0  0
 14 13  2  0  0  0  0
 15  9  1  0  0  0  0
 17 10  1  0  0  0  0
 18 17  1  0  0  0  0
 19 17  1  0  0  0  0
 20 21  1  0  0  0  0
 21 23  2  0  0  0  0
 21 22  2  0  0  0  0
 21  1  1  0  0  0  0
M  END
>  <minimizedAffinity>
-4.71277189

$$$$

 OpenBabel03242515513D

 23 24  0  0  0  0  0  0  0  0999 V2000
   37.7870   27.1910   41.5460 C   0  0  0  0  0  0  0  0  0  0  0  0
   37.1880   27.8190   40.4630 C   0  0  0  0  0  0  0  0  0  0  0  0
   36.5400   27.0390   39.5050 C   0  0  0  0  0  0  0  0  0  0  0  0
   36.0850   27.5850   38.6720 H   0  0  0  0  0  0  0  0  0  0  0  0
   36.4630   25.6710   39.5790 C   0  0  0  0  0  0  0  0  0  0  0  0
   35.9340   25.1800   38.7780 H   0  0  0  0  0  0  0  0  0  0  0  0
   37.0500   25.0220   40.6480 C   0  0  0  0  0  3  0  0  0  0  0  0
   37.6770   25.7970   41.5710 C   0  0  0  0  0  3  0  0  0  0  0  0
   36.2630   31.3330   40.8090 C   0  0  0  0  0  0  0  0  0  0  0  0
   37.2830   32.0060   40.1390 C   0  0  0  0  0  0  0  0  0  0  0  0
   38.2980   31.2500   39.5630 C   0  0  0  0  0  0  0  0  0  0  0  0
   38.2340   29.9070   39.6870 N   0  0  0  0  0  0  0  0  0  0  0  0
   37.2420   29.2770   40.3370 C   0  0  0  0  0  0  0  0  0  0  0  0
   36.2580   30.0030   40.8960 N   0  0  0  0  0  0  0  0  0  0  0  0
   35.4470   31.8670   41.2770 H   0  0  0  0  0  0  0  0  0  0  0  0
   39.0600   31.7830   39.0600 H   0  0  0  0  0  0  0  0  0  0  0  0
   37.1820   33.4270   40.1110 N   0  0  0  0  0  0  0  0  0  0  0  0
   37.5420   33.8860   40.9750 H   0  0  0  0  0  0  0  0  0  0  0  0
   36.8090   34.0900   39.3680 H   0  0  0  0  0  0  0  0  0  0  0  0
   39.6160   28.8890   42.3220 H   0  0  0  0  0  0  0  0  0  0  0  0
   38.6150   28.0810   42.7860 S   0  0  0  0  0  0  0  0  0  0  0  0
   39.3240   27.0600   43.6670 O   0  0  0  0  0  0  0  0  0  0  0  0
   37.6430   28.8030   43.6800 O   0  0  0  0  0  0  0  0  0  0  0  0
  1  8  1  0  0  0  0
  1 21  1  0  0  0  0
  2  1  2  0  0  0  0
  3  5  2  0  0  0  0
  3  2  1  0  0  0  0
  4  3  1  0  0  0  0
  5  7  1  0  0  0  0
  6  5  1  0  0  0  0
  7  8  2  0  0  0  0
  9 14  1  0  0  0  0
  9 15  1  0  0  0  0
 10  9  2  0  0  0  0
 11 12  2  0  0  0  0
 11 10  1  0  0  0  0
 12 13  1  0  0  0  0
 13  2  1  0  0  0  0
 13 14  2  0  0  0  0
 16 11  1  0  0  0  0
 17 10  1  0  0  0  0
 17 18  1  0  0  0  0
 19 17  1  0  0  0  0
 20 21  1  0  0  0  0
 21 22  2  0  0  0  0
 21 23  2  0  0  0  0
M  END
>  <minimizedAffinity>
-4.66984367

$$$$

 OpenBabel03242515513D

 23 24  0  0  0  0  0  0  0  0999 V2000
   36.5980   26.3580   39.7840 C   0  0  0  0  0  0  0  0  0  0  0  0
   36.9250   27.1340   40.8870 C   0  0  0  0  0  0  0  0  0  0  0  0
   37.1540   26.5040   42.1100 C   0  0  0  0  0  0  0  0  0  0  0  0
   37.4090   27.1620   42.9480 H   0  0  0  0  0  0  0  0  0  0  0  0
   37.0740   25.1440   42.2800 C   0  0  0  0  0  0  0  0  0  0  0  0
   37.2740   24.7760   43.2730 H   0  0  0  0  0  0  0  0  0  0  0  0
   36.7510   24.3500   41.1970 C   0  0  0  0  0  3  0  0  0  0  0  0
   36.5300   24.9810   40.0140 C   0  0  0  0  0  3  0  0  0  0  0  0
   35.9580   30.6530   40.8710 C   0  0  0  0  0  0  0  0  0  0  0  0
   37.1390   31.3150   40.5360 C   0  0  0  0  0  0  0  0  0  0  0  0
   38.2780   30.5480   40.3130 C   0  0  0  0  0  0  0  0  0  0  0  0
   38.1700   29.2070   40.4350 N   0  0  0  0  0  0  0  0  0  0  0  0
   37.0240   28.5890   40.7590 C   0  0  0  0  0  0  0  0  0  0  0  0
   35.9190   29.3260   40.9750 N   0  0  0  0  0  0  0  0  0  0  0  0
   35.0410   31.1960   41.0560 H   0  0  0  0  0  0  0  0  0  0  0  0
   39.1610   31.0710   40.0610 H   0  0  0  0  0  0  0  0  0  0  0  0
   37.0600   32.7340   40.4540 N   0  0  0  0  0  0  0  0  0  0  0  0
   37.1390   33.2090   41.3790 H   0  0  0  0  0  0  0  0  0  0  0  0
   36.9370   33.3840   39.6210 H   0  0  0  0  0  0  0  0  0  0  0  0
   35.5010   28.1680   38.2510 H   0  0  0  0  0  0  0  0  0  0  0  0
   36.2950   27.0570   38.2230 S   0  0  0  0  0  0  0  0  0  0  0  0
   35.4950   26.0330   37.4270 O   0  0  0  0  0  0  0  0  0  0  0  0
   37.5770   27.2690   37.4640 O   0  0  0  0  0  0  0  0  0  0  0  0
  1  8  2  0  0  0  0
  1  2  1  0  0  0  0
  2  3  2  0  0  0  0
  3  5  1  0  0  0  0
  3  4  1  0  0  0  0
  5  6  1  0  0  0  0
  7  5  2  0  0  0  0
  8  7  1  0  0  0  0
  9 14  1  0  0  0  0
  9 15  1  0  0  0  0
 10  9  2  0  0  0  0
 11 12  2  0  0  0  0
 11 10  1  0  0  0  0
 12 13  1  0  0  0  0
 13  2  1  0  0  0  0
 13 14  2  0  0  0  0
 16 11  1  0  0  0  0
 17 10  1  0  0  0  0
 17 18  1  0  0  0  0
 19 17  1  0  0  0  0
 21 20  1  0  0  0  0
 21  1  1  0  0  0  0
 22 21  2  0  0  0  0
 23 21  2  0  0  0  0
M  END
>  <minimizedAffinity>
-4.62745667

$$$$

 OpenBabel03242515513D

 23 24  0  0  0  0  0  0  0  0999 V2000
   38.0270   26.8060   41.3730 C   0  0  0  0  0  0  0  0  0  0  0  0
   38.3900   27.9780   42.0210 C   0  0  0  0  0  0  0  0  0  0  0  0
   39.1890   27.8970   43.1620 C   0  0  0  0  0  0  0  0  0  0  0  0
   39.4470   28.8510   43.6340 H   0  0  0  0  0  0  0  0  0  0  0  0
   39.6400   26.7090   43.6800 C   0  0  0  0  0  0  0  0  0  0  0  0
   40.2510   26.7760   44.5650 H   0  0  0  0  0  0  0  0  0  0  0  0
   39.2930   25.5290   43.0520 C   0  0  0  0  0  3  0  0  0  0  0  0
   38.5130   25.6260   41.9430 C   0  0  0  0  0  3  0  0  0  0  0  0
   38.4520   31.2260   40.3590 C   0  0  0  0  0  0  0  0  0  0  0  0
   37.1530   31.7030   40.5250 C   0  0  0  0  0  0  0  0  0  0  0  0
   36.2460   30.9040   41.2140 C   0  0  0  0  0  0  0  0  0  0  0  0
   36.6800   29.7140   41.6800 N   0  0  0  0  0  0  0  0  0  0  0  0
   37.9360   29.2720   41.5090 C   0  0  0  0  0  0  0  0  0  0  0  0
   38.8170   30.0410   40.8440 N   0  0  0  0  0  0  0  0  0  0  0  0
   39.2010   31.8020   39.8320 H   0  0  0  0  0  0  0  0  0  0  0  0
   35.2670   31.2870   41.3280 H   0  0  0  0  0  0  0  0  0  0  0  0
   36.8790   32.9830   39.9640 N   0  0  0  0  0  0  0  0  0  0  0  0
   36.6610   32.9510   38.9440 H   0  0  0  0  0  0  0  0  0  0  0  0
   36.8570   33.9520   40.4010 H   0  0  0  0  0  0  0  0  0  0  0  0
   35.9370   27.6190   40.0320 H   0  0  0  0  0  0  0  0  0  0  0  0
   37.0350   26.8110   39.9470 S   0  0  0  0  0  0  0  0  0  0  0  0
   36.4660   25.4050   39.7980 O   0  0  0  0  0  0  0  0  0  0  0  0
   37.8580   27.0630   38.7130 O   0  0  0  0  0  0  0  0  0  0  0  0
  1  8  2  0  0  0  0
  1  2  1  0  0  0  0
  2  3  2  0  0  0  0
  3  4  1  0  0  0  0
  3  5  1  0  0  0  0
  5  6  1  0  0  0  0
  7  5  2  0  0  0  0
  8  7  1  0  0  0  0
  9 10  2  0  0  0  0
  9 14  1  0  0  0  0
 10 11  1  0  0  0  0
 11 16  1  0  0  0  0
 11 12  2  0  0  0  0
 13 12  1  0  0  0  0
 13  2  1  0  0  0  0
 14 13  2  0  0  0  0
 15  9  1  0  0  0  0
 17 19  1  0  0  0  0
 17 10  1  0  0  0  0
 18 17  1  0  0  0  0
 21 20  1  0  0  0  0
 21  1  1  0  0  0  0
 22 21  2  0  0  0  0
 23 21  2  0  0  0  0
M  END
>  <minimizedAffinity>
-4.61543274

$$$$

 OpenBabel03242515513D

 23 24  0  0  0  0  0  0  0  0999 V2000
   37.8700   29.4030   41.6400 C   0  0  0  0  0  0  0  0  0  0  0  0
   37.3950   28.3450   40.8770 C   0  0  0  0  0  0  0  0  0  0  0  0
   36.8960   27.2160   41.5280 C   0  0  0  0  0  0  0  0  0  0  0  0
   36.5340   26.4110   40.8790 H   0  0  0  0  0  0  0  0  0  0  0  0
   36.8490   27.0970   42.8940 C   0  0  0  0  0  0  0  0  0  0  0  0
   36.4400   26.1770   43.2780 H   0  0  0  0  0  0  0  0  0  0  0  0
   37.3150   28.1370   43.6750 C   0  0  0  0  0  3  0  0  0  0  0  0
   37.7980   29.2280   43.0250 C   0  0  0  0  0  3  0  0  0  0  0  0
   38.5830   28.0090   37.4430 C   0  0  0  0  0  0  0  0  0  0  0  0
   37.5390   28.5350   36.6840 C   0  0  0  0  0  0  0  0  0  0  0  0
   36.4170   29.0110   37.3540 C   0  0  0  0  0  0  0  0  0  0  0  0
   36.4070   28.9330   38.7020 N   0  0  0  0  0  0  0  0  0  0  0  0
   37.4230   28.4220   39.4160 C   0  0  0  0  0  0  0  0  0  0  0  0
   38.5100   27.9610   38.7720 N   0  0  0  0  0  0  0  0  0  0  0  0
   39.4810   27.6240   36.9780 H   0  0  0  0  0  0  0  0  0  0  0  0
   35.6390   29.4060   36.7570 H   0  0  0  0  0  0  0  0  0  0  0  0
   37.7290   28.5350   35.2720 N   0  0  0  0  0  0  0  0  0  0  0  0
   37.5020   27.6210   34.8230 H   0  0  0  0  0  0  0  0  0  0  0  0
   38.0580   29.2970   34.6070 H   0  0  0  0  0  0  0  0  0  0  0  0
   39.2580   30.6260   39.7950 H   0  0  0  0  0  0  0  0  0  0  0  0
   38.5090   30.8460   40.9160 S   0  0  0  0  0  0  0  0  0  0  0  0
   39.4860   31.4500   41.9180 O   0  0  0  0  0  0  0  0  0  0  0  0
   37.4310   31.8760   40.7110 O   0  0  0  0  0  0  0  0  0  0  0  0
  1  8  1  0  0  0  0
  2  3  1  0  0  0  0
  2  1  2  0  0  0  0
  3  5  2  0  0  0  0
  4  3  1  0  0  0  0
  5  6  1  0  0  0  0
  5  7  1  0  0  0  0
  8  7  2  0  0  0  0
  9 14  1  0  0  0  0
 10 11  1  0  0  0  0
 10  9  2  0  0  0  0
 11 12  2  0  0  0  0
 12 13  1  0  0  0  0
 13  2  1  0  0  0  0
 14 13  2  0  0  0  0
 15  9  1  0  0  0  0
 16 11  1  0  0  0  0
 17 10  1  0  0  0  0
 18 17  1  0  0  0  0
 19 17  1  0  0  0  0
 20 21  1  0  0  0  0
 21  1  1  0  0  0  0
 21 22  2  0  0  0  0
 23 21  2  0  0  0  0
M  END
>  <minimizedAffinity>
-4.46031952

$$$$

 OpenBabel03242515513D

 23 24  0  0  0  0  0  0  0  0999 V2000
   38.1890   30.6940   40.1940 C   0  0  0  0  0  0  0  0  0  0  0  0
   39.4990   31.0470   40.4830 C   0  0  0  0  0  0  0  0  0  0  0  0
   40.0770   30.5830   41.6650 C   0  0  0  0  0  0  0  0  0  0  0  0
   41.1130   30.8910   41.8440 H   0  0  0  0  0  0  0  0  0  0  0  0
   39.4110   29.7880   42.5630 C   0  0  0  0  0  0  0  0  0  0  0  0
   39.9650   29.4920   43.4400 H   0  0  0  0  0  0  0  0  0  0  0  0
   38.1060   29.4220   42.2980 C   0  0  0  0  0  3  0  0  0  0  0  0
   37.5590   29.8840   41.1430 C   0  0  0  0  0  3  0  0  0  0  0  0
   41.4970   32.0490   37.5980 C   0  0  0  0  0  0  0  0  0  0  0  0
   41.6760   33.4190   37.7850 C   0  0  0  0  0  0  0  0  0  0  0  0
   41.1080   34.0050   38.9110 C   0  0  0  0  0  0  0  0  0  0  0  0
   40.4150   33.2110   39.7550 N   0  0  0  0  0  0  0  0  0  0  0  0
   40.2540   31.8940   39.5570 C   0  0  0  0  0  0  0  0  0  0  0  0
   40.8010   31.3210   38.4700 N   0  0  0  0  0  0  0  0  0  0  0  0
   41.9150   31.5370   36.7420 H   0  0  0  0  0  0  0  0  0  0  0  0
   41.2580   35.0450   39.0310 H   0  0  0  0  0  0  0  0  0  0  0  0
   42.4380   34.0920   36.7870 N   0  0  0  0  0  0  0  0  0  0  0  0
   41.8810   34.3510   35.9450 H   0  0  0  0  0  0  0  0  0  0  0  0
   43.4630   34.3730   36.7560 H   0  0  0  0  0  0  0  0  0  0  0  0
   38.2060   31.3140   37.6550 H   0  0  0  0  0  0  0  0  0  0  0  0
   37.3890   31.2260   38.7470 S   0  0  0  0  0  0  0  0  0  0  0  0
   36.9260   32.6570   38.9960 O   0  0  0  0  0  0  0  0  0  0  0  0
   36.1430   30.4240   38.4870 O   0  0  0  0  0  0  0  0  0  0  0  0
  1  2  2  0  0  0  0
  1  8  1  0  0  0  0
  2  3  1  0  0  0  0
  3  4  1  0  0  0  0
  3  5  2  0  0  0  0
  5  6  1  0  0  0  0
  7  5  1  0  0  0  0
  8  7  2  0  0  0  0
  9 10  2  0  0  0  0
  9 14  1  0  0  0  0
 10 11  1  0  0  0  0
 11 16  1  0  0  0  0
 11 12  2  0  0  0  0
 13 12  1  0  0  0  0
 13  2  1  0  0  0  0
 14 13  2  0  0  0  0
 15  9  1  0  0  0  0
 17 10  1  0  0  0  0
 18 17  1  0  0  0  0
 19 17  1  0  0  0  0
 20 21  1  0  0  0  0
 21 22  2  0  0  0  0
 21  1  1  0  0  0  0
 23 21  2  0  0  0  0
M  END
>  <minimizedAffinity>
-4.44088936

$$$$

 OpenBabel03242515513D

 23 24  0  0  0  0  0  0  0  0999 V2000
   35.7720   28.9670   37.1200 C   0  0  0  0  0  0  0  0  0  0  0  0
   35.0050   28.9870   38.2760 C   0  0  0  0  0  0  0  0  0  0  0  0
   33.6150   28.9780   38.1620 C   0  0  0  0  0  0  0  0  0  0  0  0
   33.0580   28.9940   39.1050 H   0  0  0  0  0  0  0  0  0  0  0  0
   32.9610   28.9490   36.9560 C   0  0  0  0  0  0  0  0  0  0  0  0
   31.8840   28.9430   36.9980 H   0  0  0  0  0  0  0  0  0  0  0  0
   33.7020   28.9270   35.7910 C   0  0  0  0  0  3  0  0  0  0  0  0
   35.0550   28.9370   35.9200 C   0  0  0  0  0  3  0  0  0  0  0  0
   36.4530   30.2940   41.3610 C   0  0  0  0  0  0  0  0  0  0  0  0
   36.8620   29.1470   42.0400 C   0  0  0  0  0  0  0  0  0  0  0  0
   36.6410   27.9150   41.4360 C   0  0  0  0  0  0  0  0  0  0  0  0
   36.0420   27.9030   40.2260 N   0  0  0  0  0  0  0  0  0  0  0  0
   35.6540   29.0180   39.5880 C   0  0  0  0  0  0  0  0  0  0  0  0
   35.8660   30.2130   40.1680 N   0  0  0  0  0  0  0  0  0  0  0  0
   36.5970   31.2800   41.7800 H   0  0  0  0  0  0  0  0  0  0  0  0
   36.9610   27.0600   41.9700 H   0  0  0  0  0  0  0  0  0  0  0  0
   37.4780   29.3570   43.3070 N   0  0  0  0  0  0  0  0  0  0  0  0
   36.7940   29.4880   44.0840 H   0  0  0  0  0  0  0  0  0  0  0  0
   38.5010   29.4010   43.5930 H   0  0  0  0  0  0  0  0  0  0  0  0
   38.0420   28.4700   38.3170 H   0  0  0  0  0  0  0  0  0  0  0  0
   37.5080   28.9760   37.1650 S   0  0  0  0  0  0  0  0  0  0  0  0
   37.9450   30.4360   37.1510 O   0  0  0  0  0  0  0  0  0  0  0  0
   38.0890   28.3550   35.9240 O   0  0  0  0  0  0  0  0  0  0  0  0
  1 21  1  0  0  0  0
  1  2  1  0  0  0  0
  2 13  1  0  0  0  0
  3  2  2  0  0  0  0
  3  4  1  0  0  0  0
  5  6  1  0  0  0  0
  5  3  1  0  0  0  0
  7  8  1  0  0  0  0
  7  5  2  0  0  0  0
  8  1  2  0  0  0  0
  9 15  1  0  0  0  0
  9 10  1  0  0  0  0
 10 17  1  0  0  0  0
 11 16  1  0  0  0  0
 11 10  2  0  0  0  0
 12 11  1  0  0  0  0
 13 14  1  0  0  0  0
 13 12  2  0  0  0  0
 14  9  2  0  0  0  0
 17 19  1  0  0  0  0
 17 18  1  0  0  0  0
 21 20  1  0  0  0  0
 22 21  2  0  0  0  0
 23 21  2  0  0  0  0
M  END
>  <minimizedAffinity>
-4.32858896

$$$$

 OpenBabel03242515513D

 23 24  0  0  0  0  0  0  0  0999 V2000
   36.9270   29.3550   40.5200 C   0  0  0  0  0  0  0  0  0  0  0  0
   37.2280   30.3760   39.6300 C   0  0  0  0  0  0  0  0  0  0  0  0
   36.5580   30.4230   38.4070 C   0  0  0  0  0  0  0  0  0  0  0  0
   36.8340   31.2490   37.7420 H   0  0  0  0  0  0  0  0  0  0  0  0
   35.6080   29.5050   38.0370 C   0  0  0  0  0  0  0  0  0  0  0  0
   35.1600   29.6490   37.0660 H   0  0  0  0  0  0  0  0  0  0  0  0
   35.2890   28.4800   38.9060 C   0  0  0  0  0  3  0  0  0  0  0  0
   35.9520   28.4490   40.0910 C   0  0  0  0  0  3  0  0  0  0  0  0
   40.4750   32.0030   39.9880 C   0  0  0  0  0  0  0  0  0  0  0  0
   40.1660   33.2170   40.6000 C   0  0  0  0  0  0  0  0  0  0  0  0
   38.8330   33.4810   40.8940 C   0  0  0  0  0  0  0  0  0  0  0  0
   37.9170   32.5440   40.5670 N   0  0  0  0  0  0  0  0  0  0  0  0
   38.2340   31.3810   39.9770 C   0  0  0  0  0  0  0  0  0  0  0  0
   39.5230   31.1210   39.6910 N   0  0  0  0  0  0  0  0  0  0  0  0
   41.4940   31.7420   39.7350 H   0  0  0  0  0  0  0  0  0  0  0  0
   38.6230   34.4070   41.3580 H   0  0  0  0  0  0  0  0  0  0  0  0
   41.2660   34.0810   40.8690 N   0  0  0  0  0  0  0  0  0  0  0  0
   41.5580   34.6500   40.0450 H   0  0  0  0  0  0  0  0  0  0  0  0
   41.8330   34.2420   41.7540 H   0  0  0  0  0  0  0  0  0  0  0  0
   38.0800   30.4130   42.6130 H   0  0  0  0  0  0  0  0  0  0  0  0
   37.7100   29.2170   42.0640 S   0  0  0  0  0  0  0  0  0  0  0  0
   39.0240   28.4810   41.8310 O   0  0  0  0  0  0  0  0  0  0  0  0
   36.9110   28.3590   43.0060 O   0  0  0  0  0  0  0  0  0  0  0  0
  1 21  1  0  0  0  0
  2 13  1  0  0  0  0
  2  1  2  0  0  0  0
  3  2  1  0  0  0  0
  4  3  1  0  0  0  0
  5  3  2  0  0  0  0
  5  7  1  0  0  0  0
  6  5  1  0  0  0  0
  7  8  2  0  0  0  0
  8  1  1  0  0  0  0
  9 10  1  0  0  0  0
 10 17  1  0  0  0  0
 10 11  2  0  0  0  0
 11 16  1  0  0  0  0
 12 11  1  0  0  0  0
 13 12  2  0  0  0  0
 14 13  1  0  0  0  0
 14  9  2  0  0  0  0
 15  9  1  0  0  0  0
 17 19  1  0  0  0  0
 18 17  1  0  0  0  0
 21 20  1  0  0  0  0
 21 23  2  0  0  0  0
 22 21  2  0  0  0  0
M  END
>  <minimizedAffinity>
-4.26532888

$$$$
