
 OpenBabel03252506143D

 39 41  0  0  0  0  0  0  0  0999 V2000
   40.4890   30.3470   39.9850 F   0  0  0  0  0  0  0  0  0  0  0  0
   39.4140   31.1340   39.9630 C   0  0  0  0  0  0  0  0  0  0  0  0
   39.5700   32.4920   39.7010 C   0  0  0  0  0  0  0  0  0  0  0  0
   38.5020   33.3830   39.6570 C   0  0  0  0  0  0  0  0  0  0  0  0
   37.2100   32.9100   39.8850 C   0  0  0  0  0  0  0  0  0  0  0  0
   37.0950   31.5520   40.1430 C   0  0  0  0  0  0  0  0  0  0  0  0
   38.1290   30.6700   40.1890 C   0  0  0  0  0  0  0  0  0  0  0  0
   38.7070   34.4380   39.4450 H   0  0  0  0  0  0  0  0  0  0  0  0
   36.4410   33.6400   39.8370 H   0  0  0  0  0  0  0  0  0  0  0  0
   36.0460   31.3250   40.2920 H   0  0  0  0  0  0  0  0  0  0  0  0
   42.4580   33.9530   37.9720 C   0  0  0  0  0  0  0  0  0  0  0  0
   43.4030   34.0460   39.0090 C   0  0  0  0  0  0  0  0  0  0  0  0
   43.0430   33.6050   40.3020 C   0  0  0  0  0  0  0  0  0  0  0  0
   41.7770   33.1090   40.4600 N   0  0  0  0  0  0  0  0  0  0  0  0
   40.9060   33.0350   39.4530 C   0  0  0  0  0  0  0  0  0  0  0  0
   41.2480   33.4540   38.2220 N   0  0  0  0  0  0  0  0  0  0  0  0
   44.4000   34.4360   38.8810 H   0  0  0  0  0  0  0  0  0  0  0  0
   43.7340   33.6560   41.1310 H   0  0  0  0  0  0  0  0  0  0  0  0
   42.8300   34.3970   36.6780 N   0  0  0  0  0  0  0  0  0  0  0  0
   43.5040   33.9700   35.9780 H   0  0  0  0  0  0  0  0  0  0  0  0
   42.4000   35.2730   36.3130 H   0  0  0  0  0  0  0  0  0  0  0  0
   37.8940   29.3490   40.4540 O   0  0  0  0  0  0  0  0  0  0  0  0
   35.3350   28.7940   40.8530 O   0  0  0  0  0  0  0  0  0  0  0  0
   36.7160   28.7190   41.4700 P   0  0  2  0  0  0  0  0  0  0  0  0
   36.7450   29.6010   42.9370 O   0  0  0  0  0  0  0  0  0  0  0  0
   35.8250   29.8270   43.2150 H   0  0  0  0  0  0  0  0  0  0  0  0
   37.0010   27.1160   41.9240 O   0  0  0  0  0  0  0  0  0  0  0  0
   38.5330   25.3810   41.9550 C   0  0  0  0  0  0  0  0  0  0  0  0
   38.1360   26.6090   42.4950 C   0  0  0  0  0  0  0  0  0  0  0  0
   38.9190   27.1250   43.5010 C   0  0  0  0  0  0  0  0  0  0  0  0
   38.5730   28.0720   43.8840 H   0  0  0  0  0  0  0  0  0  0  0  0
   40.0410   26.4780   43.9620 C   0  0  0  0  0  0  0  0  0  0  0  0
   40.6320   26.9120   44.7530 H   0  0  0  0  0  0  0  0  0  0  0  0
   40.4490   25.2620   43.4400 C   0  0  0  0  0  3  0  0  0  0  0  0
   39.6600   24.7460   42.4310 C   0  0  0  0  0  3  0  0  0  0  0  0
   37.4070   25.4950   39.6860 H   0  0  0  0  0  0  0  0  0  0  0  0
   37.6360   24.5800   40.6580 S   0  0  0  0  0  0  0  0  0  0  0  0
   38.4770   23.4220   40.1400 O   0  0  0  0  0  0  0  0  0  0  0  0
   36.3970   23.9720   41.2240 O   0  0  0  0  0  0  0  0  0  0  0  0
  2  1  1  0  0  0  0
  2  7  1  0  0  0  0
  3  2  2  0  0  0  0
  4  3  1  0  0  0  0
  4  5  2  0  0  0  0
  5  6  1  0  0  0  0
  6  7  2  0  0  0  0
  6 10  1  0  0  0  0
  7 22  1  0  0  0  0
  8  4  1  0  0  0  0
  9  5  1  0  0  0  0
 11 16  2  0  0  0  0
 11 12  1  0  0  0  0
 12 13  2  0  0  0  0
 13 14  1  0  0  0  0
 13 18  1  0  0  0  0
 15  3  1  0  0  0  0
 15 14  2  0  0  0  0
 16 15  1  0  0  0  0
 17 12  1  0  0  0  0
 19 11  1  0  0  0  0
 20 19  1  0  0  0  0
 21 19  1  0  0  0  0
 22 24  1  0  0  0  0
 24 23  2  6  0  0  0
 24 27  1  0  0  0  0
 24 25  1  0  0  0  0
 25 26  1  0  0  0  0
 27 29  1  0  0  0  0
 28 35  2  0  0  0  0
 28 29  1  0  0  0  0
 29 30  2  0  0  0  0
 30 31  1  0  0  0  0
 30 32  1  0  0  0  0
 32 33  1  0  0  0  0
 34 32  2  0  0  0  0
 35 34  1  0  0  0  0
 36 37  1  0  0  0  0
 37 39  2  0  0  0  0
 37 28  1  0  0  0  0
 38 37  2  0  0  0  0
M  END
>  <minimizedAffinity>
-7.0024581

$$$$

 OpenBabel03252506143D

 39 41  0  0  0  0  0  0  0  0999 V2000
   37.8240   32.1270   38.9760 F   0  0  0  0  0  0  0  0  0  0  0  0
   38.5360   31.0010   38.9480 C   0  0  0  0  0  0  0  0  0  0  0  0
   39.9260   31.0750   38.9070 C   0  0  0  0  0  0  0  0  0  0  0  0
   40.7440   29.9510   38.8780 C   0  0  0  0  0  0  0  0  0  0  0  0
   40.1630   28.6830   38.8900 C   0  0  0  0  0  0  0  0  0  0  0  0
   38.7770   28.6500   38.9300 C   0  0  0  0  0  0  0  0  0  0  0  0
   37.9640   29.7400   38.9590 C   0  0  0  0  0  0  0  0  0  0  0  0
   41.8300   30.0930   38.8470 H   0  0  0  0  0  0  0  0  0  0  0  0
   40.8420   27.8690   38.8660 H   0  0  0  0  0  0  0  0  0  0  0  0
   38.4650   27.6120   38.9420 H   0  0  0  0  0  0  0  0  0  0  0  0
   41.9080   33.9560   37.7940 C   0  0  0  0  0  0  0  0  0  0  0  0
   41.8010   34.8260   38.8930 C   0  0  0  0  0  0  0  0  0  0  0  0
   41.0460   34.4190   40.0160 C   0  0  0  0  0  0  0  0  0  0  0  0
   40.4600   33.1830   39.9560 N   0  0  0  0  0  0  0  0  0  0  0  0
   40.5830   32.3840   38.8970 C   0  0  0  0  0  0  0  0  0  0  0  0
   41.3010   32.7710   37.8280 N   0  0  0  0  0  0  0  0  0  0  0  0
   42.2650   35.7990   38.9380 H   0  0  0  0  0  0  0  0  0  0  0  0
   40.9350   35.0520   40.8850 H   0  0  0  0  0  0  0  0  0  0  0  0
   42.6680   34.3740   36.6730 N   0  0  0  0  0  0  0  0  0  0  0  0
   43.7180   34.4900   36.5660 H   0  0  0  0  0  0  0  0  0  0  0  0
   42.1630   34.6150   35.7950 H   0  0  0  0  0  0  0  0  0  0  0  0
   36.6060   29.5830   38.9970 O   0  0  0  0  0  0  0  0  0  0  0  0
   34.2180   29.0850   40.0280 O   0  0  0  0  0  0  0  0  0  0  0  0
   35.6410   29.4790   40.3670 P   0  0  2  0  0  0  0  0  0  0  0  0
   35.6520   31.0010   41.1480 O   0  0  0  0  0  0  0  0  0  0  0  0
   34.7350   31.2530   41.4150 H   0  0  0  0  0  0  0  0  0  0  0  0
   36.2240   28.3940   41.5240 O   0  0  0  0  0  0  0  0  0  0  0  0
   38.0030   27.0650   42.1760 C   0  0  0  0  0  0  0  0  0  0  0  0
   37.4810   28.3570   42.0620 C   0  0  0  0  0  0  0  0  0  0  0  0
   38.2810   29.3880   42.4960 C   0  0  0  0  0  0  0  0  0  0  0  0
   37.8350   30.3640   42.3880 H   0  0  0  0  0  0  0  0  0  0  0  0
   39.5350   29.1740   43.0180 C   0  0  0  0  0  0  0  0  0  0  0  0
   40.1350   30.0060   43.3490 H   0  0  0  0  0  0  0  0  0  0  0  0
   40.0680   27.9020   43.1380 C   0  0  0  0  0  3  0  0  0  0  0  0
   39.2620   26.8690   42.7020 C   0  0  0  0  0  3  0  0  0  0  0  0
   35.7990   25.8270   41.9690 H   0  0  0  0  0  0  0  0  0  0  0  0
   37.1040   25.6300   41.6650 S   0  0  0  0  0  0  0  0  0  0  0  0
   37.3010   25.4500   40.1660 O   0  0  0  0  0  0  0  0  0  0  0  0
   37.7020   24.4230   42.3090 O   0  0  0  0  0  0  0  0  0  0  0  0
  2  7  1  0  0  0  0
  2  1  1  0  0  0  0
  3  2  2  0  0  0  0
  4  5  2  0  0  0  0
  4  3  1  0  0  0  0
  5  6  1  0  0  0  0
  6 10  1  0  0  0  0
  6  7  2  0  0  0  0
  7 22  1  0  0  0  0
  8  4  1  0  0  0  0
  9  5  1  0  0  0  0
 11 16  2  0  0  0  0
 11 12  1  0  0  0  0
 12 17  1  0  0  0  0
 12 13  2  0  0  0  0
 13 18  1  0  0  0  0
 14 13  1  0  0  0  0
 15  3  1  0  0  0  0
 15 14  2  0  0  0  0
 16 15  1  0  0  0  0
 19 11  1  0  0  0  0
 20 19  1  0  0  0  0
 21 19  1  0  0  0  0
 22 24  1  0  0  0  0
 24 23  2  6  0  0  0
 24 25  1  0  0  0  0
 24 27  1  0  0  0  0
 25 26  1  0  0  0  0
 27 29  1  0  0  0  0
 28 35  1  0  0  0  0
 29 28  2  0  0  0  0
 29 30  1  0  0  0  0
 30 32  2  0  0  0  0
 31 30  1  0  0  0  0
 32 34  1  0  0  0  0
 32 33  1  0  0  0  0
 35 34  2  0  0  0  0
 37 36  1  0  0  0  0
 37 28  1  0  0  0  0
 37 39  2  0  0  0  0
 38 37  2  0  0  0  0
M  END
>  <minimizedAffinity>
-6.67216825

$$$$

 OpenBabel03252506143D

 39 41  0  0  0  0  0  0  0  0999 V2000
   40.1580   31.4560   38.7250 F   0  0  0  0  0  0  0  0  0  0  0  0
   39.6630   32.5730   39.2580 C   0  0  0  0  0  0  0  0  0  0  0  0
   40.5370   33.5260   39.7750 C   0  0  0  0  0  0  0  0  0  0  0  0
   40.1060   34.7190   40.3460 C   0  0  0  0  0  0  0  0  0  0  0  0
   38.7390   34.9890   40.4110 C   0  0  0  0  0  0  0  0  0  0  0  0
   37.9010   34.0160   39.8860 C   0  0  0  0  0  0  0  0  0  0  0  0
   38.3070   32.8460   39.3250 C   0  0  0  0  0  0  0  0  0  0  0  0
   40.8560   35.4180   40.7310 H   0  0  0  0  0  0  0  0  0  0  0  0
   38.4760   35.9150   40.8580 H   0  0  0  0  0  0  0  0  0  0  0  0
   36.8780   34.3580   39.9960 H   0  0  0  0  0  0  0  0  0  0  0  0
   44.0940   33.9170   38.9630 C   0  0  0  0  0  0  0  0  0  0  0  0
   44.6710   32.8340   39.6480 C   0  0  0  0  0  0  0  0  0  0  0  0
   43.8330   31.9690   40.3890 C   0  0  0  0  0  0  0  0  0  0  0  0
   42.4940   32.2520   40.3880 N   0  0  0  0  0  0  0  0  0  0  0  0
   41.9810   33.2890   39.7270 C   0  0  0  0  0  0  0  0  0  0  0  0
   42.7780   34.1120   39.0220 N   0  0  0  0  0  0  0  0  0  0  0  0
   45.7270   32.6130   39.6450 H   0  0  0  0  0  0  0  0  0  0  0  0
   44.2290   31.1230   40.9310 H   0  0  0  0  0  0  0  0  0  0  0  0
   44.9440   34.7770   38.2230 N   0  0  0  0  0  0  0  0  0  0  0  0
   45.4680   34.6030   37.3160 H   0  0  0  0  0  0  0  0  0  0  0  0
   45.1080   35.7400   38.5830 H   0  0  0  0  0  0  0  0  0  0  0  0
   37.3860   31.9600   38.8400 O   0  0  0  0  0  0  0  0  0  0  0  0
   35.7150   29.9060   38.8000 O   0  0  0  0  0  0  0  0  0  0  0  0
   36.6770   30.6850   39.6710 P   0  0  2  0  0  0  0  0  0  0  0  0
   35.8480   31.3240   41.0260 O   0  0  0  0  0  0  0  0  0  0  0  0
   34.9540   30.9100   41.1020 H   0  0  0  0  0  0  0  0  0  0  0  0
   37.7950   29.5980   40.3220 O   0  0  0  0  0  0  0  0  0  0  0  0
   38.7340   28.8890   42.3150 C   0  0  0  0  0  0  0  0  0  0  0  0
   37.6430   28.8280   41.4420 C   0  0  0  0  0  0  0  0  0  0  0  0
   36.5940   28.0220   41.8180 C   0  0  0  0  0  0  0  0  0  0  0  0
   35.7780   28.0080   41.1120 H   0  0  0  0  0  0  0  0  0  0  0  0
   36.6020   27.3060   42.9910 C   0  0  0  0  0  0  0  0  0  0  0  0
   35.7620   26.6840   43.2540 H   0  0  0  0  0  0  0  0  0  0  0  0
   37.6730   27.3550   43.8680 C   0  0  0  0  0  3  0  0  0  0  0  0
   38.7250   28.1640   43.4880 C   0  0  0  0  0  3  0  0  0  0  0  0
   40.3650   29.8740   40.6420 H   0  0  0  0  0  0  0  0  0  0  0  0
   40.1630   29.8770   41.9810 S   0  0  0  0  0  0  0  0  0  0  0  0
   39.9030   31.2850   42.4990 O   0  0  0  0  0  0  0  0  0  0  0  0
   41.3150   29.3510   42.7720 O   0  0  0  0  0  0  0  0  0  0  0  0
  1  2  1  0  0  0  0
  2  7  2  0  0  0  0
  2  3  1  0  0  0  0
  3  4  2  0  0  0  0
  4  5  1  0  0  0  0
  4  8  1  0  0  0  0
  5  9  1  0  0  0  0
  6 10  1  0  0  0  0
  6  5  2  0  0  0  0
  7  6  1  0  0  0  0
 11 16  2  0  0  0  0
 11 12  1  0  0  0  0
 12 13  2  0  0  0  0
 13 18  1  0  0  0  0
 14 13  1  0  0  0  0
 15  3  1  0  0  0  0
 15 14  2  0  0  0  0
 16 15  1  0  0  0  0
 17 12  1  0  0  0  0
 19 21  1  0  0  0  0
 19 11  1  0  0  0  0
 20 19  1  0  0  0  0
 22  7  1  0  0  0  0
 22 24  1  0  0  0  0
 24 23  2  6  0  0  0
 24 27  1  0  0  0  0
 24 25  1  0  0  0  0
 25 26  1  0  0  0  0
 27 29  1  0  0  0  0
 28 35  1  0  0  0  0
 29 30  1  0  0  0  0
 29 28  2  0  0  0  0
 30 32  2  0  0  0  0
 31 30  1  0  0  0  0
 32 33  1  0  0  0  0
 32 34  1  0  0  0  0
 35 34  2  0  0  0  0
 36 37  1  0  0  0  0
 37 28  1  0  0  0  0
 37 38  2  0  0  0  0
 37 39  2  0  0  0  0
M  END
>  <minimizedAffinity>
-6.59085226

$$$$

 OpenBabel03252506143D

 39 41  0  0  0  0  0  0  0  0999 V2000
   39.8300   31.2150   38.6700 F   0  0  0  0  0  0  0  0  0  0  0  0
   39.3550   32.3640   39.1490 C   0  0  0  0  0  0  0  0  0  0  0  0
   40.2470   33.3680   39.5180 C   0  0  0  0  0  0  0  0  0  0  0  0
   39.8380   34.5970   40.0230 C   0  0  0  0  0  0  0  0  0  0  0  0
   38.4740   34.8520   40.1740 C   0  0  0  0  0  0  0  0  0  0  0  0
   37.6190   33.8290   39.7970 C   0  0  0  0  0  0  0  0  0  0  0  0
   38.0040   32.6230   39.3010 C   0  0  0  0  0  0  0  0  0  0  0  0
   40.6010   35.3360   40.2910 H   0  0  0  0  0  0  0  0  0  0  0  0
   38.2290   35.8080   40.5650 H   0  0  0  0  0  0  0  0  0  0  0  0
   36.6000   34.1640   39.9590 H   0  0  0  0  0  0  0  0  0  0  0  0
   43.6380   33.3720   38.1140 C   0  0  0  0  0  0  0  0  0  0  0  0
   44.3740   32.7310   39.1250 C   0  0  0  0  0  0  0  0  0  0  0  0
   43.7000   32.2980   40.2900 C   0  0  0  0  0  0  0  0  0  0  0  0
   42.3540   32.5370   40.3540 N   0  0  0  0  0  0  0  0  0  0  0  0
   41.6880   33.1480   39.3750 C   0  0  0  0  0  0  0  0  0  0  0  0
   42.3280   33.5600   38.2670 N   0  0  0  0  0  0  0  0  0  0  0  0
   45.4340   32.5440   39.0710 H   0  0  0  0  0  0  0  0  0  0  0  0
   44.2220   31.8010   41.0950 H   0  0  0  0  0  0  0  0  0  0  0  0
   44.3230   33.8020   36.9490 N   0  0  0  0  0  0  0  0  0  0  0  0
   44.7430   33.2340   36.1570 H   0  0  0  0  0  0  0  0  0  0  0  0
   44.4590   34.8240   36.8050 H   0  0  0  0  0  0  0  0  0  0  0  0
   37.0660   31.6870   38.9620 O   0  0  0  0  0  0  0  0  0  0  0  0
   35.5030   29.5620   39.1930 O   0  0  0  0  0  0  0  0  0  0  0  0
   36.4640   30.4620   39.9400 P   0  0  2  0  0  0  0  0  0  0  0  0
   35.6680   31.1830   41.2730 O   0  0  0  0  0  0  0  0  0  0  0  0
   34.8010   30.7360   41.4330 H   0  0  0  0  0  0  0  0  0  0  0  0
   37.6660   29.4930   40.6270 O   0  0  0  0  0  0  0  0  0  0  0  0
   38.0570   27.2130   40.5740 C   0  0  0  0  0  0  0  0  0  0  0  0
   37.4980   28.2950   41.2630 C   0  0  0  0  0  0  0  0  0  0  0  0
   36.8710   28.0120   42.4540 C   0  0  0  0  0  0  0  0  0  0  0  0
   36.4570   28.8780   42.9470 H   0  0  0  0  0  0  0  0  0  0  0  0
   36.7910   26.7350   42.9560 C   0  0  0  0  0  0  0  0  0  0  0  0
   36.2920   26.5510   43.8940 H   0  0  0  0  0  0  0  0  0  0  0  0
   37.3380   25.6530   42.2890 C   0  0  0  0  0  3  0  0  0  0  0  0
   37.9660   25.9390   41.0930 C   0  0  0  0  0  3  0  0  0  0  0  0
   39.6910   28.4960   39.1200 H   0  0  0  0  0  0  0  0  0  0  0  0
   38.8960   27.4030   39.0290 S   0  0  0  0  0  0  0  0  0  0  0  0
   39.7130   26.1440   38.7700 O   0  0  0  0  0  0  0  0  0  0  0  0
   37.8880   27.4740   37.9310 O   0  0  0  0  0  0  0  0  0  0  0  0
  1  2  1  0  0  0  0
  2  7  2  0  0  0  0
  2  3  1  0  0  0  0
  3  4  2  0  0  0  0
  4  5  1  0  0  0  0
  4  8  1  0  0  0  0
  5  9  1  0  0  0  0
  6 10  1  0  0  0  0
  6  5  2  0  0  0  0
  7  6  1  0  0  0  0
 11 16  2  0  0  0  0
 11 12  1  0  0  0  0
 12 13  2  0  0  0  0
 13 14  1  0  0  0  0
 13 18  1  0  0  0  0
 15  3  1  0  0  0  0
 15 14  2  0  0  0  0
 16 15  1  0  0  0  0
 17 12  1  0  0  0  0
 19 11  1  0  0  0  0
 20 19  1  0  0  0  0
 21 19  1  0  0  0  0
 22  7  1  0  0  0  0
 22 24  1  0  0  0  0
 24 23  2  6  0  0  0
 24 27  1  0  0  0  0
 24 25  1  0  0  0  0
 25 26  1  0  0  0  0
 27 29  1  0  0  0  0
 28 35  2  0  0  0  0
 28 29  1  0  0  0  0
 29 30  2  0  0  0  0
 30 31  1  0  0  0  0
 30 32  1  0  0  0  0
 32 33  1  0  0  0  0
 34 32  2  0  0  0  0
 35 34  1  0  0  0  0
 37 36  1  0  0  0  0
 37 28  1  0  0  0  0
 38 37  2  0  0  0  0
 39 37  2  0  0  0  0
M  END
>  <minimizedAffinity>
-6.31556606

$$$$

 OpenBabel03252506143D

 39 41  0  0  0  0  0  0  0  0999 V2000
   40.0550   30.5320   37.6550 F   0  0  0  0  0  0  0  0  0  0  0  0
   39.0500   31.1130   38.3100 C   0  0  0  0  0  0  0  0  0  0  0  0
   39.2860   32.2950   39.0070 C   0  0  0  0  0  0  0  0  0  0  0  0
   38.2950   32.9680   39.7140 C   0  0  0  0  0  0  0  0  0  0  0  0
   37.0000   32.4480   39.7360 C   0  0  0  0  0  0  0  0  0  0  0  0
   36.8060   31.2710   39.0300 C   0  0  0  0  0  0  0  0  0  0  0  0
   37.7640   30.6020   38.3350 C   0  0  0  0  0  0  0  0  0  0  0  0
   38.5590   33.8930   40.2380 H   0  0  0  0  0  0  0  0  0  0  0  0
   36.2920   33.0090   40.2930 H   0  0  0  0  0  0  0  0  0  0  0  0
   35.7630   30.9890   39.1270 H   0  0  0  0  0  0  0  0  0  0  0  0
   42.3650   33.9280   37.8590 C   0  0  0  0  0  0  0  0  0  0  0  0
   43.1300   33.9710   39.0380 C   0  0  0  0  0  0  0  0  0  0  0  0
   42.5830   33.4360   40.2270 C   0  0  0  0  0  0  0  0  0  0  0  0
   41.3240   32.9050   40.1480 N   0  0  0  0  0  0  0  0  0  0  0  0
   40.6270   32.8810   39.0120 C   0  0  0  0  0  0  0  0  0  0  0  0
   41.1470   33.3890   37.8800 N   0  0  0  0  0  0  0  0  0  0  0  0
   44.1220   34.3890   39.0970 H   0  0  0  0  0  0  0  0  0  0  0  0
   43.1320   33.4460   41.1580 H   0  0  0  0  0  0  0  0  0  0  0  0
   42.9230   34.4650   36.6720 N   0  0  0  0  0  0  0  0  0  0  0  0
   43.7130   34.1000   36.0640 H   0  0  0  0  0  0  0  0  0  0  0  0
   42.5300   35.3550   36.3000 H   0  0  0  0  0  0  0  0  0  0  0  0
   37.4530   29.4450   37.6760 O   0  0  0  0  0  0  0  0  0  0  0  0
   37.3450   26.8190   37.3470 O   0  0  0  0  0  0  0  0  0  0  0  0
   37.1890   27.9340   38.3590 P   0  0  2  0  0  0  0  0  0  0  0  0
   35.6070   27.9100   39.0110 O   0  0  0  0  0  0  0  0  0  0  0  0
   35.1510   27.0690   38.7660 H   0  0  0  0  0  0  0  0  0  0  0  0
   38.2010   27.5990   39.6700 O   0  0  0  0  0  0  0  0  0  0  0  0
   37.5490   26.7900   41.7380 C   0  0  0  0  0  0  0  0  0  0  0  0
   37.9730   27.8910   40.9860 C   0  0  0  0  0  0  0  0  0  0  0  0
   38.0970   29.0850   41.6560 C   0  0  0  0  0  0  0  0  0  0  0  0
   38.4270   29.9040   41.0340 H   0  0  0  0  0  0  0  0  0  0  0  0
   37.8240   29.2070   42.9970 C   0  0  0  0  0  0  0  0  0  0  0  0
   37.9330   30.1610   43.4890 H   0  0  0  0  0  0  0  0  0  0  0  0
   37.4050   28.1290   43.7570 C   0  0  0  0  0  3  0  0  0  0  0  0
   37.2790   26.9310   43.0830 C   0  0  0  0  0  3  0  0  0  0  0  0
   36.7620   25.3370   39.8140 H   0  0  0  0  0  0  0  0  0  0  0  0
   37.3370   25.1830   41.0310 S   0  0  0  0  0  0  0  0  0  0  0  0
   38.7050   24.5250   40.9180 O   0  0  0  0  0  0  0  0  0  0  0  0
   36.5470   24.3350   41.9730 O   0  0  0  0  0  0  0  0  0  0  0  0
  1  2  1  0  0  0  0
  2  7  2  0  0  0  0
  2  3  1  0  0  0  0
  3 15  1  0  0  0  0
  3  4  2  0  0  0  0
  4  5  1  0  0  0  0
  4  8  1  0  0  0  0
  5  9  1  0  0  0  0
  6 10  1  0  0  0  0
  6  5  2  0  0  0  0
  7  6  1  0  0  0  0
 11 16  2  0  0  0  0
 11 12  1  0  0  0  0
 12 17  1  0  0  0  0
 12 13  2  0  0  0  0
 13 18  1  0  0  0  0
 14 13  1  0  0  0  0
 15 14  2  0  0  0  0
 16 15  1  0  0  0  0
 19 11  1  0  0  0  0
 20 19  1  0  0  0  0
 21 19  1  0  0  0  0
 22  7  1  0  0  0  0
 22 24  1  0  0  0  0
 24 23  2  6  0  0  0
 24 25  1  0  0  0  0
 24 27  1  0  0  0  0
 26 25  1  0  0  0  0
 27 29  1  0  0  0  0
 28 35  1  0  0  0  0
 29 30  1  0  0  0  0
 29 28  2  0  0  0  0
 30 32  2  0  0  0  0
 31 30  1  0  0  0  0
 32 33  1  0  0  0  0
 32 34  1  0  0  0  0
 35 34  2  0  0  0  0
 36 37  1  0  0  0  0
 37 28  1  0  0  0  0
 37 39  2  0  0  0  0
 38 37  2  0  0  0  0
M  END
>  <minimizedAffinity>
-6.24318647

$$$$

 OpenBabel03252506143D

 39 41  0  0  0  0  0  0  0  0999 V2000
   39.9320   30.5610   39.7980 F   0  0  0  0  0  0  0  0  0  0  0  0
   39.1500   31.6380   39.7310 C   0  0  0  0  0  0  0  0  0  0  0  0
   39.7170   32.9010   39.8740 C   0  0  0  0  0  0  0  0  0  0  0  0
   38.9750   34.0760   39.8150 C   0  0  0  0  0  0  0  0  0  0  0  0
   37.5980   34.0030   39.6030 C   0  0  0  0  0  0  0  0  0  0  0  0
   37.0710   32.7280   39.4650 C   0  0  0  0  0  0  0  0  0  0  0  0
   37.7830   31.5710   39.5200 C   0  0  0  0  0  0  0  0  0  0  0  0
   39.4940   35.0330   39.9380 H   0  0  0  0  0  0  0  0  0  0  0  0
   37.0910   34.9340   39.5680 H   0  0  0  0  0  0  0  0  0  0  0  0
   36.0030   32.8210   39.2990 H   0  0  0  0  0  0  0  0  0  0  0  0
   42.9520   33.2380   41.5740 C   0  0  0  0  0  0  0  0  0  0  0  0
   43.8490   33.2670   40.4910 C   0  0  0  0  0  0  0  0  0  0  0  0
   43.3370   33.1720   39.1770 C   0  0  0  0  0  0  0  0  0  0  0  0
   41.9800   33.0550   39.0460 N   0  0  0  0  0  0  0  0  0  0  0  0
   41.1580   33.0300   40.0960 C   0  0  0  0  0  0  0  0  0  0  0  0
   41.6450   33.1210   41.3460 N   0  0  0  0  0  0  0  0  0  0  0  0
   44.9180   33.3610   40.5980 H   0  0  0  0  0  0  0  0  0  0  0  0
   43.9860   33.1910   38.3130 H   0  0  0  0  0  0  0  0  0  0  0  0
   43.4760   33.3350   42.8870 N   0  0  0  0  0  0  0  0  0  0  0  0
   43.9100   34.1650   43.3890 H   0  0  0  0  0  0  0  0  0  0  0  0
   43.4520   32.4880   43.4930 H   0  0  0  0  0  0  0  0  0  0  0  0
   37.1520   30.3670   39.3710 O   0  0  0  0  0  0  0  0  0  0  0  0
   34.7450   29.2860   39.5940 O   0  0  0  0  0  0  0  0  0  0  0  0
   35.9710   29.7160   40.3710 P   0  0  2  0  0  0  0  0  0  0  0  0
   35.5390   30.8990   41.5300 O   0  0  0  0  0  0  0  0  0  0  0  0
   34.5560   30.9410   41.6220 H   0  0  0  0  0  0  0  0  0  0  0  0
   36.5070   28.3960   41.2800 O   0  0  0  0  0  0  0  0  0  0  0  0
   38.1960   26.9150   41.8380 C   0  0  0  0  0  0  0  0  0  0  0  0
   37.7360   28.2360   41.8590 C   0  0  0  0  0  0  0  0  0  0  0  0
   38.5590   29.1690   42.4440 C   0  0  0  0  0  0  0  0  0  0  0  0
   38.1610   30.1720   42.4360 H   0  0  0  0  0  0  0  0  0  0  0  0
   39.7780   28.8350   42.9850 C   0  0  0  0  0  0  0  0  0  0  0  0
   40.3980   29.5930   43.4360 H   0  0  0  0  0  0  0  0  0  0  0  0
   40.2500   27.5330   42.9740 C   0  0  0  0  0  3  0  0  0  0  0  0
   39.4210   26.5990   42.3860 C   0  0  0  0  0  3  0  0  0  0  0  0
   36.2410   26.1420   40.4190 H   0  0  0  0  0  0  0  0  0  0  0  0
   37.2590   25.5950   41.1250 S   0  0  0  0  0  0  0  0  0  0  0  0
   38.1830   24.7850   40.2260 O   0  0  0  0  0  0  0  0  0  0  0  0
   36.8190   24.6680   42.2080 O   0  0  0  0  0  0  0  0  0  0  0  0
  2  1  1  0  0  0  0
  2  3  1  0  0  0  0
  3 15  1  0  0  0  0
  4  3  2  0  0  0  0
  4  8  1  0  0  0  0
  5  4  1  0  0  0  0
  6  7  1  0  0  0  0
  6  5  2  0  0  0  0
  7  2  2  0  0  0  0
  9  5  1  0  0  0  0
 10  6  1  0  0  0  0
 11 19  1  0  0  0  0
 12 17  1  0  0  0  0
 12 11  2  0  0  0  0
 13 12  1  0  0  0  0
 14 13  2  0  0  0  0
 14 15  1  0  0  0  0
 15 16  2  0  0  0  0
 16 11  1  0  0  0  0
 18 13  1  0  0  0  0
 19 20  1  0  0  0  0
 19 21  1  0  0  0  0
 22  7  1  0  0  0  0
 22 24  1  0  0  0  0
 24 23  2  6  0  0  0
 24 27  1  0  0  0  0
 24 25  1  0  0  0  0
 25 26  1  0  0  0  0
 27 29  1  0  0  0  0
 28 29  2  0  0  0  0
 28 35  1  0  0  0  0
 29 30  1  0  0  0  0
 30 32  2  0  0  0  0
 31 30  1  0  0  0  0
 32 33  1  0  0  0  0
 34 32  1  0  0  0  0
 35 34  2  0  0  0  0
 36 37  1  0  0  0  0
 37 28  1  0  0  0  0
 37 39  2  0  0  0  0
 38 37  2  0  0  0  0
M  END
>  <minimizedAffinity>
-6.23599052

$$$$

 OpenBabel03252506143D

 39 41  0  0  0  0  0  0  0  0999 V2000
   39.7420   26.8000   41.0950 F   0  0  0  0  0  0  0  0  0  0  0  0
   38.8340   27.1650   42.0000 C   0  0  0  0  0  0  0  0  0  0  0  0
   37.6220   26.4830   42.0600 C   0  0  0  0  0  0  0  0  0  0  0  0
   36.6210   26.7960   42.9750 C   0  0  0  0  0  0  0  0  0  0  0  0
   36.8260   27.8380   43.8800 C   0  0  0  0  0  0  0  0  0  0  0  0
   38.0450   28.4920   43.7880 C   0  0  0  0  0  0  0  0  0  0  0  0
   39.0320   28.1980   42.9010 C   0  0  0  0  0  0  0  0  0  0  0  0
   35.6940   26.2130   42.9590 H   0  0  0  0  0  0  0  0  0  0  0  0
   36.0250   28.0250   44.5490 H   0  0  0  0  0  0  0  0  0  0  0  0
   38.0700   29.2650   44.5480 H   0  0  0  0  0  0  0  0  0  0  0  0
   37.6550   23.1430   40.5420 C   0  0  0  0  0  0  0  0  0  0  0  0
   36.8660   23.3360   39.3950 C   0  0  0  0  0  0  0  0  0  0  0  0
   36.3230   24.6160   39.1460 C   0  0  0  0  0  0  0  0  0  0  0  0
   36.6080   25.5990   40.0550 N   0  0  0  0  0  0  0  0  0  0  0  0
   37.3620   25.3800   41.1330 C   0  0  0  0  0  0  0  0  0  0  0  0
   37.8780   24.1620   41.3700 N   0  0  0  0  0  0  0  0  0  0  0  0
   36.6440   22.5590   38.6790 H   0  0  0  0  0  0  0  0  0  0  0  0
   35.7100   24.8140   38.2780 H   0  0  0  0  0  0  0  0  0  0  0  0
   38.1950   21.8540   40.7810 N   0  0  0  0  0  0  0  0  0  0  0  0
   38.9690   21.3340   40.2730 H   0  0  0  0  0  0  0  0  0  0  0  0
   37.8060   21.2930   41.5670 H   0  0  0  0  0  0  0  0  0  0  0  0
   40.1960   28.9160   42.9040 O   0  0  0  0  0  0  0  0  0  0  0  0
   41.2860   30.2050   40.8640 O   0  0  0  0  0  0  0  0  0  0  0  0
   40.4800   30.3800   42.1340 P   0  0  2  0  0  0  0  0  0  0  0  0
   41.3200   31.4020   43.2190 O   0  0  0  0  0  0  0  0  0  0  0  0
   42.0690   31.8490   42.7550 H   0  0  0  0  0  0  0  0  0  0  0  0
   39.0690   31.2260   41.7480 O   0  0  0  0  0  0  0  0  0  0  0  0
   38.3570   32.2580   39.8020 C   0  0  0  0  0  0  0  0  0  0  0  0
   38.3250   31.1140   40.6060 C   0  0  0  0  0  0  0  0  0  0  0  0
   37.5680   30.0600   40.1520 C   0  0  0  0  0  0  0  0  0  0  0  0
   37.5740   29.2010   40.8050 H   0  0  0  0  0  0  0  0  0  0  0  0
   36.8720   30.1120   38.9670 C   0  0  0  0  0  0  0  0  0  0  0  0
   36.2880   29.2660   38.6420 H   0  0  0  0  0  0  0  0  0  0  0  0
   36.8920   31.2360   38.1590 C   0  0  0  0  0  3  0  0  0  0  0  0
   37.6520   32.2930   38.6180 C   0  0  0  0  0  3  0  0  0  0  0  0
   39.7320   33.5350   41.5080 H   0  0  0  0  0  0  0  0  0  0  0  0
   39.2800   33.7010   40.2420 S   0  0  0  0  0  0  0  0  0  0  0  0
   40.4320   33.8490   39.2580 O   0  0  0  0  0  0  0  0  0  0  0  0
   38.4200   34.9070   40.0570 O   0  0  0  0  0  0  0  0  0  0  0  0
  1  2  1  0  0  0  0
  2  3  2  0  0  0  0
  2  7  1  0  0  0  0
  3  4  1  0  0  0  0
  4  5  2  0  0  0  0
  5  9  1  0  0  0  0
  6  5  1  0  0  0  0
  6 10  1  0  0  0  0
  7 22  1  0  0  0  0
  7  6  2  0  0  0  0
  8  4  1  0  0  0  0
 11 19  1  0  0  0  0
 11 16  1  0  0  0  0
 12 11  2  0  0  0  0
 13 12  1  0  0  0  0
 13 14  2  0  0  0  0
 14 15  1  0  0  0  0
 15 16  2  0  0  0  0
 15  3  1  0  0  0  0
 17 12  1  0  0  0  0
 18 13  1  0  0  0  0
 19 21  1  0  0  0  0
 20 19  1  0  0  0  0
 24 23  2  6  0  0  0
 24 22  1  0  0  0  0
 24 25  1  0  0  0  0
 26 25  1  0  0  0  0
 27 24  1  0  0  0  0
 28 37  1  0  0  0  0
 28 29  1  0  0  0  0
 29 27  1  0  0  0  0
 30 29  2  0  0  0  0
 30 31  1  0  0  0  0
 32 30  1  0  0  0  0
 33 32  1  0  0  0  0
 34 35  1  0  0  0  0
 34 32  2  0  0  0  0
 35 28  2  0  0  0  0
 37 36  1  0  0  0  0
 38 37  2  0  0  0  0
 39 37  2  0  0  0  0
M  END
>  <minimizedAffinity>
-6.22625732

$$$$

 OpenBabel03252506143D

 39 41  0  0  0  0  0  0  0  0999 V2000
   40.2890   30.3550   38.1050 F   0  0  0  0  0  0  0  0  0  0  0  0
   39.2750   30.8420   38.8210 C   0  0  0  0  0  0  0  0  0  0  0  0
   39.4160   32.0790   39.4460 C   0  0  0  0  0  0  0  0  0  0  0  0
   38.4090   32.6600   40.2090 C   0  0  0  0  0  0  0  0  0  0  0  0
   37.1960   31.9880   40.3650 C   0  0  0  0  0  0  0  0  0  0  0  0
   37.0950   30.7600   39.7280 C   0  0  0  0  0  0  0  0  0  0  0  0
   38.0700   30.1790   38.9800 C   0  0  0  0  0  0  0  0  0  0  0  0
   38.5960   33.6370   40.6690 H   0  0  0  0  0  0  0  0  0  0  0  0
   36.4710   32.4860   40.9580 H   0  0  0  0  0  0  0  0  0  0  0  0
   36.1080   30.3580   39.9270 H   0  0  0  0  0  0  0  0  0  0  0  0
   42.2100   33.9270   37.9490 C   0  0  0  0  0  0  0  0  0  0  0  0
   43.0060   34.2130   39.0720 C   0  0  0  0  0  0  0  0  0  0  0  0
   42.5790   33.7680   40.3430 C   0  0  0  0  0  0  0  0  0  0  0  0
   41.3980   33.0770   40.3950 N   0  0  0  0  0  0  0  0  0  0  0  0
   40.6680   32.8240   39.3090 C   0  0  0  0  0  0  0  0  0  0  0  0
   41.0740   33.2470   38.0990 N   0  0  0  0  0  0  0  0  0  0  0  0
   43.9360   34.7560   39.0270 H   0  0  0  0  0  0  0  0  0  0  0  0
   43.1560   33.9620   41.2360 H   0  0  0  0  0  0  0  0  0  0  0  0
   42.6480   34.3770   36.6780 N   0  0  0  0  0  0  0  0  0  0  0  0
   43.4560   34.0400   36.0760 H   0  0  0  0  0  0  0  0  0  0  0  0
   42.1280   35.1560   36.2230 H   0  0  0  0  0  0  0  0  0  0  0  0
   37.8560   28.9600   38.3980 O   0  0  0  0  0  0  0  0  0  0  0  0
   39.6700   27.0740   37.9950 O   0  0  0  0  0  0  0  0  0  0  0  0
   38.5080   27.4880   38.8720 P   0  0  2  0  0  0  0  0  0  0  0  0
   37.2730   26.3050   38.7960 O   0  0  0  0  0  0  0  0  0  0  0  0
   37.6140   25.4850   38.3640 H   0  0  0  0  0  0  0  0  0  0  0  0
   39.0290   27.4650   40.4800 O   0  0  0  0  0  0  0  0  0  0  0  0
   38.6770   28.5390   42.4990 C   0  0  0  0  0  0  0  0  0  0  0  0
   38.2530   27.5540   41.6020 C   0  0  0  0  0  0  0  0  0  0  0  0
   37.1420   26.8260   41.9610 C   0  0  0  0  0  0  0  0  0  0  0  0
   36.8540   26.0800   41.2370 H   0  0  0  0  0  0  0  0  0  0  0  0
   36.4710   27.0460   43.1400 C   0  0  0  0  0  0  0  0  0  0  0  0
   35.6030   26.4560   43.3890 H   0  0  0  0  0  0  0  0  0  0  0  0
   36.8760   28.0170   44.0400 C   0  0  0  0  0  3  0  0  0  0  0  0
   37.9910   28.7450   43.6780 C   0  0  0  0  0  3  0  0  0  0  0  0
   40.2290   29.6780   40.8480 H   0  0  0  0  0  0  0  0  0  0  0  0
   40.0870   29.5610   42.1900 S   0  0  0  0  0  0  0  0  0  0  0  0
   39.8480   30.9160   42.8420 O   0  0  0  0  0  0  0  0  0  0  0  0
   41.2750   28.9750   42.8780 O   0  0  0  0  0  0  0  0  0  0  0  0
  1  2  1  0  0  0  0
  2  7  2  0  0  0  0
  2  3  1  0  0  0  0
  3  4  2  0  0  0  0
  4  5  1  0  0  0  0
  4  8  1  0  0  0  0
  5  9  1  0  0  0  0
  6 10  1  0  0  0  0
  6  5  2  0  0  0  0
  7  6  1  0  0  0  0
 11 16  2  0  0  0  0
 11 12  1  0  0  0  0
 12 13  2  0  0  0  0
 13 14  1  0  0  0  0
 13 18  1  0  0  0  0
 15  3  1  0  0  0  0
 15 14  2  0  0  0  0
 16 15  1  0  0  0  0
 17 12  1  0  0  0  0
 19 11  1  0  0  0  0
 20 19  1  0  0  0  0
 21 19  1  0  0  0  0
 22 24  1  0  0  0  0
 22  7  1  0  0  0  0
 24 23  2  6  0  0  0
 24 27  1  0  0  0  0
 25 24  1  0  0  0  0
 26 25  1  0  0  0  0
 27 29  1  0  0  0  0
 28 35  1  0  0  0  0
 29 30  1  0  0  0  0
 29 28  2  0  0  0  0
 30 32  2  0  0  0  0
 31 30  1  0  0  0  0
 32 33  1  0  0  0  0
 32 34  1  0  0  0  0
 35 34  2  0  0  0  0
 36 37  1  0  0  0  0
 37 28  1  0  0  0  0
 37 38  2  0  0  0  0
 37 39  2  0  0  0  0
M  END
>  <minimizedAffinity>
-6.21632624

$$$$

 OpenBabel03252506143D

 39 41  0  0  0  0  0  0  0  0999 V2000
   39.8900   28.3150   40.6040 F   0  0  0  0  0  0  0  0  0  0  0  0
   40.6870   29.0740   41.3560 C   0  0  0  0  0  0  0  0  0  0  0  0
   40.3870   30.4250   41.5170 C   0  0  0  0  0  0  0  0  0  0  0  0
   41.1630   31.2860   42.2860 C   0  0  0  0  0  0  0  0  0  0  0  0
   42.2950   30.7910   42.9320 C   0  0  0  0  0  0  0  0  0  0  0  0
   42.5600   29.4430   42.7480 C   0  0  0  0  0  0  0  0  0  0  0  0
   41.8120   28.5880   42.0000 C   0  0  0  0  0  0  0  0  0  0  0  0
   40.8610   32.3360   42.3630 H   0  0  0  0  0  0  0  0  0  0  0  0
   42.8420   31.4990   43.5020 H   0  0  0  0  0  0  0  0  0  0  0  0
   43.4550   29.1960   43.3070 H   0  0  0  0  0  0  0  0  0  0  0  0
   36.8860   31.1790   40.7170 C   0  0  0  0  0  0  0  0  0  0  0  0
   37.0180   32.0540   39.6250 C   0  0  0  0  0  0  0  0  0  0  0  0
   38.3130   32.3830   39.1660 C   0  0  0  0  0  0  0  0  0  0  0  0
   39.3690   31.8170   39.8270 N   0  0  0  0  0  0  0  0  0  0  0  0
   39.2070   30.9900   40.8600 C   0  0  0  0  0  0  0  0  0  0  0  0
   37.9750   30.6770   41.2980 N   0  0  0  0  0  0  0  0  0  0  0  0
   36.1840   32.4980   39.1050 H   0  0  0  0  0  0  0  0  0  0  0  0
   38.4660   33.0510   38.3300 H   0  0  0  0  0  0  0  0  0  0  0  0
   35.5820   30.8550   41.1690 N   0  0  0  0  0  0  0  0  0  0  0  0
   34.8330   30.2550   40.7160 H   0  0  0  0  0  0  0  0  0  0  0  0
   35.2660   31.2410   42.0840 H   0  0  0  0  0  0  0  0  0  0  0  0
   42.1730   27.2740   41.8900 O   0  0  0  0  0  0  0  0  0  0  0  0
   42.2250   26.4840   44.4170 O   0  0  0  0  0  0  0  0  0  0  0  0
   41.8880   26.0530   43.0060 P   0  0  2  0  0  0  0  0  0  0  0  0
   42.8370   24.6960   42.5700 O   0  0  0  0  0  0  0  0  0  0  0  0
   43.2790   24.3210   43.3700 H   0  0  0  0  0  0  0  0  0  0  0  0
   40.2960   25.4870   42.9960 O   0  0  0  0  0  0  0  0  0  0  0  0
   38.2160   25.8400   42.0440 C   0  0  0  0  0  0  0  0  0  0  0  0
   39.1520   26.2370   43.0050 C   0  0  0  0  0  0  0  0  0  0  0  0
   38.8040   27.2990   43.8060 C   0  0  0  0  0  0  0  0  0  0  0  0
   39.5580   27.5670   44.5300 H   0  0  0  0  0  0  0  0  0  0  0  0
   37.5990   27.9490   43.6810 C   0  0  0  0  0  0  0  0  0  0  0  0
   37.3610   28.7790   44.3270 H   0  0  0  0  0  0  0  0  0  0  0  0
   36.6610   27.5710   42.7360 C   0  0  0  0  0  3  0  0  0  0  0  0
   37.0130   26.5050   41.9330 C   0  0  0  0  0  3  0  0  0  0  0  0
   38.9540   23.4440   41.6630 H   0  0  0  0  0  0  0  0  0  0  0  0
   38.5070   24.4940   40.9340 S   0  0  0  0  0  0  0  0  0  0  0  0
   37.1980   24.1620   40.2320 O   0  0  0  0  0  0  0  0  0  0  0  0
   39.4490   24.9370   39.8650 O   0  0  0  0  0  0  0  0  0  0  0  0
  1  2  1  0  0  0  0
  2  3  2  0  0  0  0
  2  7  1  0  0  0  0
  3  4  1  0  0  0  0
  4  8  1  0  0  0  0
  4  5  2  0  0  0  0
  5  9  1  0  0  0  0
  6  5  1  0  0  0  0
  6 10  1  0  0  0  0
  7  6  2  0  0  0  0
 11 19  1  0  0  0  0
 11 16  1  0  0  0  0
 12 11  2  0  0  0  0
 13 12  1  0  0  0  0
 13 14  2  0  0  0  0
 14 15  1  0  0  0  0
 15 16  2  0  0  0  0
 15  3  1  0  0  0  0
 17 12  1  0  0  0  0
 18 13  1  0  0  0  0
 19 21  1  0  0  0  0
 20 19  1  0  0  0  0
 22  7  1  0  0  0  0
 22 24  1  0  0  0  0
 24 23  2  1  0  0  0
 25 24  1  0  0  0  0
 25 26  1  0  0  0  0
 27 29  1  0  0  0  0
 27 24  1  0  0  0  0
 28 29  1  0  0  0  0
 29 30  2  0  0  0  0
 30 31  1  0  0  0  0
 32 30  1  0  0  0  0
 32 33  1  0  0  0  0
 34 32  2  0  0  0  0
 35 28  2  0  0  0  0
 35 34  1  0  0  0  0
 37 36  1  0  0  0  0
 37 28  1  0  0  0  0
 38 37  2  0  0  0  0
 39 37  2  0  0  0  0
M  END
>  <minimizedAffinity>
-6.2151103

$$$$
