
 OpenBabel03242516573D

 31 33  0  0  0  0  0  0  0  0999 V2000
   46.6000   34.5920   42.1330 C   0  0  0  0  0  0  0  0  0  0  0  0
   47.7530   35.3240   41.9220 C   0  0  0  0  0  0  0  0  0  0  0  0
   48.4670   35.2290   40.7580 C   0  0  0  0  0  0  0  0  0  0  0  0
   47.9910   34.3660   39.7870 C   0  0  0  0  0  0  0  0  0  0  0  0
   46.8390   33.6020   39.9360 C   0  0  0  0  0  0  0  0  0  0  0  0
   46.1720   33.7620   41.1570 C   0  0  0  0  0  0  0  0  0  0  0  0
   48.1490   36.0110   42.6730 H   0  0  0  0  0  0  0  0  0  0  0  0
   49.3690   35.8120   40.6150 H   0  0  0  0  0  0  0  0  0  0  0  0
   48.5730   34.3080   38.8740 H   0  0  0  0  0  0  0  0  0  0  0  0
   46.5070   32.9450   39.1480 H   0  0  0  0  0  0  0  0  0  0  0  0
   44.4700   35.9100   44.9670 C   0  0  0  0  0  0  0  0  0  0  0  0
   45.0650   35.8420   43.6740 C   0  0  0  0  0  0  0  0  0  0  0  0
   45.9320   34.7720   43.4020 C   0  0  0  0  0  0  0  0  0  0  0  0
   46.1450   33.8650   44.4040 N   0  0  0  0  0  0  0  0  0  0  0  0
   45.5710   33.9500   45.6240 C   0  0  0  0  0  0  0  0  0  0  0  0
   44.7330   34.9700   45.9080 N   0  0  0  0  0  0  0  0  0  0  0  0
   43.7980   36.7230   45.2050 H   0  0  0  0  0  0  0  0  0  0  0  0
   44.8750   36.5630   42.9240 H   0  0  0  0  0  0  0  0  0  0  0  0
   45.7770   33.2070   46.3680 H   0  0  0  0  0  0  0  0  0  0  0  0
   43.6370   33.3070   41.0620 C   0  0  0  0  0  0  0  0  0  0  0  0
   44.9580   32.9630   41.3030 C   0  0  0  0  0  0  0  0  0  0  0  0
   45.2600   31.6790   41.7730 C   0  0  0  0  0  0  0  0  0  0  0  0
   46.2520   31.2920   41.9980 H   0  0  0  0  0  0  0  0  0  0  0  0
   44.2390   30.7630   41.9940 C   0  0  0  0  0  0  0  0  0  0  0  0
   44.4180   29.7610   42.3560 H   0  0  0  0  0  0  0  0  0  0  0  0
   42.9130   31.0980   41.7560 C   0  0  0  0  0  0  0  0  0  0  0  0
   42.6520   32.3640   41.2950 C   0  0  0  0  0  0  0  0  0  0  0  0
   44.6190   35.5890   40.2850 H   0  0  0  0  0  0  0  0  0  0  0  0
   43.4290   34.9190   40.4810 S   0  0  0  0  0  0  0  0  0  0  0  0
   42.4760   35.7440   41.2970 O   0  0  0  0  0  0  0  0  0  0  0  0
   42.8180   34.8270   39.0890 O   0  0  0  0  0  0  0  0  0  0  0  0
  1 13  1  0  0  0  0
  2  1  1  0  0  0  0
  2  7  1  0  0  0  0
  3  2  2  0  0  0  0
  4  5  2  0  0  0  0
  4  3  1  0  0  0  0
  5  6  1  0  0  0  0
  6 21  1  0  0  0  0
  6  1  2  0  0  0  0
  8  3  1  0  0  0  0
  9  4  1  0  0  0  0
 10  5  1  0  0  0  0
 11 17  1  0  0  0  0
 11 16  1  0  0  0  0
 12 11  2  0  0  0  0
 13 12  1  0  0  0  0
 13 14  2  0  0  0  0
 14 15  1  0  0  0  0
 15 16  2  0  0  0  0
 15 19  1  0  0  0  0
 18 12  1  0  0  0  0
 20 27  2  0  0  0  0
 20 21  1  0  0  0  0
 21 22  2  0  0  0  0
 22 24  1  0  0  0  0
 22 23  1  0  0  0  0
 24 25  1  0  0  0  0
 26 24  2  0  0  0  0
 27 26  1  0  0  0  0
 28 29  1  0  0  0  0
 29 20  1  0  0  0  0
 29 30  2  0  0  0  0
 31 29  2  0  0  0  0
M  END
>  <minimizedAffinity>
-5.70504761

>  <minimizedRMSD>
0.841684937

$$$$
