
 OpenBabel03242511433D

 37 39  0  0  0  0  0  0  0  0999 V2000
   36.4020   26.0980   39.1790 C   0  0  0  0  0  0  0  0  0  0  0  0
   35.9320   24.8830   38.7020 C   0  0  0  0  0  0  0  0  0  0  0  0
   35.9550   23.7230   39.4300 C   0  0  0  0  0  0  0  0  0  0  0  0
   36.4820   23.8020   40.7030 C   0  0  0  0  0  0  0  0  0  0  0  0
   36.9490   25.0400   41.1630 C   0  0  0  0  0  0  0  0  0  0  0  0
   36.9210   26.2010   40.4280 C   0  0  0  0  0  0  0  0  0  0  0  0
   35.5580   25.0300   37.6770 H   0  0  0  0  0  0  0  0  0  0  0  0
   35.5400   22.9370   38.8460 H   0  0  0  0  0  0  0  0  0  0  0  0
   36.4230   22.7920   41.1370 H   0  0  0  0  0  0  0  0  0  0  0  0
   37.2860   24.7550   42.1680 H   0  0  0  0  0  0  0  0  0  0  0  0
   38.7000   27.8640   41.4630 C   0  0  0  0  0  0  0  0  0  0  0  0
   37.5350   27.0900   41.4120 C   0  0  0  0  0  0  0  0  0  0  0  0
   36.6760   27.1470   42.5230 C   0  0  0  0  0  0  0  0  0  0  0  0
   35.7200   26.6130   42.6700 H   0  0  0  0  0  0  0  0  0  0  0  0
   36.9320   27.9200   43.6320 C   0  0  0  0  0  0  0  0  0  0  0  0
   36.3200   28.0090   44.5140 H   0  0  0  0  0  0  0  0  0  0  0  0
   38.0770   28.6670   43.6520 C   0  0  0  0  0  3  0  0  0  0  0  0
   38.9220   28.6200   42.5790 C   0  0  0  0  0  3  0  0  0  0  0  0
   39.2710   26.6780   39.2320 H   0  0  0  0  0  0  0  0  0  0  0  0
   39.6830   27.6690   40.0490 S   0  0  0  0  0  0  0  0  0  0  0  0
   39.5090   28.9590   39.2570 O   0  0  0  0  0  0  0  0  0  0  0  0
   41.1580   27.6020   40.3810 O   0  0  0  0  0  0  0  0  0  0  0  0
   36.4110   27.3860   38.4370 C   0  0  0  0  0  0  0  0  0  0  0  0
   36.4040   27.1620   37.3510 H   0  0  0  0  0  0  0  0  0  0  0  0
   37.4030   27.8230   38.6540 H   0  0  0  0  0  0  0  0  0  0  0  0
   35.2740   28.2710   38.8510 C   0  0  0  0  0  0  0  0  0  0  0  0
   34.5600   28.3500   38.0540 H   0  0  0  0  0  0  0  0  0  0  0  0
   34.8890   27.9790   39.8620 H   0  0  0  0  0  0  0  0  0  0  0  0
   37.0620   31.5040   38.7250 C   0  0  0  0  0  0  0  0  0  0  0  0
   37.0190   31.9070   40.0890 C   0  0  0  0  0  0  0  0  0  0  0  0
   36.3620   31.0580   40.9740 C   0  0  0  0  0  0  0  0  0  0  0  0
   35.8060   29.9240   40.5400 N   0  0  0  0  0  0  0  0  0  0  0  0
   35.8840   29.5970   39.2200 C   0  0  0  0  0  0  0  0  0  0  0  0
   36.4900   30.3540   38.3300 N   0  0  0  0  0  0  0  0  0  0  0  0
   37.5570   32.1220   37.9880 H   0  0  0  0  0  0  0  0  0  0  0  0
   37.4840   32.8370   40.3980 H   0  0  0  0  0  0  0  0  0  0  0  0
   36.3450   31.3920   42.0100 H   0  0  0  0  0  0  0  0  0  0  0  0
  1  6  1  0  0  0  0
  2  1  2  0  0  0  0
  2  3  1  0  0  0  0
  3  4  2  0  0  0  0
  4  9  1  0  0  0  0
  4  5  1  0  0  0  0
  5 10  1  0  0  0  0
  6  5  2  0  0  0  0
  6 12  1  0  0  0  0
  7  2  1  0  0  0  0
  8  3  1  0  0  0  0
 11 18  1  0  0  0  0
 12 11  2  0  0  0  0
 12 13  1  0  0  0  0
 13 14  1  0  0  0  0
 13 15  2  0  0  0  0
 15 17  1  0  0  0  0
 15 16  1  0  0  0  0
 18 17  2  0  0  0  0
 19 20  1  0  0  0  0
 20 22  2  0  0  0  0
 20 11  1  0  0  0  0
 21 20  2  0  0  0  0
 23 25  1  0  0  0  0
 23 26  1  0  0  0  0
 23  1  1  0  0  0  0
 24 23  1  0  0  0  0
 26 33  1  0  0  0  0
 26 28  1  0  0  0  0
 27 26  1  0  0  0  0
 29 30  1  0  0  0  0
 30 36  1  0  0  0  0
 30 31  2  0  0  0  0
 31 37  1  0  0  0  0
 32 31  1  0  0  0  0
 33 32  2  0  0  0  0
 34 29  2  0  0  0  0
 34 33  1  0  0  0  0
 35 29  1  0  0  0  0
M  END
>  <minimizedAffinity>
-5.58545637

$$$$

 OpenBabel03242511433D

 37 39  0  0  0  0  0  0  0  0999 V2000
   38.1080   26.7140   42.8070 C   0  0  0  0  0  0  0  0  0  0  0  0
   39.1820   26.6310   43.6800 C   0  0  0  0  0  0  0  0  0  0  0  0
   40.1590   25.6760   43.5910 C   0  0  0  0  0  0  0  0  0  0  0  0
   40.0360   24.7590   42.5670 C   0  0  0  0  0  0  0  0  0  0  0  0
   38.9430   24.8630   41.6980 C   0  0  0  0  0  0  0  0  0  0  0  0
   37.9680   25.8260   41.7900 C   0  0  0  0  0  0  0  0  0  0  0  0
   39.0980   27.4440   44.4180 H   0  0  0  0  0  0  0  0  0  0  0  0
   40.8670   25.8270   44.3710 H   0  0  0  0  0  0  0  0  0  0  0  0
   40.8940   24.0730   42.6460 H   0  0  0  0  0  0  0  0  0  0  0  0
   39.1470   24.0130   41.0320 H   0  0  0  0  0  0  0  0  0  0  0  0
   36.8640   25.9130   39.3880 C   0  0  0  0  0  0  0  0  0  0  0  0
   37.1440   25.4040   40.6610 C   0  0  0  0  0  0  0  0  0  0  0  0
   36.5530   24.1760   41.0050 C   0  0  0  0  0  0  0  0  0  0  0  0
   36.6520   23.6170   41.9540 H   0  0  0  0  0  0  0  0  0  0  0  0
   35.7300   23.4720   40.1560 C   0  0  0  0  0  0  0  0  0  0  0  0
   35.2470   22.5300   40.3550 H   0  0  0  0  0  0  0  0  0  0  0  0
   35.4770   23.9940   38.9180 C   0  0  0  0  0  3  0  0  0  0  0  0
   36.0440   25.1880   38.5700 C   0  0  0  0  0  3  0  0  0  0  0  0
   37.8000   28.1760   40.2320 H   0  0  0  0  0  0  0  0  0  0  0  0
   37.6220   27.4470   39.1110 S   0  0  0  0  0  0  0  0  0  0  0  0
   39.0210   27.1180   38.6040 O   0  0  0  0  0  0  0  0  0  0  0  0
   36.9620   28.2180   37.9880 O   0  0  0  0  0  0  0  0  0  0  0  0
   37.0150   27.7210   42.8550 C   0  0  0  0  0  0  0  0  0  0  0  0
   36.2290   27.3470   43.5410 H   0  0  0  0  0  0  0  0  0  0  0  0
   36.5740   27.6980   41.8410 H   0  0  0  0  0  0  0  0  0  0  0  0
   37.5260   29.0740   43.2450 C   0  0  0  0  0  0  0  0  0  0  0  0
   36.8560   29.5330   43.9450 H   0  0  0  0  0  0  0  0  0  0  0  0
   38.6110   29.0260   43.5240 H   0  0  0  0  0  0  0  0  0  0  0  0
   38.9010   30.8630   40.3170 C   0  0  0  0  0  0  0  0  0  0  0  0
   37.7190   31.3800   39.7170 C   0  0  0  0  0  0  0  0  0  0  0  0
   36.5130   31.0690   40.3370 C   0  0  0  0  0  0  0  0  0  0  0  0
   36.4910   30.3210   41.4430 N   0  0  0  0  0  0  0  0  0  0  0  0
   37.6610   29.8590   41.9670 C   0  0  0  0  0  0  0  0  0  0  0  0
   38.8360   30.1140   41.4300 N   0  0  0  0  0  0  0  0  0  0  0  0
   39.8690   31.0690   39.8810 H   0  0  0  0  0  0  0  0  0  0  0  0
   37.7810   31.9840   38.8180 H   0  0  0  0  0  0  0  0  0  0  0  0
   35.6250   31.4770   39.8560 H   0  0  0  0  0  0  0  0  0  0  0  0
  1 23  1  0  0  0  0
  1  2  1  0  0  0  0
  2  7  1  0  0  0  0
  3  2  2  0  0  0  0
  3  8  1  0  0  0  0
  4  9  1  0  0  0  0
  4  3  1  0  0  0  0
  5  6  1  0  0  0  0
  5  4  2  0  0  0  0
  6  1  2  0  0  0  0
 10  5  1  0  0  0  0
 11 12  1  0  0  0  0
 12 13  2  0  0  0  0
 12  6  1  0  0  0  0
 13 14  1  0  0  0  0
 15 16  1  0  0  0  0
 15 13  1  0  0  0  0
 17 15  2  0  0  0  0
 18 17  1  0  0  0  0
 18 11  2  0  0  0  0
 20 11  1  0  0  0  0
 20 19  1  0  0  0  0
 21 20  2  0  0  0  0
 22 20  2  0  0  0  0
 23 26  1  0  0  0  0
 23 24  1  0  0  0  0
 25 23  1  0  0  0  0
 26 28  1  0  0  0  0
 26 27  1  0  0  0  0
 29 34  1  0  0  0  0
 30 29  2  0  0  0  0
 30 31  1  0  0  0  0
 31 32  2  0  0  0  0
 32 33  1  0  0  0  0
 33 26  1  0  0  0  0
 34 33  2  0  0  0  0
 35 29  1  0  0  0  0
 36 30  1  0  0  0  0
 37 31  1  0  0  0  0
M  END
>  <minimizedAffinity>
-5.52019453

$$$$

 OpenBabel03242511433D

 37 39  0  0  0  0  0  0  0  0999 V2000
   36.2480   29.5680   38.9280 C   0  0  0  0  0  0  0  0  0  0  0  0
   35.5840   29.2360   37.7570 C   0  0  0  0  0  0  0  0  0  0  0  0
   35.2940   27.9490   37.3890 C   0  0  0  0  0  0  0  0  0  0  0  0
   35.7020   26.9520   38.2530 C   0  0  0  0  0  0  0  0  0  0  0  0
   36.3700   27.3130   39.4290 C   0  0  0  0  0  0  0  0  0  0  0  0
   36.6550   28.6060   39.7950 C   0  0  0  0  0  0  0  0  0  0  0  0
   35.3480   30.1630   37.2130 H   0  0  0  0  0  0  0  0  0  0  0  0
   34.7830   27.9590   36.4570 H   0  0  0  0  0  0  0  0  0  0  0  0
   35.3930   25.9950   37.8050 H   0  0  0  0  0  0  0  0  0  0  0  0
   36.5430   26.3190   39.8630 H   0  0  0  0  0  0  0  0  0  0  0  0
   38.6490   28.4880   41.5290 C   0  0  0  0  0  0  0  0  0  0  0  0
   37.3430   28.3260   41.0520 C   0  0  0  0  0  0  0  0  0  0  0  0
   36.3930   27.8000   41.9440 C   0  0  0  0  0  0  0  0  0  0  0  0
   35.3230   27.5990   41.7560 H   0  0  0  0  0  0  0  0  0  0  0  0
   36.6930   27.4490   43.2410 C   0  0  0  0  0  0  0  0  0  0  0  0
   36.0170   27.0420   43.9740 H   0  0  0  0  0  0  0  0  0  0  0  0
   37.9770   27.6210   43.6790 C   0  0  0  0  0  3  0  0  0  0  0  0
   38.9110   28.1300   42.8220 C   0  0  0  0  0  3  0  0  0  0  0  0
   39.0920   29.7310   39.3000 H   0  0  0  0  0  0  0  0  0  0  0  0
   39.7210   29.1060   40.3170 S   0  0  0  0  0  0  0  0  0  0  0  0
   40.5440   30.1810   41.0170 O   0  0  0  0  0  0  0  0  0  0  0  0
   40.7270   28.0710   39.8590 O   0  0  0  0  0  0  0  0  0  0  0  0
   36.5960   30.9420   39.3790 C   0  0  0  0  0  0  0  0  0  0  0  0
   37.1490   30.8630   40.3370 H   0  0  0  0  0  0  0  0  0  0  0  0
   35.6230   31.4070   39.6240 H   0  0  0  0  0  0  0  0  0  0  0  0
   37.3600   31.6910   38.3310 C   0  0  0  0  0  0  0  0  0  0  0  0
   37.8280   31.0030   37.6530 H   0  0  0  0  0  0  0  0  0  0  0  0
   36.7330   32.5070   37.8860 H   0  0  0  0  0  0  0  0  0  0  0  0
   38.9070   34.1330   40.6340 C   0  0  0  0  0  0  0  0  0  0  0  0
   40.2650   34.1060   40.2090 C   0  0  0  0  0  0  0  0  0  0  0  0
   40.5810   33.2370   39.1700 C   0  0  0  0  0  0  0  0  0  0  0  0
   39.6360   32.4750   38.6120 N   0  0  0  0  0  0  0  0  0  0  0  0
   38.3540   32.5500   39.0670 C   0  0  0  0  0  0  0  0  0  0  0  0
   37.9880   33.3500   40.0470 N   0  0  0  0  0  0  0  0  0  0  0  0
   38.6000   34.7870   41.4390 H   0  0  0  0  0  0  0  0  0  0  0  0
   41.0010   34.7430   40.6900 H   0  0  0  0  0  0  0  0  0  0  0  0
   41.6260   33.2370   38.8660 H   0  0  0  0  0  0  0  0  0  0  0  0
  1 23  1  0  0  0  0
  1  6  1  0  0  0  0
  2  1  2  0  0  0  0
  3  2  1  0  0  0  0
  3  4  2  0  0  0  0
  4  5  1  0  0  0  0
  5  6  2  0  0  0  0
  5 10  1  0  0  0  0
  6 12  1  0  0  0  0
  7  2  1  0  0  0  0
  8  3  1  0  0  0  0
  9  4  1  0  0  0  0
 11 18  1  0  0  0  0
 12 11  2  0  0  0  0
 12 13  1  0  0  0  0
 13 15  2  0  0  0  0
 14 13  1  0  0  0  0
 15 17  1  0  0  0  0
 15 16  1  0  0  0  0
 18 17  2  0  0  0  0
 19 20  1  0  0  0  0
 20 21  2  0  0  0  0
 20 11  1  0  0  0  0
 22 20  2  0  0  0  0
 23 25  1  0  0  0  0
 23 24  1  0  0  0  0
 26 33  1  0  0  0  0
 26 23  1  0  0  0  0
 27 26  1  0  0  0  0
 28 26  1  0  0  0  0
 29 35  1  0  0  0  0
 30 29  1  0  0  0  0
 30 36  1  0  0  0  0
 31 30  2  0  0  0  0
 32 33  2  0  0  0  0
 32 31  1  0  0  0  0
 33 34  1  0  0  0  0
 34 29  2  0  0  0  0
 37 31  1  0  0  0  0
M  END
>  <minimizedAffinity>
-5.45778036

$$$$

 OpenBabel03242511433D

 37 39  0  0  0  0  0  0  0  0999 V2000
   38.9380   31.6990   40.7840 C   0  0  0  0  0  0  0  0  0  0  0  0
   39.2530   33.0440   40.9010 C   0  0  0  0  0  0  0  0  0  0  0  0
   38.5190   34.0470   40.3240 C   0  0  0  0  0  0  0  0  0  0  0  0
   37.4150   33.6620   39.5920 C   0  0  0  0  0  0  0  0  0  0  0  0
   37.1180   32.2970   39.4890 C   0  0  0  0  0  0  0  0  0  0  0  0
   37.8560   31.2960   40.0720 C   0  0  0  0  0  0  0  0  0  0  0  0
   40.1600   33.1400   41.5170 H   0  0  0  0  0  0  0  0  0  0  0  0
   38.9620   34.9840   40.5610 H   0  0  0  0  0  0  0  0  0  0  0  0
   36.9510   34.5820   39.2040 H   0  0  0  0  0  0  0  0  0  0  0  0
   36.2160   32.3450   38.8630 H   0  0  0  0  0  0  0  0  0  0  0  0
   37.2700   29.1390   38.6570 C   0  0  0  0  0  0  0  0  0  0  0  0
   37.0760   30.1540   39.6010 C   0  0  0  0  0  0  0  0  0  0  0  0
   35.8820   30.1250   40.3410 C   0  0  0  0  0  0  0  0  0  0  0  0
   35.5500   30.8310   41.1230 H   0  0  0  0  0  0  0  0  0  0  0  0
   34.9190   29.1550   40.1770 C   0  0  0  0  0  0  0  0  0  0  0  0
   33.9850   29.0740   40.7070 H   0  0  0  0  0  0  0  0  0  0  0  0
   35.1360   28.1760   39.2480 C   0  0  0  0  0  3  0  0  0  0  0  0
   36.2930   28.1930   38.5210 C   0  0  0  0  0  3  0  0  0  0  0  0
   39.1770   30.5980   37.6860 H   0  0  0  0  0  0  0  0  0  0  0  0
   38.7600   29.3190   37.7920 S   0  0  0  0  0  0  0  0  0  0  0  0
   39.8070   28.6110   38.6430 O   0  0  0  0  0  0  0  0  0  0  0  0
   38.7510   28.5770   36.4730 O   0  0  0  0  0  0  0  0  0  0  0  0
   39.6970   30.5670   41.3790 C   0  0  0  0  0  0  0  0  0  0  0  0
   40.7750   30.8250   41.3630 H   0  0  0  0  0  0  0  0  0  0  0  0
   39.5690   29.7380   40.6580 H   0  0  0  0  0  0  0  0  0  0  0  0
   39.2040   30.2320   42.7540 C   0  0  0  0  0  0  0  0  0  0  0  0
   40.0250   30.2090   43.4440 H   0  0  0  0  0  0  0  0  0  0  0  0
   38.3190   30.8650   43.0250 H   0  0  0  0  0  0  0  0  0  0  0  0
   38.1920   26.8430   41.6800 C   0  0  0  0  0  0  0  0  0  0  0  0
   37.0510   26.6130   42.4990 C   0  0  0  0  0  0  0  0  0  0  0  0
   36.7030   27.6240   43.3890 C   0  0  0  0  0  0  0  0  0  0  0  0
   37.4210   28.7480   43.4530 N   0  0  0  0  0  0  0  0  0  0  0  0
   38.5020   28.9050   42.6390 C   0  0  0  0  0  0  0  0  0  0  0  0
   38.8870   27.9890   41.7760 N   0  0  0  0  0  0  0  0  0  0  0  0
   38.5140   26.0940   40.9690 H   0  0  0  0  0  0  0  0  0  0  0  0
   36.4960   25.6840   42.4140 H   0  0  0  0  0  0  0  0  0  0  0  0
   35.8270   27.4200   44.0020 H   0  0  0  0  0  0  0  0  0  0  0  0
  1  2  1  0  0  0  0
  1 23  1  0  0  0  0
  2  7  1  0  0  0  0
  3  8  1  0  0  0  0
  3  2  2  0  0  0  0
  4  3  1  0  0  0  0
  5  4  2  0  0  0  0
  5  6  1  0  0  0  0
  6  1  2  0  0  0  0
  9  4  1  0  0  0  0
 10  5  1  0  0  0  0
 11 12  1  0  0  0  0
 12  6  1  0  0  0  0
 12 13  2  0  0  0  0
 13 14  1  0  0  0  0
 15 13  1  0  0  0  0
 15 16  1  0  0  0  0
 17 15  2  0  0  0  0
 18 11  2  0  0  0  0
 18 17  1  0  0  0  0
 19 20  1  0  0  0  0
 20 21  2  0  0  0  0
 20 11  1  0  0  0  0
 22 20  2  0  0  0  0
 23 26  1  0  0  0  0
 24 23  1  0  0  0  0
 25 23  1  0  0  0  0
 26 28  1  0  0  0  0
 26 27  1  0  0  0  0
 29 34  2  0  0  0  0
 29 30  1  0  0  0  0
 30 31  2  0  0  0  0
 31 32  1  0  0  0  0
 31 37  1  0  0  0  0
 33 26  1  0  0  0  0
 33 32  2  0  0  0  0
 34 33  1  0  0  0  0
 35 29  1  0  0  0  0
 36 30  1  0  0  0  0
M  END
>  <minimizedAffinity>
-5.4413228

$$$$

 OpenBabel03242511433D

 37 39  0  0  0  0  0  0  0  0999 V2000
   37.2120   26.1530   42.0630 C   0  0  0  0  0  0  0  0  0  0  0  0
   36.9860   24.7870   42.1260 C   0  0  0  0  0  0  0  0  0  0  0  0
   36.5730   24.0370   41.0580 C   0  0  0  0  0  0  0  0  0  0  0  0
   36.3780   24.7100   39.8680 C   0  0  0  0  0  0  0  0  0  0  0  0
   36.6130   26.0900   39.8290 C   0  0  0  0  0  0  0  0  0  0  0  0
   37.0310   26.8360   40.9050 C   0  0  0  0  0  0  0  0  0  0  0  0
   37.1950   24.4440   43.1510 H   0  0  0  0  0  0  0  0  0  0  0  0
   36.4740   23.0220   41.3600 H   0  0  0  0  0  0  0  0  0  0  0  0
   36.0500   23.9630   39.1280 H   0  0  0  0  0  0  0  0  0  0  0  0
   36.3710   26.2950   38.7780 H   0  0  0  0  0  0  0  0  0  0  0  0
   38.0230   28.8490   39.5040 C   0  0  0  0  0  0  0  0  0  0  0  0
   37.0750   28.1430   40.2530 C   0  0  0  0  0  0  0  0  0  0  0  0
   35.8240   28.7530   40.4460 C   0  0  0  0  0  0  0  0  0  0  0  0
   34.9550   28.3580   41.0030 H   0  0  0  0  0  0  0  0  0  0  0  0
   35.5040   29.9910   39.9370 C   0  0  0  0  0  0  0  0  0  0  0  0
   34.5690   30.5140   40.0470 H   0  0  0  0  0  0  0  0  0  0  0  0
   36.4500   30.6560   39.2080 C   0  0  0  0  0  3  0  0  0  0  0  0
   37.6710   30.0750   39.0120 C   0  0  0  0  0  3  0  0  0  0  0  0
   39.6740   27.0130   40.2860 H   0  0  0  0  0  0  0  0  0  0  0  0
   39.5290   28.0010   39.3780 S   0  0  0  0  0  0  0  0  0  0  0  0
   39.4900   27.3130   38.0190 O   0  0  0  0  0  0  0  0  0  0  0  0
   40.7130   28.9410   39.3150 O   0  0  0  0  0  0  0  0  0  0  0  0
   37.6540   27.0210   43.1860 C   0  0  0  0  0  0  0  0  0  0  0  0
   37.0770   26.7390   44.0910 H   0  0  0  0  0  0  0  0  0  0  0  0
   37.3090   28.0340   42.9060 H   0  0  0  0  0  0  0  0  0  0  0  0
   39.1350   26.9410   43.3990 C   0  0  0  0  0  0  0  0  0  0  0  0
   39.3470   26.6300   44.4030 H   0  0  0  0  0  0  0  0  0  0  0  0
   39.6270   26.3730   42.5670 H   0  0  0  0  0  0  0  0  0  0  0  0
   39.4280   30.5380   42.5970 C   0  0  0  0  0  0  0  0  0  0  0  0
   40.8330   30.6770   42.4180 C   0  0  0  0  0  0  0  0  0  0  0  0
   41.6060   29.5340   42.6020 C   0  0  0  0  0  0  0  0  0  0  0  0
   41.0330   28.3730   42.9300 N   0  0  0  0  0  0  0  0  0  0  0  0
   39.6810   28.3090   43.0850 C   0  0  0  0  0  0  0  0  0  0  0  0
   38.8920   29.3510   42.9270 N   0  0  0  0  0  0  0  0  0  0  0  0
   38.7750   31.3900   42.4700 H   0  0  0  0  0  0  0  0  0  0  0  0
   41.2580   31.6390   42.1510 H   0  0  0  0  0  0  0  0  0  0  0  0
   42.6760   29.6700   42.4580 H   0  0  0  0  0  0  0  0  0  0  0  0
  1  2  1  0  0  0  0
  1 23  1  0  0  0  0
  2  7  1  0  0  0  0
  3  8  1  0  0  0  0
  3  2  2  0  0  0  0
  4  3  1  0  0  0  0
  5  4  2  0  0  0  0
  5  6  1  0  0  0  0
  6  1  2  0  0  0  0
  9  4  1  0  0  0  0
 10  5  1  0  0  0  0
 11 12  1  0  0  0  0
 12 13  2  0  0  0  0
 12  6  1  0  0  0  0
 13 14  1  0  0  0  0
 15 16  1  0  0  0  0
 15 13  1  0  0  0  0
 17 15  2  0  0  0  0
 18 17  1  0  0  0  0
 18 11  2  0  0  0  0
 20 11  1  0  0  0  0
 20 19  1  0  0  0  0
 21 20  2  0  0  0  0
 22 20  2  0  0  0  0
 23 26  1  0  0  0  0
 23 24  1  0  0  0  0
 25 23  1  0  0  0  0
 26 27  1  0  0  0  0
 28 26  1  0  0  0  0
 29 34  1  0  0  0  0
 30 29  2  0  0  0  0
 30 31  1  0  0  0  0
 31 32  2  0  0  0  0
 32 33  1  0  0  0  0
 33 26  1  0  0  0  0
 34 33  2  0  0  0  0
 35 29  1  0  0  0  0
 36 30  1  0  0  0  0
 37 31  1  0  0  0  0
M  END
>  <minimizedAffinity>
-5.30696392

$$$$

 OpenBabel03242511433D

 37 39  0  0  0  0  0  0  0  0999 V2000
   36.3930   29.5450   39.9580 C   0  0  0  0  0  0  0  0  0  0  0  0
   35.6200   28.7560   39.1200 C   0  0  0  0  0  0  0  0  0  0  0  0
   35.5480   28.9350   37.7640 C   0  0  0  0  0  0  0  0  0  0  0  0
   36.2950   29.9690   37.2370 C   0  0  0  0  0  0  0  0  0  0  0  0
   37.0680   30.7520   38.1030 C   0  0  0  0  0  0  0  0  0  0  0  0
   37.1390   30.5640   39.4630 C   0  0  0  0  0  0  0  0  0  0  0  0
   35.1050   27.9970   39.7290 H   0  0  0  0  0  0  0  0  0  0  0  0
   34.8930   28.2060   37.3500 H   0  0  0  0  0  0  0  0  0  0  0  0
   36.1190   29.9690   36.1500 H   0  0  0  0  0  0  0  0  0  0  0  0
   37.5140   31.4500   37.3830 H   0  0  0  0  0  0  0  0  0  0  0  0
   39.4030   31.7540   40.1390 C   0  0  0  0  0  0  0  0  0  0  0  0
   38.0530   31.6580   39.7810 C   0  0  0  0  0  0  0  0  0  0  0  0
   37.3370   32.8600   39.6430 C   0  0  0  0  0  0  0  0  0  0  0  0
   36.2740   32.9890   39.3710 H   0  0  0  0  0  0  0  0  0  0  0  0
   37.9030   34.0990   39.8400 C   0  0  0  0  0  0  0  0  0  0  0  0
   37.4150   35.0550   39.7520 H   0  0  0  0  0  0  0  0  0  0  0  0
   39.2240   34.1610   40.1870 C   0  0  0  0  0  3  0  0  0  0  0  0
   39.9320   33.0000   40.3260 C   0  0  0  0  0  3  0  0  0  0  0  0
   39.2780   29.2010   40.5580 H   0  0  0  0  0  0  0  0  0  0  0  0
   40.1510   30.2010   40.3120 S   0  0  0  0  0  0  0  0  0  0  0  0
   40.7600   29.8930   38.9490 O   0  0  0  0  0  0  0  0  0  0  0  0
   41.3200   30.2310   41.2730 O   0  0  0  0  0  0  0  0  0  0  0  0
   36.5080   29.4040   41.4340 C   0  0  0  0  0  0  0  0  0  0  0  0
   35.8440   30.1560   41.9070 H   0  0  0  0  0  0  0  0  0  0  0  0
   37.5420   29.7220   41.6630 H   0  0  0  0  0  0  0  0  0  0  0  0
   36.2090   28.0060   41.8820 C   0  0  0  0  0  0  0  0  0  0  0  0
   35.4300   28.0140   42.6190 H   0  0  0  0  0  0  0  0  0  0  0  0
   36.0790   27.3240   41.0010 H   0  0  0  0  0  0  0  0  0  0  0  0
   39.5850   27.6690   43.3470 C   0  0  0  0  0  0  0  0  0  0  0  0
   39.8200   26.2730   43.2050 C   0  0  0  0  0  0  0  0  0  0  0  0
   38.8000   25.5200   42.6330 C   0  0  0  0  0  0  0  0  0  0  0  0
   37.6630   26.1020   42.2430 N   0  0  0  0  0  0  0  0  0  0  0  0
   37.5030   27.4450   42.4070 C   0  0  0  0  0  0  0  0  0  0  0  0
   38.4270   28.2160   42.9420 N   0  0  0  0  0  0  0  0  0  0  0  0
   40.3400   28.3080   43.7870 H   0  0  0  0  0  0  0  0  0  0  0  0
   40.7590   25.8410   43.5360 H   0  0  0  0  0  0  0  0  0  0  0  0
   39.0070   24.4560   42.5370 H   0  0  0  0  0  0  0  0  0  0  0  0
  1 23  1  0  0  0  0
  2  7  1  0  0  0  0
  2  1  2  0  0  0  0
  3  2  1  0  0  0  0
  4  3  2  0  0  0  0
  4  5  1  0  0  0  0
  5  6  2  0  0  0  0
  6 12  1  0  0  0  0
  6  1  1  0  0  0  0
  8  3  1  0  0  0  0
  9  4  1  0  0  0  0
 10  5  1  0  0  0  0
 11 20  1  0  0  0  0
 11 18  1  0  0  0  0
 12 11  2  0  0  0  0
 13 12  1  0  0  0  0
 13 15  2  0  0  0  0
 14 13  1  0  0  0  0
 15 17  1  0  0  0  0
 16 15  1  0  0  0  0
 17 18  2  0  0  0  0
 20 19  1  0  0  0  0
 20 22  2  0  0  0  0
 21 20  2  0  0  0  0
 23 25  1  0  0  0  0
 23 26  1  0  0  0  0
 23 24  1  0  0  0  0
 26 33  1  0  0  0  0
 26 27  1  0  0  0  0
 28 26  1  0  0  0  0
 29 35  1  0  0  0  0
 30 29  1  0  0  0  0
 30 36  1  0  0  0  0
 31 30  2  0  0  0  0
 32 33  2  0  0  0  0
 32 31  1  0  0  0  0
 33 34  1  0  0  0  0
 34 29  2  0  0  0  0
 37 31  1  0  0  0  0
M  END
>  <minimizedAffinity>
-5.26117468

$$$$

 OpenBabel03242511433D

 37 39  0  0  0  0  0  0  0  0999 V2000
   36.1160   27.6800   38.6210 C   0  0  0  0  0  0  0  0  0  0  0  0
   35.0330   27.8330   37.7690 C   0  0  0  0  0  0  0  0  0  0  0  0
   33.9500   28.6210   38.0520 C   0  0  0  0  0  0  0  0  0  0  0  0
   33.9680   29.2840   39.2630 C   0  0  0  0  0  0  0  0  0  0  0  0
   35.0720   29.1140   40.1070 C   0  0  0  0  0  0  0  0  0  0  0  0
   36.1580   28.3240   39.8150 C   0  0  0  0  0  0  0  0  0  0  0  0
   35.2100   27.2280   36.8660 H   0  0  0  0  0  0  0  0  0  0  0  0
   33.2610   28.5720   37.2440 H   0  0  0  0  0  0  0  0  0  0  0  0
   33.0320   29.8610   39.3260 H   0  0  0  0  0  0  0  0  0  0  0  0
   34.7700   29.7540   40.9470 H   0  0  0  0  0  0  0  0  0  0  0  0
   38.0230   29.3270   41.4000 C   0  0  0  0  0  0  0  0  0  0  0  0
   36.9180   28.5450   41.0420 C   0  0  0  0  0  0  0  0  0  0  0  0
   36.3160   27.7810   42.0560 C   0  0  0  0  0  0  0  0  0  0  0  0
   35.4440   27.1080   41.9720 H   0  0  0  0  0  0  0  0  0  0  0  0
   36.7610   27.7750   43.3590 C   0  0  0  0  0  0  0  0  0  0  0  0
   36.3480   27.2150   44.1810 H   0  0  0  0  0  0  0  0  0  0  0  0
   37.8410   28.5500   43.6790 C   0  0  0  0  0  3  0  0  0  0  0  0
   38.4370   29.2970   42.7020 C   0  0  0  0  0  3  0  0  0  0  0  0
   37.7630   30.7910   39.2790 H   0  0  0  0  0  0  0  0  0  0  0  0
   38.6890   30.1840   40.0490 S   0  0  0  0  0  0  0  0  0  0  0  0
   39.5230   31.3060   40.6570 O   0  0  0  0  0  0  0  0  0  0  0  0
   39.6700   29.3410   39.2620 O   0  0  0  0  0  0  0  0  0  0  0  0
   37.3150   26.8370   38.3740 C   0  0  0  0  0  0  0  0  0  0  0  0
   38.1610   27.2580   38.9530 H   0  0  0  0  0  0  0  0  0  0  0  0
   37.5580   27.0070   37.3080 H   0  0  0  0  0  0  0  0  0  0  0  0
   37.0540   25.3970   38.6950 C   0  0  0  0  0  0  0  0  0  0  0  0
   35.9990   25.2030   38.6940 H   0  0  0  0  0  0  0  0  0  0  0  0
   37.7030   24.7260   38.0740 H   0  0  0  0  0  0  0  0  0  0  0  0
   37.6930   24.2500   42.1510 C   0  0  0  0  0  0  0  0  0  0  0  0
   38.9390   24.8770   42.4340 C   0  0  0  0  0  0  0  0  0  0  0  0
   39.5020   25.6430   41.4180 C   0  0  0  0  0  0  0  0  0  0  0  0
   38.8830   25.7690   40.2410 N   0  0  0  0  0  0  0  0  0  0  0  0
   37.6910   25.1420   40.0360 C   0  0  0  0  0  0  0  0  0  0  0  0
   37.1040   24.4020   40.9530 N   0  0  0  0  0  0  0  0  0  0  0  0
   37.2060   23.6410   42.9000 H   0  0  0  0  0  0  0  0  0  0  0  0
   39.4070   24.7490   43.4050 H   0  0  0  0  0  0  0  0  0  0  0  0
   40.4530   26.1110   41.6630 H   0  0  0  0  0  0  0  0  0  0  0  0
  1  6  1  0  0  0  0
  2  3  1  0  0  0  0
  2  1  2  0  0  0  0
  3  4  2  0  0  0  0
  4  9  1  0  0  0  0
  4  5  1  0  0  0  0
  5 10  1  0  0  0  0
  6  5  2  0  0  0  0
  6 12  1  0  0  0  0
  7  2  1  0  0  0  0
  8  3  1  0  0  0  0
 11 18  1  0  0  0  0
 12 11  2  0  0  0  0
 12 13  1  0  0  0  0
 13 15  2  0  0  0  0
 14 13  1  0  0  0  0
 15 17  1  0  0  0  0
 15 16  1  0  0  0  0
 18 17  2  0  0  0  0
 19 20  1  0  0  0  0
 20 21  2  0  0  0  0
 20 11  1  0  0  0  0
 22 20  2  0  0  0  0
 23  1  1  0  0  0  0
 23 26  1  0  0  0  0
 23 24  1  0  0  0  0
 25 23  1  0  0  0  0
 26 33  1  0  0  0  0
 27 26  1  0  0  0  0
 28 26  1  0  0  0  0
 29 30  1  0  0  0  0
 29 35  1  0  0  0  0
 30 36  1  0  0  0  0
 31 37  1  0  0  0  0
 31 30  2  0  0  0  0
 32 31  1  0  0  0  0
 33 32  2  0  0  0  0
 33 34  1  0  0  0  0
 34 29  2  0  0  0  0
M  END
>  <minimizedAffinity>
-5.20955038

$$$$

 OpenBabel03242511433D

 37 39  0  0  0  0  0  0  0  0999 V2000
   38.6780   28.5410   42.6750 C   0  0  0  0  0  0  0  0  0  0  0  0
   39.1970   27.5560   43.5020 C   0  0  0  0  0  0  0  0  0  0  0  0
   39.0250   26.2160   43.2830 C   0  0  0  0  0  0  0  0  0  0  0  0
   38.2880   25.8600   42.1710 C   0  0  0  0  0  0  0  0  0  0  0  0
   37.7740   26.8720   41.3520 C   0  0  0  0  0  0  0  0  0  0  0  0
   37.9530   28.2170   41.5750 C   0  0  0  0  0  0  0  0  0  0  0  0
   39.7450   28.0420   44.3240 H   0  0  0  0  0  0  0  0  0  0  0  0
   39.5180   25.6700   44.0520 H   0  0  0  0  0  0  0  0  0  0  0  0
   38.2500   24.7600   42.1520 H   0  0  0  0  0  0  0  0  0  0  0  0
   37.2630   26.2640   40.5940 H   0  0  0  0  0  0  0  0  0  0  0  0
   37.5200   29.1720   39.1470 C   0  0  0  0  0  0  0  0  0  0  0  0
   37.1970   28.7240   40.4330 C   0  0  0  0  0  0  0  0  0  0  0  0
   35.8360   28.6960   40.7810 C   0  0  0  0  0  0  0  0  0  0  0  0
   35.3870   28.3780   41.7400 H   0  0  0  0  0  0  0  0  0  0  0  0
   34.8310   29.0810   39.9230 C   0  0  0  0  0  0  0  0  0  0  0  0
   33.7740   29.0850   40.1240 H   0  0  0  0  0  0  0  0  0  0  0  0
   35.1770   29.5120   38.6720 C   0  0  0  0  0  3  0  0  0  0  0  0
   36.4970   29.5460   38.3200 C   0  0  0  0  0  3  0  0  0  0  0  0
   39.9630   28.8530   39.9460 H   0  0  0  0  0  0  0  0  0  0  0  0
   39.2290   29.1930   38.8660 S   0  0  0  0  0  0  0  0  0  0  0  0
   39.4810   28.1010   37.8330 O   0  0  0  0  0  0  0  0  0  0  0  0
   39.6860   30.4770   38.2070 O   0  0  0  0  0  0  0  0  0  0  0  0
   38.8230   30.0090   42.8630 C   0  0  0  0  0  0  0  0  0  0  0  0
   38.6540   30.2410   43.9340 H   0  0  0  0  0  0  0  0  0  0  0  0
   37.9660   30.4450   42.3160 H   0  0  0  0  0  0  0  0  0  0  0  0
   40.1490   30.5010   42.3680 C   0  0  0  0  0  0  0  0  0  0  0  0
   40.7950   30.7180   43.1970 H   0  0  0  0  0  0  0  0  0  0  0  0
   40.5490   29.8300   41.5640 H   0  0  0  0  0  0  0  0  0  0  0  0
   38.4340   33.1170   40.3990 C   0  0  0  0  0  0  0  0  0  0  0  0
   39.5360   33.8670   39.8990 C   0  0  0  0  0  0  0  0  0  0  0  0
   40.8060   33.4470   40.2810 C   0  0  0  0  0  0  0  0  0  0  0  0
   40.9590   32.3870   41.0790 N   0  0  0  0  0  0  0  0  0  0  0  0
   39.8610   31.7130   41.5220 C   0  0  0  0  0  0  0  0  0  0  0  0
   38.6310   32.0570   41.2000 N   0  0  0  0  0  0  0  0  0  0  0  0
   37.4220   33.3960   40.1390 H   0  0  0  0  0  0  0  0  0  0  0  0
   39.3670   34.7220   39.2520 H   0  0  0  0  0  0  0  0  0  0  0  0
   41.6290   34.0380   39.8840 H   0  0  0  0  0  0  0  0  0  0  0  0
  1 23  1  0  0  0  0
  1  2  1  0  0  0  0
  2  7  1  0  0  0  0
  3  2  2  0  0  0  0
  3  8  1  0  0  0  0
  4  3  1  0  0  0  0
  5  6  1  0  0  0  0
  5  4  2  0  0  0  0
  6  1  2  0  0  0  0
  9  4  1  0  0  0  0
 10  5  1  0  0  0  0
 11 12  1  0  0  0  0
 12 13  2  0  0  0  0
 12  6  1  0  0  0  0
 13 14  1  0  0  0  0
 15 16  1  0  0  0  0
 15 13  1  0  0  0  0
 17 15  2  0  0  0  0
 18 17  1  0  0  0  0
 18 11  2  0  0  0  0
 20 11  1  0  0  0  0
 20 19  1  0  0  0  0
 21 20  2  0  0  0  0
 22 20  2  0  0  0  0
 23 24  1  0  0  0  0
 25 23  1  0  0  0  0
 26 23  1  0  0  0  0
 26 27  1  0  0  0  0
 28 26  1  0  0  0  0
 29 34  1  0  0  0  0
 30 31  1  0  0  0  0
 30 29  2  0  0  0  0
 31 32  2  0  0  0  0
 32 33  1  0  0  0  0
 33 26  1  0  0  0  0
 34 33  2  0  0  0  0
 35 29  1  0  0  0  0
 36 30  1  0  0  0  0
 37 31  1  0  0  0  0
M  END
>  <minimizedAffinity>
-5.19553041

$$$$

 OpenBabel03242511433D

 37 39  0  0  0  0  0  0  0  0999 V2000
   37.2270   26.1790   41.9970 C   0  0  0  0  0  0  0  0  0  0  0  0
   36.7910   24.8730   42.1610 C   0  0  0  0  0  0  0  0  0  0  0  0
   36.5450   24.0190   41.1190 C   0  0  0  0  0  0  0  0  0  0  0  0
   36.7500   24.5180   39.8490 C   0  0  0  0  0  0  0  0  0  0  0  0
   37.1910   25.8400   39.7090 C   0  0  0  0  0  0  0  0  0  0  0  0
   37.4390   26.6910   40.7590 C   0  0  0  0  0  0  0  0  0  0  0  0
   36.6880   24.6700   43.2390 H   0  0  0  0  0  0  0  0  0  0  0  0
   36.2240   23.0810   41.5040 H   0  0  0  0  0  0  0  0  0  0  0  0
   36.5070   23.7090   39.1440 H   0  0  0  0  0  0  0  0  0  0  0  0
   37.2480   25.9070   38.6140 H   0  0  0  0  0  0  0  0  0  0  0  0
   37.3420   29.1680   39.8350 C   0  0  0  0  0  0  0  0  0  0  0  0
   37.8360   27.8680   39.9900 C   0  0  0  0  0  0  0  0  0  0  0  0
   39.0130   27.5410   39.2960 C   0  0  0  0  0  0  0  0  0  0  0  0
   39.5520   26.5760   39.2890 H   0  0  0  0  0  0  0  0  0  0  0  0
   39.6840   28.4320   38.4890 C   0  0  0  0  0  0  0  0  0  0  0  0
   40.5860   28.2480   37.9310 H   0  0  0  0  0  0  0  0  0  0  0  0
   39.1780   29.6960   38.3600 C   0  0  0  0  0  3  0  0  0  0  0  0
   38.0340   30.0270   39.0280 C   0  0  0  0  0  3  0  0  0  0  0  0
   35.7710   28.6820   41.8360 H   0  0  0  0  0  0  0  0  0  0  0  0
   35.8690   29.4220   40.7120 S   0  0  0  0  0  0  0  0  0  0  0  0
   35.9210   30.8730   41.1740 O   0  0  0  0  0  0  0  0  0  0  0  0
   34.6490   29.3310   39.8220 O   0  0  0  0  0  0  0  0  0  0  0  0
   37.5040   27.1530   43.0850 C   0  0  0  0  0  0  0  0  0  0  0  0
   36.8170   26.9370   43.9280 H   0  0  0  0  0  0  0  0  0  0  0  0
   37.1840   28.1280   42.6710 H   0  0  0  0  0  0  0  0  0  0  0  0
   38.9450   27.1320   43.4940 C   0  0  0  0  0  0  0  0  0  0  0  0
   39.0240   27.0570   44.5610 H   0  0  0  0  0  0  0  0  0  0  0  0
   39.5230   26.3920   42.8800 H   0  0  0  0  0  0  0  0  0  0  0  0
   39.5050   30.6420   42.4810 C   0  0  0  0  0  0  0  0  0  0  0  0
   40.7650   30.5530   41.8260 C   0  0  0  0  0  0  0  0  0  0  0  0
   41.3640   29.2970   41.7850 C   0  0  0  0  0  0  0  0  0  0  0  0
   40.7640   28.2410   42.3400 N   0  0  0  0  0  0  0  0  0  0  0  0
   39.5570   28.3960   42.9520 C   0  0  0  0  0  0  0  0  0  0  0  0
   38.9360   29.5550   43.0270 N   0  0  0  0  0  0  0  0  0  0  0  0
   38.9910   31.5910   42.5470 H   0  0  0  0  0  0  0  0  0  0  0  0
   41.2170   31.4360   41.3870 H   0  0  0  0  0  0  0  0  0  0  0  0
   42.3260   29.2590   41.2770 H   0  0  0  0  0  0  0  0  0  0  0  0
  1  2  1  0  0  0  0
  1 23  1  0  0  0  0
  2  7  1  0  0  0  0
  3  8  1  0  0  0  0
  3  2  2  0  0  0  0
  4  3  1  0  0  0  0
  5  4  2  0  0  0  0
  5  6  1  0  0  0  0
  6  1  2  0  0  0  0
  9  4  1  0  0  0  0
 10  5  1  0  0  0  0
 11 12  1  0  0  0  0
 11 20  1  0  0  0  0
 12  6  1  0  0  0  0
 13 12  2  0  0  0  0
 14 13  1  0  0  0  0
 15 13  1  0  0  0  0
 16 15  1  0  0  0  0
 17 15  2  0  0  0  0
 17 18  1  0  0  0  0
 18 11  2  0  0  0  0
 20 21  2  0  0  0  0
 20 19  1  0  0  0  0
 22 20  2  0  0  0  0
 23 26  1  0  0  0  0
 23 24  1  0  0  0  0
 25 23  1  0  0  0  0
 26 27  1  0  0  0  0
 28 26  1  0  0  0  0
 29 35  1  0  0  0  0
 29 34  1  0  0  0  0
 30 29  2  0  0  0  0
 31 30  1  0  0  0  0
 31 32  2  0  0  0  0
 32 33  1  0  0  0  0
 33 34  2  0  0  0  0
 33 26  1  0  0  0  0
 36 30  1  0  0  0  0
 37 31  1  0  0  0  0
M  END
>  <minimizedAffinity>
-5.1481514

$$$$
