
 OpenBabel03242518433D

 22 23  0  0  0  0  0  0  0  0999 V2000
   38.8140   29.1200   42.2740 C   0  0  0  0  0  0  0  0  0  0  0  0
   37.6380   29.2330   41.5560 C   0  0  0  0  0  0  0  0  0  0  0  0
   36.5270   28.4600   41.8240 C   0  0  0  0  0  0  0  0  0  0  0  0
   35.5930   28.5500   41.2540 H   0  0  0  0  0  0  0  0  0  0  0  0
   36.5930   27.5270   42.8610 C   0  0  0  0  0  0  0  0  0  0  0  0
   35.7390   26.9130   43.0860 H   0  0  0  0  0  0  0  0  0  0  0  0
   37.7280   27.3520   43.6240 C   0  0  0  0  0  3  0  0  0  0  0  0
   38.7960   28.1620   43.2940 C   0  0  0  0  0  3  0  0  0  0  0  0
   37.1560   32.3610   39.6630 C   0  0  0  0  0  0  0  0  0  0  0  0
   37.3880   31.9340   38.3260 C   0  0  0  0  0  0  0  0  0  0  0  0
   37.7030   30.5810   38.1300 C   0  0  0  0  0  0  0  0  0  0  0  0
   37.7690   29.7650   39.2010 N   0  0  0  0  0  0  0  0  0  0  0  0
   37.5410   30.2120   40.4550 C   0  0  0  0  0  0  0  0  0  0  0  0
   37.2400   31.4930   40.6690 N   0  0  0  0  0  0  0  0  0  0  0  0
   37.3390   32.5770   37.4570 H   0  0  0  0  0  0  0  0  0  0  0  0
   37.8940   30.1740   37.1490 H   0  0  0  0  0  0  0  0  0  0  0  0
   36.8530   33.6720   39.8450 O   0  0  0  0  0  0  0  0  0  0  0  0
   37.4940   34.4350   39.7190 H   0  0  0  0  0  0  0  0  0  0  0  0
   40.1380   30.4920   40.6290 H   0  0  0  0  0  0  0  0  0  0  0  0
   40.2050   30.0870   41.9390 S   0  0  0  0  0  0  0  0  0  0  0  0
   41.4230   29.1790   42.0240 O   0  0  0  0  0  0  0  0  0  0  0  0
   40.4290   31.1850   42.9050 O   0  0  0  0  0  0  0  0  0  0  0  0
  1  8  1  0  0  0  0
  2  3  1  0  0  0  0
  2  1  2  0  0  0  0
  3  5  2  0  0  0  0
  4  3  1  0  0  0  0
  5  6  1  0  0  0  0
  5  7  1  0  0  0  0
  8  7  2  0  0  0  0
  9 17  1  0  0  0  0
  9 14  1  0  0  0  0
 10  9  2  0  0  0  0
 11 10  1  0  0  0  0
 11 12  2  0  0  0  0
 12 13  1  0  0  0  0
 13 14  2  0  0  0  0
 13  2  1  0  0  0  0
 15 10  1  0  0  0  0
 16 11  1  0  0  0  0
 18 17  1  0  0  0  0
 19 20  1  0  0  0  0
 20 21  2  0  0  0  0
 20  1  1  0  0  0  0
 20 22  2  0  0  0  0
M  END
>  <minimizedAffinity>
-4.92857313

$$$$

 OpenBabel03242518433D

 22 23  0  0  0  0  0  0  0  0999 V2000
   36.7990   28.4800   41.1310 C   0  0  0  0  0  0  0  0  0  0  0  0
   37.6980   29.3990   41.6380 C   0  0  0  0  0  0  0  0  0  0  0  0
   38.2590   29.2740   42.8920 C   0  0  0  0  0  0  0  0  0  0  0  0
   38.9740   30.0040   43.2950 H   0  0  0  0  0  0  0  0  0  0  0  0
   37.9060   28.1770   43.6800 C   0  0  0  0  0  0  0  0  0  0  0  0
   38.3310   28.0600   44.6600 H   0  0  0  0  0  0  0  0  0  0  0  0
   37.0160   27.2160   43.2480 C   0  0  0  0  0  3  0  0  0  0  0  0
   36.4980   27.4110   41.9840 C   0  0  0  0  0  3  0  0  0  0  0  0
   37.7000   32.7050   40.0040 C   0  0  0  0  0  0  0  0  0  0  0  0
   38.9250   32.6750   39.2820 C   0  0  0  0  0  0  0  0  0  0  0  0
   39.7050   31.5140   39.3880 C   0  0  0  0  0  0  0  0  0  0  0  0
   39.2610   30.4990   40.1570 N   0  0  0  0  0  0  0  0  0  0  0  0
   38.0900   30.5680   40.8260 C   0  0  0  0  0  0  0  0  0  0  0  0
   37.3300   31.6610   40.7420 N   0  0  0  0  0  0  0  0  0  0  0  0
   39.2950   33.4820   38.6620 H   0  0  0  0  0  0  0  0  0  0  0  0
   40.6470   31.4080   38.8740 H   0  0  0  0  0  0  0  0  0  0  0  0
   36.9510   33.8330   39.8970 O   0  0  0  0  0  0  0  0  0  0  0  0
   37.1960   34.7260   40.2860 H   0  0  0  0  0  0  0  0  0  0  0  0
   36.8300   29.5530   38.8530 H   0  0  0  0  0  0  0  0  0  0  0  0
   36.0950   28.6350   39.5610 S   0  0  0  0  0  0  0  0  0  0  0  0
   34.7200   29.2620   39.7370 O   0  0  0  0  0  0  0  0  0  0  0  0
   35.8870   27.3500   38.8590 O   0  0  0  0  0  0  0  0  0  0  0  0
  1  2  2  0  0  0  0
  1  8  1  0  0  0  0
  2  3  1  0  0  0  0
  3  4  1  0  0  0  0
  3  5  2  0  0  0  0
  5  6  1  0  0  0  0
  7  5  1  0  0  0  0
  8  7  2  0  0  0  0
  9 14  1  0  0  0  0
 10 11  1  0  0  0  0
 10  9  2  0  0  0  0
 11 12  2  0  0  0  0
 12 13  1  0  0  0  0
 13  2  1  0  0  0  0
 14 13  2  0  0  0  0
 15 10  1  0  0  0  0
 16 11  1  0  0  0  0
 17  9  1  0  0  0  0
 17 18  1  0  0  0  0
 19 20  1  0  0  0  0
 20 21  2  0  0  0  0
 20  1  1  0  0  0  0
 22 20  2  0  0  0  0
M  END
>  <minimizedAffinity>
-4.92095089

$$$$

 OpenBabel03242518433D

 22 23  0  0  0  0  0  0  0  0999 V2000
   36.7790   26.0450   39.7660 C   0  0  0  0  0  0  0  0  0  0  0  0
   37.0920   26.6440   40.9710 C   0  0  0  0  0  0  0  0  0  0  0  0
   37.1950   25.9340   42.1500 C   0  0  0  0  0  0  0  0  0  0  0  0
   37.4430   26.4100   43.1070 H   0  0  0  0  0  0  0  0  0  0  0  0
   36.9740   24.5550   42.1230 C   0  0  0  0  0  0  0  0  0  0  0  0
   37.0490   23.9820   43.0300 H   0  0  0  0  0  0  0  0  0  0  0  0
   36.6580   23.8810   40.9630 C   0  0  0  0  0  3  0  0  0  0  0  0
   36.5730   24.6610   39.8270 C   0  0  0  0  0  3  0  0  0  0  0  0
   36.5730   30.2860   41.2390 C   0  0  0  0  0  0  0  0  0  0  0  0
   37.9010   30.7820   41.1130 C   0  0  0  0  0  0  0  0  0  0  0  0
   38.9250   29.8380   40.9410 C   0  0  0  0  0  0  0  0  0  0  0  0
   38.6050   28.5290   40.9040 N   0  0  0  0  0  0  0  0  0  0  0  0
   37.3300   28.1000   41.0270 C   0  0  0  0  0  0  0  0  0  0  0  0
   36.3390   28.9760   41.1910 N   0  0  0  0  0  0  0  0  0  0  0  0
   38.1720   31.8280   41.1410 H   0  0  0  0  0  0  0  0  0  0  0  0
   39.9580   30.1270   40.8370 H   0  0  0  0  0  0  0  0  0  0  0  0
   35.5880   31.2040   41.4060 O   0  0  0  0  0  0  0  0  0  0  0  0
   35.4520   31.7600   42.2310 H   0  0  0  0  0  0  0  0  0  0  0  0
   37.3100   28.1260   38.4510 H   0  0  0  0  0  0  0  0  0  0  0  0
   36.6490   26.9330   38.2900 S   0  0  0  0  0  0  0  0  0  0  0  0
   35.1840   27.3000   38.1050 O   0  0  0  0  0  0  0  0  0  0  0  0
   37.0500   26.1720   37.0870 O   0  0  0  0  0  0  0  0  0  0  0  0
  1  8  2  0  0  0  0
  1  2  1  0  0  0  0
  2 13  1  0  0  0  0
  2  3  2  0  0  0  0
  3  4  1  0  0  0  0
  5  3  1  0  0  0  0
  5  6  1  0  0  0  0
  7  5  2  0  0  0  0
  8  7  1  0  0  0  0
  9 17  1  0  0  0  0
 10 15  1  0  0  0  0
 10  9  2  0  0  0  0
 11 10  1  0  0  0  0
 12 11  2  0  0  0  0
 12 13  1  0  0  0  0
 13 14  2  0  0  0  0
 14  9  1  0  0  0  0
 16 11  1  0  0  0  0
 17 18  1  0  0  0  0
 20 19  1  0  0  0  0
 20  1  1  0  0  0  0
 21 20  2  0  0  0  0
 22 20  2  0  0  0  0
M  END
>  <minimizedAffinity>
-4.74383926

$$$$

 OpenBabel03242518433D

 22 23  0  0  0  0  0  0  0  0999 V2000
   38.2950   26.1800   41.4330 C   0  0  0  0  0  0  0  0  0  0  0  0
   38.6960   27.3880   41.9700 C   0  0  0  0  0  0  0  0  0  0  0  0
   39.5140   27.4740   43.0780 C   0  0  0  0  0  0  0  0  0  0  0  0
   39.8330   28.4340   43.5040 H   0  0  0  0  0  0  0  0  0  0  0  0
   39.9540   26.2930   43.6800 C   0  0  0  0  0  0  0  0  0  0  0  0
   40.5920   26.3370   44.5450 H   0  0  0  0  0  0  0  0  0  0  0  0
   39.6000   25.0480   43.2070 C   0  0  0  0  0  3  0  0  0  0  0  0
   38.7800   25.0460   42.0960 C   0  0  0  0  0  3  0  0  0  0  0  0
   36.7200   30.3900   41.1400 C   0  0  0  0  0  0  0  0  0  0  0  0
   37.5160   30.9960   40.1290 C   0  0  0  0  0  0  0  0  0  0  0  0
   38.7070   30.3440   39.7730 C   0  0  0  0  0  0  0  0  0  0  0  0
   39.0320   29.1940   40.3970 N   0  0  0  0  0  0  0  0  0  0  0  0
   38.2460   28.6520   41.3520 C   0  0  0  0  0  0  0  0  0  0  0  0
   37.1100   29.2510   41.7090 N   0  0  0  0  0  0  0  0  0  0  0  0
   37.2690   31.9180   39.6200 H   0  0  0  0  0  0  0  0  0  0  0  0
   39.3690   30.7350   39.0170 H   0  0  0  0  0  0  0  0  0  0  0  0
   35.5700   31.0260   41.4790 O   0  0  0  0  0  0  0  0  0  0  0  0
   35.5190   31.9000   41.9710 H   0  0  0  0  0  0  0  0  0  0  0  0
   36.3710   27.1070   40.0990 H   0  0  0  0  0  0  0  0  0  0  0  0
   37.2710   26.0710   40.0460 S   0  0  0  0  0  0  0  0  0  0  0  0
   36.4430   24.8030   40.1890 O   0  0  0  0  0  0  0  0  0  0  0  0
   37.9970   25.9600   38.7620 O   0  0  0  0  0  0  0  0  0  0  0  0
  1  2  2  0  0  0  0
  1  8  1  0  0  0  0
  2  3  1  0  0  0  0
  3  4  1  0  0  0  0
  3  5  2  0  0  0  0
  5  6  1  0  0  0  0
  7  5  1  0  0  0  0
  8  7  2  0  0  0  0
  9 17  1  0  0  0  0
  9 14  1  0  0  0  0
 10  9  2  0  0  0  0
 11 10  1  0  0  0  0
 11 12  2  0  0  0  0
 12 13  1  0  0  0  0
 13 14  2  0  0  0  0
 13  2  1  0  0  0  0
 15 10  1  0  0  0  0
 16 11  1  0  0  0  0
 17 18  1  0  0  0  0
 20 19  1  0  0  0  0
 20 21  2  0  0  0  0
 20  1  1  0  0  0  0
 22 20  2  0  0  0  0
M  END
>  <minimizedAffinity>
-4.69728708

$$$$

 OpenBabel03242518433D

 22 23  0  0  0  0  0  0  0  0999 V2000
   38.6440   28.0560   42.4160 C   0  0  0  0  0  0  0  0  0  0  0  0
   39.3240   29.0600   41.7540 C   0  0  0  0  0  0  0  0  0  0  0  0
   40.6580   29.3300   41.9820 C   0  0  0  0  0  0  0  0  0  0  0  0
   41.1980   30.1270   41.4550 H   0  0  0  0  0  0  0  0  0  0  0  0
   41.3480   28.5590   42.9200 C   0  0  0  0  0  0  0  0  0  0  0  0
   42.3870   28.7530   43.1140 H   0  0  0  0  0  0  0  0  0  0  0  0
   40.7430   27.5390   43.6250 C   0  0  0  0  0  3  0  0  0  0  0  0
   39.4080   27.3310   43.3390 C   0  0  0  0  0  3  0  0  0  0  0  0
   37.4590   31.8080   40.1510 C   0  0  0  0  0  0  0  0  0  0  0  0
   37.3310   31.3370   38.8150 C   0  0  0  0  0  0  0  0  0  0  0  0
   37.8950   30.0870   38.5190 C   0  0  0  0  0  0  0  0  0  0  0  0
   38.5210   29.4050   39.4990 N   0  0  0  0  0  0  0  0  0  0  0  0
   38.6190   29.8890   40.7560 C   0  0  0  0  0  0  0  0  0  0  0  0
   38.0910   31.0750   41.0640 N   0  0  0  0  0  0  0  0  0  0  0  0
   36.8330   31.8730   38.0180 H   0  0  0  0  0  0  0  0  0  0  0  0
   37.8440   29.6550   37.5320 H   0  0  0  0  0  0  0  0  0  0  0  0
   36.9110   33.0190   40.4300 O   0  0  0  0  0  0  0  0  0  0  0  0
   37.2570   33.8990   40.0930 H   0  0  0  0  0  0  0  0  0  0  0  0
   36.3510   28.8940   41.7990 H   0  0  0  0  0  0  0  0  0  0  0  0
   36.9750   27.7170   42.1320 S   0  0  0  0  0  0  0  0  0  0  0  0
   36.3620   27.2910   43.4580 O   0  0  0  0  0  0  0  0  0  0  0  0
   36.7330   26.6100   41.1800 O   0  0  0  0  0  0  0  0  0  0  0  0
  1  8  1  0  0  0  0
  2  3  1  0  0  0  0
  2  1  2  0  0  0  0
  3  5  2  0  0  0  0
  4  3  1  0  0  0  0
  5  6  1  0  0  0  0
  5  7  1  0  0  0  0
  8  7  2  0  0  0  0
  9 17  1  0  0  0  0
  9 14  1  0  0  0  0
 10  9  2  0  0  0  0
 11 10  1  0  0  0  0
 11 12  2  0  0  0  0
 12 13  1  0  0  0  0
 13 14  2  0  0  0  0
 13  2  1  0  0  0  0
 15 10  1  0  0  0  0
 16 11  1  0  0  0  0
 18 17  1  0  0  0  0
 19 20  1  0  0  0  0
 20  1  1  0  0  0  0
 20 21  2  0  0  0  0
 22 20  2  0  0  0  0
M  END
>  <minimizedAffinity>
-4.64174032

$$$$

 OpenBabel03242518433D

 22 23  0  0  0  0  0  0  0  0999 V2000
   39.0820   26.7320   41.9360 C   0  0  0  0  0  0  0  0  0  0  0  0
   37.8380   26.7990   41.3380 C   0  0  0  0  0  0  0  0  0  0  0  0
   36.9740   25.7240   41.2960 C   0  0  0  0  0  0  0  0  0  0  0  0
   35.9860   25.7770   40.8210 H   0  0  0  0  0  0  0  0  0  0  0  0
   37.3730   24.5200   41.8810 C   0  0  0  0  0  0  0  0  0  0  0  0
   36.7160   23.6690   41.8590 H   0  0  0  0  0  0  0  0  0  0  0  0
   38.5980   24.3690   42.4970 C   0  0  0  0  0  3  0  0  0  0  0  0
   39.4030   25.4900   42.4970 C   0  0  0  0  0  3  0  0  0  0  0  0
   36.2900   30.1030   40.8000 C   0  0  0  0  0  0  0  0  0  0  0  0
   36.6160   30.3630   39.4400 C   0  0  0  0  0  0  0  0  0  0  0  0
   37.3600   29.3860   38.7610 C   0  0  0  0  0  0  0  0  0  0  0  0
   37.7230   28.2670   39.4200 N   0  0  0  0  0  0  0  0  0  0  0  0
   37.3910   28.0600   40.7130 C   0  0  0  0  0  0  0  0  0  0  0  0
   36.6850   28.9730   41.3810 N   0  0  0  0  0  0  0  0  0  0  0  0
   36.3330   31.2560   38.8980 H   0  0  0  0  0  0  0  0  0  0  0  0
   37.6510   29.5030   37.7290 H   0  0  0  0  0  0  0  0  0  0  0  0
   35.5710   31.0530   41.4510 O   0  0  0  0  0  0  0  0  0  0  0  0
   35.9170   31.9590   41.7130 H   0  0  0  0  0  0  0  0  0  0  0  0
   39.4620   29.2020   41.6330 H   0  0  0  0  0  0  0  0  0  0  0  0
   40.1640   28.0770   41.9890 S   0  0  0  0  0  0  0  0  0  0  0  0
   41.1970   27.8760   40.8900 O   0  0  0  0  0  0  0  0  0  0  0  0
   40.9140   28.2030   43.2570 O   0  0  0  0  0  0  0  0  0  0  0  0
  1 20  1  0  0  0  0
  1  8  1  0  0  0  0
  2  1  2  0  0  0  0
  3  2  1  0  0  0  0
  3  5  2  0  0  0  0
  4  3  1  0  0  0  0
  5  7  1  0  0  0  0
  6  5  1  0  0  0  0
  8  7  2  0  0  0  0
  9 14  1  0  0  0  0
  9 17  1  0  0  0  0
 10  9  2  0  0  0  0
 11 12  2  0  0  0  0
 11 10  1  0  0  0  0
 12 13  1  0  0  0  0
 13  2  1  0  0  0  0
 13 14  2  0  0  0  0
 15 10  1  0  0  0  0
 16 11  1  0  0  0  0
 17 18  1  0  0  0  0
 19 20  1  0  0  0  0
 20 22  2  0  0  0  0
 21 20  2  0  0  0  0
M  END
>  <minimizedAffinity>
-4.59304285

$$$$

 OpenBabel03242518433D

 22 23  0  0  0  0  0  0  0  0999 V2000
   37.8820   27.9920   40.9320 C   0  0  0  0  0  0  0  0  0  0  0  0
   37.7800   29.0320   41.8350 C   0  0  0  0  0  0  0  0  0  0  0  0
   37.3450   28.8510   43.1320 C   0  0  0  0  0  0  0  0  0  0  0  0
   37.2650   29.6770   43.8490 H   0  0  0  0  0  0  0  0  0  0  0  0
   36.9950   27.5640   43.5480 C   0  0  0  0  0  0  0  0  0  0  0  0
   36.6530   27.4000   44.5540 H   0  0  0  0  0  0  0  0  0  0  0  0
   37.0670   26.4730   42.7090 C   0  0  0  0  0  3  0  0  0  0  0  0
   37.5110   26.7360   41.4290 C   0  0  0  0  0  3  0  0  0  0  0  0
   39.6690   32.1470   41.2610 C   0  0  0  0  0  0  0  0  0  0  0  0
   38.7030   32.9610   40.6080 C   0  0  0  0  0  0  0  0  0  0  0  0
   37.4350   32.4020   40.3890 C   0  0  0  0  0  0  0  0  0  0  0  0
   37.1990   31.1400   40.8030 N   0  0  0  0  0  0  0  0  0  0  0  0
   38.1460   30.4020   41.4210 C   0  0  0  0  0  0  0  0  0  0  0  0
   39.3590   30.9100   41.6410 N   0  0  0  0  0  0  0  0  0  0  0  0
   38.8780   33.9740   40.2700 H   0  0  0  0  0  0  0  0  0  0  0  0
   36.6440   32.9490   39.9010 H   0  0  0  0  0  0  0  0  0  0  0  0
   40.8940   32.6950   41.4690 O   0  0  0  0  0  0  0  0  0  0  0  0
   41.5630   32.9010   40.7480 H   0  0  0  0  0  0  0  0  0  0  0  0
   39.2440   29.3200   39.2820 H   0  0  0  0  0  0  0  0  0  0  0  0
   38.4260   28.2170   39.3080 S   0  0  0  0  0  0  0  0  0  0  0  0
   37.2140   28.5890   38.4670 O   0  0  0  0  0  0  0  0  0  0  0  0
   39.0140   27.0090   38.6900 O   0  0  0  0  0  0  0  0  0  0  0  0
  1  8  2  0  0  0  0
  1  2  1  0  0  0  0
  2  3  2  0  0  0  0
  3  5  1  0  0  0  0
  3  4  1  0  0  0  0
  5  6  1  0  0  0  0
  7  5  2  0  0  0  0
  8  7  1  0  0  0  0
  9 17  1  0  0  0  0
  9 14  1  0  0  0  0
 10  9  2  0  0  0  0
 11 10  1  0  0  0  0
 11 12  2  0  0  0  0
 12 13  1  0  0  0  0
 13 14  2  0  0  0  0
 13  2  1  0  0  0  0
 15 10  1  0  0  0  0
 16 11  1  0  0  0  0
 18 17  1  0  0  0  0
 19 20  1  0  0  0  0
 20  1  1  0  0  0  0
 21 20  2  0  0  0  0
 22 20  2  0  0  0  0
M  END
>  <minimizedAffinity>
-4.44031715

$$$$

 OpenBabel03242518433D

 22 23  0  0  0  0  0  0  0  0999 V2000
   38.1770   26.4260   42.3860 C   0  0  0  0  0  0  0  0  0  0  0  0
   39.3180   27.1900   42.5380 C   0  0  0  0  0  0  0  0  0  0  0  0
   39.2880   28.4850   43.0120 C   0  0  0  0  0  0  0  0  0  0  0  0
   40.1940   29.0920   43.1320 H   0  0  0  0  0  0  0  0  0  0  0  0
   38.0550   29.0460   43.3520 C   0  0  0  0  0  0  0  0  0  0  0  0
   38.0080   30.0550   43.7230 H   0  0  0  0  0  0  0  0  0  0  0  0
   36.8700   28.3510   43.2300 C   0  0  0  0  0  3  0  0  0  0  0  0
   36.9840   27.0630   42.7490 C   0  0  0  0  0  3  0  0  0  0  0  0
   42.5500   25.4220   42.7250 C   0  0  0  0  0  0  0  0  0  0  0  0
   43.0670   25.6160   41.4140 C   0  0  0  0  0  0  0  0  0  0  0  0
   42.2790   26.3500   40.5150 C   0  0  0  0  0  0  0  0  0  0  0  0
   41.0890   26.8280   40.9310 N   0  0  0  0  0  0  0  0  0  0  0  0
   40.6350   26.6210   42.1860 C   0  0  0  0  0  0  0  0  0  0  0  0
   41.3640   25.9270   43.0600 N   0  0  0  0  0  0  0  0  0  0  0  0
   44.0200   25.2380   41.0660 H   0  0  0  0  0  0  0  0  0  0  0  0
   42.5950   26.5440   39.5020 H   0  0  0  0  0  0  0  0  0  0  0  0
   43.3180   24.7100   43.5890 O   0  0  0  0  0  0  0  0  0  0  0  0
   43.4990   23.7250   43.5210 H   0  0  0  0  0  0  0  0  0  0  0  0
   38.8920   24.8030   40.5980 H   0  0  0  0  0  0  0  0  0  0  0  0
   38.2140   24.8040   41.7920 S   0  0  0  0  0  0  0  0  0  0  0  0
   36.7850   24.4100   41.4500 O   0  0  0  0  0  0  0  0  0  0  0  0
   38.7030   23.8100   42.7720 O   0  0  0  0  0  0  0  0  0  0  0  0
  1  2  2  0  0  0  0
  1  8  1  0  0  0  0
  2  3  1  0  0  0  0
  3  4  1  0  0  0  0
  3  5  2  0  0  0  0
  5  6  1  0  0  0  0
  7  5  1  0  0  0  0
  8  7  2  0  0  0  0
  9 14  1  0  0  0  0
  9 17  1  0  0  0  0
 10  9  2  0  0  0  0
 11 12  2  0  0  0  0
 11 10  1  0  0  0  0
 12 13  1  0  0  0  0
 13  2  1  0  0  0  0
 13 14  2  0  0  0  0
 15 10  1  0  0  0  0
 16 11  1  0  0  0  0
 18 17  1  0  0  0  0
 19 20  1  0  0  0  0
 20  1  1  0  0  0  0
 20 22  2  0  0  0  0
 21 20  2  0  0  0  0
M  END
>  <minimizedAffinity>
-4.41717339

$$$$

 OpenBabel03242518433D

 22 23  0  0  0  0  0  0  0  0999 V2000
   39.3020   31.7500   40.8230 C   0  0  0  0  0  0  0  0  0  0  0  0
   38.0220   31.3400   40.5000 C   0  0  0  0  0  0  0  0  0  0  0  0
   37.0870   32.1900   39.9460 C   0  0  0  0  0  0  0  0  0  0  0  0
   36.0710   31.8650   39.6900 H   0  0  0  0  0  0  0  0  0  0  0  0
   37.4490   33.5170   39.7020 C   0  0  0  0  0  0  0  0  0  0  0  0
   36.7350   34.1970   39.2710 H   0  0  0  0  0  0  0  0  0  0  0  0
   38.7040   34.0050   39.9950 C   0  0  0  0  0  3  0  0  0  0  0  0
   39.5820   33.0930   40.5470 C   0  0  0  0  0  3  0  0  0  0  0  0
   36.7250   28.2870   42.1130 C   0  0  0  0  0  0  0  0  0  0  0  0
   36.8980   27.3170   41.0870 C   0  0  0  0  0  0  0  0  0  0  0  0
   37.4550   27.7550   39.8760 C   0  0  0  0  0  0  0  0  0  0  0  0
   37.7950   29.0540   39.7470 N   0  0  0  0  0  0  0  0  0  0  0  0
   37.6140   29.9420   40.7480 C   0  0  0  0  0  0  0  0  0  0  0  0
   37.0860   29.5520   41.9080 N   0  0  0  0  0  0  0  0  0  0  0  0
   36.6300   26.2720   41.1760 H   0  0  0  0  0  0  0  0  0  0  0  0
   37.6200   27.0860   39.0460 H   0  0  0  0  0  0  0  0  0  0  0  0
   36.1850   27.8560   43.2810 O   0  0  0  0  0  0  0  0  0  0  0  0
   35.2310   27.5660   43.4020 H   0  0  0  0  0  0  0  0  0  0  0  0
   39.9850   29.4050   41.4370 H   0  0  0  0  0  0  0  0  0  0  0  0
   40.4730   30.6870   41.5170 S   0  0  0  0  0  0  0  0  0  0  0  0
   40.5510   31.0010   43.0040 O   0  0  0  0  0  0  0  0  0  0  0  0
   41.8400   30.8530   40.9770 O   0  0  0  0  0  0  0  0  0  0  0  0
  1 20  1  0  0  0  0
  2 13  1  0  0  0  0
  2  1  2  0  0  0  0
  3  2  1  0  0  0  0
  4  3  1  0  0  0  0
  5  3  2  0  0  0  0
  5  7  1  0  0  0  0
  6  5  1  0  0  0  0
  7  8  2  0  0  0  0
  8  1  1  0  0  0  0
  9 17  1  0  0  0  0
 10 15  1  0  0  0  0
 10  9  2  0  0  0  0
 11 10  1  0  0  0  0
 12 11  2  0  0  0  0
 12 13  1  0  0  0  0
 13 14  2  0  0  0  0
 14  9  1  0  0  0  0
 16 11  1  0  0  0  0
 17 18  1  0  0  0  0
 19 20  1  0  0  0  0
 20 21  2  0  0  0  0
 22 20  2  0  0  0  0
M  END
>  <minimizedAffinity>
-4.39037085

$$$$
