
 OpenBabel03252508213D

 37 39  0  0  0  0  0  0  0  0999 V2000
   46.1710   33.9400   40.6370 C   0  0  0  0  0  0  0  0  0  0  0  0
   46.9450   33.8010   39.5020 C   0  0  0  0  0  0  0  0  0  0  0  0
   48.1950   34.3660   39.3350 C   0  0  0  0  0  0  0  0  0  0  0  0
   48.6660   35.1170   40.4050 C   0  0  0  0  0  0  0  0  0  0  0  0
   47.9080   35.2650   41.5450 C   0  0  0  0  0  0  0  0  0  0  0  0
   46.6750   34.7070   41.7070 C   0  0  0  0  0  0  0  0  0  0  0  0
   46.5460   33.2110   38.6890 H   0  0  0  0  0  0  0  0  0  0  0  0
   48.7670   34.2380   38.4410 H   0  0  0  0  0  0  0  0  0  0  0  0
   49.6380   35.5720   40.3100 H   0  0  0  0  0  0  0  0  0  0  0  0
   48.3440   35.8660   42.3390 H   0  0  0  0  0  0  0  0  0  0  0  0
   46.1100   33.9270   43.9220 C   0  0  0  0  0  0  0  0  0  0  0  0
   45.9730   34.9390   42.9640 C   0  0  0  0  0  0  0  0  0  0  0  0
   45.2110   36.0700   43.2370 C   0  0  0  0  0  0  0  0  0  0  0  0
   45.1350   36.8310   42.4580 H   0  0  0  0  0  0  0  0  0  0  0  0
   44.5750   36.2170   44.4570 C   0  0  0  0  0  0  0  0  0  0  0  0
   43.9810   37.0890   44.6820 H   0  0  0  0  0  0  0  0  0  0  0  0
   44.6820   35.2390   45.4370 C   0  0  0  0  0  0  0  0  0  0  0  0
   45.4480   34.1360   45.1210 C   0  0  0  0  0  0  0  0  0  0  0  0
   46.6550   31.9450   42.4460 H   0  0  0  0  0  0  0  0  0  0  0  0
   47.0470   32.4820   43.6520 S   0  0  0  0  0  0  0  0  0  0  0  0
   46.6520   31.4860   44.7170 O   0  0  0  0  0  0  0  0  0  0  0  0
   48.5180   32.7250   43.6320 O   0  0  0  0  0  0  0  0  0  0  0  0
   44.8310   33.3400   40.8160 C   0  0  0  0  0  0  0  0  0  0  0  0
   44.4240   33.8330   41.7490 H   0  0  0  0  0  0  0  0  0  0  0  0
   44.8140   32.2680   40.9950 H   0  0  0  0  0  0  0  0  0  0  0  0
   43.8840   33.8060   39.7160 C   0  0  0  0  0  0  0  0  0  0  0  0
   44.3170   34.7370   39.3020 H   0  0  0  0  0  0  0  0  0  0  0  0
   43.7600   32.9910   38.9770 H   0  0  0  0  0  0  0  0  0  0  0  0
   41.1710   35.5680   41.6440 C   0  0  0  0  0  0  0  0  0  0  0  0
   42.4260   35.2960   41.0480 C   0  0  0  0  0  0  0  0  0  0  0  0
   42.5690   34.1090   40.3480 C   0  0  0  0  0  0  0  0  0  0  0  0
   41.4880   33.2620   40.2700 N   0  0  0  0  0  0  0  0  0  0  0  0
   40.3190   33.5600   40.8480 C   0  0  0  0  0  0  0  0  0  0  0  0
   40.1430   34.7050   41.5380 N   0  0  0  0  0  0  0  0  0  0  0  0
   41.0820   36.5030   42.1860 H   0  0  0  0  0  0  0  0  0  0  0  0
   43.2470   35.9990   41.1410 H   0  0  0  0  0  0  0  0  0  0  0  0
   39.5600   32.7930   40.6990 H   0  0  0  0  0  0  0  0  0  0  0  0
  1 23  1  0  0  0  0
  1  6  1  0  0  0  0
  2  1  2  0  0  0  0
  3  2  1  0  0  0  0
  3  4  2  0  0  0  0
  4  5  1  0  0  0  0
  5  6  2  0  0  0  0
  5 10  1  0  0  0  0
  6 12  1  0  0  0  0
  7  2  1  0  0  0  0
  8  3  1  0  0  0  0
  9  4  1  0  0  0  0
 11 18  1  0  0  0  0
 12 13  1  0  0  0  0
 12 11  2  0  0  0  0
 13 15  2  0  0  0  0
 14 13  1  0  0  0  0
 15 16  1  0  0  0  0
 15 17  1  0  0  0  0
 18 17  2  0  0  0  0
 19 20  1  0  0  0  0
 20 11  1  0  0  0  0
 20 21  2  0  0  0  0
 22 20  2  0  0  0  0
 23 25  1  0  0  0  0
 23 24  1  0  0  0  0
 26 31  1  0  0  0  0
 26 23  1  0  0  0  0
 27 26  1  0  0  0  0
 28 26  1  0  0  0  0
 29 35  1  0  0  0  0
 30 36  1  0  0  0  0
 30 29  2  0  0  0  0
 31 30  1  0  0  0  0
 32 31  2  0  0  0  0
 32 33  1  0  0  0  0
 33 34  2  0  0  0  0
 34 29  1  0  0  0  0
 37 33  1  0  0  0  0
M  END
>  <minimizedAffinity>
-6.10975695

>  <minimizedRMSD>
1.2534101

$$$$
