
 OpenBabel03252506563D

 41 45  0  0  0  0  0  0  0  0999 V2000
   47.0560   31.3140   45.0930 C   0  0  0  0  0  0  0  0  0  0  0  0
   46.8040   32.6770   45.1580 C   0  0  0  0  0  0  0  0  0  0  0  0
   46.2830   33.2900   46.2750 C   0  0  0  0  0  0  0  0  0  0  0  0
   45.9860   32.5330   47.4050 C   0  0  0  0  0  0  0  0  0  0  0  0
   45.4790   32.7830   48.6450 N   0  0  0  0  0  0  0  0  0  0  0  0
   45.4210   31.6130   49.3210 C   0  0  0  0  0  0  0  0  0  0  0  0
   45.8910   30.6500   48.4960 N   0  0  0  0  0  0  0  0  0  0  0  0
   46.2430   31.1890   47.3170 C   0  0  0  0  0  0  0  0  0  0  0  0
   46.7640   30.5490   46.2140 C   0  0  0  0  0  0  0  0  0  0  0  0
   47.4700   30.8590   44.1910 H   0  0  0  0  0  0  0  0  0  0  0  0
   46.0800   34.3520   46.3430 H   0  0  0  0  0  0  0  0  0  0  0  0
   45.2240   33.7620   48.8900 H   0  0  0  0  0  0  0  0  0  0  0  0
   45.0510   31.5570   50.3330 H   0  0  0  0  0  0  0  0  0  0  0  0
   46.4940   35.2030   42.5080 C   0  0  0  0  0  0  0  0  0  0  0  0
   47.6800   35.0410   41.7920 C   0  0  0  0  0  0  0  0  0  0  0  0
   48.5810   34.0710   42.2140 C   0  0  0  0  0  0  0  0  0  0  0  0
   48.2740   33.3110   43.3160 N   0  0  0  0  0  0  0  0  0  0  0  0
   47.1060   33.5030   43.9840 C   0  0  0  0  0  0  0  0  0  0  0  0
   46.2130   34.4450   43.5880 N   0  0  0  0  0  0  0  0  0  0  0  0
   45.8150   35.9650   42.1550 H   0  0  0  0  0  0  0  0  0  0  0  0
   47.9570   35.6200   40.9200 H   0  0  0  0  0  0  0  0  0  0  0  0
   49.5250   33.8590   41.7380 H   0  0  0  0  0  0  0  0  0  0  0  0
   46.9970   29.1080   46.2310 C   0  0  0  0  0  0  0  0  0  0  0  0
   48.2360   28.5110   46.3860 C   0  0  0  0  0  0  0  0  0  0  0  0
   47.9850   27.1430   46.3410 C   0  0  0  0  0  0  0  0  0  0  0  0
   46.6290   26.9840   46.1630 C   0  0  0  0  0  0  0  0  0  0  0  0
   46.0940   28.1850   46.1060 O   0  0  0  0  0  0  0  0  0  0  0  0
   49.1690   29.0190   46.5120 H   0  0  0  0  0  0  0  0  0  0  0  0
   48.7340   26.3460   46.4300 H   0  0  0  0  0  0  0  0  0  0  0  0
   45.5150   25.0600   47.2070 C   0  0  0  0  0  0  0  0  0  0  0  0
   45.9080   25.7190   46.0590 C   0  0  0  0  0  0  0  0  0  0  0  0
   45.6310   25.1980   44.8110 C   0  0  0  0  0  0  0  0  0  0  0  0
   45.9390   25.7140   43.8920 H   0  0  0  0  0  0  0  0  0  0  0  0
   44.9570   24.0130   44.6400 C   0  0  0  0  0  0  0  0  0  0  0  0
   44.7260   23.5820   43.6750 H   0  0  0  0  0  0  0  0  0  0  0  0
   44.5570   23.3440   45.7990 C   0  0  0  0  0  3  0  0  0  0  0  0
   44.8380   23.8700   47.0360 C   0  0  0  0  0  3  0  0  0  0  0  0
   46.2660   26.9980   48.7780 H   0  0  0  0  0  0  0  0  0  0  0  0
   45.8540   25.6990   48.7990 S   0  0  0  0  0  0  0  0  0  0  0  0
   44.5700   25.6290   49.6070 O   0  0  0  0  0  0  0  0  0  0  0  0
   46.8470   24.7950   49.5130 O   0  0  0  0  0  0  0  0  0  0  0  0
  1  2  2  0  0  0  0
  1  9  1  0  0  0  0
  2  3  1  0  0  0  0
  3 11  1  0  0  0  0
  3  4  2  0  0  0  0
  4  5  1  0  0  0  0
  5 12  1  0  0  0  0
  5  6  1  0  0  0  0
  6 13  1  0  0  0  0
  7  6  2  0  0  0  0
  8  4  1  0  0  0  0
  8  7  1  0  0  0  0
  9 23  1  0  0  0  0
  9  8  2  0  0  0  0
 10  1  1  0  0  0  0
 14 19  1  0  0  0  0
 15 16  1  0  0  0  0
 15 14  2  0  0  0  0
 16 17  2  0  0  0  0
 17 18  1  0  0  0  0
 18  2  1  0  0  0  0
 19 18  2  0  0  0  0
 20 14  1  0  0  0  0
 21 15  1  0  0  0  0
 22 16  1  0  0  0  0
 23 24  2  0  0  0  0
 24 28  1  0  0  0  0
 25 24  1  0  0  0  0
 25 29  1  0  0  0  0
 26 25  2  0  0  0  0
 27 26  1  0  0  0  0
 27 23  1  0  0  0  0
 30 39  1  0  0  0  0
 31 26  1  0  0  0  0
 31 30  2  0  0  0  0
 32 31  1  0  0  0  0
 33 32  1  0  0  0  0
 34 32  2  0  0  0  0
 34 36  1  0  0  0  0
 35 34  1  0  0  0  0
 36 37  2  0  0  0  0
 37 30  1  0  0  0  0
 38 39  1  0  0  0  0
 39 41  2  0  0  0  0
 39 40  2  0  0  0  0
M  END
>  <minimizedAffinity>
-5.66114759

>  <minimizedRMSD>
1.17864323

$$$$
