
 OpenBabel03252508253D

 44 48  0  0  1  0  0  0  0  0999 V2000
   46.3010   32.3710   46.2940 C   0  0  1  0  0  0  0  0  0  0  0  0
   46.7050   32.5500   47.6960 C   0  0  0  0  0  0  0  0  0  0  0  0
   45.3530   31.8540   47.2610 C   0  0  2  0  0  0  0  0  0  0  0  0
   47.1580   31.7740   45.8140 H   0  0  0  0  0  0  0  0  0  0  0  0
   47.3360   31.8460   48.2620 H   0  0  0  0  0  0  0  0  0  0  0  0
   46.6120   33.5250   48.2000 H   0  0  0  0  0  0  0  0  0  0  0  0
   44.5740   32.4910   47.7880 H   0  0  0  0  0  0  0  0  0  0  0  0
   45.1400   30.4390   47.5650 C   0  0  0  0  0  0  0  0  0  0  0  0
   45.0440   29.8610   48.7930 C   0  0  0  0  0  0  0  0  0  0  0  0
   44.9720   28.4970   49.0510 C   0  0  0  0  0  0  0  0  0  0  0  0
   45.0030   27.6510   47.9240 C   0  0  0  0  0  0  0  0  0  0  0  0
   45.0990   28.2180   46.6630 C   0  0  0  0  0  0  0  0  0  0  0  0
   45.0660   27.3490   45.5880 C   0  0  0  0  0  0  0  0  0  0  0  0
   45.0910   27.8680   44.2910 C   0  0  0  0  0  0  0  0  0  0  0  0
   45.1440   29.2320   44.0860 C   0  0  0  0  0  0  0  0  0  0  0  0
   45.1770   30.0480   45.1920 C   0  0  0  0  0  0  0  0  0  0  0  0
   45.1630   29.5820   46.4920 C   0  0  0  0  0  0  0  0  0  0  0  0
   45.0240   30.5610   49.6310 H   0  0  0  0  0  0  0  0  0  0  0  0
   44.8980   28.1570   50.0550 H   0  0  0  0  0  0  0  0  0  0  0  0
   44.9500   26.6040   48.1430 H   0  0  0  0  0  0  0  0  0  0  0  0
   45.0220   26.2730   45.7740 H   0  0  0  0  0  0  0  0  0  0  0  0
   45.0640   27.0870   43.5260 H   0  0  0  0  0  0  0  0  0  0  0  0
   45.1520   29.4320   43.0390 H   0  0  0  0  0  0  0  0  0  0  0  0
   45.1290   31.0190   44.7860 H   0  0  0  0  0  0  0  0  0  0  0  0
   44.6750   35.4700   45.1380 C   0  0  0  0  0  0  0  0  0  0  0  0
   45.2080   35.6320   43.8200 C   0  0  0  0  0  0  0  0  0  0  0  0
   46.1220   34.6620   43.3710 C   0  0  0  0  0  0  0  0  0  0  0  0
   46.4440   33.6510   44.1930 N   0  0  0  0  0  0  0  0  0  0  0  0
   45.9160   33.5310   45.4440 C   0  0  0  0  0  0  0  0  0  0  0  0
   45.0480   34.4250   45.9040 N   0  0  0  0  0  0  0  0  0  0  0  0
   43.9790   36.1990   45.4880 H   0  0  0  0  0  0  0  0  0  0  0  0
   44.9370   36.4790   43.2370 H   0  0  0  0  0  0  0  0  0  0  0  0
   46.4790   34.0740   40.9170 C   0  0  0  0  0  0  0  0  0  0  0  0
   46.8120   34.6750   42.1010 C   0  0  0  0  0  0  0  0  0  0  0  0
   48.0250   35.3760   42.0680 C   0  0  0  0  0  0  0  0  0  0  0  0
   48.3860   35.8910   42.9610 H   0  0  0  0  0  0  0  0  0  0  0  0
   48.8580   35.4990   40.9830 C   0  0  0  0  0  0  0  0  0  0  0  0
   49.7770   36.0520   41.0220 H   0  0  0  0  0  0  0  0  0  0  0  0
   48.5000   34.8910   39.8130 C   0  0  0  0  0  3  0  0  0  0  0  0
   47.3190   34.1930   39.8030 C   0  0  0  0  0  3  0  0  0  0  0  0
   45.0480   32.6380   39.4350 H   0  0  0  0  0  0  0  0  0  0  0  0
   45.0790   33.0880   40.7810 S   0  0  0  0  0  0  0  0  0  0  0  0
   45.1590   31.7890   41.5460 O   0  0  0  0  0  0  0  0  0  0  0  0
   43.7750   33.7930   40.9280 O   0  0  0  0  0  0  0  0  0  0  0  0
  1  4  1  6  0  0  0
  1  3  1  0  0  0  0
  1  2  1  0  0  0  0
  2  6  1  0  0  0  0
  2  5  1  0  0  0  0
  3  8  1  0  0  0  0
  3  2  1  0  0  0  0
  3  7  1  1  0  0  0
  8  9  1  0  0  0  0
  9 10  2  0  0  0  0
  9 18  1  0  0  0  0
 10 19  1  0  0  0  0
 11 20  1  0  0  0  0
 11 10  1  0  0  0  0
 12 11  2  0  0  0  0
 13 21  1  0  0  0  0
 13 12  1  0  0  0  0
 14 13  2  0  0  0  0
 15 14  1  0  0  0  0
 15 16  2  0  0  0  0
 16 17  1  0  0  0  0
 17 12  1  0  0  0  0
 17  8  2  0  0  0  0
 22 14  1  0  0  0  0
 23 15  1  0  0  0  0
 24 16  1  0  0  0  0
 25 31  1  0  0  0  0
 25 30  1  0  0  0  0
 26 25  2  0  0  0  0
 27 26  1  0  0  0  0
 27 28  2  0  0  0  0
 28 29  1  0  0  0  0
 29 30  2  0  0  0  0
 29  1  1  0  0  0  0
 32 26  1  0  0  0  0
 33 34  1  0  0  0  0
 34 27  1  0  0  0  0
 35 34  2  0  0  0  0
 35 36  1  0  0  0  0
 37 38  1  0  0  0  0
 37 35  1  0  0  0  0
 39 37  2  0  0  0  0
 40 39  1  0  0  0  0
 40 33  2  0  0  0  0
 41 42  1  0  0  0  0
 42 33  1  0  0  0  0
 42 44  2  0  0  0  0
 42 43  2  0  0  0  0
M  END
>  <minimizedAffinity>
-6.2284112

>  <minimizedRMSD>
0.579872251

$$$$
