
 OpenBabel03252505543D

 36 38  0  0  0  0  0  0  0  0999 V2000
   48.0370   30.1780   47.9240 C   0  0  0  0  0  0  0  0  0  0  0  0
   48.7860   29.6040   46.9300 C   0  0  0  0  0  0  0  0  0  0  0  0
   50.0550   29.2150   47.2220 C   0  0  0  0  0  0  0  0  0  0  0  0
   50.5840   29.3750   48.4340 N   0  0  0  0  0  0  0  0  0  0  0  0
   49.8460   29.9410   49.4200 C   0  0  0  0  0  0  0  0  0  0  0  0
   48.5800   30.3340   49.1460 N   0  0  0  0  0  0  0  0  0  0  0  0
   48.2360   29.5360   46.0020 H   0  0  0  0  0  0  0  0  0  0  0  0
   50.6020   28.7640   46.3830 H   0  0  0  0  0  0  0  0  0  0  0  0
   51.3030   31.1110   51.1130 C   0  0  0  0  0  0  0  0  0  0  0  0
   50.5220   30.0560   50.7050 C   0  0  0  0  0  0  0  0  0  0  0  0
   50.3910   29.0450   51.6190 C   0  0  0  0  0  0  0  0  0  0  0  0
   49.8040   28.1460   51.4370 H   0  0  0  0  0  0  0  0  0  0  0  0
   50.9750   29.0360   52.8640 C   0  0  0  0  0  0  0  0  0  0  0  0
   50.8590   28.2280   53.5720 H   0  0  0  0  0  0  0  0  0  0  0  0
   51.7550   30.0930   53.2690 C   0  0  0  0  0  0  0  0  0  0  0  0
   51.9020   31.1210   52.3680 C   0  0  0  0  0  0  0  0  0  0  0  0
   52.2300   33.4380   50.7360 H   0  0  0  0  0  0  0  0  0  0  0  0
   51.5430   32.4500   50.0280 S   0  0  0  0  0  0  0  0  0  0  0  0
   50.2940   33.1050   49.5700 O   0  0  0  0  0  0  0  0  0  0  0  0
   52.4840   32.0830   48.9090 O   0  0  0  0  0  0  0  0  0  0  0  0
   46.6490   30.6890   47.9330 C   0  0  0  0  0  0  0  0  0  0  0  0
   46.1090   30.2260   47.0820 H   0  0  0  0  0  0  0  0  0  0  0  0
   46.1160   30.3850   48.8580 H   0  0  0  0  0  0  0  0  0  0  0  0
   46.6730   32.0720   47.8930 O   0  0  0  0  0  0  0  0  0  0  0  0
   45.0460   34.4110   45.7760 C   0  0  0  0  0  0  0  0  0  0  0  0
   45.7120   34.2840   44.5640 C   0  0  0  0  0  0  0  0  0  0  0  0
   46.7670   33.3450   44.4920 C   0  0  0  0  0  0  0  0  0  0  0  0
   47.0640   32.6320   45.5970 N   0  0  0  0  0  0  0  0  0  0  0  0
   46.3850   32.7930   46.7500 C   0  0  0  0  0  0  0  0  0  0  0  0
   45.3850   33.6710   46.8470 N   0  0  0  0  0  0  0  0  0  0  0  0
   44.2280   35.1360   45.8380 H   0  0  0  0  0  0  0  0  0  0  0  0
   47.2760   33.2600   43.5410 H   0  0  0  0  0  0  0  0  0  0  0  0
   45.2830   35.1380   43.4120 C   0  0  0  0  0  0  0  0  0  0  0  0
   44.5850   36.1810   43.9870 F   0  0  0  0  0  0  0  0  0  0  0  0
   44.4210   34.3390   42.6470 F   0  0  0  0  0  0  0  0  0  0  0  0
   46.3730   35.5250   42.7030 F   0  0  0  0  0  0  0  0  0  0  0  0
  1 21  1  0  0  0  0
  1  6  1  0  0  0  0
  2  3  1  0  0  0  0
  2  1  2  0  0  0  0
  3  4  2  0  0  0  0
  4  5  1  0  0  0  0
  5 10  1  0  0  0  0
  6  5  2  0  0  0  0
  7  2  1  0  0  0  0
  8  3  1  0  0  0  0
  9 16  1  0  0  0  0
 10  9  2  0  0  0  0
 10 11  1  0  0  0  0
 11 13  2  0  0  0  0
 12 11  1  0  0  0  0
 13 15  1  0  0  0  0
 13 14  1  0  0  0  0
 16 15  2  0  0  0  0
 18 17  1  0  0  0  0
 18  9  1  0  0  0  0
 19 18  2  0  0  0  0
 20 18  2  0  0  0  0
 21 23  1  0  0  0  0
 22 21  1  0  0  0  0
 24 21  1  0  0  0  0
 25 31  1  0  0  0  0
 25 30  1  0  0  0  0
 26 25  2  0  0  0  0
 27 26  1  0  0  0  0
 27 28  2  0  0  0  0
 28 29  1  0  0  0  0
 29 30  2  0  0  0  0
 29 24  1  0  0  0  0
 32 27  1  0  0  0  0
 33 34  1  0  0  0  0
 33 26  1  0  0  0  0
 35 33  1  0  0  0  0
 36 33  1  0  0  0  0
M  END
>  <minimizedAffinity>
-5.34957933

>  <minimizedRMSD>
1.74256897

$$$$
