
 OpenBabel03242512263D

 23 24  0  0  0  0  0  0  0  0999 V2000
   38.8420   28.9110   42.2390 C   0  0  0  0  0  0  0  0  0  0  0  0
   37.6890   29.0940   41.5040 C   0  0  0  0  0  0  0  0  0  0  0  0
   36.5780   28.3380   41.8990 C   0  0  0  0  0  0  0  0  0  0  0  0
   35.6510   28.4640   41.3320 H   0  0  0  0  0  0  0  0  0  0  0  0
   36.5740   27.4600   42.9370 C   0  0  0  0  0  0  0  0  0  0  0  0
   35.7110   26.8950   43.2160 H   0  0  0  0  0  0  0  0  0  0  0  0
   37.7350   27.2880   43.6620 C   0  0  0  0  0  3  0  0  0  0  0  0
   38.8560   28.0100   43.3100 C   0  0  0  0  0  3  0  0  0  0  0  0
   37.2480   32.2030   39.6540 C   0  0  0  0  0  0  0  0  0  0  0  0
   37.4540   31.8280   38.3150 C   0  0  0  0  0  0  0  0  0  0  0  0
   37.7540   30.4630   38.0490 C   0  0  0  0  0  0  0  0  0  0  0  0
   37.8160   29.6270   39.1120 N   0  0  0  0  0  0  0  0  0  0  0  0
   37.6140   30.0220   40.3730 C   0  0  0  0  0  0  0  0  0  0  0  0
   37.3330   31.3020   40.6280 N   0  0  0  0  0  0  0  0  0  0  0  0
   36.9490   33.5600   39.9300 N   0  0  0  0  0  0  0  0  0  0  0  0
   37.3960   32.5240   37.4870 H   0  0  0  0  0  0  0  0  0  0  0  0
   37.9240   30.0990   37.0520 H   0  0  0  0  0  0  0  0  0  0  0  0
   36.8540   33.8720   40.9220 H   0  0  0  0  0  0  0  0  0  0  0  0
   36.8210   34.2660   39.1870 H   0  0  0  0  0  0  0  0  0  0  0  0
   40.4720   29.8930   40.4550 H   0  0  0  0  0  0  0  0  0  0  0  0
   40.2810   29.8180   41.8130 S   0  0  0  0  0  0  0  0  0  0  0  0
   40.3190   31.1610   42.4820 O   0  0  0  0  0  0  0  0  0  0  0  0
   41.4850   29.0600   42.3490 O   0  0  0  0  0  0  0  0  0  0  0  0
  1  8  1  0  0  0  0
  2  3  1  0  0  0  0
  2  1  2  0  0  0  0
  3  5  2  0  0  0  0
  4  3  1  0  0  0  0
  5  6  1  0  0  0  0
  5  7  1  0  0  0  0
  8  7  2  0  0  0  0
  9 15  1  0  0  0  0
  9 14  1  0  0  0  0
 10  9  2  0  0  0  0
 11 10  1  0  0  0  0
 11 12  2  0  0  0  0
 12 13  1  0  0  0  0
 13 14  2  0  0  0  0
 13  2  1  0  0  0  0
 15 18  1  0  0  0  0
 16 10  1  0  0  0  0
 17 11  1  0  0  0  0
 19 15  1  0  0  0  0
 20 21  1  0  0  0  0
 21  1  1  0  0  0  0
 21 23  2  0  0  0  0
 21 22  2  0  0  0  0
M  END
>  <minimizedAffinity>
-4.89252138

$$$$

 OpenBabel03242512263D

 23 24  0  0  0  0  0  0  0  0999 V2000
   37.8020   28.0570   41.0300 C   0  0  0  0  0  0  0  0  0  0  0  0
   37.8920   29.1370   41.8850 C   0  0  0  0  0  0  0  0  0  0  0  0
   37.4830   28.9150   43.2060 C   0  0  0  0  0  0  0  0  0  0  0  0
   37.5430   29.7560   43.9030 H   0  0  0  0  0  0  0  0  0  0  0  0
   37.0170   27.7290   43.6780 C   0  0  0  0  0  0  0  0  0  0  0  0
   36.7110   27.5870   44.6930 H   0  0  0  0  0  0  0  0  0  0  0  0
   36.9340   26.6580   42.8120 C   0  0  0  0  0  3  0  0  0  0  0  0
   37.3250   26.8280   41.5010 C   0  0  0  0  0  3  0  0  0  0  0  0
   37.8750   32.5060   40.4980 C   0  0  0  0  0  0  0  0  0  0  0  0
   39.2150   32.9200   40.6060 C   0  0  0  0  0  0  0  0  0  0  0  0
   40.1450   32.0070   41.1760 C   0  0  0  0  0  0  0  0  0  0  0  0
   39.6650   30.8040   41.5690 N   0  0  0  0  0  0  0  0  0  0  0  0
   38.3830   30.4470   41.4500 C   0  0  0  0  0  0  0  0  0  0  0  0
   37.5050   31.3000   40.9160 N   0  0  0  0  0  0  0  0  0  0  0  0
   36.9420   33.4090   39.9320 N   0  0  0  0  0  0  0  0  0  0  0  0
   39.5650   33.8930   40.2810 H   0  0  0  0  0  0  0  0  0  0  0  0
   41.1850   32.2490   41.2930 H   0  0  0  0  0  0  0  0  0  0  0  0
   35.9310   33.1460   39.8980 H   0  0  0  0  0  0  0  0  0  0  0  0
   37.2140   34.3270   39.5470 H   0  0  0  0  0  0  0  0  0  0  0  0
   39.2770   29.1910   39.2020 H   0  0  0  0  0  0  0  0  0  0  0  0
   38.2930   28.2460   39.3580 S   0  0  0  0  0  0  0  0  0  0  0  0
   38.6420   26.9320   38.7210 O   0  0  0  0  0  0  0  0  0  0  0  0
   37.0990   28.7740   38.5790 O   0  0  0  0  0  0  0  0  0  0  0  0
  1  8  2  0  0  0  0
  1  2  1  0  0  0  0
  2  3  2  0  0  0  0
  3  5  1  0  0  0  0
  3  4  1  0  0  0  0
  5  6  1  0  0  0  0
  7  5  2  0  0  0  0
  8  7  1  0  0  0  0
  9 10  2  0  0  0  0
  9 14  1  0  0  0  0
 10 11  1  0  0  0  0
 11 17  1  0  0  0  0
 11 12  2  0  0  0  0
 13 12  1  0  0  0  0
 13  2  1  0  0  0  0
 14 13  2  0  0  0  0
 15  9  1  0  0  0  0
 16 10  1  0  0  0  0
 18 15  1  0  0  0  0
 19 15  1  0  0  0  0
 20 21  1  0  0  0  0
 21  1  1  0  0  0  0
 22 21  2  0  0  0  0
 23 21  2  0  0  0  0
M  END
>  <minimizedAffinity>
-4.8511076

$$$$

 OpenBabel03242512263D

 23 24  0  0  0  0  0  0  0  0999 V2000
   38.3840   26.3960   41.9500 C   0  0  0  0  0  0  0  0  0  0  0  0
   37.4850   26.6520   40.9340 C   0  0  0  0  0  0  0  0  0  0  0  0
   36.7310   25.5600   40.4860 C   0  0  0  0  0  0  0  0  0  0  0  0
   36.0120   25.7370   39.6810 H   0  0  0  0  0  0  0  0  0  0  0  0
   36.8320   24.2990   40.9840 C   0  0  0  0  0  0  0  0  0  0  0  0
   36.2430   23.4830   40.6230 H   0  0  0  0  0  0  0  0  0  0  0  0
   37.7350   24.0590   41.9990 C   0  0  0  0  0  3  0  0  0  0  0  0
   38.5000   25.1030   42.4730 C   0  0  0  0  0  3  0  0  0  0  0  0
   36.4010   30.1100   40.5530 C   0  0  0  0  0  0  0  0  0  0  0  0
   36.9550   30.5010   39.3210 C   0  0  0  0  0  0  0  0  0  0  0  0
   37.7240   29.5410   38.6070 C   0  0  0  0  0  0  0  0  0  0  0  0
   37.8610   28.3180   39.1720 N   0  0  0  0  0  0  0  0  0  0  0  0
   37.3190   27.9840   40.3470 C   0  0  0  0  0  0  0  0  0  0  0  0
   36.5970   28.8820   41.0220 N   0  0  0  0  0  0  0  0  0  0  0  0
   35.6350   31.0600   41.2720 N   0  0  0  0  0  0  0  0  0  0  0  0
   36.8250   31.4900   38.8980 H   0  0  0  0  0  0  0  0  0  0  0  0
   38.1780   29.7640   37.6590 H   0  0  0  0  0  0  0  0  0  0  0  0
   35.2660   30.8100   42.2170 H   0  0  0  0  0  0  0  0  0  0  0  0
   35.4200   32.0000   40.9030 H   0  0  0  0  0  0  0  0  0  0  0  0
   39.9800   28.4240   41.5720 H   0  0  0  0  0  0  0  0  0  0  0  0
   39.3700   27.7070   42.5710 S   0  0  0  0  0  0  0  0  0  0  0  0
   38.6120   28.5750   43.5330 O   0  0  0  0  0  0  0  0  0  0  0  0
   40.5020   27.0940   43.3780 O   0  0  0  0  0  0  0  0  0  0  0  0
  1  8  1  0  0  0  0
  1 21  1  0  0  0  0
  2  1  2  0  0  0  0
  3  2  1  0  0  0  0
  3  5  2  0  0  0  0
  4  3  1  0  0  0  0
  5  7  1  0  0  0  0
  6  5  1  0  0  0  0
  7  8  2  0  0  0  0
  9 14  1  0  0  0  0
  9 15  1  0  0  0  0
 10  9  2  0  0  0  0
 11 12  2  0  0  0  0
 11 10  1  0  0  0  0
 12 13  1  0  0  0  0
 13  2  1  0  0  0  0
 13 14  2  0  0  0  0
 15 18  1  0  0  0  0
 16 10  1  0  0  0  0
 17 11  1  0  0  0  0
 19 15  1  0  0  0  0
 20 21  1  0  0  0  0
 21 23  2  0  0  0  0
 21 22  2  0  0  0  0
M  END
>  <minimizedAffinity>
-4.7241354

$$$$

 OpenBabel03242512263D

 23 24  0  0  0  0  0  0  0  0999 V2000
   37.3750   28.7890   41.0190 C   0  0  0  0  0  0  0  0  0  0  0  0
   38.2680   29.4530   41.8340 C   0  0  0  0  0  0  0  0  0  0  0  0
   38.3330   29.0190   43.1640 C   0  0  0  0  0  0  0  0  0  0  0  0
   39.0330   29.5300   43.8310 H   0  0  0  0  0  0  0  0  0  0  0  0
   37.5870   28.0060   43.6800 C   0  0  0  0  0  0  0  0  0  0  0  0
   37.6560   27.6950   44.7000 H   0  0  0  0  0  0  0  0  0  0  0  0
   36.6990   27.3520   42.8520 C   0  0  0  0  0  3  0  0  0  0  0  0
   36.5990   27.7440   41.5340 C   0  0  0  0  0  3  0  0  0  0  0  0
   39.3270   32.8450   41.0240 C   0  0  0  0  0  0  0  0  0  0  0  0
   40.6080   32.6730   40.4710 C   0  0  0  0  0  0  0  0  0  0  0  0
   41.1160   31.3480   40.3780 C   0  0  0  0  0  0  0  0  0  0  0  0
   40.3210   30.3500   40.8310 N   0  0  0  0  0  0  0  0  0  0  0  0
   39.1070   30.5540   41.3510 C   0  0  0  0  0  0  0  0  0  0  0  0
   38.6260   31.7960   41.4410 N   0  0  0  0  0  0  0  0  0  0  0  0
   38.8120   34.1610   41.1210 N   0  0  0  0  0  0  0  0  0  0  0  0
   41.2190   33.4960   40.1170 H   0  0  0  0  0  0  0  0  0  0  0  0
   42.0860   31.1360   39.9670 H   0  0  0  0  0  0  0  0  0  0  0  0
   37.8890   34.3170   41.5840 H   0  0  0  0  0  0  0  0  0  0  0  0
   39.3120   34.9850   40.7510 H   0  0  0  0  0  0  0  0  0  0  0  0
   38.4170   29.7180   38.8150 H   0  0  0  0  0  0  0  0  0  0  0  0
   37.2290   29.2690   39.3380 S   0  0  0  0  0  0  0  0  0  0  0  0
   36.5900   28.2000   38.5000 O   0  0  0  0  0  0  0  0  0  0  0  0
   36.2850   30.4580   39.2750 O   0  0  0  0  0  0  0  0  0  0  0  0
  1  8  2  0  0  0  0
  1  2  1  0  0  0  0
  2  3  2  0  0  0  0
  3  5  1  0  0  0  0
  3  4  1  0  0  0  0
  5  6  1  0  0  0  0
  7  5  2  0  0  0  0
  8  7  1  0  0  0  0
  9 15  1  0  0  0  0
  9 14  1  0  0  0  0
 10  9  2  0  0  0  0
 11 10  1  0  0  0  0
 11 12  2  0  0  0  0
 12 13  1  0  0  0  0
 13 14  2  0  0  0  0
 13  2  1  0  0  0  0
 15 18  1  0  0  0  0
 16 10  1  0  0  0  0
 17 11  1  0  0  0  0
 19 15  1  0  0  0  0
 20 21  1  0  0  0  0
 21  1  1  0  0  0  0
 22 21  2  0  0  0  0
 23 21  2  0  0  0  0
M  END
>  <minimizedAffinity>
-4.60348272

$$$$

 OpenBabel03242512263D

 23 24  0  0  0  0  0  0  0  0999 V2000
   38.9760   26.7340   42.4800 C   0  0  0  0  0  0  0  0  0  0  0  0
   39.3020   27.9510   41.9190 C   0  0  0  0  0  0  0  0  0  0  0  0
   40.5480   28.4830   42.2760 C   0  0  0  0  0  0  0  0  0  0  0  0
   40.8300   29.4480   41.8460 H   0  0  0  0  0  0  0  0  0  0  0  0
   41.4280   27.8810   43.1200 C   0  0  0  0  0  0  0  0  0  0  0  0
   42.3740   28.3090   43.3760 H   0  0  0  0  0  0  0  0  0  0  0  0
   41.0880   26.6630   43.6720 C   0  0  0  0  0  3  0  0  0  0  0  0
   39.8710   26.1000   43.3510 C   0  0  0  0  0  3  0  0  0  0  0  0
   36.6320   30.1430   40.7600 C   0  0  0  0  0  0  0  0  0  0  0  0
   36.6880   30.0280   39.3600 C   0  0  0  0  0  0  0  0  0  0  0  0
   37.6770   29.1700   38.8060 C   0  0  0  0  0  0  0  0  0  0  0  0
   38.4910   28.5250   39.6760 N   0  0  0  0  0  0  0  0  0  0  0  0
   38.4070   28.6610   41.0020 C   0  0  0  0  0  0  0  0  0  0  0  0
   37.4800   29.4670   41.5280 N   0  0  0  0  0  0  0  0  0  0  0  0
   35.6500   30.9960   41.3220 N   0  0  0  0  0  0  0  0  0  0  0  0
   36.0190   30.5590   38.6920 H   0  0  0  0  0  0  0  0  0  0  0  0
   37.7830   29.0290   37.7460 H   0  0  0  0  0  0  0  0  0  0  0  0
   35.6300   31.1430   42.3550 H   0  0  0  0  0  0  0  0  0  0  0  0
   34.9430   31.4860   40.7510 H   0  0  0  0  0  0  0  0  0  0  0  0
   36.9850   26.3510   40.8400 H   0  0  0  0  0  0  0  0  0  0  0  0
   37.4340   25.9960   42.0880 S   0  0  0  0  0  0  0  0  0  0  0  0
   37.4500   24.5100   42.3000 O   0  0  0  0  0  0  0  0  0  0  0  0
   36.3990   26.5370   43.0600 O   0  0  0  0  0  0  0  0  0  0  0  0
  1  8  1  0  0  0  0
  2  3  1  0  0  0  0
  2  1  2  0  0  0  0
  3  5  2  0  0  0  0
  4  3  1  0  0  0  0
  5  6  1  0  0  0  0
  5  7  1  0  0  0  0
  8  7  2  0  0  0  0
  9 15  1  0  0  0  0
  9 14  1  0  0  0  0
 10  9  2  0  0  0  0
 11 10  1  0  0  0  0
 11 12  2  0  0  0  0
 12 13  1  0  0  0  0
 13 14  2  0  0  0  0
 13  2  1  0  0  0  0
 15 18  1  0  0  0  0
 16 10  1  0  0  0  0
 17 11  1  0  0  0  0
 19 15  1  0  0  0  0
 20 21  1  0  0  0  0
 21 22  2  0  0  0  0
 21  1  1  0  0  0  0
 21 23  2  0  0  0  0
M  END
>  <minimizedAffinity>
-4.55531883

$$$$

 OpenBabel03242512263D

 23 24  0  0  0  0  0  0  0  0999 V2000
   37.0140   25.9360   39.7500 C   0  0  0  0  0  0  0  0  0  0  0  0
   37.2400   26.5760   40.9520 C   0  0  0  0  0  0  0  0  0  0  0  0
   37.1530   25.7820   42.1020 C   0  0  0  0  0  0  0  0  0  0  0  0
   37.3270   26.2660   43.0670 H   0  0  0  0  0  0  0  0  0  0  0  0
   36.8670   24.4530   42.0990 C   0  0  0  0  0  0  0  0  0  0  0  0
   36.8060   23.8690   42.9930 H   0  0  0  0  0  0  0  0  0  0  0  0
   36.6440   23.8270   40.8900 C   0  0  0  0  0  3  0  0  0  0  0  0
   36.7180   24.5680   39.7300 C   0  0  0  0  0  3  0  0  0  0  0  0
   36.7420   30.1760   41.2250 C   0  0  0  0  0  0  0  0  0  0  0  0
   38.0470   30.6970   41.1980 C   0  0  0  0  0  0  0  0  0  0  0  0
   39.1250   29.7770   41.0840 C   0  0  0  0  0  0  0  0  0  0  0  0
   38.8080   28.4630   41.0070 N   0  0  0  0  0  0  0  0  0  0  0  0
   37.5530   28.0050   41.0360 C   0  0  0  0  0  0  0  0  0  0  0  0
   36.5370   28.8650   41.1450 N   0  0  0  0  0  0  0  0  0  0  0  0
   35.6610   31.0850   41.3400 N   0  0  0  0  0  0  0  0  0  0  0  0
   38.2660   31.7580   41.2620 H   0  0  0  0  0  0  0  0  0  0  0  0
   40.1500   30.0980   41.0560 H   0  0  0  0  0  0  0  0  0  0  0  0
   34.6880   30.7150   41.4230 H   0  0  0  0  0  0  0  0  0  0  0  0
   35.7910   32.1090   41.3450 H   0  0  0  0  0  0  0  0  0  0  0  0
   36.4680   28.0700   38.3540 H   0  0  0  0  0  0  0  0  0  0  0  0
   37.1030   26.8560   38.2600 S   0  0  0  0  0  0  0  0  0  0  0  0
   38.5110   26.9730   37.7530 O   0  0  0  0  0  0  0  0  0  0  0  0
   36.3460   26.0850   37.1920 O   0  0  0  0  0  0  0  0  0  0  0  0
  1  2  1  0  0  0  0
  2 13  1  0  0  0  0
  2  3  2  0  0  0  0
  3  4  1  0  0  0  0
  5  3  1  0  0  0  0
  5  6  1  0  0  0  0
  7  5  2  0  0  0  0
  8  1  2  0  0  0  0
  8  7  1  0  0  0  0
  9 15  1  0  0  0  0
 10  9  1  0  0  0  0
 10 16  1  0  0  0  0
 11 10  2  0  0  0  0
 12 13  2  0  0  0  0
 12 11  1  0  0  0  0
 13 14  1  0  0  0  0
 14  9  2  0  0  0  0
 15 19  1  0  0  0  0
 15 18  1  0  0  0  0
 17 11  1  0  0  0  0
 21 20  1  0  0  0  0
 21  1  1  0  0  0  0
 22 21  2  0  0  0  0
 23 21  2  0  0  0  0
M  END
>  <minimizedAffinity>
-4.52223873

$$$$

 OpenBabel03242512263D

 23 24  0  0  0  0  0  0  0  0999 V2000
   38.7690   29.0400   42.3050 C   0  0  0  0  0  0  0  0  0  0  0  0
   37.6320   29.2310   41.5480 C   0  0  0  0  0  0  0  0  0  0  0  0
   36.5310   28.4300   41.8730 C   0  0  0  0  0  0  0  0  0  0  0  0
   35.6170   28.5610   41.2860 H   0  0  0  0  0  0  0  0  0  0  0  0
   36.5210   27.5020   42.8660 C   0  0  0  0  0  0  0  0  0  0  0  0
   35.6650   26.9020   43.0930 H   0  0  0  0  0  0  0  0  0  0  0  0
   37.6650   27.3230   43.6150 C   0  0  0  0  0  3  0  0  0  0  0  0
   38.7760   28.0880   43.3320 C   0  0  0  0  0  3  0  0  0  0  0  0
   37.8290   30.6310   38.1890 C   0  0  0  0  0  0  0  0  0  0  0  0
   37.4680   31.9790   38.3660 C   0  0  0  0  0  0  0  0  0  0  0  0
   37.1480   32.4100   39.6830 C   0  0  0  0  0  0  0  0  0  0  0  0
   37.2190   31.4850   40.6690 N   0  0  0  0  0  0  0  0  0  0  0  0
   37.5650   30.2110   40.4610 C   0  0  0  0  0  0  0  0  0  0  0  0
   37.8650   29.8010   39.2260 N   0  0  0  0  0  0  0  0  0  0  0  0
   38.1480   30.1920   36.8810 N   0  0  0  0  0  0  0  0  0  0  0  0
   37.4220   32.6940   37.5530 H   0  0  0  0  0  0  0  0  0  0  0  0
   36.8640   33.4240   39.8990 H   0  0  0  0  0  0  0  0  0  0  0  0
   38.3580   29.1820   36.7170 H   0  0  0  0  0  0  0  0  0  0  0  0
   38.1830   30.8300   36.0700 H   0  0  0  0  0  0  0  0  0  0  0  0
   40.4670   30.0820   40.6220 H   0  0  0  0  0  0  0  0  0  0  0  0
   40.1960   30.0020   41.9660 S   0  0  0  0  0  0  0  0  0  0  0  0
   40.1400   31.3470   42.6310 O   0  0  0  0  0  0  0  0  0  0  0  0
   41.3920   29.2920   42.5780 O   0  0  0  0  0  0  0  0  0  0  0  0
  1  8  1  0  0  0  0
  2  3  1  0  0  0  0
  2  1  2  0  0  0  0
  3  5  2  0  0  0  0
  4  3  1  0  0  0  0
  5  6  1  0  0  0  0
  5  7  1  0  0  0  0
  8  7  2  0  0  0  0
  9 10  2  0  0  0  0
  9 14  1  0  0  0  0
 10 11  1  0  0  0  0
 11 17  1  0  0  0  0
 11 12  2  0  0  0  0
 13 12  1  0  0  0  0
 13  2  1  0  0  0  0
 14 13  2  0  0  0  0
 15  9  1  0  0  0  0
 16 10  1  0  0  0  0
 18 15  1  0  0  0  0
 19 15  1  0  0  0  0
 20 21  1  0  0  0  0
 21  1  1  0  0  0  0
 21 23  2  0  0  0  0
 21 22  2  0  0  0  0
M  END
>  <minimizedAffinity>
-4.51440477

$$$$

 OpenBabel03242512263D

 23 24  0  0  0  0  0  0  0  0999 V2000
   37.7020   28.0730   40.9690 C   0  0  0  0  0  0  0  0  0  0  0  0
   37.7220   29.1580   41.8220 C   0  0  0  0  0  0  0  0  0  0  0  0
   37.3810   28.9020   43.1560 C   0  0  0  0  0  0  0  0  0  0  0  0
   37.3880   29.7460   43.8520 H   0  0  0  0  0  0  0  0  0  0  0  0
   37.0430   27.6780   43.6430 C   0  0  0  0  0  0  0  0  0  0  0  0
   36.7870   27.5110   44.6670 H   0  0  0  0  0  0  0  0  0  0  0  0
   37.0280   26.6040   42.7780 C   0  0  0  0  0  3  0  0  0  0  0  0
   37.3560   26.8070   41.4540 C   0  0  0  0  0  3  0  0  0  0  0  0
   39.7160   32.1480   41.2180 C   0  0  0  0  0  0  0  0  0  0  0  0
   38.8240   33.0190   40.5670 C   0  0  0  0  0  0  0  0  0  0  0  0
   37.5010   32.5560   40.3310 C   0  0  0  0  0  0  0  0  0  0  0  0
   37.2000   31.3060   40.7570 N   0  0  0  0  0  0  0  0  0  0  0  0
   38.0760   30.5070   41.3730 C   0  0  0  0  0  0  0  0  0  0  0  0
   39.3200   30.9360   41.5950 N   0  0  0  0  0  0  0  0  0  0  0  0
   41.0370   32.6000   41.4570 N   0  0  0  0  0  0  0  0  0  0  0  0
   39.0990   34.0150   40.2380 H   0  0  0  0  0  0  0  0  0  0  0  0
   36.7620   33.1620   39.8390 H   0  0  0  0  0  0  0  0  0  0  0  0
   41.7320   31.9470   41.8830 H   0  0  0  0  0  0  0  0  0  0  0  0
   41.3510   33.5550   41.2260 H   0  0  0  0  0  0  0  0  0  0  0  0
   37.5090   29.4110   38.7380 H   0  0  0  0  0  0  0  0  0  0  0  0
   38.1150   28.3040   39.2810 S   0  0  0  0  0  0  0  0  0  0  0  0
   39.5990   28.2840   39.0560 O   0  0  0  0  0  0  0  0  0  0  0  0
   37.5660   27.1200   38.5020 O   0  0  0  0  0  0  0  0  0  0  0  0
  1  8  2  0  0  0  0
  1  2  1  0  0  0  0
  2  3  2  0  0  0  0
  3  5  1  0  0  0  0
  3  4  1  0  0  0  0
  5  6  1  0  0  0  0
  7  5  2  0  0  0  0
  8  7  1  0  0  0  0
  9 15  1  0  0  0  0
  9 14  1  0  0  0  0
 10  9  2  0  0  0  0
 11 10  1  0  0  0  0
 11 12  2  0  0  0  0
 12 13  1  0  0  0  0
 13 14  2  0  0  0  0
 13  2  1  0  0  0  0
 15 18  1  0  0  0  0
 16 10  1  0  0  0  0
 17 11  1  0  0  0  0
 19 15  1  0  0  0  0
 20 21  1  0  0  0  0
 21  1  1  0  0  0  0
 22 21  2  0  0  0  0
 23 21  2  0  0  0  0
M  END
>  <minimizedAffinity>
-4.50442886

$$$$

 OpenBabel03242512263D

 23 24  0  0  0  0  0  0  0  0999 V2000
   37.5360   29.5460   41.4710 C   0  0  0  0  0  0  0  0  0  0  0  0
   36.5680   28.5760   41.3110 C   0  0  0  0  0  0  0  0  0  0  0  0
   36.4000   27.6870   42.3800 C   0  0  0  0  0  0  0  0  0  0  0  0
   35.6390   26.9090   42.2780 H   0  0  0  0  0  0  0  0  0  0  0  0
   37.1180   27.7270   43.5340 C   0  0  0  0  0  0  0  0  0  0  0  0
   36.9690   27.0350   44.3360 H   0  0  0  0  0  0  0  0  0  0  0  0
   38.0820   28.7030   43.6790 C   0  0  0  0  0  3  0  0  0  0  0  0
   38.2850   29.6010   42.6530 C   0  0  0  0  0  3  0  0  0  0  0  0
   35.4770   27.4810   38.0110 C   0  0  0  0  0  0  0  0  0  0  0  0
   34.2930   28.2060   37.7920 C   0  0  0  0  0  0  0  0  0  0  0  0
   33.8620   29.0950   38.8150 C   0  0  0  0  0  0  0  0  0  0  0  0
   34.6330   29.1760   39.9260 N   0  0  0  0  0  0  0  0  0  0  0  0
   35.7540   28.4690   40.0980 C   0  0  0  0  0  0  0  0  0  0  0  0
   36.1620   27.6320   39.1410 N   0  0  0  0  0  0  0  0  0  0  0  0
   35.9140   26.5920   36.9980 N   0  0  0  0  0  0  0  0  0  0  0  0
   33.6990   28.1170   36.8890 H   0  0  0  0  0  0  0  0  0  0  0  0
   32.9680   29.6840   38.7220 H   0  0  0  0  0  0  0  0  0  0  0  0
   36.7570   25.9990   37.1660 H   0  0  0  0  0  0  0  0  0  0  0  0
   35.4320   26.5010   36.0890 H   0  0  0  0  0  0  0  0  0  0  0  0
   37.7520   30.1230   38.9370 H   0  0  0  0  0  0  0  0  0  0  0  0
   37.8130   30.7000   40.1810 S   0  0  0  0  0  0  0  0  0  0  0  0
   36.9310   31.9080   40.3070 O   0  0  0  0  0  0  0  0  0  0  0  0
   39.2360   31.2170   40.3170 O   0  0  0  0  0  0  0  0  0  0  0  0
  1  8  1  0  0  0  0
  2  1  2  0  0  0  0
  2  3  1  0  0  0  0
  3  5  2  0  0  0  0
  4  3  1  0  0  0  0
  5  7  1  0  0  0  0
  5  6  1  0  0  0  0
  8  7  2  0  0  0  0
  9 14  1  0  0  0  0
 10  9  2  0  0  0  0
 10 11  1  0  0  0  0
 11 12  2  0  0  0  0
 12 13  1  0  0  0  0
 13  2  1  0  0  0  0
 14 13  2  0  0  0  0
 15 18  1  0  0  0  0
 15  9  1  0  0  0  0
 16 10  1  0  0  0  0
 17 11  1  0  0  0  0
 19 15  1  0  0  0  0
 20 21  1  0  0  0  0
 21 22  2  0  0  0  0
 21 23  2  0  0  0  0
 21  1  1  0  0  0  0
M  END
>  <minimizedAffinity>
-4.36166286

$$$$
