
 OpenBabel03242518433D

 22 23  0  0  0  0  0  0  0  0999 V2000
   46.4430   30.8200   46.4030 C   0  0  0  0  0  0  0  0  0  0  0  0
   46.7410   32.1560   46.5940 C   0  0  0  0  0  0  0  0  0  0  0  0
   47.3760   32.6210   47.7280 C   0  0  0  0  0  0  0  0  0  0  0  0
   47.6130   33.6820   47.8790 H   0  0  0  0  0  0  0  0  0  0  0  0
   47.7310   31.7050   48.7210 C   0  0  0  0  0  0  0  0  0  0  0  0
   48.2250   32.0460   49.6130 H   0  0  0  0  0  0  0  0  0  0  0  0
   47.4680   30.3560   48.6080 C   0  0  0  0  0  0  0  0  0  0  0  0
   46.8310   29.9710   47.4460 C   0  0  0  0  0  0  0  0  0  0  0  0
   45.0000   34.8210   44.7330 C   0  0  0  0  0  0  0  0  0  0  0  0
   45.8070   34.9410   43.5670 C   0  0  0  0  0  0  0  0  0  0  0  0
   46.9230   34.0970   43.4700 C   0  0  0  0  0  0  0  0  0  0  0  0
   47.1720   33.2270   44.4700 N   0  0  0  0  0  0  0  0  0  0  0  0
   46.3780   33.1450   45.5590 C   0  0  0  0  0  0  0  0  0  0  0  0
   45.3110   33.9360   45.6770 N   0  0  0  0  0  0  0  0  0  0  0  0
   45.6200   35.6350   42.7580 H   0  0  0  0  0  0  0  0  0  0  0  0
   47.5880   34.1230   42.6210 H   0  0  0  0  0  0  0  0  0  0  0  0
   43.9220   35.6420   44.8200 O   0  0  0  0  0  0  0  0  0  0  0  0
   43.9640   36.6350   44.9590 H   0  0  0  0  0  0  0  0  0  0  0  0
   44.8650   31.2500   44.4880 H   0  0  0  0  0  0  0  0  0  0  0  0
   45.6480   30.2370   44.9850 S   0  0  0  0  0  0  0  0  0  0  0  0
   44.6790   29.1480   45.4190 O   0  0  0  0  0  0  0  0  0  0  0  0
   46.5550   29.6250   43.9890 O   0  0  0  0  0  0  0  0  0  0  0  0
  1  2  2  0  0  0  0
  1  8  1  0  0  0  0
  2  3  1  0  0  0  0
  3  4  1  0  0  0  0
  3  5  2  0  0  0  0
  5  6  1  0  0  0  0
  7  5  1  0  0  0  0
  8  7  2  0  0  0  0
  9 17  1  0  0  0  0
  9 14  1  0  0  0  0
 10  9  2  0  0  0  0
 11 10  1  0  0  0  0
 11 12  2  0  0  0  0
 12 13  1  0  0  0  0
 13 14  2  0  0  0  0
 13  2  1  0  0  0  0
 15 10  1  0  0  0  0
 16 11  1  0  0  0  0
 17 18  1  0  0  0  0
 19 20  1  0  0  0  0
 20 21  2  0  0  0  0
 20  1  1  0  0  0  0
 22 20  2  0  0  0  0
M  END
>  <minimizedAffinity>
-4.61349344

>  <minimizedRMSD>
1.95166039

$$$$
