
 OpenBabel03242514073D

 46 49  0  0  1  0  0  0  0  0999 V2000
   37.8650   29.2950   41.4250 C   0  0  1  0  0  0  0  0  0  0  0  0
   38.6130   29.3590   42.7810 C   0  0  0  0  0  0  0  0  0  0  0  0
   38.5950   27.8970   43.2750 C   0  0  0  0  0  0  0  0  0  0  0  0
   37.1650   27.6700   43.6790 C   0  0  0  0  0  0  0  0  0  0  0  0
   36.2180   27.7990   42.5270 C   0  0  0  0  0  0  0  0  0  0  0  0
   36.5020   28.8430   41.5160 C   0  0  2  0  0  0  0  0  0  0  0  0
   38.5100   28.5190   40.9530 H   0  0  0  0  0  0  0  0  0  0  0  0
   39.6570   29.6190   42.5990 H   0  0  0  0  0  0  0  0  0  0  0  0
   38.0730   29.9430   43.5220 H   0  0  0  0  0  0  0  0  0  0  0  0
   38.9140   27.2180   42.4550 H   0  0  0  0  0  0  0  0  0  0  0  0
   39.2400   27.8060   44.1610 H   0  0  0  0  0  0  0  0  0  0  0  0
   37.0550   26.6990   44.1560 H   0  0  0  0  0  0  0  0  0  0  0  0
   36.9110   28.4300   44.4490 H   0  0  0  0  0  0  0  0  0  0  0  0
   35.2260   27.8740   43.0260 H   0  0  0  0  0  0  0  0  0  0  0  0
   36.2040   26.7790   42.0670 H   0  0  0  0  0  0  0  0  0  0  0  0
   35.7650   29.6690   41.7820 H   0  0  0  0  0  0  0  0  0  0  0  0
   39.3950   31.7540   39.1770 C   0  0  0  0  0  0  0  0  0  0  0  0
   38.4550   32.7660   39.2120 C   0  0  0  0  0  0  0  0  0  0  0  0
   37.2970   32.7230   39.9590 C   0  0  0  0  0  0  0  0  0  0  0  0
   37.1390   31.5500   40.6990 C   0  0  0  0  0  0  0  0  0  0  0  0
   38.0820   30.5140   40.6700 C   0  0  0  0  0  0  0  0  0  0  0  0
   39.1990   30.6280   39.9100 N   0  0  0  0  0  0  0  0  0  0  0  0
   38.6640   33.6370   38.6040 H   0  0  0  0  0  0  0  0  0  0  0  0
   36.5720   33.5230   39.9780 H   0  0  0  0  0  0  0  0  0  0  0  0
   36.2290   31.5380   41.2770 H   0  0  0  0  0  0  0  0  0  0  0  0
   42.3840   33.1400   37.6050 C   0  0  0  0  0  0  0  0  0  0  0  0
   42.9000   32.0930   36.8590 C   0  0  0  0  0  0  0  0  0  0  0  0
   42.1910   30.8980   36.9140 C   0  0  0  0  0  0  0  0  0  0  0  0
   41.0590   30.8320   37.6810 N   0  0  0  0  0  0  0  0  0  0  0  0
   40.6060   31.8980   38.3890 C   0  0  0  0  0  0  0  0  0  0  0  0
   41.2570   33.0340   38.3540 N   0  0  0  0  0  0  0  0  0  0  0  0
   42.9320   34.0790   37.5690 H   0  0  0  0  0  0  0  0  0  0  0  0
   43.7890   32.1640   36.2650 H   0  0  0  0  0  0  0  0  0  0  0  0
   42.5270   30.0240   36.3570 H   0  0  0  0  0  0  0  0  0  0  0  0
   36.6470   27.2340   39.6060 C   0  0  0  0  0  0  0  0  0  0  0  0
   36.0100   28.3430   40.2060 C   0  0  0  0  0  0  0  0  0  0  0  0
   34.9430   28.9010   39.5300 C   0  0  0  0  0  0  0  0  0  0  0  0
   34.3860   29.7380   39.8760 H   0  0  0  0  0  0  0  0  0  0  0  0
   34.4630   28.4530   38.3220 C   0  0  0  0  0  0  0  0  0  0  0  0
   33.6200   28.8940   37.7890 H   0  0  0  0  0  0  0  0  0  0  0  0
   35.0530   27.3710   37.6980 C   0  0  0  0  0  3  0  0  0  0  0  0
   36.1190   26.8130   38.3710 C   0  0  0  0  0  3  0  0  0  0  0  0
   38.7870   27.2010   41.0950 H   0  0  0  0  0  0  0  0  0  0  0  0
   38.0060   26.4070   40.2770 S   0  0  0  0  0  0  0  0  0  0  0  0
   37.7470   25.0750   40.8610 O   0  0  0  0  0  0  0  0  0  0  0  0
   38.9580   26.1050   39.1140 O   0  0  0  0  0  0  0  0  0  0  0  0
  1  7  1  6  0  0  0
  1  6  1  0  0  0  0
  1  2  1  0  0  0  0
  2  3  1  0  0  0  0
  2  9  1  0  0  0  0
  3  4  1  0  0  0  0
  3 11  1  0  0  0  0
  4 12  1  0  0  0  0
  4 13  1  0  0  0  0
  5 14  1  0  0  0  0
  5  4  1  0  0  0  0
  6 16  1  1  0  0  0
  6  5  1  0  0  0  0
  8  2  1  0  0  0  0
 10  3  1  0  0  0  0
 15  5  1  0  0  0  0
 17 18  2  0  0  0  0
 17 22  1  0  0  0  0
 18 19  1  0  0  0  0
 19 24  1  0  0  0  0
 19 20  2  0  0  0  0
 20 25  1  0  0  0  0
 21 20  1  0  0  0  0
 21  1  1  0  0  0  0
 22 21  2  0  0  0  0
 23 18  1  0  0  0  0
 26 31  1  0  0  0  0
 27 28  1  0  0  0  0
 27 26  2  0  0  0  0
 28 29  2  0  0  0  0
 29 30  1  0  0  0  0
 30 17  1  0  0  0  0
 31 30  2  0  0  0  0
 32 26  1  0  0  0  0
 33 27  1  0  0  0  0
 34 28  1  0  0  0  0
 35 36  1  0  0  0  0
 35 44  1  0  0  0  0
 36  6  1  0  0  0  0
 37 38  1  0  0  0  0
 37 36  2  0  0  0  0
 39 37  1  0  0  0  0
 40 39  1  0  0  0  0
 41 39  2  0  0  0  0
 41 42  1  0  0  0  0
 42 35  2  0  0  0  0
 44 45  2  0  0  0  0
 44 43  1  0  0  0  0
 46 44  2  0  0  0  0
M  END
>  <minimizedAffinity>
-6.30762243

$$$$

 OpenBabel03242514073D

 46 49  0  0  1  0  0  0  0  0999 V2000
   36.4300   29.2400   39.1950 C   0  0  1  0  0  0  0  0  0  0  0  0
   35.6380   29.2770   37.8640 C   0  0  0  0  0  0  0  0  0  0  0  0
   34.5840   28.1620   38.0360 C   0  0  0  0  0  0  0  0  0  0  0  0
   35.3820   26.8930   37.9290 C   0  0  0  0  0  0  0  0  0  0  0  0
   36.4010   26.7630   39.0190 C   0  0  0  0  0  0  0  0  0  0  0  0
   37.0990   27.9930   39.4570 C   0  0  2  0  0  0  0  0  0  0  0  0
   35.5570   29.3720   39.8740 H   0  0  0  0  0  0  0  0  0  0  0  0
   35.0930   30.2210   37.8000 H   0  0  0  0  0  0  0  0  0  0  0  0
   36.2510   28.9940   37.0110 H   0  0  0  0  0  0  0  0  0  0  0  0
   34.0860   28.2650   39.0240 H   0  0  0  0  0  0  0  0  0  0  0  0
   33.8670   28.2100   37.2050 H   0  0  0  0  0  0  0  0  0  0  0  0
   34.7210   26.0300   37.9220 H   0  0  0  0  0  0  0  0  0  0  0  0
   35.8970   26.9040   36.9450 H   0  0  0  0  0  0  0  0  0  0  0  0
   37.0590   25.9450   38.6500 H   0  0  0  0  0  0  0  0  0  0  0  0
   35.8410   26.2890   39.8640 H   0  0  0  0  0  0  0  0  0  0  0  0
   38.1160   27.9080   38.9530 H   0  0  0  0  0  0  0  0  0  0  0  0
   39.1640   31.6470   38.7780 C   0  0  0  0  0  0  0  0  0  0  0  0
   38.7130   32.6980   39.5530 C   0  0  0  0  0  0  0  0  0  0  0  0
   37.5270   32.6900   40.2540 C   0  0  0  0  0  0  0  0  0  0  0  0
   36.7930   31.5100   40.1220 C   0  0  0  0  0  0  0  0  0  0  0  0
   37.2370   30.4370   39.3370 C   0  0  0  0  0  0  0  0  0  0  0  0
   38.4170   30.5170   38.6740 N   0  0  0  0  0  0  0  0  0  0  0  0
   39.3500   33.5720   39.5940 H   0  0  0  0  0  0  0  0  0  0  0  0
   37.1870   33.5200   40.8570 H   0  0  0  0  0  0  0  0  0  0  0  0
   35.8700   31.5240   40.6800 H   0  0  0  0  0  0  0  0  0  0  0  0
   42.2180   30.7590   36.9860 C   0  0  0  0  0  0  0  0  0  0  0  0
   42.8900   31.9600   36.8310 C   0  0  0  0  0  0  0  0  0  0  0  0
   42.2620   33.0820   37.3600 C   0  0  0  0  0  0  0  0  0  0  0  0
   41.0520   32.9350   37.9830 N   0  0  0  0  0  0  0  0  0  0  0  0
   40.4460   31.7260   38.1010 C   0  0  0  0  0  0  0  0  0  0  0  0
   41.0180   30.6550   37.6100 N   0  0  0  0  0  0  0  0  0  0  0  0
   42.7000   29.8740   36.5750 H   0  0  0  0  0  0  0  0  0  0  0  0
   43.8380   32.0550   36.3400 H   0  0  0  0  0  0  0  0  0  0  0  0
   42.7230   34.0670   37.2820 H   0  0  0  0  0  0  0  0  0  0  0  0
   38.7540   27.6780   41.3060 C   0  0  0  0  0  0  0  0  0  0  0  0
   37.4100   27.8410   40.9020 C   0  0  0  0  0  0  0  0  0  0  0  0
   36.4510   27.8560   41.8940 C   0  0  0  0  0  0  0  0  0  0  0  0
   35.4080   27.9680   41.7170 H   0  0  0  0  0  0  0  0  0  0  0  0
   36.7120   27.7250   43.2380 C   0  0  0  0  0  0  0  0  0  0  0  0
   35.9540   27.7380   44.0200 H   0  0  0  0  0  0  0  0  0  0  0  0
   38.0110   27.5650   43.6790 C   0  0  0  0  0  3  0  0  0  0  0  0
   38.9710   27.5490   42.6900 C   0  0  0  0  0  3  0  0  0  0  0  0
   39.7400   27.3820   38.9100 H   0  0  0  0  0  0  0  0  0  0  0  0
   40.0990   27.6130   40.2230 S   0  0  0  0  0  0  0  0  0  0  0  0
   41.1070   28.6850   40.3560 O   0  0  0  0  0  0  0  0  0  0  0  0
   40.8850   26.3430   40.5710 O   0  0  0  0  0  0  0  0  0  0  0  0
  1 21  1  0  0  0  0
  1  6  1  0  0  0  0
  1  7  1  1  0  0  0
  2  3  1  0  0  0  0
  2  1  1  0  0  0  0
  3 10  1  0  0  0  0
  4  3  1  0  0  0  0
  4  5  1  0  0  0  0
  5  6  1  0  0  0  0
  5 15  1  0  0  0  0
  6 16  1  6  0  0  0
  6 36  1  0  0  0  0
  8  2  1  0  0  0  0
  9  2  1  0  0  0  0
 11  3  1  0  0  0  0
 12  4  1  0  0  0  0
 13  4  1  0  0  0  0
 14  5  1  0  0  0  0
 17 18  1  0  0  0  0
 18 23  1  0  0  0  0
 18 19  2  0  0  0  0
 19 24  1  0  0  0  0
 20 19  1  0  0  0  0
 20 25  1  0  0  0  0
 21 20  2  0  0  0  0
 22 17  2  0  0  0  0
 22 21  1  0  0  0  0
 26 31  1  0  0  0  0
 27 26  2  0  0  0  0
 27 28  1  0  0  0  0
 28 29  2  0  0  0  0
 29 30  1  0  0  0  0
 30 17  1  0  0  0  0
 31 30  2  0  0  0  0
 32 26  1  0  0  0  0
 33 27  1  0  0  0  0
 34 28  1  0  0  0  0
 35 42  1  0  0  0  0
 36 35  2  0  0  0  0
 36 37  1  0  0  0  0
 37 39  2  0  0  0  0
 38 37  1  0  0  0  0
 39 41  1  0  0  0  0
 39 40  1  0  0  0  0
 42 41  2  0  0  0  0
 43 44  1  0  0  0  0
 44 45  2  0  0  0  0
 44 46  2  0  0  0  0
 44 35  1  0  0  0  0
M  END
>  <minimizedAffinity>
-6.12432671

$$$$

 OpenBabel03242514073D

 46 49  0  0  1  0  0  0  0  0999 V2000
   36.8510   27.4750   39.8170 C   0  0  1  0  0  0  0  0  0  0  0  0
   36.3090   26.0750   39.4330 C   0  0  0  0  0  0  0  0  0  0  0  0
   36.1310   26.1630   37.9020 C   0  0  0  0  0  0  0  0  0  0  0  0
   34.9350   27.0560   37.7280 C   0  0  0  0  0  0  0  0  0  0  0  0
   35.1680   28.4350   38.2640 C   0  0  0  0  0  0  0  0  0  0  0  0
   35.9640   28.5650   39.5060 C   0  0  2  0  0  0  0  0  0  0  0  0
   37.7300   27.4710   39.1340 H   0  0  0  0  0  0  0  0  0  0  0  0
   37.0850   25.3300   39.6190 H   0  0  0  0  0  0  0  0  0  0  0  0
   35.3220   25.8860   39.8480 H   0  0  0  0  0  0  0  0  0  0  0  0
   37.0470   26.5900   37.4400 H   0  0  0  0  0  0  0  0  0  0  0  0
   35.8970   25.1640   37.5060 H   0  0  0  0  0  0  0  0  0  0  0  0
   34.6430   27.0990   36.6820 H   0  0  0  0  0  0  0  0  0  0  0  0
   34.0870   26.5890   38.2740 H   0  0  0  0  0  0  0  0  0  0  0  0
   34.1420   28.8630   38.3070 H   0  0  0  0  0  0  0  0  0  0  0  0
   35.6460   28.9830   37.4140 H   0  0  0  0  0  0  0  0  0  0  0  0
   35.1720   28.7500   40.3030 H   0  0  0  0  0  0  0  0  0  0  0  0
   39.2250   27.2320   42.6010 C   0  0  0  0  0  0  0  0  0  0  0  0
   38.3970   27.4840   43.6780 C   0  0  0  0  0  0  0  0  0  0  0  0
   37.0450   27.7300   43.5750 C   0  0  0  0  0  0  0  0  0  0  0  0
   36.5590   27.7070   42.2670 C   0  0  0  0  0  0  0  0  0  0  0  0
   37.3870   27.4570   41.1650 C   0  0  0  0  0  0  0  0  0  0  0  0
   38.7100   27.2220   41.3440 N   0  0  0  0  0  0  0  0  0  0  0  0
   38.8660   27.4830   44.6540 H   0  0  0  0  0  0  0  0  0  0  0  0
   36.4100   27.9250   44.4270 H   0  0  0  0  0  0  0  0  0  0  0  0
   35.4990   27.9000   42.2090 H   0  0  0  0  0  0  0  0  0  0  0  0
   42.8360   27.6060   42.9900 C   0  0  0  0  0  0  0  0  0  0  0  0
   43.2980   26.3160   43.1890 C   0  0  0  0  0  0  0  0  0  0  0  0
   42.3320   25.3150   43.1870 C   0  0  0  0  0  0  0  0  0  0  0  0
   41.0210   25.6570   42.9930 N   0  0  0  0  0  0  0  0  0  0  0  0
   40.6340   26.9460   42.8030 C   0  0  0  0  0  0  0  0  0  0  0  0
   41.5250   27.9050   42.8020 N   0  0  0  0  0  0  0  0  0  0  0  0
   43.5830   28.3970   42.9900 H   0  0  0  0  0  0  0  0  0  0  0  0
   44.3300   26.0670   43.3390 H   0  0  0  0  0  0  0  0  0  0  0  0
   42.6100   24.2710   43.3360 H   0  0  0  0  0  0  0  0  0  0  0  0
   37.7580   29.9960   38.5120 C   0  0  0  0  0  0  0  0  0  0  0  0
   36.6980   29.8550   39.4340 C   0  0  0  0  0  0  0  0  0  0  0  0
   36.3960   30.9470   40.2230 C   0  0  0  0  0  0  0  0  0  0  0  0
   35.6250   30.9630   40.9540 H   0  0  0  0  0  0  0  0  0  0  0  0
   37.0530   32.1540   40.1710 C   0  0  0  0  0  0  0  0  0  0  0  0
   36.8150   33.0160   40.7940 H   0  0  0  0  0  0  0  0  0  0  0  0
   38.0960   32.3390   39.2840 C   0  0  0  0  0  3  0  0  0  0  0  0
   38.3990   31.2500   38.4960 C   0  0  0  0  0  3  0  0  0  0  0  0
   38.3030   27.4930   38.0280 H   0  0  0  0  0  0  0  0  0  0  0  0
   38.3040   28.7480   37.4510 S   0  0  0  0  0  0  0  0  0  0  0  0
   37.7360   28.7450   36.0870 O   0  0  0  0  0  0  0  0  0  0  0  0
   39.7980   28.9930   37.2120 O   0  0  0  0  0  0  0  0  0  0  0  0
  1  7  1  6  0  0  0
  1 21  1  0  0  0  0
  2  8  1  0  0  0  0
  2  1  1  0  0  0  0
  2  9  1  0  0  0  0
  3  2  1  0  0  0  0
  4  3  1  0  0  0  0
  4  5  1  0  0  0  0
  4 13  1  0  0  0  0
  5 14  1  0  0  0  0
  5  6  1  0  0  0  0
  6  1  1  0  0  0  0
  6 16  1  1  0  0  0
 10  3  1  0  0  0  0
 11  3  1  0  0  0  0
 12  4  1  0  0  0  0
 15  5  1  0  0  0  0
 17 30  1  0  0  0  0
 17 18  1  0  0  0  0
 18 23  1  0  0  0  0
 19 18  2  0  0  0  0
 19 24  1  0  0  0  0
 20 19  1  0  0  0  0
 21 22  1  0  0  0  0
 21 20  2  0  0  0  0
 22 17  2  0  0  0  0
 25 20  1  0  0  0  0
 26 27  1  0  0  0  0
 27 33  1  0  0  0  0
 28 27  2  0  0  0  0
 28 34  1  0  0  0  0
 29 28  1  0  0  0  0
 30 29  2  0  0  0  0
 31 30  1  0  0  0  0
 31 26  2  0  0  0  0
 32 26  1  0  0  0  0
 35 36  1  0  0  0  0
 36  6  1  0  0  0  0
 36 37  2  0  0  0  0
 37 38  1  0  0  0  0
 39 37  1  0  0  0  0
 39 40  1  0  0  0  0
 41 39  2  0  0  0  0
 42 35  2  0  0  0  0
 42 41  1  0  0  0  0
 44 43  1  0  0  0  0
 44 35  1  0  0  0  0
 45 44  2  0  0  0  0
 46 44  2  0  0  0  0
M  END
>  <minimizedAffinity>
-5.97153616

$$$$

 OpenBabel03242514073D

 46 49  0  0  1  0  0  0  0  0999 V2000
   37.9240   30.3590   40.6650 C   0  0  1  0  0  0  0  0  0  0  0  0
   36.5640   30.7380   40.0270 C   0  0  0  0  0  0  0  0  0  0  0  0
   36.9500   31.7470   38.9230 C   0  0  0  0  0  0  0  0  0  0  0  0
   37.3310   32.9850   39.6840 C   0  0  0  0  0  0  0  0  0  0  0  0
   38.5180   32.7690   40.5720 C   0  0  0  0  0  0  0  0  0  0  0  0
   38.6320   31.4620   41.2600 C   0  0  2  0  0  0  0  0  0  0  0  0
   38.4240   30.0250   39.7280 H   0  0  0  0  0  0  0  0  0  0  0  0
   36.1500   29.8620   39.5240 H   0  0  0  0  0  0  0  0  0  0  0  0
   35.9170   31.2710   40.7200 H   0  0  0  0  0  0  0  0  0  0  0  0
   37.7930   31.3440   38.3230 H   0  0  0  0  0  0  0  0  0  0  0  0
   36.0670   31.9610   38.3040 H   0  0  0  0  0  0  0  0  0  0  0  0
   37.5150   33.8100   38.9990 H   0  0  0  0  0  0  0  0  0  0  0  0
   36.4580   33.2790   40.3050 H   0  0  0  0  0  0  0  0  0  0  0  0
   38.4970   33.6590   41.2390 H   0  0  0  0  0  0  0  0  0  0  0  0
   39.3970   32.9580   39.9080 H   0  0  0  0  0  0  0  0  0  0  0  0
   38.2990   31.6980   42.3230 H   0  0  0  0  0  0  0  0  0  0  0  0
   37.9100   26.8470   41.7170 C   0  0  0  0  0  0  0  0  0  0  0  0
   37.5750   26.9710   43.0520 C   0  0  0  0  0  0  0  0  0  0  0  0
   37.3250   28.1720   43.6790 C   0  0  0  0  0  0  0  0  0  0  0  0
   37.4380   29.2860   42.8450 C   0  0  0  0  0  0  0  0  0  0  0  0
   37.7810   29.1750   41.4920 C   0  0  0  0  0  0  0  0  0  0  0  0
   38.0130   27.9580   40.9430 N   0  0  0  0  0  0  0  0  0  0  0  0
   37.5120   26.0510   43.6190 H   0  0  0  0  0  0  0  0  0  0  0  0
   37.0620   28.2540   44.7240 H   0  0  0  0  0  0  0  0  0  0  0  0
   37.2360   30.2150   43.3560 H   0  0  0  0  0  0  0  0  0  0  0  0
   37.6990   23.2730   41.0010 C   0  0  0  0  0  0  0  0  0  0  0  0
   38.5860   23.0770   39.9560 C   0  0  0  0  0  0  0  0  0  0  0  0
   39.2560   24.2080   39.5040 C   0  0  0  0  0  0  0  0  0  0  0  0
   39.0060   25.4130   40.1040 N   0  0  0  0  0  0  0  0  0  0  0  0
   38.1210   25.5370   41.1280 C   0  0  0  0  0  0  0  0  0  0  0  0
   37.4780   24.4860   41.5700 N   0  0  0  0  0  0  0  0  0  0  0  0
   37.1690   22.3940   41.3620 H   0  0  0  0  0  0  0  0  0  0  0  0
   38.7690   22.1250   39.4980 H   0  0  0  0  0  0  0  0  0  0  0  0
   39.9730   24.1420   38.6850 H   0  0  0  0  0  0  0  0  0  0  0  0
   40.8410   30.8570   40.2540 C   0  0  0  0  0  0  0  0  0  0  0  0
   40.0800   31.1580   41.4050 C   0  0  0  0  0  0  0  0  0  0  0  0
   40.7410   31.1600   42.6170 C   0  0  0  0  0  0  0  0  0  0  0  0
   40.2770   31.3680   43.5510 H   0  0  0  0  0  0  0  0  0  0  0  0
   42.0790   30.8910   42.7780 C   0  0  0  0  0  0  0  0  0  0  0  0
   42.6010   30.8940   43.7350 H   0  0  0  0  0  0  0  0  0  0  0  0
   42.8640   30.5920   41.6810 C   0  0  0  0  0  3  0  0  0  0  0  0
   42.2060   30.5900   40.4700 C   0  0  0  0  0  3  0  0  0  0  0  0
   38.9030   30.3180   38.5950 H   0  0  0  0  0  0  0  0  0  0  0  0
   40.2030   30.7830   38.6510 S   0  0  0  0  0  0  0  0  0  0  0  0
   40.4160   31.9720   37.7990 O   0  0  0  0  0  0  0  0  0  0  0  0
   40.9740   29.6800   37.9180 O   0  0  0  0  0  0  0  0  0  0  0  0
  1  7  1  6  0  0  0
  1  6  1  0  0  0  0
  1 21  1  0  0  0  0
  2  1  1  0  0  0  0
  2  9  1  0  0  0  0
  3  4  1  0  0  0  0
  3  2  1  0  0  0  0
  4 13  1  0  0  0  0
  4  5  1  0  0  0  0
  5 14  1  0  0  0  0
  5  6  1  0  0  0  0
  6 36  1  0  0  0  0
  6 16  1  1  0  0  0
  8  2  1  0  0  0  0
 10  3  1  0  0  0  0
 11  3  1  0  0  0  0
 12  4  1  0  0  0  0
 15  5  1  0  0  0  0
 17 18  1  0  0  0  0
 18 23  1  0  0  0  0
 18 19  2  0  0  0  0
 19 24  1  0  0  0  0
 20 25  1  0  0  0  0
 20 19  1  0  0  0  0
 21 20  2  0  0  0  0
 22 21  1  0  0  0  0
 22 17  2  0  0  0  0
 26 32  1  0  0  0  0
 26 31  1  0  0  0  0
 27 26  2  0  0  0  0
 28 27  1  0  0  0  0
 28 29  2  0  0  0  0
 29 30  1  0  0  0  0
 30 31  2  0  0  0  0
 30 17  1  0  0  0  0
 33 27  1  0  0  0  0
 34 28  1  0  0  0  0
 35 42  2  0  0  0  0
 35 36  1  0  0  0  0
 36 37  2  0  0  0  0
 37 39  1  0  0  0  0
 37 38  1  0  0  0  0
 39 40  1  0  0  0  0
 41 39  2  0  0  0  0
 42 41  1  0  0  0  0
 43 44  1  0  0  0  0
 44 35  1  0  0  0  0
 45 44  2  0  0  0  0
 46 44  2  0  0  0  0
M  END
>  <minimizedAffinity>
-5.84972095

$$$$

 OpenBabel03242514073D

 46 49  0  0  1  0  0  0  0  0999 V2000
   36.9700   29.3770   39.0520 C   0  0  1  0  0  0  0  0  0  0  0  0
   36.8600   30.4300   37.9210 C   0  0  0  0  0  0  0  0  0  0  0  0
   37.7870   31.5710   38.3940 C   0  0  0  0  0  0  0  0  0  0  0  0
   37.0310   32.2020   39.5280 C   0  0  0  0  0  0  0  0  0  0  0  0
   36.8140   31.2560   40.6690 C   0  0  0  0  0  0  0  0  0  0  0  0
   36.5310   29.8400   40.3420 C   0  0  2  0  0  0  0  0  0  0  0  0
   38.0780   29.2680   39.0260 H   0  0  0  0  0  0  0  0  0  0  0  0
   37.3010   30.0210   37.0100 H   0  0  0  0  0  0  0  0  0  0  0  0
   35.8610   30.8540   37.8470 H   0  0  0  0  0  0  0  0  0  0  0  0
   38.7630   31.1520   38.7190 H   0  0  0  0  0  0  0  0  0  0  0  0
   37.9020   32.3040   37.5830 H   0  0  0  0  0  0  0  0  0  0  0  0
   37.5410   33.1000   39.8710 H   0  0  0  0  0  0  0  0  0  0  0  0
   36.0460   32.5310   39.1320 H   0  0  0  0  0  0  0  0  0  0  0  0
   36.0370   31.7710   41.2770 H   0  0  0  0  0  0  0  0  0  0  0  0
   37.7400   31.3550   41.2880 H   0  0  0  0  0  0  0  0  0  0  0  0
   35.4050   29.7580   40.4970 H   0  0  0  0  0  0  0  0  0  0  0  0
   36.5450   25.7650   38.5880 C   0  0  0  0  0  0  0  0  0  0  0  0
   35.3790   25.7290   37.8470 C   0  0  0  0  0  0  0  0  0  0  0  0
   34.6790   26.8470   37.4480 C   0  0  0  0  0  0  0  0  0  0  0  0
   35.2490   28.0530   37.8590 C   0  0  0  0  0  0  0  0  0  0  0  0
   36.4280   28.1060   38.6140 C   0  0  0  0  0  0  0  0  0  0  0  0
   37.0630   26.9620   38.9690 N   0  0  0  0  0  0  0  0  0  0  0  0
   35.0130   24.7470   37.5760 H   0  0  0  0  0  0  0  0  0  0  0  0
   33.7690   26.8030   36.8680 H   0  0  0  0  0  0  0  0  0  0  0  0
   34.6860   28.9160   37.5350 H   0  0  0  0  0  0  0  0  0  0  0  0
   38.5560   22.7250   38.3890 C   0  0  0  0  0  0  0  0  0  0  0  0
   38.5250   22.2060   39.6720 C   0  0  0  0  0  0  0  0  0  0  0  0
   37.7950   22.9310   40.6070 C   0  0  0  0  0  0  0  0  0  0  0  0
   37.1680   24.0830   40.2120 N   0  0  0  0  0  0  0  0  0  0  0  0
   37.2380   24.5380   38.9340 C   0  0  0  0  0  0  0  0  0  0  0  0
   37.9210   23.8720   38.0370 N   0  0  0  0  0  0  0  0  0  0  0  0
   39.1250   22.1650   37.6500 H   0  0  0  0  0  0  0  0  0  0  0  0
   39.0230   21.3020   39.9630 H   0  0  0  0  0  0  0  0  0  0  0  0
   37.7190   22.5930   41.6400 H   0  0  0  0  0  0  0  0  0  0  0  0
   38.4940   28.9840   41.6340 C   0  0  0  0  0  0  0  0  0  0  0  0
   37.0960   29.0070   41.4360 C   0  0  0  0  0  0  0  0  0  0  0  0
   36.3240   28.2460   42.2910 C   0  0  0  0  0  0  0  0  0  0  0  0
   35.2640   28.1790   42.2400 H   0  0  0  0  0  0  0  0  0  0  0  0
   36.8200   27.4740   43.3150 C   0  0  0  0  0  0  0  0  0  0  0  0
   36.2100   26.8750   43.9900 H   0  0  0  0  0  0  0  0  0  0  0  0
   38.1810   27.4220   43.5480 C   0  0  0  0  0  3  0  0  0  0  0  0
   38.9530   28.1800   42.6950 C   0  0  0  0  0  3  0  0  0  0  0  0
   39.0860   30.3830   39.5150 H   0  0  0  0  0  0  0  0  0  0  0  0
   39.6330   29.8470   40.6650 S   0  0  0  0  0  0  0  0  0  0  0  0
   40.5140   30.8000   41.3710 O   0  0  0  0  0  0  0  0  0  0  0  0
   40.6120   28.8100   40.1040 O   0  0  0  0  0  0  0  0  0  0  0  0
  1  7  1  1  0  0  0
  1  6  1  0  0  0  0
  2  3  1  0  0  0  0
  2  1  1  0  0  0  0
  3 10  1  0  0  0  0
  3  4  1  0  0  0  0
  4 12  1  0  0  0  0
  4  5  1  0  0  0  0
  5 14  1  0  0  0  0
  5 15  1  0  0  0  0
  6 16  1  1  0  0  0
  6  5  1  0  0  0  0
  6 36  1  0  0  0  0
  8  2  1  0  0  0  0
  9  2  1  0  0  0  0
 11  3  1  0  0  0  0
 13  4  1  0  0  0  0
 17 30  1  0  0  0  0
 17 22  1  0  0  0  0
 18 17  2  0  0  0  0
 19 18  1  0  0  0  0
 19 20  2  0  0  0  0
 20 21  1  0  0  0  0
 21 22  2  0  0  0  0
 21  1  1  0  0  0  0
 23 18  1  0  0  0  0
 24 19  1  0  0  0  0
 25 20  1  0  0  0  0
 26 27  1  0  0  0  0
 27 33  1  0  0  0  0
 27 28  2  0  0  0  0
 28 34  1  0  0  0  0
 29 28  1  0  0  0  0
 30 29  2  0  0  0  0
 31 26  2  0  0  0  0
 31 30  1  0  0  0  0
 32 26  1  0  0  0  0
 35 42  1  0  0  0  0
 36 35  2  0  0  0  0
 36 37  1  0  0  0  0
 37 39  2  0  0  0  0
 38 37  1  0  0  0  0
 39 41  1  0  0  0  0
 39 40  1  0  0  0  0
 42 41  2  0  0  0  0
 43 44  1  0  0  0  0
 44 45  2  0  0  0  0
 44 35  1  0  0  0  0
 46 44  2  0  0  0  0
M  END
>  <minimizedAffinity>
-5.80945015

$$$$

 OpenBabel03242514073D

 46 49  0  0  1  0  0  0  0  0999 V2000
   37.4710   29.8050   37.9140 C   0  0  1  0  0  0  0  0  0  0  0  0
   36.6390   28.6730   37.2610 C   0  0  0  0  0  0  0  0  0  0  0  0
   35.1880   29.1930   37.3450 C   0  0  0  0  0  0  0  0  0  0  0  0
   34.8470   29.0750   38.8040 C   0  0  0  0  0  0  0  0  0  0  0  0
   35.7160   29.9370   39.6670 C   0  0  0  0  0  0  0  0  0  0  0  0
   37.1420   30.0690   39.2900 C   0  0  2  0  0  0  0  0  0  0  0  0
   37.1150   30.6300   37.2560 H   0  0  0  0  0  0  0  0  0  0  0  0
   36.8920   28.6120   36.2000 H   0  0  0  0  0  0  0  0  0  0  0  0
   36.6710   27.7520   37.8380 H   0  0  0  0  0  0  0  0  0  0  0  0
   35.1430   30.2430   36.9850 H   0  0  0  0  0  0  0  0  0  0  0  0
   34.5300   28.5300   36.7650 H   0  0  0  0  0  0  0  0  0  0  0  0
   33.7970   29.3090   38.9680 H   0  0  0  0  0  0  0  0  0  0  0  0
   34.9820   28.0110   39.0940 H   0  0  0  0  0  0  0  0  0  0  0  0
   35.5270   29.5390   40.6890 H   0  0  0  0  0  0  0  0  0  0  0  0
   35.2020   30.9290   39.6720 H   0  0  0  0  0  0  0  0  0  0  0  0
   37.6700   29.3780   40.0250 H   0  0  0  0  0  0  0  0  0  0  0  0
   41.0300   30.5460   37.4420 C   0  0  0  0  0  0  0  0  0  0  0  0
   41.5220   29.2930   37.1270 C   0  0  0  0  0  0  0  0  0  0  0  0
   40.7480   28.1570   37.0370 C   0  0  0  0  0  0  0  0  0  0  0  0
   39.3920   28.3690   37.2950 C   0  0  0  0  0  0  0  0  0  0  0  0
   38.8800   29.6310   37.6180 C   0  0  0  0  0  0  0  0  0  0  0  0
   39.7040   30.7060   37.6880 N   0  0  0  0  0  0  0  0  0  0  0  0
   42.5870   29.2280   36.9450 H   0  0  0  0  0  0  0  0  0  0  0  0
   41.1460   27.1840   36.7890 H   0  0  0  0  0  0  0  0  0  0  0  0
   38.8040   27.4670   37.2170 H   0  0  0  0  0  0  0  0  0  0  0  0
   44.0120   32.6530   37.4230 C   0  0  0  0  0  0  0  0  0  0  0  0
   43.5250   33.9410   37.5660 C   0  0  0  0  0  0  0  0  0  0  0  0
   42.1440   34.0640   37.6660 C   0  0  0  0  0  0  0  0  0  0  0  0
   41.3710   32.9350   37.6200 N   0  0  0  0  0  0  0  0  0  0  0  0
   41.9130   31.6980   37.4790 C   0  0  0  0  0  0  0  0  0  0  0  0
   43.2110   31.5570   37.3810 N   0  0  0  0  0  0  0  0  0  0  0  0
   45.0910   32.5450   37.3430 H   0  0  0  0  0  0  0  0  0  0  0  0
   44.1470   34.8140   37.6000 H   0  0  0  0  0  0  0  0  0  0  0  0
   41.6780   35.0430   37.7820 H   0  0  0  0  0  0  0  0  0  0  0  0
   38.5870   31.5520   40.6940 C   0  0  0  0  0  0  0  0  0  0  0  0
   37.5900   31.4250   39.7010 C   0  0  0  0  0  0  0  0  0  0  0  0
   37.0870   32.5910   39.1580 C   0  0  0  0  0  0  0  0  0  0  0  0
   36.3340   32.6250   38.4090 H   0  0  0  0  0  0  0  0  0  0  0  0
   37.4890   33.8560   39.5140 C   0  0  0  0  0  0  0  0  0  0  0  0
   37.0920   34.7760   39.0850 H   0  0  0  0  0  0  0  0  0  0  0  0
   38.4620   34.0300   40.4790 C   0  0  0  0  0  3  0  0  0  0  0  0
   38.9650   32.8670   41.0230 C   0  0  0  0  0  3  0  0  0  0  0  0
   38.4230   29.3230   42.0370 H   0  0  0  0  0  0  0  0  0  0  0  0
   39.3290   30.2230   41.5100 S   0  0  0  0  0  0  0  0  0  0  0  0
   40.4460   29.5570   40.8080 O   0  0  0  0  0  0  0  0  0  0  0  0
   39.9910   30.7920   42.7700 O   0  0  0  0  0  0  0  0  0  0  0  0
  1  7  1  6  0  0  0
  1  6  1  0  0  0  0
  2  3  1  0  0  0  0
  2  9  1  0  0  0  0
  2  1  1  0  0  0  0
  3  4  1  0  0  0  0
  4 12  1  0  0  0  0
  4 13  1  0  0  0  0
  4  5  1  0  0  0  0
  5 15  1  0  0  0  0
  5 14  1  0  0  0  0
  6  5  1  0  0  0  0
  6 36  1  0  0  0  0
  6 16  1  1  0  0  0
  8  2  1  0  0  0  0
 10  3  1  0  0  0  0
 11  3  1  0  0  0  0
 17 30  1  0  0  0  0
 17 22  1  0  0  0  0
 18 17  2  0  0  0  0
 19 18  1  0  0  0  0
 19 20  2  0  0  0  0
 20 21  1  0  0  0  0
 21 22  2  0  0  0  0
 21  1  1  0  0  0  0
 23 18  1  0  0  0  0
 24 19  1  0  0  0  0
 25 20  1  0  0  0  0
 26 27  1  0  0  0  0
 27 33  1  0  0  0  0
 27 28  2  0  0  0  0
 28 34  1  0  0  0  0
 29 28  1  0  0  0  0
 30 29  2  0  0  0  0
 31 26  2  0  0  0  0
 31 30  1  0  0  0  0
 32 26  1  0  0  0  0
 35 42  1  0  0  0  0
 35 44  1  0  0  0  0
 36 35  2  0  0  0  0
 37 39  2  0  0  0  0
 37 36  1  0  0  0  0
 38 37  1  0  0  0  0
 39 41  1  0  0  0  0
 40 39  1  0  0  0  0
 41 42  2  0  0  0  0
 44 43  1  0  0  0  0
 44 46  2  0  0  0  0
 45 44  2  0  0  0  0
M  END
>  <minimizedAffinity>
-5.80750942

$$$$

 OpenBabel03242514073D

 46 49  0  0  1  0  0  0  0  0999 V2000
   40.3840   29.7320   41.1040 C   0  0  1  0  0  0  0  0  0  0  0  0
   41.6650   28.8790   41.2930 C   0  0  0  0  0  0  0  0  0  0  0  0
   42.8090   29.8730   40.9970 C   0  0  0  0  0  0  0  0  0  0  0  0
   42.7410   30.0700   39.5090 C   0  0  0  0  0  0  0  0  0  0  0  0
   41.4470   30.6840   39.0720 C   0  0  0  0  0  0  0  0  0  0  0  0
   40.2140   30.2690   39.7800 C   0  0  2  0  0  0  0  0  0  0  0  0
   40.6510   30.5360   41.8270 H   0  0  0  0  0  0  0  0  0  0  0  0
   41.7540   28.5980   42.3440 H   0  0  0  0  0  0  0  0  0  0  0  0
   41.7450   28.0860   40.5530 H   0  0  0  0  0  0  0  0  0  0  0  0
   42.6400   30.8180   41.5560 H   0  0  0  0  0  0  0  0  0  0  0  0
   43.7700   29.4060   41.2560 H   0  0  0  0  0  0  0  0  0  0  0  0
   43.5810   30.6690   39.1670 H   0  0  0  0  0  0  0  0  0  0  0  0
   42.8510   29.0710   39.0340 H   0  0  0  0  0  0  0  0  0  0  0  0
   41.4470   30.5120   37.9720 H   0  0  0  0  0  0  0  0  0  0  0  0
   41.6190   31.7850   39.1650 H   0  0  0  0  0  0  0  0  0  0  0  0
   39.7300   29.5390   39.0510 H   0  0  0  0  0  0  0  0  0  0  0  0
   37.6730   27.3050   41.5510 C   0  0  0  0  0  0  0  0  0  0  0  0
   37.1280   27.7330   42.7470 C   0  0  0  0  0  0  0  0  0  0  0  0
   37.5860   28.8180   43.4620 C   0  0  0  0  0  0  0  0  0  0  0  0
   38.6700   29.4720   42.8750 C   0  0  0  0  0  0  0  0  0  0  0  0
   39.2350   29.0470   41.6660 C   0  0  0  0  0  0  0  0  0  0  0  0
   38.7300   27.9690   41.0170 N   0  0  0  0  0  0  0  0  0  0  0  0
   36.2900   27.1610   43.1250 H   0  0  0  0  0  0  0  0  0  0  0  0
   37.1490   29.1430   44.3950 H   0  0  0  0  0  0  0  0  0  0  0  0
   39.0110   30.3200   43.4490 H   0  0  0  0  0  0  0  0  0  0  0  0
   36.1870   25.2010   38.9640 C   0  0  0  0  0  0  0  0  0  0  0  0
   36.0240   23.9670   39.5730 C   0  0  0  0  0  0  0  0  0  0  0  0
   36.4410   23.8800   40.8970 C   0  0  0  0  0  0  0  0  0  0  0  0
   36.9720   24.9890   41.5000 N   0  0  0  0  0  0  0  0  0  0  0  0
   37.1040   26.1710   40.8450 C   0  0  0  0  0  0  0  0  0  0  0  0
   36.7190   26.2770   39.5980 N   0  0  0  0  0  0  0  0  0  0  0  0
   35.8640   25.2790   37.9290 H   0  0  0  0  0  0  0  0  0  0  0  0
   35.6060   23.1100   39.0840 H   0  0  0  0  0  0  0  0  0  0  0  0
   36.3490   22.9460   41.4510 H   0  0  0  0  0  0  0  0  0  0  0  0
   38.0900   31.3600   39.0360 C   0  0  0  0  0  0  0  0  0  0  0  0
   39.2870   31.4300   39.7830 C   0  0  0  0  0  0  0  0  0  0  0  0
   39.5230   32.5910   40.4910 C   0  0  0  0  0  0  0  0  0  0  0  0
   40.3870   32.7650   41.0860 H   0  0  0  0  0  0  0  0  0  0  0  0
   38.6780   33.6760   40.5170 C   0  0  0  0  0  0  0  0  0  0  0  0
   38.8650   34.5920   41.0760 H   0  0  0  0  0  0  0  0  0  0  0  0
   37.4960   33.6530   39.8030 C   0  0  0  0  0  3  0  0  0  0  0  0
   37.2590   32.4940   39.0950 C   0  0  0  0  0  3  0  0  0  0  0  0
   38.6490   29.1240   37.8160 H   0  0  0  0  0  0  0  0  0  0  0  0
   37.6180   30.0080   38.0700 S   0  0  0  0  0  0  0  0  0  0  0  0
   36.3670   29.3240   38.4570 O   0  0  0  0  0  0  0  0  0  0  0  0
   37.3070   30.5510   36.6710 O   0  0  0  0  0  0  0  0  0  0  0  0
  1  2  1  0  0  0  0
  1 21  1  0  0  0  0
  1  7  1  1  0  0  0
  2  8  1  0  0  0  0
  3 11  1  0  0  0  0
  3  2  1  0  0  0  0
  3 10  1  0  0  0  0
  4  3  1  0  0  0  0
  5 15  1  0  0  0  0
  5  4  1  0  0  0  0
  5  6  1  0  0  0  0
  6 16  1  6  0  0  0
  6 36  1  0  0  0  0
  6  1  1  0  0  0  0
  9  2  1  0  0  0  0
 12  4  1  0  0  0  0
 13  4  1  0  0  0  0
 14  5  1  0  0  0  0
 17 18  1  0  0  0  0
 18 23  1  0  0  0  0
 18 19  2  0  0  0  0
 19 24  1  0  0  0  0
 20 25  1  0  0  0  0
 20 19  1  0  0  0  0
 21 20  2  0  0  0  0
 22 17  2  0  0  0  0
 22 21  1  0  0  0  0
 26 27  2  0  0  0  0
 26 31  1  0  0  0  0
 27 28  1  0  0  0  0
 28 34  1  0  0  0  0
 28 29  2  0  0  0  0
 30 29  1  0  0  0  0
 30 17  1  0  0  0  0
 31 30  2  0  0  0  0
 32 26  1  0  0  0  0
 33 27  1  0  0  0  0
 35 42  2  0  0  0  0
 35 36  1  0  0  0  0
 36 37  2  0  0  0  0
 37 39  1  0  0  0  0
 37 38  1  0  0  0  0
 39 40  1  0  0  0  0
 41 39  2  0  0  0  0
 42 41  1  0  0  0  0
 43 44  1  0  0  0  0
 44 45  2  0  0  0  0
 44 35  1  0  0  0  0
 46 44  2  0  0  0  0
M  END
>  <minimizedAffinity>
-5.7340374

$$$$

 OpenBabel03242514073D

 46 49  0  0  1  0  0  0  0  0999 V2000
   38.8960   27.2690   41.3750 C   0  0  1  0  0  0  0  0  0  0  0  0
   39.8780   26.2910   42.0690 C   0  0  0  0  0  0  0  0  0  0  0  0
   39.4210   24.9030   41.5700 C   0  0  0  0  0  0  0  0  0  0  0  0
   38.1270   24.6670   42.2970 C   0  0  0  0  0  0  0  0  0  0  0  0
   37.0780   25.6740   41.9400 C   0  0  0  0  0  0  0  0  0  0  0  0
   37.5130   27.0730   41.7230 C   0  0  2  0  0  0  0  0  0  0  0  0
   39.0930   26.9380   40.3300 H   0  0  0  0  0  0  0  0  0  0  0  0
   40.8820   26.4550   41.6730 H   0  0  0  0  0  0  0  0  0  0  0  0
   39.7590   26.2860   43.1500 H   0  0  0  0  0  0  0  0  0  0  0  0
   39.2880   24.9250   40.4680 H   0  0  0  0  0  0  0  0  0  0  0  0
   40.1550   24.1470   41.8830 H   0  0  0  0  0  0  0  0  0  0  0  0
   37.7660   23.6590   42.1090 H   0  0  0  0  0  0  0  0  0  0  0  0
   38.3390   24.7290   43.3860 H   0  0  0  0  0  0  0  0  0  0  0  0
   36.3110   25.5300   42.7340 H   0  0  0  0  0  0  0  0  0  0  0  0
   36.5910   25.2520   41.0250 H   0  0  0  0  0  0  0  0  0  0  0  0
   37.2080   27.5920   42.6890 H   0  0  0  0  0  0  0  0  0  0  0  0
   40.3770   30.4910   40.4430 C   0  0  0  0  0  0  0  0  0  0  0  0
   40.2500   31.1930   41.6260 C   0  0  0  0  0  0  0  0  0  0  0  0
   39.7010   30.6760   42.7790 C   0  0  0  0  0  0  0  0  0  0  0  0
   39.2700   29.3530   42.6620 C   0  0  0  0  0  0  0  0  0  0  0  0
   39.3880   28.6300   41.4680 C   0  0  0  0  0  0  0  0  0  0  0  0
   39.9400   29.2070   40.3720 N   0  0  0  0  0  0  0  0  0  0  0  0
   40.6120   32.2130   41.6200 H   0  0  0  0  0  0  0  0  0  0  0  0
   39.6100   31.2360   43.6980 H   0  0  0  0  0  0  0  0  0  0  0  0
   38.8450   28.9670   43.5760 H   0  0  0  0  0  0  0  0  0  0  0  0
   40.9180   32.3860   37.3700 C   0  0  0  0  0  0  0  0  0  0  0  0
   42.2660   32.2270   37.0980 C   0  0  0  0  0  0  0  0  0  0  0  0
   42.9830   31.4520   38.0020 C   0  0  0  0  0  0  0  0  0  0  0  0
   42.3300   30.9070   39.0750 N   0  0  0  0  0  0  0  0  0  0  0  0
   41.0020   31.1030   39.2840 C   0  0  0  0  0  0  0  0  0  0  0  0
   40.3060   31.8300   38.4470 N   0  0  0  0  0  0  0  0  0  0  0  0
   40.3470   32.9920   36.6690 H   0  0  0  0  0  0  0  0  0  0  0  0
   42.7600   32.6620   36.2520 H   0  0  0  0  0  0  0  0  0  0  0  0
   44.0500   31.2750   37.8630 H   0  0  0  0  0  0  0  0  0  0  0  0
   36.6740   27.2100   39.3700 C   0  0  0  0  0  0  0  0  0  0  0  0
   36.6100   27.6700   40.7040 C   0  0  0  0  0  0  0  0  0  0  0  0
   35.6890   28.6580   40.9880 C   0  0  0  0  0  0  0  0  0  0  0  0
   35.5490   29.0870   41.9510 H   0  0  0  0  0  0  0  0  0  0  0  0
   34.8370   29.2210   40.0680 C   0  0  0  0  0  0  0  0  0  0  0  0
   34.1100   30.0010   40.2920 H   0  0  0  0  0  0  0  0  0  0  0  0
   34.8630   28.8020   38.7510 C   0  0  0  0  0  3  0  0  0  0  0  0
   35.7820   27.8160   38.4650 C   0  0  0  0  0  3  0  0  0  0  0  0
   38.9500   25.9450   39.5170 H   0  0  0  0  0  0  0  0  0  0  0  0
   37.7670   25.9970   38.8060 S   0  0  0  0  0  0  0  0  0  0  0  0
   37.1960   24.6580   38.5560 O   0  0  0  0  0  0  0  0  0  0  0  0
   38.2440   26.4430   37.4180 O   0  0  0  0  0  0  0  0  0  0  0  0
  1  7  1  6  0  0  0
  1 21  1  0  0  0  0
  1  6  1  0  0  0  0
  1  2  1  0  0  0  0
  2  9  1  0  0  0  0
  3 11  1  0  0  0  0
  3  2  1  0  0  0  0
  3  4  1  0  0  0  0
  4 13  1  0  0  0  0
  5  4  1  0  0  0  0
  5 14  1  0  0  0  0
  6  5  1  0  0  0  0
  6 16  1  1  0  0  0
  8  2  1  0  0  0  0
 10  3  1  0  0  0  0
 12  4  1  0  0  0  0
 15  5  1  0  0  0  0
 17 18  1  0  0  0  0
 18 19  2  0  0  0  0
 19 24  1  0  0  0  0
 20 19  1  0  0  0  0
 20 25  1  0  0  0  0
 21 20  2  0  0  0  0
 22 17  2  0  0  0  0
 22 21  1  0  0  0  0
 23 18  1  0  0  0  0
 26 31  1  0  0  0  0
 27 26  2  0  0  0  0
 27 28  1  0  0  0  0
 28 29  2  0  0  0  0
 29 30  1  0  0  0  0
 30 17  1  0  0  0  0
 31 30  2  0  0  0  0
 32 26  1  0  0  0  0
 33 27  1  0  0  0  0
 34 28  1  0  0  0  0
 35 36  1  0  0  0  0
 36 37  2  0  0  0  0
 36  6  1  0  0  0  0
 37 38  1  0  0  0  0
 39 40  1  0  0  0  0
 39 37  1  0  0  0  0
 41 39  2  0  0  0  0
 42 41  1  0  0  0  0
 42 35  2  0  0  0  0
 44 35  1  0  0  0  0
 44 43  1  0  0  0  0
 45 44  2  0  0  0  0
 46 44  2  0  0  0  0
M  END
>  <minimizedAffinity>
-5.68267059

$$$$

 OpenBabel03242514073D

 46 49  0  0  1  0  0  0  0  0999 V2000
   37.1020   30.1020   40.2790 C   0  0  1  0  0  0  0  0  0  0  0  0
   37.6650   31.4780   40.7190 C   0  0  0  0  0  0  0  0  0  0  0  0
   36.9970   32.4710   39.7440 C   0  0  0  0  0  0  0  0  0  0  0  0
   37.6910   32.2160   38.4360 C   0  0  0  0  0  0  0  0  0  0  0  0
   37.4660   30.8240   37.9310 C   0  0  0  0  0  0  0  0  0  0  0  0
   37.4260   29.7290   38.9280 C   0  0  2  0  0  0  0  0  0  0  0  0
   36.0230   30.3630   40.3720 H   0  0  0  0  0  0  0  0  0  0  0  0
   37.2910   31.7130   41.7170 H   0  0  0  0  0  0  0  0  0  0  0  0
   38.7370   31.5570   40.5540 H   0  0  0  0  0  0  0  0  0  0  0  0
   35.9060   32.2690   39.6900 H   0  0  0  0  0  0  0  0  0  0  0  0
   37.2100   33.4990   40.0720 H   0  0  0  0  0  0  0  0  0  0  0  0
   37.3790   32.9450   37.6930 H   0  0  0  0  0  0  0  0  0  0  0  0
   38.7790   32.3760   38.5980 H   0  0  0  0  0  0  0  0  0  0  0  0
   38.2380   30.7190   37.1360 H   0  0  0  0  0  0  0  0  0  0  0  0
   36.5070   30.8910   37.3590 H   0  0  0  0  0  0  0  0  0  0  0  0
   38.4510   29.2440   38.8220 H   0  0  0  0  0  0  0  0  0  0  0  0
   38.9010   27.9300   42.6230 C   0  0  0  0  0  0  0  0  0  0  0  0
   37.8500   27.2760   43.2370 C   0  0  0  0  0  0  0  0  0  0  0  0
   36.5230   27.4820   42.9300 C   0  0  0  0  0  0  0  0  0  0  0  0
   36.3100   28.4270   41.9240 C   0  0  0  0  0  0  0  0  0  0  0  0
   37.3650   29.1010   41.2960 C   0  0  0  0  0  0  0  0  0  0  0  0
   38.6480   28.8450   41.6510 N   0  0  0  0  0  0  0  0  0  0  0  0
   38.1140   26.5610   44.0070 H   0  0  0  0  0  0  0  0  0  0  0  0
   35.7110   26.9620   43.4180 H   0  0  0  0  0  0  0  0  0  0  0  0
   35.2650   28.5710   41.6980 H   0  0  0  0  0  0  0  0  0  0  0  0
   42.4720   28.2370   43.3140 C   0  0  0  0  0  0  0  0  0  0  0  0
   42.8650   26.9600   43.6770 C   0  0  0  0  0  0  0  0  0  0  0  0
   41.8670   25.9920   43.6790 C   0  0  0  0  0  0  0  0  0  0  0  0
   40.5930   26.3510   43.3310 N   0  0  0  0  0  0  0  0  0  0  0  0
   40.2730   27.6250   42.9840 C   0  0  0  0  0  0  0  0  0  0  0  0
   41.1960   28.5540   42.9750 N   0  0  0  0  0  0  0  0  0  0  0  0
   43.2450   29.0020   43.3090 H   0  0  0  0  0  0  0  0  0  0  0  0
   43.8690   26.6980   43.9470 H   0  0  0  0  0  0  0  0  0  0  0  0
   42.0900   24.9610   43.9520 H   0  0  0  0  0  0  0  0  0  0  0  0
   36.9700   27.3800   38.1980 C   0  0  0  0  0  0  0  0  0  0  0  0
   36.4930   28.6920   38.4150 C   0  0  0  0  0  0  0  0  0  0  0  0
   35.1610   28.9330   38.1410 C   0  0  0  0  0  0  0  0  0  0  0  0
   34.6870   29.8780   38.2610 H   0  0  0  0  0  0  0  0  0  0  0  0
   34.2760   27.9910   37.6750 C   0  0  0  0  0  0  0  0  0  0  0  0
   33.2250   28.1820   37.4590 H   0  0  0  0  0  0  0  0  0  0  0  0
   34.6970   26.6940   37.4490 C   0  0  0  0  0  3  0  0  0  0  0  0
   36.0260   26.4510   37.7220 C   0  0  0  0  0  3  0  0  0  0  0  0
   39.5220   27.9000   38.3310 H   0  0  0  0  0  0  0  0  0  0  0  0
   38.6020   26.8780   38.4610 S   0  0  0  0  0  0  0  0  0  0  0  0
   38.8510   26.0380   39.6500 O   0  0  0  0  0  0  0  0  0  0  0  0
   38.9740   25.9570   37.2930 O   0  0  0  0  0  0  0  0  0  0  0  0
  1  7  1  1  0  0  0
  1  2  1  0  0  0  0
  1 21  1  0  0  0  0
  2  8  1  0  0  0  0
  3 11  1  0  0  0  0
  3  2  1  0  0  0  0
  4 13  1  0  0  0  0
  4  3  1  0  0  0  0
  5  4  1  0  0  0  0
  5  6  1  0  0  0  0
  6 16  1  1  0  0  0
  6  1  1  0  0  0  0
  9  2  1  0  0  0  0
 10  3  1  0  0  0  0
 12  4  1  0  0  0  0
 14  5  1  0  0  0  0
 15  5  1  0  0  0  0
 17 30  1  0  0  0  0
 17 18  1  0  0  0  0
 18 23  1  0  0  0  0
 19 18  2  0  0  0  0
 19 24  1  0  0  0  0
 20 19  1  0  0  0  0
 21 22  1  0  0  0  0
 21 20  2  0  0  0  0
 22 17  2  0  0  0  0
 25 20  1  0  0  0  0
 26 27  1  0  0  0  0
 27 28  2  0  0  0  0
 27 33  1  0  0  0  0
 28 34  1  0  0  0  0
 29 28  1  0  0  0  0
 30 29  2  0  0  0  0
 31 30  1  0  0  0  0
 31 26  2  0  0  0  0
 32 26  1  0  0  0  0
 35 36  1  0  0  0  0
 35 44  1  0  0  0  0
 36  6  1  0  0  0  0
 37 38  1  0  0  0  0
 37 36  2  0  0  0  0
 39 37  1  0  0  0  0
 40 39  1  0  0  0  0
 41 39  2  0  0  0  0
 41 42  1  0  0  0  0
 42 35  2  0  0  0  0
 43 44  1  0  0  0  0
 44 45  2  0  0  0  0
 46 44  2  0  0  0  0
M  END
>  <minimizedAffinity>
-5.67479801

$$$$
