
 OpenBabel03252504503D

 27 28  0  0  0  0  0  0  0  0999 V2000
   38.2900   29.7150   38.7640 C   0  0  0  0  0  0  0  0  0  0  0  0
   37.2460   30.6180   38.9440 C   0  0  0  0  0  0  0  0  0  0  0  0
   36.1210   30.1740   39.6410 C   0  0  0  0  0  0  0  0  0  0  0  0
   36.1180   28.8840   40.0990 N   0  0  0  0  0  0  0  0  0  0  0  0
   37.1440   28.0380   39.9070 C   0  0  0  0  0  0  0  0  0  0  0  0
   38.2310   28.4550   39.2390 N   0  0  0  0  0  0  0  0  0  0  0  0
   39.2210   29.9580   38.2310 H   0  0  0  0  0  0  0  0  0  0  0  0
   35.2790   30.8260   39.8140 H   0  0  0  0  0  0  0  0  0  0  0  0
   37.4110   26.3750   41.7370 C   0  0  0  0  0  0  0  0  0  0  0  0
   37.0170   26.6860   40.4470 C   0  0  0  0  0  0  0  0  0  0  0  0
   36.4860   25.7150   39.6230 C   0  0  0  0  0  0  0  0  0  0  0  0
   36.1540   25.8940   38.5900 H   0  0  0  0  0  0  0  0  0  0  0  0
   36.3240   24.3910   40.0430 C   0  0  0  0  0  0  0  0  0  0  0  0
   35.9100   23.6140   39.4130 H   0  0  0  0  0  0  0  0  0  0  0  0
   36.7240   24.1130   41.3310 C   0  0  0  0  0  3  0  0  0  0  0  0
   37.2590   25.0590   42.1820 C   0  0  0  0  0  3  0  0  0  0  0  0
   38.7570   28.5730   42.0850 H   0  0  0  0  0  0  0  0  0  0  0  0
   38.0830   27.6080   42.7810 S   0  0  0  0  0  0  0  0  0  0  0  0
   37.0170   28.2040   43.6680 O   0  0  0  0  0  0  0  0  0  0  0  0
   39.1150   26.9430   43.6790 O   0  0  0  0  0  0  0  0  0  0  0  0
   37.3640   31.9560   38.4190 C   0  0  0  0  0  0  0  0  0  0  0  0
   36.5240   32.1990   37.7500 H   0  0  0  0  0  0  0  0  0  0  0  0
   38.3550   32.0600   37.9060 H   0  0  0  0  0  0  0  0  0  0  0  0
   37.3780   32.9430   39.5680 C   0  0  0  0  0  0  0  0  0  0  0  0
   37.8470   32.5590   40.4720 H   0  0  0  0  0  0  0  0  0  0  0  0
   36.3190   33.2630   39.7270 H   0  0  0  0  0  0  0  0  0  0  0  0
   37.9000   33.8630   39.1780 H   0  0  0  0  0  0  0  0  0  0  0  0
  1  2  2  0  0  0  0
  1  6  1  0  0  0  0
  2  3  1  0  0  0  0
  3  8  1  0  0  0  0
  3  4  2  0  0  0  0
  5  4  1  0  0  0  0
  5 10  1  0  0  0  0
  6  5  2  0  0  0  0
  7  1  1  0  0  0  0
  9 16  1  0  0  0  0
  9 18  1  0  0  0  0
 10  9  2  0  0  0  0
 11 13  2  0  0  0  0
 11 10  1  0  0  0  0
 12 11  1  0  0  0  0
 13 15  1  0  0  0  0
 14 13  1  0  0  0  0
 15 16  2  0  0  0  0
 17 18  1  0  0  0  0
 18 19  2  0  0  0  0
 18 20  2  0  0  0  0
 21  2  1  0  0  0  0
 21 24  1  0  0  0  0
 22 21  1  0  0  0  0
 23 21  1  0  0  0  0
 24 26  1  0  0  0  0
 24 25  1  0  0  0  0
 27 24  1  0  0  0  0
M  END
>  <minimizedAffinity>
-4.60310602

$$$$

 OpenBabel03252504503D

 27 28  0  0  0  0  0  0  0  0999 V2000
   39.8690   27.9170   41.8390 C   0  0  0  0  0  0  0  0  0  0  0  0
   39.1790   27.5720   42.9980 C   0  0  0  0  0  0  0  0  0  0  0  0
   38.1880   28.4480   43.4450 C   0  0  0  0  0  0  0  0  0  0  0  0
   37.9600   29.5840   42.7180 N   0  0  0  0  0  0  0  0  0  0  0  0
   38.6450   29.8870   41.6020 C   0  0  0  0  0  0  0  0  0  0  0  0
   39.6000   29.0520   41.1630 N   0  0  0  0  0  0  0  0  0  0  0  0
   40.6670   27.3020   41.3990 H   0  0  0  0  0  0  0  0  0  0  0  0
   37.6170   28.2360   44.3370 H   0  0  0  0  0  0  0  0  0  0  0  0
   37.3170   31.1860   39.9490 C   0  0  0  0  0  0  0  0  0  0  0  0
   38.3060   31.1320   40.9160 C   0  0  0  0  0  0  0  0  0  0  0  0
   39.0090   32.2670   41.2640 C   0  0  0  0  0  0  0  0  0  0  0  0
   39.8060   32.2930   42.0210 H   0  0  0  0  0  0  0  0  0  0  0  0
   38.7630   33.5070   40.6660 C   0  0  0  0  0  0  0  0  0  0  0  0
   39.3020   34.4090   40.9240 H   0  0  0  0  0  0  0  0  0  0  0  0
   37.7720   33.5290   39.7090 C   0  0  0  0  0  3  0  0  0  0  0  0
   37.0500   32.4140   39.3360 C   0  0  0  0  0  3  0  0  0  0  0  0
   37.2190   28.6330   39.4620 H   0  0  0  0  0  0  0  0  0  0  0  0
   36.4250   29.7460   39.5090 S   0  0  0  0  0  0  0  0  0  0  0  0
   35.2400   29.5460   40.4230 O   0  0  0  0  0  0  0  0  0  0  0  0
   35.8950   29.9420   38.0980 O   0  0  0  0  0  0  0  0  0  0  0  0
   39.5030   26.3440   43.6800 C   0  0  0  0  0  0  0  0  0  0  0  0
   38.6260   25.9330   44.2040 H   0  0  0  0  0  0  0  0  0  0  0  0
   40.3620   26.5290   44.3770 H   0  0  0  0  0  0  0  0  0  0  0  0
   39.9920   25.3260   42.6690 C   0  0  0  0  0  0  0  0  0  0  0  0
   40.5330   25.7630   41.8320 H   0  0  0  0  0  0  0  0  0  0  0  0
   39.0980   24.7350   42.3530 H   0  0  0  0  0  0  0  0  0  0  0  0
   40.6270   24.5960   43.2490 H   0  0  0  0  0  0  0  0  0  0  0  0
  1  2  1  0  0  0  0
  2  3  2  0  0  0  0
  2 21  1  0  0  0  0
  3  8  1  0  0  0  0
  4  3  1  0  0  0  0
  5  4  2  0  0  0  0
  6  5  1  0  0  0  0
  6  1  2  0  0  0  0
  7  1  1  0  0  0  0
  9 10  1  0  0  0  0
 10 11  2  0  0  0  0
 10  5  1  0  0  0  0
 11 12  1  0  0  0  0
 13 14  1  0  0  0  0
 13 11  1  0  0  0  0
 15 13  2  0  0  0  0
 16 15  1  0  0  0  0
 16  9  2  0  0  0  0
 17 18  1  0  0  0  0
 18  9  1  0  0  0  0
 18 19  2  0  0  0  0
 20 18  2  0  0  0  0
 21 22  1  0  0  0  0
 21 23  1  0  0  0  0
 24 27  1  0  0  0  0
 24 21  1  0  0  0  0
 25 24  1  0  0  0  0
 26 24  1  0  0  0  0
M  END
>  <minimizedAffinity>
-4.55877399

$$$$

 OpenBabel03252504503D

 27 28  0  0  0  0  0  0  0  0999 V2000
   36.8470   27.2350   42.8210 C   0  0  0  0  0  0  0  0  0  0  0  0
   37.2060   26.2490   41.9070 C   0  0  0  0  0  0  0  0  0  0  0  0
   37.7930   26.6600   40.7090 C   0  0  0  0  0  0  0  0  0  0  0  0
   37.9770   28.0010   40.5130 N   0  0  0  0  0  0  0  0  0  0  0  0
   37.6190   28.9290   41.4170 C   0  0  0  0  0  0  0  0  0  0  0  0
   37.0540   28.5440   42.5720 N   0  0  0  0  0  0  0  0  0  0  0  0
   36.3790   27.0240   43.7930 H   0  0  0  0  0  0  0  0  0  0  0  0
   38.0950   25.9430   39.9600 H   0  0  0  0  0  0  0  0  0  0  0  0
   39.0390   30.9690   41.4600 C   0  0  0  0  0  0  0  0  0  0  0  0
   37.8700   30.3300   41.0860 C   0  0  0  0  0  0  0  0  0  0  0  0
   36.8940   31.0060   40.3830 C   0  0  0  0  0  0  0  0  0  0  0  0
   35.9440   30.5580   40.0570 H   0  0  0  0  0  0  0  0  0  0  0  0
   37.0360   32.3490   40.0190 C   0  0  0  0  0  0  0  0  0  0  0  0
   36.2830   32.8970   39.4670 H   0  0  0  0  0  0  0  0  0  0  0  0
   38.2100   32.9580   40.4040 C   0  0  0  0  0  3  0  0  0  0  0  0
   39.2060   32.3120   41.1080 C   0  0  0  0  0  3  0  0  0  0  0  0
   39.7610   29.3800   43.3870 H   0  0  0  0  0  0  0  0  0  0  0  0
   40.2760   30.1110   42.3520 S   0  0  0  0  0  0  0  0  0  0  0  0
   41.1110   29.2570   41.4290 O   0  0  0  0  0  0  0  0  0  0  0  0
   41.1930   31.1450   42.9850 O   0  0  0  0  0  0  0  0  0  0  0  0
   36.9680   24.8620   42.2250 C   0  0  0  0  0  0  0  0  0  0  0  0
   36.1530   24.7540   42.9580 H   0  0  0  0  0  0  0  0  0  0  0  0
   37.9230   24.4020   42.5880 H   0  0  0  0  0  0  0  0  0  0  0  0
   36.5920   24.1170   40.9610 C   0  0  0  0  0  0  0  0  0  0  0  0
   37.0770   24.5010   40.0640 H   0  0  0  0  0  0  0  0  0  0  0  0
   35.4770   24.1360   40.8980 H   0  0  0  0  0  0  0  0  0  0  0  0
   36.8510   23.0360   41.1520 H   0  0  0  0  0  0  0  0  0  0  0  0
  1  7  1  0  0  0  0
  2 21  1  0  0  0  0
  2  1  2  0  0  0  0
  3  2  1  0  0  0  0
  4  3  2  0  0  0  0
  4  5  1  0  0  0  0
  5  6  2  0  0  0  0
  6  1  1  0  0  0  0
  8  3  1  0  0  0  0
  9 18  1  0  0  0  0
 10  5  1  0  0  0  0
 10  9  2  0  0  0  0
 11 10  1  0  0  0  0
 12 11  1  0  0  0  0
 13 11  2  0  0  0  0
 13 15  1  0  0  0  0
 14 13  1  0  0  0  0
 15 16  2  0  0  0  0
 16  9  1  0  0  0  0
 18 20  2  0  0  0  0
 18 17  1  0  0  0  0
 19 18  2  0  0  0  0
 21 23  1  0  0  0  0
 21 22  1  0  0  0  0
 24 27  1  0  0  0  0
 24 21  1  0  0  0  0
 25 24  1  0  0  0  0
 26 24  1  0  0  0  0
M  END
>  <minimizedAffinity>
-4.54688597

$$$$

 OpenBabel03252504503D

 27 28  0  0  0  0  0  0  0  0999 V2000
   33.9750   29.1980   38.9130 C   0  0  0  0  0  0  0  0  0  0  0  0
   34.3520   28.3800   37.8510 C   0  0  0  0  0  0  0  0  0  0  0  0
   35.5160   27.6260   37.9980 C   0  0  0  0  0  0  0  0  0  0  0  0
   36.2100   27.7380   39.1720 N   0  0  0  0  0  0  0  0  0  0  0  0
   35.8180   28.5370   40.1790 C   0  0  0  0  0  0  0  0  0  0  0  0
   34.7000   29.2680   40.0480 N   0  0  0  0  0  0  0  0  0  0  0  0
   33.0780   29.8340   38.9050 H   0  0  0  0  0  0  0  0  0  0  0  0
   35.8610   26.9720   37.2100 H   0  0  0  0  0  0  0  0  0  0  0  0
   37.6230   29.5310   41.5710 C   0  0  0  0  0  0  0  0  0  0  0  0
   36.6470   28.5670   41.3820 C   0  0  0  0  0  0  0  0  0  0  0  0
   36.4280   27.5940   42.3350 C   0  0  0  0  0  0  0  0  0  0  0  0
   35.6720   26.8010   42.2470 H   0  0  0  0  0  0  0  0  0  0  0  0
   37.1690   27.5340   43.5200 C   0  0  0  0  0  0  0  0  0  0  0  0
   37.0130   26.7800   44.2800 H   0  0  0  0  0  0  0  0  0  0  0  0
   38.1310   28.5070   43.6800 C   0  0  0  0  0  3  0  0  0  0  0  0
   38.3770   29.4940   42.7470 C   0  0  0  0  0  3  0  0  0  0  0  0
   37.8600   30.2670   39.0880 H   0  0  0  0  0  0  0  0  0  0  0  0
   37.8990   30.7650   40.3610 S   0  0  0  0  0  0  0  0  0  0  0  0
   36.9400   31.9170   40.5370 O   0  0  0  0  0  0  0  0  0  0  0  0
   39.3090   31.3000   40.5590 O   0  0  0  0  0  0  0  0  0  0  0  0
   33.5380   28.3400   36.6610 C   0  0  0  0  0  0  0  0  0  0  0  0
   33.1550   27.3250   36.4720 H   0  0  0  0  0  0  0  0  0  0  0  0
   34.1350   28.7320   35.7970 H   0  0  0  0  0  0  0  0  0  0  0  0
   32.3650   29.2840   36.8270 C   0  0  0  0  0  0  0  0  0  0  0  0
   32.5900   30.1640   37.4270 H   0  0  0  0  0  0  0  0  0  0  0  0
   31.5210   28.6780   37.2390 H   0  0  0  0  0  0  0  0  0  0  0  0
   32.0380   29.5570   35.7820 H   0  0  0  0  0  0  0  0  0  0  0  0
  1  6  1  0  0  0  0
  2  3  1  0  0  0  0
  2  1  2  0  0  0  0
  3  4  2  0  0  0  0
  4  5  1  0  0  0  0
  5 10  1  0  0  0  0
  6  5  2  0  0  0  0
  7  1  1  0  0  0  0
  8  3  1  0  0  0  0
  9 16  1  0  0  0  0
 10  9  2  0  0  0  0
 10 11  1  0  0  0  0
 11 13  2  0  0  0  0
 12 11  1  0  0  0  0
 13 15  1  0  0  0  0
 13 14  1  0  0  0  0
 16 15  2  0  0  0  0
 17 18  1  0  0  0  0
 18 19  2  0  0  0  0
 18 20  2  0  0  0  0
 18  9  1  0  0  0  0
 21 24  1  0  0  0  0
 21  2  1  0  0  0  0
 22 21  1  0  0  0  0
 23 21  1  0  0  0  0
 24 26  1  0  0  0  0
 24 25  1  0  0  0  0
 27 24  1  0  0  0  0
M  END
>  <minimizedAffinity>
-4.53408718

$$$$

 OpenBabel03252504503D

 27 28  0  0  0  0  0  0  0  0999 V2000
   36.1180   30.6230   40.7210 C   0  0  0  0  0  0  0  0  0  0  0  0
   37.3130   31.1780   40.2730 C   0  0  0  0  0  0  0  0  0  0  0  0
   38.3660   30.3050   39.9940 C   0  0  0  0  0  0  0  0  0  0  0  0
   38.1550   28.9660   40.1780 N   0  0  0  0  0  0  0  0  0  0  0  0
   36.9860   28.4630   40.6110 C   0  0  0  0  0  0  0  0  0  0  0  0
   35.9680   29.2930   40.8830 N   0  0  0  0  0  0  0  0  0  0  0  0
   35.2260   31.2170   40.9700 H   0  0  0  0  0  0  0  0  0  0  0  0
   39.3180   30.6730   39.6430 H   0  0  0  0  0  0  0  0  0  0  0  0
   36.5240   26.1900   39.7150 C   0  0  0  0  0  0  0  0  0  0  0  0
   36.8890   27.0130   40.7660 C   0  0  0  0  0  0  0  0  0  0  0  0
   37.1740   26.4810   42.0070 C   0  0  0  0  0  0  0  0  0  0  0  0
   37.4690   27.0780   42.8830 H   0  0  0  0  0  0  0  0  0  0  0  0
   37.1090   25.1070   42.2600 C   0  0  0  0  0  0  0  0  0  0  0  0
   37.3290   24.6700   43.2250 H   0  0  0  0  0  0  0  0  0  0  0  0
   36.7440   24.3140   41.1950 C   0  0  0  0  0  3  0  0  0  0  0  0
   36.4520   24.8120   39.9410 C   0  0  0  0  0  3  0  0  0  0  0  0
   35.5120   28.0660   38.2250 H   0  0  0  0  0  0  0  0  0  0  0  0
   36.1630   26.8660   38.1420 S   0  0  0  0  0  0  0  0  0  0  0  0
   37.4110   26.9670   37.2990 O   0  0  0  0  0  0  0  0  0  0  0  0
   35.2040   25.9170   37.4390 O   0  0  0  0  0  0  0  0  0  0  0  0
   37.4180   32.6070   40.1130 C   0  0  0  0  0  0  0  0  0  0  0  0
   36.5590   33.1250   40.5650 H   0  0  0  0  0  0  0  0  0  0  0  0
   37.5260   32.8450   39.0220 H   0  0  0  0  0  0  0  0  0  0  0  0
   38.6900   33.0920   40.7780 C   0  0  0  0  0  0  0  0  0  0  0  0
   39.5080   32.3750   40.7380 H   0  0  0  0  0  0  0  0  0  0  0  0
   38.4140   33.3840   41.8210 H   0  0  0  0  0  0  0  0  0  0  0  0
   38.9540   34.0630   40.2690 H   0  0  0  0  0  0  0  0  0  0  0  0
  1  6  1  0  0  0  0
  1  7  1  0  0  0  0
  2  1  2  0  0  0  0
  3  4  2  0  0  0  0
  3  2  1  0  0  0  0
  4  5  1  0  0  0  0
  5 10  1  0  0  0  0
  5  6  2  0  0  0  0
  8  3  1  0  0  0  0
  9 16  2  0  0  0  0
  9 10  1  0  0  0  0
 10 11  2  0  0  0  0
 11 13  1  0  0  0  0
 11 12  1  0  0  0  0
 13 14  1  0  0  0  0
 15 13  2  0  0  0  0
 16 15  1  0  0  0  0
 18 17  1  0  0  0  0
 18  9  1  0  0  0  0
 19 18  2  0  0  0  0
 20 18  2  0  0  0  0
 21  2  1  0  0  0  0
 21 22  1  0  0  0  0
 21 24  1  0  0  0  0
 23 21  1  0  0  0  0
 24 26  1  0  0  0  0
 25 24  1  0  0  0  0
 27 24  1  0  0  0  0
M  END
>  <minimizedAffinity>
-4.37857819

$$$$

 OpenBabel03252504503D

 27 28  0  0  0  0  0  0  0  0999 V2000
   40.4380   31.6610   39.7050 C   0  0  0  0  0  0  0  0  0  0  0  0
   40.0080   32.9730   39.8750 C   0  0  0  0  0  0  0  0  0  0  0  0
   38.8850   33.1870   40.6760 C   0  0  0  0  0  0  0  0  0  0  0  0
   38.2830   32.0950   41.2400 N   0  0  0  0  0  0  0  0  0  0  0  0
   38.7250   30.8400   41.0550 C   0  0  0  0  0  0  0  0  0  0  0  0
   39.8030   30.6230   40.2870 N   0  0  0  0  0  0  0  0  0  0  0  0
   41.3090   31.3790   39.0960 H   0  0  0  0  0  0  0  0  0  0  0  0
   38.5030   34.1820   40.8470 H   0  0  0  0  0  0  0  0  0  0  0  0
   36.8650   29.1920   41.1460 C   0  0  0  0  0  0  0  0  0  0  0  0
   37.9920   29.7600   41.7140 C   0  0  0  0  0  0  0  0  0  0  0  0
   38.4620   29.3190   42.9340 C   0  0  0  0  0  0  0  0  0  0  0  0
   39.3490   29.7270   43.4390 H   0  0  0  0  0  0  0  0  0  0  0  0
   37.8320   28.2930   43.6460 C   0  0  0  0  0  0  0  0  0  0  0  0
   38.1830   27.9320   44.6030 H   0  0  0  0  0  0  0  0  0  0  0  0
   36.7130   27.7470   43.0550 C   0  0  0  0  0  3  0  0  0  0  0  0
   36.2160   28.1640   41.8370 C   0  0  0  0  0  3  0  0  0  0  0  0
   36.2380   31.1170   39.5140 H   0  0  0  0  0  0  0  0  0  0  0  0
   36.2710   29.7530   39.5990 S   0  0  0  0  0  0  0  0  0  0  0  0
   37.0600   29.1430   38.4650 O   0  0  0  0  0  0  0  0  0  0  0  0
   34.8290   29.2910   39.4610 O   0  0  0  0  0  0  0  0  0  0  0  0
   40.7270   34.0460   39.2330 C   0  0  0  0  0  0  0  0  0  0  0  0
   41.3580   34.5910   39.9510 H   0  0  0  0  0  0  0  0  0  0  0  0
   39.9930   34.7220   38.7210 H   0  0  0  0  0  0  0  0  0  0  0  0
   41.6070   33.4740   38.1410 C   0  0  0  0  0  0  0  0  0  0  0  0
   41.1890   32.5940   37.6550 H   0  0  0  0  0  0  0  0  0  0  0  0
   42.6070   33.2860   38.6030 H   0  0  0  0  0  0  0  0  0  0  0  0
   41.7820   34.3170   37.4120 H   0  0  0  0  0  0  0  0  0  0  0  0
  1  2  2  0  0  0  0
  1  6  1  0  0  0  0
  2  3  1  0  0  0  0
  3  8  1  0  0  0  0
  3  4  2  0  0  0  0
  5  4  1  0  0  0  0
  5 10  1  0  0  0  0
  6  5  2  0  0  0  0
  7  1  1  0  0  0  0
  9 10  2  0  0  0  0
  9 16  1  0  0  0  0
 10 11  1  0  0  0  0
 11 12  1  0  0  0  0
 11 13  2  0  0  0  0
 13 14  1  0  0  0  0
 15 13  1  0  0  0  0
 16 15  2  0  0  0  0
 17 18  1  0  0  0  0
 18  9  1  0  0  0  0
 19 18  2  0  0  0  0
 20 18  2  0  0  0  0
 21  2  1  0  0  0  0
 21 22  1  0  0  0  0
 23 21  1  0  0  0  0
 24 26  1  0  0  0  0
 24 21  1  0  0  0  0
 25 24  1  0  0  0  0
 27 24  1  0  0  0  0
M  END
>  <minimizedAffinity>
-4.3431778

$$$$

 OpenBabel03252504503D

 27 28  0  0  0  0  0  0  0  0999 V2000
   37.5620   27.8220   40.7620 C   0  0  0  0  0  0  0  0  0  0  0  0
   37.3280   27.5650   42.1090 C   0  0  0  0  0  0  0  0  0  0  0  0
   37.4500   28.6310   43.0010 C   0  0  0  0  0  0  0  0  0  0  0  0
   37.7910   29.8560   42.4940 N   0  0  0  0  0  0  0  0  0  0  0  0
   38.0100   30.0700   41.1850 C   0  0  0  0  0  0  0  0  0  0  0  0
   37.8960   29.0510   40.3190 N   0  0  0  0  0  0  0  0  0  0  0  0
   37.4940   27.0560   39.9740 H   0  0  0  0  0  0  0  0  0  0  0  0
   37.2810   28.4970   44.0590 H   0  0  0  0  0  0  0  0  0  0  0  0
   39.6670   31.8940   40.8570 C   0  0  0  0  0  0  0  0  0  0  0  0
   38.3680   31.4250   40.7710 C   0  0  0  0  0  0  0  0  0  0  0  0
   37.3600   32.2330   40.2880 C   0  0  0  0  0  0  0  0  0  0  0  0
   36.3090   31.9240   40.1950 H   0  0  0  0  0  0  0  0  0  0  0  0
   37.5970   33.5460   39.8680 C   0  0  0  0  0  0  0  0  0  0  0  0
   36.8210   34.1970   39.4850 H   0  0  0  0  0  0  0  0  0  0  0  0
   38.9000   33.9840   39.9640 C   0  0  0  0  0  3  0  0  0  0  0  0
   39.9310   33.2030   40.4420 C   0  0  0  0  0  3  0  0  0  0  0  0
   40.6730   29.5370   41.2990 H   0  0  0  0  0  0  0  0  0  0  0  0
   40.9440   30.8670   41.4700 S   0  0  0  0  0  0  0  0  0  0  0  0
   42.2760   31.2450   40.8680 O   0  0  0  0  0  0  0  0  0  0  0  0
   41.0340   31.0860   42.9720 O   0  0  0  0  0  0  0  0  0  0  0  0
   36.9700   26.2320   42.5280 C   0  0  0  0  0  0  0  0  0  0  0  0
   35.8940   26.1570   42.7470 H   0  0  0  0  0  0  0  0  0  0  0  0
   37.6010   25.9450   43.4090 H   0  0  0  0  0  0  0  0  0  0  0  0
   37.3160   25.2530   41.4250 C   0  0  0  0  0  0  0  0  0  0  0  0
   38.1930   25.5350   40.8450 H   0  0  0  0  0  0  0  0  0  0  0  0
   36.3960   25.1380   40.8000 H   0  0  0  0  0  0  0  0  0  0  0  0
   37.4460   24.2530   41.9300 H   0  0  0  0  0  0  0  0  0  0  0  0
  1  2  1  0  0  0  0
  2 21  1  0  0  0  0
  2  3  2  0  0  0  0
  3  8  1  0  0  0  0
  4  3  1  0  0  0  0
  5  4  2  0  0  0  0
  6  1  2  0  0  0  0
  6  5  1  0  0  0  0
  7  1  1  0  0  0  0
  9 18  1  0  0  0  0
 10  9  1  0  0  0  0
 10  5  1  0  0  0  0
 11 10  2  0  0  0  0
 12 11  1  0  0  0  0
 13 15  2  0  0  0  0
 13 11  1  0  0  0  0
 14 13  1  0  0  0  0
 15 16  1  0  0  0  0
 16  9  2  0  0  0  0
 17 18  1  0  0  0  0
 18 20  2  0  0  0  0
 19 18  2  0  0  0  0
 21 22  1  0  0  0  0
 21 23  1  0  0  0  0
 24 27  1  0  0  0  0
 24 21  1  0  0  0  0
 25 24  1  0  0  0  0
 26 24  1  0  0  0  0
M  END
>  <minimizedAffinity>
-4.34156895

$$$$

 OpenBabel03252504503D

 27 28  0  0  0  0  0  0  0  0999 V2000
   36.9660   28.4900   37.3160 C   0  0  0  0  0  0  0  0  0  0  0  0
   35.6810   28.9290   37.0090 C   0  0  0  0  0  0  0  0  0  0  0  0
   34.8270   29.2240   38.0730 C   0  0  0  0  0  0  0  0  0  0  0  0
   35.3070   29.0640   39.3440 N   0  0  0  0  0  0  0  0  0  0  0  0
   36.5550   28.6390   39.6060 C   0  0  0  0  0  0  0  0  0  0  0  0
   37.3840   28.3520   38.5900 N   0  0  0  0  0  0  0  0  0  0  0  0
   37.7190   28.2300   36.5580 H   0  0  0  0  0  0  0  0  0  0  0  0
   33.8180   29.5690   37.9000 H   0  0  0  0  0  0  0  0  0  0  0  0
   37.6640   29.4970   41.6590 C   0  0  0  0  0  0  0  0  0  0  0  0
   36.9460   28.5090   41.0080 C   0  0  0  0  0  0  0  0  0  0  0  0
   36.5740   27.3590   41.6730 C   0  0  0  0  0  0  0  0  0  0  0  0
   36.0050   26.5370   41.2150 H   0  0  0  0  0  0  0  0  0  0  0  0
   36.9000   27.1370   43.0150 C   0  0  0  0  0  0  0  0  0  0  0  0
   36.6190   26.2420   43.5540 H   0  0  0  0  0  0  0  0  0  0  0  0
   37.6150   28.1380   43.6350 C   0  0  0  0  0  3  0  0  0  0  0  0
   38.0030   29.3010   43.0010 C   0  0  0  0  0  3  0  0  0  0  0  0
   38.7150   30.6950   39.6040 H   0  0  0  0  0  0  0  0  0  0  0  0
   38.1350   30.9560   40.8150 S   0  0  0  0  0  0  0  0  0  0  0  0
   36.9650   31.9010   40.6800 O   0  0  0  0  0  0  0  0  0  0  0  0
   39.2000   31.6510   41.6480 O   0  0  0  0  0  0  0  0  0  0  0  0
   35.2860   29.0640   35.6280 C   0  0  0  0  0  0  0  0  0  0  0  0
   34.6800   29.9690   35.4720 H   0  0  0  0  0  0  0  0  0  0  0  0
   34.7450   28.1350   35.3110 H   0  0  0  0  0  0  0  0  0  0  0  0
   36.5260   29.1470   34.7610 C   0  0  0  0  0  0  0  0  0  0  0  0
   37.3670   28.5700   35.1400 H   0  0  0  0  0  0  0  0  0  0  0  0
   36.7590   30.2340   34.6410 H   0  0  0  0  0  0  0  0  0  0  0  0
   36.2070   28.8070   33.7340 H   0  0  0  0  0  0  0  0  0  0  0  0
  1  6  1  0  0  0  0
  2  1  2  0  0  0  0
  2  3  1  0  0  0  0
  3  4  2  0  0  0  0
  4  5  1  0  0  0  0
  5 10  1  0  0  0  0
  6  5  2  0  0  0  0
  7  1  1  0  0  0  0
  8  3  1  0  0  0  0
  9 16  1  0  0  0  0
 10  9  2  0  0  0  0
 10 11  1  0  0  0  0
 11 13  2  0  0  0  0
 12 11  1  0  0  0  0
 13 14  1  0  0  0  0
 13 15  1  0  0  0  0
 16 15  2  0  0  0  0
 17 18  1  0  0  0  0
 18 20  2  0  0  0  0
 18  9  1  0  0  0  0
 19 18  2  0  0  0  0
 21  2  1  0  0  0  0
 22 21  1  0  0  0  0
 23 21  1  0  0  0  0
 24 25  1  0  0  0  0
 24 21  1  0  0  0  0
 26 24  1  0  0  0  0
 27 24  1  0  0  0  0
M  END
>  <minimizedAffinity>
-4.33944273

$$$$

 OpenBabel03252504503D

 27 28  0  0  0  0  0  0  0  0999 V2000
   38.1770   29.7060   39.1790 C   0  0  0  0  0  0  0  0  0  0  0  0
   37.7180   30.8940   39.7400 C   0  0  0  0  0  0  0  0  0  0  0  0
   37.9180   31.0820   41.1090 C   0  0  0  0  0  0  0  0  0  0  0  0
   38.5490   30.0890   41.8070 N   0  0  0  0  0  0  0  0  0  0  0  0
   38.9810   28.9530   41.2340 C   0  0  0  0  0  0  0  0  0  0  0  0
   38.7930   28.7620   39.9180 N   0  0  0  0  0  0  0  0  0  0  0  0
   38.0730   29.4550   38.1130 H   0  0  0  0  0  0  0  0  0  0  0  0
   37.5850   31.9830   41.6030 H   0  0  0  0  0  0  0  0  0  0  0  0
   38.9520   26.9040   42.6420 C   0  0  0  0  0  0  0  0  0  0  0  0
   39.6410   27.9700   42.0900 C   0  0  0  0  0  0  0  0  0  0  0  0
   40.9870   28.1390   42.3380 C   0  0  0  0  0  0  0  0  0  0  0  0
   41.5920   28.9620   41.9330 H   0  0  0  0  0  0  0  0  0  0  0  0
   41.7110   27.2550   43.1460 C   0  0  0  0  0  0  0  0  0  0  0  0
   42.7670   27.3690   43.3520 H   0  0  0  0  0  0  0  0  0  0  0  0
   40.9980   26.2040   43.6790 C   0  0  0  0  0  3  0  0  0  0  0  0
   39.6520   26.0050   43.4520 C   0  0  0  0  0  3  0  0  0  0  0  0
   36.8480   27.2910   41.1620 H   0  0  0  0  0  0  0  0  0  0  0  0
   37.2440   26.6910   42.3260 S   0  0  0  0  0  0  0  0  0  0  0  0
   36.8680   25.2290   42.3540 O   0  0  0  0  0  0  0  0  0  0  0  0
   36.4770   27.3890   43.4380 O   0  0  0  0  0  0  0  0  0  0  0  0
   37.0700   31.8730   38.9030 C   0  0  0  0  0  0  0  0  0  0  0  0
   35.9930   31.6660   38.8060 H   0  0  0  0  0  0  0  0  0  0  0  0
   37.5850   31.9000   37.9070 H   0  0  0  0  0  0  0  0  0  0  0  0
   37.2520   33.2490   39.5100 C   0  0  0  0  0  0  0  0  0  0  0  0
   38.1940   33.3740   40.0400 H   0  0  0  0  0  0  0  0  0  0  0  0
   36.3580   33.4340   40.1550 H   0  0  0  0  0  0  0  0  0  0  0  0
   37.1460   33.9790   38.6570 H   0  0  0  0  0  0  0  0  0  0  0  0
  1  2  2  0  0  0  0
  1  6  1  0  0  0  0
  2  3  1  0  0  0  0
  3  8  1  0  0  0  0
  3  4  2  0  0  0  0
  5  4  1  0  0  0  0
  5 10  1  0  0  0  0
  6  5  2  0  0  0  0
  7  1  1  0  0  0  0
  9 16  1  0  0  0  0
 10 11  1  0  0  0  0
 10  9  2  0  0  0  0
 11 13  2  0  0  0  0
 12 11  1  0  0  0  0
 13 14  1  0  0  0  0
 13 15  1  0  0  0  0
 16 15  2  0  0  0  0
 17 18  1  0  0  0  0
 18 19  2  0  0  0  0
 18  9  1  0  0  0  0
 18 20  2  0  0  0  0
 21 24  1  0  0  0  0
 21  2  1  0  0  0  0
 22 21  1  0  0  0  0
 23 21  1  0  0  0  0
 24 25  1  0  0  0  0
 24 26  1  0  0  0  0
 27 24  1  0  0  0  0
M  END
>  <minimizedAffinity>
-4.32400942

$$$$
