
 OpenBabel03252506563D

 41 45  0  0  0  0  0  0  0  0999 V2000
   47.2350   31.3580   45.1680 C   0  0  0  0  0  0  0  0  0  0  0  0
   46.8710   32.6970   45.1420 C   0  0  0  0  0  0  0  0  0  0  0  0
   46.2560   33.3280   46.2000 C   0  0  0  0  0  0  0  0  0  0  0  0
   45.9760   32.6150   47.3620 C   0  0  0  0  0  0  0  0  0  0  0  0
   45.3990   32.8920   48.5650 N   0  0  0  0  0  0  0  0  0  0  0  0
   45.4090   31.7630   49.3080 C   0  0  0  0  0  0  0  0  0  0  0  0
   45.9890   30.7960   48.5600 N   0  0  0  0  0  0  0  0  0  0  0  0
   46.3440   31.2940   47.3650 C   0  0  0  0  0  0  0  0  0  0  0  0
   46.9590   30.6370   46.3220 C   0  0  0  0  0  0  0  0  0  0  0  0
   47.7210   30.8880   44.3110 H   0  0  0  0  0  0  0  0  0  0  0  0
   45.9660   34.3720   46.1960 H   0  0  0  0  0  0  0  0  0  0  0  0
   45.0560   33.8600   48.7410 H   0  0  0  0  0  0  0  0  0  0  0  0
   45.0030   31.7340   50.3080 H   0  0  0  0  0  0  0  0  0  0  0  0
   46.5340   35.1440   42.4220 C   0  0  0  0  0  0  0  0  0  0  0  0
   47.6900   34.9270   41.6710 C   0  0  0  0  0  0  0  0  0  0  0  0
   48.5790   33.9470   42.0940 C   0  0  0  0  0  0  0  0  0  0  0  0
   48.2910   33.2310   43.2300 N   0  0  0  0  0  0  0  0  0  0  0  0
   47.1530   33.4770   43.9310 C   0  0  0  0  0  0  0  0  0  0  0  0
   46.2710   34.4300   43.5350 N   0  0  0  0  0  0  0  0  0  0  0  0
   45.8630   35.9130   42.0670 H   0  0  0  0  0  0  0  0  0  0  0  0
   47.9510   35.4700   40.7710 H   0  0  0  0  0  0  0  0  0  0  0  0
   49.5000   33.6940   41.5930 H   0  0  0  0  0  0  0  0  0  0  0  0
   47.3080   29.2240   46.4360 C   0  0  0  0  0  0  0  0  0  0  0  0
   48.5930   28.7190   46.3520 C   0  0  0  0  0  0  0  0  0  0  0  0
   48.4520   27.3440   46.5130 C   0  0  0  0  0  0  0  0  0  0  0  0
   47.1100   27.0910   46.6830 C   0  0  0  0  0  0  0  0  0  0  0  0
   46.4790   28.2440   46.6280 O   0  0  0  0  0  0  0  0  0  0  0  0
   49.4860   29.2890   46.1970 H   0  0  0  0  0  0  0  0  0  0  0  0
   49.2650   26.6060   46.5050 H   0  0  0  0  0  0  0  0  0  0  0  0
   45.9470   25.1110   45.8120 C   0  0  0  0  0  0  0  0  0  0  0  0
   46.4900   25.7850   46.8880 C   0  0  0  0  0  0  0  0  0  0  0  0
   46.4550   25.2430   48.1560 C   0  0  0  0  0  0  0  0  0  0  0  0
   46.8840   25.7710   49.0180 H   0  0  0  0  0  0  0  0  0  0  0  0
   45.8880   24.0190   48.4200 C   0  0  0  0  0  0  0  0  0  0  0  0
   45.8460   23.5700   49.4030 H   0  0  0  0  0  0  0  0  0  0  0  0
   45.3380   23.3340   47.3320 C   0  0  0  0  0  3  0  0  0  0  0  0
   45.3770   23.8820   46.0750 C   0  0  0  0  0  3  0  0  0  0  0  0
   47.1660   26.3690   43.8820 H   0  0  0  0  0  0  0  0  0  0  0  0
   45.9780   25.7770   44.1940 S   0  0  0  0  0  0  0  0  0  0  0  0
   45.7560   24.6340   43.2200 O   0  0  0  0  0  0  0  0  0  0  0  0
   44.8010   26.7220   44.0060 O   0  0  0  0  0  0  0  0  0  0  0  0
  1  9  1  0  0  0  0
  2  1  2  0  0  0  0
  2  3  1  0  0  0  0
  3  4  2  0  0  0  0
  4  8  1  0  0  0  0
  4  5  1  0  0  0  0
  5 12  1  0  0  0  0
  5  6  1  0  0  0  0
  6 13  1  0  0  0  0
  7  6  2  0  0  0  0
  8  7  1  0  0  0  0
  9 23  1  0  0  0  0
  9  8  2  0  0  0  0
 10  1  1  0  0  0  0
 11  3  1  0  0  0  0
 14 19  1  0  0  0  0
 15 16  1  0  0  0  0
 15 14  2  0  0  0  0
 16 17  2  0  0  0  0
 17 18  1  0  0  0  0
 18  2  1  0  0  0  0
 19 18  2  0  0  0  0
 20 14  1  0  0  0  0
 21 15  1  0  0  0  0
 22 16  1  0  0  0  0
 23 27  1  0  0  0  0
 24 23  2  0  0  0  0
 24 25  1  0  0  0  0
 25 26  2  0  0  0  0
 26 31  1  0  0  0  0
 27 26  1  0  0  0  0
 28 24  1  0  0  0  0
 29 25  1  0  0  0  0
 30 37  2  0  0  0  0
 30 31  1  0  0  0  0
 31 32  2  0  0  0  0
 32 34  1  0  0  0  0
 32 33  1  0  0  0  0
 34 35  1  0  0  0  0
 36 34  2  0  0  0  0
 37 36  1  0  0  0  0
 38 39  1  0  0  0  0
 39 30  1  0  0  0  0
 40 39  2  0  0  0  0
 41 39  2  0  0  0  0
M  END
>  <minimizedAffinity>
-5.42032623

>  <minimizedRMSD>
1.04629779

$$$$
