
 OpenBabel03252509213D

 28 30  0  0  0  0  0  0  0  0999 V2000
   37.0500   31.2360   40.6920 C   0  0  0  0  0  0  0  0  0  0  0  0
   38.0030   30.4250   41.3680 C   0  0  0  0  0  0  0  0  0  0  0  0
   39.2410   31.0250   41.5920 C   0  0  0  0  0  0  0  0  0  0  0  0
   39.4960   32.3160   41.1750 N   0  0  0  0  0  0  0  0  0  0  0  0
   38.5520   33.0360   40.5400 C   0  0  0  0  0  0  0  0  0  0  0  0
   37.3280   32.4890   40.3010 N   0  0  0  0  0  0  0  0  0  0  0  0
   36.0840   30.8090   40.5010 H   0  0  0  0  0  0  0  0  0  0  0  0
   38.9060   34.0240   40.2810 H   0  0  0  0  0  0  0  0  0  0  0  0
   40.2550   30.2300   42.3840 C   0  0  0  0  0  0  0  0  0  0  0  0
   41.5030   29.9440   41.5450 C   0  0  0  0  0  0  0  0  0  0  0  0
   41.4720   30.9150   42.7650 C   0  0  0  0  0  0  0  0  0  0  0  0
   39.8700   29.2230   42.6990 H   0  0  0  0  0  0  0  0  0  0  0  0
   41.6600   30.4620   40.5970 H   0  0  0  0  0  0  0  0  0  0  0  0
   42.0690   29.0220   41.7070 H   0  0  0  0  0  0  0  0  0  0  0  0
   42.0260   30.5670   43.6600 H   0  0  0  0  0  0  0  0  0  0  0  0
   41.5380   31.9940   42.5530 H   0  0  0  0  0  0  0  0  0  0  0  0
   37.8270   27.9380   41.0490 C   0  0  0  0  0  0  0  0  0  0  0  0
   37.7180   29.0630   41.8010 C   0  0  0  0  0  0  0  0  0  0  0  0
   37.2960   28.9680   43.1300 C   0  0  0  0  0  0  0  0  0  0  0  0
   37.1880   29.8330   43.7880 H   0  0  0  0  0  0  0  0  0  0  0  0
   36.9910   27.7200   43.6720 C   0  0  0  0  0  0  0  0  0  0  0  0
   36.6640   27.6220   44.6960 H   0  0  0  0  0  0  0  0  0  0  0  0
   37.1260   26.6100   42.8410 C   0  0  0  0  0  3  0  0  0  0  0  0
   37.5410   26.6920   41.5310 C   0  0  0  0  0  3  0  0  0  0  0  0
   38.0900   29.4160   39.0030 H   0  0  0  0  0  0  0  0  0  0  0  0
   38.3540   28.1110   39.4060 S   0  0  0  0  0  0  0  0  0  0  0  0
   37.5770   27.2450   38.4550 O   0  0  0  0  0  0  0  0  0  0  0  0
   39.7990   27.8700   39.1980 O   0  0  0  0  0  0  0  0  0  0  0  0
  1  2  1  0  0  0  0
  2  3  2  0  0  0  0
  2 18  1  0  0  0  0
  3  9  1  0  0  0  0
  4  3  1  0  0  0  0
  5  4  2  0  0  0  0
  6  5  1  0  0  0  0
  6  1  2  0  0  0  0
  7  1  1  0  0  0  0
  8  5  1  0  0  0  0
  9 12  1  0  0  0  0
  9 11  1  0  0  0  0
 10 14  1  0  0  0  0
 10  9  1  0  0  0  0
 10 11  1  0  0  0  0
 11 15  1  0  0  0  0
 13 10  1  0  0  0  0
 16 11  1  0  0  0  0
 17 24  2  0  0  0  0
 17 18  1  0  0  0  0
 18 19  2  0  0  0  0
 19 21  1  0  0  0  0
 19 20  1  0  0  0  0
 21 22  1  0  0  0  0
 23 21  2  0  0  0  0
 24 23  1  0  0  0  0
 25 26  1  0  0  0  0
 26 17  1  0  0  0  0
 27 26  2  0  0  0  0
 28 26  2  0  0  0  0
M  END
>  <minimizedAffinity>
-4.47526932

$$$$

 OpenBabel03252509213D

 28 30  0  0  0  0  0  0  0  0999 V2000
   38.7780   31.8580   41.2760 C   0  0  0  0  0  0  0  0  0  0  0  0
   38.1280   30.6190   41.0250 C   0  0  0  0  0  0  0  0  0  0  0  0
   37.1960   30.6370   39.9870 C   0  0  0  0  0  0  0  0  0  0  0  0
   36.9440   31.7910   39.2720 N   0  0  0  0  0  0  0  0  0  0  0  0
   37.5930   32.9350   39.5570 C   0  0  0  0  0  0  0  0  0  0  0  0
   38.5110   32.9630   40.5620 N   0  0  0  0  0  0  0  0  0  0  0  0
   39.5020   31.8860   42.0680 H   0  0  0  0  0  0  0  0  0  0  0  0
   37.2850   33.7440   38.9090 H   0  0  0  0  0  0  0  0  0  0  0  0
   36.5450   29.3200   39.6290 C   0  0  0  0  0  0  0  0  0  0  0  0
   35.0700   29.3100   40.0370 C   0  0  0  0  0  0  0  0  0  0  0  0
   35.5690   29.3420   38.5600 C   0  0  0  0  0  0  0  0  0  0  0  0
   37.0080   28.4460   40.1600 H   0  0  0  0  0  0  0  0  0  0  0  0
   34.5750   30.2360   40.3360 H   0  0  0  0  0  0  0  0  0  0  0  0
   34.5940   28.3730   40.3410 H   0  0  0  0  0  0  0  0  0  0  0  0
   35.3870   28.4150   37.9800 H   0  0  0  0  0  0  0  0  0  0  0  0
   35.4410   30.2840   38.0040 H   0  0  0  0  0  0  0  0  0  0  0  0
   39.3930   28.5120   41.5490 C   0  0  0  0  0  0  0  0  0  0  0  0
   38.4050   29.4110   41.7900 C   0  0  0  0  0  0  0  0  0  0  0  0
   37.5340   29.2080   42.8650 C   0  0  0  0  0  0  0  0  0  0  0  0
   36.7190   29.8920   43.1130 H   0  0  0  0  0  0  0  0  0  0  0  0
   37.6890   28.0880   43.6800 C   0  0  0  0  0  0  0  0  0  0  0  0
   37.0280   27.9120   44.5160 H   0  0  0  0  0  0  0  0  0  0  0  0
   38.7250   27.2100   43.3720 C   0  0  0  0  0  3  0  0  0  0  0  0
   39.5890   27.3990   42.3170 C   0  0  0  0  0  3  0  0  0  0  0  0
   40.5520   30.1860   40.0350 H   0  0  0  0  0  0  0  0  0  0  0  0
   40.4460   28.8100   40.2040 S   0  0  0  0  0  0  0  0  0  0  0  0
   39.8830   28.3000   38.9050 O   0  0  0  0  0  0  0  0  0  0  0  0
   41.8170   28.2790   40.3700 O   0  0  0  0  0  0  0  0  0  0  0  0
  1  7  1  0  0  0  0
  2  1  1  0  0  0  0
  2 18  1  0  0  0  0
  3  2  2  0  0  0  0
  4  5  2  0  0  0  0
  4  3  1  0  0  0  0
  5  6  1  0  0  0  0
  6  1  2  0  0  0  0
  8  5  1  0  0  0  0
  9  3  1  0  0  0  0
  9 10  1  0  0  0  0
  9 12  1  0  0  0  0
 10 13  1  0  0  0  0
 10 14  1  0  0  0  0
 11  9  1  0  0  0  0
 11 10  1  0  0  0  0
 15 11  1  0  0  0  0
 16 11  1  0  0  0  0
 17 18  2  0  0  0  0
 17 24  1  0  0  0  0
 18 19  1  0  0  0  0
 19 20  1  0  0  0  0
 19 21  2  0  0  0  0
 21 22  1  0  0  0  0
 23 21  1  0  0  0  0
 24 23  2  0  0  0  0
 25 26  1  0  0  0  0
 26 28  2  0  0  0  0
 26 17  1  0  0  0  0
 27 26  2  0  0  0  0
M  END
>  <minimizedAffinity>
-4.46160316

$$$$

 OpenBabel03252509213D

 28 30  0  0  0  0  0  0  0  0999 V2000
   34.6920   29.2670   39.8930 C   0  0  0  0  0  0  0  0  0  0  0  0
   35.8500   28.4760   40.1260 C   0  0  0  0  0  0  0  0  0  0  0  0
   36.1480   27.5500   39.1260 C   0  0  0  0  0  0  0  0  0  0  0  0
   35.3560   27.4330   38.0010 N   0  0  0  0  0  0  0  0  0  0  0  0
   34.2710   28.2130   37.8360 C   0  0  0  0  0  0  0  0  0  0  0  0
   33.9430   29.1300   38.7880 N   0  0  0  0  0  0  0  0  0  0  0  0
   34.4290   29.9920   40.6410 H   0  0  0  0  0  0  0  0  0  0  0  0
   33.7600   28.0000   36.9070 H   0  0  0  0  0  0  0  0  0  0  0  0
   37.4190   26.7480   39.2920 C   0  0  0  0  0  0  0  0  0  0  0  0
   37.1050   25.2870   39.6230 C   0  0  0  0  0  0  0  0  0  0  0  0
   37.7120   25.7670   38.2680 C   0  0  0  0  0  0  0  0  0  0  0  0
   38.0580   27.1150   40.1380 H   0  0  0  0  0  0  0  0  0  0  0  0
   36.0870   24.9050   39.5170 H   0  0  0  0  0  0  0  0  0  0  0  0
   37.7880   24.7120   40.2540 H   0  0  0  0  0  0  0  0  0  0  0  0
   38.7660   25.4730   38.0930 H   0  0  0  0  0  0  0  0  0  0  0  0
   37.0560   25.7410   37.3840 H   0  0  0  0  0  0  0  0  0  0  0  0
   37.6780   29.5040   41.5090 C   0  0  0  0  0  0  0  0  0  0  0  0
   36.6740   28.6110   41.3190 C   0  0  0  0  0  0  0  0  0  0  0  0
   36.3530   27.7050   42.3350 C   0  0  0  0  0  0  0  0  0  0  0  0
   35.5580   26.9620   42.2460 H   0  0  0  0  0  0  0  0  0  0  0  0
   37.0670   27.7270   43.5330 C   0  0  0  0  0  0  0  0  0  0  0  0
   36.8360   27.0370   44.3310 H   0  0  0  0  0  0  0  0  0  0  0  0
   38.0830   28.6710   43.6560 C   0  0  0  0  0  3  0  0  0  0  0  0
   38.4070   29.5680   42.6630 C   0  0  0  0  0  3  0  0  0  0  0  0
   37.1300   30.3720   39.1900 H   0  0  0  0  0  0  0  0  0  0  0  0
   38.0360   30.6050   40.2190 S   0  0  0  0  0  0  0  0  0  0  0  0
   39.3890   30.3620   39.6090 O   0  0  0  0  0  0  0  0  0  0  0  0
   37.9280   32.0350   40.5860 O   0  0  0  0  0  0  0  0  0  0  0  0
  1  2  1  0  0  0  0
  1  7  1  0  0  0  0
  2 18  1  0  0  0  0
  3  9  1  0  0  0  0
  3  2  2  0  0  0  0
  4  3  1  0  0  0  0
  5  4  2  0  0  0  0
  5  6  1  0  0  0  0
  6  1  2  0  0  0  0
  8  5  1  0  0  0  0
  9 10  1  0  0  0  0
  9 12  1  0  0  0  0
 10 14  1  0  0  0  0
 11  9  1  0  0  0  0
 11 10  1  0  0  0  0
 13 10  1  0  0  0  0
 15 11  1  0  0  0  0
 16 11  1  0  0  0  0
 17 24  1  0  0  0  0
 18 17  2  0  0  0  0
 18 19  1  0  0  0  0
 19 21  2  0  0  0  0
 20 19  1  0  0  0  0
 21 23  1  0  0  0  0
 21 22  1  0  0  0  0
 24 23  2  0  0  0  0
 25 26  1  0  0  0  0
 26 28  2  0  0  0  0
 26 17  1  0  0  0  0
 27 26  2  0  0  0  0
M  END
>  <minimizedAffinity>
-4.45719624

$$$$

 OpenBabel03252509213D

 28 30  0  0  0  0  0  0  0  0999 V2000
   39.7550   29.9040   38.2460 C   0  0  0  0  0  0  0  0  0  0  0  0
   38.8710   30.5800   39.1310 C   0  0  0  0  0  0  0  0  0  0  0  0
   39.1850   31.9170   39.3770 C   0  0  0  0  0  0  0  0  0  0  0  0
   40.2820   32.5140   38.7900 N   0  0  0  0  0  0  0  0  0  0  0  0
   41.0820   31.8210   37.9580 C   0  0  0  0  0  0  0  0  0  0  0  0
   40.8130   30.5140   37.6890 N   0  0  0  0  0  0  0  0  0  0  0  0
   39.5480   28.8730   38.0310 H   0  0  0  0  0  0  0  0  0  0  0  0
   41.8930   32.4290   37.5810 H   0  0  0  0  0  0  0  0  0  0  0  0
   38.2220   32.6970   40.2440 C   0  0  0  0  0  0  0  0  0  0  0  0
   38.6540   34.1610   40.3610 C   0  0  0  0  0  0  0  0  0  0  0  0
   37.3920   33.6800   39.5790 C   0  0  0  0  0  0  0  0  0  0  0  0
   38.1760   32.3140   41.2980 H   0  0  0  0  0  0  0  0  0  0  0  0
   39.4300   34.5600   39.7050 H   0  0  0  0  0  0  0  0  0  0  0  0
   38.4410   34.7210   41.2760 H   0  0  0  0  0  0  0  0  0  0  0  0
   36.4210   33.9590   40.0350 H   0  0  0  0  0  0  0  0  0  0  0  0
   37.4330   33.7230   38.4800 H   0  0  0  0  0  0  0  0  0  0  0  0
   37.6870   29.3170   40.9520 C   0  0  0  0  0  0  0  0  0  0  0  0
   37.7180   29.9350   39.7440 C   0  0  0  0  0  0  0  0  0  0  0  0
   36.5580   29.9890   38.9650 C   0  0  0  0  0  0  0  0  0  0  0  0
   36.5160   30.4700   37.9850 H   0  0  0  0  0  0  0  0  0  0  0  0
   35.3810   29.4090   39.4350 C   0  0  0  0  0  0  0  0  0  0  0  0
   34.4730   29.4390   38.8510 H   0  0  0  0  0  0  0  0  0  0  0  0
   35.4240   28.7930   40.6830 C   0  0  0  0  0  3  0  0  0  0  0  0
   36.5600   28.7340   41.4590 C   0  0  0  0  0  3  0  0  0  0  0  0
   40.2230   29.3020   40.9920 H   0  0  0  0  0  0  0  0  0  0  0  0
   39.1510   29.2780   41.8780 S   0  0  0  0  0  0  0  0  0  0  0  0
   39.3140   27.9970   42.6500 O   0  0  0  0  0  0  0  0  0  0  0  0
   39.3200   30.4180   42.8060 O   0  0  0  0  0  0  0  0  0  0  0  0
  1  2  1  0  0  0  0
  2  3  2  0  0  0  0
  2 18  1  0  0  0  0
  3  9  1  0  0  0  0
  4  3  1  0  0  0  0
  5  4  2  0  0  0  0
  6  5  1  0  0  0  0
  6  1  2  0  0  0  0
  7  1  1  0  0  0  0
  8  5  1  0  0  0  0
  9 10  1  0  0  0  0
  9 12  1  0  0  0  0
 10 14  1  0  0  0  0
 11 15  1  0  0  0  0
 11  9  1  0  0  0  0
 11 10  1  0  0  0  0
 13 10  1  0  0  0  0
 16 11  1  0  0  0  0
 17 24  1  0  0  0  0
 17 26  1  0  0  0  0
 18 17  2  0  0  0  0
 19 21  2  0  0  0  0
 19 18  1  0  0  0  0
 20 19  1  0  0  0  0
 21 23  1  0  0  0  0
 22 21  1  0  0  0  0
 23 24  2  0  0  0  0
 25 26  1  0  0  0  0
 26 27  2  0  0  0  0
 26 28  2  0  0  0  0
M  END
>  <minimizedAffinity>
-4.45112371

$$$$

 OpenBabel03252509213D

 28 30  0  0  0  0  0  0  0  0999 V2000
   35.9680   27.3580   38.9370 C   0  0  0  0  0  0  0  0  0  0  0  0
   36.6650   26.9380   40.1030 C   0  0  0  0  0  0  0  0  0  0  0  0
   36.5690   27.7990   41.1950 C   0  0  0  0  0  0  0  0  0  0  0  0
   35.8430   28.9710   41.1210 N   0  0  0  0  0  0  0  0  0  0  0  0
   35.2020   29.3150   39.9880 C   0  0  0  0  0  0  0  0  0  0  0  0
   35.2690   28.5030   38.8970 N   0  0  0  0  0  0  0  0  0  0  0  0
   36.0180   26.7220   38.0740 H   0  0  0  0  0  0  0  0  0  0  0  0
   34.6790   30.2560   40.0920 H   0  0  0  0  0  0  0  0  0  0  0  0
   37.2240   27.3490   42.4820 C   0  0  0  0  0  0  0  0  0  0  0  0
   37.4400   28.5310   43.4300 C   0  0  0  0  0  0  0  0  0  0  0  0
   36.4090   27.3860   43.6780 C   0  0  0  0  0  0  0  0  0  0  0  0
   38.2420   26.9050   42.3210 H   0  0  0  0  0  0  0  0  0  0  0  0
   36.9620   29.4920   43.2290 H   0  0  0  0  0  0  0  0  0  0  0  0
   38.2950   28.5340   44.1110 H   0  0  0  0  0  0  0  0  0  0  0  0
   36.6550   26.7040   44.5170 H   0  0  0  0  0  0  0  0  0  0  0  0
   35.3430   27.6330   43.5620 H   0  0  0  0  0  0  0  0  0  0  0  0
   38.7480   25.5490   39.8820 C   0  0  0  0  0  0  0  0  0  0  0  0
   37.4290   25.6990   40.1650 C   0  0  0  0  0  0  0  0  0  0  0  0
   36.6760   24.5890   40.5590 C   0  0  0  0  0  0  0  0  0  0  0  0
   35.6120   24.6410   40.8000 H   0  0  0  0  0  0  0  0  0  0  0  0
   37.2870   23.3390   40.6600 C   0  0  0  0  0  0  0  0  0  0  0  0
   36.7250   22.4680   40.9630 H   0  0  0  0  0  0  0  0  0  0  0  0
   38.6430   23.2620   40.3550 C   0  0  0  0  0  3  0  0  0  0  0  0
   39.3940   24.3480   39.9650 C   0  0  0  0  0  3  0  0  0  0  0  0
   38.7850   27.7700   38.6560 H   0  0  0  0  0  0  0  0  0  0  0  0
   39.6360   26.9570   39.3980 S   0  0  0  0  0  0  0  0  0  0  0  0
   40.7730   26.6320   38.4670 O   0  0  0  0  0  0  0  0  0  0  0  0
   40.1560   27.7700   40.5190 O   0  0  0  0  0  0  0  0  0  0  0  0
  1  2  1  0  0  0  0
  2 18  1  0  0  0  0
  2  3  2  0  0  0  0
  3  9  1  0  0  0  0
  4  3  1  0  0  0  0
  5  8  1  0  0  0  0
  5  4  2  0  0  0  0
  6  1  2  0  0  0  0
  6  5  1  0  0  0  0
  7  1  1  0  0  0  0
  9 10  1  0  0  0  0
  9 11  1  0  0  0  0
 10 11  1  0  0  0  0
 10 14  1  0  0  0  0
 11 15  1  0  0  0  0
 12  9  1  0  0  0  0
 13 10  1  0  0  0  0
 16 11  1  0  0  0  0
 17 24  2  0  0  0  0
 17 18  1  0  0  0  0
 18 19  2  0  0  0  0
 19 21  1  0  0  0  0
 19 20  1  0  0  0  0
 21 22  1  0  0  0  0
 23 21  2  0  0  0  0
 24 23  1  0  0  0  0
 25 26  1  0  0  0  0
 26 17  1  0  0  0  0
 26 28  2  0  0  0  0
 27 26  2  0  0  0  0
M  END
>  <minimizedAffinity>
-4.45000029

$$$$

 OpenBabel03252509213D

 28 30  0  0  0  0  0  0  0  0999 V2000
   39.0480   27.5170   39.4540 C   0  0  0  0  0  0  0  0  0  0  0  0
   38.2180   28.2320   40.3590 C   0  0  0  0  0  0  0  0  0  0  0  0
   37.6450   27.4650   41.3730 C   0  0  0  0  0  0  0  0  0  0  0  0
   37.8840   26.1080   41.4650 N   0  0  0  0  0  0  0  0  0  0  0  0
   38.6820   25.4860   40.5770 C   0  0  0  0  0  0  0  0  0  0  0  0
   39.2620   26.1970   39.5710 N   0  0  0  0  0  0  0  0  0  0  0  0
   39.5080   28.0720   38.6580 H   0  0  0  0  0  0  0  0  0  0  0  0
   38.7680   24.4280   40.7850 H   0  0  0  0  0  0  0  0  0  0  0  0
   36.8250   28.2010   42.4090 C   0  0  0  0  0  0  0  0  0  0  0  0
   36.4630   27.2790   43.5760 C   0  0  0  0  0  0  0  0  0  0  0  0
   37.4650   28.4700   43.6790 C   0  0  0  0  0  0  0  0  0  0  0  0
   35.8450   28.5720   42.0060 H   0  0  0  0  0  0  0  0  0  0  0  0
   36.9500   26.3080   43.6830 H   0  0  0  0  0  0  0  0  0  0  0  0
   35.5210   27.4240   44.1130 H   0  0  0  0  0  0  0  0  0  0  0  0
   37.1150   29.3310   44.2840 H   0  0  0  0  0  0  0  0  0  0  0  0
   38.5340   28.2240   43.7750 H   0  0  0  0  0  0  0  0  0  0  0  0
   36.9230   30.2580   39.6290 C   0  0  0  0  0  0  0  0  0  0  0  0
   37.9750   29.6640   40.2480 C   0  0  0  0  0  0  0  0  0  0  0  0
   38.9550   30.4540   40.8570 C   0  0  0  0  0  0  0  0  0  0  0  0
   39.8250   30.0400   41.3700 H   0  0  0  0  0  0  0  0  0  0  0  0
   38.8430   31.8440   40.8230 C   0  0  0  0  0  0  0  0  0  0  0  0
   39.5880   32.4730   41.2870 H   0  0  0  0  0  0  0  0  0  0  0  0
   37.7370   32.3820   40.1710 C   0  0  0  0  0  3  0  0  0  0  0  0
   36.7660   31.6140   39.5680 C   0  0  0  0  0  3  0  0  0  0  0  0
   36.2520   27.9430   38.8380 H   0  0  0  0  0  0  0  0  0  0  0  0
   35.7360   29.2340   38.8900 S   0  0  0  0  0  0  0  0  0  0  0  0
   35.4660   29.6020   37.4570 O   0  0  0  0  0  0  0  0  0  0  0  0
   34.4490   29.1660   39.6150 O   0  0  0  0  0  0  0  0  0  0  0  0
  1  6  2  0  0  0  0
  1  2  1  0  0  0  0
  2  3  2  0  0  0  0
  3  4  1  0  0  0  0
  3  9  1  0  0  0  0
  5  8  1  0  0  0  0
  5  4  2  0  0  0  0
  6  5  1  0  0  0  0
  7  1  1  0  0  0  0
  9 10  1  0  0  0  0
  9 11  1  0  0  0  0
 10 11  1  0  0  0  0
 10 13  1  0  0  0  0
 10 14  1  0  0  0  0
 11 16  1  0  0  0  0
 11 15  1  0  0  0  0
 12  9  1  0  0  0  0
 17 18  1  0  0  0  0
 18  2  1  0  0  0  0
 18 19  2  0  0  0  0
 19 20  1  0  0  0  0
 21 19  1  0  0  0  0
 21 22  1  0  0  0  0
 23 21  2  0  0  0  0
 24 17  2  0  0  0  0
 24 23  1  0  0  0  0
 25 26  1  0  0  0  0
 26 28  2  0  0  0  0
 26 17  1  0  0  0  0
 27 26  2  0  0  0  0
M  END
>  <minimizedAffinity>
-4.4225626

$$$$

 OpenBabel03252509213D

 28 30  0  0  0  0  0  0  0  0999 V2000
   37.7850   25.4050   39.5470 C   0  0  0  0  0  0  0  0  0  0  0  0
   37.3740   26.5950   40.2090 C   0  0  0  0  0  0  0  0  0  0  0  0
   37.2850   26.5010   41.5970 C   0  0  0  0  0  0  0  0  0  0  0  0
   37.5780   25.3230   42.2550 N   0  0  0  0  0  0  0  0  0  0  0  0
   37.9630   24.2280   41.5720 C   0  0  0  0  0  0  0  0  0  0  0  0
   38.0640   24.2760   40.2150 N   0  0  0  0  0  0  0  0  0  0  0  0
   37.8660   25.4370   38.4760 H   0  0  0  0  0  0  0  0  0  0  0  0
   38.1560   23.3920   42.2290 H   0  0  0  0  0  0  0  0  0  0  0  0
   36.9360   27.7660   42.3480 C   0  0  0  0  0  0  0  0  0  0  0  0
   36.2460   27.4430   43.6750 C   0  0  0  0  0  0  0  0  0  0  0  0
   37.6840   28.0370   43.5580 C   0  0  0  0  0  0  0  0  0  0  0  0
   36.2150   28.4210   41.7890 H   0  0  0  0  0  0  0  0  0  0  0  0
   36.2420   26.4210   44.0590 H   0  0  0  0  0  0  0  0  0  0  0  0
   35.4980   28.1290   44.0830 H   0  0  0  0  0  0  0  0  0  0  0  0
   37.7910   29.0860   43.9000 H   0  0  0  0  0  0  0  0  0  0  0  0
   38.5270   27.3690   43.7970 H   0  0  0  0  0  0  0  0  0  0  0  0
   37.9380   28.8260   39.1990 C   0  0  0  0  0  0  0  0  0  0  0  0
   37.0670   27.8300   39.5000 C   0  0  0  0  0  0  0  0  0  0  0  0
   35.7270   27.9440   39.1160 C   0  0  0  0  0  0  0  0  0  0  0  0
   34.9760   27.1800   39.3260 H   0  0  0  0  0  0  0  0  0  0  0  0
   35.2990   29.0790   38.4280 C   0  0  0  0  0  0  0  0  0  0  0  0
   34.2690   29.1880   38.1220 H   0  0  0  0  0  0  0  0  0  0  0  0
   36.2490   30.0590   38.1550 C   0  0  0  0  0  3  0  0  0  0  0  0
   37.5700   29.9570   38.5270 C   0  0  0  0  0  3  0  0  0  0  0  0
   39.8220   27.2800   39.9050 H   0  0  0  0  0  0  0  0  0  0  0  0
   39.5880   28.6350   39.6970 S   0  0  0  0  0  0  0  0  0  0  0  0
   39.8710   29.2870   41.0230 O   0  0  0  0  0  0  0  0  0  0  0  0
   40.5840   29.1070   38.7110 O   0  0  0  0  0  0  0  0  0  0  0  0
  1  2  2  0  0  0  0
  1  6  1  0  0  0  0
  2  3  1  0  0  0  0
  3  4  2  0  0  0  0
  3  9  1  0  0  0  0
  5  8  1  0  0  0  0
  5  4  1  0  0  0  0
  6  5  2  0  0  0  0
  7  1  1  0  0  0  0
  9 11  1  0  0  0  0
  9 10  1  0  0  0  0
 10 13  1  0  0  0  0
 10 14  1  0  0  0  0
 11 10  1  0  0  0  0
 11 16  1  0  0  0  0
 11 15  1  0  0  0  0
 12  9  1  0  0  0  0
 17 18  1  0  0  0  0
 17 26  1  0  0  0  0
 18  2  1  0  0  0  0
 19 20  1  0  0  0  0
 19 18  2  0  0  0  0
 21 19  1  0  0  0  0
 22 21  1  0  0  0  0
 23 21  2  0  0  0  0
 23 24  1  0  0  0  0
 24 17  2  0  0  0  0
 26 25  1  0  0  0  0
 26 27  2  0  0  0  0
 28 26  2  0  0  0  0
M  END
>  <minimizedAffinity>
-4.347404

$$$$

 OpenBabel03252509213D

 28 30  0  0  0  0  0  0  0  0999 V2000
   36.1880   26.9950   39.0860 C   0  0  0  0  0  0  0  0  0  0  0  0
   36.8460   28.0170   39.8250 C   0  0  0  0  0  0  0  0  0  0  0  0
   36.8760   29.2680   39.2090 C   0  0  0  0  0  0  0  0  0  0  0  0
   36.3020   29.4700   37.9700 N   0  0  0  0  0  0  0  0  0  0  0  0
   35.6910   28.4620   37.3200 C   0  0  0  0  0  0  0  0  0  0  0  0
   35.6370   27.2240   37.8840 N   0  0  0  0  0  0  0  0  0  0  0  0
   36.1430   26.0160   39.5260 H   0  0  0  0  0  0  0  0  0  0  0  0
   35.2930   28.7810   36.3670 H   0  0  0  0  0  0  0  0  0  0  0  0
   37.4890   30.4030   39.9970 C   0  0  0  0  0  0  0  0  0  0  0  0
   37.2650   31.7430   39.2920 C   0  0  0  0  0  0  0  0  0  0  0  0
   36.5740   31.3310   40.6290 C   0  0  0  0  0  0  0  0  0  0  0  0
   38.6020   30.3070   40.1070 H   0  0  0  0  0  0  0  0  0  0  0  0
   36.5630   31.8160   38.4590 H   0  0  0  0  0  0  0  0  0  0  0  0
   38.0080   32.5400   39.3860 H   0  0  0  0  0  0  0  0  0  0  0  0
   36.9100   31.8900   41.5250 H   0  0  0  0  0  0  0  0  0  0  0  0
   35.5000   31.0940   40.5890 H   0  0  0  0  0  0  0  0  0  0  0  0
   38.7350   27.4300   41.3740 C   0  0  0  0  0  0  0  0  0  0  0  0
   37.4480   27.7860   41.1300 C   0  0  0  0  0  0  0  0  0  0  0  0
   36.5660   27.9650   42.2010 C   0  0  0  0  0  0  0  0  0  0  0  0
   35.5200   28.2510   42.0740 H   0  0  0  0  0  0  0  0  0  0  0  0
   37.0160   27.7770   43.5070 C   0  0  0  0  0  0  0  0  0  0  0  0
   36.3520   27.9090   44.3490 H   0  0  0  0  0  0  0  0  0  0  0  0
   38.3490   27.4110   43.6800 C   0  0  0  0  0  3  0  0  0  0  0  0
   39.2260   27.2330   42.6340 C   0  0  0  0  0  3  0  0  0  0  0  0
   39.3800   28.0990   39.0130 H   0  0  0  0  0  0  0  0  0  0  0  0
   39.7870   27.2210   40.0120 S   0  0  0  0  0  0  0  0  0  0  0  0
   39.6740   25.8530   39.3980 O   0  0  0  0  0  0  0  0  0  0  0  0
   41.2130   27.5010   40.2910 O   0  0  0  0  0  0  0  0  0  0  0  0
  1  7  1  0  0  0  0
  1  2  1  0  0  0  0
  2 18  1  0  0  0  0
  3  2  2  0  0  0  0
  3  9  1  0  0  0  0
  4  3  1  0  0  0  0
  5  6  1  0  0  0  0
  5  4  2  0  0  0  0
  6  1  2  0  0  0  0
  8  5  1  0  0  0  0
  9 12  1  0  0  0  0
  9 11  1  0  0  0  0
 10 14  1  0  0  0  0
 10  9  1  0  0  0  0
 10 11  1  0  0  0  0
 11 15  1  0  0  0  0
 13 10  1  0  0  0  0
 16 11  1  0  0  0  0
 17 24  1  0  0  0  0
 18 17  2  0  0  0  0
 18 19  1  0  0  0  0
 19 21  2  0  0  0  0
 20 19  1  0  0  0  0
 21 23  1  0  0  0  0
 21 22  1  0  0  0  0
 24 23  2  0  0  0  0
 25 26  1  0  0  0  0
 26 28  2  0  0  0  0
 26 17  1  0  0  0  0
 27 26  2  0  0  0  0
M  END
>  <minimizedAffinity>
-4.32092524

$$$$

 OpenBabel03252509213D

 28 30  0  0  0  0  0  0  0  0999 V2000
   36.4860   28.5020   41.7900 C   0  0  0  0  0  0  0  0  0  0  0  0
   37.6000   29.2880   41.3870 C   0  0  0  0  0  0  0  0  0  0  0  0
   38.7450   29.1390   42.1680 C   0  0  0  0  0  0  0  0  0  0  0  0
   38.7660   28.2820   43.2510 N   0  0  0  0  0  0  0  0  0  0  0  0
   37.6780   27.5630   43.5830 C   0  0  0  0  0  0  0  0  0  0  0  0
   36.5380   27.6780   42.8480 N   0  0  0  0  0  0  0  0  0  0  0  0
   35.5840   28.5900   41.2140 H   0  0  0  0  0  0  0  0  0  0  0  0
   37.8560   26.9420   44.4510 H   0  0  0  0  0  0  0  0  0  0  0  0
   39.9800   29.8890   41.7230 C   0  0  0  0  0  0  0  0  0  0  0  0
   40.2880   31.0500   42.6730 C   0  0  0  0  0  0  0  0  0  0  0  0
   41.1590   29.7610   42.5540 C   0  0  0  0  0  0  0  0  0  0  0  0
   39.8650   30.3560   40.7090 H   0  0  0  0  0  0  0  0  0  0  0  0
   39.7750   31.1250   43.6340 H   0  0  0  0  0  0  0  0  0  0  0  0
   40.7580   31.9590   42.2890 H   0  0  0  0  0  0  0  0  0  0  0  0
   42.1580   29.9080   42.0960 H   0  0  0  0  0  0  0  0  0  0  0  0
   41.1190   29.0460   43.3900 H   0  0  0  0  0  0  0  0  0  0  0  0
   37.8530   29.8700   38.9560 C   0  0  0  0  0  0  0  0  0  0  0  0
   37.5610   30.1880   40.2430 C   0  0  0  0  0  0  0  0  0  0  0  0
   37.1800   31.4950   40.5620 C   0  0  0  0  0  0  0  0  0  0  0  0
   36.9320   31.8160   41.5760 H   0  0  0  0  0  0  0  0  0  0  0  0
   37.1010   32.4580   39.5570 C   0  0  0  0  0  0  0  0  0  0  0  0
   36.8090   33.4740   39.7820 H   0  0  0  0  0  0  0  0  0  0  0  0
   37.4150   32.0590   38.2610 C   0  0  0  0  0  3  0  0  0  0  0  0
   37.7910   30.7760   37.9340 C   0  0  0  0  0  3  0  0  0  0  0  0
   37.7830   27.4170   39.6000 H   0  0  0  0  0  0  0  0  0  0  0  0
   38.3200   28.2360   38.6130 S   0  0  0  0  0  0  0  0  0  0  0  0
   39.8070   28.0290   38.7020 O   0  0  0  0  0  0  0  0  0  0  0  0
   37.8450   27.7240   37.3080 O   0  0  0  0  0  0  0  0  0  0  0  0
  1  6  1  0  0  0  0
  2  1  2  0  0  0  0
  2  3  1  0  0  0  0
  3  4  2  0  0  0  0
  4  5  1  0  0  0  0
  5  8  1  0  0  0  0
  6  5  2  0  0  0  0
  7  1  1  0  0  0  0
  9  3  1  0  0  0  0
  9 11  1  0  0  0  0
  9 10  1  0  0  0  0
 10 13  1  0  0  0  0
 11 10  1  0  0  0  0
 11 16  1  0  0  0  0
 12  9  1  0  0  0  0
 14 10  1  0  0  0  0
 15 11  1  0  0  0  0
 17 18  1  0  0  0  0
 18 19  2  0  0  0  0
 18  2  1  0  0  0  0
 19 20  1  0  0  0  0
 21 22  1  0  0  0  0
 21 19  1  0  0  0  0
 23 21  2  0  0  0  0
 24 23  1  0  0  0  0
 24 17  2  0  0  0  0
 26 27  2  0  0  0  0
 26 17  1  0  0  0  0
 26 25  1  0  0  0  0
 28 26  2  0  0  0  0
M  END
>  <minimizedAffinity>
-4.31647301

$$$$
