
 OpenBabel03252505343D

 33 35  0  0  0  0  0  0  0  0999 V2000
   46.6000   34.7970   42.1150 C   0  0  0  0  0  0  0  0  0  0  0  0
   47.9280   35.1620   42.0650 C   0  0  0  0  0  0  0  0  0  0  0  0
   48.7220   34.9890   40.9300 C   0  0  0  0  0  0  0  0  0  0  0  0
   48.1600   34.4240   39.7970 C   0  0  0  0  0  0  0  0  0  0  0  0
   46.8290   34.0620   39.8600 C   0  0  0  0  0  0  0  0  0  0  0  0
   46.0660   34.2400   40.9860 C   0  0  0  0  0  0  0  0  0  0  0  0
   48.4000   35.6000   42.9100 H   0  0  0  0  0  0  0  0  0  0  0  0
   49.7520   35.2820   40.9170 H   0  0  0  0  0  0  0  0  0  0  0  0
   48.8100   34.3060   38.9350 H   0  0  0  0  0  0  0  0  0  0  0  0
   46.3900   33.6160   38.9620 H   0  0  0  0  0  0  0  0  0  0  0  0
   44.4220   36.2620   44.8110 C   0  0  0  0  0  0  0  0  0  0  0  0
   45.0780   36.1360   43.5730 C   0  0  0  0  0  0  0  0  0  0  0  0
   45.8870   35.0240   43.3380 C   0  0  0  0  0  0  0  0  0  0  0  0
   46.0010   34.1090   44.3260 N   0  0  0  0  0  0  0  0  0  0  0  0
   45.3560   34.2590   45.5100 C   0  0  0  0  0  0  0  0  0  0  0  0
   44.5630   35.3420   45.7480 N   0  0  0  0  0  0  0  0  0  0  0  0
   45.4920   33.2760   46.5450 N   0  0  0  0  0  0  0  0  0  0  0  0
   43.7880   37.1240   45.0060 H   0  0  0  0  0  0  0  0  0  0  0  0
   44.9720   36.8800   42.7960 H   0  0  0  0  0  0  0  0  0  0  0  0
   45.8300   33.6490   47.4670 H   0  0  0  0  0  0  0  0  0  0  0  0
   45.2860   32.2580   46.4460 H   0  0  0  0  0  0  0  0  0  0  0  0
   44.2110   32.5510   41.1760 C   0  0  0  0  0  0  0  0  0  0  0  0
   44.6630   33.8420   40.9990 C   0  0  0  0  0  0  0  0  0  0  0  0
   43.7190   34.8370   40.8190 C   0  0  0  0  0  0  0  0  0  0  0  0
   43.9660   35.8940   40.6700 H   0  0  0  0  0  0  0  0  0  0  0  0
   42.3670   34.5060   40.8230 C   0  0  0  0  0  0  0  0  0  0  0  0
   41.5420   35.2200   40.6880 H   0  0  0  0  0  0  0  0  0  0  0  0
   41.9380   33.2050   41.0020 C   0  0  0  0  0  3  0  0  0  0  0  0
   42.8820   32.2060   41.1820 C   0  0  0  0  0  3  0  0  0  0  0  0
   44.7040   30.1420   41.7410 H   0  0  0  0  0  0  0  0  0  0  0  0
   45.4020   31.2890   41.4050 S   0  0  0  0  0  0  0  0  0  0  0  0
   46.2910   31.6110   42.5840 O   0  0  0  0  0  0  0  0  0  0  0  0
   46.2000   31.0540   40.1580 O   0  0  0  0  0  0  0  0  0  0  0  0
  1 13  1  0  0  0  0
  2  1  1  0  0  0  0
  2  7  1  0  0  0  0
  3  2  2  0  0  0  0
  4  5  2  0  0  0  0
  4  3  1  0  0  0  0
  5  6  1  0  0  0  0
  6 23  1  0  0  0  0
  6  1  2  0  0  0  0
  8  3  1  0  0  0  0
  9  4  1  0  0  0  0
 10  5  1  0  0  0  0
 11 18  1  0  0  0  0
 11 16  1  0  0  0  0
 12 11  2  0  0  0  0
 13 12  1  0  0  0  0
 13 14  2  0  0  0  0
 14 15  1  0  0  0  0
 15 16  2  0  0  0  0
 15 17  1  0  0  0  0
 17 20  1  0  0  0  0
 19 12  1  0  0  0  0
 21 17  1  0  0  0  0
 22 29  1  0  0  0  0
 22 31  1  0  0  0  0
 23 22  2  0  0  0  0
 24 26  2  0  0  0  0
 24 23  1  0  0  0  0
 25 24  1  0  0  0  0
 26 28  1  0  0  0  0
 27 26  1  0  0  0  0
 28 29  2  0  0  0  0
 31 30  1  0  0  0  0
 31 32  2  0  0  0  0
 33 31  2  0  0  0  0
M  END
>  <minimizedAffinity>
-6.17011023

>  <minimizedRMSD>
0.812152922

$$$$
