
 OpenBabel03242518433D

 22 23  0  0  0  0  0  0  0  0999 V2000
   47.4950   30.6430   48.2090 C   0  0  0  0  0  0  0  0  0  0  0  0
   46.7160   30.6030   47.0690 C   0  0  0  0  0  0  0  0  0  0  0  0
   45.3860   30.9700   47.0650 C   0  0  0  0  0  0  0  0  0  0  0  0
   44.7680   30.9380   46.1580 H   0  0  0  0  0  0  0  0  0  0  0  0
   44.8050   31.3970   48.2610 C   0  0  0  0  0  0  0  0  0  0  0  0
   43.7690   31.6870   48.2810 H   0  0  0  0  0  0  0  0  0  0  0  0
   45.5130   31.4650   49.4420 C   0  0  0  0  0  3  0  0  0  0  0  0
   46.8370   31.0820   49.3630 C   0  0  0  0  0  3  0  0  0  0  0  0
   48.3070   30.5940   43.7410 C   0  0  0  0  0  0  0  0  0  0  0  0
   48.3800   29.2020   43.4540 C   0  0  0  0  0  0  0  0  0  0  0  0
   47.8780   28.3200   44.4230 C   0  0  0  0  0  0  0  0  0  0  0  0
   47.3590   28.8270   45.5590 N   0  0  0  0  0  0  0  0  0  0  0  0
   47.3070   30.1560   45.7910 C   0  0  0  0  0  0  0  0  0  0  0  0
   47.7780   31.0160   44.8870 N   0  0  0  0  0  0  0  0  0  0  0  0
   48.7950   28.7820   42.5480 H   0  0  0  0  0  0  0  0  0  0  0  0
   47.8950   27.2500   44.2870 H   0  0  0  0  0  0  0  0  0  0  0  0
   48.7950   31.4420   42.8000 O   0  0  0  0  0  0  0  0  0  0  0  0
   49.7660   31.5470   42.5680 H   0  0  0  0  0  0  0  0  0  0  0  0
   49.6330   30.2780   46.9290 H   0  0  0  0  0  0  0  0  0  0  0  0
   49.1620   30.1840   48.2150 S   0  0  0  0  0  0  0  0  0  0  0  0
   49.2260   28.7040   48.5650 O   0  0  0  0  0  0  0  0  0  0  0  0
   49.9840   30.8920   49.2200 O   0  0  0  0  0  0  0  0  0  0  0  0
  1 20  1  0  0  0  0
  1  8  1  0  0  0  0
  2  1  2  0  0  0  0
  3  2  1  0  0  0  0
  3  5  2  0  0  0  0
  4  3  1  0  0  0  0
  5  6  1  0  0  0  0
  5  7  1  0  0  0  0
  8  7  2  0  0  0  0
  9 14  1  0  0  0  0
 10  9  2  0  0  0  0
 10 11  1  0  0  0  0
 11 12  2  0  0  0  0
 12 13  1  0  0  0  0
 13  2  1  0  0  0  0
 14 13  2  0  0  0  0
 15 10  1  0  0  0  0
 16 11  1  0  0  0  0
 17  9  1  0  0  0  0
 18 17  1  0  0  0  0
 19 20  1  0  0  0  0
 20 21  2  0  0  0  0
 20 22  2  0  0  0  0
M  END
>  <minimizedAffinity>
-3.09446502

>  <minimizedRMSD>
4.21002483

$$$$
