
 OpenBabel03242516493D

 46 49  0  0  1  0  0  0  0  0999 V2000
   47.8300   32.8400   41.5880 C   0  0  1  0  0  0  0  0  0  0  0  0
   47.3690   32.1440   40.3710 C   0  0  0  0  0  0  0  0  0  0  0  0
   48.3640   32.5160   39.2750 C   0  0  0  0  0  0  0  0  0  0  0  0
   48.1150   33.9940   38.9760 C   0  0  0  0  0  0  0  0  0  0  0  0
   48.1760   34.8770   40.1570 C   0  0  0  0  0  0  0  0  0  0  0  0
   47.7470   34.3490   41.4630 C   0  0  1  0  0  0  0  0  0  0  0  0
   48.9400   32.6550   41.7060 H   0  0  0  0  0  0  0  0  0  0  0  0
   46.3570   32.3880   40.0390 H   0  0  0  0  0  0  0  0  0  0  0  0
   47.4310   31.0390   40.5800 H   0  0  0  0  0  0  0  0  0  0  0  0
   48.0890   31.9490   38.3770 H   0  0  0  0  0  0  0  0  0  0  0  0
   49.4010   32.3600   39.6120 H   0  0  0  0  0  0  0  0  0  0  0  0
   48.9120   34.2830   38.2490 H   0  0  0  0  0  0  0  0  0  0  0  0
   47.1730   34.0110   38.4030 H   0  0  0  0  0  0  0  0  0  0  0  0
   49.2010   35.3110   40.2240 H   0  0  0  0  0  0  0  0  0  0  0  0
   47.5320   35.7790   39.9290 H   0  0  0  0  0  0  0  0  0  0  0  0
   48.4200   34.7470   42.2580 H   0  0  0  0  0  0  0  0  0  0  0  0
   45.5310   31.0680   44.0060 C   0  0  0  0  0  0  0  0  0  0  0  0
   46.1560   31.5130   42.8440 C   0  0  0  0  0  0  0  0  0  0  0  0
   47.2210   32.4000   42.8380 C   0  0  0  0  0  0  0  0  0  0  0  0
   47.6310   32.8210   44.0460 N   0  0  0  0  0  0  0  0  0  0  0  0
   47.0360   32.4000   45.1890 C   0  0  0  0  0  0  0  0  0  0  0  0
   46.0090   31.5430   45.1800 N   0  0  0  0  0  0  0  0  0  0  0  0
   44.7030   30.3700   43.8960 H   0  0  0  0  0  0  0  0  0  0  0  0
   45.8020   31.1540   41.8770 H   0  0  0  0  0  0  0  0  0  0  0  0
   47.3670   32.7410   46.1660 H   0  0  0  0  0  0  0  0  0  0  0  0
   46.4000   34.8350   41.8490 C   0  0  0  0  0  0  0  0  0  0  0  0
   46.1040   35.6860   42.9170 C   0  0  0  0  0  0  0  0  0  0  0  0
   44.7540   36.0160   43.0570 C   0  0  0  0  0  0  0  0  0  0  0  0
   43.8520   35.4980   42.1660 C   0  0  0  0  0  0  0  0  0  0  0  0
   44.1490   34.6670   41.1280 C   0  0  0  0  0  0  0  0  0  0  0  0
   45.4610   34.3480   40.9930 N   0  0  0  0  0  0  0  0  0  0  0  0
   46.9250   35.9850   43.4990 H   0  0  0  0  0  0  0  0  0  0  0  0
   44.5370   36.6720   43.8810 H   0  0  0  0  0  0  0  0  0  0  0  0
   42.8710   35.8610   42.3740 H   0  0  0  0  0  0  0  0  0  0  0  0
   41.8410   34.3370   40.0730 C   0  0  0  0  0  0  0  0  0  0  0  0
   43.1950   34.1600   40.1480 C   0  0  0  0  0  0  0  0  0  0  0  0
   43.7420   33.3450   39.1700 C   0  0  0  0  0  0  0  0  0  0  0  0
   44.8020   33.1430   39.1330 H   0  0  0  0  0  0  0  0  0  0  0  0
   43.0460   32.7270   38.1670 C   0  0  0  0  0  0  0  0  0  0  0  0
   43.5020   32.0960   37.4170 H   0  0  0  0  0  0  0  0  0  0  0  0
   41.6830   32.9050   38.0840 C   0  0  0  0  0  3  0  0  0  0  0  0
   41.1200   33.7100   39.0480 C   0  0  0  0  0  3  0  0  0  0  0  0
   41.8800   36.0600   42.0040 H   0  0  0  0  0  0  0  0  0  0  0  0
   41.0430   35.2650   41.2760 S   0  0  0  0  0  0  0  0  0  0  0  0
   40.0410   34.5070   42.0980 O   0  0  0  0  0  0  0  0  0  0  0  0
   40.1770   36.2840   40.5060 O   0  0  0  0  0  0  0  0  0  0  0  0
  1  7  1  1  0  0  0
  1 19  1  0  0  0  0
  2  9  1  0  0  0  0
  2  1  1  0  0  0  0
  3 11  1  0  0  0  0
  3  2  1  0  0  0  0
  4  3  1  0  0  0  0
  4  5  1  0  0  0  0
  5 14  1  0  0  0  0
  5  6  1  0  0  0  0
  6  1  1  0  0  0  0
  6 26  1  0  0  0  0
  6 16  1  1  0  0  0
  8  2  1  0  0  0  0
 10  3  1  0  0  0  0
 12  4  1  0  0  0  0
 13  4  1  0  0  0  0
 15  5  1  0  0  0  0
 17 22  1  0  0  0  0
 18 17  2  0  0  0  0
 19 18  1  0  0  0  0
 19 20  2  0  0  0  0
 20 21  1  0  0  0  0
 21 25  1  0  0  0  0
 22 21  2  0  0  0  0
 23 17  1  0  0  0  0
 24 18  1  0  0  0  0
 26 27  1  0  0  0  0
 27 28  2  0  0  0  0
 27 32  1  0  0  0  0
 28 33  1  0  0  0  0
 29 34  1  0  0  0  0
 29 28  1  0  0  0  0
 30 29  2  0  0  0  0
 31 30  1  0  0  0  0
 31 26  2  0  0  0  0
 35 36  1  0  0  0  0
 35 44  1  0  0  0  0
 36 30  1  0  0  0  0
 37 36  2  0  0  0  0
 38 37  1  0  0  0  0
 39 37  1  0  0  0  0
 40 39  1  0  0  0  0
 41 39  2  0  0  0  0
 41 42  1  0  0  0  0
 42 35  2  0  0  0  0
 44 43  1  0  0  0  0
 44 45  2  0  0  0  0
 46 44  2  0  0  0  0
M  END
>  <minimizedAffinity>
-6.13639832

>  <minimizedRMSD>
0.657447696

$$$$
