
 OpenBabel03252505343D

 33 35  0  0  0  0  0  0  0  0999 V2000
   46.6100   34.8040   42.1040 C   0  0  0  0  0  0  0  0  0  0  0  0
   47.9210   35.2230   42.0380 C   0  0  0  0  0  0  0  0  0  0  0  0
   48.7150   35.0610   40.9020 C   0  0  0  0  0  0  0  0  0  0  0  0
   48.1710   34.4510   39.7840 C   0  0  0  0  0  0  0  0  0  0  0  0
   46.8570   34.0350   39.8630 C   0  0  0  0  0  0  0  0  0  0  0  0
   46.0930   34.2030   40.9890 C   0  0  0  0  0  0  0  0  0  0  0  0
   48.3790   35.6970   42.8720 H   0  0  0  0  0  0  0  0  0  0  0  0
   49.7320   35.3970   40.8770 H   0  0  0  0  0  0  0  0  0  0  0  0
   48.8200   34.3430   38.9200 H   0  0  0  0  0  0  0  0  0  0  0  0
   46.4320   33.5530   38.9760 H   0  0  0  0  0  0  0  0  0  0  0  0
   44.4210   36.2530   44.8010 C   0  0  0  0  0  0  0  0  0  0  0  0
   45.0790   36.1330   43.5630 C   0  0  0  0  0  0  0  0  0  0  0  0
   45.8940   35.0260   43.3270 C   0  0  0  0  0  0  0  0  0  0  0  0
   46.0140   34.1110   44.3140 N   0  0  0  0  0  0  0  0  0  0  0  0
   45.3670   34.2550   45.4980 C   0  0  0  0  0  0  0  0  0  0  0  0
   44.5680   35.3330   45.7360 N   0  0  0  0  0  0  0  0  0  0  0  0
   45.5080   33.2720   46.5320 N   0  0  0  0  0  0  0  0  0  0  0  0
   43.7820   37.1110   44.9960 H   0  0  0  0  0  0  0  0  0  0  0  0
   44.9690   36.8770   42.7870 H   0  0  0  0  0  0  0  0  0  0  0  0
   45.8440   33.6460   47.4540 H   0  0  0  0  0  0  0  0  0  0  0  0
   45.3080   32.2530   46.4310 H   0  0  0  0  0  0  0  0  0  0  0  0
   44.3130   32.4400   41.2100 C   0  0  0  0  0  0  0  0  0  0  0  0
   44.7080   33.7470   41.0200 C   0  0  0  0  0  0  0  0  0  0  0  0
   43.7210   34.7010   40.8430 C   0  0  0  0  0  0  0  0  0  0  0  0
   43.9230   35.7670   40.6840 H   0  0  0  0  0  0  0  0  0  0  0  0
   42.3850   34.3140   40.8620 C   0  0  0  0  0  0  0  0  0  0  0  0
   41.5300   34.9930   40.7310 H   0  0  0  0  0  0  0  0  0  0  0  0
   42.0120   32.9980   41.0540 C   0  0  0  0  0  3  0  0  0  0  0  0
   42.9980   32.0400   41.2320 C   0  0  0  0  0  3  0  0  0  0  0  0
   44.9150   30.0710   41.8390 H   0  0  0  0  0  0  0  0  0  0  0  0
   45.5560   31.2300   41.4360 S   0  0  0  0  0  0  0  0  0  0  0  0
   46.4780   31.6250   42.5650 O   0  0  0  0  0  0  0  0  0  0  0  0
   46.3140   30.9790   40.1660 O   0  0  0  0  0  0  0  0  0  0  0  0
  1 13  1  0  0  0  0
  2  1  1  0  0  0  0
  2  7  1  0  0  0  0
  3  2  2  0  0  0  0
  4  5  2  0  0  0  0
  4  3  1  0  0  0  0
  5  6  1  0  0  0  0
  6 23  1  0  0  0  0
  6  1  2  0  0  0  0
  8  3  1  0  0  0  0
  9  4  1  0  0  0  0
 10  5  1  0  0  0  0
 11 18  1  0  0  0  0
 11 16  1  0  0  0  0
 12 11  2  0  0  0  0
 13 12  1  0  0  0  0
 13 14  2  0  0  0  0
 14 15  1  0  0  0  0
 15 16  2  0  0  0  0
 15 17  1  0  0  0  0
 17 20  1  0  0  0  0
 19 12  1  0  0  0  0
 21 17  1  0  0  0  0
 22 29  1  0  0  0  0
 22 31  1  0  0  0  0
 23 22  2  0  0  0  0
 24 26  2  0  0  0  0
 24 23  1  0  0  0  0
 25 24  1  0  0  0  0
 26 28  1  0  0  0  0
 27 26  1  0  0  0  0
 28 29  2  0  0  0  0
 31 30  1  0  0  0  0
 31 32  2  0  0  0  0
 33 31  2  0  0  0  0
M  END
>  <minimizedAffinity>
-6.16314363

>  <minimizedRMSD>
0.954312027

$$$$
