
 OpenBabel03252504493D

 27 28  0  0  0  0  0  0  0  0999 V2000
   45.9850   32.2380   43.1470 C   0  0  0  0  0  0  0  0  0  0  0  0
   47.2300   31.7810   42.7230 C   0  0  0  0  0  0  0  0  0  0  0  0
   48.0530   31.1750   43.6740 C   0  0  0  0  0  0  0  0  0  0  0  0
   47.5840   31.0700   44.9550 N   0  0  0  0  0  0  0  0  0  0  0  0
   46.3760   31.5220   45.3310 C   0  0  0  0  0  0  0  0  0  0  0  0
   45.5760   32.1060   44.4250 N   0  0  0  0  0  0  0  0  0  0  0  0
   45.2580   32.7290   42.4840 H   0  0  0  0  0  0  0  0  0  0  0  0
   49.0300   30.7990   43.4080 H   0  0  0  0  0  0  0  0  0  0  0  0
   45.3960   30.1860   47.1840 C   0  0  0  0  0  0  0  0  0  0  0  0
   45.9930   31.3490   46.7300 C   0  0  0  0  0  0  0  0  0  0  0  0
   46.2490   32.3900   47.5970 C   0  0  0  0  0  0  0  0  0  0  0  0
   46.7210   33.3400   47.3030 H   0  0  0  0  0  0  0  0  0  0  0  0
   45.9220   32.3250   48.9560 C   0  0  0  0  0  0  0  0  0  0  0  0
   46.1130   33.1300   49.6530 H   0  0  0  0  0  0  0  0  0  0  0  0
   45.3280   31.1550   49.3770 C   0  0  0  0  0  3  0  0  0  0  0  0
   45.0580   30.0940   48.5380 C   0  0  0  0  0  3  0  0  0  0  0  0
   45.5640   29.0980   44.8290 H   0  0  0  0  0  0  0  0  0  0  0  0
   45.0730   28.8660   46.0830 S   0  0  0  0  0  0  0  0  0  0  0  0
   45.5770   27.5580   46.6450 O   0  0  0  0  0  0  0  0  0  0  0  0
   43.5630   28.7520   45.9270 O   0  0  0  0  0  0  0  0  0  0  0  0
   47.6150   31.9430   41.3430 C   0  0  0  0  0  0  0  0  0  0  0  0
   46.7970   32.3740   40.7470 H   0  0  0  0  0  0  0  0  0  0  0  0
   47.9530   30.9520   40.9400 H   0  0  0  0  0  0  0  0  0  0  0  0
   48.8160   32.8620   41.2650 C   0  0  0  0  0  0  0  0  0  0  0  0
   49.4870   32.7830   42.1190 H   0  0  0  0  0  0  0  0  0  0  0  0
   48.4190   33.8960   41.1160 H   0  0  0  0  0  0  0  0  0  0  0  0
   49.3350   32.6110   40.2950 H   0  0  0  0  0  0  0  0  0  0  0  0
  1  6  1  0  0  0  0
  2  1  2  0  0  0  0
  2  3  1  0  0  0  0
  3  4  2  0  0  0  0
  4  5  1  0  0  0  0
  5 10  1  0  0  0  0
  6  5  2  0  0  0  0
  7  1  1  0  0  0  0
  8  3  1  0  0  0  0
  9 16  1  0  0  0  0
 10  9  2  0  0  0  0
 10 11  1  0  0  0  0
 11 13  2  0  0  0  0
 12 11  1  0  0  0  0
 13 15  1  0  0  0  0
 13 14  1  0  0  0  0
 16 15  2  0  0  0  0
 17 18  1  0  0  0  0
 18 19  2  0  0  0  0
 18  9  1  0  0  0  0
 20 18  2  0  0  0  0
 21  2  1  0  0  0  0
 22 21  1  0  0  0  0
 23 21  1  0  0  0  0
 24 21  1  0  0  0  0
 24 25  1  0  0  0  0
 26 24  1  0  0  0  0
 27 24  1  0  0  0  0
M  END
>  <minimizedAffinity>
-3.74451852

>  <minimizedRMSD>
2.61165619

$$$$
