
 OpenBabel03252506563D

 41 45  0  0  0  0  0  0  0  0999 V2000
   46.9620   31.2990   45.1050 C   0  0  0  0  0  0  0  0  0  0  0  0
   46.7580   32.6700   45.1750 C   0  0  0  0  0  0  0  0  0  0  0  0
   46.2760   33.3010   46.2990 C   0  0  0  0  0  0  0  0  0  0  0  0
   45.9710   32.5550   47.4340 C   0  0  0  0  0  0  0  0  0  0  0  0
   45.4920   32.8210   48.6810 N   0  0  0  0  0  0  0  0  0  0  0  0
   45.4040   31.6540   49.3580 C   0  0  0  0  0  0  0  0  0  0  0  0
   45.8270   30.6750   48.5260 N   0  0  0  0  0  0  0  0  0  0  0  0
   46.1790   31.2020   47.3420 C   0  0  0  0  0  0  0  0  0  0  0  0
   46.6600   30.5440   46.2310 C   0  0  0  0  0  0  0  0  0  0  0  0
   47.3450   30.8300   44.1980 H   0  0  0  0  0  0  0  0  0  0  0  0
   46.1110   34.3700   46.3700 H   0  0  0  0  0  0  0  0  0  0  0  0
   45.2750   33.8090   48.9300 H   0  0  0  0  0  0  0  0  0  0  0  0
   45.0470   31.6110   50.3760 H   0  0  0  0  0  0  0  0  0  0  0  0
   46.4820   35.1880   42.5130 C   0  0  0  0  0  0  0  0  0  0  0  0
   47.6630   35.0030   41.7940 C   0  0  0  0  0  0  0  0  0  0  0  0
   48.5490   34.0210   42.2190 C   0  0  0  0  0  0  0  0  0  0  0  0
   48.2330   33.2710   43.3250 N   0  0  0  0  0  0  0  0  0  0  0  0
   47.0700   33.4860   43.9950 C   0  0  0  0  0  0  0  0  0  0  0  0
   46.1910   34.4400   43.5970 N   0  0  0  0  0  0  0  0  0  0  0  0
   45.8150   35.9590   42.1580 H   0  0  0  0  0  0  0  0  0  0  0  0
   47.9470   35.5730   40.9190 H   0  0  0  0  0  0  0  0  0  0  0  0
   49.4890   33.7910   41.7420 H   0  0  0  0  0  0  0  0  0  0  0  0
   46.8440   29.0970   46.2450 C   0  0  0  0  0  0  0  0  0  0  0  0
   48.0480   28.4560   46.4760 C   0  0  0  0  0  0  0  0  0  0  0  0
   47.7550   27.0970   46.3960 C   0  0  0  0  0  0  0  0  0  0  0  0
   46.4100   26.9870   46.1240 C   0  0  0  0  0  0  0  0  0  0  0  0
   45.9200   28.2060   46.0460 O   0  0  0  0  0  0  0  0  0  0  0  0
   48.9870   28.9300   46.6720 H   0  0  0  0  0  0  0  0  0  0  0  0
   48.4690   26.2740   46.5260 H   0  0  0  0  0  0  0  0  0  0  0  0
   44.9740   25.2120   47.0260 C   0  0  0  0  0  0  0  0  0  0  0  0
   45.6560   25.7490   45.9540 C   0  0  0  0  0  0  0  0  0  0  0  0
   45.6350   25.1320   44.7190 C   0  0  0  0  0  0  0  0  0  0  0  0
   46.1740   25.5510   43.8590 H   0  0  0  0  0  0  0  0  0  0  0  0
   44.9450   23.9660   44.4880 C   0  0  0  0  0  0  0  0  0  0  0  0
   44.9110   23.4620   43.5330 H   0  0  0  0  0  0  0  0  0  0  0  0
   44.2540   23.4200   45.5740 C   0  0  0  0  0  3  0  0  0  0  0  0
   44.2810   24.0410   46.7970 C   0  0  0  0  0  3  0  0  0  0  0  0
   45.4260   27.2630   48.5690 H   0  0  0  0  0  0  0  0  0  0  0  0
   44.9840   25.9740   48.6020 S   0  0  0  0  0  0  0  0  0  0  0  0
   43.5580   25.9810   49.1190 O   0  0  0  0  0  0  0  0  0  0  0  0
   45.7800   25.1220   49.5780 O   0  0  0  0  0  0  0  0  0  0  0  0
  1  2  2  0  0  0  0
  1  9  1  0  0  0  0
  2  3  1  0  0  0  0
  3 11  1  0  0  0  0
  3  4  2  0  0  0  0
  4  5  1  0  0  0  0
  5 12  1  0  0  0  0
  5  6  1  0  0  0  0
  6 13  1  0  0  0  0
  7  6  2  0  0  0  0
  8  4  1  0  0  0  0
  8  7  1  0  0  0  0
  9 23  1  0  0  0  0
  9  8  2  0  0  0  0
 10  1  1  0  0  0  0
 14 19  1  0  0  0  0
 15 16  1  0  0  0  0
 15 14  2  0  0  0  0
 16 17  2  0  0  0  0
 17 18  1  0  0  0  0
 18  2  1  0  0  0  0
 19 18  2  0  0  0  0
 20 14  1  0  0  0  0
 21 15  1  0  0  0  0
 22 16  1  0  0  0  0
 23 24  2  0  0  0  0
 24 28  1  0  0  0  0
 25 24  1  0  0  0  0
 25 29  1  0  0  0  0
 26 25  2  0  0  0  0
 27 26  1  0  0  0  0
 27 23  1  0  0  0  0
 30 39  1  0  0  0  0
 31 26  1  0  0  0  0
 31 30  2  0  0  0  0
 32 31  1  0  0  0  0
 33 32  1  0  0  0  0
 34 32  2  0  0  0  0
 34 36  1  0  0  0  0
 35 34  1  0  0  0  0
 36 37  2  0  0  0  0
 37 30  1  0  0  0  0
 38 39  1  0  0  0  0
 39 40  2  0  0  0  0
 39 41  2  0  0  0  0
M  END
>  <minimizedAffinity>
-5.74915648

>  <minimizedRMSD>
1.22261918

$$$$
