
 OpenBabel03242516493D

 46 49  0  0  1  0  0  0  0  0999 V2000
   47.4200   32.4060   41.1540 C   0  0  1  0  0  0  0  0  0  0  0  0
   46.6930   31.7160   40.0700 C   0  0  0  0  0  0  0  0  0  0  0  0
   47.5230   31.9310   38.8070 C   0  0  0  0  0  0  0  0  0  0  0  0
   47.3820   33.4140   38.4680 C   0  0  0  0  0  0  0  0  0  0  0  0
   47.7290   34.3330   39.5690 C   0  0  0  0  0  0  0  0  0  0  0  0
   47.4730   33.9080   40.9570 C   0  0  1  0  0  0  0  0  0  0  0  0
   48.5090   32.1030   41.1010 H   0  0  0  0  0  0  0  0  0  0  0  0
   45.6700   32.0580   39.8930 H   0  0  0  0  0  0  0  0  0  0  0  0
   46.6750   30.6210   40.3300 H   0  0  0  0  0  0  0  0  0  0  0  0
   47.0450   31.3630   38.0010 H   0  0  0  0  0  0  0  0  0  0  0  0
   48.5810   31.6740   38.9800 H   0  0  0  0  0  0  0  0  0  0  0  0
   48.0710   33.5840   37.6060 H   0  0  0  0  0  0  0  0  0  0  0  0
   46.3640   33.5130   38.0550 H   0  0  0  0  0  0  0  0  0  0  0  0
   48.7900   34.6530   39.4450 H   0  0  0  0  0  0  0  0  0  0  0  0
   47.1520   35.2900   39.3980 H   0  0  0  0  0  0  0  0  0  0  0  0
   48.3060   34.2600   41.6070 H   0  0  0  0  0  0  0  0  0  0  0  0
   45.3490   31.0620   44.0130 C   0  0  0  0  0  0  0  0  0  0  0  0
   45.8150   31.3840   42.7410 C   0  0  0  0  0  0  0  0  0  0  0  0
   46.9870   32.0870   42.5090 C   0  0  0  0  0  0  0  0  0  0  0  0
   47.6710   32.4510   43.6070 N   0  0  0  0  0  0  0  0  0  0  0  0
   47.2350   32.1470   44.8530 C   0  0  0  0  0  0  0  0  0  0  0  0
   46.1010   31.4680   45.0630 N   0  0  0  0  0  0  0  0  0  0  0  0
   44.4150   30.5070   44.0810 H   0  0  0  0  0  0  0  0  0  0  0  0
   45.2380   31.0750   41.8680 H   0  0  0  0  0  0  0  0  0  0  0  0
   47.7870   32.4410   45.7420 H   0  0  0  0  0  0  0  0  0  0  0  0
   46.2670   34.5560   41.5270 C   0  0  0  0  0  0  0  0  0  0  0  0
   46.2290   35.3930   42.6450 C   0  0  0  0  0  0  0  0  0  0  0  0
   44.9670   35.8970   42.9670 C   0  0  0  0  0  0  0  0  0  0  0  0
   43.8970   35.5440   42.1890 C   0  0  0  0  0  0  0  0  0  0  0  0
   43.9410   34.7250   41.1020 C   0  0  0  0  0  0  0  0  0  0  0  0
   45.1680   34.2370   40.7880 N   0  0  0  0  0  0  0  0  0  0  0  0
   47.1510   35.5530   43.1220 H   0  0  0  0  0  0  0  0  0  0  0  0
   44.9490   36.5400   43.8290 H   0  0  0  0  0  0  0  0  0  0  0  0
   43.0110   36.0280   42.5330 H   0  0  0  0  0  0  0  0  0  0  0  0
   41.9610   33.3250   40.2900 C   0  0  0  0  0  0  0  0  0  0  0  0
   42.8100   34.3940   40.2420 C   0  0  0  0  0  0  0  0  0  0  0  0
   42.5920   35.2820   39.1990 C   0  0  0  0  0  0  0  0  0  0  0  0
   43.2000   36.1630   39.0720 H   0  0  0  0  0  0  0  0  0  0  0  0
   41.6160   35.1640   38.2460 C   0  0  0  0  0  0  0  0  0  0  0  0
   41.4690   35.8730   37.4440 H   0  0  0  0  0  0  0  0  0  0  0  0
   40.7570   34.0890   38.2910 C   0  0  0  0  0  3  0  0  0  0  0  0
   40.9590   33.1970   39.3190 C   0  0  0  0  0  3  0  0  0  0  0  0
   42.7820   32.5840   42.6290 H   0  0  0  0  0  0  0  0  0  0  0  0
   42.1850   32.1210   41.4920 S   0  0  0  0  0  0  0  0  0  0  0  0
   42.7390   30.8190   40.9880 O   0  0  0  0  0  0  0  0  0  0  0  0
   40.7670   31.7450   41.9720 O   0  0  0  0  0  0  0  0  0  0  0  0
  1  7  1  6  0  0  0
  1 19  1  0  0  0  0
  2  9  1  0  0  0  0
  2  1  1  0  0  0  0
  3 11  1  0  0  0  0
  3  2  1  0  0  0  0
  4  3  1  0  0  0  0
  4  5  1  0  0  0  0
  5  6  1  0  0  0  0
  6  1  1  0  0  0  0
  6 26  1  0  0  0  0
  6 16  1  1  0  0  0
  8  2  1  0  0  0  0
 10  3  1  0  0  0  0
 12  4  1  0  0  0  0
 13  4  1  0  0  0  0
 14  5  1  0  0  0  0
 15  5  1  0  0  0  0
 17 23  1  0  0  0  0
 17 22  1  0  0  0  0
 18 17  2  0  0  0  0
 19 18  1  0  0  0  0
 19 20  2  0  0  0  0
 20 21  1  0  0  0  0
 21 22  2  0  0  0  0
 21 25  1  0  0  0  0
 24 18  1  0  0  0  0
 26 27  1  0  0  0  0
 27 28  2  0  0  0  0
 27 32  1  0  0  0  0
 28 33  1  0  0  0  0
 29 34  1  0  0  0  0
 29 28  1  0  0  0  0
 30 29  2  0  0  0  0
 31 30  1  0  0  0  0
 31 26  2  0  0  0  0
 35 44  1  0  0  0  0
 36 35  1  0  0  0  0
 36 30  1  0  0  0  0
 37 36  2  0  0  0  0
 38 37  1  0  0  0  0
 39 41  2  0  0  0  0
 39 37  1  0  0  0  0
 40 39  1  0  0  0  0
 41 42  1  0  0  0  0
 42 35  2  0  0  0  0
 44 46  2  0  0  0  0
 44 43  1  0  0  0  0
 45 44  2  0  0  0  0
M  END
>  <minimizedAffinity>
-5.61890316

>  <minimizedRMSD>
1.16877139

$$$$
