
 OpenBabel03242516213D

 31 33  0  0  0  0  0  0  0  0999 V2000
   36.9530   29.9040   39.2870 C   0  0  0  0  0  0  0  0  0  0  0  0
   37.2730   28.7250   39.8980 C   0  0  0  0  0  0  0  0  0  0  0  0
   36.6180   27.5380   39.6510 C   0  0  0  0  0  0  0  0  0  0  0  0
   35.5740   27.5230   38.7340 C   0  0  0  0  0  0  0  0  0  0  0  0
   35.2300   28.6820   38.1060 C   0  0  0  0  0  0  0  0  0  0  0  0
   35.9180   29.8480   38.3890 C   0  0  0  0  0  0  0  0  0  0  0  0
   38.0770   28.7020   40.6200 H   0  0  0  0  0  0  0  0  0  0  0  0
   35.0270   26.6190   38.5020 H   0  0  0  0  0  0  0  0  0  0  0  0
   34.4180   28.7180   37.3790 H   0  0  0  0  0  0  0  0  0  0  0  0
   35.6210   30.7570   37.8740 H   0  0  0  0  0  0  0  0  0  0  0  0
   39.7170   32.1050   40.2020 C   0  0  0  0  0  0  0  0  0  0  0  0
   39.1640   33.3830   40.1760 C   0  0  0  0  0  0  0  0  0  0  0  0
   37.8130   33.4960   39.8370 C   0  0  0  0  0  0  0  0  0  0  0  0
   37.1130   32.3560   39.5520 N   0  0  0  0  0  0  0  0  0  0  0  0
   37.6790   31.1320   39.5870 C   0  0  0  0  0  0  0  0  0  0  0  0
   38.9990   31.0180   39.9170 N   0  0  0  0  0  0  0  0  0  0  0  0
   40.7610   31.9660   40.4600 H   0  0  0  0  0  0  0  0  0  0  0  0
   39.7230   34.2590   40.4000 H   0  0  0  0  0  0  0  0  0  0  0  0
   37.3190   34.4570   39.7970 H   0  0  0  0  0  0  0  0  0  0  0  0
   37.1840   26.0220   41.5990 C   0  0  0  0  0  0  0  0  0  0  0  0
   36.9140   26.2500   40.2660 C   0  0  0  0  0  0  0  0  0  0  0  0
   36.9170   25.1550   39.4190 C   0  0  0  0  0  0  0  0  0  0  0  0
   36.7180   25.2100   38.3440 H   0  0  0  0  0  0  0  0  0  0  0  0
   37.1790   23.8740   39.8840 C   0  0  0  0  0  0  0  0  0  0  0  0
   37.1940   22.9830   39.2640 H   0  0  0  0  0  0  0  0  0  0  0  0
   37.4440   23.6860   41.2230 C   0  0  0  0  0  3  0  0  0  0  0  0
   37.4480   24.7600   42.0900 C   0  0  0  0  0  3  0  0  0  0  0  0
   37.1580   28.5860   42.0310 H   0  0  0  0  0  0  0  0  0  0  0  0
   37.1920   27.3880   42.6740 S   0  0  0  0  0  0  0  0  0  0  0  0
   36.0600   27.3430   43.6790 O   0  0  0  0  0  0  0  0  0  0  0  0
   38.4870   27.3740   43.4790 O   0  0  0  0  0  0  0  0  0  0  0  0
  1 15  1  0  0  0  0
  1  2  1  0  0  0  0
  2  7  1  0  0  0  0
  3  2  2  0  0  0  0
  3 21  1  0  0  0  0
  4  3  1  0  0  0  0
  5  6  1  0  0  0  0
  5  4  2  0  0  0  0
  6  1  2  0  0  0  0
  8  4  1  0  0  0  0
  9  5  1  0  0  0  0
 10  6  1  0  0  0  0
 11 17  1  0  0  0  0
 12 11  1  0  0  0  0
 12 18  1  0  0  0  0
 13 12  2  0  0  0  0
 14 15  2  0  0  0  0
 14 13  1  0  0  0  0
 15 16  1  0  0  0  0
 16 11  2  0  0  0  0
 19 13  1  0  0  0  0
 20 27  1  0  0  0  0
 20 29  1  0  0  0  0
 21 20  2  0  0  0  0
 22 24  2  0  0  0  0
 22 21  1  0  0  0  0
 23 22  1  0  0  0  0
 24 26  1  0  0  0  0
 25 24  1  0  0  0  0
 26 27  2  0  0  0  0
 28 29  1  0  0  0  0
 29 31  2  0  0  0  0
 29 30  2  0  0  0  0
M  END
>  <minimizedAffinity>
-5.43471718

$$$$

 OpenBabel03242516213D

 31 33  0  0  0  0  0  0  0  0999 V2000
   37.3350   29.0460   41.2760 C   0  0  0  0  0  0  0  0  0  0  0  0
   37.4580   27.7850   40.7640 C   0  0  0  0  0  0  0  0  0  0  0  0
   37.4640   26.6470   41.5410 C   0  0  0  0  0  0  0  0  0  0  0  0
   37.3400   26.7700   42.9200 C   0  0  0  0  0  0  0  0  0  0  0  0
   37.2150   28.0140   43.4620 C   0  0  0  0  0  0  0  0  0  0  0  0
   37.2150   29.1260   42.6390 C   0  0  0  0  0  0  0  0  0  0  0  0
   37.5610   27.6530   39.6970 H   0  0  0  0  0  0  0  0  0  0  0  0
   37.3380   25.9100   43.5750 H   0  0  0  0  0  0  0  0  0  0  0  0
   37.1150   28.1600   44.5380 H   0  0  0  0  0  0  0  0  0  0  0  0
   37.1150   30.1050   43.0990 H   0  0  0  0  0  0  0  0  0  0  0  0
   37.2760   31.0320   38.2130 C   0  0  0  0  0  0  0  0  0  0  0  0
   37.3300   32.3510   38.6570 C   0  0  0  0  0  0  0  0  0  0  0  0
   37.3870   32.5680   40.0360 C   0  0  0  0  0  0  0  0  0  0  0  0
   37.3890   31.4830   40.8690 N   0  0  0  0  0  0  0  0  0  0  0  0
   37.3360   30.2160   40.4070 C   0  0  0  0  0  0  0  0  0  0  0  0
   37.2790   30.0010   39.0610 N   0  0  0  0  0  0  0  0  0  0  0  0
   37.2300   30.8120   37.1530 H   0  0  0  0  0  0  0  0  0  0  0  0
   37.3280   33.1830   37.9960 H   0  0  0  0  0  0  0  0  0  0  0  0
   37.4310   33.5660   40.4500 H   0  0  0  0  0  0  0  0  0  0  0  0
   38.7470   24.5330   40.9910 C   0  0  0  0  0  0  0  0  0  0  0  0
   37.5870   25.2770   41.0560 C   0  0  0  0  0  0  0  0  0  0  0  0
   36.4180   24.6740   40.6270 C   0  0  0  0  0  0  0  0  0  0  0  0
   35.4380   25.1620   40.6300 H   0  0  0  0  0  0  0  0  0  0  0  0
   36.4020   23.3710   40.1480 C   0  0  0  0  0  0  0  0  0  0  0  0
   35.5150   22.8520   39.8000 H   0  0  0  0  0  0  0  0  0  0  0  0
   37.5810   22.6590   40.0980 C   0  0  0  0  0  3  0  0  0  0  0  0
   38.7620   23.2360   40.5200 C   0  0  0  0  0  3  0  0  0  0  0  0
   40.1340   26.6300   41.6530 H   0  0  0  0  0  0  0  0  0  0  0  0
   40.2240   25.2800   41.5190 S   0  0  0  0  0  0  0  0  0  0  0  0
   40.7390   24.6950   42.8180 O   0  0  0  0  0  0  0  0  0  0  0  0
   41.3050   25.0290   40.4730 O   0  0  0  0  0  0  0  0  0  0  0  0
  1  6  1  0  0  0  0
  2  1  2  0  0  0  0
  2  3  1  0  0  0  0
  3  4  2  0  0  0  0
  4  5  1  0  0  0  0
  4  8  1  0  0  0  0
  5  9  1  0  0  0  0
  6 10  1  0  0  0  0
  6  5  2  0  0  0  0
  7  2  1  0  0  0  0
 11 12  2  0  0  0  0
 11 16  1  0  0  0  0
 12 13  1  0  0  0  0
 13 19  1  0  0  0  0
 13 14  2  0  0  0  0
 15 14  1  0  0  0  0
 15  1  1  0  0  0  0
 16 15  2  0  0  0  0
 17 11  1  0  0  0  0
 18 12  1  0  0  0  0
 20 21  1  0  0  0  0
 20 29  1  0  0  0  0
 21  3  1  0  0  0  0
 22 23  1  0  0  0  0
 22 21  2  0  0  0  0
 24 22  1  0  0  0  0
 25 24  1  0  0  0  0
 26 24  2  0  0  0  0
 26 27  1  0  0  0  0
 27 20  2  0  0  0  0
 29 28  1  0  0  0  0
 29 30  2  0  0  0  0
 31 29  2  0  0  0  0
M  END
>  <minimizedAffinity>
-5.36783314

$$$$

 OpenBabel03242516213D

 31 33  0  0  0  0  0  0  0  0999 V2000
   37.7600   30.7000   40.7400 C   0  0  0  0  0  0  0  0  0  0  0  0
   38.2480   29.4770   41.1050 C   0  0  0  0  0  0  0  0  0  0  0  0
   37.4590   28.3580   41.2550 C   0  0  0  0  0  0  0  0  0  0  0  0
   36.0920   28.4610   41.0260 C   0  0  0  0  0  0  0  0  0  0  0  0
   35.5730   29.6670   40.6610 C   0  0  0  0  0  0  0  0  0  0  0  0
   36.4080   30.7610   40.5240 C   0  0  0  0  0  0  0  0  0  0  0  0
   39.3060   29.3620   41.2950 H   0  0  0  0  0  0  0  0  0  0  0  0
   35.4270   27.6140   41.1290 H   0  0  0  0  0  0  0  0  0  0  0  0
   34.5070   29.7950   40.4700 H   0  0  0  0  0  0  0  0  0  0  0  0
   35.9670   31.7100   40.2320 H   0  0  0  0  0  0  0  0  0  0  0  0
   38.8130   34.1600   40.2420 C   0  0  0  0  0  0  0  0  0  0  0  0
   40.2020   34.1100   40.3100 C   0  0  0  0  0  0  0  0  0  0  0  0
   40.7960   32.8650   40.5310 C   0  0  0  0  0  0  0  0  0  0  0  0
   39.9870   31.7710   40.6680 N   0  0  0  0  0  0  0  0  0  0  0  0
   38.6420   31.8520   40.5970 C   0  0  0  0  0  0  0  0  0  0  0  0
   38.0590   33.0680   40.3820 N   0  0  0  0  0  0  0  0  0  0  0  0
   38.3060   35.1030   40.0720 H   0  0  0  0  0  0  0  0  0  0  0  0
   40.8170   34.9710   40.2020 H   0  0  0  0  0  0  0  0  0  0  0  0
   41.8700   32.7530   40.5950 H   0  0  0  0  0  0  0  0  0  0  0  0
   39.2140   26.6660   41.9400 C   0  0  0  0  0  0  0  0  0  0  0  0
   37.9180   27.0280   41.6370 C   0  0  0  0  0  0  0  0  0  0  0  0
   36.9490   26.0420   41.7030 C   0  0  0  0  0  0  0  0  0  0  0  0
   35.8890   26.2080   41.4840 H   0  0  0  0  0  0  0  0  0  0  0  0
   37.2580   24.7370   42.0600 C   0  0  0  0  0  0  0  0  0  0  0  0
   36.5380   23.9280   42.1260 H   0  0  0  0  0  0  0  0  0  0  0  0
   38.5640   24.4130   42.3560 C   0  0  0  0  0  3  0  0  0  0  0  0
   39.5520   25.3760   42.2980 C   0  0  0  0  0  3  0  0  0  0  0  0
   40.0460   29.0150   41.2020 H   0  0  0  0  0  0  0  0  0  0  0  0
   40.4440   27.8900   41.8540 S   0  0  0  0  0  0  0  0  0  0  0  0
   40.9730   28.2800   43.2190 O   0  0  0  0  0  0  0  0  0  0  0  0
   41.6310   27.3420   41.0700 O   0  0  0  0  0  0  0  0  0  0  0  0
  1  2  1  0  0  0  0
  2  3  2  0  0  0  0
  2  7  1  0  0  0  0
  3 21  1  0  0  0  0
  4  8  1  0  0  0  0
  4  3  1  0  0  0  0
  5  4  2  0  0  0  0
  6  5  1  0  0  0  0
  6  1  2  0  0  0  0
  9  5  1  0  0  0  0
 10  6  1  0  0  0  0
 11 12  2  0  0  0  0
 11 16  1  0  0  0  0
 12 13  1  0  0  0  0
 13 19  1  0  0  0  0
 13 14  2  0  0  0  0
 15 14  1  0  0  0  0
 15  1  1  0  0  0  0
 16 15  2  0  0  0  0
 17 11  1  0  0  0  0
 18 12  1  0  0  0  0
 20 27  1  0  0  0  0
 21 22  1  0  0  0  0
 21 20  2  0  0  0  0
 22 24  2  0  0  0  0
 23 22  1  0  0  0  0
 24 25  1  0  0  0  0
 24 26  1  0  0  0  0
 27 26  2  0  0  0  0
 28 29  1  0  0  0  0
 29 20  1  0  0  0  0
 29 30  2  0  0  0  0
 31 29  2  0  0  0  0
M  END
>  <minimizedAffinity>
-5.32830381

$$$$

 OpenBabel03242516213D

 31 33  0  0  0  0  0  0  0  0999 V2000
   39.1730   31.8600   39.2700 C   0  0  0  0  0  0  0  0  0  0  0  0
   38.9950   30.7100   39.9860 C   0  0  0  0  0  0  0  0  0  0  0  0
   37.8470   30.4220   40.6910 C   0  0  0  0  0  0  0  0  0  0  0  0
   36.8040   31.3410   40.6840 C   0  0  0  0  0  0  0  0  0  0  0  0
   36.9490   32.4980   39.9790 C   0  0  0  0  0  0  0  0  0  0  0  0
   38.1220   32.7390   39.2870 C   0  0  0  0  0  0  0  0  0  0  0  0
   39.7880   29.9760   40.0170 H   0  0  0  0  0  0  0  0  0  0  0  0
   35.8800   31.1660   41.2190 H   0  0  0  0  0  0  0  0  0  0  0  0
   36.1570   33.2470   39.9440 H   0  0  0  0  0  0  0  0  0  0  0  0
   38.2100   33.6710   38.7350 H   0  0  0  0  0  0  0  0  0  0  0  0
   42.1380   33.6210   38.0740 C   0  0  0  0  0  0  0  0  0  0  0  0
   42.7570   32.7120   37.2200 C   0  0  0  0  0  0  0  0  0  0  0  0
   42.1480   31.4670   37.0480 C   0  0  0  0  0  0  0  0  0  0  0  0
   40.9860   31.2090   37.7210 N   0  0  0  0  0  0  0  0  0  0  0  0
   40.4100   32.1120   38.5430 C   0  0  0  0  0  0  0  0  0  0  0  0
   41.0030   33.3300   38.7130 N   0  0  0  0  0  0  0  0  0  0  0  0
   42.5720   34.6010   38.2400 H   0  0  0  0  0  0  0  0  0  0  0  0
   43.6610   32.9290   36.7040 H   0  0  0  0  0  0  0  0  0  0  0  0
   42.5740   30.7140   36.3990 H   0  0  0  0  0  0  0  0  0  0  0  0
   37.1650   28.0000   40.9780 C   0  0  0  0  0  0  0  0  0  0  0  0
   37.5960   29.2150   41.4690 C   0  0  0  0  0  0  0  0  0  0  0  0
   37.8200   29.3090   42.8320 C   0  0  0  0  0  0  0  0  0  0  0  0
   38.1620   30.2180   43.3370 H   0  0  0  0  0  0  0  0  0  0  0  0
   37.6230   28.2280   43.6800 C   0  0  0  0  0  0  0  0  0  0  0  0
   37.7840   28.2470   44.7520 H   0  0  0  0  0  0  0  0  0  0  0  0
   37.1920   27.0300   43.1520 C   0  0  0  0  0  3  0  0  0  0  0  0
   36.9600   26.9080   41.7970 C   0  0  0  0  0  3  0  0  0  0  0  0
   37.7230   28.6110   38.5140 H   0  0  0  0  0  0  0  0  0  0  0  0
   36.8710   27.8690   39.2710 S   0  0  0  0  0  0  0  0  0  0  0  0
   36.9080   26.4360   38.7830 O   0  0  0  0  0  0  0  0  0  0  0  0
   35.4710   28.3930   38.9700 O   0  0  0  0  0  0  0  0  0  0  0  0
  1  6  2  0  0  0  0
  1  2  1  0  0  0  0
  2  7  1  0  0  0  0
  2  3  2  0  0  0  0
  3 21  1  0  0  0  0
  4  3  1  0  0  0  0
  4  8  1  0  0  0  0
  5  4  2  0  0  0  0
  6  5  1  0  0  0  0
  9  5  1  0  0  0  0
 10  6  1  0  0  0  0
 11 17  1  0  0  0  0
 11 16  1  0  0  0  0
 12 11  2  0  0  0  0
 13 12  1  0  0  0  0
 13 14  2  0  0  0  0
 14 15  1  0  0  0  0
 15 16  2  0  0  0  0
 15  1  1  0  0  0  0
 18 12  1  0  0  0  0
 19 13  1  0  0  0  0
 20 21  2  0  0  0  0
 20 27  1  0  0  0  0
 21 22  1  0  0  0  0
 22 23  1  0  0  0  0
 22 24  2  0  0  0  0
 24 25  1  0  0  0  0
 26 24  1  0  0  0  0
 27 26  2  0  0  0  0
 28 29  1  0  0  0  0
 29 20  1  0  0  0  0
 30 29  2  0  0  0  0
 31 29  2  0  0  0  0
M  END
>  <minimizedAffinity>
-5.22336006

$$$$

 OpenBabel03242516213D

 31 33  0  0  0  0  0  0  0  0999 V2000
   37.3200   26.4880   41.5760 C   0  0  0  0  0  0  0  0  0  0  0  0
   37.6000   27.7240   41.0680 C   0  0  0  0  0  0  0  0  0  0  0  0
   37.5240   28.8850   41.8080 C   0  0  0  0  0  0  0  0  0  0  0  0
   37.1430   28.8100   43.1420 C   0  0  0  0  0  0  0  0  0  0  0  0
   36.8580   27.5910   43.6800 C   0  0  0  0  0  0  0  0  0  0  0  0
   36.9490   26.4560   42.8950 C   0  0  0  0  0  0  0  0  0  0  0  0
   37.8940   27.8200   40.0330 H   0  0  0  0  0  0  0  0  0  0  0  0
   37.0680   29.6890   43.7680 H   0  0  0  0  0  0  0  0  0  0  0  0
   36.5560   27.4840   44.7220 H   0  0  0  0  0  0  0  0  0  0  0  0
   36.7150   25.4970   43.3510 H   0  0  0  0  0  0  0  0  0  0  0  0
   37.7030   22.9690   40.6800 C   0  0  0  0  0  0  0  0  0  0  0  0
   37.6160   22.9570   39.2900 C   0  0  0  0  0  0  0  0  0  0  0  0
   37.4210   24.1790   38.6420 C   0  0  0  0  0  0  0  0  0  0  0  0
   37.3280   25.3130   39.4010 N   0  0  0  0  0  0  0  0  0  0  0  0
   37.4170   25.2920   40.7480 C   0  0  0  0  0  0  0  0  0  0  0  0
   37.6060   24.0990   41.3830 N   0  0  0  0  0  0  0  0  0  0  0  0
   37.8540   22.0470   41.2280 H   0  0  0  0  0  0  0  0  0  0  0  0
   37.6900   22.0650   38.7150 H   0  0  0  0  0  0  0  0  0  0  0  0
   37.3440   24.2430   37.5660 H   0  0  0  0  0  0  0  0  0  0  0  0
   38.9910   30.9260   41.4970 C   0  0  0  0  0  0  0  0  0  0  0  0
   37.8120   30.2300   41.3260 C   0  0  0  0  0  0  0  0  0  0  0  0
   36.7970   30.8590   40.6260 C   0  0  0  0  0  0  0  0  0  0  0  0
   35.8180   30.4100   40.4280 H   0  0  0  0  0  0  0  0  0  0  0  0
   36.9500   32.1390   40.1120 C   0  0  0  0  0  0  0  0  0  0  0  0
   36.1880   32.6770   39.5570 H   0  0  0  0  0  0  0  0  0  0  0  0
   38.1430   32.8030   40.3030 C   0  0  0  0  0  3  0  0  0  0  0  0
   39.1720   32.1990   40.9970 C   0  0  0  0  0  3  0  0  0  0  0  0
   39.8450   29.4900   43.4890 H   0  0  0  0  0  0  0  0  0  0  0  0
   40.2720   30.1520   42.3800 S   0  0  0  0  0  0  0  0  0  0  0  0
   41.0760   29.1980   41.5220 O   0  0  0  0  0  0  0  0  0  0  0  0
   41.2460   31.2180   42.8710 O   0  0  0  0  0  0  0  0  0  0  0  0
  1  6  1  0  0  0  0
  2  1  2  0  0  0  0
  2  3  1  0  0  0  0
  3  4  2  0  0  0  0
  4  5  1  0  0  0  0
  4  8  1  0  0  0  0
  5  9  1  0  0  0  0
  6 10  1  0  0  0  0
  6  5  2  0  0  0  0
  7  2  1  0  0  0  0
 11 17  1  0  0  0  0
 11 16  1  0  0  0  0
 12 11  2  0  0  0  0
 13 12  1  0  0  0  0
 13 14  2  0  0  0  0
 14 15  1  0  0  0  0
 15 16  2  0  0  0  0
 15  1  1  0  0  0  0
 18 12  1  0  0  0  0
 19 13  1  0  0  0  0
 20 29  1  0  0  0  0
 21 20  1  0  0  0  0
 21  3  1  0  0  0  0
 22 21  2  0  0  0  0
 23 22  1  0  0  0  0
 24 26  2  0  0  0  0
 24 22  1  0  0  0  0
 25 24  1  0  0  0  0
 26 27  1  0  0  0  0
 27 20  2  0  0  0  0
 29 31  2  0  0  0  0
 29 28  1  0  0  0  0
 30 29  2  0  0  0  0
M  END
>  <minimizedAffinity>
-5.19201565

$$$$

 OpenBabel03242516213D

 31 33  0  0  0  0  0  0  0  0999 V2000
   37.7040   26.5060   41.7570 C   0  0  0  0  0  0  0  0  0  0  0  0
   38.4320   27.6070   41.4080 C   0  0  0  0  0  0  0  0  0  0  0  0
   38.4460   28.7740   42.1420 C   0  0  0  0  0  0  0  0  0  0  0  0
   37.6850   28.8490   43.3030 C   0  0  0  0  0  0  0  0  0  0  0  0
   36.9470   27.7660   43.6790 C   0  0  0  0  0  0  0  0  0  0  0  0
   36.9670   26.6190   42.9080 C   0  0  0  0  0  0  0  0  0  0  0  0
   39.0320   27.5850   40.5090 H   0  0  0  0  0  0  0  0  0  0  0  0
   37.6600   29.7390   43.9160 H   0  0  0  0  0  0  0  0  0  0  0  0
   36.3360   27.7790   44.5820 H   0  0  0  0  0  0  0  0  0  0  0  0
   36.3690   25.7710   43.2320 H   0  0  0  0  0  0  0  0  0  0  0  0
   37.7910   24.3840   38.7870 C   0  0  0  0  0  0  0  0  0  0  0  0
   37.7710   23.0860   39.2910 C   0  0  0  0  0  0  0  0  0  0  0  0
   37.7280   22.9310   40.6790 C   0  0  0  0  0  0  0  0  0  0  0  0
   37.7060   24.0510   41.4620 N   0  0  0  0  0  0  0  0  0  0  0  0
   37.7260   25.2970   40.9420 C   0  0  0  0  0  0  0  0  0  0  0  0
   37.7690   25.4530   39.5870 N   0  0  0  0  0  0  0  0  0  0  0  0
   37.8240   24.5570   37.7180 H   0  0  0  0  0  0  0  0  0  0  0  0
   37.7890   22.2250   38.6670 H   0  0  0  0  0  0  0  0  0  0  0  0
   37.7100   21.9510   41.1370 H   0  0  0  0  0  0  0  0  0  0  0  0
   38.8040   30.9980   40.9860 C   0  0  0  0  0  0  0  0  0  0  0  0
   39.2020   29.9790   41.8260 C   0  0  0  0  0  0  0  0  0  0  0  0
   40.4370   30.1030   42.4380 C   0  0  0  0  0  0  0  0  0  0  0  0
   40.8610   29.3620   43.1230 H   0  0  0  0  0  0  0  0  0  0  0  0
   41.2510   31.2070   42.2220 C   0  0  0  0  0  0  0  0  0  0  0  0
   42.2250   31.3540   42.6750 H   0  0  0  0  0  0  0  0  0  0  0  0
   40.8190   32.2060   41.3760 C   0  0  0  0  0  3  0  0  0  0  0  0
   39.5910   32.1080   40.7520 C   0  0  0  0  0  3  0  0  0  0  0  0
   37.0550   29.6390   39.6260 H   0  0  0  0  0  0  0  0  0  0  0  0
   37.2590   30.8520   40.2040 S   0  0  0  0  0  0  0  0  0  0  0  0
   36.1040   31.1470   41.1390 O   0  0  0  0  0  0  0  0  0  0  0  0
   37.1780   31.8780   39.0780 O   0  0  0  0  0  0  0  0  0  0  0  0
  1  6  1  0  0  0  0
  2  1  2  0  0  0  0
  2  3  1  0  0  0  0
  3  4  2  0  0  0  0
  4  5  1  0  0  0  0
  4  8  1  0  0  0  0
  5  9  1  0  0  0  0
  6 10  1  0  0  0  0
  6  5  2  0  0  0  0
  7  2  1  0  0  0  0
 11 12  2  0  0  0  0
 11 16  1  0  0  0  0
 12 13  1  0  0  0  0
 13 19  1  0  0  0  0
 13 14  2  0  0  0  0
 15 14  1  0  0  0  0
 15  1  1  0  0  0  0
 16 15  2  0  0  0  0
 17 11  1  0  0  0  0
 18 12  1  0  0  0  0
 20 21  1  0  0  0  0
 21  3  1  0  0  0  0
 21 22  2  0  0  0  0
 22 23  1  0  0  0  0
 24 22  1  0  0  0  0
 24 25  1  0  0  0  0
 26 24  2  0  0  0  0
 27 20  2  0  0  0  0
 27 26  1  0  0  0  0
 28 29  1  0  0  0  0
 29 20  1  0  0  0  0
 29 30  2  0  0  0  0
 31 29  2  0  0  0  0
M  END
>  <minimizedAffinity>
-5.18315887

$$$$

 OpenBabel03242516213D

 31 33  0  0  0  0  0  0  0  0999 V2000
   38.0200   30.6160   39.7660 C   0  0  0  0  0  0  0  0  0  0  0  0
   38.1260   29.2570   39.8660 C   0  0  0  0  0  0  0  0  0  0  0  0
   37.1450   28.4570   40.4110 C   0  0  0  0  0  0  0  0  0  0  0  0
   35.9810   29.0470   40.8870 C   0  0  0  0  0  0  0  0  0  0  0  0
   35.8440   30.4000   40.8010 C   0  0  0  0  0  0  0  0  0  0  0  0
   36.8570   31.1590   40.2460 C   0  0  0  0  0  0  0  0  0  0  0  0
   39.0200   28.7660   39.5090 H   0  0  0  0  0  0  0  0  0  0  0  0
   35.1800   28.4650   41.3240 H   0  0  0  0  0  0  0  0  0  0  0  0
   34.9470   30.9060   41.1620 H   0  0  0  0  0  0  0  0  0  0  0  0
   36.7200   32.2360   40.1910 H   0  0  0  0  0  0  0  0  0  0  0  0
   40.4380   33.3200   39.3590 C   0  0  0  0  0  0  0  0  0  0  0  0
   41.1030   33.0130   38.1750 C   0  0  0  0  0  0  0  0  0  0  0  0
   40.7160   31.8530   37.4980 C   0  0  0  0  0  0  0  0  0  0  0  0
   39.7150   31.0890   38.0300 N   0  0  0  0  0  0  0  0  0  0  0  0
   39.0890   31.4150   39.1800 C   0  0  0  0  0  0  0  0  0  0  0  0
   39.4650   32.5470   39.8440 N   0  0  0  0  0  0  0  0  0  0  0  0
   40.7010   34.2090   39.9200 H   0  0  0  0  0  0  0  0  0  0  0  0
   41.8800   33.6180   37.7750 H   0  0  0  0  0  0  0  0  0  0  0  0
   41.1900   31.5540   36.5730 H   0  0  0  0  0  0  0  0  0  0  0  0
   37.8310   26.2970   41.5410 C   0  0  0  0  0  0  0  0  0  0  0  0
   37.1970   27.0060   40.5430 C   0  0  0  0  0  0  0  0  0  0  0  0
   36.5350   26.2800   39.5670 C   0  0  0  0  0  0  0  0  0  0  0  0
   35.9970   26.7300   38.7260 H   0  0  0  0  0  0  0  0  0  0  0  0
   36.5060   24.8920   39.5840 C   0  0  0  0  0  0  0  0  0  0  0  0
   36.0040   24.2760   38.8450 H   0  0  0  0  0  0  0  0  0  0  0  0
   37.1520   24.2190   40.5980 C   0  0  0  0  0  3  0  0  0  0  0  0
   37.8190   24.9170   41.5840 C   0  0  0  0  0  3  0  0  0  0  0  0
   39.6070   28.0480   42.2740 H   0  0  0  0  0  0  0  0  0  0  0  0
   38.6720   27.1940   42.7690 S   0  0  0  0  0  0  0  0  0  0  0  0
   37.7330   27.9690   43.6690 O   0  0  0  0  0  0  0  0  0  0  0  0
   39.4240   26.2160   43.6660 O   0  0  0  0  0  0  0  0  0  0  0  0
  1  2  2  0  0  0  0
  1  6  1  0  0  0  0
  2  3  1  0  0  0  0
  3 21  1  0  0  0  0
  3  4  2  0  0  0  0
  4  8  1  0  0  0  0
  5  4  1  0  0  0  0
  5  9  1  0  0  0  0
  6  5  2  0  0  0  0
  7  2  1  0  0  0  0
 10  6  1  0  0  0  0
 11 16  1  0  0  0  0
 11 17  1  0  0  0  0
 12 11  2  0  0  0  0
 13 14  2  0  0  0  0
 13 12  1  0  0  0  0
 14 15  1  0  0  0  0
 15  1  1  0  0  0  0
 15 16  2  0  0  0  0
 18 12  1  0  0  0  0
 19 13  1  0  0  0  0
 20 27  1  0  0  0  0
 20 29  1  0  0  0  0
 21 20  2  0  0  0  0
 22 24  2  0  0  0  0
 22 21  1  0  0  0  0
 23 22  1  0  0  0  0
 24 26  1  0  0  0  0
 25 24  1  0  0  0  0
 26 27  2  0  0  0  0
 28 29  1  0  0  0  0
 29 31  2  0  0  0  0
 29 30  2  0  0  0  0
M  END
>  <minimizedAffinity>
-5.18311405

$$$$

 OpenBabel03242516213D

 31 33  0  0  0  0  0  0  0  0999 V2000
   37.6070   30.3900   40.8110 C   0  0  0  0  0  0  0  0  0  0  0  0
   38.3910   29.3370   41.1880 C   0  0  0  0  0  0  0  0  0  0  0  0
   37.8980   28.0750   41.4410 C   0  0  0  0  0  0  0  0  0  0  0  0
   36.5330   27.8460   41.3110 C   0  0  0  0  0  0  0  0  0  0  0  0
   35.7240   28.8760   40.9360 C   0  0  0  0  0  0  0  0  0  0  0  0
   36.2680   30.1240   40.6930 C   0  0  0  0  0  0  0  0  0  0  0  0
   39.4560   29.4810   41.3030 H   0  0  0  0  0  0  0  0  0  0  0  0
   36.0940   26.8750   41.4970 H   0  0  0  0  0  0  0  0  0  0  0  0
   34.6480   28.7430   40.8200 H   0  0  0  0  0  0  0  0  0  0  0  0
   35.5980   30.9270   40.3960 H   0  0  0  0  0  0  0  0  0  0  0  0
   40.1180   33.0190   40.4790 C   0  0  0  0  0  0  0  0  0  0  0  0
   39.3910   34.1450   40.1010 C   0  0  0  0  0  0  0  0  0  0  0  0
   38.0080   34.0030   39.9560 C   0  0  0  0  0  0  0  0  0  0  0  0
   37.4490   32.7780   40.1910 N   0  0  0  0  0  0  0  0  0  0  0  0
   38.1820   31.7050   40.5560 C   0  0  0  0  0  0  0  0  0  0  0  0
   39.5330   31.8400   40.6980 N   0  0  0  0  0  0  0  0  0  0  0  0
   41.1930   33.0790   40.6050 H   0  0  0  0  0  0  0  0  0  0  0  0
   39.8420   35.0910   39.9230 H   0  0  0  0  0  0  0  0  0  0  0  0
   37.3820   34.8360   39.6660 H   0  0  0  0  0  0  0  0  0  0  0  0
   39.0680   25.8670   41.0290 C   0  0  0  0  0  0  0  0  0  0  0  0
   38.6800   26.9120   41.8420 C   0  0  0  0  0  0  0  0  0  0  0  0
   39.0710   26.8660   43.1690 C   0  0  0  0  0  0  0  0  0  0  0  0
   38.8240   27.6350   43.9080 H   0  0  0  0  0  0  0  0  0  0  0  0
   39.8230   25.8140   43.6720 C   0  0  0  0  0  0  0  0  0  0  0  0
   40.1550   25.7290   44.7020 H   0  0  0  0  0  0  0  0  0  0  0  0
   40.1910   24.7880   42.8300 C   0  0  0  0  0  3  0  0  0  0  0  0
   39.8160   24.8080   41.5010 C   0  0  0  0  0  3  0  0  0  0  0  0
   37.2950   26.3180   39.1820 H   0  0  0  0  0  0  0  0  0  0  0  0
   38.5780   25.9060   39.3630 S   0  0  0  0  0  0  0  0  0  0  0  0
   39.4900   26.7640   38.5090 O   0  0  0  0  0  0  0  0  0  0  0  0
   38.6550   24.4940   38.7930 O   0  0  0  0  0  0  0  0  0  0  0  0
  1  2  1  0  0  0  0
  2  7  1  0  0  0  0
  2  3  2  0  0  0  0
  3 21  1  0  0  0  0
  4  3  1  0  0  0  0
  4  8  1  0  0  0  0
  5  4  2  0  0  0  0
  6  1  2  0  0  0  0
  6  5  1  0  0  0  0
  9  5  1  0  0  0  0
 10  6  1  0  0  0  0
 11 17  1  0  0  0  0
 11 16  1  0  0  0  0
 12 11  2  0  0  0  0
 13 12  1  0  0  0  0
 13 14  2  0  0  0  0
 14 15  1  0  0  0  0
 15 16  2  0  0  0  0
 15  1  1  0  0  0  0
 18 12  1  0  0  0  0
 19 13  1  0  0  0  0
 20 27  2  0  0  0  0
 20 21  1  0  0  0  0
 21 22  2  0  0  0  0
 22 24  1  0  0  0  0
 22 23  1  0  0  0  0
 24 25  1  0  0  0  0
 26 24  2  0  0  0  0
 27 26  1  0  0  0  0
 28 29  1  0  0  0  0
 29 20  1  0  0  0  0
 30 29  2  0  0  0  0
 31 29  2  0  0  0  0
M  END
>  <minimizedAffinity>
-5.17544174

$$$$

 OpenBabel03242516213D

 31 33  0  0  0  0  0  0  0  0999 V2000
   33.9210   28.6190   38.1140 C   0  0  0  0  0  0  0  0  0  0  0  0
   34.5760   28.9290   39.2720 C   0  0  0  0  0  0  0  0  0  0  0  0
   35.7340   28.3050   39.6810 C   0  0  0  0  0  0  0  0  0  0  0  0
   36.2780   27.3050   38.8830 C   0  0  0  0  0  0  0  0  0  0  0  0
   35.6500   26.9720   37.7210 C   0  0  0  0  0  0  0  0  0  0  0  0
   34.4890   27.6290   37.3550 C   0  0  0  0  0  0  0  0  0  0  0  0
   34.1780   29.6990   39.9170 H   0  0  0  0  0  0  0  0  0  0  0  0
   37.1860   26.7830   39.1570 H   0  0  0  0  0  0  0  0  0  0  0  0
   36.0400   26.1940   37.0640 H   0  0  0  0  0  0  0  0  0  0  0  0
   34.0090   27.3420   36.4230 H   0  0  0  0  0  0  0  0  0  0  0  0
   31.4310   30.2430   35.9940 C   0  0  0  0  0  0  0  0  0  0  0  0
   30.4230   30.6220   36.8770 C   0  0  0  0  0  0  0  0  0  0  0  0
   30.5970   30.3160   38.2290 C   0  0  0  0  0  0  0  0  0  0  0  0
   31.7380   29.6670   38.6100 N   0  0  0  0  0  0  0  0  0  0  0  0
   32.6980   29.3120   37.7300 C   0  0  0  0  0  0  0  0  0  0  0  0
   32.5300   29.6100   36.4080 N   0  0  0  0  0  0  0  0  0  0  0  0
   31.3430   30.4590   34.9360 H   0  0  0  0  0  0  0  0  0  0  0  0
   29.5410   31.1270   36.5630 H   0  0  0  0  0  0  0  0  0  0  0  0
   29.8540   30.5810   38.9690 H   0  0  0  0  0  0  0  0  0  0  0  0
   37.3180   29.6660   41.1130 C   0  0  0  0  0  0  0  0  0  0  0  0
   36.4800   28.5910   40.9000 C   0  0  0  0  0  0  0  0  0  0  0  0
   36.3180   27.6930   41.9400 C   0  0  0  0  0  0  0  0  0  0  0  0
   35.6810   26.8040   41.8910 H   0  0  0  0  0  0  0  0  0  0  0  0
   36.9690   27.8580   43.1550 C   0  0  0  0  0  0  0  0  0  0  0  0
   36.8780   27.1850   44.0010 H   0  0  0  0  0  0  0  0  0  0  0  0
   37.8000   28.9440   43.3300 C   0  0  0  0  0  3  0  0  0  0  0  0
   37.9800   29.8560   42.3100 C   0  0  0  0  0  3  0  0  0  0  0  0
   36.9380   30.4180   38.6540 H   0  0  0  0  0  0  0  0  0  0  0  0
   37.5380   30.7980   39.8140 S   0  0  0  0  0  0  0  0  0  0  0  0
   37.0670   32.1920   40.1720 O   0  0  0  0  0  0  0  0  0  0  0  0
   39.0270   30.9100   39.5040 O   0  0  0  0  0  0  0  0  0  0  0  0
  1  2  1  0  0  0  0
  2  3  2  0  0  0  0
  2  7  1  0  0  0  0
  3 21  1  0  0  0  0
  4  8  1  0  0  0  0
  4  3  1  0  0  0  0
  5  4  2  0  0  0  0
  6  5  1  0  0  0  0
  6  1  2  0  0  0  0
  9  5  1  0  0  0  0
 10  6  1  0  0  0  0
 11 16  2  0  0  0  0
 11 12  1  0  0  0  0
 12 13  2  0  0  0  0
 13 14  1  0  0  0  0
 13 19  1  0  0  0  0
 15  1  1  0  0  0  0
 15 14  2  0  0  0  0
 16 15  1  0  0  0  0
 17 11  1  0  0  0  0
 18 12  1  0  0  0  0
 20 27  1  0  0  0  0
 21 20  2  0  0  0  0
 21 22  1  0  0  0  0
 22 24  2  0  0  0  0
 23 22  1  0  0  0  0
 24 26  1  0  0  0  0
 24 25  1  0  0  0  0
 27 26  2  0  0  0  0
 28 29  1  0  0  0  0
 29 30  2  0  0  0  0
 29 20  1  0  0  0  0
 31 29  2  0  0  0  0
M  END
>  <minimizedAffinity>
-5.1395874

$$$$
