
 OpenBabel03242516583D

 31 33  0  0  0  0  0  0  0  0999 V2000
   37.6290   29.4800   41.5790 C   0  0  0  0  0  0  0  0  0  0  0  0
   38.2980   29.4230   42.7870 C   0  0  0  0  0  0  0  0  0  0  0  0
   38.0940   28.4050   43.6790 C   0  0  0  0  0  0  0  0  0  0  0  0
   37.1860   27.4220   43.3280 C   0  0  0  0  0  0  0  0  0  0  0  0
   36.4820   27.4190   42.1290 C   0  0  0  0  0  0  0  0  0  0  0  0
   36.7520   28.4970   41.2780 C   0  0  0  0  0  0  0  0  0  0  0  0
   39.0180   30.1860   43.0880 H   0  0  0  0  0  0  0  0  0  0  0  0
   38.6290   28.3810   44.6210 H   0  0  0  0  0  0  0  0  0  0  0  0
   37.0420   26.6260   44.0500 H   0  0  0  0  0  0  0  0  0  0  0  0
   35.7860   26.6280   41.9000 H   0  0  0  0  0  0  0  0  0  0  0  0
   37.5070   32.7870   39.7480 C   0  0  0  0  0  0  0  0  0  0  0  0
   37.1110   31.7470   40.6380 C   0  0  0  0  0  0  0  0  0  0  0  0
   37.9230   30.6040   40.7190 C   0  0  0  0  0  0  0  0  0  0  0  0
   39.0420   30.5700   39.9330 N   0  0  0  0  0  0  0  0  0  0  0  0
   39.3980   31.5680   39.0960 C   0  0  0  0  0  0  0  0  0  0  0  0
   38.6330   32.6770   39.0010 N   0  0  0  0  0  0  0  0  0  0  0  0
   36.9010   33.6790   39.6650 H   0  0  0  0  0  0  0  0  0  0  0  0
   36.2380   31.8100   41.2310 H   0  0  0  0  0  0  0  0  0  0  0  0
   40.2880   31.4830   38.5050 H   0  0  0  0  0  0  0  0  0  0  0  0
   36.3940   28.0010   38.7740 C   0  0  0  0  0  0  0  0  0  0  0  0
   36.0150   28.4840   40.0170 C   0  0  0  0  0  0  0  0  0  0  0  0
   34.7550   29.0760   40.1700 C   0  0  0  0  0  0  0  0  0  0  0  0
   34.3450   29.4900   41.0890 H   0  0  0  0  0  0  0  0  0  0  0  0
   33.8990   29.1760   39.0800 C   0  0  0  0  0  0  0  0  0  0  0  0
   32.9170   29.6250   39.1440 H   0  0  0  0  0  0  0  0  0  0  0  0
   34.2700   28.6960   37.8320 C   0  0  0  0  0  3  0  0  0  0  0  0
   35.5110   28.1210   37.7170 C   0  0  0  0  0  3  0  0  0  0  0  0
   38.8090   27.7940   39.7230 H   0  0  0  0  0  0  0  0  0  0  0  0
   37.9690   27.2950   38.7480 S   0  0  0  0  0  0  0  0  0  0  0  0
   38.6310   27.3260   37.4010 O   0  0  0  0  0  0  0  0  0  0  0  0
   37.8160   25.8230   39.1060 O   0  0  0  0  0  0  0  0  0  0  0  0
  1  2  1  0  0  0  0
  2  7  1  0  0  0  0
  2  3  2  0  0  0  0
  3  8  1  0  0  0  0
  4  3  1  0  0  0  0
  4  9  1  0  0  0  0
  5  4  2  0  0  0  0
  6  1  2  0  0  0  0
  6  5  1  0  0  0  0
 10  5  1  0  0  0  0
 11 12  1  0  0  0  0
 12 13  2  0  0  0  0
 12 18  1  0  0  0  0
 13  1  1  0  0  0  0
 14 13  1  0  0  0  0
 15 14  2  0  0  0  0
 16 15  1  0  0  0  0
 16 11  2  0  0  0  0
 17 11  1  0  0  0  0
 19 15  1  0  0  0  0
 20 21  1  0  0  0  0
 21 22  2  0  0  0  0
 21  6  1  0  0  0  0
 22 23  1  0  0  0  0
 24 25  1  0  0  0  0
 24 22  1  0  0  0  0
 26 24  2  0  0  0  0
 27 26  1  0  0  0  0
 27 20  2  0  0  0  0
 29 20  1  0  0  0  0
 29 31  2  0  0  0  0
 29 28  1  0  0  0  0
 30 29  2  0  0  0  0
M  END
>  <minimizedAffinity>
-5.33695793

$$$$

 OpenBabel03242516583D

 31 33  0  0  0  0  0  0  0  0999 V2000
   36.5730   28.4730   41.3010 C   0  0  0  0  0  0  0  0  0  0  0  0
   36.3060   27.5830   42.3240 C   0  0  0  0  0  0  0  0  0  0  0  0
   36.9650   27.6400   43.5220 C   0  0  0  0  0  0  0  0  0  0  0  0
   37.9180   28.6300   43.6800 C   0  0  0  0  0  0  0  0  0  0  0  0
   38.2340   29.5570   42.6920 C   0  0  0  0  0  0  0  0  0  0  0  0
   37.5120   29.4250   41.4990 C   0  0  0  0  0  0  0  0  0  0  0  0
   35.5600   26.7920   42.2250 H   0  0  0  0  0  0  0  0  0  0  0  0
   36.7400   26.9310   44.3100 H   0  0  0  0  0  0  0  0  0  0  0  0
   38.4260   28.6560   44.6370 H   0  0  0  0  0  0  0  0  0  0  0  0
   38.9840   30.3120   42.8640 H   0  0  0  0  0  0  0  0  0  0  0  0
   34.0170   28.8200   38.5350 C   0  0  0  0  0  0  0  0  0  0  0  0
   34.6770   29.0740   39.7720 C   0  0  0  0  0  0  0  0  0  0  0  0
   35.8180   28.3150   40.0790 C   0  0  0  0  0  0  0  0  0  0  0  0
   36.2170   27.3790   39.1640 N   0  0  0  0  0  0  0  0  0  0  0  0
   35.5750   27.1550   37.9970 C   0  0  0  0  0  0  0  0  0  0  0  0
   34.4750   27.8730   37.6800 N   0  0  0  0  0  0  0  0  0  0  0  0
   33.1370   29.3890   38.2720 H   0  0  0  0  0  0  0  0  0  0  0  0
   34.3390   29.8070   40.4550 H   0  0  0  0  0  0  0  0  0  0  0  0
   35.9360   26.4070   37.3190 H   0  0  0  0  0  0  0  0  0  0  0  0
   38.7690   30.3340   39.4410 C   0  0  0  0  0  0  0  0  0  0  0  0
   37.8430   30.4060   40.4700 C   0  0  0  0  0  0  0  0  0  0  0  0
   37.0770   31.5680   40.6250 C   0  0  0  0  0  0  0  0  0  0  0  0
   36.3220   31.7450   41.3890 H   0  0  0  0  0  0  0  0  0  0  0  0
   37.2500   32.6350   39.7520 C   0  0  0  0  0  0  0  0  0  0  0  0
   36.6850   33.5540   39.8280 H   0  0  0  0  0  0  0  0  0  0  0  0
   38.1740   32.5720   38.7190 C   0  0  0  0  0  3  0  0  0  0  0  0
   38.9080   31.4180   38.5950 C   0  0  0  0  0  3  0  0  0  0  0  0
   38.8190   27.7340   39.5470 H   0  0  0  0  0  0  0  0  0  0  0  0
   39.6280   28.8380   39.3770 S   0  0  0  0  0  0  0  0  0  0  0  0
   40.8190   28.7780   40.2910 O   0  0  0  0  0  0  0  0  0  0  0  0
   40.1760   28.6860   37.9650 O   0  0  0  0  0  0  0  0  0  0  0  0
  1  6  2  0  0  0  0
  1  2  1  0  0  0  0
  2  3  2  0  0  0  0
  3  4  1  0  0  0  0
  3  8  1  0  0  0  0
  4  9  1  0  0  0  0
  5 10  1  0  0  0  0
  5  4  2  0  0  0  0
  6  5  1  0  0  0  0
  7  2  1  0  0  0  0
 11 12  1  0  0  0  0
 12 13  2  0  0  0  0
 12 18  1  0  0  0  0
 13  1  1  0  0  0  0
 14 13  1  0  0  0  0
 15 14  2  0  0  0  0
 16 15  1  0  0  0  0
 16 11  2  0  0  0  0
 17 11  1  0  0  0  0
 19 15  1  0  0  0  0
 20 21  1  0  0  0  0
 21 22  2  0  0  0  0
 21  6  1  0  0  0  0
 22 23  1  0  0  0  0
 24 25  1  0  0  0  0
 24 22  1  0  0  0  0
 26 24  2  0  0  0  0
 27 26  1  0  0  0  0
 27 20  2  0  0  0  0
 29 20  1  0  0  0  0
 29 28  1  0  0  0  0
 29 30  2  0  0  0  0
 31 29  2  0  0  0  0
M  END
>  <minimizedAffinity>
-5.21563864

$$$$

 OpenBabel03242516583D

 31 33  0  0  0  0  0  0  0  0999 V2000
   36.2430   27.6500   39.0160 C   0  0  0  0  0  0  0  0  0  0  0  0
   35.4340   27.5260   37.9020 C   0  0  0  0  0  0  0  0  0  0  0  0
   34.2580   28.2180   37.7810 C   0  0  0  0  0  0  0  0  0  0  0  0
   33.9020   29.0560   38.8230 C   0  0  0  0  0  0  0  0  0  0  0  0
   34.6710   29.2260   39.9690 C   0  0  0  0  0  0  0  0  0  0  0  0
   35.8550   28.4810   40.0080 C   0  0  0  0  0  0  0  0  0  0  0  0
   35.6920   26.8710   37.0670 H   0  0  0  0  0  0  0  0  0  0  0  0
   33.6390   28.1040   36.9000 H   0  0  0  0  0  0  0  0  0  0  0  0
   32.9680   29.5930   38.7050 H   0  0  0  0  0  0  0  0  0  0  0  0
   34.3510   29.8940   40.7530 H   0  0  0  0  0  0  0  0  0  0  0  0
   38.7820   24.8870   39.4870 C   0  0  0  0  0  0  0  0  0  0  0  0
   37.5220   25.5520   39.5190 C   0  0  0  0  0  0  0  0  0  0  0  0
   37.4580   26.8680   39.0340 C   0  0  0  0  0  0  0  0  0  0  0  0
   38.6170   27.4220   38.5620 N   0  0  0  0  0  0  0  0  0  0  0  0
   39.8010   26.7730   38.5410 C   0  0  0  0  0  0  0  0  0  0  0  0
   39.8870   25.5060   39.0020 N   0  0  0  0  0  0  0  0  0  0  0  0
   38.8620   23.8730   39.8540 H   0  0  0  0  0  0  0  0  0  0  0  0
   36.6470   25.0900   39.8920 H   0  0  0  0  0  0  0  0  0  0  0  0
   40.6750   27.2610   38.1580 H   0  0  0  0  0  0  0  0  0  0  0  0
   37.6480   29.6080   41.4780 C   0  0  0  0  0  0  0  0  0  0  0  0
   36.6610   28.6710   41.2110 C   0  0  0  0  0  0  0  0  0  0  0  0
   36.3380   27.7170   42.1840 C   0  0  0  0  0  0  0  0  0  0  0  0
   35.5860   26.9350   42.0940 H   0  0  0  0  0  0  0  0  0  0  0  0
   37.0040   27.7170   43.4030 C   0  0  0  0  0  0  0  0  0  0  0  0
   36.7930   27.0020   44.1870 H   0  0  0  0  0  0  0  0  0  0  0  0
   37.9930   28.6500   43.6790 C   0  0  0  0  0  3  0  0  0  0  0  0
   38.2850   29.5710   42.7040 C   0  0  0  0  0  3  0  0  0  0  0  0
   37.5840   30.2130   38.9470 H   0  0  0  0  0  0  0  0  0  0  0  0
   37.9270   30.7170   40.1850 S   0  0  0  0  0  0  0  0  0  0  0  0
   39.3120   31.2960   40.1640 O   0  0  0  0  0  0  0  0  0  0  0  0
   36.9830   31.8960   40.3830 O   0  0  0  0  0  0  0  0  0  0  0  0
  1 13  1  0  0  0  0
  1  6  1  0  0  0  0
  2  1  2  0  0  0  0
  3  2  1  0  0  0  0
  3  4  2  0  0  0  0
  4  5  1  0  0  0  0
  5  6  2  0  0  0  0
  5 10  1  0  0  0  0
  6 21  1  0  0  0  0
  7  2  1  0  0  0  0
  8  3  1  0  0  0  0
  9  4  1  0  0  0  0
 11 12  1  0  0  0  0
 11 17  1  0  0  0  0
 12 18  1  0  0  0  0
 13 12  2  0  0  0  0
 14 13  1  0  0  0  0
 15 14  2  0  0  0  0
 15 16  1  0  0  0  0
 16 11  2  0  0  0  0
 19 15  1  0  0  0  0
 20 27  1  0  0  0  0
 21 20  2  0  0  0  0
 21 22  1  0  0  0  0
 22 24  2  0  0  0  0
 23 22  1  0  0  0  0
 24 26  1  0  0  0  0
 24 25  1  0  0  0  0
 27 26  2  0  0  0  0
 28 29  1  0  0  0  0
 29 31  2  0  0  0  0
 29 20  1  0  0  0  0
 30 29  2  0  0  0  0
M  END
>  <minimizedAffinity>
-5.12001038

$$$$

 OpenBabel03242516583D

 31 33  0  0  0  0  0  0  0  0999 V2000
   37.4720   31.7370   39.9730 C   0  0  0  0  0  0  0  0  0  0  0  0
   37.1910   33.0320   39.5790 C   0  0  0  0  0  0  0  0  0  0  0  0
   38.0000   34.0830   39.9160 C   0  0  0  0  0  0  0  0  0  0  0  0
   39.1240   33.8040   40.6740 C   0  0  0  0  0  0  0  0  0  0  0  0
   39.4640   32.5260   41.1030 C   0  0  0  0  0  0  0  0  0  0  0  0
   38.5810   31.5120   40.7120 C   0  0  0  0  0  0  0  0  0  0  0  0
   36.3100   33.2780   38.9810 H   0  0  0  0  0  0  0  0  0  0  0  0
   37.7590   35.0890   39.5970 H   0  0  0  0  0  0  0  0  0  0  0  0
   39.7500   34.6520   40.9290 H   0  0  0  0  0  0  0  0  0  0  0  0
   40.3530   32.3600   41.6900 H   0  0  0  0  0  0  0  0  0  0  0  0
   34.7650   29.0960   39.9050 C   0  0  0  0  0  0  0  0  0  0  0  0
   35.6270   30.1020   40.4330 C   0  0  0  0  0  0  0  0  0  0  0  0
   36.5440   30.7100   39.5600 C   0  0  0  0  0  0  0  0  0  0  0  0
   36.5450   30.2910   38.2580 N   0  0  0  0  0  0  0  0  0  0  0  0
   35.7200   29.3350   37.7790 C   0  0  0  0  0  0  0  0  0  0  0  0
   34.8290   28.7360   38.6000 N   0  0  0  0  0  0  0  0  0  0  0  0
   34.0500   28.6110   40.5530 H   0  0  0  0  0  0  0  0  0  0  0  0
   35.5960   30.3990   41.4470 H   0  0  0  0  0  0  0  0  0  0  0  0
   35.7690   29.0500   36.7470 H   0  0  0  0  0  0  0  0  0  0  0  0
   39.6350   29.1710   40.4860 C   0  0  0  0  0  0  0  0  0  0  0  0
   38.9490   30.1710   41.1580 C   0  0  0  0  0  0  0  0  0  0  0  0
   38.4930   29.9360   42.4610 C   0  0  0  0  0  0  0  0  0  0  0  0
   37.9460   30.6380   43.0880 H   0  0  0  0  0  0  0  0  0  0  0  0
   38.7290   28.7090   43.0680 C   0  0  0  0  0  0  0  0  0  0  0  0
   38.3980   28.4770   44.0700 H   0  0  0  0  0  0  0  0  0  0  0  0
   39.4140   27.7020   42.4030 C   0  0  0  0  0  3  0  0  0  0  0  0
   39.8480   27.9650   41.1280 C   0  0  0  0  0  3  0  0  0  0  0  0
   39.9220   30.9460   38.6040 H   0  0  0  0  0  0  0  0  0  0  0  0
   40.1360   29.6140   38.8950 S   0  0  0  0  0  0  0  0  0  0  0  0
   39.5850   28.7330   37.8120 O   0  0  0  0  0  0  0  0  0  0  0  0
   41.6500   29.4570   38.8330 O   0  0  0  0  0  0  0  0  0  0  0  0
  1  6  1  0  0  0  0
  2  3  1  0  0  0  0
  2  1  2  0  0  0  0
  3  4  2  0  0  0  0
  4  9  1  0  0  0  0
  4  5  1  0  0  0  0
  5 10  1  0  0  0  0
  6  5  2  0  0  0  0
  6 21  1  0  0  0  0
  7  2  1  0  0  0  0
  8  3  1  0  0  0  0
 11 12  1  0  0  0  0
 11 17  1  0  0  0  0
 12 18  1  0  0  0  0
 13  1  1  0  0  0  0
 13 12  2  0  0  0  0
 14 13  1  0  0  0  0
 15 14  2  0  0  0  0
 15 16  1  0  0  0  0
 16 11  2  0  0  0  0
 19 15  1  0  0  0  0
 20 27  2  0  0  0  0
 20 21  1  0  0  0  0
 21 22  2  0  0  0  0
 22 24  1  0  0  0  0
 22 23  1  0  0  0  0
 24 25  1  0  0  0  0
 26 24  2  0  0  0  0
 27 26  1  0  0  0  0
 28 29  1  0  0  0  0
 29 20  1  0  0  0  0
 30 29  2  0  0  0  0
 31 29  2  0  0  0  0
M  END
>  <minimizedAffinity>
-5.04373884

$$$$

 OpenBabel03242516583D

 31 33  0  0  0  0  0  0  0  0999 V2000
   36.2390   26.8160   39.2050 C   0  0  0  0  0  0  0  0  0  0  0  0
   35.4650   26.7230   38.0640 C   0  0  0  0  0  0  0  0  0  0  0  0
   34.6640   27.7520   37.6470 C   0  0  0  0  0  0  0  0  0  0  0  0
   34.6560   28.9040   38.4140 C   0  0  0  0  0  0  0  0  0  0  0  0
   35.4110   29.0630   39.5710 C   0  0  0  0  0  0  0  0  0  0  0  0
   36.2000   27.9600   39.9230 C   0  0  0  0  0  0  0  0  0  0  0  0
   35.4530   25.8250   37.4430 H   0  0  0  0  0  0  0  0  0  0  0  0
   34.0650   27.6560   36.7500 H   0  0  0  0  0  0  0  0  0  0  0  0
   34.0150   29.7050   38.0630 H   0  0  0  0  0  0  0  0  0  0  0  0
   35.3720   29.9820   40.1320 H   0  0  0  0  0  0  0  0  0  0  0  0
   37.4650   23.5300   40.6190 C   0  0  0  0  0  0  0  0  0  0  0  0
   36.5750   24.6090   40.3480 C   0  0  0  0  0  0  0  0  0  0  0  0
   37.0420   25.6650   39.5490 C   0  0  0  0  0  0  0  0  0  0  0  0
   38.3270   25.5830   39.0850 N   0  0  0  0  0  0  0  0  0  0  0  0
   39.1540   24.5500   39.3560 C   0  0  0  0  0  0  0  0  0  0  0  0
   38.7270   23.5230   40.1220 N   0  0  0  0  0  0  0  0  0  0  0  0
   37.1340   22.7030   41.2310 H   0  0  0  0  0  0  0  0  0  0  0  0
   35.5870   24.6370   40.7240 H   0  0  0  0  0  0  0  0  0  0  0  0
   40.1510   24.5430   38.9630 H   0  0  0  0  0  0  0  0  0  0  0  0
   38.2850   28.6270   41.2830 C   0  0  0  0  0  0  0  0  0  0  0  0
   36.9960   28.1380   41.1330 C   0  0  0  0  0  0  0  0  0  0  0  0
   36.2860   27.7140   42.2640 C   0  0  0  0  0  0  0  0  0  0  0  0
   35.2740   27.3130   42.2760 H   0  0  0  0  0  0  0  0  0  0  0  0
   36.8750   27.7860   43.5200 C   0  0  0  0  0  0  0  0  0  0  0  0
   36.3710   27.4710   44.4230 H   0  0  0  0  0  0  0  0  0  0  0  0
   38.1640   28.2740   43.6800 C   0  0  0  0  0  3  0  0  0  0  0  0
   38.8320   28.6810   42.5520 C   0  0  0  0  0  3  0  0  0  0  0  0
   38.3940   28.6080   38.6820 H   0  0  0  0  0  0  0  0  0  0  0  0
   39.0240   29.1130   39.8010 S   0  0  0  0  0  0  0  0  0  0  0  0
   40.5040   28.8620   39.7440 O   0  0  0  0  0  0  0  0  0  0  0  0
   38.8510   30.6210   39.6780 O   0  0  0  0  0  0  0  0  0  0  0  0
  1 13  1  0  0  0  0
  1  6  1  0  0  0  0
  2  1  2  0  0  0  0
  3  2  1  0  0  0  0
  3  4  2  0  0  0  0
  4  5  1  0  0  0  0
  5  6  2  0  0  0  0
  5 10  1  0  0  0  0
  6 21  1  0  0  0  0
  7  2  1  0  0  0  0
  8  3  1  0  0  0  0
  9  4  1  0  0  0  0
 11 17  1  0  0  0  0
 12 11  1  0  0  0  0
 12 18  1  0  0  0  0
 13 12  2  0  0  0  0
 14 15  2  0  0  0  0
 14 13  1  0  0  0  0
 15 16  1  0  0  0  0
 16 11  2  0  0  0  0
 19 15  1  0  0  0  0
 20 27  1  0  0  0  0
 21 20  2  0  0  0  0
 21 22  1  0  0  0  0
 22 23  1  0  0  0  0
 22 24  2  0  0  0  0
 24 26  1  0  0  0  0
 24 25  1  0  0  0  0
 27 26  2  0  0  0  0
 28 29  1  0  0  0  0
 29 20  1  0  0  0  0
 30 29  2  0  0  0  0
 31 29  2  0  0  0  0
M  END
>  <minimizedAffinity>
-5.0096221

$$$$

 OpenBabel03242516583D

 31 33  0  0  0  0  0  0  0  0999 V2000
   36.5370   26.1200   39.4700 C   0  0  0  0  0  0  0  0  0  0  0  0
   35.9420   25.1960   38.6320 C   0  0  0  0  0  0  0  0  0  0  0  0
   35.7770   23.8870   39.0000 C   0  0  0  0  0  0  0  0  0  0  0  0
   36.2310   23.5150   40.2530 C   0  0  0  0  0  0  0  0  0  0  0  0
   36.8370   24.3940   41.1430 C   0  0  0  0  0  0  0  0  0  0  0  0
   36.9650   25.7110   40.6850 C   0  0  0  0  0  0  0  0  0  0  0  0
   35.5760   25.4640   37.6390 H   0  0  0  0  0  0  0  0  0  0  0  0
   35.3080   23.1800   38.3260 H   0  0  0  0  0  0  0  0  0  0  0  0
   36.0880   22.4740   40.5210 H   0  0  0  0  0  0  0  0  0  0  0  0
   37.1720   24.0560   42.1100 H   0  0  0  0  0  0  0  0  0  0  0  0
   35.9310   29.7610   38.6470 C   0  0  0  0  0  0  0  0  0  0  0  0
   35.6940   28.4660   39.1930 C   0  0  0  0  0  0  0  0  0  0  0  0
   36.6610   27.4710   38.9730 C   0  0  0  0  0  0  0  0  0  0  0  0
   37.7670   27.8180   38.2470 N   0  0  0  0  0  0  0  0  0  0  0  0
   37.9710   29.0530   37.7380 C   0  0  0  0  0  0  0  0  0  0  0  0
   37.0550   30.0260   37.9360 N   0  0  0  0  0  0  0  0  0  0  0  0
   35.2040   30.5470   38.7990 H   0  0  0  0  0  0  0  0  0  0  0  0
   34.8260   28.2360   39.7500 H   0  0  0  0  0  0  0  0  0  0  0  0
   38.8590   29.2630   37.1770 H   0  0  0  0  0  0  0  0  0  0  0  0
   38.9280   26.9910   41.7590 C   0  0  0  0  0  0  0  0  0  0  0  0
   37.5950   26.6310   41.6280 C   0  0  0  0  0  0  0  0  0  0  0  0
   36.6470   27.1740   42.5030 C   0  0  0  0  0  0  0  0  0  0  0  0
   35.5780   26.9700   42.5010 H   0  0  0  0  0  0  0  0  0  0  0  0
   37.0450   28.0660   43.4910 C   0  0  0  0  0  0  0  0  0  0  0  0
   36.3540   28.5130   44.1920 H   0  0  0  0  0  0  0  0  0  0  0  0
   38.3760   28.4320   43.6300 C   0  0  0  0  0  3  0  0  0  0  0  0
   39.2800   27.8820   42.7560 C   0  0  0  0  0  3  0  0  0  0  0  0
   39.3950   26.0970   39.3590 H   0  0  0  0  0  0  0  0  0  0  0  0
   39.9710   26.2430   40.6050 S   0  0  0  0  0  0  0  0  0  0  0  0
   40.5730   24.9500   41.0730 O   0  0  0  0  0  0  0  0  0  0  0  0
   41.1410   27.1880   40.3670 O   0  0  0  0  0  0  0  0  0  0  0  0
  1  6  1  0  0  0  0
  2  3  1  0  0  0  0
  2  1  2  0  0  0  0
  3  4  2  0  0  0  0
  4  9  1  0  0  0  0
  4  5  1  0  0  0  0
  5 10  1  0  0  0  0
  6  5  2  0  0  0  0
  6 21  1  0  0  0  0
  7  2  1  0  0  0  0
  8  3  1  0  0  0  0
 11 17  1  0  0  0  0
 11 12  1  0  0  0  0
 12 18  1  0  0  0  0
 13 12  2  0  0  0  0
 13  1  1  0  0  0  0
 14 13  1  0  0  0  0
 15 16  1  0  0  0  0
 15 14  2  0  0  0  0
 16 11  2  0  0  0  0
 19 15  1  0  0  0  0
 20 27  1  0  0  0  0
 21 20  2  0  0  0  0
 21 22  1  0  0  0  0
 22 24  2  0  0  0  0
 23 22  1  0  0  0  0
 24 26  1  0  0  0  0
 24 25  1  0  0  0  0
 27 26  2  0  0  0  0
 28 29  1  0  0  0  0
 29 30  2  0  0  0  0
 29 20  1  0  0  0  0
 31 29  2  0  0  0  0
M  END
>  <minimizedAffinity>
-4.99810219

$$$$

 OpenBabel03242516583D

 31 33  0  0  0  0  0  0  0  0999 V2000
   37.0870   29.7460   39.3230 C   0  0  0  0  0  0  0  0  0  0  0  0
   36.3810   30.1010   38.1890 C   0  0  0  0  0  0  0  0  0  0  0  0
   35.4250   29.2860   37.6470 C   0  0  0  0  0  0  0  0  0  0  0  0
   35.1850   28.0780   38.2780 C   0  0  0  0  0  0  0  0  0  0  0  0
   35.8590   27.6600   39.4200 C   0  0  0  0  0  0  0  0  0  0  0  0
   36.8190   28.5570   39.9060 C   0  0  0  0  0  0  0  0  0  0  0  0
   36.5520   31.0480   37.6720 H   0  0  0  0  0  0  0  0  0  0  0  0
   34.8850   29.5840   36.7570 H   0  0  0  0  0  0  0  0  0  0  0  0
   34.4240   27.4490   37.8300 H   0  0  0  0  0  0  0  0  0  0  0  0
   35.6340   26.7100   39.8770 H   0  0  0  0  0  0  0  0  0  0  0  0
   38.8320   32.6200   41.0540 C   0  0  0  0  0  0  0  0  0  0  0  0
   37.7690   31.7600   40.6530 C   0  0  0  0  0  0  0  0  0  0  0  0
   38.0750   30.6860   39.8030 C   0  0  0  0  0  0  0  0  0  0  0  0
   39.3790   30.5400   39.4170 N   0  0  0  0  0  0  0  0  0  0  0  0
   40.3710   31.3690   39.8090 C   0  0  0  0  0  0  0  0  0  0  0  0
   40.1010   32.4090   40.6270 N   0  0  0  0  0  0  0  0  0  0  0  0
   38.6260   33.4560   41.7090 H   0  0  0  0  0  0  0  0  0  0  0  0
   36.7710   31.9050   40.9740 H   0  0  0  0  0  0  0  0  0  0  0  0
   41.3750   31.2020   39.4720 H   0  0  0  0  0  0  0  0  0  0  0  0
   38.6840   27.3800   41.2400 C   0  0  0  0  0  0  0  0  0  0  0  0
   37.5170   28.1160   41.1110 C   0  0  0  0  0  0  0  0  0  0  0  0
   36.8310   28.5250   42.2610 C   0  0  0  0  0  0  0  0  0  0  0  0
   35.9100   29.1040   42.2900 H   0  0  0  0  0  0  0  0  0  0  0  0
   37.3240   28.1930   43.5170 C   0  0  0  0  0  0  0  0  0  0  0  0
   36.8330   28.4840   44.4360 H   0  0  0  0  0  0  0  0  0  0  0  0
   38.4920   27.4570   43.6570 C   0  0  0  0  0  3  0  0  0  0  0  0
   39.1390   27.0720   42.5090 C   0  0  0  0  0  3  0  0  0  0  0  0
   39.1440   27.8550   38.7230 H   0  0  0  0  0  0  0  0  0  0  0  0
   39.4140   26.9560   39.7340 S   0  0  0  0  0  0  0  0  0  0  0  0
   39.1300   25.5490   39.2920 O   0  0  0  0  0  0  0  0  0  0  0  0
   40.9230   27.0410   39.9170 O   0  0  0  0  0  0  0  0  0  0  0  0
  1 13  1  0  0  0  0
  1  6  1  0  0  0  0
  2  1  2  0  0  0  0
  3  2  1  0  0  0  0
  3  4  2  0  0  0  0
  4  5  1  0  0  0  0
  5 10  1  0  0  0  0
  5  6  2  0  0  0  0
  6 21  1  0  0  0  0
  7  2  1  0  0  0  0
  8  3  1  0  0  0  0
  9  4  1  0  0  0  0
 11 17  1  0  0  0  0
 12 18  1  0  0  0  0
 12 11  1  0  0  0  0
 13 12  2  0  0  0  0
 14 13  1  0  0  0  0
 14 15  2  0  0  0  0
 15 16  1  0  0  0  0
 16 11  2  0  0  0  0
 19 15  1  0  0  0  0
 20 27  1  0  0  0  0
 21 20  2  0  0  0  0
 21 22  1  0  0  0  0
 22 23  1  0  0  0  0
 22 24  2  0  0  0  0
 24 26  1  0  0  0  0
 24 25  1  0  0  0  0
 27 26  2  0  0  0  0
 28 29  1  0  0  0  0
 29 31  2  0  0  0  0
 29 20  1  0  0  0  0
 30 29  2  0  0  0  0
M  END
>  <minimizedAffinity>
-4.90335846

$$$$

 OpenBabel03242516583D

 31 33  0  0  0  0  0  0  0  0999 V2000
   36.1250   28.0110   40.0140 C   0  0  0  0  0  0  0  0  0  0  0  0
   35.1970   28.9140   39.5310 C   0  0  0  0  0  0  0  0  0  0  0  0
   34.4810   28.6740   38.3890 C   0  0  0  0  0  0  0  0  0  0  0  0
   34.7190   27.4830   37.7260 C   0  0  0  0  0  0  0  0  0  0  0  0
   35.6370   26.5330   38.1580 C   0  0  0  0  0  0  0  0  0  0  0  0
   36.3240   26.8600   39.3340 C   0  0  0  0  0  0  0  0  0  0  0  0
   34.9920   29.8600   40.0350 H   0  0  0  0  0  0  0  0  0  0  0  0
   33.7600   29.3970   38.0280 H   0  0  0  0  0  0  0  0  0  0  0  0
   34.1410   27.3150   36.8250 H   0  0  0  0  0  0  0  0  0  0  0  0
   35.7850   25.6180   37.6080 H   0  0  0  0  0  0  0  0  0  0  0  0
   37.2740   28.2750   43.6080 C   0  0  0  0  0  0  0  0  0  0  0  0
   36.5140   27.8340   42.4860 C   0  0  0  0  0  0  0  0  0  0  0  0
   36.8230   28.3730   41.2270 C   0  0  0  0  0  0  0  0  0  0  0  0
   37.8370   29.2890   41.1660 N   0  0  0  0  0  0  0  0  0  0  0  0
   38.5440   29.6940   42.2430 C   0  0  0  0  0  0  0  0  0  0  0  0
   38.2660   29.1890   43.4650 N   0  0  0  0  0  0  0  0  0  0  0  0
   37.0590   27.8770   44.5900 H   0  0  0  0  0  0  0  0  0  0  0  0
   35.7370   27.1220   42.5730 H   0  0  0  0  0  0  0  0  0  0  0  0
   39.3290   30.4160   42.1310 H   0  0  0  0  0  0  0  0  0  0  0  0
   38.6430   25.7560   39.5510 C   0  0  0  0  0  0  0  0  0  0  0  0
   37.2800   25.8540   39.7870 C   0  0  0  0  0  0  0  0  0  0  0  0
   36.6430   24.8710   40.5540 C   0  0  0  0  0  0  0  0  0  0  0  0
   35.5850   24.8380   40.8080 H   0  0  0  0  0  0  0  0  0  0  0  0
   37.3770   23.8110   41.0720 C   0  0  0  0  0  0  0  0  0  0  0  0
   36.9330   23.0260   41.6690 H   0  0  0  0  0  0  0  0  0  0  0  0
   38.7410   23.7040   40.8410 C   0  0  0  0  0  3  0  0  0  0  0  0
   39.3340   24.6840   40.0850 C   0  0  0  0  0  3  0  0  0  0  0  0
   38.3610   28.0370   38.3290 H   0  0  0  0  0  0  0  0  0  0  0  0
   39.2810   27.0440   38.5960 S   0  0  0  0  0  0  0  0  0  0  0  0
   39.9630   26.5920   37.3370 O   0  0  0  0  0  0  0  0  0  0  0  0
   40.3520   27.7400   39.4250 O   0  0  0  0  0  0  0  0  0  0  0  0
  1 13  1  0  0  0  0
  2  1  1  0  0  0  0
  2  7  1  0  0  0  0
  3  2  2  0  0  0  0
  4  5  2  0  0  0  0
  4  3  1  0  0  0  0
  5  6  1  0  0  0  0
  6 21  1  0  0  0  0
  6  1  2  0  0  0  0
  8  3  1  0  0  0  0
  9  4  1  0  0  0  0
 10  5  1  0  0  0  0
 11 17  1  0  0  0  0
 12 18  1  0  0  0  0
 12 11  2  0  0  0  0
 13 12  1  0  0  0  0
 14 13  2  0  0  0  0
 14 15  1  0  0  0  0
 15 16  2  0  0  0  0
 16 11  1  0  0  0  0
 19 15  1  0  0  0  0
 20 21  2  0  0  0  0
 20 27  1  0  0  0  0
 21 22  1  0  0  0  0
 22 23  1  0  0  0  0
 22 24  2  0  0  0  0
 24 25  1  0  0  0  0
 26 24  1  0  0  0  0
 27 26  2  0  0  0  0
 28 29  1  0  0  0  0
 29 31  2  0  0  0  0
 29 20  1  0  0  0  0
 30 29  2  0  0  0  0
M  END
>  <minimizedAffinity>
-4.88763094

$$$$

 OpenBabel03242516583D

 31 33  0  0  0  0  0  0  0  0999 V2000
   37.0550   25.9940   40.8100 C   0  0  0  0  0  0  0  0  0  0  0  0
   36.9350   24.7410   41.3820 C   0  0  0  0  0  0  0  0  0  0  0  0
   36.4030   23.6820   40.6970 C   0  0  0  0  0  0  0  0  0  0  0  0
   35.9840   23.9090   39.3980 C   0  0  0  0  0  0  0  0  0  0  0  0
   36.0760   25.1430   38.7650 C   0  0  0  0  0  0  0  0  0  0  0  0
   36.6320   26.1690   39.5390 C   0  0  0  0  0  0  0  0  0  0  0  0
   37.2570   24.5370   42.4050 H   0  0  0  0  0  0  0  0  0  0  0  0
   36.3180   22.7090   41.1650 H   0  0  0  0  0  0  0  0  0  0  0  0
   35.5660   23.0550   38.8760 H   0  0  0  0  0  0  0  0  0  0  0  0
   35.7380   25.2680   37.7490 H   0  0  0  0  0  0  0  0  0  0  0  0
   37.5550   28.8400   43.2510 C   0  0  0  0  0  0  0  0  0  0  0  0
   36.8720   27.8410   42.4980 C   0  0  0  0  0  0  0  0  0  0  0  0
   37.6280   27.0370   41.6300 C   0  0  0  0  0  0  0  0  0  0  0  0
   38.9760   27.2700   41.5700 N   0  0  0  0  0  0  0  0  0  0  0  0
   39.6020   28.2220   42.2930 C   0  0  0  0  0  0  0  0  0  0  0  0
   38.8950   29.0090   43.1340 N   0  0  0  0  0  0  0  0  0  0  0  0
   36.9990   29.4740   43.9270 H   0  0  0  0  0  0  0  0  0  0  0  0
   35.8280   27.6910   42.5720 H   0  0  0  0  0  0  0  0  0  0  0  0
   40.6620   28.3570   42.2020 H   0  0  0  0  0  0  0  0  0  0  0  0
   37.7700   27.9850   38.1070 C   0  0  0  0  0  0  0  0  0  0  0  0
   36.7350   27.4600   38.8650 C   0  0  0  0  0  0  0  0  0  0  0  0
   35.5820   28.2260   39.0770 C   0  0  0  0  0  0  0  0  0  0  0  0
   34.7060   27.9260   39.6500 H   0  0  0  0  0  0  0  0  0  0  0  0
   35.4840   29.4990   38.5290 C   0  0  0  0  0  0  0  0  0  0  0  0
   34.6170   30.1310   38.6630 H   0  0  0  0  0  0  0  0  0  0  0  0
   36.5150   30.0330   37.7690 C   0  0  0  0  0  3  0  0  0  0  0  0
   37.6310   29.2560   37.5800 C   0  0  0  0  0  3  0  0  0  0  0  0
   38.9000   25.6680   38.4680 H   0  0  0  0  0  0  0  0  0  0  0  0
   39.1170   26.9200   37.9310 S   0  0  0  0  0  0  0  0  0  0  0  0
   40.4180   27.4930   38.4160 O   0  0  0  0  0  0  0  0  0  0  0  0
   39.3030   26.6600   36.4420 O   0  0  0  0  0  0  0  0  0  0  0  0
  1  2  1  0  0  0  0
  1 13  1  0  0  0  0
  2  7  1  0  0  0  0
  3  8  1  0  0  0  0
  3  2  2  0  0  0  0
  4  3  1  0  0  0  0
  5  4  2  0  0  0  0
  5  6  1  0  0  0  0
  6  1  2  0  0  0  0
  9  4  1  0  0  0  0
 10  5  1  0  0  0  0
 11 17  1  0  0  0  0
 12 18  1  0  0  0  0
 12 11  2  0  0  0  0
 13 12  1  0  0  0  0
 14 13  2  0  0  0  0
 14 15  1  0  0  0  0
 15 16  2  0  0  0  0
 16 11  1  0  0  0  0
 19 15  1  0  0  0  0
 20 21  1  0  0  0  0
 21 22  2  0  0  0  0
 21  6  1  0  0  0  0
 22 23  1  0  0  0  0
 24 25  1  0  0  0  0
 24 22  1  0  0  0  0
 26 24  2  0  0  0  0
 27 26  1  0  0  0  0
 27 20  2  0  0  0  0
 29 20  1  0  0  0  0
 29 30  2  0  0  0  0
 29 28  1  0  0  0  0
 31 29  2  0  0  0  0
M  END
>  <minimizedAffinity>
-4.87122869

$$$$
