
 OpenBabel03242522063D

 47 50  0  0  1  0  0  0  0  0999 V2000
   44.7110   35.0450   45.2570 C   0  0  0  0  0  0  0  0  0  0  0  0
   45.4730   34.9290   44.0840 C   0  0  0  0  0  0  0  0  0  0  0  0
   46.4760   33.9560   44.0280 C   0  0  0  0  0  0  0  0  0  0  0  0
   46.6210   33.1980   45.1370 N   0  0  0  0  0  0  0  0  0  0  0  0
   45.8900   33.3170   46.2490 C   0  0  0  0  0  0  0  0  0  0  0  0
   44.9160   34.2640   46.3000 N   0  0  0  0  0  0  0  0  0  0  0  0
   43.9360   35.8260   45.2480 H   0  0  0  0  0  0  0  0  0  0  0  0
   45.3370   35.5400   43.2240 H   0  0  0  0  0  0  0  0  0  0  0  0
   47.3150   33.7370   42.9050 N   0  0  0  0  0  0  0  0  0  0  0  0
   46.8480   32.9780   41.7800 C   0  0  0  0  0  0  0  0  0  0  0  0
   47.9930   32.4370   40.9640 C   0  0  0  0  0  0  0  0  0  0  0  0
   48.9820   33.3900   40.6140 N   0  0  0  0  0  0  0  0  0  0  0  0
   49.2730   34.4000   41.5710 C   0  0  2  0  0  0  0  0  0  0  0  0
   48.6510   34.2850   42.9000 C   0  0  0  0  0  0  0  0  0  0  0  0
   46.2240   32.0970   42.0800 H   0  0  0  0  0  0  0  0  0  0  0  0
   46.2080   33.6040   41.1080 H   0  0  0  0  0  0  0  0  0  0  0  0
   47.5580   31.9830   40.0360 H   0  0  0  0  0  0  0  0  0  0  0  0
   48.4210   31.5770   41.5280 H   0  0  0  0  0  0  0  0  0  0  0  0
   49.8380   32.8580   40.3110 H   0  0  0  0  0  0  0  0  0  0  0  0
   50.3860   34.4330   41.7170 H   0  0  0  0  0  0  0  0  0  0  0  0
   48.6460   35.2760   43.3980 H   0  0  0  0  0  0  0  0  0  0  0  0
   49.2970   33.6250   43.5460 H   0  0  0  0  0  0  0  0  0  0  0  0
   48.8770   35.7360   40.9840 C   0  0  0  0  0  0  0  0  0  0  0  0
   49.7070   36.7360   41.4830 F   0  0  0  0  0  0  0  0  0  0  0  0
   47.6150   36.0140   41.4700 F   0  0  0  0  0  0  0  0  0  0  0  0
   48.9400   35.7780   39.6220 F   0  0  0  0  0  0  0  0  0  0  0  0
   46.1170   32.4620   47.3950 C   0  0  0  0  0  0  0  0  0  0  0  0
   45.0690   32.0660   48.1810 C   0  0  0  0  0  0  0  0  0  0  0  0
   45.3460   31.2470   49.2800 C   0  0  0  0  0  0  0  0  0  0  0  0
   46.6790   30.9040   49.4810 C   0  0  0  0  0  0  0  0  0  0  0  0
   47.7300   31.2950   48.7000 C   0  0  0  0  0  0  0  0  0  0  0  0
   47.3860   32.0840   47.6560 N   0  0  0  0  0  0  0  0  0  0  0  0
   44.0780   32.4090   47.9060 H   0  0  0  0  0  0  0  0  0  0  0  0
   44.5040   30.9680   49.8560 H   0  0  0  0  0  0  0  0  0  0  0  0
   46.7350   30.2760   50.3580 H   0  0  0  0  0  0  0  0  0  0  0  0
   49.7100   29.8360   48.3700 C   0  0  0  0  0  0  0  0  0  0  0  0
   49.0740   30.8650   49.0190 C   0  0  0  0  0  0  0  0  0  0  0  0
   49.8090   31.4720   50.0080 C   0  0  0  0  0  0  0  0  0  0  0  0
   49.4440   32.2950   50.6050 H   0  0  0  0  0  0  0  0  0  0  0  0
   51.0730   31.1220   50.3600 C   0  0  0  0  0  0  0  0  0  0  0  0
   51.6590   31.5940   51.1380 H   0  0  0  0  0  0  0  0  0  0  0  0
   51.7240   30.0880   49.7140 C   0  0  0  0  0  0  0  0  0  0  0  0
   51.0130   29.4570   48.7160 C   0  0  0  0  0  0  0  0  0  0  0  0
   49.7510   27.8840   46.6820 H   0  0  0  0  0  0  0  0  0  0  0  0
   48.9470   28.9480   47.0950 S   0  0  0  0  0  0  0  0  0  0  0  0
   48.5830   29.7690   45.9030 O   0  0  0  0  0  0  0  0  0  0  0  0
   47.7070   28.2870   47.6300 O   0  0  0  0  0  0  0  0  0  0  0  0
  1  6  1  0  0  0  0
  2  1  2  0  0  0  0
  3  2  1  0  0  0  0
  3  4  2  0  0  0  0
  4  5  1  0  0  0  0
  5  6  2  0  0  0  0
  5 27  1  0  0  0  0
  7  1  1  0  0  0  0
  8  2  1  0  0  0  0
  9  3  1  0  0  0  0
 10 15  1  0  0  0  0
 10  9  1  0  0  0  0
 11 18  1  0  0  0  0
 11 10  1  0  0  0  0
 12 11  1  0  0  0  0
 12 13  1  0  0  0  0
 13 20  1  1  0  0  0
 13 14  1  0  0  0  0
 14  9  1  0  0  0  0
 14 21  1  0  0  0  0
 14 22  1  0  0  0  0
 16 10  1  0  0  0  0
 17 11  1  0  0  0  0
 19 12  1  0  0  0  0
 23 25  1  0  0  0  0
 23 24  1  0  0  0  0
 23 13  1  0  0  0  0
 26 23  1  0  0  0  0
 27 32  2  0  0  0  0
 27 28  1  0  0  0  0
 28 29  2  0  0  0  0
 29 30  1  0  0  0  0
 29 34  1  0  0  0  0
 30 35  1  0  0  0  0
 31 37  1  0  0  0  0
 31 30  2  0  0  0  0
 32 31  1  0  0  0  0
 33 28  1  0  0  0  0
 36 43  2  0  0  0  0
 36 37  1  0  0  0  0
 37 38  2  0  0  0  0
 38 40  1  0  0  0  0
 38 39  1  0  0  0  0
 40 41  1  0  0  0  0
 42 40  2  0  0  0  0
 43 42  1  0  0  0  0
 44 45  1  0  0  0  0
 45 47  2  0  0  0  0
 45 36  1  0  0  0  0
 46 45  2  0  0  0  0
M  END
>  <minimizedAffinity>
-7.35823917

>  <minimizedRMSD>
0.317327499

$$$$
