
 OpenBabel03242516203D

 31 33  0  0  0  0  0  0  0  0999 V2000
   46.0440   32.7920   46.9970 C   0  0  0  0  0  0  0  0  0  0  0  0
   47.2590   32.2430   47.2950 C   0  0  0  0  0  0  0  0  0  0  0  0
   47.4830   31.4450   48.3960 C   0  0  0  0  0  0  0  0  0  0  0  0
   46.4270   31.1720   49.2570 C   0  0  0  0  0  0  0  0  0  0  0  0
   45.2010   31.7040   48.9880 C   0  0  0  0  0  0  0  0  0  0  0  0
   45.0280   32.4990   47.8700 C   0  0  0  0  0  0  0  0  0  0  0  0
   48.1030   32.4380   46.6490 H   0  0  0  0  0  0  0  0  0  0  0  0
   46.5470   30.5510   50.1350 H   0  0  0  0  0  0  0  0  0  0  0  0
   44.3440   31.5170   49.6350 H   0  0  0  0  0  0  0  0  0  0  0  0
   44.0400   32.9100   47.6810 H   0  0  0  0  0  0  0  0  0  0  0  0
   44.6940   35.4030   44.8330 C   0  0  0  0  0  0  0  0  0  0  0  0
   45.4250   35.2850   43.6540 C   0  0  0  0  0  0  0  0  0  0  0  0
   46.4040   34.2900   43.5960 C   0  0  0  0  0  0  0  0  0  0  0  0
   46.5890   33.4910   44.6900 N   0  0  0  0  0  0  0  0  0  0  0  0
   45.8630   33.6310   45.8190 C   0  0  0  0  0  0  0  0  0  0  0  0
   44.9070   34.6030   45.8790 N   0  0  0  0  0  0  0  0  0  0  0  0
   43.9230   36.1600   44.9260 H   0  0  0  0  0  0  0  0  0  0  0  0
   45.2680   35.9150   42.8120 H   0  0  0  0  0  0  0  0  0  0  0  0
   47.0090   34.1420   42.7110 H   0  0  0  0  0  0  0  0  0  0  0  0
   49.1860   29.5710   48.4070 C   0  0  0  0  0  0  0  0  0  0  0  0
   48.7510   30.8290   48.7660 C   0  0  0  0  0  0  0  0  0  0  0  0
   49.5960   31.5950   49.5500 C   0  0  0  0  0  0  0  0  0  0  0  0
   49.3620   32.6060   49.8980 H   0  0  0  0  0  0  0  0  0  0  0  0
   50.8340   31.1240   49.9650 C   0  0  0  0  0  0  0  0  0  0  0  0
   51.5330   31.6810   50.5790 H   0  0  0  0  0  0  0  0  0  0  0  0
   51.2340   29.8610   49.5850 C   0  0  0  0  0  3  0  0  0  0  0  0
   50.4120   29.0750   48.8030 C   0  0  0  0  0  3  0  0  0  0  0  0
   46.8160   28.8940   47.5800 H   0  0  0  0  0  0  0  0  0  0  0  0
   48.1330   28.5940   47.4280 S   0  0  0  0  0  0  0  0  0  0  0  0
   48.4810   28.6610   45.9540 O   0  0  0  0  0  0  0  0  0  0  0  0
   48.2860   27.1340   47.8440 O   0  0  0  0  0  0  0  0  0  0  0  0
  1  2  2  0  0  0  0
  1  6  1  0  0  0  0
  2  3  1  0  0  0  0
  3 21  1  0  0  0  0
  3  4  2  0  0  0  0
  4  8  1  0  0  0  0
  5  4  1  0  0  0  0
  5  9  1  0  0  0  0
  6  5  2  0  0  0  0
  7  2  1  0  0  0  0
 10  6  1  0  0  0  0
 11 17  1  0  0  0  0
 11 16  1  0  0  0  0
 12 11  2  0  0  0  0
 13 12  1  0  0  0  0
 13 14  2  0  0  0  0
 14 15  1  0  0  0  0
 15 16  2  0  0  0  0
 15  1  1  0  0  0  0
 18 12  1  0  0  0  0
 19 13  1  0  0  0  0
 20 21  2  0  0  0  0
 20 27  1  0  0  0  0
 21 22  1  0  0  0  0
 22 23  1  0  0  0  0
 22 24  2  0  0  0  0
 24 25  1  0  0  0  0
 26 24  1  0  0  0  0
 27 26  2  0  0  0  0
 29 28  1  0  0  0  0
 29 31  2  0  0  0  0
 29 20  1  0  0  0  0
 30 29  2  0  0  0  0
M  END
>  <minimizedAffinity>
-5.85552788

>  <minimizedRMSD>
0.811231673

$$$$
