
 OpenBabel03252506563D

 41 45  0  0  0  0  0  0  0  0999 V2000
   47.0100   31.2970   45.1180 C   0  0  0  0  0  0  0  0  0  0  0  0
   46.7780   32.6640   45.1770 C   0  0  0  0  0  0  0  0  0  0  0  0
   46.2720   33.2920   46.2930 C   0  0  0  0  0  0  0  0  0  0  0  0
   45.9720   32.5470   47.4290 C   0  0  0  0  0  0  0  0  0  0  0  0
   45.4760   32.8110   48.6710 N   0  0  0  0  0  0  0  0  0  0  0  0
   45.4060   31.6470   49.3540 C   0  0  0  0  0  0  0  0  0  0  0  0
   45.8570   30.6720   48.5330 N   0  0  0  0  0  0  0  0  0  0  0  0
   46.2090   31.1980   47.3490 C   0  0  0  0  0  0  0  0  0  0  0  0
   46.7130   30.5430   46.2470 C   0  0  0  0  0  0  0  0  0  0  0  0
   47.4110   30.8300   44.2180 H   0  0  0  0  0  0  0  0  0  0  0  0
   46.0850   34.3570   46.3550 H   0  0  0  0  0  0  0  0  0  0  0  0
   45.2370   33.7960   48.9110 H   0  0  0  0  0  0  0  0  0  0  0  0
   45.0410   31.6030   50.3690 H   0  0  0  0  0  0  0  0  0  0  0  0
   46.4880   35.1790   42.5150 C   0  0  0  0  0  0  0  0  0  0  0  0
   47.6650   34.9930   41.7890 C   0  0  0  0  0  0  0  0  0  0  0  0
   48.5530   34.0110   42.2100 C   0  0  0  0  0  0  0  0  0  0  0  0
   48.2430   33.2620   43.3180 N   0  0  0  0  0  0  0  0  0  0  0  0
   47.0840   33.4780   43.9950 C   0  0  0  0  0  0  0  0  0  0  0  0
   46.2030   34.4330   43.6010 N   0  0  0  0  0  0  0  0  0  0  0  0
   45.8190   35.9510   42.1630 H   0  0  0  0  0  0  0  0  0  0  0  0
   47.9450   35.5620   40.9120 H   0  0  0  0  0  0  0  0  0  0  0  0
   49.4890   33.7790   41.7270 H   0  0  0  0  0  0  0  0  0  0  0  0
   46.9270   29.1000   46.2720 C   0  0  0  0  0  0  0  0  0  0  0  0
   48.1320   28.4850   46.5600 C   0  0  0  0  0  0  0  0  0  0  0  0
   47.8720   27.1200   46.4690 C   0  0  0  0  0  0  0  0  0  0  0  0
   46.5440   26.9820   46.1350 C   0  0  0  0  0  0  0  0  0  0  0  0
   46.0330   28.1900   46.0310 O   0  0  0  0  0  0  0  0  0  0  0  0
   49.0510   28.9790   46.7980 H   0  0  0  0  0  0  0  0  0  0  0  0
   48.5970   26.3130   46.6330 H   0  0  0  0  0  0  0  0  0  0  0  0
   45.0710   25.1990   46.9590 C   0  0  0  0  0  0  0  0  0  0  0  0
   45.8250   25.7270   45.9320 C   0  0  0  0  0  0  0  0  0  0  0  0
   45.9090   25.0880   44.7110 C   0  0  0  0  0  0  0  0  0  0  0  0
   46.5060   25.5000   43.8860 H   0  0  0  0  0  0  0  0  0  0  0  0
   45.2580   23.9050   44.4510 C   0  0  0  0  0  0  0  0  0  0  0  0
   45.3060   23.3830   43.5060 H   0  0  0  0  0  0  0  0  0  0  0  0
   44.4940   23.3680   45.4910 C   0  0  0  0  0  3  0  0  0  0  0  0
   44.4160   24.0110   46.7000 C   0  0  0  0  0  3  0  0  0  0  0  0
   45.3520   27.2920   48.4860 H   0  0  0  0  0  0  0  0  0  0  0  0
   44.9480   25.9900   48.5150 S   0  0  0  0  0  0  0  0  0  0  0  0
   43.4880   25.9640   48.9310 O   0  0  0  0  0  0  0  0  0  0  0  0
   45.6960   25.1810   49.5620 O   0  0  0  0  0  0  0  0  0  0  0  0
  1  2  2  0  0  0  0
  1  9  1  0  0  0  0
  2  3  1  0  0  0  0
  3 11  1  0  0  0  0
  3  4  2  0  0  0  0
  4  5  1  0  0  0  0
  5 12  1  0  0  0  0
  5  6  1  0  0  0  0
  6 13  1  0  0  0  0
  7  6  2  0  0  0  0
  8  4  1  0  0  0  0
  8  7  1  0  0  0  0
  9 23  1  0  0  0  0
  9  8  2  0  0  0  0
 10  1  1  0  0  0  0
 14 19  1  0  0  0  0
 15 16  1  0  0  0  0
 15 14  2  0  0  0  0
 16 17  2  0  0  0  0
 17 18  1  0  0  0  0
 18  2  1  0  0  0  0
 19 18  2  0  0  0  0
 20 14  1  0  0  0  0
 21 15  1  0  0  0  0
 22 16  1  0  0  0  0
 23 24  2  0  0  0  0
 24 28  1  0  0  0  0
 25 24  1  0  0  0  0
 25 29  1  0  0  0  0
 26 25  2  0  0  0  0
 27 26  1  0  0  0  0
 27 23  1  0  0  0  0
 30 39  1  0  0  0  0
 31 26  1  0  0  0  0
 31 30  2  0  0  0  0
 32 31  1  0  0  0  0
 33 32  1  0  0  0  0
 34 32  2  0  0  0  0
 34 36  1  0  0  0  0
 35 34  1  0  0  0  0
 36 37  2  0  0  0  0
 37 30  1  0  0  0  0
 38 39  1  0  0  0  0
 39 40  2  0  0  0  0
 39 41  2  0  0  0  0
M  END
>  <minimizedAffinity>
-5.74054003

>  <minimizedRMSD>
0.925076008

$$$$
