
 OpenBabel03252508213D

 37 39  0  0  0  0  0  0  0  0999 V2000
   43.1280   33.2450   38.9630 C   0  0  0  0  0  0  0  0  0  0  0  0
   41.7810   32.9550   38.8750 C   0  0  0  0  0  0  0  0  0  0  0  0
   41.2440   31.9750   38.0620 C   0  0  0  0  0  0  0  0  0  0  0  0
   42.1560   31.2560   37.3000 C   0  0  0  0  0  0  0  0  0  0  0  0
   43.5030   31.5310   37.3760 C   0  0  0  0  0  0  0  0  0  0  0  0
   44.0300   32.4990   38.1770 C   0  0  0  0  0  0  0  0  0  0  0  0
   41.1010   33.5350   39.4830 H   0  0  0  0  0  0  0  0  0  0  0  0
   40.1940   31.7790   38.0190 H   0  0  0  0  0  0  0  0  0  0  0  0
   41.7720   30.4840   36.6540 H   0  0  0  0  0  0  0  0  0  0  0  0
   44.1540   30.9260   36.7480 H   0  0  0  0  0  0  0  0  0  0  0  0
   46.1860   31.9450   39.1140 C   0  0  0  0  0  0  0  0  0  0  0  0
   45.4760   32.6910   38.1660 C   0  0  0  0  0  0  0  0  0  0  0  0
   46.1450   33.5440   37.2950 C   0  0  0  0  0  0  0  0  0  0  0  0
   45.5470   34.1050   36.5740 H   0  0  0  0  0  0  0  0  0  0  0  0
   47.5230   33.6730   37.3480 C   0  0  0  0  0  0  0  0  0  0  0  0
   48.0540   34.3310   36.6790 H   0  0  0  0  0  0  0  0  0  0  0  0
   48.2670   32.9510   38.2720 C   0  0  0  0  0  3  0  0  0  0  0  0
   47.5610   32.1180   39.1150 C   0  0  0  0  0  3  0  0  0  0  0  0
   44.1360   31.3140   40.4560 H   0  0  0  0  0  0  0  0  0  0  0  0
   45.4160   30.8550   40.2370 S   0  0  0  0  0  0  0  0  0  0  0  0
   46.1490   30.9770   41.5520 O   0  0  0  0  0  0  0  0  0  0  0  0
   45.3650   29.4460   39.7540 O   0  0  0  0  0  0  0  0  0  0  0  0
   43.7050   34.2960   39.8280 C   0  0  0  0  0  0  0  0  0  0  0  0
   43.0860   35.2160   39.6060 H   0  0  0  0  0  0  0  0  0  0  0  0
   44.7410   34.5600   39.6230 H   0  0  0  0  0  0  0  0  0  0  0  0
   43.4130   34.0050   41.2950 C   0  0  0  0  0  0  0  0  0  0  0  0
   42.7140   34.7920   41.6390 H   0  0  0  0  0  0  0  0  0  0  0  0
   43.0210   32.9730   41.3880 H   0  0  0  0  0  0  0  0  0  0  0  0
   47.0160   34.7330   42.1160 C   0  0  0  0  0  0  0  0  0  0  0  0
   45.8050   34.6310   41.3900 C   0  0  0  0  0  0  0  0  0  0  0  0
   44.6960   34.1200   42.0440 C   0  0  0  0  0  0  0  0  0  0  0  0
   44.8300   33.7410   43.3600 N   0  0  0  0  0  0  0  0  0  0  0  0
   45.9950   33.8560   44.0090 C   0  0  0  0  0  0  0  0  0  0  0  0
   47.0950   34.3480   43.4040 N   0  0  0  0  0  0  0  0  0  0  0  0
   47.8700   35.1350   41.5840 H   0  0  0  0  0  0  0  0  0  0  0  0
   45.7530   34.9440   40.3520 H   0  0  0  0  0  0  0  0  0  0  0  0
   45.9440   33.5160   45.0420 H   0  0  0  0  0  0  0  0  0  0  0  0
  1 23  1  0  0  0  0
  2  1  1  0  0  0  0
  2  7  1  0  0  0  0
  3  2  2  0  0  0  0
  4  5  2  0  0  0  0
  4  3  1  0  0  0  0
  5  6  1  0  0  0  0
  6  1  2  0  0  0  0
  8  3  1  0  0  0  0
  9  4  1  0  0  0  0
 10  5  1  0  0  0  0
 11 18  1  0  0  0  0
 11 20  1  0  0  0  0
 12  6  1  0  0  0  0
 12 11  2  0  0  0  0
 13 15  2  0  0  0  0
 13 12  1  0  0  0  0
 14 13  1  0  0  0  0
 15 17  1  0  0  0  0
 16 15  1  0  0  0  0
 17 18  2  0  0  0  0
 20 19  1  0  0  0  0
 20 21  2  0  0  0  0
 22 20  2  0  0  0  0
 23 26  1  0  0  0  0
 24 23  1  0  0  0  0
 25 23  1  0  0  0  0
 26 28  1  0  0  0  0
 26 27  1  0  0  0  0
 26 31  1  0  0  0  0
 29 34  1  0  0  0  0
 30 31  1  0  0  0  0
 30 29  2  0  0  0  0
 31 32  2  0  0  0  0
 32 33  1  0  0  0  0
 33 37  1  0  0  0  0
 34 33  2  0  0  0  0
 35 29  1  0  0  0  0
 36 30  1  0  0  0  0
M  END
>  <minimizedAffinity>
-3.63405681

>  <minimizedRMSD>
6.48666763

$$$$
