
 OpenBabel03242518193D

 33 35  0  0  0  0  0  0  0  0999 V2000
   47.0690   30.8790   43.6230 C   0  0  0  0  0  0  0  0  0  0  0  0
   48.1910   30.5210   44.3400 C   0  0  0  0  0  0  0  0  0  0  0  0
   47.7710   29.6000   45.3050 C   0  0  0  0  0  0  0  0  0  0  0  0
   46.4090   29.4540   45.1110 C   0  0  0  0  0  0  0  0  0  0  0  0
   46.0830   30.2190   44.1310 O   0  0  0  0  0  0  0  0  0  0  0  0
   49.2200   30.8780   44.1990 H   0  0  0  0  0  0  0  0  0  0  0  0
   48.3870   29.1220   46.0270 H   0  0  0  0  0  0  0  0  0  0  0  0
   44.3370   28.1530   45.3850 C   0  0  0  0  0  0  0  0  0  0  0  0
   45.5330   28.5820   45.8970 C   0  0  0  0  0  0  0  0  0  0  0  0
   45.9110   28.1820   47.1730 C   0  0  0  0  0  0  0  0  0  0  0  0
   46.8720   28.5570   47.5220 H   0  0  0  0  0  0  0  0  0  0  0  0
   45.1540   27.3630   47.9860 C   0  0  0  0  0  0  0  0  0  0  0  0
   45.4910   27.0840   48.9630 H   0  0  0  0  0  0  0  0  0  0  0  0
   43.9480   26.9270   47.4770 C   0  0  0  0  0  0  0  0  0  0  0  0
   43.5710   27.3220   46.2100 C   0  0  0  0  0  0  0  0  0  0  0  0
   44.1540   29.8940   43.4500 H   0  0  0  0  0  0  0  0  0  0  0  0
   43.8050   28.6170   43.7950 S   0  0  0  0  0  0  0  0  0  0  0  0
   44.2900   27.6490   42.7420 O   0  0  0  0  0  0  0  0  0  0  0  0
   42.2900   28.6160   43.8280 O   0  0  0  0  0  0  0  0  0  0  0  0
   47.1270   31.8640   42.4880 C   0  0  0  0  0  0  0  0  0  0  0  0
   48.1550   32.0270   42.1350 H   0  0  0  0  0  0  0  0  0  0  0  0
   46.5260   31.4180   41.6680 H   0  0  0  0  0  0  0  0  0  0  0  0
   45.1320   34.3080   44.3460 C   0  0  0  0  0  0  0  0  0  0  0  0
   45.3300   35.5000   43.6510 C   0  0  0  0  0  0  0  0  0  0  0  0
   46.1500   35.4710   42.5410 C   0  0  0  0  0  0  0  0  0  0  0  0
   46.7120   34.2930   42.1910 N   0  0  0  0  0  0  0  0  0  0  0  0
   46.4980   33.1560   42.8880 C   0  0  0  0  0  0  0  0  0  0  0  0
   45.6940   33.1630   43.9860 N   0  0  0  0  0  0  0  0  0  0  0  0
   44.5020   34.2530   45.2280 H   0  0  0  0  0  0  0  0  0  0  0  0
   46.3000   36.3930   42.0070 H   0  0  0  0  0  0  0  0  0  0  0  0
   44.6660   36.6500   44.1510 N   0  0  0  0  0  0  0  0  0  0  0  0
   45.3900   37.3760   44.3240 H   0  0  0  0  0  0  0  0  0  0  0  0
   43.6380   36.7670   44.3200 H   0  0  0  0  0  0  0  0  0  0  0  0
  1  5  1  0  0  0  0
  1  2  2  0  0  0  0
  2  3  1  0  0  0  0
  3  7  1  0  0  0  0
  4  3  2  0  0  0  0
  4  9  1  0  0  0  0
  5  4  1  0  0  0  0
  6  2  1  0  0  0  0
  8  9  2  0  0  0  0
  8 15  1  0  0  0  0
  9 10  1  0  0  0  0
 10 11  1  0  0  0  0
 10 12  2  0  0  0  0
 12 13  1  0  0  0  0
 14 12  1  0  0  0  0
 15 14  2  0  0  0  0
 16 17  1  0  0  0  0
 17 19  2  0  0  0  0
 17  8  1  0  0  0  0
 18 17  2  0  0  0  0
 20 27  1  0  0  0  0
 20  1  1  0  0  0  0
 21 20  1  0  0  0  0
 22 20  1  0  0  0  0
 23 29  1  0  0  0  0
 24 31  1  0  0  0  0
 24 23  2  0  0  0  0
 25 24  1  0  0  0  0
 26 25  2  0  0  0  0
 26 27  1  0  0  0  0
 27 28  2  0  0  0  0
 28 23  1  0  0  0  0
 30 25  1  0  0  0  0
 31 33  1  0  0  0  0
 31 32  1  0  0  0  0
M  END
>  <minimizedAffinity>
-3.67729902

>  <minimizedRMSD>
4.58541584

$$$$
