
 OpenBabel03242522283D

 41 44  0  0  0  0  0  0  0  0999 V2000
   37.6530   29.5690   41.5820 C   0  0  0  0  0  0  0  0  0  0  0  0
   38.2000   29.4480   42.8520 C   0  0  0  0  0  0  0  0  0  0  0  0
   37.7270   28.4590   43.6800 C   0  0  0  0  0  0  0  0  0  0  0  0
   36.7260   27.6050   43.2530 C   0  0  0  0  0  0  0  0  0  0  0  0
   36.2400   27.7990   41.9610 C   0  0  0  0  0  0  0  0  0  0  0  0
   36.6720   28.7480   41.1130 C   0  0  0  0  0  0  0  0  0  0  0  0
   38.9550   30.0110   43.3380 H   0  0  0  0  0  0  0  0  0  0  0  0
   38.1250   28.3160   44.6990 H   0  0  0  0  0  0  0  0  0  0  0  0
   36.4030   26.8380   43.9890 H   0  0  0  0  0  0  0  0  0  0  0  0
   35.4700   27.0400   41.8170 H   0  0  0  0  0  0  0  0  0  0  0  0
   40.0830   29.7750   40.2170 F   0  0  0  0  0  0  0  0  0  0  0  0
   39.2000   30.7990   40.0420 C   0  0  0  0  0  0  0  0  0  0  0  0
   39.5220   31.8650   39.2680 C   0  0  0  0  0  0  0  0  0  0  0  0
   38.5980   32.8930   39.2270 C   0  0  0  0  0  0  0  0  0  0  0  0
   37.4100   32.8530   39.9320 C   0  0  0  0  0  0  0  0  0  0  0  0
   37.1970   31.7260   40.6780 C   0  0  0  0  0  0  0  0  0  0  0  0
   38.0520   30.6830   40.7580 C   0  0  0  0  0  0  0  0  0  0  0  0
   38.9770   33.6940   38.5610 H   0  0  0  0  0  0  0  0  0  0  0  0
   36.8930   33.7610   39.7290 H   0  0  0  0  0  0  0  0  0  0  0  0
   36.2800   32.0360   41.0970 H   0  0  0  0  0  0  0  0  0  0  0  0
   43.1430   32.6150   38.4680 C   0  0  0  0  0  0  0  0  0  0  0  0
   41.9060   32.5940   39.1140 C   0  0  0  0  0  0  0  0  0  0  0  0
   40.8060   31.8750   38.5860 C   0  0  0  0  0  0  0  0  0  0  0  0
   41.0190   31.2180   37.4370 N   0  0  0  0  0  0  0  0  0  0  0  0
   42.2240   31.2500   36.8290 C   0  0  0  0  0  0  0  0  0  0  0  0
   43.2560   31.9230   37.3200 N   0  0  0  0  0  0  0  0  0  0  0  0
   43.9310   33.1710   38.9110 H   0  0  0  0  0  0  0  0  0  0  0  0
   41.8050   33.1390   40.0270 H   0  0  0  0  0  0  0  0  0  0  0  0
   42.3480   30.6960   35.8920 H   0  0  0  0  0  0  0  0  0  0  0  0
   36.4470   27.9390   38.7330 C   0  0  0  0  0  0  0  0  0  0  0  0
   35.9980   28.5290   39.9090 C   0  0  0  0  0  0  0  0  0  0  0  0
   34.6940   29.0880   39.9190 C   0  0  0  0  0  0  0  0  0  0  0  0
   34.2310   29.5790   40.7890 H   0  0  0  0  0  0  0  0  0  0  0  0
   33.8380   29.0780   38.8080 C   0  0  0  0  0  0  0  0  0  0  0  0
   32.8620   29.5000   38.8260 H   0  0  0  0  0  0  0  0  0  0  0  0
   34.3300   28.4740   37.6430 C   0  0  0  0  0  3  0  0  0  0  0  0
   35.6040   27.9270   37.6330 C   0  0  0  0  0  3  0  0  0  0  0  0
   38.7230   27.3710   39.9200 H   0  0  0  0  0  0  0  0  0  0  0  0
   38.0210   27.2830   38.7920 S   0  0  0  0  0  0  0  0  0  0  0  0
   38.1090   25.9120   38.1230 O   0  0  0  0  0  0  0  0  0  0  0  0
   38.8350   28.1130   37.8150 O   0  0  0  0  0  0  0  0  0  0  0  0
  1  2  1  0  0  0  0
  2  7  1  0  0  0  0
  2  3  2  0  0  0  0
  3  8  1  0  0  0  0
  4  3  1  0  0  0  0
  4  9  1  0  0  0  0
  5  4  2  0  0  0  0
  6  1  2  0  0  0  0
  6  5  1  0  0  0  0
 10  5  1  0  0  0  0
 12 11  1  0  0  0  0
 12 17  1  0  0  0  0
 13 12  2  0  0  0  0
 14 13  1  0  0  0  0
 14 15  2  0  0  0  0
 15 16  1  0  0  0  0
 16 17  2  0  0  0  0
 16 20  1  0  0  0  0
 17  1  1  0  0  0  0
 18 14  1  0  0  0  0
 19 15  1  0  0  0  0
 21 27  1  0  0  0  0
 21 22  1  0  0  0  0
 22 28  1  0  0  0  0
 23 22  2  0  0  0  0
 23 13  1  0  0  0  0
 24 23  1  0  0  0  0
 25 26  1  0  0  0  0
 25 24  2  0  0  0  0
 26 21  2  0  0  0  0
 29 25  1  0  0  0  0
 30 39  1  0  0  0  0
 30 31  1  0  0  0  0
 31 32  2  0  0  0  0
 31  6  1  0  0  0  0
 32 33  1  0  0  0  0
 34 35  1  0  0  0  0
 34 32  1  0  0  0  0
 36 34  2  0  0  0  0
 37 36  1  0  0  0  0
 37 30  2  0  0  0  0
 39 38  1  0  0  0  0
 40 39  2  0  0  0  0
 41 39  2  0  0  0  0
M  END
>  <minimizedAffinity>
-6.32595491

$$$$

 OpenBabel03242522283D

 41 44  0  0  0  0  0  0  0  0999 V2000
   40.1740   29.2560   42.1030 C   0  0  0  0  0  0  0  0  0  0  0  0
   41.3350   29.0040   42.8210 C   0  0  0  0  0  0  0  0  0  0  0  0
   42.4710   29.7080   42.5020 C   0  0  0  0  0  0  0  0  0  0  0  0
   42.4530   30.6470   41.4870 C   0  0  0  0  0  0  0  0  0  0  0  0
   41.2410   30.8370   40.8240 C   0  0  0  0  0  0  0  0  0  0  0  0
   40.1040   30.1760   41.1010 C   0  0  0  0  0  0  0  0  0  0  0  0
   41.5270   28.3250   43.6120 H   0  0  0  0  0  0  0  0  0  0  0  0
   43.4220   29.5490   43.0390 H   0  0  0  0  0  0  0  0  0  0  0  0
   43.4170   31.1660   41.2960 H   0  0  0  0  0  0  0  0  0  0  0  0
   41.4320   31.6030   40.0720 H   0  0  0  0  0  0  0  0  0  0  0  0
   39.5150   26.9460   40.6740 F   0  0  0  0  0  0  0  0  0  0  0  0
   38.6880   27.2780   41.7060 C   0  0  0  0  0  0  0  0  0  0  0  0
   37.5900   26.5300   41.9820 C   0  0  0  0  0  0  0  0  0  0  0  0
   36.7660   27.0000   42.9880 C   0  0  0  0  0  0  0  0  0  0  0  0
   37.0290   28.1660   43.6790 C   0  0  0  0  0  0  0  0  0  0  0  0
   38.1640   28.8360   43.3110 C   0  0  0  0  0  0  0  0  0  0  0  0
   39.0170   28.4310   42.3440 C   0  0  0  0  0  0  0  0  0  0  0  0
   35.9170   26.3000   43.1160 H   0  0  0  0  0  0  0  0  0  0  0  0
   36.2440   28.2970   44.3870 H   0  0  0  0  0  0  0  0  0  0  0  0
   38.0340   29.6530   43.9650 H   0  0  0  0  0  0  0  0  0  0  0  0
   37.7140   22.9470   40.7750 C   0  0  0  0  0  0  0  0  0  0  0  0
   37.9440   24.1000   41.5270 C   0  0  0  0  0  0  0  0  0  0  0  0
   37.3390   25.3360   41.1920 C   0  0  0  0  0  0  0  0  0  0  0  0
   36.5370   25.3350   40.1180 N   0  0  0  0  0  0  0  0  0  0  0  0
   36.3260   24.2080   39.4050 C   0  0  0  0  0  0  0  0  0  0  0  0
   36.8920   23.0490   39.7160 N   0  0  0  0  0  0  0  0  0  0  0  0
   38.1950   22.0490   41.0740 H   0  0  0  0  0  0  0  0  0  0  0  0
   38.5940   24.0300   42.3710 H   0  0  0  0  0  0  0  0  0  0  0  0
   35.6610   24.2600   38.5360 H   0  0  0  0  0  0  0  0  0  0  0  0
   38.7830   30.4340   38.9660 C   0  0  0  0  0  0  0  0  0  0  0  0
   39.1220   30.7350   40.2810 C   0  0  0  0  0  0  0  0  0  0  0  0
   38.4610   31.8240   40.9060 C   0  0  0  0  0  0  0  0  0  0  0  0
   38.6430   32.1550   41.9410 H   0  0  0  0  0  0  0  0  0  0  0  0
   37.4880   32.6090   40.2710 C   0  0  0  0  0  0  0  0  0  0  0  0
   36.9980   33.4230   40.7490 H   0  0  0  0  0  0  0  0  0  0  0  0
   37.1770   32.2720   38.9470 C   0  0  0  0  0  3  0  0  0  0  0  0
   37.8220   31.2080   38.3340 C   0  0  0  0  0  3  0  0  0  0  0  0
   40.2320   28.2440   39.0720 H   0  0  0  0  0  0  0  0  0  0  0  0
   39.6120   29.1120   38.2770 S   0  0  0  0  0  0  0  0  0  0  0  0
   38.8220   28.4500   37.1490 O   0  0  0  0  0  0  0  0  0  0  0  0
   40.7520   29.7270   37.4830 O   0  0  0  0  0  0  0  0  0  0  0  0
  1 17  1  0  0  0  0
  1  2  1  0  0  0  0
  2  7  1  0  0  0  0
  3  2  2  0  0  0  0
  3  8  1  0  0  0  0
  4  3  1  0  0  0  0
  5  6  1  0  0  0  0
  5  4  2  0  0  0  0
  6  1  2  0  0  0  0
  9  4  1  0  0  0  0
 10  5  1  0  0  0  0
 11 12  1  0  0  0  0
 12 13  2  0  0  0  0
 12 17  1  0  0  0  0
 13 14  1  0  0  0  0
 14 18  1  0  0  0  0
 14 15  2  0  0  0  0
 15 19  1  0  0  0  0
 16 15  1  0  0  0  0
 16 20  1  0  0  0  0
 17 16  2  0  0  0  0
 21 27  1  0  0  0  0
 21 22  1  0  0  0  0
 22 28  1  0  0  0  0
 23 22  2  0  0  0  0
 23 13  1  0  0  0  0
 24 23  1  0  0  0  0
 25 26  1  0  0  0  0
 25 24  2  0  0  0  0
 26 21  2  0  0  0  0
 29 25  1  0  0  0  0
 30 31  1  0  0  0  0
 31 32  2  0  0  0  0
 31  6  1  0  0  0  0
 32 33  1  0  0  0  0
 34 35  1  0  0  0  0
 34 32  1  0  0  0  0
 36 34  2  0  0  0  0
 37 36  1  0  0  0  0
 37 30  2  0  0  0  0
 39 30  1  0  0  0  0
 39 38  1  0  0  0  0
 40 39  2  0  0  0  0
 41 39  2  0  0  0  0
M  END
>  <minimizedAffinity>
-6.10276699

$$$$

 OpenBabel03242522283D

 41 44  0  0  0  0  0  0  0  0999 V2000
   36.7640   29.2950   38.8480 C   0  0  0  0  0  0  0  0  0  0  0  0
   36.0570   29.2440   37.6550 C   0  0  0  0  0  0  0  0  0  0  0  0
   35.4780   28.0550   37.2840 C   0  0  0  0  0  0  0  0  0  0  0  0
   35.6010   26.9340   38.0850 C   0  0  0  0  0  0  0  0  0  0  0  0
   36.3260   27.0790   39.2660 C   0  0  0  0  0  0  0  0  0  0  0  0
   36.9070   28.2210   39.6750 C   0  0  0  0  0  0  0  0  0  0  0  0
   35.8710   29.9920   36.9270 H   0  0  0  0  0  0  0  0  0  0  0  0
   34.9040   27.9560   36.3470 H   0  0  0  0  0  0  0  0  0  0  0  0
   35.1040   26.0160   37.7040 H   0  0  0  0  0  0  0  0  0  0  0  0
   36.3090   26.1010   39.7460 H   0  0  0  0  0  0  0  0  0  0  0  0
   39.4040   29.8530   38.1180 F   0  0  0  0  0  0  0  0  0  0  0  0
   38.7440   30.8300   38.8040 C   0  0  0  0  0  0  0  0  0  0  0  0
   39.3690   31.9880   39.1310 C   0  0  0  0  0  0  0  0  0  0  0  0
   38.6450   32.8770   39.9050 C   0  0  0  0  0  0  0  0  0  0  0  0
   37.3580   32.6120   40.3320 C   0  0  0  0  0  0  0  0  0  0  0  0
   36.8340   31.4110   39.9400 C   0  0  0  0  0  0  0  0  0  0  0  0
   37.4810   30.5000   39.1790 C   0  0  0  0  0  0  0  0  0  0  0  0
   39.2630   33.7760   40.0960 H   0  0  0  0  0  0  0  0  0  0  0  0
   37.0400   33.4490   40.9080 H   0  0  0  0  0  0  0  0  0  0  0  0
   35.9190   31.5110   40.4540 H   0  0  0  0  0  0  0  0  0  0  0  0
   43.1510   31.9190   39.0620 C   0  0  0  0  0  0  0  0  0  0  0  0
   41.8300   31.7260   39.4690 C   0  0  0  0  0  0  0  0  0  0  0  0
   40.7400   32.1930   38.6940 C   0  0  0  0  0  0  0  0  0  0  0  0
   41.0480   32.8270   37.5540 N   0  0  0  0  0  0  0  0  0  0  0  0
   42.3330   33.0020   37.1780 C   0  0  0  0  0  0  0  0  0  0  0  0
   43.3560   32.5660   37.9020 N   0  0  0  0  0  0  0  0  0  0  0  0
   43.9260   31.5460   39.6850 H   0  0  0  0  0  0  0  0  0  0  0  0
   41.6550   31.2120   40.3880 H   0  0  0  0  0  0  0  0  0  0  0  0
   42.5330   33.5270   36.2370 H   0  0  0  0  0  0  0  0  0  0  0  0
   38.7000   27.5020   41.2980 C   0  0  0  0  0  0  0  0  0  0  0  0
   37.4360   27.9560   40.9390 C   0  0  0  0  0  0  0  0  0  0  0  0
   36.4670   28.1080   41.9650 C   0  0  0  0  0  0  0  0  0  0  0  0
   35.4360   28.4590   41.8040 H   0  0  0  0  0  0  0  0  0  0  0  0
   36.7180   27.8260   43.3160 C   0  0  0  0  0  0  0  0  0  0  0  0
   35.9840   27.9430   44.0770 H   0  0  0  0  0  0  0  0  0  0  0  0
   38.0040   27.3710   43.6330 C   0  0  0  0  0  3  0  0  0  0  0  0
   38.9520   27.2210   42.6320 C   0  0  0  0  0  3  0  0  0  0  0  0
   39.3730   27.3250   38.7630 H   0  0  0  0  0  0  0  0  0  0  0  0
   39.8170   27.3460   40.0180 S   0  0  0  0  0  0  0  0  0  0  0  0
   41.0570   28.2170   40.2120 O   0  0  0  0  0  0  0  0  0  0  0  0
   40.4270   25.9650   40.1880 O   0  0  0  0  0  0  0  0  0  0  0  0
  1 17  1  0  0  0  0
  1  6  1  0  0  0  0
  2  1  2  0  0  0  0
  3  2  1  0  0  0  0
  3  4  2  0  0  0  0
  4  5  1  0  0  0  0
  5  6  2  0  0  0  0
  5 10  1  0  0  0  0
  6 31  1  0  0  0  0
  7  2  1  0  0  0  0
  8  3  1  0  0  0  0
  9  4  1  0  0  0  0
 11 12  1  0  0  0  0
 12 13  2  0  0  0  0
 12 17  1  0  0  0  0
 13 14  1  0  0  0  0
 14 18  1  0  0  0  0
 14 15  2  0  0  0  0
 15 19  1  0  0  0  0
 16 15  1  0  0  0  0
 16 20  1  0  0  0  0
 17 16  2  0  0  0  0
 21 22  1  0  0  0  0
 21 27  1  0  0  0  0
 22 28  1  0  0  0  0
 23 13  1  0  0  0  0
 23 22  2  0  0  0  0
 24 23  1  0  0  0  0
 25 24  2  0  0  0  0
 25 26  1  0  0  0  0
 26 21  2  0  0  0  0
 29 25  1  0  0  0  0
 30 37  1  0  0  0  0
 31 30  2  0  0  0  0
 31 32  1  0  0  0  0
 32 34  2  0  0  0  0
 33 32  1  0  0  0  0
 34 36  1  0  0  0  0
 34 35  1  0  0  0  0
 37 36  2  0  0  0  0
 38 39  1  0  0  0  0
 39 41  2  0  0  0  0
 39 40  2  0  0  0  0
 39 30  1  0  0  0  0
M  END
>  <minimizedAffinity>
-5.96161556

$$$$

 OpenBabel03242522283D

 41 44  0  0  0  0  0  0  0  0999 V2000
   36.9910   25.6490   40.6970 C   0  0  0  0  0  0  0  0  0  0  0  0
   36.8340   24.3110   41.0320 C   0  0  0  0  0  0  0  0  0  0  0  0
   36.2480   23.4690   40.1190 C   0  0  0  0  0  0  0  0  0  0  0  0
   35.8240   23.9480   38.8930 C   0  0  0  0  0  0  0  0  0  0  0  0
   36.0250   25.3040   38.6420 C   0  0  0  0  0  0  0  0  0  0  0  0
   36.5970   26.1670   39.5000 C   0  0  0  0  0  0  0  0  0  0  0  0
   37.0910   23.7840   41.9150 H   0  0  0  0  0  0  0  0  0  0  0  0
   36.0990   22.3960   40.3320 H   0  0  0  0  0  0  0  0  0  0  0  0
   35.3580   23.1970   38.2200 H   0  0  0  0  0  0  0  0  0  0  0  0
   35.6290   25.4820   37.6420 H   0  0  0  0  0  0  0  0  0  0  0  0
   39.6430   26.5000   40.9320 F   0  0  0  0  0  0  0  0  0  0  0  0
   38.7520   27.0360   41.8150 C   0  0  0  0  0  0  0  0  0  0  0  0
   39.1640   27.9080   42.7700 C   0  0  0  0  0  0  0  0  0  0  0  0
   38.2040   28.3240   43.6740 C   0  0  0  0  0  0  0  0  0  0  0  0
   36.8960   27.8830   43.6240 C   0  0  0  0  0  0  0  0  0  0  0  0
   36.6000   27.0040   42.6170 C   0  0  0  0  0  0  0  0  0  0  0  0
   37.4850   26.5620   41.6970 C   0  0  0  0  0  0  0  0  0  0  0  0
   38.6650   29.0320   44.3910 H   0  0  0  0  0  0  0  0  0  0  0  0
   36.3750   28.3490   44.4270 H   0  0  0  0  0  0  0  0  0  0  0  0
   35.5950   26.8450   42.8930 H   0  0  0  0  0  0  0  0  0  0  0  0
   42.8410   27.9800   43.6580 C   0  0  0  0  0  0  0  0  0  0  0  0
   41.4950   27.6090   43.6140 C   0  0  0  0  0  0  0  0  0  0  0  0
   40.5630   28.3020   42.8030 C   0  0  0  0  0  0  0  0  0  0  0  0
   41.0430   29.3260   42.0850 N   0  0  0  0  0  0  0  0  0  0  0  0
   42.3480   29.6670   42.1410 C   0  0  0  0  0  0  0  0  0  0  0  0
   43.2240   29.0210   42.8990 N   0  0  0  0  0  0  0  0  0  0  0  0
   43.4930   27.4230   44.2850 H   0  0  0  0  0  0  0  0  0  0  0  0
   41.1800   26.7830   44.2110 H   0  0  0  0  0  0  0  0  0  0  0  0
   42.6910   30.5130   41.5340 H   0  0  0  0  0  0  0  0  0  0  0  0
   37.7050   27.8680   38.0010 C   0  0  0  0  0  0  0  0  0  0  0  0
   36.6920   27.3830   38.8210 C   0  0  0  0  0  0  0  0  0  0  0  0
   35.6050   28.2460   39.1180 C   0  0  0  0  0  0  0  0  0  0  0  0
   34.7470   27.9750   39.7530 H   0  0  0  0  0  0  0  0  0  0  0  0
   35.5000   29.5560   38.6300 C   0  0  0  0  0  0  0  0  0  0  0  0
   34.6800   30.1950   38.8590 H   0  0  0  0  0  0  0  0  0  0  0  0
   36.5420   30.0050   37.8080 C   0  0  0  0  0  3  0  0  0  0  0  0
   37.6050   29.1630   37.5170 C   0  0  0  0  0  3  0  0  0  0  0  0
   39.4060   25.9730   38.6500 H   0  0  0  0  0  0  0  0  0  0  0  0
   38.9780   26.7790   37.6810 S   0  0  0  0  0  0  0  0  0  0  0  0
   38.8270   26.0830   36.3290 O   0  0  0  0  0  0  0  0  0  0  0  0
   40.1880   27.6530   37.4000 O   0  0  0  0  0  0  0  0  0  0  0  0
  1  2  1  0  0  0  0
  1 17  1  0  0  0  0
  2  7  1  0  0  0  0
  3  8  1  0  0  0  0
  3  2  2  0  0  0  0
  4  3  1  0  0  0  0
  5  4  2  0  0  0  0
  5  6  1  0  0  0  0
  6  1  2  0  0  0  0
  9  4  1  0  0  0  0
 10  5  1  0  0  0  0
 11 12  1  0  0  0  0
 12 13  1  0  0  0  0
 13 23  1  0  0  0  0
 13 14  2  0  0  0  0
 14 18  1  0  0  0  0
 15 14  1  0  0  0  0
 15 19  1  0  0  0  0
 16 20  1  0  0  0  0
 16 15  2  0  0  0  0
 17 12  2  0  0  0  0
 17 16  1  0  0  0  0
 21 27  1  0  0  0  0
 22 21  1  0  0  0  0
 22 28  1  0  0  0  0
 23 22  2  0  0  0  0
 24 25  2  0  0  0  0
 24 23  1  0  0  0  0
 25 26  1  0  0  0  0
 26 21  2  0  0  0  0
 29 25  1  0  0  0  0
 30 31  1  0  0  0  0
 31 32  2  0  0  0  0
 31  6  1  0  0  0  0
 32 33  1  0  0  0  0
 34 35  1  0  0  0  0
 34 32  1  0  0  0  0
 36 34  2  0  0  0  0
 37 36  1  0  0  0  0
 37 30  2  0  0  0  0
 39 30  1  0  0  0  0
 39 38  1  0  0  0  0
 40 39  2  0  0  0  0
 41 39  2  0  0  0  0
M  END
>  <minimizedAffinity>
-5.94114542

$$$$

 OpenBabel03242522283D

 41 44  0  0  0  0  0  0  0  0999 V2000
   36.9280   28.5230   38.4770 C   0  0  0  0  0  0  0  0  0  0  0  0
   36.1360   28.6390   37.3430 C   0  0  0  0  0  0  0  0  0  0  0  0
   34.7980   28.9090   37.4990 C   0  0  0  0  0  0  0  0  0  0  0  0
   34.2560   29.0610   38.7630 C   0  0  0  0  0  0  0  0  0  0  0  0
   35.1270   28.9310   39.8430 C   0  0  0  0  0  0  0  0  0  0  0  0
   36.4420   28.6720   39.7410 C   0  0  0  0  0  0  0  0  0  0  0  0
   36.3790   28.5460   36.3150 H   0  0  0  0  0  0  0  0  0  0  0  0
   34.1220   29.0110   36.6340 H   0  0  0  0  0  0  0  0  0  0  0  0
   33.1660   29.2740   38.7940 H   0  0  0  0  0  0  0  0  0  0  0  0
   34.5180   29.0820   40.7340 H   0  0  0  0  0  0  0  0  0  0  0  0
   38.9980   30.1410   37.5240 F   0  0  0  0  0  0  0  0  0  0  0  0
   39.3430   28.8800   37.9130 C   0  0  0  0  0  0  0  0  0  0  0  0
   40.6230   28.4480   37.8000 C   0  0  0  0  0  0  0  0  0  0  0  0
   40.8540   27.1260   38.1350 C   0  0  0  0  0  0  0  0  0  0  0  0
   39.8480   26.2790   38.5570 C   0  0  0  0  0  0  0  0  0  0  0  0
   38.5960   26.8290   38.6290 C   0  0  0  0  0  0  0  0  0  0  0  0
   38.3010   28.1120   38.3250 C   0  0  0  0  0  0  0  0  0  0  0  0
   41.9320   26.9040   38.0050 H   0  0  0  0  0  0  0  0  0  0  0  0
   40.2920   25.3300   38.7420 H   0  0  0  0  0  0  0  0  0  0  0  0
   38.0980   25.9450   38.9160 H   0  0  0  0  0  0  0  0  0  0  0  0
   43.3130   29.9760   35.6230 C   0  0  0  0  0  0  0  0  0  0  0  0
   42.3380   29.1020   36.1070 C   0  0  0  0  0  0  0  0  0  0  0  0
   41.6340   29.3690   37.3070 C   0  0  0  0  0  0  0  0  0  0  0  0
   41.9550   30.5010   37.9470 N   0  0  0  0  0  0  0  0  0  0  0  0
   42.9010   31.3330   37.4610 C   0  0  0  0  0  0  0  0  0  0  0  0
   43.5620   31.0870   36.3380 N   0  0  0  0  0  0  0  0  0  0  0  0
   43.8070   29.7230   34.7180 H   0  0  0  0  0  0  0  0  0  0  0  0
   42.1300   28.2180   35.5460 H   0  0  0  0  0  0  0  0  0  0  0  0
   43.1270   32.2470   38.0230 H   0  0  0  0  0  0  0  0  0  0  0  0
   37.7610   29.6800   41.6420 C   0  0  0  0  0  0  0  0  0  0  0  0
   36.9500   28.7240   41.0410 C   0  0  0  0  0  0  0  0  0  0  0  0
   36.6280   27.5600   41.7860 C   0  0  0  0  0  0  0  0  0  0  0  0
   35.9960   26.7370   41.4170 H   0  0  0  0  0  0  0  0  0  0  0  0
   37.0830   27.3240   43.0910 C   0  0  0  0  0  0  0  0  0  0  0  0
   36.8360   26.4480   43.6410 H   0  0  0  0  0  0  0  0  0  0  0  0
   37.8980   28.3130   43.6590 C   0  0  0  0  0  3  0  0  0  0  0  0
   38.2130   29.4510   42.9320 C   0  0  0  0  0  3  0  0  0  0  0  0
   38.7130   30.9040   39.5200 H   0  0  0  0  0  0  0  0  0  0  0  0
   38.1040   31.0560   40.6940 S   0  0  0  0  0  0  0  0  0  0  0  0
   36.9410   32.0450   40.6550 O   0  0  0  0  0  0  0  0  0  0  0  0
   39.1120   31.8550   41.5030 O   0  0  0  0  0  0  0  0  0  0  0  0
  1  6  1  0  0  0  0
  2  3  1  0  0  0  0
  2  1  2  0  0  0  0
  3  4  2  0  0  0  0
  4  9  1  0  0  0  0
  4  5  1  0  0  0  0
  5 10  1  0  0  0  0
  6  5  2  0  0  0  0
  6 31  1  0  0  0  0
  7  2  1  0  0  0  0
  8  3  1  0  0  0  0
 11 12  1  0  0  0  0
 12 17  1  0  0  0  0
 13 12  2  0  0  0  0
 13 14  1  0  0  0  0
 14 15  2  0  0  0  0
 15 16  1  0  0  0  0
 15 19  1  0  0  0  0
 16 20  1  0  0  0  0
 17  1  1  0  0  0  0
 17 16  2  0  0  0  0
 18 14  1  0  0  0  0
 21 22  2  0  0  0  0
 21 26  1  0  0  0  0
 22 23  1  0  0  0  0
 23 13  1  0  0  0  0
 23 24  2  0  0  0  0
 25 24  1  0  0  0  0
 25 29  1  0  0  0  0
 26 25  2  0  0  0  0
 27 21  1  0  0  0  0
 28 22  1  0  0  0  0
 30 37  1  0  0  0  0
 31 30  2  0  0  0  0
 31 32  1  0  0  0  0
 32 34  2  0  0  0  0
 33 32  1  0  0  0  0
 34 35  1  0  0  0  0
 34 36  1  0  0  0  0
 37 36  2  0  0  0  0
 38 39  1  0  0  0  0
 39 41  2  0  0  0  0
 39 30  1  0  0  0  0
 40 39  2  0  0  0  0
M  END
>  <minimizedAffinity>
-5.91335106

$$$$

 OpenBabel03242522283D

 41 44  0  0  0  0  0  0  0  0999 V2000
   36.1300   27.9950   39.8830 C   0  0  0  0  0  0  0  0  0  0  0  0
   35.1480   28.8330   39.3740 C   0  0  0  0  0  0  0  0  0  0  0  0
   34.4860   28.4530   38.2320 C   0  0  0  0  0  0  0  0  0  0  0  0
   34.7950   27.2590   37.6060 C   0  0  0  0  0  0  0  0  0  0  0  0
   35.7920   26.4790   38.1910 C   0  0  0  0  0  0  0  0  0  0  0  0
   36.4650   26.8060   39.3080 C   0  0  0  0  0  0  0  0  0  0  0  0
   34.7930   29.7730   39.7140 H   0  0  0  0  0  0  0  0  0  0  0  0
   33.6970   29.0790   37.7830 H   0  0  0  0  0  0  0  0  0  0  0  0
   34.2120   27.0340   36.6880 H   0  0  0  0  0  0  0  0  0  0  0  0
   35.8860   25.5960   37.5590 H   0  0  0  0  0  0  0  0  0  0  0  0
   38.3290   29.7130   39.7200 F   0  0  0  0  0  0  0  0  0  0  0  0
   37.9590   29.3180   40.9720 C   0  0  0  0  0  0  0  0  0  0  0  0
   38.6590   29.7240   42.0600 C   0  0  0  0  0  0  0  0  0  0  0  0
   38.2600   29.1960   43.2750 C   0  0  0  0  0  0  0  0  0  0  0  0
   37.2140   28.3010   43.3890 C   0  0  0  0  0  0  0  0  0  0  0  0
   36.5850   27.9660   42.2210 C   0  0  0  0  0  0  0  0  0  0  0  0
   36.9160   28.4480   41.0030 C   0  0  0  0  0  0  0  0  0  0  0  0
   38.9050   29.6090   44.0770 H   0  0  0  0  0  0  0  0  0  0  0  0
   37.1230   28.0540   44.4210 H   0  0  0  0  0  0  0  0  0  0  0  0
   35.9160   27.2700   42.6460 H   0  0  0  0  0  0  0  0  0  0  0  0
   42.1300   31.2100   42.2780 C   0  0  0  0  0  0  0  0  0  0  0  0
   41.0460   30.3470   42.4440 C   0  0  0  0  0  0  0  0  0  0  0  0
   39.7790   30.6300   41.8760 C   0  0  0  0  0  0  0  0  0  0  0  0
   39.6830   31.7670   41.1740 N   0  0  0  0  0  0  0  0  0  0  0  0
   40.7440   32.5880   41.0240 C   0  0  0  0  0  0  0  0  0  0  0  0
   41.9310   32.3260   41.5540 N   0  0  0  0  0  0  0  0  0  0  0  0
   43.0550   30.9450   42.7270 H   0  0  0  0  0  0  0  0  0  0  0  0
   41.1930   29.4570   43.0150 H   0  0  0  0  0  0  0  0  0  0  0  0
   40.6130   33.5060   40.4400 H   0  0  0  0  0  0  0  0  0  0  0  0
   38.6020   25.4680   39.2130 C   0  0  0  0  0  0  0  0  0  0  0  0
   37.2890   25.7170   39.5970 C   0  0  0  0  0  0  0  0  0  0  0  0
   36.6030   24.7060   40.3200 C   0  0  0  0  0  0  0  0  0  0  0  0
   35.5650   24.7880   40.6760 H   0  0  0  0  0  0  0  0  0  0  0  0
   37.1780   23.4750   40.6660 C   0  0  0  0  0  0  0  0  0  0  0  0
   36.6560   22.7240   41.2080 H   0  0  0  0  0  0  0  0  0  0  0  0
   38.5030   23.2660   40.2600 C   0  0  0  0  0  3  0  0  0  0  0  0
   39.1740   24.2520   39.5530 C   0  0  0  0  0  3  0  0  0  0  0  0
   38.8980   27.9670   38.4530 H   0  0  0  0  0  0  0  0  0  0  0  0
   39.3680   26.7250   38.3520 S   0  0  0  0  0  0  0  0  0  0  0  0
   40.8920   26.6410   38.4250 O   0  0  0  0  0  0  0  0  0  0  0  0
   39.1500   26.3930   36.8860 O   0  0  0  0  0  0  0  0  0  0  0  0
  1 17  1  0  0  0  0
  2  7  1  0  0  0  0
  2  1  1  0  0  0  0
  3  2  2  0  0  0  0
  4  5  2  0  0  0  0
  4  3  1  0  0  0  0
  5  6  1  0  0  0  0
  6 31  1  0  0  0  0
  6  1  2  0  0  0  0
  8  3  1  0  0  0  0
  9  4  1  0  0  0  0
 10  5  1  0  0  0  0
 11 12  1  0  0  0  0
 12 17  2  0  0  0  0
 12 13  1  0  0  0  0
 13 14  2  0  0  0  0
 14 15  1  0  0  0  0
 14 18  1  0  0  0  0
 15 19  1  0  0  0  0
 16 20  1  0  0  0  0
 16 15  2  0  0  0  0
 17 16  1  0  0  0  0
 21 22  1  0  0  0  0
 21 27  1  0  0  0  0
 22 28  1  0  0  0  0
 23 13  1  0  0  0  0
 23 22  2  0  0  0  0
 24 23  1  0  0  0  0
 25 24  2  0  0  0  0
 25 26  1  0  0  0  0
 26 21  2  0  0  0  0
 29 25  1  0  0  0  0
 30 37  2  0  0  0  0
 30 31  1  0  0  0  0
 31 32  2  0  0  0  0
 32 34  1  0  0  0  0
 32 33  1  0  0  0  0
 34 35  1  0  0  0  0
 36 34  2  0  0  0  0
 37 36  1  0  0  0  0
 39 40  2  0  0  0  0
 39 38  1  0  0  0  0
 39 30  1  0  0  0  0
 41 39  2  0  0  0  0
M  END
>  <minimizedAffinity>
-5.90877104

$$$$

 OpenBabel03242522283D

 41 44  0  0  0  0  0  0  0  0999 V2000
   37.5700   31.8330   39.8470 C   0  0  0  0  0  0  0  0  0  0  0  0
   37.1960   33.1370   39.5550 C   0  0  0  0  0  0  0  0  0  0  0  0
   38.0300   34.1610   39.9350 C   0  0  0  0  0  0  0  0  0  0  0  0
   39.2150   33.8930   40.5950 C   0  0  0  0  0  0  0  0  0  0  0  0
   39.5110   32.5540   40.8420 C   0  0  0  0  0  0  0  0  0  0  0  0
   38.7310   31.5180   40.4870 C   0  0  0  0  0  0  0  0  0  0  0  0
   36.3340   33.5190   39.0700 H   0  0  0  0  0  0  0  0  0  0  0  0
   37.7830   35.2170   39.7290 H   0  0  0  0  0  0  0  0  0  0  0  0
   39.8240   34.7820   40.8660 H   0  0  0  0  0  0  0  0  0  0  0  0
   40.4690   32.5530   41.3620 H   0  0  0  0  0  0  0  0  0  0  0  0
   37.0610   30.7610   37.3160 F   0  0  0  0  0  0  0  0  0  0  0  0
   36.4020   30.1860   38.3630 C   0  0  0  0  0  0  0  0  0  0  0  0
   35.5260   29.1720   38.1560 C   0  0  0  0  0  0  0  0  0  0  0  0
   34.8410   28.7180   39.2690 C   0  0  0  0  0  0  0  0  0  0  0  0
   35.0250   29.2590   40.5260 C   0  0  0  0  0  0  0  0  0  0  0  0
   35.9340   30.2790   40.6100 C   0  0  0  0  0  0  0  0  0  0  0  0
   36.6430   30.7660   39.5680 C   0  0  0  0  0  0  0  0  0  0  0  0
   34.1670   27.8920   38.9660 H   0  0  0  0  0  0  0  0  0  0  0  0
   34.3800   28.7360   41.1920 H   0  0  0  0  0  0  0  0  0  0  0  0
   35.7920   30.4760   41.6360 H   0  0  0  0  0  0  0  0  0  0  0  0
   33.9970   28.5480   34.7520 C   0  0  0  0  0  0  0  0  0  0  0  0
   34.1920   29.0240   36.0500 C   0  0  0  0  0  0  0  0  0  0  0  0
   35.3380   28.6720   36.8040 C   0  0  0  0  0  0  0  0  0  0  0  0
   36.2210   27.8620   36.2030 N   0  0  0  0  0  0  0  0  0  0  0  0
   36.0140   27.4150   34.9460 C   0  0  0  0  0  0  0  0  0  0  0  0
   34.9420   27.7410   34.2380 N   0  0  0  0  0  0  0  0  0  0  0  0
   33.1180   28.8460   34.2360 H   0  0  0  0  0  0  0  0  0  0  0  0
   33.4490   29.6660   36.4680 H   0  0  0  0  0  0  0  0  0  0  0  0
   36.7660   26.7540   34.5000 H   0  0  0  0  0  0  0  0  0  0  0  0
   40.1720   29.4980   40.0280 C   0  0  0  0  0  0  0  0  0  0  0  0
   39.4390   30.3640   40.8310 C   0  0  0  0  0  0  0  0  0  0  0  0
   39.2780   30.0280   42.2000 C   0  0  0  0  0  0  0  0  0  0  0  0
   38.7200   30.6350   42.9310 H   0  0  0  0  0  0  0  0  0  0  0  0
   39.8180   28.8730   42.7840 C   0  0  0  0  0  0  0  0  0  0  0  0
   39.6920   28.6310   43.8120 H   0  0  0  0  0  0  0  0  0  0  0  0
   40.5500   28.0280   41.9400 C   0  0  0  0  0  3  0  0  0  0  0  0
   40.7080   28.3540   40.6010 C   0  0  0  0  0  3  0  0  0  0  0  0
   39.7650   31.0950   37.9810 H   0  0  0  0  0  0  0  0  0  0  0  0
   40.3300   29.9630   38.3950 S   0  0  0  0  0  0  0  0  0  0  0  0
   41.7470   29.7580   37.8620 O   0  0  0  0  0  0  0  0  0  0  0  0
   39.5880   28.8990   37.6050 O   0  0  0  0  0  0  0  0  0  0  0  0
  1  6  1  0  0  0  0
  2  1  2  0  0  0  0
  2  3  1  0  0  0  0
  3  4  2  0  0  0  0
  4  5  1  0  0  0  0
  4  9  1  0  0  0  0
  5 10  1  0  0  0  0
  6 31  1  0  0  0  0
  6  5  2  0  0  0  0
  7  2  1  0  0  0  0
  8  3  1  0  0  0  0
 11 12  1  0  0  0  0
 12 17  1  0  0  0  0
 13 12  2  0  0  0  0
 13 14  1  0  0  0  0
 14 15  2  0  0  0  0
 15 16  1  0  0  0  0
 15 19  1  0  0  0  0
 16 20  1  0  0  0  0
 17  1  1  0  0  0  0
 17 16  2  0  0  0  0
 18 14  1  0  0  0  0
 21 22  1  0  0  0  0
 22 28  1  0  0  0  0
 22 23  2  0  0  0  0
 23 13  1  0  0  0  0
 24 23  1  0  0  0  0
 25 24  2  0  0  0  0
 26 21  2  0  0  0  0
 26 25  1  0  0  0  0
 27 21  1  0  0  0  0
 29 25  1  0  0  0  0
 30 37  2  0  0  0  0
 30 31  1  0  0  0  0
 31 32  2  0  0  0  0
 32 34  1  0  0  0  0
 32 33  1  0  0  0  0
 34 35  1  0  0  0  0
 36 34  2  0  0  0  0
 37 36  1  0  0  0  0
 38 39  1  0  0  0  0
 39 30  1  0  0  0  0
 40 39  2  0  0  0  0
 41 39  2  0  0  0  0
M  END
>  <minimizedAffinity>
-5.89461231

$$$$

 OpenBabel03242522283D

 41 44  0  0  0  0  0  0  0  0999 V2000
   36.5710   28.5000   41.2690 C   0  0  0  0  0  0  0  0  0  0  0  0
   36.3200   27.6860   42.3650 C   0  0  0  0  0  0  0  0  0  0  0  0
   37.0680   27.8640   43.5030 C   0  0  0  0  0  0  0  0  0  0  0  0
   38.0510   28.8360   43.5510 C   0  0  0  0  0  0  0  0  0  0  0  0
   38.2300   29.6100   42.4050 C   0  0  0  0  0  0  0  0  0  0  0  0
   37.5210   29.4760   41.2710 C   0  0  0  0  0  0  0  0  0  0  0  0
   35.6210   26.8990   42.4980 H   0  0  0  0  0  0  0  0  0  0  0  0
   36.9120   27.2460   44.4030 H   0  0  0  0  0  0  0  0  0  0  0  0
   38.6090   28.9070   44.5090 H   0  0  0  0  0  0  0  0  0  0  0  0
   39.0360   30.3040   42.6400 H   0  0  0  0  0  0  0  0  0  0  0  0
   37.2660   26.5120   39.4310 F   0  0  0  0  0  0  0  0  0  0  0  0
   36.1560   27.2480   39.1390 C   0  0  0  0  0  0  0  0  0  0  0  0
   35.4630   27.0290   37.9930 C   0  0  0  0  0  0  0  0  0  0  0  0
   34.4070   27.8870   37.7440 C   0  0  0  0  0  0  0  0  0  0  0  0
   34.0670   28.9160   38.6000 C   0  0  0  0  0  0  0  0  0  0  0  0
   34.8400   29.0380   39.7240 C   0  0  0  0  0  0  0  0  0  0  0  0
   35.8800   28.2320   40.0330 C   0  0  0  0  0  0  0  0  0  0  0  0
   33.9260   27.5990   36.7880 H   0  0  0  0  0  0  0  0  0  0  0  0
   33.2310   29.4180   38.1730 H   0  0  0  0  0  0  0  0  0  0  0  0
   34.3630   29.9000   40.0990 H   0  0  0  0  0  0  0  0  0  0  0  0
   35.7850   23.6140   36.3990 C   0  0  0  0  0  0  0  0  0  0  0  0
   35.3780   24.6490   37.2420 C   0  0  0  0  0  0  0  0  0  0  0  0
   35.8940   25.9620   37.1060 C   0  0  0  0  0  0  0  0  0  0  0  0
   36.7890   26.1510   36.1270 N   0  0  0  0  0  0  0  0  0  0  0  0
   37.1680   25.1360   35.3220 C   0  0  0  0  0  0  0  0  0  0  0  0
   36.6880   23.9060   35.4460 N   0  0  0  0  0  0  0  0  0  0  0  0
   35.3640   22.6510   36.5490 H   0  0  0  0  0  0  0  0  0  0  0  0
   34.6600   24.4290   38.0010 H   0  0  0  0  0  0  0  0  0  0  0  0
   37.9040   25.3430   34.5360 H   0  0  0  0  0  0  0  0  0  0  0  0
   38.9540   30.4980   39.4620 C   0  0  0  0  0  0  0  0  0  0  0  0
   37.9490   30.5000   40.4230 C   0  0  0  0  0  0  0  0  0  0  0  0
   37.2810   31.7240   40.6860 C   0  0  0  0  0  0  0  0  0  0  0  0
   36.4710   31.8490   41.4220 H   0  0  0  0  0  0  0  0  0  0  0  0
   37.5800   32.9270   40.0310 C   0  0  0  0  0  0  0  0  0  0  0  0
   37.0730   33.8390   40.2360 H   0  0  0  0  0  0  0  0  0  0  0  0
   38.5990   32.8810   39.0700 C   0  0  0  0  0  3  0  0  0  0  0  0
   39.2530   31.6860   38.8120 C   0  0  0  0  0  3  0  0  0  0  0  0
   39.4700   27.9830   40.0230 H   0  0  0  0  0  0  0  0  0  0  0  0
   39.7120   28.9940   39.1920 S   0  0  0  0  0  0  0  0  0  0  0  0
   39.7020   28.5900   37.7190 O   0  0  0  0  0  0  0  0  0  0  0  0
   41.1950   29.2550   39.3900 O   0  0  0  0  0  0  0  0  0  0  0  0
  1  6  2  0  0  0  0
  1  2  1  0  0  0  0
  2  7  1  0  0  0  0
  2  3  2  0  0  0  0
  3  4  1  0  0  0  0
  3  8  1  0  0  0  0
  4  9  1  0  0  0  0
  5 10  1  0  0  0  0
  5  4  2  0  0  0  0
  6  5  1  0  0  0  0
 12 11  1  0  0  0  0
 12 17  1  0  0  0  0
 13 12  2  0  0  0  0
 14 13  1  0  0  0  0
 14 15  2  0  0  0  0
 15 16  1  0  0  0  0
 16 17  2  0  0  0  0
 16 20  1  0  0  0  0
 17  1  1  0  0  0  0
 18 14  1  0  0  0  0
 19 15  1  0  0  0  0
 21 27  1  0  0  0  0
 21 22  1  0  0  0  0
 22 28  1  0  0  0  0
 23 22  2  0  0  0  0
 23 13  1  0  0  0  0
 24 23  1  0  0  0  0
 25 26  1  0  0  0  0
 25 24  2  0  0  0  0
 26 21  2  0  0  0  0
 29 25  1  0  0  0  0
 30 31  1  0  0  0  0
 31 32  2  0  0  0  0
 31  6  1  0  0  0  0
 32 33  1  0  0  0  0
 34 35  1  0  0  0  0
 34 32  1  0  0  0  0
 36 34  2  0  0  0  0
 37 36  1  0  0  0  0
 37 30  2  0  0  0  0
 39 41  2  0  0  0  0
 39 30  1  0  0  0  0
 39 38  1  0  0  0  0
 40 39  2  0  0  0  0
M  END
>  <minimizedAffinity>
-5.81508923

$$$$

 OpenBabel03242522283D

 41 44  0  0  0  0  0  0  0  0999 V2000
   36.2690   26.8540   39.1590 C   0  0  0  0  0  0  0  0  0  0  0  0
   35.4990   26.7650   38.0080 C   0  0  0  0  0  0  0  0  0  0  0  0
   34.6230   27.7840   37.7210 C   0  0  0  0  0  0  0  0  0  0  0  0
   34.5150   28.8740   38.5650 C   0  0  0  0  0  0  0  0  0  0  0  0
   35.3310   28.8810   39.6950 C   0  0  0  0  0  0  0  0  0  0  0  0
   36.2050   27.9110   40.0170 C   0  0  0  0  0  0  0  0  0  0  0  0
   35.4480   26.0100   37.2640 H   0  0  0  0  0  0  0  0  0  0  0  0
   33.9870   27.7660   36.8210 H   0  0  0  0  0  0  0  0  0  0  0  0
   33.7810   29.6480   38.2570 H   0  0  0  0  0  0  0  0  0  0  0  0
   35.1000   29.8070   40.2220 H   0  0  0  0  0  0  0  0  0  0  0  0
   39.0270   26.6690   38.7450 F   0  0  0  0  0  0  0  0  0  0  0  0
   38.4390   25.6230   39.3930 C   0  0  0  0  0  0  0  0  0  0  0  0
   39.1700   24.5460   39.7740 C   0  0  0  0  0  0  0  0  0  0  0  0
   38.4670   23.4990   40.3410 C   0  0  0  0  0  0  0  0  0  0  0  0
   37.0970   23.5300   40.5110 C   0  0  0  0  0  0  0  0  0  0  0  0
   36.4680   24.6690   40.0860 C   0  0  0  0  0  0  0  0  0  0  0  0
   37.0920   25.7310   39.5320 C   0  0  0  0  0  0  0  0  0  0  0  0
   39.1770   22.6910   40.6110 H   0  0  0  0  0  0  0  0  0  0  0  0
   36.8140   22.6070   40.9600 H   0  0  0  0  0  0  0  0  0  0  0  0
   35.4880   24.3490   40.3060 H   0  0  0  0  0  0  0  0  0  0  0  0
   42.8760   25.1580   40.2240 C   0  0  0  0  0  0  0  0  0  0  0  0
   41.4990   25.1450   40.4490 C   0  0  0  0  0  0  0  0  0  0  0  0
   40.6030   24.5480   39.5290 C   0  0  0  0  0  0  0  0  0  0  0  0
   41.1510   23.9980   38.4360 N   0  0  0  0  0  0  0  0  0  0  0  0
   42.4860   24.0190   38.2390 C   0  0  0  0  0  0  0  0  0  0  0  0
   43.3280   24.5780   39.0980 N   0  0  0  0  0  0  0  0  0  0  0  0
   43.4980   25.6200   40.9500 H   0  0  0  0  0  0  0  0  0  0  0  0
   41.1290   25.6020   41.3410 H   0  0  0  0  0  0  0  0  0  0  0  0
   42.8840   23.5550   37.3290 H   0  0  0  0  0  0  0  0  0  0  0  0
   37.9800   29.1970   41.2670 C   0  0  0  0  0  0  0  0  0  0  0  0
   36.8780   28.3570   41.1560 C   0  0  0  0  0  0  0  0  0  0  0  0
   36.3710   27.7630   42.3410 C   0  0  0  0  0  0  0  0  0  0  0  0
   35.5050   27.0840   42.3790 H   0  0  0  0  0  0  0  0  0  0  0  0
   36.9210   27.9790   43.6130 C   0  0  0  0  0  0  0  0  0  0  0  0
   36.5330   27.5300   44.4950 H   0  0  0  0  0  0  0  0  0  0  0  0
   38.0300   28.8330   43.6790 C   0  0  0  0  0  3  0  0  0  0  0  0
   38.5270   29.4130   42.5220 C   0  0  0  0  0  3  0  0  0  0  0  0
   38.5940   29.1220   38.7120 H   0  0  0  0  0  0  0  0  0  0  0  0
   38.5360   29.8790   39.8050 S   0  0  0  0  0  0  0  0  0  0  0  0
   37.9600   31.2720   39.5530 O   0  0  0  0  0  0  0  0  0  0  0  0
   39.9910   30.2310   40.0590 O   0  0  0  0  0  0  0  0  0  0  0  0
  1 17  1  0  0  0  0
  1  6  1  0  0  0  0
  2  1  2  0  0  0  0
  3  2  1  0  0  0  0
  3  4  2  0  0  0  0
  4  5  1  0  0  0  0
  5  6  2  0  0  0  0
  5 10  1  0  0  0  0
  6 31  1  0  0  0  0
  7  2  1  0  0  0  0
  8  3  1  0  0  0  0
  9  4  1  0  0  0  0
 11 12  1  0  0  0  0
 12 17  2  0  0  0  0
 12 13  1  0  0  0  0
 13 14  2  0  0  0  0
 14 15  1  0  0  0  0
 14 18  1  0  0  0  0
 15 19  1  0  0  0  0
 16 20  1  0  0  0  0
 16 15  2  0  0  0  0
 17 16  1  0  0  0  0
 21 22  1  0  0  0  0
 21 27  1  0  0  0  0
 22 28  1  0  0  0  0
 23 13  1  0  0  0  0
 23 22  2  0  0  0  0
 24 23  1  0  0  0  0
 25 24  2  0  0  0  0
 25 26  1  0  0  0  0
 26 21  2  0  0  0  0
 29 25  1  0  0  0  0
 30 37  1  0  0  0  0
 31 30  2  0  0  0  0
 31 32  1  0  0  0  0
 32 33  1  0  0  0  0
 32 34  2  0  0  0  0
 34 36  1  0  0  0  0
 34 35  1  0  0  0  0
 37 36  2  0  0  0  0
 38 39  1  0  0  0  0
 39 41  2  0  0  0  0
 39 30  1  0  0  0  0
 40 39  2  0  0  0  0
M  END
>  <minimizedAffinity>
-5.77484512

$$$$
