
 OpenBabel03242516203D

 31 33  0  0  0  0  0  0  0  0999 V2000
   46.1830   32.6850   46.9460 C   0  0  0  0  0  0  0  0  0  0  0  0
   47.2570   31.8430   46.8810 C   0  0  0  0  0  0  0  0  0  0  0  0
   47.5890   30.9570   47.8820 C   0  0  0  0  0  0  0  0  0  0  0  0
   46.8000   30.9040   49.0250 C   0  0  0  0  0  0  0  0  0  0  0  0
   45.7210   31.7310   49.1210 C   0  0  0  0  0  0  0  0  0  0  0  0
   45.4300   32.6030   48.0880 C   0  0  0  0  0  0  0  0  0  0  0  0
   47.8940   31.8620   46.0090 H   0  0  0  0  0  0  0  0  0  0  0  0
   47.0160   30.2260   49.8410 H   0  0  0  0  0  0  0  0  0  0  0  0
   45.0740   31.7240   49.9980 H   0  0  0  0  0  0  0  0  0  0  0  0
   44.5640   33.2510   48.1920 H   0  0  0  0  0  0  0  0  0  0  0  0
   44.5830   35.4090   45.1160 C   0  0  0  0  0  0  0  0  0  0  0  0
   45.2100   35.4030   43.8720 C   0  0  0  0  0  0  0  0  0  0  0  0
   46.2030   34.4460   43.6530 C   0  0  0  0  0  0  0  0  0  0  0  0
   46.5050   33.5730   44.6610 N   0  0  0  0  0  0  0  0  0  0  0  0
   45.8780   33.6050   45.8570 C   0  0  0  0  0  0  0  0  0  0  0  0
   44.9080   34.5390   46.0750 N   0  0  0  0  0  0  0  0  0  0  0  0
   43.8060   36.1320   45.3340 H   0  0  0  0  0  0  0  0  0  0  0  0
   44.9630   36.0890   43.0990 H   0  0  0  0  0  0  0  0  0  0  0  0
   46.7310   34.3840   42.7100 H   0  0  0  0  0  0  0  0  0  0  0  0
   49.8660   30.1330   48.6250 C   0  0  0  0  0  0  0  0  0  0  0  0
   48.7170   30.0320   47.8710 C   0  0  0  0  0  0  0  0  0  0  0  0
   48.6050   28.9460   47.0200 C   0  0  0  0  0  0  0  0  0  0  0  0
   47.7430   28.7570   46.3730 H   0  0  0  0  0  0  0  0  0  0  0  0
   49.6080   27.9900   46.9230 C   0  0  0  0  0  0  0  0  0  0  0  0
   49.5720   27.1220   46.2730 H   0  0  0  0  0  0  0  0  0  0  0  0
   50.7430   28.1260   47.6930 C   0  0  0  0  0  3  0  0  0  0  0  0
   50.8790   29.1990   48.5500 C   0  0  0  0  0  3  0  0  0  0  0  0
   48.9840   32.3700   49.6130 H   0  0  0  0  0  0  0  0  0  0  0  0
   50.0220   31.4960   49.6930 S   0  0  0  0  0  0  0  0  0  0  0  0
   50.2010   31.0830   51.1400 O   0  0  0  0  0  0  0  0  0  0  0  0
   51.2700   32.2820   49.3090 O   0  0  0  0  0  0  0  0  0  0  0  0
  1  6  1  0  0  0  0
  2  1  2  0  0  0  0
  2  3  1  0  0  0  0
  3  4  2  0  0  0  0
  4  5  1  0  0  0  0
  4  8  1  0  0  0  0
  5  9  1  0  0  0  0
  6 10  1  0  0  0  0
  6  5  2  0  0  0  0
  7  2  1  0  0  0  0
 11 17  1  0  0  0  0
 11 16  1  0  0  0  0
 12 11  2  0  0  0  0
 13 12  1  0  0  0  0
 13 14  2  0  0  0  0
 14 15  1  0  0  0  0
 15 16  2  0  0  0  0
 15  1  1  0  0  0  0
 18 12  1  0  0  0  0
 19 13  1  0  0  0  0
 20 29  1  0  0  0  0
 21  3  1  0  0  0  0
 21 20  2  0  0  0  0
 22 21  1  0  0  0  0
 23 22  1  0  0  0  0
 24 22  2  0  0  0  0
 24 26  1  0  0  0  0
 25 24  1  0  0  0  0
 26 27  2  0  0  0  0
 27 20  1  0  0  0  0
 28 29  1  0  0  0  0
 29 30  2  0  0  0  0
 31 29  2  0  0  0  0
M  END
>  <minimizedAffinity>
-5.55824327

>  <minimizedRMSD>
1.07249093

$$$$
