
 OpenBabel03252504053D

 22 23  0  0  0  0  0  0  0  0999 V2000
   36.9590   27.9830   41.1190 C   0  0  0  0  0  0  0  0  0  0  0  0
   37.6210   29.1310   41.5140 C   0  0  0  0  0  0  0  0  0  0  0  0
   38.1680   29.2800   42.7620 C   0  0  0  0  0  0  0  0  0  0  0  0
   38.7030   30.1200   43.1710 H   0  0  0  0  0  0  0  0  0  0  0  0
   38.0600   28.2350   43.6790 C   0  0  0  0  0  0  0  0  0  0  0  0
   38.4670   28.2510   44.7000 H   0  0  0  0  0  0  0  0  0  0  0  0
   37.3950   27.0700   43.2930 C   0  0  0  0  0  3  0  0  0  0  0  0
   36.8620   26.9640   42.0350 C   0  0  0  0  0  3  0  0  0  0  0  0
   37.1370   32.4920   39.8780 C   0  0  0  0  0  0  0  0  0  0  0  0
   36.8450   31.3580   40.6390 C   0  0  0  0  0  0  0  0  0  0  0  0
   37.8250   30.3670   40.7370 C   0  0  0  0  0  0  0  0  0  0  0  0
   39.0200   30.5440   40.0910 N   0  0  0  0  0  0  0  0  0  0  0  0
   39.2710   31.6530   39.3610 C   0  0  0  0  0  0  0  0  0  0  0  0
   38.3350   32.6190   39.2590 N   0  0  0  0  0  0  0  0  0  0  0  0
   36.3090   33.1940   39.8720 H   0  0  0  0  0  0  0  0  0  0  0  0
   40.1920   31.8640   38.8280 H   0  0  0  0  0  0  0  0  0  0  0  0
   35.6440   31.1610   41.3020 O   0  0  0  0  0  0  0  0  0  0  0  0
   34.8640   31.7970   41.1040 H   0  0  0  0  0  0  0  0  0  0  0  0
   37.2330   28.7860   38.6810 H   0  0  0  0  0  0  0  0  0  0  0  0
   36.3890   28.0470   39.4660 S   0  0  0  0  0  0  0  0  0  0  0  0
   36.2010   26.6620   38.9560 O   0  0  0  0  0  0  0  0  0  0  0  0
   35.0190   28.7120   39.4120 O   0  0  0  0  0  0  0  0  0  0  0  0
  1  2  2  0  0  0  0
  1  8  1  0  0  0  0
  2  3  1  0  0  0  0
  3  4  1  0  0  0  0
  3  5  2  0  0  0  0
  5  6  1  0  0  0  0
  7  5  1  0  0  0  0
  8  7  2  0  0  0  0
  9 10  1  0  0  0  0
 10 11  2  0  0  0  0
 10 17  1  0  0  0  0
 11  2  1  0  0  0  0
 12 11  1  0  0  0  0
 13 12  2  0  0  0  0
 14 13  1  0  0  0  0
 14  9  2  0  0  0  0
 15  9  1  0  0  0  0
 16 13  1  0  0  0  0
 18 17  1  0  0  0  0
 19 20  1  0  0  0  0
 20  1  1  0  0  0  0
 21 20  2  0  0  0  0
 22 20  2  0  0  0  0
M  END
>  <minimizedAffinity>
-5.02692986

$$$$

 OpenBabel03252504053D

 22 23  0  0  0  0  0  0  0  0999 V2000
   38.7470   26.4500   42.3810 C   0  0  0  0  0  0  0  0  0  0  0  0
   39.0520   27.7860   42.1880 C   0  0  0  0  0  0  0  0  0  0  0  0
   40.1730   28.3740   42.7140 C   0  0  0  0  0  0  0  0  0  0  0  0
   40.5080   29.3930   42.6260 H   0  0  0  0  0  0  0  0  0  0  0  0
   41.0500   27.6030   43.4760 C   0  0  0  0  0  0  0  0  0  0  0  0
   41.9760   27.9760   43.9360 H   0  0  0  0  0  0  0  0  0  0  0  0
   40.7550   26.2540   43.6780 C   0  0  0  0  0  3  0  0  0  0  0  0
   39.6230   25.7060   43.1340 C   0  0  0  0  0  3  0  0  0  0  0  0
   36.5410   30.4470   41.2830 C   0  0  0  0  0  0  0  0  0  0  0  0
   37.2280   29.5130   42.0620 C   0  0  0  0  0  0  0  0  0  0  0  0
   38.2630   28.7940   41.4580 C   0  0  0  0  0  0  0  0  0  0  0  0
   38.5610   29.0310   40.1430 N   0  0  0  0  0  0  0  0  0  0  0  0
   37.8760   29.9410   39.4160 C   0  0  0  0  0  0  0  0  0  0  0  0
   36.8760   30.6440   39.9860 N   0  0  0  0  0  0  0  0  0  0  0  0
   35.7620   30.9460   41.8510 H   0  0  0  0  0  0  0  0  0  0  0  0
   38.0580   30.1850   38.3750 H   0  0  0  0  0  0  0  0  0  0  0  0
   36.9440   29.2600   43.3950 O   0  0  0  0  0  0  0  0  0  0  0  0
   36.0880   29.6560   43.7980 H   0  0  0  0  0  0  0  0  0  0  0  0
   36.3120   26.9190   41.6640 H   0  0  0  0  0  0  0  0  0  0  0  0
   37.2780   25.9520   41.5730 S   0  0  0  0  0  0  0  0  0  0  0  0
   37.5890   25.5870   40.1650 O   0  0  0  0  0  0  0  0  0  0  0  0
   36.7230   24.6930   42.2280 O   0  0  0  0  0  0  0  0  0  0  0  0
  1  8  1  0  0  0  0
  2  1  2  0  0  0  0
  2  3  1  0  0  0  0
  3  5  2  0  0  0  0
  4  3  1  0  0  0  0
  5  7  1  0  0  0  0
  5  6  1  0  0  0  0
  8  7  2  0  0  0  0
  9 15  1  0  0  0  0
  9 10  1  0  0  0  0
 10 17  1  0  0  0  0
 11 10  2  0  0  0  0
 11  2  1  0  0  0  0
 12 11  1  0  0  0  0
 13 14  1  0  0  0  0
 13 12  2  0  0  0  0
 14  9  2  0  0  0  0
 16 13  1  0  0  0  0
 17 18  1  0  0  0  0
 20 19  1  0  0  0  0
 20 22  2  0  0  0  0
 20  1  1  0  0  0  0
 21 20  2  0  0  0  0
M  END
>  <minimizedAffinity>
-4.60908985

$$$$

 OpenBabel03252504053D

 22 23  0  0  0  0  0  0  0  0999 V2000
   38.9140   31.5360   40.4940 C   0  0  0  0  0  0  0  0  0  0  0  0
   37.6980   31.7290   39.8630 C   0  0  0  0  0  0  0  0  0  0  0  0
   37.2060   32.9750   39.5670 C   0  0  0  0  0  0  0  0  0  0  0  0
   36.2830   33.2390   39.0790 H   0  0  0  0  0  0  0  0  0  0  0  0
   37.9540   34.0990   39.9110 C   0  0  0  0  0  0  0  0  0  0  0  0
   37.6520   35.1380   39.7140 H   0  0  0  0  0  0  0  0  0  0  0  0
   39.1820   33.9190   40.5480 C   0  0  0  0  0  3  0  0  0  0  0  0
   39.6370   32.6560   40.8260 C   0  0  0  0  0  3  0  0  0  0  0  0
   34.8790   29.2290   39.8110 C   0  0  0  0  0  0  0  0  0  0  0  0
   35.7520   30.1990   40.3070 C   0  0  0  0  0  0  0  0  0  0  0  0
   36.7270   30.7040   39.4430 C   0  0  0  0  0  0  0  0  0  0  0  0
   36.7880   30.2320   38.1580 N   0  0  0  0  0  0  0  0  0  0  0  0
   35.9290   29.2910   37.7100 C   0  0  0  0  0  0  0  0  0  0  0  0
   34.9810   28.7970   38.5320 N   0  0  0  0  0  0  0  0  0  0  0  0
   34.1640   28.9110   40.5650 H   0  0  0  0  0  0  0  0  0  0  0  0
   35.9130   28.8750   36.7080 H   0  0  0  0  0  0  0  0  0  0  0  0
   35.7050   30.6920   41.6020 O   0  0  0  0  0  0  0  0  0  0  0  0
   35.1080   30.2150   42.2870 H   0  0  0  0  0  0  0  0  0  0  0  0
   38.2070   29.1190   41.0580 H   0  0  0  0  0  0  0  0  0  0  0  0
   39.3150   29.8490   40.7210 S   0  0  0  0  0  0  0  0  0  0  0  0
   39.9880   29.3340   39.4980 O   0  0  0  0  0  0  0  0  0  0  0  0
   40.3200   29.7000   41.8570 O   0  0  0  0  0  0  0  0  0  0  0  0
  1 20  1  0  0  0  0
  1  8  1  0  0  0  0
  2  1  2  0  0  0  0
  3  2  1  0  0  0  0
  3  5  2  0  0  0  0
  4  3  1  0  0  0  0
  5  7  1  0  0  0  0
  6  5  1  0  0  0  0
  7  8  2  0  0  0  0
  9 10  1  0  0  0  0
  9 15  1  0  0  0  0
 10 17  1  0  0  0  0
 11  2  1  0  0  0  0
 11 10  2  0  0  0  0
 12 11  1  0  0  0  0
 13 12  2  0  0  0  0
 13 14  1  0  0  0  0
 14  9  2  0  0  0  0
 16 13  1  0  0  0  0
 17 18  1  0  0  0  0
 20 19  1  0  0  0  0
 20 22  2  0  0  0  0
 21 20  2  0  0  0  0
M  END
>  <minimizedAffinity>
-4.56724119

$$$$

 OpenBabel03252504053D

 22 23  0  0  0  0  0  0  0  0999 V2000
   36.9380   30.0960   39.1430 C   0  0  0  0  0  0  0  0  0  0  0  0
   37.6810   31.1210   38.5840 C   0  0  0  0  0  0  0  0  0  0  0  0
   37.7130   31.3630   37.2350 C   0  0  0  0  0  0  0  0  0  0  0  0
   38.2470   32.1270   36.6970 H   0  0  0  0  0  0  0  0  0  0  0  0
   36.9680   30.5500   36.3820 C   0  0  0  0  0  0  0  0  0  0  0  0
   36.9210   30.6640   35.2890 H   0  0  0  0  0  0  0  0  0  0  0  0
   36.2140   29.5130   36.9320 C   0  0  0  0  0  3  0  0  0  0  0  0
   36.2110   29.3050   38.2860 C   0  0  0  0  0  3  0  0  0  0  0  0
   39.0040   34.0780   40.5100 C   0  0  0  0  0  0  0  0  0  0  0  0
   38.0820   33.2390   39.8780 C   0  0  0  0  0  0  0  0  0  0  0  0
   38.5650   32.0740   39.2770 C   0  0  0  0  0  0  0  0  0  0  0  0
   39.9070   31.8030   39.3290 N   0  0  0  0  0  0  0  0  0  0  0  0
   40.7720   32.6370   39.9470 C   0  0  0  0  0  0  0  0  0  0  0  0
   40.3200   33.7640   40.5340 N   0  0  0  0  0  0  0  0  0  0  0  0
   38.5200   34.9490   40.9430 H   0  0  0  0  0  0  0  0  0  0  0  0
   41.8430   32.4860   40.0330 H   0  0  0  0  0  0  0  0  0  0  0  0
   36.7210   33.4940   39.8170 O   0  0  0  0  0  0  0  0  0  0  0  0
   36.3810   34.4170   40.1070 H   0  0  0  0  0  0  0  0  0  0  0  0
   38.3290   30.2810   41.3090 H   0  0  0  0  0  0  0  0  0  0  0  0
   37.0510   30.0310   40.8870 S   0  0  0  0  0  0  0  0  0  0  0  0
   36.0600   30.9700   41.4800 O   0  0  0  0  0  0  0  0  0  0  0  0
   36.6720   28.6400   41.3840 O   0  0  0  0  0  0  0  0  0  0  0  0
  1 20  1  0  0  0  0
  2  1  1  0  0  0  0
  2 11  1  0  0  0  0
  3  2  2  0  0  0  0
  4  3  1  0  0  0  0
  5  7  2  0  0  0  0
  5  3  1  0  0  0  0
  6  5  1  0  0  0  0
  7  8  1  0  0  0  0
  8  1  2  0  0  0  0
  9 14  1  0  0  0  0
  9 15  1  0  0  0  0
 10  9  2  0  0  0  0
 11 12  2  0  0  0  0
 11 10  1  0  0  0  0
 12 13  1  0  0  0  0
 13 16  1  0  0  0  0
 13 14  2  0  0  0  0
 17 10  1  0  0  0  0
 17 18  1  0  0  0  0
 20 19  1  0  0  0  0
 20 22  2  0  0  0  0
 20 21  2  0  0  0  0
M  END
>  <minimizedAffinity>
-4.56156206

$$$$

 OpenBabel03252504053D

 22 23  0  0  0  0  0  0  0  0999 V2000
   37.7470   27.4720   41.4770 C   0  0  0  0  0  0  0  0  0  0  0  0
   37.4050   28.2610   40.3930 C   0  0  0  0  0  0  0  0  0  0  0  0
   36.7640   27.7640   39.2870 C   0  0  0  0  0  0  0  0  0  0  0  0
   36.4490   28.2820   38.3980 H   0  0  0  0  0  0  0  0  0  0  0  0
   36.4370   26.4090   39.2440 C   0  0  0  0  0  0  0  0  0  0  0  0
   35.9200   25.9150   38.4080 H   0  0  0  0  0  0  0  0  0  0  0  0
   36.7760   25.6020   40.3300 C   0  0  0  0  0  3  0  0  0  0  0  0
   37.4170   26.1390   41.4160 C   0  0  0  0  0  3  0  0  0  0  0  0
   37.1940   32.0220   40.4800 C   0  0  0  0  0  0  0  0  0  0  0  0
   36.8460   30.6910   40.7190 C   0  0  0  0  0  0  0  0  0  0  0  0
   37.6780   29.6950   40.2000 C   0  0  0  0  0  0  0  0  0  0  0  0
   38.7890   30.0600   39.4870 N   0  0  0  0  0  0  0  0  0  0  0  0
   39.0960   31.3580   39.2720 C   0  0  0  0  0  0  0  0  0  0  0  0
   38.3040   32.3300   39.7690 N   0  0  0  0  0  0  0  0  0  0  0  0
   36.4810   32.7080   40.9300 H   0  0  0  0  0  0  0  0  0  0  0  0
   39.9590   31.7210   38.7230 H   0  0  0  0  0  0  0  0  0  0  0  0
   35.7290   30.3020   41.4410 O   0  0  0  0  0  0  0  0  0  0  0  0
   35.0290   31.0110   41.6820 H   0  0  0  0  0  0  0  0  0  0  0  0
   39.3530   29.3330   42.2620 H   0  0  0  0  0  0  0  0  0  0  0  0
   38.5260   28.3640   42.7640 S   0  0  0  0  0  0  0  0  0  0  0  0
   37.4900   28.9140   43.6790 O   0  0  0  0  0  0  0  0  0  0  0  0
   39.3840   27.4260   43.6050 O   0  0  0  0  0  0  0  0  0  0  0  0
  1 20  1  0  0  0  0
  2  1  2  0  0  0  0
  3  2  1  0  0  0  0
  4  3  1  0  0  0  0
  5  3  2  0  0  0  0
  5  7  1  0  0  0  0
  6  5  1  0  0  0  0
  7  8  2  0  0  0  0
  8  1  1  0  0  0  0
  9 10  1  0  0  0  0
  9 15  1  0  0  0  0
 10 17  1  0  0  0  0
 11  2  1  0  0  0  0
 11 10  2  0  0  0  0
 12 11  1  0  0  0  0
 13 12  2  0  0  0  0
 13 14  1  0  0  0  0
 14  9  2  0  0  0  0
 16 13  1  0  0  0  0
 17 18  1  0  0  0  0
 19 20  1  0  0  0  0
 20 22  2  0  0  0  0
 20 21  2  0  0  0  0
M  END
>  <minimizedAffinity>
-4.47078609

$$$$

 OpenBabel03252504053D

 22 23  0  0  0  0  0  0  0  0999 V2000
   37.1640   30.7290   40.0500 C   0  0  0  0  0  0  0  0  0  0  0  0
   38.2040   30.5280   40.9390 C   0  0  0  0  0  0  0  0  0  0  0  0
   39.0260   31.5430   41.3610 C   0  0  0  0  0  0  0  0  0  0  0  0
   39.8550   31.5010   42.0460 H   0  0  0  0  0  0  0  0  0  0  0  0
   38.8110   32.8330   40.8800 C   0  0  0  0  0  0  0  0  0  0  0  0
   39.4080   33.7140   41.1580 H   0  0  0  0  0  0  0  0  0  0  0  0
   37.7650   33.0500   39.9820 C   0  0  0  0  0  3  0  0  0  0  0  0
   36.9680   32.0070   39.5860 C   0  0  0  0  0  3  0  0  0  0  0  0
   38.5300   27.5230   43.1900 C   0  0  0  0  0  0  0  0  0  0  0  0
   38.0420   28.7350   42.6950 C   0  0  0  0  0  0  0  0  0  0  0  0
   38.6400   29.2580   41.5450 C   0  0  0  0  0  0  0  0  0  0  0  0
   39.6680   28.5710   40.9560 N   0  0  0  0  0  0  0  0  0  0  0  0
   40.1170   27.4010   41.4620 C   0  0  0  0  0  0  0  0  0  0  0  0
   39.5480   26.8820   42.5690 N   0  0  0  0  0  0  0  0  0  0  0  0
   37.9920   27.2100   44.0810 H   0  0  0  0  0  0  0  0  0  0  0  0
   40.9210   26.8000   41.0490 H   0  0  0  0  0  0  0  0  0  0  0  0
   37.0020   29.4440   43.2740 O   0  0  0  0  0  0  0  0  0  0  0  0
   36.6700   29.1580   44.2010 H   0  0  0  0  0  0  0  0  0  0  0  0
   37.0830   28.1850   39.6180 H   0  0  0  0  0  0  0  0  0  0  0  0
   36.2560   29.2730   39.7080 S   0  0  0  0  0  0  0  0  0  0  0  0
   35.1950   29.1010   40.7360 O   0  0  0  0  0  0  0  0  0  0  0  0
   35.5370   29.4080   38.3700 O   0  0  0  0  0  0  0  0  0  0  0  0
  1  2  1  0  0  0  0
  2  3  2  0  0  0  0
  2 11  1  0  0  0  0
  3  4  1  0  0  0  0
  5  6  1  0  0  0  0
  5  3  1  0  0  0  0
  7  5  2  0  0  0  0
  8  7  1  0  0  0  0
  8  1  2  0  0  0  0
  9 15  1  0  0  0  0
 10  9  1  0  0  0  0
 10 17  1  0  0  0  0
 11 10  2  0  0  0  0
 12 13  2  0  0  0  0
 12 11  1  0  0  0  0
 13 14  1  0  0  0  0
 14  9  2  0  0  0  0
 16 13  1  0  0  0  0
 17 18  1  0  0  0  0
 19 20  1  0  0  0  0
 20  1  1  0  0  0  0
 20 21  2  0  0  0  0
 22 20  2  0  0  0  0
M  END
>  <minimizedAffinity>
-4.4226284

$$$$

 OpenBabel03252504053D

 22 23  0  0  0  0  0  0  0  0999 V2000
   37.6070   29.9060   39.3020 C   0  0  0  0  0  0  0  0  0  0  0  0
   37.1030   28.8230   39.9990 C   0  0  0  0  0  0  0  0  0  0  0  0
   35.9710   28.1520   39.6110 C   0  0  0  0  0  0  0  0  0  0  0  0
   35.4970   27.3030   40.0710 H   0  0  0  0  0  0  0  0  0  0  0  0
   35.2940   28.5710   38.4670 C   0  0  0  0  0  0  0  0  0  0  0  0
   34.3830   28.0990   38.0690 H   0  0  0  0  0  0  0  0  0  0  0  0
   35.7910   29.6620   37.7540 C   0  0  0  0  0  3  0  0  0  0  0  0
   36.9250   30.3040   38.1770 C   0  0  0  0  0  3  0  0  0  0  0  0
   37.9120   28.1530   43.6190 C   0  0  0  0  0  0  0  0  0  0  0  0
   37.3730   28.7920   42.5000 C   0  0  0  0  0  0  0  0  0  0  0  0
   37.6230   28.2310   41.2440 C   0  0  0  0  0  0  0  0  0  0  0  0
   38.3780   27.0910   41.1610 N   0  0  0  0  0  0  0  0  0  0  0  0
   38.8860   26.4990   42.2640 C   0  0  0  0  0  0  0  0  0  0  0  0
   38.6510   27.0270   43.4830 N   0  0  0  0  0  0  0  0  0  0  0  0
   37.6530   28.6720   44.5380 H   0  0  0  0  0  0  0  0  0  0  0  0
   39.4860   25.5950   42.2770 H   0  0  0  0  0  0  0  0  0  0  0  0
   36.6050   29.9440   42.5620 O   0  0  0  0  0  0  0  0  0  0  0  0
   36.5540   30.4520   43.4520 H   0  0  0  0  0  0  0  0  0  0  0  0
   39.7860   29.5780   40.6450 H   0  0  0  0  0  0  0  0  0  0  0  0
   39.0770   30.5520   39.9960 S   0  0  0  0  0  0  0  0  0  0  0  0
   39.8700   31.2240   38.9310 O   0  0  0  0  0  0  0  0  0  0  0  0
   38.7410   31.6290   41.0210 O   0  0  0  0  0  0  0  0  0  0  0  0
  1 20  1  0  0  0  0
  1  2  1  0  0  0  0
  2 11  1  0  0  0  0
  3  2  2  0  0  0  0
  3  4  1  0  0  0  0
  5  3  1  0  0  0  0
  6  5  1  0  0  0  0
  7  8  1  0  0  0  0
  7  5  2  0  0  0  0
  8  1  2  0  0  0  0
  9 15  1  0  0  0  0
 10 17  1  0  0  0  0
 10  9  2  0  0  0  0
 11 10  1  0  0  0  0
 12 11  2  0  0  0  0
 12 13  1  0  0  0  0
 13 16  1  0  0  0  0
 13 14  2  0  0  0  0
 14  9  1  0  0  0  0
 17 18  1  0  0  0  0
 20 19  1  0  0  0  0
 20 22  2  0  0  0  0
 21 20  2  0  0  0  0
M  END
>  <minimizedAffinity>
-4.30258512

$$$$

 OpenBabel03252504053D

 22 23  0  0  0  0  0  0  0  0999 V2000
   36.6330   29.0440   41.1770 C   0  0  0  0  0  0  0  0  0  0  0  0
   37.7980   29.7430   41.4390 C   0  0  0  0  0  0  0  0  0  0  0  0
   38.5710   29.5070   42.5470 C   0  0  0  0  0  0  0  0  0  0  0  0
   39.4890   29.9830   42.8460 H   0  0  0  0  0  0  0  0  0  0  0  0
   38.1760   28.5230   43.4530 C   0  0  0  0  0  0  0  0  0  0  0  0
   38.7270   28.2540   44.3660 H   0  0  0  0  0  0  0  0  0  0  0  0
   37.0040   27.8110   43.2000 C   0  0  0  0  0  3  0  0  0  0  0  0
   36.2600   28.0790   42.0810 C   0  0  0  0  0  3  0  0  0  0  0  0
   39.7240   31.7200   38.8730 C   0  0  0  0  0  0  0  0  0  0  0  0
   39.2160   30.6100   39.5520 C   0  0  0  0  0  0  0  0  0  0  0  0
   38.3870   30.8410   40.6530 C   0  0  0  0  0  0  0  0  0  0  0  0
   38.1080   32.1310   41.0190 N   0  0  0  0  0  0  0  0  0  0  0  0
   38.6170   33.1830   40.3420 C   0  0  0  0  0  0  0  0  0  0  0  0
   39.4170   32.9760   39.2760 N   0  0  0  0  0  0  0  0  0  0  0  0
   40.3510   31.4250   38.0370 H   0  0  0  0  0  0  0  0  0  0  0  0
   38.4370   34.2290   40.5700 H   0  0  0  0  0  0  0  0  0  0  0  0
   39.4840   29.2980   39.1950 O   0  0  0  0  0  0  0  0  0  0  0  0
   40.2160   29.1180   38.5000 H   0  0  0  0  0  0  0  0  0  0  0  0
   35.9640   30.8720   39.4830 H   0  0  0  0  0  0  0  0  0  0  0  0
   35.8620   29.5220   39.6820 S   0  0  0  0  0  0  0  0  0  0  0  0
   36.4350   28.7330   38.5580 O   0  0  0  0  0  0  0  0  0  0  0  0
   34.3770   29.1810   39.7290 O   0  0  0  0  0  0  0  0  0  0  0  0
  1  2  2  0  0  0  0
  1  8  1  0  0  0  0
  2  3  1  0  0  0  0
  3  4  1  0  0  0  0
  3  5  2  0  0  0  0
  5  6  1  0  0  0  0
  7  5  1  0  0  0  0
  8  7  2  0  0  0  0
  9 14  2  0  0  0  0
  9 10  1  0  0  0  0
 10 11  2  0  0  0  0
 11 12  1  0  0  0  0
 11  2  1  0  0  0  0
 13 16  1  0  0  0  0
 13 12  2  0  0  0  0
 14 13  1  0  0  0  0
 15  9  1  0  0  0  0
 17 10  1  0  0  0  0
 18 17  1  0  0  0  0
 19 20  1  0  0  0  0
 20 22  2  0  0  0  0
 20  1  1  0  0  0  0
 21 20  2  0  0  0  0
M  END
>  <minimizedAffinity>
-4.21974993

$$$$

 OpenBabel03252504053D

 22 23  0  0  0  0  0  0  0  0999 V2000
   37.3610   29.6460   39.2970 C   0  0  0  0  0  0  0  0  0  0  0  0
   37.8550   30.2470   40.4410 C   0  0  0  0  0  0  0  0  0  0  0  0
   37.5200   29.8270   41.7030 C   0  0  0  0  0  0  0  0  0  0  0  0
   37.8440   30.2140   42.6530 H   0  0  0  0  0  0  0  0  0  0  0  0
   36.6480   28.7490   41.8500 C   0  0  0  0  0  0  0  0  0  0  0  0
   36.3210   28.3330   42.8140 H   0  0  0  0  0  0  0  0  0  0  0  0
   36.1430   28.1330   40.7040 C   0  0  0  0  0  3  0  0  0  0  0  0
   36.5030   28.5850   39.4620 C   0  0  0  0  0  3  0  0  0  0  0  0
   39.2120   33.7610   40.5600 C   0  0  0  0  0  0  0  0  0  0  0  0
   38.2790   32.7260   40.4630 C   0  0  0  0  0  0  0  0  0  0  0  0
   38.7510   31.4120   40.5320 C   0  0  0  0  0  0  0  0  0  0  0  0
   40.0940   31.1940   40.6910 N   0  0  0  0  0  0  0  0  0  0  0  0
   40.9710   32.2180   40.7800 C   0  0  0  0  0  0  0  0  0  0  0  0
   40.5290   33.4910   40.7170 N   0  0  0  0  0  0  0  0  0  0  0  0
   38.7360   34.7350   40.4970 H   0  0  0  0  0  0  0  0  0  0  0  0
   42.0440   32.1230   40.9100 H   0  0  0  0  0  0  0  0  0  0  0  0
   36.9170   32.9250   40.3060 O   0  0  0  0  0  0  0  0  0  0  0  0
   36.5810   33.8700   40.0890 H   0  0  0  0  0  0  0  0  0  0  0  0
   39.2750   30.7610   37.9720 H   0  0  0  0  0  0  0  0  0  0  0  0
   37.9750   30.3580   37.8220 S   0  0  0  0  0  0  0  0  0  0  0  0
   37.8010   29.3960   36.7010 O   0  0  0  0  0  0  0  0  0  0  0  0
   37.1560   31.5910   37.4580 O   0  0  0  0  0  0  0  0  0  0  0  0
  1  8  2  0  0  0  0
  1  2  1  0  0  0  0
  2 11  1  0  0  0  0
  2  3  2  0  0  0  0
  3  5  1  0  0  0  0
  3  4  1  0  0  0  0
  5  6  1  0  0  0  0
  7  5  2  0  0  0  0
  8  7  1  0  0  0  0
  9 14  1  0  0  0  0
 10 11  1  0  0  0  0
 10  9  2  0  0  0  0
 11 12  2  0  0  0  0
 12 13  1  0  0  0  0
 13 16  1  0  0  0  0
 14 13  2  0  0  0  0
 15  9  1  0  0  0  0
 17 10  1  0  0  0  0
 18 17  1  0  0  0  0
 20 19  1  0  0  0  0
 20  1  1  0  0  0  0
 21 20  2  0  0  0  0
 22 20  2  0  0  0  0
M  END
>  <minimizedAffinity>
-4.2042799

$$$$
