
 OpenBabel03242522503D

 29 30  0  0  0  0  0  0  0  0999 V2000
   47.2680   32.2720   48.1120 O   0  0  0  0  0  0  0  0  0  0  0  0
   45.4030   31.0130   46.8010 O   0  0  0  0  0  0  0  0  0  0  0  0
   45.6450   32.1630   47.8150 P   0  0  1  0  0  0  0  0  0  0  0  0
   44.7650   31.7240   49.1780 O   0  0  0  0  0  0  0  0  0  0  0  0
   44.9040   30.7720   49.3410 H   0  0  0  0  0  0  0  0  0  0  0  0
   45.0250   33.5810   47.1430 O   0  0  0  0  0  0  0  0  0  0  0  0
   46.8780   33.7100   44.0180 C   0  0  0  0  0  0  0  0  0  0  0  0
   46.4630   33.3270   45.3020 C   0  0  0  0  0  0  0  0  0  0  0  0
   45.4030   33.9830   45.8800 C   0  0  0  0  0  0  0  0  0  0  0  0
   44.7990   34.9790   45.1730 N   0  0  0  0  0  0  0  0  0  0  0  0
   45.2050   35.3330   43.9470 C   0  0  0  0  0  0  0  0  0  0  0  0
   46.2370   34.7100   43.3640 N   0  0  0  0  0  0  0  0  0  0  0  0
   47.6990   33.2590   43.4790 H   0  0  0  0  0  0  0  0  0  0  0  0
   47.0600   32.5360   45.6740 H   0  0  0  0  0  0  0  0  0  0  0  0
   44.6050   36.1440   43.5430 H   0  0  0  0  0  0  0  0  0  0  0  0
   48.1420   31.5140   48.8030 C   0  0  0  0  0  0  0  0  0  0  0  0
   47.5390   30.6950   49.6360 O   0  0  0  0  0  0  0  0  0  0  0  0
   50.1670   30.1460   48.4010 C   0  0  0  0  0  0  0  0  0  0  0  0
   49.5970   31.2140   49.0260 C   0  0  0  0  0  0  0  0  0  0  0  0
   50.3730   32.0010   49.8950 C   0  0  0  0  0  0  0  0  0  0  0  0
   49.8380   32.8490   50.3620 H   0  0  0  0  0  0  0  0  0  0  0  0
   51.6920   31.8160   50.2030 C   0  0  0  0  0  0  0  0  0  0  0  0
   52.1530   32.5030   50.8870 H   0  0  0  0  0  0  0  0  0  0  0  0
   52.2680   30.7470   49.5800 C   0  0  0  0  0  3  0  0  0  0  0  0
   51.5280   29.9680   48.7300 C   0  0  0  0  0  3  0  0  0  0  0  0
   50.4740   28.2980   46.6990 H   0  0  0  0  0  0  0  0  0  0  0  0
   49.4470   29.0350   47.2920 S   0  0  0  0  0  0  0  0  0  0  0  0
   48.5890   28.0030   47.9650 O   0  0  0  0  0  0  0  0  0  0  0  0
   48.7660   29.6910   46.1130 O   0  0  0  0  0  0  0  0  0  0  0  0
  1 16  1  0  0  0  0
  3  2  2  6  0  0  0
  3  1  1  0  0  0  0
  3  4  1  0  0  0  0
  4  5  1  0  0  0  0
  6  3  1  0  0  0  0
  7  8  1  0  0  0  0
  8 14  1  0  0  0  0
  8  9  2  0  0  0  0
  9  6  1  0  0  0  0
 10  9  1  0  0  0  0
 11 10  2  0  0  0  0
 12 11  1  0  0  0  0
 12  7  2  0  0  0  0
 13  7  1  0  0  0  0
 15 11  1  0  0  0  0
 16 19  1  0  0  0  0
 16 17  2  0  0  0  0
 18 25  2  0  0  0  0
 18 19  1  0  0  0  0
 19 20  2  0  0  0  0
 20 22  1  0  0  0  0
 20 21  1  0  0  0  0
 22 23  1  0  0  0  0
 24 22  2  0  0  0  0
 25 24  1  0  0  0  0
 26 27  1  0  0  0  0
 27 28  2  0  0  0  0
 27 18  1  0  0  0  0
 29 27  2  0  0  0  0
M  END
>  <minimizedAffinity>
-4.87124014

>  <minimizedRMSD>
2.08497405

$$$$
