
 OpenBabel03242522503D

 29 30  0  0  0  0  0  0  0  0999 V2000
   47.2890   31.5660   47.9410 O   0  0  0  0  0  0  0  0  0  0  0  0
   44.8550   30.6610   47.7370 O   0  0  0  0  0  0  0  0  0  0  0  0
   45.6970   31.8410   48.2920 P   0  0  1  0  0  0  0  0  0  0  0  0
   45.3900   31.8450   49.9450 O   0  0  0  0  0  0  0  0  0  0  0  0
   45.4090   30.9230   50.2640 H   0  0  0  0  0  0  0  0  0  0  0  0
   45.1240   33.2600   47.5810 O   0  0  0  0  0  0  0  0  0  0  0  0
   46.9620   33.2270   44.4450 C   0  0  0  0  0  0  0  0  0  0  0  0
   46.5390   32.8960   45.7410 C   0  0  0  0  0  0  0  0  0  0  0  0
   45.5120   33.6120   46.3070 C   0  0  0  0  0  0  0  0  0  0  0  0
   44.9480   34.6150   45.5770 N   0  0  0  0  0  0  0  0  0  0  0  0
   45.3610   34.9190   44.3410 C   0  0  0  0  0  0  0  0  0  0  0  0
   46.3610   34.2380   43.7690 N   0  0  0  0  0  0  0  0  0  0  0  0
   47.7600   32.7280   43.9140 H   0  0  0  0  0  0  0  0  0  0  0  0
   47.1030   32.0890   46.1300 H   0  0  0  0  0  0  0  0  0  0  0  0
   44.7950   35.7450   43.9180 H   0  0  0  0  0  0  0  0  0  0  0  0
   48.3710   31.2720   48.6880 C   0  0  0  0  0  0  0  0  0  0  0  0
   49.0200   32.3500   49.0680 O   0  0  0  0  0  0  0  0  0  0  0  0
   49.3220   28.9860   48.6070 C   0  0  0  0  0  0  0  0  0  0  0  0
   49.1830   30.1590   49.2860 C   0  0  0  0  0  0  0  0  0  0  0  0
   49.7780   30.2970   50.5530 C   0  0  0  0  0  0  0  0  0  0  0  0
   49.6190   31.2790   51.0380 H   0  0  0  0  0  0  0  0  0  0  0  0
   50.5120   29.3550   51.2180 C   0  0  0  0  0  0  0  0  0  0  0  0
   50.9040   29.6070   52.1840 H   0  0  0  0  0  0  0  0  0  0  0  0
   50.6520   28.1780   50.5400 C   0  0  0  0  0  3  0  0  0  0  0  0
   50.0820   28.0230   49.3050 C   0  0  0  0  0  3  0  0  0  0  0  0
   49.2200   27.3080   46.7150 H   0  0  0  0  0  0  0  0  0  0  0  0
   48.7070   28.5630   47.0500 S   0  0  0  0  0  0  0  0  0  0  0  0
   47.2180   28.3710   47.0370 O   0  0  0  0  0  0  0  0  0  0  0  0
   49.1980   29.4480   45.9280 O   0  0  0  0  0  0  0  0  0  0  0  0
  1  3  1  0  0  0  0
  1 16  1  0  0  0  0
  3  2  2  6  0  0  0
  3  4  1  0  0  0  0
  4  5  1  0  0  0  0
  6  3  1  0  0  0  0
  7  8  1  0  0  0  0
  8 14  1  0  0  0  0
  8  9  2  0  0  0  0
  9  6  1  0  0  0  0
 10  9  1  0  0  0  0
 11 10  2  0  0  0  0
 12 11  1  0  0  0  0
 12  7  2  0  0  0  0
 13  7  1  0  0  0  0
 15 11  1  0  0  0  0
 16 17  2  0  0  0  0
 16 19  1  0  0  0  0
 18 19  2  0  0  0  0
 18 25  1  0  0  0  0
 19 20  1  0  0  0  0
 20 21  1  0  0  0  0
 20 22  2  0  0  0  0
 22 23  1  0  0  0  0
 24 22  1  0  0  0  0
 25 24  2  0  0  0  0
 26 27  1  0  0  0  0
 27 18  1  0  0  0  0
 28 27  2  0  0  0  0
 29 27  2  0  0  0  0
M  END
>  <minimizedAffinity>
-5.04761314

>  <minimizedRMSD>
1.3055042

$$$$
