
 OpenBabel03242522493D

 29 30  0  0  0  0  0  0  0  0999 V2000
   47.4270   31.8940   48.1200 O   0  0  0  0  0  0  0  0  0  0  0  0
   45.1720   30.7200   47.5530 O   0  0  0  0  0  0  0  0  0  0  0  0
   45.7810   31.9590   48.2630 P   0  0  1  0  0  0  0  0  0  0  0  0
   45.2640   31.8370   49.8570 O   0  0  0  0  0  0  0  0  0  0  0  0
   45.3560   30.9060   50.1400 H   0  0  0  0  0  0  0  0  0  0  0  0
   45.1340   33.3380   47.5360 O   0  0  0  0  0  0  0  0  0  0  0  0
   46.9230   33.3220   44.3730 C   0  0  0  0  0  0  0  0  0  0  0  0
   46.5240   32.9880   45.6750 C   0  0  0  0  0  0  0  0  0  0  0  0
   45.4970   33.6920   46.2560 C   0  0  0  0  0  0  0  0  0  0  0  0
   44.9110   34.6880   45.5340 N   0  0  0  0  0  0  0  0  0  0  0  0
   45.3020   34.9950   44.2910 C   0  0  0  0  0  0  0  0  0  0  0  0
   46.3010   34.3240   43.7040 N   0  0  0  0  0  0  0  0  0  0  0  0
   47.7180   32.8300   43.8300 H   0  0  0  0  0  0  0  0  0  0  0  0
   47.1030   32.1870   46.0560 H   0  0  0  0  0  0  0  0  0  0  0  0
   44.7200   35.8140   43.8760 H   0  0  0  0  0  0  0  0  0  0  0  0
   48.3750   31.0800   48.6250 C   0  0  0  0  0  0  0  0  0  0  0  0
   48.1180   30.7270   49.8640 O   0  0  0  0  0  0  0  0  0  0  0  0
   49.7080   29.3720   47.4270 C   0  0  0  0  0  0  0  0  0  0  0  0
   49.6740   30.3840   48.3370 C   0  0  0  0  0  0  0  0  0  0  0  0
   50.8530   30.7400   49.0170 C   0  0  0  0  0  0  0  0  0  0  0  0
   50.7410   31.5720   49.7390 H   0  0  0  0  0  0  0  0  0  0  0  0
   52.0850   30.1690   48.8690 C   0  0  0  0  0  0  0  0  0  0  0  0
   52.8950   30.5500   49.4590 H   0  0  0  0  0  0  0  0  0  0  0  0
   52.1240   29.1530   47.9560 C   0  0  0  0  0  3  0  0  0  0  0  0
   50.9870   28.7910   47.2850 C   0  0  0  0  0  3  0  0  0  0  0  0
   48.9430   27.7320   45.6570 H   0  0  0  0  0  0  0  0  0  0  0  0
   48.4210   28.7480   46.4590 S   0  0  0  0  0  0  0  0  0  0  0  0
   47.3500   28.0720   47.2670 O   0  0  0  0  0  0  0  0  0  0  0  0
   47.8690   29.7320   45.4530 O   0  0  0  0  0  0  0  0  0  0  0  0
  1  3  1  0  0  0  0
  1 16  1  0  0  0  0
  3  2  2  6  0  0  0
  3  4  1  0  0  0  0
  4  5  1  0  0  0  0
  6  3  1  0  0  0  0
  7  8  1  0  0  0  0
  8 14  1  0  0  0  0
  8  9  2  0  0  0  0
  9  6  1  0  0  0  0
 10  9  1  0  0  0  0
 11 10  2  0  0  0  0
 12 11  1  0  0  0  0
 12  7  2  0  0  0  0
 13  7  1  0  0  0  0
 15 11  1  0  0  0  0
 16 17  2  0  0  0  0
 18 19  1  0  0  0  0
 19 16  1  0  0  0  0
 19 20  2  0  0  0  0
 20 21  1  0  0  0  0
 22 20  1  0  0  0  0
 22 23  1  0  0  0  0
 24 22  2  0  0  0  0
 25 18  2  0  0  0  0
 25 24  1  0  0  0  0
 26 27  1  0  0  0  0
 27 28  2  0  0  0  0
 27 18  1  0  0  0  0
 29 27  2  0  0  0  0
M  END
>  <minimizedAffinity>
-4.49443436

>  <minimizedRMSD>
1.11343217

$$$$
