
 OpenBabel03242522493D

 29 30  0  0  0  0  0  0  0  0999 V2000
   47.6530   31.0890   47.5890 O   0  0  0  0  0  0  0  0  0  0  0  0
   45.1310   30.4900   47.3270 O   0  0  0  0  0  0  0  0  0  0  0  0
   46.1070   31.4630   48.0410 P   0  0  1  0  0  0  0  0  0  0  0  0
   45.8340   31.2160   49.6820 O   0  0  0  0  0  0  0  0  0  0  0  0
   45.7580   30.2550   49.8400 H   0  0  0  0  0  0  0  0  0  0  0  0
   45.6780   33.0350   47.6020 O   0  0  0  0  0  0  0  0  0  0  0  0
   46.9260   33.2670   44.1960 C   0  0  0  0  0  0  0  0  0  0  0  0
   46.7730   32.8630   45.5310 C   0  0  0  0  0  0  0  0  0  0  0  0
   45.7980   33.4560   46.2960 C   0  0  0  0  0  0  0  0  0  0  0  0
   45.0190   34.4130   45.7180 N   0  0  0  0  0  0  0  0  0  0  0  0
   45.1760   34.7870   44.4420 C   0  0  0  0  0  0  0  0  0  0  0  0
   46.1200   34.2260   43.6770 N   0  0  0  0  0  0  0  0  0  0  0  0
   47.6620   32.8650   43.5140 H   0  0  0  0  0  0  0  0  0  0  0  0
   47.4720   32.1090   45.7820 H   0  0  0  0  0  0  0  0  0  0  0  0
   44.4660   35.5600   44.1590 H   0  0  0  0  0  0  0  0  0  0  0  0
   48.3160   29.9300   47.4090 C   0  0  0  0  0  0  0  0  0  0  0  0
   48.7190   29.7770   46.1670 O   0  0  0  0  0  0  0  0  0  0  0  0
   49.7850   28.7540   49.0190 C   0  0  0  0  0  0  0  0  0  0  0  0
   48.8010   28.6770   48.0790 C   0  0  0  0  0  0  0  0  0  0  0  0
   48.2750   27.4190   47.7310 C   0  0  0  0  0  0  0  0  0  0  0  0
   47.4810   27.4430   46.9620 H   0  0  0  0  0  0  0  0  0  0  0  0
   48.6480   26.2090   48.2430 C   0  0  0  0  0  0  0  0  0  0  0  0
   48.1550   25.3300   47.8770 H   0  0  0  0  0  0  0  0  0  0  0  0
   49.6350   26.2810   49.1850 C   0  0  0  0  0  3  0  0  0  0  0  0
   50.1590   27.4960   49.5390 C   0  0  0  0  0  3  0  0  0  0  0  0
   51.4030   29.7550   50.6880 H   0  0  0  0  0  0  0  0  0  0  0  0
   50.5860   30.1560   49.6280 S   0  0  0  0  0  0  0  0  0  0  0  0
   51.5350   30.7700   48.6380 O   0  0  0  0  0  0  0  0  0  0  0  0
   49.6640   31.1690   50.2680 O   0  0  0  0  0  0  0  0  0  0  0  0
  1  3  1  0  0  0  0
  3  2  2  6  0  0  0
  3  4  1  0  0  0  0
  4  5  1  0  0  0  0
  6  3  1  0  0  0  0
  7  8  1  0  0  0  0
  8 14  1  0  0  0  0
  8  9  2  0  0  0  0
  9  6  1  0  0  0  0
 10  9  1  0  0  0  0
 11 10  2  0  0  0  0
 12  7  2  0  0  0  0
 12 11  1  0  0  0  0
 13  7  1  0  0  0  0
 15 11  1  0  0  0  0
 16  1  1  0  0  0  0
 16 19  1  0  0  0  0
 17 16  2  0  0  0  0
 18 25  1  0  0  0  0
 18 27  1  0  0  0  0
 19 18  2  0  0  0  0
 20 19  1  0  0  0  0
 20 22  2  0  0  0  0
 21 20  1  0  0  0  0
 22 24  1  0  0  0  0
 23 22  1  0  0  0  0
 24 25  2  0  0  0  0
 27 29  2  0  0  0  0
 27 26  1  0  0  0  0
 28 27  2  0  0  0  0
M  END
>  <minimizedAffinity>
-4.30664778

>  <minimizedRMSD>
1.94022

$$$$
