
 OpenBabel03242521433D

 41 43  0  0  1  0  0  0  0  0999 V2000
   45.3500   36.0980   43.7420 C   0  0  0  0  0  0  0  0  0  0  0  0
   46.1660   35.2150   43.0140 C   0  0  0  0  0  0  0  0  0  0  0  0
   46.3960   33.9210   43.4990 C   0  0  0  0  0  0  0  0  0  0  0  0
   45.8160   33.5860   44.6510 N   0  0  0  0  0  0  0  0  0  0  0  0
   45.0290   34.4550   45.3420 C   0  0  0  0  0  0  0  0  0  0  0  0
   44.7950   35.6980   44.8980 N   0  0  0  0  0  0  0  0  0  0  0  0
   46.5810   35.5910   42.0980 H   0  0  0  0  0  0  0  0  0  0  0  0
   44.6320   34.0320   46.2580 H   0  0  0  0  0  0  0  0  0  0  0  0
   48.4960   33.7030   42.1870 C   0  0  2  0  0  0  0  0  0  0  0  0
   47.2520   33.0620   42.6900 C   0  0  2  0  0  0  0  0  0  0  0  0
   46.6530   32.6350   41.4680 O   0  0  0  0  0  0  0  0  0  0  0  0
   47.6910   31.9600   40.8510 C   0  0  0  0  0  0  0  0  0  0  0  0
   48.9990   32.5370   41.3100 C   0  0  1  0  0  0  0  0  0  0  0  0
   48.2950   34.5040   41.4220 H   0  0  0  0  0  0  0  0  0  0  0  0
   47.5100   32.1400   43.2450 H   0  0  0  0  0  0  0  0  0  0  0  0
   47.5990   30.8810   41.1090 H   0  0  0  0  0  0  0  0  0  0  0  0
   47.5750   32.0340   39.7470 H   0  0  0  0  0  0  0  0  0  0  0  0
   49.5750   31.8060   41.9370 H   0  0  0  0  0  0  0  0  0  0  0  0
   49.3750   34.0940   43.1500 O   0  0  0  0  0  0  0  0  0  0  0  0
   49.3390   35.0830   43.2970 H   0  0  0  0  0  0  0  0  0  0  0  0
   49.7830   33.0560   40.2880 O   0  0  0  0  0  0  0  0  0  0  0  0
   50.4730   33.6150   40.7500 H   0  0  0  0  0  0  0  0  0  0  0  0
   45.1240   37.4740   43.2170 C   0  0  0  0  0  0  0  0  0  0  0  0
   44.1940   37.4770   42.5960 H   0  0  0  0  0  0  0  0  0  0  0  0
   46.0030   37.7910   42.6280 H   0  0  0  0  0  0  0  0  0  0  0  0
   45.1510   39.7220   44.4560 C   0  0  0  0  0  0  0  0  0  0  0  0
   45.6400   40.2740   43.4320 O   0  0  0  0  0  0  0  0  0  0  0  0
   44.8820   38.3270   44.3640 N   0  0  0  0  0  0  0  0  0  0  0  0
   44.4650   37.8600   45.2110 H   0  0  0  0  0  0  0  0  0  0  0  0
   44.4420   41.8050   45.5880 C   0  0  0  0  0  0  0  0  0  0  0  0
   44.8850   40.5000   45.6590 C   0  0  0  0  0  0  0  0  0  0  0  0
   45.0580   39.9830   46.9370 C   0  0  0  0  0  0  0  0  0  0  0  0
   45.4000   38.9780   47.0200 H   0  0  0  0  0  0  0  0  0  0  0  0
   44.8000   40.7400   48.0830 C   0  0  0  0  0  0  0  0  0  0  0  0
   44.9730   40.2290   49.0250 H   0  0  0  0  0  0  0  0  0  0  0  0
   44.3550   42.0520   47.9630 C   0  0  0  0  0  3  0  0  0  0  0  0
   44.1730   42.5910   46.6960 C   0  0  0  0  0  3  0  0  0  0  0  0
   44.0870   41.5870   43.0470 H   0  0  0  0  0  0  0  0  0  0  0  0
   44.1900   42.5500   44.0230 S   0  0  0  0  0  0  0  0  0  0  0  0
   45.3490   43.4820   43.7340 O   0  0  0  0  0  0  0  0  0  0  0  0
   42.8960   43.3270   44.1360 O   0  0  0  0  0  0  0  0  0  0  0  0
  1  6  1  0  0  0  0
  2  3  1  0  0  0  0
  2  1  2  0  0  0  0
  3  4  2  0  0  0  0
  4  5  1  0  0  0  0
  5  8  1  0  0  0  0
  6  5  2  0  0  0  0
  7  2  1  0  0  0  0
  9 14  1  6  0  0  0
  9 10  1  0  0  0  0
  9 19  1  0  0  0  0
 10 15  1  1  0  0  0
 10  3  1  0  0  0  0
 11 10  1  0  0  0  0
 12 16  1  0  0  0  0
 12 13  1  0  0  0  0
 12 11  1  0  0  0  0
 13 18  1  1  0  0  0
 13  9  1  0  0  0  0
 17 12  1  0  0  0  0
 19 20  1  0  0  0  0
 21 22  1  0  0  0  0
 21 13  1  0  0  0  0
 23  1  1  0  0  0  0
 23 28  1  0  0  0  0
 24 23  1  0  0  0  0
 25 23  1  0  0  0  0
 26 31  1  0  0  0  0
 27 26  2  0  0  0  0
 28 26  1  0  0  0  0
 28 29  1  0  0  0  0
 30 31  2  0  0  0  0
 30 37  1  0  0  0  0
 31 32  1  0  0  0  0
 32 33  1  0  0  0  0
 32 34  2  0  0  0  0
 34 35  1  0  0  0  0
 36 34  1  0  0  0  0
 37 36  2  0  0  0  0
 38 39  1  0  0  0  0
 39 41  2  0  0  0  0
 39 30  1  0  0  0  0
 40 39  2  0  0  0  0
M  END
>  <minimizedAffinity>
0.29212141

>  <minimizedRMSD>
0.854868054

$$$$
