
 OpenBabel03242522503D

 29 30  0  0  0  0  0  0  0  0999 V2000
   47.7110   30.6650   49.4980 O   0  0  0  0  0  0  0  0  0  0  0  0
   45.5930   30.3750   48.0110 O   0  0  0  0  0  0  0  0  0  0  0  0
   46.3550   31.3960   48.8980 P   0  0  1  0  0  0  0  0  0  0  0  0
   45.2600   31.8180   50.1010 O   0  0  0  0  0  0  0  0  0  0  0  0
   44.8130   31.0060   50.4100 H   0  0  0  0  0  0  0  0  0  0  0  0
   46.7240   32.7350   47.9400 O   0  0  0  0  0  0  0  0  0  0  0  0
   47.1400   31.7080   44.4780 C   0  0  0  0  0  0  0  0  0  0  0  0
   47.2940   31.7800   45.8700 C   0  0  0  0  0  0  0  0  0  0  0  0
   46.5450   32.6910   46.5740 C   0  0  0  0  0  0  0  0  0  0  0  0
   45.6810   33.4860   45.8830 N   0  0  0  0  0  0  0  0  0  0  0  0
   45.5430   33.4060   44.5540 C   0  0  0  0  0  0  0  0  0  0  0  0
   46.2630   32.5270   43.8450 N   0  0  0  0  0  0  0  0  0  0  0  0
   47.6810   31.0290   43.8350 H   0  0  0  0  0  0  0  0  0  0  0  0
   48.0090   31.0780   46.2100 H   0  0  0  0  0  0  0  0  0  0  0  0
   44.8100   34.1160   44.1800 H   0  0  0  0  0  0  0  0  0  0  0  0
   49.0170   30.7090   49.1690 C   0  0  0  0  0  0  0  0  0  0  0  0
   49.4900   31.9350   49.1780 O   0  0  0  0  0  0  0  0  0  0  0  0
   51.1470   29.5660   49.7010 C   0  0  0  0  0  0  0  0  0  0  0  0
   50.2090   29.8880   48.7680 C   0  0  0  0  0  0  0  0  0  0  0  0
   50.3870   29.4710   47.4370 C   0  0  0  0  0  0  0  0  0  0  0  0
   49.5810   29.7740   46.7410 H   0  0  0  0  0  0  0  0  0  0  0  0
   51.4360   28.7490   46.9410 C   0  0  0  0  0  0  0  0  0  0  0  0
   51.4340   28.5040   45.8970 H   0  0  0  0  0  0  0  0  0  0  0  0
   52.3800   28.4240   47.8740 C   0  0  0  0  0  3  0  0  0  0  0  0
   52.2250   28.8200   49.1750 C   0  0  0  0  0  3  0  0  0  0  0  0
   52.4470   29.6640   51.8720 H   0  0  0  0  0  0  0  0  0  0  0  0
   51.1670   29.9410   51.3860 S   0  0  0  0  0  0  0  0  0  0  0  0
   50.9700   31.4030   51.6680 O   0  0  0  0  0  0  0  0  0  0  0  0
   50.2800   29.0530   52.2300 O   0  0  0  0  0  0  0  0  0  0  0  0
  3  2  2  6  0  0  0
  3  1  1  0  0  0  0
  3  4  1  0  0  0  0
  4  5  1  0  0  0  0
  6  3  1  0  0  0  0
  7  8  1  0  0  0  0
  8 14  1  0  0  0  0
  8  9  2  0  0  0  0
  9  6  1  0  0  0  0
 10  9  1  0  0  0  0
 11 10  2  0  0  0  0
 12  7  2  0  0  0  0
 12 11  1  0  0  0  0
 13  7  1  0  0  0  0
 15 11  1  0  0  0  0
 16 17  2  0  0  0  0
 16  1  1  0  0  0  0
 18 27  1  0  0  0  0
 19 16  1  0  0  0  0
 19 18  2  0  0  0  0
 20 19  1  0  0  0  0
 21 20  1  0  0  0  0
 22 20  2  0  0  0  0
 22 24  1  0  0  0  0
 23 22  1  0  0  0  0
 24 25  2  0  0  0  0
 25 18  1  0  0  0  0
 27 28  2  0  0  0  0
 27 26  1  0  0  0  0
 27 29  2  0  0  0  0
M  END
>  <minimizedAffinity>
-4.33631802

>  <minimizedRMSD>
1.59580493

$$$$
