
 OpenBabel03242522503D

 29 30  0  0  0  0  0  0  0  0999 V2000
   47.2830   31.5660   47.9430 O   0  0  0  0  0  0  0  0  0  0  0  0
   44.8490   30.6570   47.7580 O   0  0  0  0  0  0  0  0  0  0  0  0
   45.6920   31.8430   48.2990 P   0  0  1  0  0  0  0  0  0  0  0  0
   45.3920   31.8630   49.9530 O   0  0  0  0  0  0  0  0  0  0  0  0
   45.4120   30.9430   50.2800 H   0  0  0  0  0  0  0  0  0  0  0  0
   45.1150   33.2560   47.5770 O   0  0  0  0  0  0  0  0  0  0  0  0
   46.9680   33.2110   44.4500 C   0  0  0  0  0  0  0  0  0  0  0  0
   46.5370   32.8830   45.7440 C   0  0  0  0  0  0  0  0  0  0  0  0
   45.5110   33.6050   46.3040 C   0  0  0  0  0  0  0  0  0  0  0  0
   44.9570   34.6110   45.5720 N   0  0  0  0  0  0  0  0  0  0  0  0
   45.3780   34.9120   44.3380 C   0  0  0  0  0  0  0  0  0  0  0  0
   46.3770   34.2250   43.7710 N   0  0  0  0  0  0  0  0  0  0  0  0
   47.7650   32.7070   43.9230 H   0  0  0  0  0  0  0  0  0  0  0  0
   47.0940   32.0720   46.1360 H   0  0  0  0  0  0  0  0  0  0  0  0
   44.8180   35.7420   43.9120 H   0  0  0  0  0  0  0  0  0  0  0  0
   48.3670   31.2720   48.6880 C   0  0  0  0  0  0  0  0  0  0  0  0
   49.0160   32.3500   49.0660 O   0  0  0  0  0  0  0  0  0  0  0  0
   49.3180   28.9870   48.6050 C   0  0  0  0  0  0  0  0  0  0  0  0
   49.1800   30.1590   49.2850 C   0  0  0  0  0  0  0  0  0  0  0  0
   49.7750   30.2960   50.5510 C   0  0  0  0  0  0  0  0  0  0  0  0
   49.6160   31.2780   51.0370 H   0  0  0  0  0  0  0  0  0  0  0  0
   50.5090   29.3530   51.2150 C   0  0  0  0  0  0  0  0  0  0  0  0
   50.9020   29.6050   52.1800 H   0  0  0  0  0  0  0  0  0  0  0  0
   50.6500   28.1770   50.5360 C   0  0  0  0  0  3  0  0  0  0  0  0
   50.0790   28.0230   49.3020 C   0  0  0  0  0  3  0  0  0  0  0  0
   49.2110   27.3080   46.7140 H   0  0  0  0  0  0  0  0  0  0  0  0
   48.7030   28.5650   47.0470 S   0  0  0  0  0  0  0  0  0  0  0  0
   47.2110   28.3790   47.0330 O   0  0  0  0  0  0  0  0  0  0  0  0
   49.1980   29.4470   45.9250 O   0  0  0  0  0  0  0  0  0  0  0  0
  1  3  1  0  0  0  0
  1 16  1  0  0  0  0
  3  2  2  6  0  0  0
  3  4  1  0  0  0  0
  4  5  1  0  0  0  0
  6  3  1  0  0  0  0
  7  8  1  0  0  0  0
  8 14  1  0  0  0  0
  8  9  2  0  0  0  0
  9  6  1  0  0  0  0
 10  9  1  0  0  0  0
 11 10  2  0  0  0  0
 12 11  1  0  0  0  0
 12  7  2  0  0  0  0
 13  7  1  0  0  0  0
 15 11  1  0  0  0  0
 16 17  2  0  0  0  0
 16 19  1  0  0  0  0
 18 19  2  0  0  0  0
 18 25  1  0  0  0  0
 19 20  1  0  0  0  0
 20 21  1  0  0  0  0
 20 22  2  0  0  0  0
 22 23  1  0  0  0  0
 24 22  1  0  0  0  0
 25 24  2  0  0  0  0
 26 27  1  0  0  0  0
 27 18  1  0  0  0  0
 28 27  2  0  0  0  0
 29 27  2  0  0  0  0
M  END
>  <minimizedAffinity>
-5.05181026

>  <minimizedRMSD>
1.24272895

$$$$
