
 OpenBabel03242522503D

 29 30  0  0  0  0  0  0  0  0999 V2000
   47.7530   31.9240   48.4230 O   0  0  0  0  0  0  0  0  0  0  0  0
   45.6290   30.5910   47.7180 O   0  0  0  0  0  0  0  0  0  0  0  0
   46.1000   31.9010   48.4040 P   0  0  1  0  0  0  0  0  0  0  0  0
   45.4350   31.8380   49.9470 O   0  0  0  0  0  0  0  0  0  0  0  0
   45.5480   30.9330   50.2940 H   0  0  0  0  0  0  0  0  0  0  0  0
   45.4550   33.1970   47.5360 O   0  0  0  0  0  0  0  0  0  0  0  0
   47.2210   32.8260   44.3820 C   0  0  0  0  0  0  0  0  0  0  0  0
   46.8300   32.6380   45.7150 C   0  0  0  0  0  0  0  0  0  0  0  0
   45.8100   33.4070   46.2220 C   0  0  0  0  0  0  0  0  0  0  0  0
   45.2220   34.3200   45.3990 N   0  0  0  0  0  0  0  0  0  0  0  0
   45.6050   34.4870   44.1270 C   0  0  0  0  0  0  0  0  0  0  0  0
   46.5970   33.7510   43.6110 N   0  0  0  0  0  0  0  0  0  0  0  0
   48.0100   32.2740   43.8910 H   0  0  0  0  0  0  0  0  0  0  0  0
   47.4090   31.8830   46.1780 H   0  0  0  0  0  0  0  0  0  0  0  0
   45.0230   35.2580   43.6290 H   0  0  0  0  0  0  0  0  0  0  0  0
   48.6930   31.0440   48.8200 C   0  0  0  0  0  0  0  0  0  0  0  0
   48.3770   30.4570   49.9520 O   0  0  0  0  0  0  0  0  0  0  0  0
   51.1530   30.9200   49.0730 C   0  0  0  0  0  0  0  0  0  0  0  0
   50.0250   30.4370   48.4830 C   0  0  0  0  0  0  0  0  0  0  0  0
   50.1270   29.3950   47.5440 C   0  0  0  0  0  0  0  0  0  0  0  0
   49.1660   29.0590   47.1120 H   0  0  0  0  0  0  0  0  0  0  0  0
   51.2750   28.7800   47.1310 C   0  0  0  0  0  0  0  0  0  0  0  0
   51.1970   27.9960   46.4040 H   0  0  0  0  0  0  0  0  0  0  0  0
   52.4110   29.2610   47.7200 C   0  0  0  0  0  3  0  0  0  0  0  0
   52.3300   30.2750   48.6360 C   0  0  0  0  0  3  0  0  0  0  0  0
   52.6650   32.3960   50.4690 H   0  0  0  0  0  0  0  0  0  0  0  0
   51.3040   32.1740   50.2500 S   0  0  0  0  0  0  0  0  0  0  0  0
   50.7830   33.4990   49.7710 O   0  0  0  0  0  0  0  0  0  0  0  0
   50.7900   31.8010   51.6220 O   0  0  0  0  0  0  0  0  0  0  0  0
  1 16  1  0  0  0  0
  3  2  2  6  0  0  0
  3  1  1  0  0  0  0
  3  4  1  0  0  0  0
  4  5  1  0  0  0  0
  6  3  1  0  0  0  0
  7  8  1  0  0  0  0
  8 14  1  0  0  0  0
  8  9  2  0  0  0  0
  9  6  1  0  0  0  0
 10  9  1  0  0  0  0
 11 10  2  0  0  0  0
 12 11  1  0  0  0  0
 12  7  2  0  0  0  0
 13  7  1  0  0  0  0
 15 11  1  0  0  0  0
 16 17  2  0  0  0  0
 18 27  1  0  0  0  0
 19 16  1  0  0  0  0
 19 18  2  0  0  0  0
 20 19  1  0  0  0  0
 21 20  1  0  0  0  0
 22 20  2  0  0  0  0
 22 24  1  0  0  0  0
 23 22  1  0  0  0  0
 24 25  2  0  0  0  0
 25 18  1  0  0  0  0
 27 26  1  0  0  0  0
 27 29  2  0  0  0  0
 28 27  2  0  0  0  0
M  END
>  <minimizedAffinity>
-4.5979476

>  <minimizedRMSD>
1.41580486

$$$$
