
 OpenBabel03242521433D

 41 43  0  0  1  0  0  0  0  0999 V2000
   45.2430   36.7040   43.6130 C   0  0  0  0  0  0  0  0  0  0  0  0
   45.9110   35.5540   43.1600 C   0  0  0  0  0  0  0  0  0  0  0  0
   45.8660   34.3790   43.9210 C   0  0  0  0  0  0  0  0  0  0  0  0
   45.1770   34.4130   45.0610 N   0  0  0  0  0  0  0  0  0  0  0  0
   44.5360   35.5370   45.4830 C   0  0  0  0  0  0  0  0  0  0  0  0
   44.5650   36.6730   44.7720 N   0  0  0  0  0  0  0  0  0  0  0  0
   46.4350   35.6400   42.2260 H   0  0  0  0  0  0  0  0  0  0  0  0
   44.0210   35.4020   46.4270 H   0  0  0  0  0  0  0  0  0  0  0  0
   47.8490   33.5440   42.6760 C   0  0  2  0  0  0  0  0  0  0  0  0
   46.5820   33.2270   43.3880 C   0  0  2  0  0  0  0  0  0  0  0  0
   45.8700   32.5210   42.3740 O   0  0  0  0  0  0  0  0  0  0  0  0
   46.7970   31.5810   41.9620 C   0  0  0  0  0  0  0  0  0  0  0  0
   48.1810   32.1190   42.1830 C   0  0  1  0  0  0  0  0  0  0  0  0
   47.6790   34.0940   41.7090 H   0  0  0  0  0  0  0  0  0  0  0  0
   46.7840   32.4920   44.1910 H   0  0  0  0  0  0  0  0  0  0  0  0
   46.6160   30.6470   42.5400 H   0  0  0  0  0  0  0  0  0  0  0  0
   46.6190   31.3310   40.8920 H   0  0  0  0  0  0  0  0  0  0  0  0
   48.7210   31.5520   42.9860 H   0  0  0  0  0  0  0  0  0  0  0  0
   48.8200   34.1060   43.4460 O   0  0  0  0  0  0  0  0  0  0  0  0
   48.8900   35.0910   43.2840 H   0  0  0  0  0  0  0  0  0  0  0  0
   48.9460   32.2160   41.0270 O   0  0  0  0  0  0  0  0  0  0  0  0
   49.7140   32.8080   41.2750 H   0  0  0  0  0  0  0  0  0  0  0  0
   45.3090   37.9480   42.7950 C   0  0  0  0  0  0  0  0  0  0  0  0
   44.5550   37.8830   41.9710 H   0  0  0  0  0  0  0  0  0  0  0  0
   46.3320   38.0720   42.3960 H   0  0  0  0  0  0  0  0  0  0  0  0
   45.0880   40.4310   43.4080 C   0  0  0  0  0  0  0  0  0  0  0  0
   45.6410   40.7440   42.3180 O   0  0  0  0  0  0  0  0  0  0  0  0
   44.9100   39.0420   43.6600 N   0  0  0  0  0  0  0  0  0  0  0  0
   44.4410   38.7720   44.5640 H   0  0  0  0  0  0  0  0  0  0  0  0
   44.6050   41.2230   45.7020 C   0  0  0  0  0  0  0  0  0  0  0  0
   44.6640   41.4640   44.3450 C   0  0  0  0  0  0  0  0  0  0  0  0
   44.2960   42.7400   43.9350 C   0  0  0  0  0  0  0  0  0  0  0  0
   44.3320   42.9520   42.8910 H   0  0  0  0  0  0  0  0  0  0  0  0
   43.8900   43.7200   44.8430 C   0  0  0  0  0  0  0  0  0  0  0  0
   43.6270   44.6790   44.4040 H   0  0  0  0  0  0  0  0  0  0  0  0
   43.8470   43.4330   46.2030 C   0  0  0  0  0  3  0  0  0  0  0  0
   44.2090   42.1650   46.6370 C   0  0  0  0  0  3  0  0  0  0  0  0
   44.5990   38.6580   45.4780 H   0  0  0  0  0  0  0  0  0  0  0  0
   45.0490   39.6460   46.3220 S   0  0  0  0  0  0  0  0  0  0  0  0
   44.4540   39.4800   47.7040 O   0  0  0  0  0  0  0  0  0  0  0  0
   46.5610   39.6370   46.3870 O   0  0  0  0  0  0  0  0  0  0  0  0
  1  6  1  0  0  0  0
  2  1  2  0  0  0  0
  2  3  1  0  0  0  0
  3  4  2  0  0  0  0
  4  5  1  0  0  0  0
  5  8  1  0  0  0  0
  6  5  2  0  0  0  0
  7  2  1  0  0  0  0
  9 14  1  6  0  0  0
  9 10  1  0  0  0  0
  9 19  1  0  0  0  0
 10  3  1  0  0  0  0
 10 15  1  1  0  0  0
 11 10  1  0  0  0  0
 12 13  1  0  0  0  0
 12 11  1  0  0  0  0
 12 16  1  0  0  0  0
 13  9  1  0  0  0  0
 13 18  1  1  0  0  0
 17 12  1  0  0  0  0
 20 19  1  0  0  0  0
 21 22  1  0  0  0  0
 21 13  1  0  0  0  0
 23  1  1  0  0  0  0
 23 28  1  0  0  0  0
 24 23  1  0  0  0  0
 25 23  1  0  0  0  0
 26 28  1  0  0  0  0
 26 31  1  0  0  0  0
 27 26  2  0  0  0  0
 28 29  1  0  0  0  0
 30 39  1  0  0  0  0
 30 37  1  0  0  0  0
 31 30  2  0  0  0  0
 32 31  1  0  0  0  0
 32 34  2  0  0  0  0
 33 32  1  0  0  0  0
 34 36  1  0  0  0  0
 35 34  1  0  0  0  0
 36 37  2  0  0  0  0
 38 39  1  0  0  0  0
 39 41  2  0  0  0  0
 39 40  2  0  0  0  0
M  END
>  <minimizedAffinity>
2.75298548

>  <minimizedRMSD>
1.76431048

$$$$
