
 OpenBabel03242519403D

 32 33  0  0  0  0  0  0  0  0999 V2000
   48.1680   32.9100   41.5870 O   0  0  0  0  0  0  0  0  0  0  0  0
   47.1820   34.0480   41.2030 P   0  0  2  0  0  0  0  0  0  0  0  0
   45.6470   33.6890   41.8820 O   0  0  0  0  0  0  0  0  0  0  0  0
   44.4140   35.8390   44.5490 C   0  0  0  0  0  0  0  0  0  0  0  0
   44.7030   35.3540   43.2530 C   0  0  0  0  0  0  0  0  0  0  0  0
   45.3810   34.1280   43.1620 C   0  0  0  0  0  0  0  0  0  0  0  0
   45.7180   33.4830   44.2970 N   0  0  0  0  0  0  0  0  0  0  0  0
   45.4270   33.9740   45.5220 C   0  0  0  0  0  0  0  0  0  0  0  0
   44.7810   35.1410   45.6610 N   0  0  0  0  0  0  0  0  0  0  0  0
   43.8950   36.7780   44.6090 H   0  0  0  0  0  0  0  0  0  0  0  0
   44.3920   35.9420   42.3980 H   0  0  0  0  0  0  0  0  0  0  0  0
   45.7460   33.3690   46.3720 H   0  0  0  0  0  0  0  0  0  0  0  0
   47.0400   34.0960   39.5550 O   0  0  0  0  0  0  0  0  0  0  0  0
   47.7860   33.4930   38.5920 C   0  0  0  0  0  0  0  0  0  0  0  0
   48.0880   34.2250   37.4960 O   0  0  0  0  0  0  0  0  0  0  0  0
   47.8680   31.0940   38.0220 C   0  0  0  0  0  0  0  0  0  0  0  0
   48.5080   32.2860   38.1370 C   0  0  0  0  0  0  0  0  0  0  0  0
   49.8400   32.3400   37.7380 C   0  0  0  0  0  0  0  0  0  0  0  0
   50.3180   33.3360   37.8510 H   0  0  0  0  0  0  0  0  0  0  0  0
   50.6510   31.3650   37.2290 C   0  0  0  0  0  0  0  0  0  0  0  0
   51.6700   31.5720   36.9690 H   0  0  0  0  0  0  0  0  0  0  0  0
   50.0100   30.1620   37.1110 C   0  0  0  0  0  3  0  0  0  0  0  0
   48.6970   30.0840   37.4970 C   0  0  0  0  0  3  0  0  0  0  0  0
   46.0910   29.3070   38.1520 H   0  0  0  0  0  0  0  0  0  0  0  0
   46.2610   30.6730   38.4560 S   0  0  0  0  0  0  0  0  0  0  0  0
   45.9170   30.8260   39.9140 O   0  0  0  0  0  0  0  0  0  0  0  0
   45.2770   31.3960   37.5820 O   0  0  0  0  0  0  0  0  0  0  0  0
   47.7640   35.4310   41.9000 O   0  0  0  0  0  0  0  0  0  0  0  0
   49.0290   35.7680   41.4440 C   0  0  0  0  0  0  0  0  0  0  0  0
   49.4520   37.0000   41.9130 F   0  0  0  0  0  0  0  0  0  0  0  0
   49.9110   34.7710   41.7060 F   0  0  0  0  0  0  0  0  0  0  0  0
   48.9180   35.8970   40.0610 F   0  0  0  0  0  0  0  0  0  0  0  0
  2  1  2  1  0  0  0
  2  3  1  0  0  0  0
  2 28  1  0  0  0  0
  3  6  1  0  0  0  0
  4 10  1  0  0  0  0
  4  9  1  0  0  0  0
  5  4  2  0  0  0  0
  6  5  1  0  0  0  0
  6  7  2  0  0  0  0
  7  8  1  0  0  0  0
  8  9  2  0  0  0  0
  8 12  1  0  0  0  0
 11  5  1  0  0  0  0
 13  2  1  0  0  0  0
 14 13  1  0  0  0  0
 15 14  2  0  0  0  0
 16 17  1  0  0  0  0
 16 25  1  0  0  0  0
 17 14  1  0  0  0  0
 18 19  1  0  0  0  0
 18 17  2  0  0  0  0
 20 18  1  0  0  0  0
 21 20  1  0  0  0  0
 22 20  2  0  0  0  0
 22 23  1  0  0  0  0
 23 16  2  0  0  0  0
 24 25  1  0  0  0  0
 25 26  2  0  0  0  0
 27 25  2  0  0  0  0
 29 31  1  0  0  0  0
 29 28  1  0  0  0  0
 29 30  1  0  0  0  0
 32 29  1  0  0  0  0
M  END
>  <minimizedAffinity>
-5.05539608

>  <minimizedRMSD>
2.15756941

$$$$
