
 OpenBabel03242519403D

 32 33  0  0  0  0  0  0  0  0999 V2000
   47.9220   32.8290   41.6830 O   0  0  0  0  0  0  0  0  0  0  0  0
   47.0530   34.0520   41.2790 P   0  0  2  0  0  0  0  0  0  0  0  0
   45.4810   33.8430   41.9370 O   0  0  0  0  0  0  0  0  0  0  0  0
   44.4060   35.9310   44.7180 C   0  0  0  0  0  0  0  0  0  0  0  0
   44.6470   35.4900   43.3970 C   0  0  0  0  0  0  0  0  0  0  0  0
   45.2600   34.2370   43.2390 C   0  0  0  0  0  0  0  0  0  0  0  0
   45.5860   33.5270   44.3380 N   0  0  0  0  0  0  0  0  0  0  0  0
   45.3420   33.9780   45.5890 C   0  0  0  0  0  0  0  0  0  0  0  0
   44.7570   35.1680   45.7910 N   0  0  0  0  0  0  0  0  0  0  0  0
   43.9350   36.8910   44.8280 H   0  0  0  0  0  0  0  0  0  0  0  0
   44.3500   36.1290   42.5740 H   0  0  0  0  0  0  0  0  0  0  0  0
   45.6460   33.3210   46.4060 H   0  0  0  0  0  0  0  0  0  0  0  0
   46.9410   34.1050   39.6290 O   0  0  0  0  0  0  0  0  0  0  0  0
   46.5130   33.1620   38.7480 C   0  0  0  0  0  0  0  0  0  0  0  0
   45.4140   32.4530   39.0890 O   0  0  0  0  0  0  0  0  0  0  0  0
   47.6560   31.5300   37.2930 C   0  0  0  0  0  0  0  0  0  0  0  0
   46.7010   32.4820   37.4490 C   0  0  0  0  0  0  0  0  0  0  0  0
   45.8640   32.7340   36.3660 C   0  0  0  0  0  0  0  0  0  0  0  0
   45.0980   33.5200   36.5440 H   0  0  0  0  0  0  0  0  0  0  0  0
   45.8310   32.1680   35.1230 C   0  0  0  0  0  0  0  0  0  0  0  0
   45.1120   32.4790   34.3910 H   0  0  0  0  0  0  0  0  0  0  0  0
   46.7910   31.2060   34.9620 C   0  0  0  0  0  3  0  0  0  0  0  0
   47.6290   30.9410   36.0150 C   0  0  0  0  0  3  0  0  0  0  0  0
   49.6830   30.0870   37.7110 H   0  0  0  0  0  0  0  0  0  0  0  0
   48.8650   31.0080   38.3950 S   0  0  0  0  0  0  0  0  0  0  0  0
   49.7850   32.0840   38.9120 O   0  0  0  0  0  0  0  0  0  0  0  0
   48.2470   30.2290   39.5190 O   0  0  0  0  0  0  0  0  0  0  0  0
   47.7530   35.3780   41.9800 O   0  0  0  0  0  0  0  0  0  0  0  0
   48.9880   35.6840   41.4310 C   0  0  0  0  0  0  0  0  0  0  0  0
   49.4140   36.9600   41.7580 F   0  0  0  0  0  0  0  0  0  0  0  0
   49.8980   34.7260   41.7420 F   0  0  0  0  0  0  0  0  0  0  0  0
   48.8070   35.6780   40.0500 F   0  0  0  0  0  0  0  0  0  0  0  0
  2  1  2  1  0  0  0
  2  3  1  0  0  0  0
  2 28  1  0  0  0  0
  3  6  1  0  0  0  0
  4 10  1  0  0  0  0
  4  9  1  0  0  0  0
  5  4  2  0  0  0  0
  6  5  1  0  0  0  0
  6  7  2  0  0  0  0
  7  8  1  0  0  0  0
  8  9  2  0  0  0  0
  8 12  1  0  0  0  0
 11  5  1  0  0  0  0
 13  2  1  0  0  0  0
 14 15  2  0  0  0  0
 14 13  1  0  0  0  0
 16 17  1  0  0  0  0
 16 25  1  0  0  0  0
 17 14  1  0  0  0  0
 18 19  1  0  0  0  0
 18 17  2  0  0  0  0
 20 18  1  0  0  0  0
 21 20  1  0  0  0  0
 22 20  2  0  0  0  0
 22 23  1  0  0  0  0
 23 16  2  0  0  0  0
 24 25  1  0  0  0  0
 25 26  2  0  0  0  0
 25 27  2  0  0  0  0
 29 31  1  0  0  0  0
 29 30  1  0  0  0  0
 29 28  1  0  0  0  0
 32 29  1  0  0  0  0
M  END
>  <minimizedAffinity>
-5.22829962

>  <minimizedRMSD>
1.97753525

$$$$
