
 OpenBabel03242519413D

 32 33  0  0  0  0  0  0  0  0999 V2000
   47.8760   32.7970   41.6610 O   0  0  0  0  0  0  0  0  0  0  0  0
   46.9980   34.0110   41.2500 P   0  0  2  0  0  0  0  0  0  0  0  0
   45.4350   33.8070   41.9310 O   0  0  0  0  0  0  0  0  0  0  0  0
   44.4000   35.9190   44.7090 C   0  0  0  0  0  0  0  0  0  0  0  0
   44.6230   35.4670   43.3880 C   0  0  0  0  0  0  0  0  0  0  0  0
   45.2320   34.2120   43.2330 C   0  0  0  0  0  0  0  0  0  0  0  0
   45.5700   33.5100   44.3330 N   0  0  0  0  0  0  0  0  0  0  0  0
   45.3430   33.9710   45.5830 C   0  0  0  0  0  0  0  0  0  0  0  0
   44.7630   35.1640   45.7830 N   0  0  0  0  0  0  0  0  0  0  0  0
   43.9320   36.8810   44.8170 H   0  0  0  0  0  0  0  0  0  0  0  0
   44.3170   36.1000   42.5640 H   0  0  0  0  0  0  0  0  0  0  0  0
   45.6560   33.3200   46.4010 H   0  0  0  0  0  0  0  0  0  0  0  0
   46.8640   34.0380   39.6010 O   0  0  0  0  0  0  0  0  0  0  0  0
   46.2540   33.1660   38.7560 C   0  0  0  0  0  0  0  0  0  0  0  0
   44.9020   33.1420   38.7650 O   0  0  0  0  0  0  0  0  0  0  0  0
   47.6000   31.8380   37.1720 C   0  0  0  0  0  0  0  0  0  0  0  0
   46.3890   32.1270   37.7130 C   0  0  0  0  0  0  0  0  0  0  0  0
   45.3030   31.3590   37.3030 C   0  0  0  0  0  0  0  0  0  0  0  0
   44.3360   31.6340   37.7750 H   0  0  0  0  0  0  0  0  0  0  0  0
   45.2380   30.3210   36.4170 C   0  0  0  0  0  0  0  0  0  0  0  0
   44.3100   29.8280   36.2080 H   0  0  0  0  0  0  0  0  0  0  0  0
   46.4570   30.0250   35.8700 C   0  0  0  0  0  3  0  0  0  0  0  0
   47.5430   30.7690   36.2570 C   0  0  0  0  0  3  0  0  0  0  0  0
   50.0320   32.0140   36.5270 H   0  0  0  0  0  0  0  0  0  0  0  0
   49.1160   32.6050   37.4190 S   0  0  0  0  0  0  0  0  0  0  0  0
   49.1520   34.0850   37.1400 O   0  0  0  0  0  0  0  0  0  0  0  0
   49.6430   32.2930   38.7890 O   0  0  0  0  0  0  0  0  0  0  0  0
   47.7010   35.3490   41.9220 O   0  0  0  0  0  0  0  0  0  0  0  0
   48.9480   35.6260   41.3820 C   0  0  0  0  0  0  0  0  0  0  0  0
   49.4000   36.8920   41.7100 F   0  0  0  0  0  0  0  0  0  0  0  0
   49.8330   34.6480   41.7040 F   0  0  0  0  0  0  0  0  0  0  0  0
   48.7790   35.6200   40.0000 F   0  0  0  0  0  0  0  0  0  0  0  0
  2  1  2  1  0  0  0
  2 28  1  0  0  0  0
  2  3  1  0  0  0  0
  3  6  1  0  0  0  0
  4 10  1  0  0  0  0
  4  9  1  0  0  0  0
  5  4  2  0  0  0  0
  6  5  1  0  0  0  0
  6  7  2  0  0  0  0
  7  8  1  0  0  0  0
  8  9  2  0  0  0  0
  8 12  1  0  0  0  0
 11  5  1  0  0  0  0
 13  2  1  0  0  0  0
 14 15  2  0  0  0  0
 14 13  1  0  0  0  0
 16 25  1  0  0  0  0
 16 17  1  0  0  0  0
 17 14  1  0  0  0  0
 18 17  2  0  0  0  0
 18 19  1  0  0  0  0
 20 18  1  0  0  0  0
 21 20  1  0  0  0  0
 22 23  1  0  0  0  0
 22 20  2  0  0  0  0
 23 16  2  0  0  0  0
 24 25  1  0  0  0  0
 25 27  2  0  0  0  0
 26 25  2  0  0  0  0
 29 31  1  0  0  0  0
 29 30  1  0  0  0  0
 29 28  1  0  0  0  0
 32 29  1  0  0  0  0
M  END
>  <minimizedAffinity>
-5.26696634

>  <minimizedRMSD>
1.63397217

$$$$
