
 OpenBabel03242519413D

 32 33  0  0  0  0  0  0  0  0999 V2000
   48.2640   32.8110   41.1380 O   0  0  0  0  0  0  0  0  0  0  0  0
   47.1140   33.8050   41.4610 P   0  0  2  0  0  0  0  0  0  0  0  0
   46.0440   33.0550   42.5740 O   0  0  0  0  0  0  0  0  0  0  0  0
   44.4210   35.7940   44.3390 C   0  0  0  0  0  0  0  0  0  0  0  0
   44.9180   34.9970   43.2830 C   0  0  0  0  0  0  0  0  0  0  0  0
   45.5710   33.8030   43.6310 C   0  0  0  0  0  0  0  0  0  0  0  0
   45.6900   33.4810   44.9350 N   0  0  0  0  0  0  0  0  0  0  0  0
   45.2030   34.2660   45.9220 C   0  0  0  0  0  0  0  0  0  0  0  0
   44.5720   35.4150   45.6400 N   0  0  0  0  0  0  0  0  0  0  0  0
   43.9230   36.7060   44.0630 H   0  0  0  0  0  0  0  0  0  0  0  0
   44.7750   35.3370   42.2650 H   0  0  0  0  0  0  0  0  0  0  0  0
   45.3550   33.9080   46.9410 H   0  0  0  0  0  0  0  0  0  0  0  0
   46.2890   34.1390   40.0660 O   0  0  0  0  0  0  0  0  0  0  0  0
   46.1640   33.4100   38.9260 C   0  0  0  0  0  0  0  0  0  0  0  0
   47.1300   33.5560   37.9910 O   0  0  0  0  0  0  0  0  0  0  0  0
   44.0330   32.3950   38.2080 C   0  0  0  0  0  0  0  0  0  0  0  0
   45.3890   32.4190   38.1480 C   0  0  0  0  0  0  0  0  0  0  0  0
   46.0100   31.5330   37.2730 C   0  0  0  0  0  0  0  0  0  0  0  0
   47.1190   31.5930   37.2610 H   0  0  0  0  0  0  0  0  0  0  0  0
   45.4720   30.6030   36.4280 C   0  0  0  0  0  0  0  0  0  0  0  0
   46.0980   29.9890   35.8110 H   0  0  0  0  0  0  0  0  0  0  0  0
   44.1060   30.5760   36.4840 C   0  0  0  0  0  3  0  0  0  0  0  0
   43.4710   31.4390   37.3390 C   0  0  0  0  0  3  0  0  0  0  0  0
   41.6700   32.7990   38.9920 H   0  0  0  0  0  0  0  0  0  0  0  0
   42.9680   33.3090   39.1960 S   0  0  0  0  0  0  0  0  0  0  0  0
   43.2240   33.2310   40.6780 O   0  0  0  0  0  0  0  0  0  0  0  0
   42.9100   34.7320   38.7240 O   0  0  0  0  0  0  0  0  0  0  0  0
   47.8150   35.1130   42.1940 O   0  0  0  0  0  0  0  0  0  0  0  0
   48.9580   35.5440   41.5390 C   0  0  0  0  0  0  0  0  0  0  0  0
   49.2600   36.8670   41.8130 F   0  0  0  0  0  0  0  0  0  0  0  0
   49.9940   34.7030   41.7870 F   0  0  0  0  0  0  0  0  0  0  0  0
   48.6680   35.4850   40.1780 F   0  0  0  0  0  0  0  0  0  0  0  0
  2  1  2  6  0  0  0
  2 28  1  0  0  0  0
  2  3  1  0  0  0  0
  3  6  1  0  0  0  0
  4  9  1  0  0  0  0
  5  6  1  0  0  0  0
  5  4  2  0  0  0  0
  6  7  2  0  0  0  0
  7  8  1  0  0  0  0
  8 12  1  0  0  0  0
  9  8  2  0  0  0  0
 10  4  1  0  0  0  0
 11  5  1  0  0  0  0
 13  2  1  0  0  0  0
 14 13  1  0  0  0  0
 15 14  2  0  0  0  0
 16 25  1  0  0  0  0
 17 16  1  0  0  0  0
 17 14  1  0  0  0  0
 18 17  2  0  0  0  0
 19 18  1  0  0  0  0
 20 22  2  0  0  0  0
 20 18  1  0  0  0  0
 21 20  1  0  0  0  0
 22 23  1  0  0  0  0
 23 16  2  0  0  0  0
 24 25  1  0  0  0  0
 25 26  2  0  0  0  0
 27 25  2  0  0  0  0
 29 31  1  0  0  0  0
 29 30  1  0  0  0  0
 29 28  1  0  0  0  0
 32 29  1  0  0  0  0
M  END
>  <minimizedAffinity>
-5.06381702

>  <minimizedRMSD>
1.18584049

$$$$
