
 OpenBabel03242521193D

 41 43  0  0  0  0  0  0  0  0999 V2000
   36.1670   30.6280   41.0760 C   0  0  0  0  0  0  0  0  0  0  0  0
   35.2350   31.2310   40.9200 H   0  0  0  0  0  0  0  0  0  0  0  0
   36.5670   30.9100   42.0760 H   0  0  0  0  0  0  0  0  0  0  0  0
   38.1530   31.1510   37.9380 C   0  0  0  0  0  0  0  0  0  0  0  0
   39.1650   32.0010   38.4290 C   0  0  0  0  0  0  0  0  0  0  0  0
   39.1090   32.3400   39.7820 C   0  0  0  0  0  0  0  0  0  0  0  0
   38.0890   31.8340   40.5410 N   0  0  0  0  0  0  0  0  0  0  0  0
   37.1530   31.0310   40.0330 C   0  0  0  0  0  0  0  0  0  0  0  0
   37.1640   30.6710   38.7190 N   0  0  0  0  0  0  0  0  0  0  0  0
   38.1720   30.8740   36.9000 H   0  0  0  0  0  0  0  0  0  0  0  0
   39.9390   32.3640   37.7790 H   0  0  0  0  0  0  0  0  0  0  0  0
   40.1220   33.1980   40.2950 N   0  0  0  0  0  0  0  0  0  0  0  0
   41.3340   32.6550   40.5650 C   0  0  0  0  0  0  0  0  0  0  0  0
   42.3330   33.4900   41.0680 C   0  0  0  0  0  0  0  0  0  0  0  0
   42.0350   34.7990   41.2580 C   0  0  0  0  0  0  0  0  0  0  0  0
   42.9550   35.5670   41.7210 O   0  0  0  0  0  0  0  0  0  0  0  0
   40.8330   35.3600   40.9950 N   0  0  0  0  0  0  0  0  0  0  0  0
   39.9080   34.4980   40.5100 C   0  0  0  0  0  0  0  0  0  0  0  0
   38.7610   34.9070   40.2320 O   0  0  0  0  0  0  0  0  0  0  0  0
   41.5590   31.6230   40.4120 H   0  0  0  0  0  0  0  0  0  0  0  0
   43.3290   33.1150   41.3080 H   0  0  0  0  0  0  0  0  0  0  0  0
   40.5990   36.3690   41.1400 H   0  0  0  0  0  0  0  0  0  0  0  0
   35.8640   29.1460   41.0000 C   0  0  0  0  0  0  0  0  0  0  0  0
   35.4200   28.9260   39.9850 H   0  0  0  0  0  0  0  0  0  0  0  0
   35.0600   28.8890   41.7200 H   0  0  0  0  0  0  0  0  0  0  0  0
   37.1200   27.5840   42.3570 C   0  0  0  0  0  0  0  0  0  0  0  0
   36.1820   27.6520   43.2000 O   0  0  0  0  0  0  0  0  0  0  0  0
   37.0600   28.3830   41.2140 N   0  0  0  0  0  0  0  0  0  0  0  0
   37.8720   28.4020   40.5610 H   0  0  0  0  0  0  0  0  0  0  0  0
   38.3370   25.3350   42.2940 C   0  0  0  0  0  0  0  0  0  0  0  0
   38.1950   26.6520   42.6760 C   0  0  0  0  0  0  0  0  0  0  0  0
   39.1700   27.2540   43.4800 C   0  0  0  0  0  0  0  0  0  0  0  0
   39.1520   28.2870   43.8360 H   0  0  0  0  0  0  0  0  0  0  0  0
   40.2800   26.5290   43.8940 C   0  0  0  0  0  0  0  0  0  0  0  0
   41.0660   26.9370   44.5150 H   0  0  0  0  0  0  0  0  0  0  0  0
   40.4050   25.2120   43.5020 C   0  0  0  0  0  3  0  0  0  0  0  0
   39.4350   24.6040   42.6980 C   0  0  0  0  0  3  0  0  0  0  0  0
   35.8380   24.7130   41.9230 H   0  0  0  0  0  0  0  0  0  0  0  0
   37.0400   24.7210   41.2900 S   0  0  0  0  0  0  0  0  0  0  0  0
   37.3850   23.2630   41.0350 O   0  0  0  0  0  0  0  0  0  0  0  0
   37.0090   25.3850   39.9510 O   0  0  0  0  0  0  0  0  0  0  0  0
  1  3  1  0  0  0  0
  2  1  1  0  0  0  0
  4  5  2  0  0  0  0
  4  9  1  0  0  0  0
  5  6  1  0  0  0  0
  6 12  1  0  0  0  0
  6  7  2  0  0  0  0
  8  7  1  0  0  0  0
  8  1  1  0  0  0  0
  9  8  2  0  0  0  0
 10  4  1  0  0  0  0
 11  5  1  0  0  0  0
 12 18  1  0  0  0  0
 12 13  1  0  0  0  0
 13 14  2  0  0  0  0
 14 15  1  0  0  0  0
 14 21  1  0  0  0  0
 15 16  2  0  0  0  0
 17 22  1  0  0  0  0
 17 15  1  0  0  0  0
 18 17  1  0  0  0  0
 19 18  2  0  0  0  0
 20 13  1  0  0  0  0
 23  1  1  0  0  0  0
 23 28  1  0  0  0  0
 23 25  1  0  0  0  0
 24 23  1  0  0  0  0
 26 31  1  0  0  0  0
 26 27  2  0  0  0  0
 28 26  1  0  0  0  0
 29 28  1  0  0  0  0
 30 31  2  0  0  0  0
 30 37  1  0  0  0  0
 31 32  1  0  0  0  0
 32 33  1  0  0  0  0
 32 34  2  0  0  0  0
 34 35  1  0  0  0  0
 36 34  1  0  0  0  0
 37 36  2  0  0  0  0
 39 38  1  0  0  0  0
 39 30  1  0  0  0  0
 40 39  2  0  0  0  0
 41 39  2  0  0  0  0
M  END
>  <minimizedAffinity>
-6.51540089

$$$$

 OpenBabel03242521193D

 41 43  0  0  0  0  0  0  0  0999 V2000
   35.3390   28.8960   39.6720 C   0  0  0  0  0  0  0  0  0  0  0  0
   35.3270   27.8150   39.3750 H   0  0  0  0  0  0  0  0  0  0  0  0
   34.2890   29.2580   39.6080 H   0  0  0  0  0  0  0  0  0  0  0  0
   37.0280   30.2220   36.5970 C   0  0  0  0  0  0  0  0  0  0  0  0
   37.8310   31.2270   37.1740 C   0  0  0  0  0  0  0  0  0  0  0  0
   37.7490   31.3880   38.5580 C   0  0  0  0  0  0  0  0  0  0  0  0
   36.9050   30.5740   39.2630 N   0  0  0  0  0  0  0  0  0  0  0  0
   36.1640   29.6350   38.6730 C   0  0  0  0  0  0  0  0  0  0  0  0
   36.2090   29.4380   37.3250 N   0  0  0  0  0  0  0  0  0  0  0  0
   37.0720   30.0760   35.5330 H   0  0  0  0  0  0  0  0  0  0  0  0
   38.4740   31.8340   36.5640 H   0  0  0  0  0  0  0  0  0  0  0  0
   38.5520   32.3990   39.1590 N   0  0  0  0  0  0  0  0  0  0  0  0
   39.8690   32.1340   39.3410 C   0  0  0  0  0  0  0  0  0  0  0  0
   40.6640   33.1190   39.9280 C   0  0  0  0  0  0  0  0  0  0  0  0
   40.0740   34.2880   40.2840 C   0  0  0  0  0  0  0  0  0  0  0  0
   40.8050   35.1940   40.8240 O   0  0  0  0  0  0  0  0  0  0  0  0
   38.7630   34.5710   40.1100 N   0  0  0  0  0  0  0  0  0  0  0  0
   38.0470   33.5750   39.5360 C   0  0  0  0  0  0  0  0  0  0  0  0
   36.8250   33.7260   39.3270 O   0  0  0  0  0  0  0  0  0  0  0  0
   40.3250   31.2110   39.0580 H   0  0  0  0  0  0  0  0  0  0  0  0
   41.7300   32.9690   40.1060 H   0  0  0  0  0  0  0  0  0  0  0  0
   38.3030   35.4710   40.3830 H   0  0  0  0  0  0  0  0  0  0  0  0
   35.8960   29.0600   41.0710 C   0  0  0  0  0  0  0  0  0  0  0  0
   35.0950   28.7660   41.8100 H   0  0  0  0  0  0  0  0  0  0  0  0
   36.0890   30.1330   41.2750 H   0  0  0  0  0  0  0  0  0  0  0  0
   37.1520   27.4580   42.3830 C   0  0  0  0  0  0  0  0  0  0  0  0
   36.2570   27.5710   43.2680 O   0  0  0  0  0  0  0  0  0  0  0  0
   37.0700   28.2500   41.2360 N   0  0  0  0  0  0  0  0  0  0  0  0
   37.8510   28.2310   40.5460 H   0  0  0  0  0  0  0  0  0  0  0  0
   38.2990   25.1770   42.2400 C   0  0  0  0  0  0  0  0  0  0  0  0
   38.2020   26.4860   42.6600 C   0  0  0  0  0  0  0  0  0  0  0  0
   39.2050   27.0350   43.4670 C   0  0  0  0  0  0  0  0  0  0  0  0
   39.2230   28.0580   43.8530 H   0  0  0  0  0  0  0  0  0  0  0  0
   40.2980   26.2650   43.8450 C   0  0  0  0  0  0  0  0  0  0  0  0
   41.1040   26.6320   44.4660 H   0  0  0  0  0  0  0  0  0  0  0  0
   40.3780   24.9580   43.4140 C   0  0  0  0  0  3  0  0  0  0  0  0
   39.3790   24.4020   42.6070 C   0  0  0  0  0  3  0  0  0  0  0  0
   35.7980   24.5350   41.9160 H   0  0  0  0  0  0  0  0  0  0  0  0
   36.9710   24.6310   41.2370 S   0  0  0  0  0  0  0  0  0  0  0  0
   37.3310   23.2120   40.8290 O   0  0  0  0  0  0  0  0  0  0  0  0
   36.8680   25.4180   39.9700 O   0  0  0  0  0  0  0  0  0  0  0  0
  1 23  1  0  0  0  0
  2  1  1  0  0  0  0
  3  1  1  0  0  0  0
  4  5  2  0  0  0  0
  4  9  1  0  0  0  0
  5  6  1  0  0  0  0
  6 12  1  0  0  0  0
  6  7  2  0  0  0  0
  8  7  1  0  0  0  0
  8  1  1  0  0  0  0
  9  8  2  0  0  0  0
 10  4  1  0  0  0  0
 11  5  1  0  0  0  0
 12 13  1  0  0  0  0
 12 18  1  0  0  0  0
 13 14  2  0  0  0  0
 14 21  1  0  0  0  0
 14 15  1  0  0  0  0
 15 16  2  0  0  0  0
 17 15  1  0  0  0  0
 17 22  1  0  0  0  0
 18 17  1  0  0  0  0
 19 18  2  0  0  0  0
 20 13  1  0  0  0  0
 23 28  1  0  0  0  0
 23 25  1  0  0  0  0
 23 24  1  0  0  0  0
 26 31  1  0  0  0  0
 26 27  2  0  0  0  0
 28 26  1  0  0  0  0
 29 28  1  0  0  0  0
 30 37  2  0  0  0  0
 30 31  1  0  0  0  0
 31 32  2  0  0  0  0
 32 34  1  0  0  0  0
 32 33  1  0  0  0  0
 34 35  1  0  0  0  0
 36 34  2  0  0  0  0
 37 36  1  0  0  0  0
 39 38  1  0  0  0  0
 39 30  1  0  0  0  0
 40 39  2  0  0  0  0
 41 39  2  0  0  0  0
M  END
>  <minimizedAffinity>
-6.33889532

$$$$

 OpenBabel03242521193D

 41 43  0  0  0  0  0  0  0  0999 V2000
   36.2140   25.0930   38.0770 C   0  0  0  0  0  0  0  0  0  0  0  0
   37.2580   25.2770   37.7130 H   0  0  0  0  0  0  0  0  0  0  0  0
   35.8040   24.2570   37.4670 H   0  0  0  0  0  0  0  0  0  0  0  0
   33.6840   27.6330   36.9740 C   0  0  0  0  0  0  0  0  0  0  0  0
   34.2410   28.7960   37.5430 C   0  0  0  0  0  0  0  0  0  0  0  0
   35.4310   28.6450   38.2590 C   0  0  0  0  0  0  0  0  0  0  0  0
   35.9760   27.3940   38.3640 N   0  0  0  0  0  0  0  0  0  0  0  0
   35.4130   26.3220   37.8080 C   0  0  0  0  0  0  0  0  0  0  0  0
   34.2520   26.4170   37.0990 N   0  0  0  0  0  0  0  0  0  0  0  0
   32.7690   27.7200   36.4180 H   0  0  0  0  0  0  0  0  0  0  0  0
   33.7630   29.7490   37.4240 H   0  0  0  0  0  0  0  0  0  0  0  0
   36.0080   29.8080   38.8420 N   0  0  0  0  0  0  0  0  0  0  0  0
   36.7760   30.5970   38.0510 C   0  0  0  0  0  0  0  0  0  0  0  0
   37.3460   31.7400   38.6140 C   0  0  0  0  0  0  0  0  0  0  0  0
   37.0990   31.9980   39.9230 C   0  0  0  0  0  0  0  0  0  0  0  0
   37.6230   33.0490   40.4410 O   0  0  0  0  0  0  0  0  0  0  0  0
   36.3360   31.2240   40.7280 N   0  0  0  0  0  0  0  0  0  0  0  0
   35.8130   30.1320   40.1220 C   0  0  0  0  0  0  0  0  0  0  0  0
   35.0910   29.3450   40.7710 O   0  0  0  0  0  0  0  0  0  0  0  0
   36.9650   30.3850   37.0220 H   0  0  0  0  0  0  0  0  0  0  0  0
   37.9760   32.4150   38.0330 H   0  0  0  0  0  0  0  0  0  0  0  0
   36.1420   31.4190   41.7380 H   0  0  0  0  0  0  0  0  0  0  0  0
   36.2140   24.7530   39.5530 C   0  0  0  0  0  0  0  0  0  0  0  0
   36.2770   23.6300   39.6590 H   0  0  0  0  0  0  0  0  0  0  0  0
   35.2360   25.0230   40.0010 H   0  0  0  0  0  0  0  0  0  0  0  0
   37.4800   25.1580   41.5770 C   0  0  0  0  0  0  0  0  0  0  0  0
   36.6000   24.4920   42.1910 O   0  0  0  0  0  0  0  0  0  0  0  0
   37.3170   25.3940   40.2110 N   0  0  0  0  0  0  0  0  0  0  0  0
   37.9890   26.0190   39.7170 H   0  0  0  0  0  0  0  0  0  0  0  0
   38.7050   26.7610   43.1480 C   0  0  0  0  0  0  0  0  0  0  0  0
   38.6040   25.6200   42.3820 C   0  0  0  0  0  0  0  0  0  0  0  0
   39.6820   24.7300   42.3110 C   0  0  0  0  0  0  0  0  0  0  0  0
   39.7040   23.8010   41.7350 H   0  0  0  0  0  0  0  0  0  0  0  0
   40.8530   24.9930   43.0110 C   0  0  0  0  0  0  0  0  0  0  0  0
   41.7180   24.3450   42.9960 H   0  0  0  0  0  0  0  0  0  0  0  0
   40.9350   26.1390   43.7720 C   0  0  0  0  0  3  0  0  0  0  0  0
   39.8620   27.0340   43.8480 C   0  0  0  0  0  3  0  0  0  0  0  0
   36.4110   27.4640   42.1430 H   0  0  0  0  0  0  0  0  0  0  0  0
   37.2790   27.7760   43.1400 S   0  0  0  0  0  0  0  0  0  0  0  0
   37.7820   29.1760   42.8290 O   0  0  0  0  0  0  0  0  0  0  0  0
   36.6390   27.8510   44.4890 O   0  0  0  0  0  0  0  0  0  0  0  0
  1 23  1  0  0  0  0
  2  1  1  0  0  0  0
  3  1  1  0  0  0  0
  4  9  2  0  0  0  0
  4  5  1  0  0  0  0
  5  6  2  0  0  0  0
  6  7  1  0  0  0  0
  6 12  1  0  0  0  0
  8  1  1  0  0  0  0
  8  7  2  0  0  0  0
  9  8  1  0  0  0  0
 10  4  1  0  0  0  0
 11  5  1  0  0  0  0
 12 18  1  0  0  0  0
 13 14  2  0  0  0  0
 13 12  1  0  0  0  0
 14 15  1  0  0  0  0
 15 16  2  0  0  0  0
 15 17  1  0  0  0  0
 17 22  1  0  0  0  0
 18 17  1  0  0  0  0
 18 19  2  0  0  0  0
 20 13  1  0  0  0  0
 21 14  1  0  0  0  0
 23 24  1  0  0  0  0
 23 25  1  0  0  0  0
 23 28  1  0  0  0  0
 26 27  2  0  0  0  0
 26 31  1  0  0  0  0
 28 26  1  0  0  0  0
 29 28  1  0  0  0  0
 30 37  1  0  0  0  0
 31 30  2  0  0  0  0
 32 31  1  0  0  0  0
 32 34  2  0  0  0  0
 33 32  1  0  0  0  0
 34 36  1  0  0  0  0
 35 34  1  0  0  0  0
 36 37  2  0  0  0  0
 38 39  1  0  0  0  0
 39 30  1  0  0  0  0
 39 41  2  0  0  0  0
 40 39  2  0  0  0  0
M  END
>  <minimizedAffinity>
-6.28595877

$$$$

 OpenBabel03242521193D

 41 43  0  0  0  0  0  0  0  0999 V2000
   39.6510   28.7890   37.2200 C   0  0  0  0  0  0  0  0  0  0  0  0
   39.5980   28.9860   36.1180 H   0  0  0  0  0  0  0  0  0  0  0  0
   39.8520   27.7010   37.3420 H   0  0  0  0  0  0  0  0  0  0  0  0
   36.1050   29.8140   37.8830 C   0  0  0  0  0  0  0  0  0  0  0  0
   36.0230   29.5310   39.2620 C   0  0  0  0  0  0  0  0  0  0  0  0
   37.1670   29.0150   39.8730 C   0  0  0  0  0  0  0  0  0  0  0  0
   38.2840   28.8170   39.1080 N   0  0  0  0  0  0  0  0  0  0  0  0
   38.3150   29.1000   37.8060 C   0  0  0  0  0  0  0  0  0  0  0  0
   37.2250   29.6050   37.1630 N   0  0  0  0  0  0  0  0  0  0  0  0
   35.2380   30.2110   37.3870 H   0  0  0  0  0  0  0  0  0  0  0  0
   35.1150   29.7100   39.8060 H   0  0  0  0  0  0  0  0  0  0  0  0
   37.1040   28.7220   41.2650 N   0  0  0  0  0  0  0  0  0  0  0  0
   36.6180   27.5120   41.6340 C   0  0  0  0  0  0  0  0  0  0  0  0
   36.5530   27.2150   42.9970 C   0  0  0  0  0  0  0  0  0  0  0  0
   36.9800   28.1560   43.8760 C   0  0  0  0  0  0  0  0  0  0  0  0
   36.9200   27.8830   45.1290 O   0  0  0  0  0  0  0  0  0  0  0  0
   37.4690   29.3680   43.5270 N   0  0  0  0  0  0  0  0  0  0  0  0
   37.5050   29.5940   42.1920 C   0  0  0  0  0  0  0  0  0  0  0  0
   37.9380   30.6810   41.7550 O   0  0  0  0  0  0  0  0  0  0  0  0
   36.2830   26.7770   40.9350 H   0  0  0  0  0  0  0  0  0  0  0  0
   36.1700   26.2610   43.3610 H   0  0  0  0  0  0  0  0  0  0  0  0
   37.8000   30.0960   44.2010 H   0  0  0  0  0  0  0  0  0  0  0  0
   40.7380   29.6270   37.8610 C   0  0  0  0  0  0  0  0  0  0  0  0
   41.6690   29.5460   37.2270 H   0  0  0  0  0  0  0  0  0  0  0  0
   41.0240   29.1880   38.8390 H   0  0  0  0  0  0  0  0  0  0  0  0
   40.4980   31.6280   39.2030 C   0  0  0  0  0  0  0  0  0  0  0  0
   40.9250   30.9520   40.1810 O   0  0  0  0  0  0  0  0  0  0  0  0
   40.3100   30.9930   37.9740 N   0  0  0  0  0  0  0  0  0  0  0  0
   39.8720   31.5190   37.1880 H   0  0  0  0  0  0  0  0  0  0  0  0
   41.1070   34.1060   39.3720 C   0  0  0  0  0  0  0  0  0  0  0  0
   40.2410   33.0380   39.4680 C   0  0  0  0  0  0  0  0  0  0  0  0
   38.9160   33.2490   39.8680 C   0  0  0  0  0  0  0  0  0  0  0  0
   38.1530   32.4730   39.9760 H   0  0  0  0  0  0  0  0  0  0  0  0
   38.4720   34.5300   40.1680 C   0  0  0  0  0  0  0  0  0  0  0  0
   37.4620   34.7560   40.4820 H   0  0  0  0  0  0  0  0  0  0  0  0
   39.3530   35.5860   40.0660 C   0  0  0  0  0  3  0  0  0  0  0  0
   40.6780   35.3840   39.6660 C   0  0  0  0  0  3  0  0  0  0  0  0
   42.9470   32.3480   38.8300 H   0  0  0  0  0  0  0  0  0  0  0  0
   42.7290   33.6890   38.8590 S   0  0  0  0  0  0  0  0  0  0  0  0
   43.6460   34.2350   39.9400 O   0  0  0  0  0  0  0  0  0  0  0  0
   43.1110   34.3860   37.5930 O   0  0  0  0  0  0  0  0  0  0  0  0
  1  3  1  0  0  0  0
  1  8  1  0  0  0  0
  1 23  1  0  0  0  0
  2  1  1  0  0  0  0
  4  5  1  0  0  0  0
  5 11  1  0  0  0  0
  5  6  2  0  0  0  0
  6 12  1  0  0  0  0
  7  6  1  0  0  0  0
  8  7  2  0  0  0  0
  9  8  1  0  0  0  0
  9  4  2  0  0  0  0
 10  4  1  0  0  0  0
 12 13  1  0  0  0  0
 12 18  1  0  0  0  0
 13 14  2  0  0  0  0
 14 21  1  0  0  0  0
 14 15  1  0  0  0  0
 15 16  2  0  0  0  0
 17 15  1  0  0  0  0
 17 22  1  0  0  0  0
 18 17  1  0  0  0  0
 19 18  2  0  0  0  0
 20 13  1  0  0  0  0
 23 28  1  0  0  0  0
 23 25  1  0  0  0  0
 24 23  1  0  0  0  0
 26 31  1  0  0  0  0
 26 27  2  0  0  0  0
 28 26  1  0  0  0  0
 29 28  1  0  0  0  0
 30 31  2  0  0  0  0
 30 37  1  0  0  0  0
 31 32  1  0  0  0  0
 32 33  1  0  0  0  0
 32 34  2  0  0  0  0
 34 35  1  0  0  0  0
 36 34  1  0  0  0  0
 37 36  2  0  0  0  0
 38 39  1  0  0  0  0
 39 30  1  0  0  0  0
 39 40  2  0  0  0  0
 41 39  2  0  0  0  0
M  END
>  <minimizedAffinity>
-6.21326828

$$$$

 OpenBabel03242521193D

 41 43  0  0  0  0  0  0  0  0999 V2000
   36.1610   30.9430   40.9640 C   0  0  0  0  0  0  0  0  0  0  0  0
   35.3860   31.7520   40.9230 H   0  0  0  0  0  0  0  0  0  0  0  0
   36.6160   30.9870   41.9790 H   0  0  0  0  0  0  0  0  0  0  0  0
   38.2880   31.2750   37.8930 C   0  0  0  0  0  0  0  0  0  0  0  0
   39.3400   32.0590   38.4090 C   0  0  0  0  0  0  0  0  0  0  0  0
   39.2600   32.4220   39.7550 C   0  0  0  0  0  0  0  0  0  0  0  0
   38.1810   32.0010   40.4830 N   0  0  0  0  0  0  0  0  0  0  0  0
   37.2090   31.2590   39.9520 C   0  0  0  0  0  0  0  0  0  0  0  0
   37.2400   30.8790   38.6440 N   0  0  0  0  0  0  0  0  0  0  0  0
   38.3230   30.9820   36.8600 H   0  0  0  0  0  0  0  0  0  0  0  0
   40.1600   32.3570   37.7830 H   0  0  0  0  0  0  0  0  0  0  0  0
   40.3130   33.2150   40.2940 N   0  0  0  0  0  0  0  0  0  0  0  0
   40.2910   34.5470   40.0450 C   0  0  0  0  0  0  0  0  0  0  0  0
   41.3180   35.3330   40.5700 C   0  0  0  0  0  0  0  0  0  0  0  0
   42.2820   34.7180   41.3010 C   0  0  0  0  0  0  0  0  0  0  0  0
   43.2270   35.4410   41.7840 O   0  0  0  0  0  0  0  0  0  0  0  0
   42.3210   33.3910   41.5600 N   0  0  0  0  0  0  0  0  0  0  0  0
   41.2980   32.6860   41.0230 C   0  0  0  0  0  0  0  0  0  0  0  0
   41.2320   31.4510   41.1980 O   0  0  0  0  0  0  0  0  0  0  0  0
   39.5280   35.0220   39.4690 H   0  0  0  0  0  0  0  0  0  0  0  0
   41.3610   36.4100   40.4050 H   0  0  0  0  0  0  0  0  0  0  0  0
   43.0630   32.9130   42.1230 H   0  0  0  0  0  0  0  0  0  0  0  0
   35.5340   29.5890   40.6990 C   0  0  0  0  0  0  0  0  0  0  0  0
   35.6760   29.3390   39.6070 H   0  0  0  0  0  0  0  0  0  0  0  0
   34.4340   29.6520   40.8320 H   0  0  0  0  0  0  0  0  0  0  0  0
   36.9660   27.6490   40.9260 C   0  0  0  0  0  0  0  0  0  0  0  0
   37.0630   27.6470   39.6670 O   0  0  0  0  0  0  0  0  0  0  0  0
   36.1340   28.5910   41.5370 N   0  0  0  0  0  0  0  0  0  0  0  0
   35.9760   28.5410   42.5660 H   0  0  0  0  0  0  0  0  0  0  0  0
   38.9270   26.8040   42.3330 C   0  0  0  0  0  0  0  0  0  0  0  0
   37.7540   26.6440   41.6270 C   0  0  0  0  0  0  0  0  0  0  0  0
   37.1720   25.3750   41.5210 C   0  0  0  0  0  0  0  0  0  0  0  0
   36.2470   25.1420   40.9870 H   0  0  0  0  0  0  0  0  0  0  0  0
   37.7730   24.2770   42.1230 C   0  0  0  0  0  0  0  0  0  0  0  0
   37.3730   23.2730   42.0770 H   0  0  0  0  0  0  0  0  0  0  0  0
   38.9470   24.4570   42.8240 C   0  0  0  0  0  3  0  0  0  0  0  0
   39.5340   25.7220   42.9360 C   0  0  0  0  0  3  0  0  0  0  0  0
   39.8110   28.9440   41.1470 H   0  0  0  0  0  0  0  0  0  0  0  0
   39.5330   28.4460   42.3800 S   0  0  0  0  0  0  0  0  0  0  0  0
   40.8670   28.3620   43.1040 O   0  0  0  0  0  0  0  0  0  0  0  0
   38.6640   29.3380   43.2050 O   0  0  0  0  0  0  0  0  0  0  0  0
  1  3  1  0  0  0  0
  2  1  1  0  0  0  0
  4  5  2  0  0  0  0
  4  9  1  0  0  0  0
  5  6  1  0  0  0  0
  6 12  1  0  0  0  0
  6  7  2  0  0  0  0
  8  7  1  0  0  0  0
  8  1  1  0  0  0  0
  9  8  2  0  0  0  0
 10  4  1  0  0  0  0
 11  5  1  0  0  0  0
 12 18  1  0  0  0  0
 13 12  1  0  0  0  0
 13 14  2  0  0  0  0
 14 15  1  0  0  0  0
 15 17  1  0  0  0  0
 15 16  2  0  0  0  0
 17 22  1  0  0  0  0
 18 19  2  0  0  0  0
 18 17  1  0  0  0  0
 20 13  1  0  0  0  0
 21 14  1  0  0  0  0
 23 25  1  0  0  0  0
 23  1  1  0  0  0  0
 23 28  1  0  0  0  0
 24 23  1  0  0  0  0
 26 28  1  0  0  0  0
 26 31  1  0  0  0  0
 27 26  2  0  0  0  0
 28 29  1  0  0  0  0
 30 39  1  0  0  0  0
 30 37  1  0  0  0  0
 31 30  2  0  0  0  0
 32 31  1  0  0  0  0
 32 34  2  0  0  0  0
 33 32  1  0  0  0  0
 34 36  1  0  0  0  0
 35 34  1  0  0  0  0
 36 37  2  0  0  0  0
 38 39  1  0  0  0  0
 39 40  2  0  0  0  0
 39 41  2  0  0  0  0
M  END
>  <minimizedAffinity>
-6.2098732

$$$$

 OpenBabel03242521193D

 41 43  0  0  0  0  0  0  0  0999 V2000
   35.0430   29.2920   39.6480 C   0  0  0  0  0  0  0  0  0  0  0  0
   34.7870   28.2700   39.2630 H   0  0  0  0  0  0  0  0  0  0  0  0
   34.0970   29.8770   39.6580 H   0  0  0  0  0  0  0  0  0  0  0  0
   37.0590   30.3240   36.6590 C   0  0  0  0  0  0  0  0  0  0  0  0
   37.8600   31.3290   37.2400 C   0  0  0  0  0  0  0  0  0  0  0  0
   37.6660   31.5880   38.5980 C   0  0  0  0  0  0  0  0  0  0  0  0
   36.7230   30.8640   39.2750 N   0  0  0  0  0  0  0  0  0  0  0  0
   35.9880   29.9220   38.6830 C   0  0  0  0  0  0  0  0  0  0  0  0
   36.1400   29.6310   37.3600 N   0  0  0  0  0  0  0  0  0  0  0  0
   37.1880   30.1040   35.6160 H   0  0  0  0  0  0  0  0  0  0  0  0
   38.5840   31.8620   36.6540 H   0  0  0  0  0  0  0  0  0  0  0  0
   38.4650   32.6000   39.2030 N   0  0  0  0  0  0  0  0  0  0  0  0
   39.7600   32.3040   39.4740 C   0  0  0  0  0  0  0  0  0  0  0  0
   40.5510   33.2910   40.0660 C   0  0  0  0  0  0  0  0  0  0  0  0
   39.9790   34.4910   40.3370 C   0  0  0  0  0  0  0  0  0  0  0  0
   40.7070   35.3980   40.8810 O   0  0  0  0  0  0  0  0  0  0  0  0
   38.6900   34.8050   40.0730 N   0  0  0  0  0  0  0  0  0  0  0  0
   37.9770   33.8060   39.5000 C   0  0  0  0  0  0  0  0  0  0  0  0
   36.7740   33.9840   39.2130 O   0  0  0  0  0  0  0  0  0  0  0  0
   40.2010   31.3570   39.2580 H   0  0  0  0  0  0  0  0  0  0  0  0
   41.5990   33.1170   40.3130 H   0  0  0  0  0  0  0  0  0  0  0  0
   38.2450   35.7290   40.2800 H   0  0  0  0  0  0  0  0  0  0  0  0
   35.6520   29.2030   41.0320 C   0  0  0  0  0  0  0  0  0  0  0  0
   34.8490   28.8730   41.7540 H   0  0  0  0  0  0  0  0  0  0  0  0
   35.9450   30.2150   41.3800 H   0  0  0  0  0  0  0  0  0  0  0  0
   36.9480   27.5090   42.1790 C   0  0  0  0  0  0  0  0  0  0  0  0
   36.2300   27.7310   43.1940 O   0  0  0  0  0  0  0  0  0  0  0  0
   36.7530   28.2810   41.0320 N   0  0  0  0  0  0  0  0  0  0  0  0
   37.4010   28.1680   40.2240 H   0  0  0  0  0  0  0  0  0  0  0  0
   39.2740   26.5360   42.6110 C   0  0  0  0  0  0  0  0  0  0  0  0
   37.9310   26.4410   42.3160 C   0  0  0  0  0  0  0  0  0  0  0  0
   37.3510   25.1840   42.1030 C   0  0  0  0  0  0  0  0  0  0  0  0
   36.3000   25.0010   41.8640 H   0  0  0  0  0  0  0  0  0  0  0  0
   38.1240   24.0340   42.1880 C   0  0  0  0  0  0  0  0  0  0  0  0
   37.7350   23.0370   42.0350 H   0  0  0  0  0  0  0  0  0  0  0  0
   39.4660   24.1490   42.4850 C   0  0  0  0  0  3  0  0  0  0  0  0
   40.0530   25.4010   42.7000 C   0  0  0  0  0  3  0  0  0  0  0  0
   39.0010   28.9350   43.5800 H   0  0  0  0  0  0  0  0  0  0  0  0
   39.8550   28.1700   42.8520 S   0  0  0  0  0  0  0  0  0  0  0  0
   39.8920   28.7930   41.4660 O   0  0  0  0  0  0  0  0  0  0  0  0
   41.2620   28.1920   43.3590 O   0  0  0  0  0  0  0  0  0  0  0  0
  1  3  1  0  0  0  0
  1 23  1  0  0  0  0
  2  1  1  0  0  0  0
  4  5  2  0  0  0  0
  4  9  1  0  0  0  0
  5  6  1  0  0  0  0
  6 12  1  0  0  0  0
  6  7  2  0  0  0  0
  8  7  1  0  0  0  0
  8  1  1  0  0  0  0
  9  8  2  0  0  0  0
 10  4  1  0  0  0  0
 11  5  1  0  0  0  0
 12 13  1  0  0  0  0
 12 18  1  0  0  0  0
 13 14  2  0  0  0  0
 14 21  1  0  0  0  0
 14 15  1  0  0  0  0
 15 16  2  0  0  0  0
 17 22  1  0  0  0  0
 17 15  1  0  0  0  0
 18 17  1  0  0  0  0
 19 18  2  0  0  0  0
 20 13  1  0  0  0  0
 23 28  1  0  0  0  0
 23 25  1  0  0  0  0
 23 24  1  0  0  0  0
 26 31  1  0  0  0  0
 26 27  2  0  0  0  0
 28 26  1  0  0  0  0
 29 28  1  0  0  0  0
 30 37  1  0  0  0  0
 30 39  1  0  0  0  0
 31 30  2  0  0  0  0
 32 34  2  0  0  0  0
 32 31  1  0  0  0  0
 33 32  1  0  0  0  0
 34 36  1  0  0  0  0
 35 34  1  0  0  0  0
 36 37  2  0  0  0  0
 39 41  2  0  0  0  0
 39 38  1  0  0  0  0
 40 39  2  0  0  0  0
M  END
>  <minimizedAffinity>
-6.1238184

$$$$

 OpenBabel03242521193D

 41 43  0  0  0  0  0  0  0  0999 V2000
   37.6670   32.0840   40.1860 C   0  0  0  0  0  0  0  0  0  0  0  0
   36.6540   32.4040   39.8280 H   0  0  0  0  0  0  0  0  0  0  0  0
   37.5590   31.8260   41.2630 H   0  0  0  0  0  0  0  0  0  0  0  0
   39.3330   35.4430   40.2540 C   0  0  0  0  0  0  0  0  0  0  0  0
   40.5630   35.1180   39.6450 C   0  0  0  0  0  0  0  0  0  0  0  0
   40.7450   33.7900   39.2540 C   0  0  0  0  0  0  0  0  0  0  0  0
   39.7350   32.8960   39.4820 N   0  0  0  0  0  0  0  0  0  0  0  0
   38.5880   33.2500   40.0610 C   0  0  0  0  0  0  0  0  0  0  0  0
   38.3610   34.5330   40.4610 N   0  0  0  0  0  0  0  0  0  0  0  0
   39.1660   36.4580   40.5650 H   0  0  0  0  0  0  0  0  0  0  0  0
   41.3160   35.8680   39.4950 H   0  0  0  0  0  0  0  0  0  0  0  0
   41.9810   33.4420   38.6390 N   0  0  0  0  0  0  0  0  0  0  0  0
   43.1250   33.8100   39.2660 C   0  0  0  0  0  0  0  0  0  0  0  0
   44.3420   33.4720   38.6710 C   0  0  0  0  0  0  0  0  0  0  0  0
   44.3110   32.7930   37.4970 C   0  0  0  0  0  0  0  0  0  0  0  0
   45.4300   32.4820   36.9490 O   0  0  0  0  0  0  0  0  0  0  0  0
   43.1810   32.4160   36.8560 N   0  0  0  0  0  0  0  0  0  0  0  0
   42.0360   32.7740   37.4840 C   0  0  0  0  0  0  0  0  0  0  0  0
   40.9310   32.4790   36.9830 O   0  0  0  0  0  0  0  0  0  0  0  0
   43.1390   34.3450   40.1900 H   0  0  0  0  0  0  0  0  0  0  0  0
   45.2980   33.7410   39.1220 H   0  0  0  0  0  0  0  0  0  0  0  0
   43.1520   31.8930   35.9510 H   0  0  0  0  0  0  0  0  0  0  0  0
   38.1680   30.9020   39.3830 C   0  0  0  0  0  0  0  0  0  0  0  0
   39.2820   30.8110   39.5400 H   0  0  0  0  0  0  0  0  0  0  0  0
   38.0530   31.1080   38.2990 H   0  0  0  0  0  0  0  0  0  0  0  0
   38.2780   28.5860   40.0850 C   0  0  0  0  0  0  0  0  0  0  0  0
   39.5230   28.6440   39.8780 O   0  0  0  0  0  0  0  0  0  0  0  0
   37.4920   29.7020   39.7890 N   0  0  0  0  0  0  0  0  0  0  0  0
   36.4550   29.6320   39.8690 H   0  0  0  0  0  0  0  0  0  0  0  0
   37.5340   26.9930   41.9420 C   0  0  0  0  0  0  0  0  0  0  0  0
   37.7810   27.3290   40.6280 C   0  0  0  0  0  0  0  0  0  0  0  0
   37.5500   26.3910   39.6130 C   0  0  0  0  0  0  0  0  0  0  0  0
   37.7130   26.5570   38.5460 H   0  0  0  0  0  0  0  0  0  0  0  0
   37.0730   25.1250   39.9270 C   0  0  0  0  0  0  0  0  0  0  0  0
   36.8750   24.3590   39.1900 H   0  0  0  0  0  0  0  0  0  0  0  0
   36.8320   24.8080   41.2470 C   0  0  0  0  0  3  0  0  0  0  0  0
   37.0600   25.7390   42.2660 C   0  0  0  0  0  3  0  0  0  0  0  0
   37.6670   29.5090   42.5890 H   0  0  0  0  0  0  0  0  0  0  0  0
   37.8690   28.2660   43.0970 S   0  0  0  0  0  0  0  0  0  0  0  0
   39.3590   28.1700   43.3810 O   0  0  0  0  0  0  0  0  0  0  0  0
   37.1780   28.0320   44.4010 O   0  0  0  0  0  0  0  0  0  0  0  0
  1  3  1  0  0  0  0
  2  1  1  0  0  0  0
  4  9  1  0  0  0  0
  4 10  1  0  0  0  0
  5  4  2  0  0  0  0
  6  7  2  0  0  0  0
  6  5  1  0  0  0  0
  7  8  1  0  0  0  0
  8  1  1  0  0  0  0
  8  9  2  0  0  0  0
 11  5  1  0  0  0  0
 12  6  1  0  0  0  0
 12 13  1  0  0  0  0
 13 20  1  0  0  0  0
 14 21  1  0  0  0  0
 14 13  2  0  0  0  0
 15 14  1  0  0  0  0
 16 15  2  0  0  0  0
 17 18  1  0  0  0  0
 17 15  1  0  0  0  0
 18 12  1  0  0  0  0
 19 18  2  0  0  0  0
 22 17  1  0  0  0  0
 23 24  1  0  0  0  0
 23 28  1  0  0  0  0
 23  1  1  0  0  0  0
 25 23  1  0  0  0  0
 26 31  1  0  0  0  0
 27 26  2  0  0  0  0
 28 29  1  0  0  0  0
 28 26  1  0  0  0  0
 30 37  1  0  0  0  0
 30 39  1  0  0  0  0
 31 30  2  0  0  0  0
 32 34  2  0  0  0  0
 32 31  1  0  0  0  0
 33 32  1  0  0  0  0
 34 36  1  0  0  0  0
 35 34  1  0  0  0  0
 36 37  2  0  0  0  0
 38 39  1  0  0  0  0
 39 40  2  0  0  0  0
 39 41  2  0  0  0  0
M  END
>  <minimizedAffinity>
-6.1201067

$$$$

 OpenBabel03242521193D

 41 43  0  0  0  0  0  0  0  0999 V2000
   37.6980   32.8220   40.2350 C   0  0  0  0  0  0  0  0  0  0  0  0
   36.7280   33.3490   40.0450 H   0  0  0  0  0  0  0  0  0  0  0  0
   37.6770   32.4840   41.2950 H   0  0  0  0  0  0  0  0  0  0  0  0
   39.9140   35.8480   40.2200 C   0  0  0  0  0  0  0  0  0  0  0  0
   41.0480   35.3170   39.5700 C   0  0  0  0  0  0  0  0  0  0  0  0
   40.9870   33.9770   39.1820 C   0  0  0  0  0  0  0  0  0  0  0  0
   39.8480   33.2680   39.4520 N   0  0  0  0  0  0  0  0  0  0  0  0
   38.7990   33.8140   40.0690 C   0  0  0  0  0  0  0  0  0  0  0  0
   38.8090   35.1170   40.4670 N   0  0  0  0  0  0  0  0  0  0  0  0
   39.9340   36.8760   40.5290 H   0  0  0  0  0  0  0  0  0  0  0  0
   41.9120   35.9270   39.3880 H   0  0  0  0  0  0  0  0  0  0  0  0
   42.1220   33.4220   38.5260 N   0  0  0  0  0  0  0  0  0  0  0  0
   43.3450   33.6810   39.0520 C   0  0  0  0  0  0  0  0  0  0  0  0
   44.4640   33.1400   38.4160 C   0  0  0  0  0  0  0  0  0  0  0  0
   44.2650   32.3860   37.3070 C   0  0  0  0  0  0  0  0  0  0  0  0
   45.2940   31.8890   36.7220 O   0  0  0  0  0  0  0  0  0  0  0  0
   43.0540   32.1160   36.7680 N   0  0  0  0  0  0  0  0  0  0  0  0
   42.0110   32.6690   37.4300 C   0  0  0  0  0  0  0  0  0  0  0  0
   40.8450   32.4860   37.0210 O   0  0  0  0  0  0  0  0  0  0  0  0
   43.4920   34.2770   39.9260 H   0  0  0  0  0  0  0  0  0  0  0  0
   45.4750   33.3130   38.7860 H   0  0  0  0  0  0  0  0  0  0  0  0
   42.8960   31.5340   35.9120 H   0  0  0  0  0  0  0  0  0  0  0  0
   37.8660   31.6530   39.2860 C   0  0  0  0  0  0  0  0  0  0  0  0
   38.7370   31.8730   38.6020 H   0  0  0  0  0  0  0  0  0  0  0  0
   36.9880   31.5870   38.6120 H   0  0  0  0  0  0  0  0  0  0  0  0
   36.9720   29.6490   40.3090 C   0  0  0  0  0  0  0  0  0  0  0  0
   35.8230   30.0790   40.0090 O   0  0  0  0  0  0  0  0  0  0  0  0
   38.0850   30.4420   40.0240 N   0  0  0  0  0  0  0  0  0  0  0  0
   39.0270   30.1360   40.3510 H   0  0  0  0  0  0  0  0  0  0  0  0
   37.0700   27.0930   40.3370 C   0  0  0  0  0  0  0  0  0  0  0  0
   37.0150   28.3340   40.9360 C   0  0  0  0  0  0  0  0  0  0  0  0
   36.9940   28.4330   42.3320 C   0  0  0  0  0  0  0  0  0  0  0  0
   36.9510   29.3640   42.9030 H   0  0  0  0  0  0  0  0  0  0  0  0
   37.0280   27.2870   43.1150 C   0  0  0  0  0  0  0  0  0  0  0  0
   37.0150   27.2990   44.1970 H   0  0  0  0  0  0  0  0  0  0  0  0
   37.0830   26.0550   42.4980 C   0  0  0  0  0  3  0  0  0  0  0  0
   37.1050   25.9470   41.1040 C   0  0  0  0  0  3  0  0  0  0  0  0
   37.5170   28.3150   38.0840 H   0  0  0  0  0  0  0  0  0  0  0  0
   37.0910   27.1270   38.5870 S   0  0  0  0  0  0  0  0  0  0  0  0
   35.6370   26.9950   38.1630 O   0  0  0  0  0  0  0  0  0  0  0  0
   37.8030   25.9440   38.0140 O   0  0  0  0  0  0  0  0  0  0  0  0
  1  3  1  0  0  0  0
  2  1  1  0  0  0  0
  4  9  1  0  0  0  0
  4 10  1  0  0  0  0
  5  4  2  0  0  0  0
  6  7  2  0  0  0  0
  6  5  1  0  0  0  0
  7  8  1  0  0  0  0
  8  1  1  0  0  0  0
  8  9  2  0  0  0  0
 11  5  1  0  0  0  0
 12 13  1  0  0  0  0
 12  6  1  0  0  0  0
 13 20  1  0  0  0  0
 14 21  1  0  0  0  0
 14 13  2  0  0  0  0
 15 14  1  0  0  0  0
 16 15  2  0  0  0  0
 17 15  1  0  0  0  0
 17 18  1  0  0  0  0
 18 12  1  0  0  0  0
 19 18  2  0  0  0  0
 22 17  1  0  0  0  0
 23 28  1  0  0  0  0
 23  1  1  0  0  0  0
 24 23  1  0  0  0  0
 25 23  1  0  0  0  0
 26 31  1  0  0  0  0
 27 26  2  0  0  0  0
 28 26  1  0  0  0  0
 28 29  1  0  0  0  0
 30 31  2  0  0  0  0
 30 37  1  0  0  0  0
 31 32  1  0  0  0  0
 32 33  1  0  0  0  0
 32 34  2  0  0  0  0
 34 35  1  0  0  0  0
 36 34  1  0  0  0  0
 37 36  2  0  0  0  0
 38 39  1  0  0  0  0
 39 30  1  0  0  0  0
 40 39  2  0  0  0  0
 41 39  2  0  0  0  0
M  END
>  <minimizedAffinity>
-6.11871529

$$$$

 OpenBabel03242521193D

 41 43  0  0  0  0  0  0  0  0999 V2000
   37.0440   32.2110   39.4350 C   0  0  0  0  0  0  0  0  0  0  0  0
   36.4290   32.6630   38.6140 H   0  0  0  0  0  0  0  0  0  0  0  0
   36.9810   32.9060   40.3020 H   0  0  0  0  0  0  0  0  0  0  0  0
   40.2710   31.5520   37.6420 C   0  0  0  0  0  0  0  0  0  0  0  0
   41.1540   32.3010   38.4460 C   0  0  0  0  0  0  0  0  0  0  0  0
   40.6020   32.9760   39.5360 C   0  0  0  0  0  0  0  0  0  0  0  0
   39.2550   32.8720   39.7570 N   0  0  0  0  0  0  0  0  0  0  0  0
   38.4580   32.1510   38.9680 C   0  0  0  0  0  0  0  0  0  0  0  0
   38.9490   31.4740   37.8920 N   0  0  0  0  0  0  0  0  0  0  0  0
   40.6690   31.0230   36.7950 H   0  0  0  0  0  0  0  0  0  0  0  0
   42.2030   32.3420   38.2190 H   0  0  0  0  0  0  0  0  0  0  0  0
   41.4780   33.7380   40.3600 N   0  0  0  0  0  0  0  0  0  0  0  0
   42.3250   33.0640   41.1760 C   0  0  0  0  0  0  0  0  0  0  0  0
   43.1880   33.8030   41.9860 C   0  0  0  0  0  0  0  0  0  0  0  0
   43.1320   35.1570   41.9110 C   0  0  0  0  0  0  0  0  0  0  0  0
   43.9260   35.8360   42.6560 O   0  0  0  0  0  0  0  0  0  0  0  0
   42.2960   35.8470   41.1030 N   0  0  0  0  0  0  0  0  0  0  0  0
   41.4850   35.0730   40.3440 C   0  0  0  0  0  0  0  0  0  0  0  0
   40.6700   35.6040   39.5600 O   0  0  0  0  0  0  0  0  0  0  0  0
   42.3620   31.9980   41.2290 H   0  0  0  0  0  0  0  0  0  0  0  0
   43.8920   33.3220   42.6670 H   0  0  0  0  0  0  0  0  0  0  0  0
   42.2490   36.8910   41.0420 H   0  0  0  0  0  0  0  0  0  0  0  0
   36.5260   30.8330   39.7930 C   0  0  0  0  0  0  0  0  0  0  0  0
   36.6350   30.1660   38.8890 H   0  0  0  0  0  0  0  0  0  0  0  0
   35.4330   30.8780   39.9800 H   0  0  0  0  0  0  0  0  0  0  0  0
   37.9930   29.1380   40.7090 C   0  0  0  0  0  0  0  0  0  0  0  0
   37.9020   28.5430   39.5980 O   0  0  0  0  0  0  0  0  0  0  0  0
   37.2540   30.3040   40.9120 N   0  0  0  0  0  0  0  0  0  0  0  0
   37.2500   30.7490   41.8550 H   0  0  0  0  0  0  0  0  0  0  0  0
   38.6420   27.4700   42.5360 C   0  0  0  0  0  0  0  0  0  0  0  0
   38.8860   28.5270   41.6860 C   0  0  0  0  0  0  0  0  0  0  0  0
   40.1360   29.1590   41.6990 C   0  0  0  0  0  0  0  0  0  0  0  0
   40.4290   30.0020   41.0690 H   0  0  0  0  0  0  0  0  0  0  0  0
   41.1290   28.7230   42.5660 C   0  0  0  0  0  0  0  0  0  0  0  0
   42.1130   29.1690   42.6230 H   0  0  0  0  0  0  0  0  0  0  0  0
   40.8660   27.6630   43.4090 C   0  0  0  0  0  3  0  0  0  0  0  0
   39.6210   27.0270   43.4010 C   0  0  0  0  0  3  0  0  0  0  0  0
   36.3590   27.2210   41.3120 H   0  0  0  0  0  0  0  0  0  0  0  0
   37.0370   26.7820   42.4050 S   0  0  0  0  0  0  0  0  0  0  0  0
   36.2730   27.3100   43.6070 O   0  0  0  0  0  0  0  0  0  0  0  0
   37.0550   25.2930   42.5410 O   0  0  0  0  0  0  0  0  0  0  0  0
  1 23  1  0  0  0  0
  1  3  1  0  0  0  0
  2  1  1  0  0  0  0
  4  9  2  0  0  0  0
  4  5  1  0  0  0  0
  5  6  2  0  0  0  0
  6  7  1  0  0  0  0
  6 12  1  0  0  0  0
  8  1  1  0  0  0  0
  8  7  2  0  0  0  0
  9  8  1  0  0  0  0
 10  4  1  0  0  0  0
 11  5  1  0  0  0  0
 12 13  1  0  0  0  0
 13 20  1  0  0  0  0
 13 14  2  0  0  0  0
 14 21  1  0  0  0  0
 15 14  1  0  0  0  0
 15 16  2  0  0  0  0
 17 15  1  0  0  0  0
 18 12  1  0  0  0  0
 18 17  1  0  0  0  0
 19 18  2  0  0  0  0
 22 17  1  0  0  0  0
 23 25  1  0  0  0  0
 23 28  1  0  0  0  0
 24 23  1  0  0  0  0
 26 28  1  0  0  0  0
 26 31  1  0  0  0  0
 27 26  2  0  0  0  0
 28 29  1  0  0  0  0
 30 37  1  0  0  0  0
 31 32  1  0  0  0  0
 31 30  2  0  0  0  0
 32 34  2  0  0  0  0
 33 32  1  0  0  0  0
 34 35  1  0  0  0  0
 34 36  1  0  0  0  0
 37 36  2  0  0  0  0
 38 39  1  0  0  0  0
 39 30  1  0  0  0  0
 39 41  2  0  0  0  0
 39 40  2  0  0  0  0
M  END
>  <minimizedAffinity>
-6.09970999

$$$$
