
 OpenBabel03242519403D

 32 33  0  0  0  0  0  0  0  0999 V2000
   47.6270   32.5640   41.3630 O   0  0  0  0  0  0  0  0  0  0  0  0
   46.6390   33.7420   41.1390 P   0  0  2  0  0  0  0  0  0  0  0  0
   45.2100   33.4320   42.0390 O   0  0  0  0  0  0  0  0  0  0  0  0
   44.4280   35.7960   44.6940 C   0  0  0  0  0  0  0  0  0  0  0  0
   44.5400   35.2280   43.4050 C   0  0  0  0  0  0  0  0  0  0  0  0
   45.1160   33.9510   43.3130 C   0  0  0  0  0  0  0  0  0  0  0  0
   45.5280   33.3380   44.4410 N   0  0  0  0  0  0  0  0  0  0  0  0
   45.4070   33.9090   45.6600 C   0  0  0  0  0  0  0  0  0  0  0  0
   44.8620   35.1270   45.8000 N   0  0  0  0  0  0  0  0  0  0  0  0
   43.9850   36.7740   44.7550 H   0  0  0  0  0  0  0  0  0  0  0  0
   44.1800   35.7950   42.5550 H   0  0  0  0  0  0  0  0  0  0  0  0
   45.7730   33.3240   46.5050 H   0  0  0  0  0  0  0  0  0  0  0  0
   46.2530   33.8170   39.5310 O   0  0  0  0  0  0  0  0  0  0  0  0
   45.2410   33.2240   38.8440 C   0  0  0  0  0  0  0  0  0  0  0  0
   45.2910   33.2890   37.4950 O   0  0  0  0  0  0  0  0  0  0  0  0
   42.7840   33.0790   39.0100 C   0  0  0  0  0  0  0  0  0  0  0  0
   43.9810   32.4510   38.8840 C   0  0  0  0  0  0  0  0  0  0  0  0
   43.9680   31.0690   38.7180 C   0  0  0  0  0  0  0  0  0  0  0  0
   44.9730   30.6040   38.6200 H   0  0  0  0  0  0  0  0  0  0  0  0
   42.9190   30.1970   38.6570 C   0  0  0  0  0  0  0  0  0  0  0  0
   43.0810   29.1450   38.5230 H   0  0  0  0  0  0  0  0  0  0  0  0
   41.7100   30.8240   38.7810 C   0  0  0  0  0  3  0  0  0  0  0  0
   41.6970   32.1860   38.9460 C   0  0  0  0  0  3  0  0  0  0  0  0
   41.1080   34.8320   39.7030 H   0  0  0  0  0  0  0  0  0  0  0  0
   42.4460   34.7420   39.2680 S   0  0  0  0  0  0  0  0  0  0  0  0
   43.2780   35.4220   40.3220 O   0  0  0  0  0  0  0  0  0  0  0  0
   42.4890   35.4910   37.9690 O   0  0  0  0  0  0  0  0  0  0  0  0
   47.3720   35.0940   41.7500 O   0  0  0  0  0  0  0  0  0  0  0  0
   48.6370   35.3020   41.2230 C   0  0  0  0  0  0  0  0  0  0  0  0
   49.1430   36.5520   41.5320 F   0  0  0  0  0  0  0  0  0  0  0  0
   49.4710   34.2910   41.5760 F   0  0  0  0  0  0  0  0  0  0  0  0
   48.4860   35.2750   39.8380 F   0  0  0  0  0  0  0  0  0  0  0  0
  2  1  2  1  0  0  0
  2 28  1  0  0  0  0
  2  3  1  0  0  0  0
  3  6  1  0  0  0  0
  4 10  1  0  0  0  0
  4  9  1  0  0  0  0
  5  4  2  0  0  0  0
  6  5  1  0  0  0  0
  6  7  2  0  0  0  0
  7  8  1  0  0  0  0
  8  9  2  0  0  0  0
  8 12  1  0  0  0  0
 11  5  1  0  0  0  0
 13  2  1  0  0  0  0
 14 17  1  0  0  0  0
 14 13  1  0  0  0  0
 15 14  2  0  0  0  0
 16 25  1  0  0  0  0
 17 16  2  0  0  0  0
 18 17  1  0  0  0  0
 19 18  1  0  0  0  0
 20 18  2  0  0  0  0
 20 22  1  0  0  0  0
 21 20  1  0  0  0  0
 22 23  2  0  0  0  0
 23 16  1  0  0  0  0
 25 24  1  0  0  0  0
 25 26  2  0  0  0  0
 27 25  2  0  0  0  0
 29 30  1  0  0  0  0
 29 31  1  0  0  0  0
 29 28  1  0  0  0  0
 32 29  1  0  0  0  0
M  END
>  <minimizedAffinity>
-5.02970695

>  <minimizedRMSD>
1.98201263

$$$$
