
 OpenBabel03242519403D

 32 33  0  0  0  0  0  0  0  0999 V2000
   48.2600   32.9430   41.4630 O   0  0  0  0  0  0  0  0  0  0  0  0
   47.2200   34.0590   41.1700 P   0  0  2  0  0  0  0  0  0  0  0  0
   45.7230   33.6080   41.8810 O   0  0  0  0  0  0  0  0  0  0  0  0
   44.4040   35.8380   44.4360 C   0  0  0  0  0  0  0  0  0  0  0  0
   44.7260   35.3080   43.1670 C   0  0  0  0  0  0  0  0  0  0  0  0
   45.4250   34.0910   43.1370 C   0  0  0  0  0  0  0  0  0  0  0  0
   45.7510   33.4970   44.3020 N   0  0  0  0  0  0  0  0  0  0  0  0
   45.4280   34.0310   45.5020 C   0  0  0  0  0  0  0  0  0  0  0  0
   44.7600   35.1910   45.5820 N   0  0  0  0  0  0  0  0  0  0  0  0
   43.8680   36.7700   44.4490 H   0  0  0  0  0  0  0  0  0  0  0  0
   44.4220   35.8560   42.2830 H   0  0  0  0  0  0  0  0  0  0  0  0
   45.7410   33.4660   46.3800 H   0  0  0  0  0  0  0  0  0  0  0  0
   47.0180   34.1830   39.5320 O   0  0  0  0  0  0  0  0  0  0  0  0
   47.7410   33.6410   38.5160 C   0  0  0  0  0  0  0  0  0  0  0  0
   48.2180   34.4890   37.5770 O   0  0  0  0  0  0  0  0  0  0  0  0
   47.5540   31.6050   37.1360 C   0  0  0  0  0  0  0  0  0  0  0  0
   48.3190   32.4310   37.8940 C   0  0  0  0  0  0  0  0  0  0  0  0
   49.6760   32.1360   37.9960 C   0  0  0  0  0  0  0  0  0  0  0  0
   50.2580   32.8420   38.6270 H   0  0  0  0  0  0  0  0  0  0  0  0
   50.4040   31.1200   37.4450 C   0  0  0  0  0  0  0  0  0  0  0  0
   51.4560   31.0320   37.6250 H   0  0  0  0  0  0  0  0  0  0  0  0
   49.6370   30.2860   36.6790 C   0  0  0  0  0  0  0  0  0  0  0  0
   48.2980   30.5550   36.5630 C   0  0  0  0  0  0  0  0  0  0  0  0
   45.5460   30.5180   36.0620 H   0  0  0  0  0  0  0  0  0  0  0  0
   45.8650   31.6520   36.8360 S   0  0  0  0  0  0  0  0  0  0  0  0
   44.9830   31.5900   38.0560 O   0  0  0  0  0  0  0  0  0  0  0  0
   45.5200   32.8290   35.9710 O   0  0  0  0  0  0  0  0  0  0  0  0
   47.7730   35.4280   41.9160 O   0  0  0  0  0  0  0  0  0  0  0  0
   49.0390   35.7950   41.4880 C   0  0  0  0  0  0  0  0  0  0  0  0
   49.4300   37.0280   41.9820 F   0  0  0  0  0  0  0  0  0  0  0  0
   49.9360   34.8110   41.7530 F   0  0  0  0  0  0  0  0  0  0  0  0
   48.9520   35.9410   40.1060 F   0  0  0  0  0  0  0  0  0  0  0  0
  2  1  2  1  0  0  0
  2  3  1  0  0  0  0
  2 28  1  0  0  0  0
  3  6  1  0  0  0  0
  4 10  1  0  0  0  0
  4  9  1  0  0  0  0
  5  4  2  0  0  0  0
  6  5  1  0  0  0  0
  6  7  2  0  0  0  0
  7  8  1  0  0  0  0
  8  9  2  0  0  0  0
  8 12  1  0  0  0  0
 11  5  1  0  0  0  0
 13  2  1  0  0  0  0
 14 13  1  0  0  0  0
 15 14  2  0  0  0  0
 16 17  1  0  0  0  0
 17 18  2  0  0  0  0
 17 14  1  0  0  0  0
 18 19  1  0  0  0  0
 20 21  1  0  0  0  0
 20 18  1  0  0  0  0
 22 20  2  0  0  0  0
 23 22  1  0  0  0  0
 23 16  2  0  0  0  0
 24 25  1  0  0  0  0
 25 16  1  0  0  0  0
 25 26  2  0  0  0  0
 27 25  2  0  0  0  0
 29 31  1  0  0  0  0
 29 28  1  0  0  0  0
 29 30  1  0  0  0  0
 32 29  1  0  0  0  0
M  END
>  <minimizedAffinity>
-5.28043175

>  <minimizedRMSD>
2.01712227

$$$$
