
 OpenBabel03242521163D

 41 43  0  0  0  0  0  0  0  0999 V2000
   46.5730   32.7000   46.5200 C   0  0  0  0  0  0  0  0  0  0  0  0
   47.5110   33.1260   46.9610 H   0  0  0  0  0  0  0  0  0  0  0  0
   46.8770   31.8230   45.9060 H   0  0  0  0  0  0  0  0  0  0  0  0
   44.5880   35.4720   44.9580 C   0  0  0  0  0  0  0  0  0  0  0  0
   45.1620   35.4880   43.6700 C   0  0  0  0  0  0  0  0  0  0  0  0
   46.1780   34.5640   43.4170 C   0  0  0  0  0  0  0  0  0  0  0  0
   46.5510   33.7110   44.4200 N   0  0  0  0  0  0  0  0  0  0  0  0
   45.9770   33.7320   45.6230 C   0  0  0  0  0  0  0  0  0  0  0  0
   44.9820   34.6140   45.9200 N   0  0  0  0  0  0  0  0  0  0  0  0
   43.8040   36.1730   45.1800 H   0  0  0  0  0  0  0  0  0  0  0  0
   44.8240   36.1840   42.9270 H   0  0  0  0  0  0  0  0  0  0  0  0
   46.7720   34.5660   42.1230 N   0  0  0  0  0  0  0  0  0  0  0  0
   47.9610   35.2000   41.9740 C   0  0  0  0  0  0  0  0  0  0  0  0
   48.5510   35.2060   40.7090 C   0  0  0  0  0  0  0  0  0  0  0  0
   47.9010   34.5750   39.6990 C   0  0  0  0  0  0  0  0  0  0  0  0
   48.4440   34.5810   38.5350 O   0  0  0  0  0  0  0  0  0  0  0  0
   46.7160   33.9370   39.8280 N   0  0  0  0  0  0  0  0  0  0  0  0
   46.1960   33.9680   41.0780 C   0  0  0  0  0  0  0  0  0  0  0  0
   45.1040   33.4100   41.3130 O   0  0  0  0  0  0  0  0  0  0  0  0
   48.4650   35.6940   42.7760 H   0  0  0  0  0  0  0  0  0  0  0  0
   49.5050   35.7000   40.5210 H   0  0  0  0  0  0  0  0  0  0  0  0
   46.2110   33.4490   39.0510 H   0  0  0  0  0  0  0  0  0  0  0  0
   45.6030   32.3000   47.6130 C   0  0  0  0  0  0  0  0  0  0  0  0
   44.9010   33.1640   47.8000 H   0  0  0  0  0  0  0  0  0  0  0  0
   46.1490   32.1680   48.5700 H   0  0  0  0  0  0  0  0  0  0  0  0
   45.5010   29.8880   47.4190 C   0  0  0  0  0  0  0  0  0  0  0  0
   46.7000   29.8640   47.8130 O   0  0  0  0  0  0  0  0  0  0  0  0
   44.8780   31.1230   47.2270 N   0  0  0  0  0  0  0  0  0  0  0  0
   43.9210   31.1530   46.8140 H   0  0  0  0  0  0  0  0  0  0  0  0
   44.3670   28.0600   46.0370 C   0  0  0  0  0  0  0  0  0  0  0  0
   44.8760   28.5890   47.2030 C   0  0  0  0  0  0  0  0  0  0  0  0
   44.8270   27.8440   48.3880 C   0  0  0  0  0  0  0  0  0  0  0  0
   45.2020   28.1710   49.3620 H   0  0  0  0  0  0  0  0  0  0  0  0
   44.2670   26.5730   48.3920 C   0  0  0  0  0  0  0  0  0  0  0  0
   44.2010   25.9490   49.2730 H   0  0  0  0  0  0  0  0  0  0  0  0
   43.7630   26.0600   47.2150 C   0  0  0  0  0  3  0  0  0  0  0  0
   43.8080   26.7970   46.0280 C   0  0  0  0  0  3  0  0  0  0  0  0
   44.4650   30.4260   44.9610 H   0  0  0  0  0  0  0  0  0  0  0  0
   44.4990   29.1060   44.6400 S   0  0  0  0  0  0  0  0  0  0  0  0
   43.2460   28.8460   43.8210 O   0  0  0  0  0  0  0  0  0  0  0  0
   45.6540   28.7300   43.7700 O   0  0  0  0  0  0  0  0  0  0  0  0
  1  2  1  0  0  0  0
  1 23  1  0  0  0  0
  3  1  1  0  0  0  0
  4 10  1  0  0  0  0
  4  9  1  0  0  0  0
  5  4  2  0  0  0  0
  6  5  1  0  0  0  0
  6  7  2  0  0  0  0
  7  8  1  0  0  0  0
  8  9  2  0  0  0  0
  8  1  1  0  0  0  0
 11  5  1  0  0  0  0
 12  6  1  0  0  0  0
 13 12  1  0  0  0  0
 13 20  1  0  0  0  0
 14 13  2  0  0  0  0
 15 17  1  0  0  0  0
 15 14  1  0  0  0  0
 16 15  2  0  0  0  0
 17 18  1  0  0  0  0
 18 19  2  0  0  0  0
 18 12  1  0  0  0  0
 21 14  1  0  0  0  0
 22 17  1  0  0  0  0
 23 24  1  0  0  0  0
 23 25  1  0  0  0  0
 26 27  2  0  0  0  0
 28 26  1  0  0  0  0
 28 23  1  0  0  0  0
 29 28  1  0  0  0  0
 30 31  1  0  0  0  0
 31 26  1  0  0  0  0
 31 32  2  0  0  0  0
 32 34  1  0  0  0  0
 32 33  1  0  0  0  0
 34 35  1  0  0  0  0
 36 34  2  0  0  0  0
 37 30  2  0  0  0  0
 37 36  1  0  0  0  0
 39 38  1  0  0  0  0
 39 30  1  0  0  0  0
 40 39  2  0  0  0  0
 41 39  2  0  0  0  0
M  END
>  <minimizedAffinity>
-6.3104701

>  <minimizedRMSD>
2.37956333

$$$$
