
 OpenBabel03242521163D

 41 43  0  0  0  0  0  0  0  0999 V2000
   46.5890   32.6610   46.4980 C   0  0  0  0  0  0  0  0  0  0  0  0
   47.5130   33.0920   46.9630 H   0  0  0  0  0  0  0  0  0  0  0  0
   46.9160   31.8010   45.8730 H   0  0  0  0  0  0  0  0  0  0  0  0
   44.6060   35.4490   44.9610 C   0  0  0  0  0  0  0  0  0  0  0  0
   45.1800   35.4760   43.6730 C   0  0  0  0  0  0  0  0  0  0  0  0
   46.1950   34.5530   43.4120 C   0  0  0  0  0  0  0  0  0  0  0  0
   46.5670   33.6900   44.4070 N   0  0  0  0  0  0  0  0  0  0  0  0
   45.9940   33.7020   45.6100 C   0  0  0  0  0  0  0  0  0  0  0  0
   45.0000   34.5830   45.9150 N   0  0  0  0  0  0  0  0  0  0  0  0
   43.8230   36.1490   45.1890 H   0  0  0  0  0  0  0  0  0  0  0  0
   44.8420   36.1790   42.9360 H   0  0  0  0  0  0  0  0  0  0  0  0
   46.7870   34.5650   42.1170 N   0  0  0  0  0  0  0  0  0  0  0  0
   47.9760   35.2010   41.9730 C   0  0  0  0  0  0  0  0  0  0  0  0
   48.5650   35.2170   40.7070 C   0  0  0  0  0  0  0  0  0  0  0  0
   47.9150   34.5950   39.6920 C   0  0  0  0  0  0  0  0  0  0  0  0
   48.4570   34.6090   38.5290 O   0  0  0  0  0  0  0  0  0  0  0  0
   46.7300   33.9540   39.8170 N   0  0  0  0  0  0  0  0  0  0  0  0
   46.2120   33.9750   41.0680 C   0  0  0  0  0  0  0  0  0  0  0  0
   45.1190   33.4150   41.2990 O   0  0  0  0  0  0  0  0  0  0  0  0
   48.4800   35.6890   42.7770 H   0  0  0  0  0  0  0  0  0  0  0  0
   49.5190   35.7130   40.5220 H   0  0  0  0  0  0  0  0  0  0  0  0
   46.2250   33.4730   39.0370 H   0  0  0  0  0  0  0  0  0  0  0  0
   45.6070   32.2270   47.5660 C   0  0  0  0  0  0  0  0  0  0  0  0
   44.8880   33.0770   47.7560 H   0  0  0  0  0  0  0  0  0  0  0  0
   46.1370   32.0860   48.5300 H   0  0  0  0  0  0  0  0  0  0  0  0
   45.4570   29.8110   47.4910 C   0  0  0  0  0  0  0  0  0  0  0  0
   46.5890   29.7820   48.0510 O   0  0  0  0  0  0  0  0  0  0  0  0
   44.9060   31.0460   47.1460 N   0  0  0  0  0  0  0  0  0  0  0  0
   44.0170   31.0750   46.6010 H   0  0  0  0  0  0  0  0  0  0  0  0
   44.2870   28.0160   46.0950 C   0  0  0  0  0  0  0  0  0  0  0  0
   44.8290   28.5160   47.2600 C   0  0  0  0  0  0  0  0  0  0  0  0
   44.8150   27.7400   48.4250 C   0  0  0  0  0  0  0  0  0  0  0  0
   45.2170   28.0430   49.3960 H   0  0  0  0  0  0  0  0  0  0  0  0
   44.2580   26.4690   48.4110 C   0  0  0  0  0  0  0  0  0  0  0  0
   44.2180   25.8220   49.2770 H   0  0  0  0  0  0  0  0  0  0  0  0
   43.7210   25.9840   47.2370 C   0  0  0  0  0  3  0  0  0  0  0  0
   43.7300   26.7530   46.0690 C   0  0  0  0  0  3  0  0  0  0  0  0
   43.5750   30.1880   44.8520 H   0  0  0  0  0  0  0  0  0  0  0  0
   44.3780   29.0980   44.7220 S   0  0  0  0  0  0  0  0  0  0  0  0
   43.8190   28.3100   43.5490 O   0  0  0  0  0  0  0  0  0  0  0  0
   45.7900   29.4330   44.3680 O   0  0  0  0  0  0  0  0  0  0  0  0
  1  2  1  0  0  0  0
  1 23  1  0  0  0  0
  3  1  1  0  0  0  0
  4 10  1  0  0  0  0
  4  9  1  0  0  0  0
  5  4  2  0  0  0  0
  6  5  1  0  0  0  0
  6  7  2  0  0  0  0
  7  8  1  0  0  0  0
  8  9  2  0  0  0  0
  8  1  1  0  0  0  0
 11  5  1  0  0  0  0
 12  6  1  0  0  0  0
 13 12  1  0  0  0  0
 13 20  1  0  0  0  0
 14 13  2  0  0  0  0
 15 17  1  0  0  0  0
 15 14  1  0  0  0  0
 16 15  2  0  0  0  0
 17 18  1  0  0  0  0
 18 19  2  0  0  0  0
 18 12  1  0  0  0  0
 21 14  1  0  0  0  0
 22 17  1  0  0  0  0
 23 24  1  0  0  0  0
 23 25  1  0  0  0  0
 26 27  2  0  0  0  0
 28 26  1  0  0  0  0
 28 23  1  0  0  0  0
 29 28  1  0  0  0  0
 30 31  1  0  0  0  0
 31 26  1  0  0  0  0
 31 32  2  0  0  0  0
 32 33  1  0  0  0  0
 34 32  1  0  0  0  0
 34 35  1  0  0  0  0
 36 34  2  0  0  0  0
 37 30  2  0  0  0  0
 37 36  1  0  0  0  0
 39 38  1  0  0  0  0
 39 30  1  0  0  0  0
 40 39  2  0  0  0  0
 41 39  2  0  0  0  0
M  END
>  <minimizedAffinity>
-6.29523182

>  <minimizedRMSD>
1.67287874

$$$$
