
 OpenBabel03242520193D

 38 40  0  0  0  0  0  0  0  0999 V2000
   40.8640   35.6450   39.3430 C   0  0  0  0  0  0  0  0  0  0  0  0
   40.6320   35.3400   38.2950 H   0  0  0  0  0  0  0  0  0  0  0  0
   40.9600   36.7480   39.4470 H   0  0  0  0  0  0  0  0  0  0  0  0
   43.9170   34.6490   41.3350 C   0  0  0  0  0  0  0  0  0  0  0  0
   42.6880   35.2570   40.9930 C   0  0  0  0  0  0  0  0  0  0  0  0
   42.1620   35.0270   39.7310 C   0  0  0  0  0  0  0  0  0  0  0  0
   42.8700   34.2170   38.8850 N   0  0  0  0  0  0  0  0  0  0  0  0
   44.0450   33.6580   39.2620 C   0  0  0  0  0  0  0  0  0  0  0  0
   44.5600   33.8700   40.4700 N   0  0  0  0  0  0  0  0  0  0  0  0
   42.1950   35.8860   41.7300 H   0  0  0  0  0  0  0  0  0  0  0  0
   44.6210   33.0150   38.6120 H   0  0  0  0  0  0  0  0  0  0  0  0
   44.4760   34.9100   42.6900 C   0  0  0  0  0  0  0  0  0  0  0  0
   45.9930   35.2860   42.6330 C   0  0  0  0  0  0  0  0  0  0  0  0
   44.9310   36.1770   43.1400 C   0  0  0  0  0  0  0  0  0  0  0  0
   44.2290   34.0980   43.3980 H   0  0  0  0  0  0  0  0  0  0  0  0
   46.4350   35.4620   41.6410 H   0  0  0  0  0  0  0  0  0  0  0  0
   46.6010   34.7620   43.4040 H   0  0  0  0  0  0  0  0  0  0  0  0
   44.8420   36.4240   44.2350 H   0  0  0  0  0  0  0  0  0  0  0  0
   44.7280   37.0880   42.5140 H   0  0  0  0  0  0  0  0  0  0  0  0
   39.7480   35.1580   40.2360 C   0  0  0  0  0  0  0  0  0  0  0  0
   40.1130   35.1310   41.2580 H   0  0  0  0  0  0  0  0  0  0  0  0
   38.9190   35.9210   40.1710 H   0  0  0  0  0  0  0  0  0  0  0  0
   39.3920   32.7940   40.6110 C   0  0  0  0  0  0  0  0  0  0  0  0
   40.0860   32.7040   41.6510 O   0  0  0  0  0  0  0  0  0  0  0  0
   39.1930   33.9030   39.7570 N   0  0  0  0  0  0  0  0  0  0  0  0
   38.7000   33.8490   38.8700 H   0  0  0  0  0  0  0  0  0  0  0  0
   38.6920   30.8060   39.0810 C   0  0  0  0  0  0  0  0  0  0  0  0
   38.6700   31.5590   40.2110 C   0  0  0  0  0  0  0  0  0  0  0  0
   37.8350   31.1930   41.2750 C   0  0  0  0  0  0  0  0  0  0  0  0
   37.6950   31.6820   42.2480 H   0  0  0  0  0  0  0  0  0  0  0  0
   37.0230   30.0610   41.1870 C   0  0  0  0  0  0  0  0  0  0  0  0
   36.3540   29.7140   41.9610 H   0  0  0  0  0  0  0  0  0  0  0  0
   37.0690   29.3190   40.0260 C   0  0  0  0  0  3  0  0  0  0  0  0
   37.8960   29.6890   38.9850 C   0  0  0  0  0  3  0  0  0  0  0  0
   39.4120   32.6420   37.3890 H   0  0  0  0  0  0  0  0  0  0  0  0
   39.8000   31.4460   37.8880 S   0  0  0  0  0  0  0  0  0  0  0  0
   39.8260   30.4690   36.7340 O   0  0  0  0  0  0  0  0  0  0  0  0
   41.1950   31.4850   38.4350 O   0  0  0  0  0  0  0  0  0  0  0  0
  1  3  1  0  0  0  0
  1  6  1  0  0  0  0
  1 20  1  0  0  0  0
  2  1  1  0  0  0  0
  4 12  1  0  0  0  0
  5  4  1  0  0  0  0
  5 10  1  0  0  0  0
  6  5  2  0  0  0  0
  7  8  2  0  0  0  0
  7  6  1  0  0  0  0
  8  9  1  0  0  0  0
  9  4  2  0  0  0  0
 11  8  1  0  0  0  0
 12 14  1  0  0  0  0
 12 15  1  0  0  0  0
 13 12  1  0  0  0  0
 13 14  1  0  0  0  0
 13 17  1  0  0  0  0
 14 18  1  0  0  0  0
 16 13  1  0  0  0  0
 19 14  1  0  0  0  0
 20 21  1  0  0  0  0
 22 20  1  0  0  0  0
 23 24  2  0  0  0  0
 25 20  1  0  0  0  0
 25 23  1  0  0  0  0
 26 25  1  0  0  0  0
 27 28  1  0  0  0  0
 28 23  1  0  0  0  0
 28 29  2  0  0  0  0
 29 30  1  0  0  0  0
 31 29  1  0  0  0  0
 31 32  1  0  0  0  0
 33 31  2  0  0  0  0
 34 27  2  0  0  0  0
 34 33  1  0  0  0  0
 35 36  1  0  0  0  0
 36 38  2  0  0  0  0
 36 27  1  0  0  0  0
 37 36  2  0  0  0  0
M  END
>  <minimizedAffinity>
-5.13772011

>  <minimizedRMSD>
1.02488053

$$$$
