
 OpenBabel03242510503D

 25 26  0  0  0  0  0  0  0  0999 V2000
   44.8670   35.9250   43.4320 C   0  0  0  0  0  0  0  0  0  0  0  0
   44.2860   35.6560   42.1850 C   0  0  0  0  0  0  0  0  0  0  0  0
   44.5880   34.4240   41.5730 C   0  0  0  0  0  0  0  0  0  0  0  0
   45.4280   33.5550   42.2210 N   0  0  0  0  0  0  0  0  0  0  0  0
   45.9640   33.8610   43.4240 C   0  0  0  0  0  0  0  0  0  0  0  0
   45.6770   35.0520   44.0230 N   0  0  0  0  0  0  0  0  0  0  0  0
   47.3570   31.8950   43.2070 C   0  0  0  0  0  0  0  0  0  0  0  0
   47.1250   31.7550   41.9810 O   0  0  0  0  0  0  0  0  0  0  0  0
   46.8290   32.9130   44.0390 N   0  0  0  0  0  0  0  0  0  0  0  0
   44.7070   36.8400   43.9950 H   0  0  0  0  0  0  0  0  0  0  0  0
   43.6390   36.4080   41.7610 H   0  0  0  0  0  0  0  0  0  0  0  0
   44.1370   34.2210   40.6120 H   0  0  0  0  0  0  0  0  0  0  0  0
   47.0050   33.0520   45.0540 H   0  0  0  0  0  0  0  0  0  0  0  0
   47.9600   30.2860   45.0230 C   0  0  0  0  0  0  0  0  0  0  0  0
   48.2630   30.9000   43.8170 C   0  0  0  0  0  0  0  0  0  0  0  0
   49.4370   30.5460   43.2130 C   0  0  0  0  0  0  0  0  0  0  0  0
   49.7710   30.9580   42.2710 H   0  0  0  0  0  0  0  0  0  0  0  0
   50.3470   29.6270   43.7040 C   0  0  0  0  0  0  0  0  0  0  0  0
   51.2720   29.3490   43.2210 H   0  0  0  0  0  0  0  0  0  0  0  0
   50.0280   29.0250   44.9100 C   0  0  0  0  0  3  0  0  0  0  0  0
   48.8560   29.3530   45.5500 C   0  0  0  0  0  3  0  0  0  0  0  0
   46.3720   32.0090   46.1730 H   0  0  0  0  0  0  0  0  0  0  0  0
   46.4620   30.6910   45.8560 S   0  0  0  0  0  0  0  0  0  0  0  0
   46.5260   29.9500   47.1880 O   0  0  0  0  0  0  0  0  0  0  0  0
   45.2560   30.1580   45.1360 O   0  0  0  0  0  0  0  0  0  0  0  0
  1 10  1  0  0  0  0
  1  6  1  0  0  0  0
  2  1  2  0  0  0  0
  3  2  1  0  0  0  0
  3  4  2  0  0  0  0
  4  5  1  0  0  0  0
  5  6  2  0  0  0  0
  5  9  1  0  0  0  0
  7 15  1  0  0  0  0
  7  9  1  0  0  0  0
  8  7  2  0  0  0  0
  9 13  1  0  0  0  0
 11  2  1  0  0  0  0
 12  3  1  0  0  0  0
 14 21  1  0  0  0  0
 14 23  1  0  0  0  0
 15 14  2  0  0  0  0
 16 18  2  0  0  0  0
 16 15  1  0  0  0  0
 17 16  1  0  0  0  0
 18 20  1  0  0  0  0
 19 18  1  0  0  0  0
 20 21  2  0  0  0  0
 23 22  1  0  0  0  0
 23 24  2  0  0  0  0
 25 23  2  0  0  0  0
M  END
>  <minimizedAffinity>
-3.34756804

>  <minimizedRMSD>
4.47696877

$$$$
