
 OpenBabel03252501323D

 27 28  0  0  0  0  0  0  0  0999 V2000
   44.5450   34.1730   40.8870 C   0  0  0  0  0  0  0  0  0  0  0  0
   43.7890   33.3950   41.5460 O   0  0  0  0  0  0  0  0  0  0  0  0
   43.8020   35.0450   40.0270 N   0  0  0  0  0  0  0  0  0  0  0  0
   44.2450   35.7370   39.4030 H   0  0  0  0  0  0  0  0  0  0  0  0
   42.3860   34.7730   40.2010 C   0  0  0  0  0  0  0  0  0  0  0  0
   41.6590   33.8260   39.5090 C   0  0  0  0  0  0  0  0  0  0  0  0
   40.3110   33.7170   39.8210 C   0  0  0  0  0  0  0  0  0  0  0  0
   39.8070   34.5270   40.7640 N   0  0  0  0  0  0  0  0  0  0  0  0
   40.5500   35.4460   41.4240 C   0  0  0  0  0  0  0  0  0  0  0  0
   41.8510   35.5830   41.1530 N   0  0  0  0  0  0  0  0  0  0  0  0
   39.7620   32.9680   39.2650 H   0  0  0  0  0  0  0  0  0  0  0  0
   40.0190   36.0380   42.1630 H   0  0  0  0  0  0  0  0  0  0  0  0
   42.3770   33.0700   38.5590 N   0  0  0  0  0  0  0  0  0  0  0  0
   43.0950   33.4960   37.9430 H   0  0  0  0  0  0  0  0  0  0  0  0
   42.2820   32.0380   38.3610 H   0  0  0  0  0  0  0  0  0  0  0  0
   46.8510   33.5770   40.0640 C   0  0  0  0  0  0  0  0  0  0  0  0
   46.0120   34.2590   40.9200 C   0  0  0  0  0  0  0  0  0  0  0  0
   46.4950   35.1040   41.9060 C   0  0  0  0  0  0  0  0  0  0  0  0
   45.8920   35.6560   42.5950 H   0  0  0  0  0  0  0  0  0  0  0  0
   47.8750   35.2800   42.0480 C   0  0  0  0  0  0  0  0  0  0  0  0
   48.3150   35.9350   42.8110 H   0  0  0  0  0  0  0  0  0  0  0  0
   48.6920   34.5920   41.1890 C   0  0  0  0  0  0  0  0  0  0  0  0
   48.2290   33.7420   40.1940 C   0  0  0  0  0  0  0  0  0  0  0  0
   45.2740   31.6180   39.4300 H   0  0  0  0  0  0  0  0  0  0  0  0
   46.1120   32.5470   38.8690 S   0  0  0  0  0  0  0  0  0  0  0  0
   45.4130   33.3950   37.8520 O   0  0  0  0  0  0  0  0  0  0  0  0
   47.2330   31.7970   38.1870 O   0  0  0  0  0  0  0  0  0  0  0  0
  1 17  1  0  0  0  0
  1  2  2  0  0  0  0
  3  5  1  0  0  0  0
  3  1  1  0  0  0  0
  4  3  1  0  0  0  0
  5 10  1  0  0  0  0
  6  7  1  0  0  0  0
  6  5  2  0  0  0  0
  7  8  2  0  0  0  0
  8  9  1  0  0  0  0
  9 12  1  0  0  0  0
 10  9  2  0  0  0  0
 11  7  1  0  0  0  0
 13  6  1  0  0  0  0
 14 13  1  0  0  0  0
 15 13  1  0  0  0  0
 16 23  2  0  0  0  0
 16 17  1  0  0  0  0
 17 18  2  0  0  0  0
 18 20  1  0  0  0  0
 18 19  1  0  0  0  0
 20 21  1  0  0  0  0
 22 20  2  0  0  0  0
 23 22  1  0  0  0  0
 25 24  1  0  0  0  0
 25 16  1  0  0  0  0
 26 25  2  0  0  0  0
 27 25  2  0  0  0  0
M  END
>  <minimizedAffinity>
-4.64996099

>  <minimizedRMSD>
6.61324453

$$$$
