
 OpenBabel03242520193D

 38 40  0  0  0  0  0  0  0  0999 V2000
   40.8600   35.6400   39.3990 C   0  0  0  0  0  0  0  0  0  0  0  0
   40.6530   35.3200   38.3500 H   0  0  0  0  0  0  0  0  0  0  0  0
   40.9390   36.7460   39.4910 H   0  0  0  0  0  0  0  0  0  0  0  0
   43.9110   34.7510   41.4430 C   0  0  0  0  0  0  0  0  0  0  0  0
   42.6820   35.3390   41.0690 C   0  0  0  0  0  0  0  0  0  0  0  0
   42.1570   35.0440   39.8200 C   0  0  0  0  0  0  0  0  0  0  0  0
   42.8670   34.1920   39.0180 N   0  0  0  0  0  0  0  0  0  0  0  0
   44.0420   33.6540   39.4250 C   0  0  0  0  0  0  0  0  0  0  0  0
   44.5560   33.9290   40.6210 N   0  0  0  0  0  0  0  0  0  0  0  0
   42.1880   36.0050   41.7710 H   0  0  0  0  0  0  0  0  0  0  0  0
   44.6190   32.9790   38.8100 H   0  0  0  0  0  0  0  0  0  0  0  0
   44.4680   35.0830   42.7840 C   0  0  0  0  0  0  0  0  0  0  0  0
   46.0130   35.3180   42.7320 C   0  0  0  0  0  0  0  0  0  0  0  0
   45.0270   36.3400   43.1320 C   0  0  0  0  0  0  0  0  0  0  0  0
   44.1380   34.3620   43.5540 H   0  0  0  0  0  0  0  0  0  0  0  0
   46.4860   35.3650   41.7390 H   0  0  0  0  0  0  0  0  0  0  0  0
   46.5590   34.8130   43.5600 H   0  0  0  0  0  0  0  0  0  0  0  0
   44.9410   36.6910   44.1990 H   0  0  0  0  0  0  0  0  0  0  0  0
   44.9160   37.2060   42.4240 H   0  0  0  0  0  0  0  0  0  0  0  0
   39.7330   35.1490   40.2750 C   0  0  0  0  0  0  0  0  0  0  0  0
   40.0840   35.1190   41.3020 H   0  0  0  0  0  0  0  0  0  0  0  0
   38.9040   35.9120   40.2010 H   0  0  0  0  0  0  0  0  0  0  0  0
   39.3760   32.7840   40.6390 C   0  0  0  0  0  0  0  0  0  0  0  0
   40.0570   32.6910   41.6870 O   0  0  0  0  0  0  0  0  0  0  0  0
   39.1860   33.8950   39.7850 N   0  0  0  0  0  0  0  0  0  0  0  0
   38.7040   33.8430   38.8920 H   0  0  0  0  0  0  0  0  0  0  0  0
   38.6940   30.8020   39.0910 C   0  0  0  0  0  0  0  0  0  0  0  0
   38.6610   31.5480   40.2250 C   0  0  0  0  0  0  0  0  0  0  0  0
   37.8190   31.1730   41.2790 C   0  0  0  0  0  0  0  0  0  0  0  0
   37.6700   31.6560   42.2550 H   0  0  0  0  0  0  0  0  0  0  0  0
   37.0110   30.0390   41.1800 C   0  0  0  0  0  0  0  0  0  0  0  0
   36.3380   29.6850   41.9460 H   0  0  0  0  0  0  0  0  0  0  0  0
   37.0690   29.3050   40.0150 C   0  0  0  0  0  3  0  0  0  0  0  0
   37.9020   29.6840   38.9810 C   0  0  0  0  0  3  0  0  0  0  0  0
   39.4240   32.6540   37.4200 H   0  0  0  0  0  0  0  0  0  0  0  0
   39.8090   31.4530   37.9100 S   0  0  0  0  0  0  0  0  0  0  0  0
   39.8410   30.4880   36.7470 O   0  0  0  0  0  0  0  0  0  0  0  0
   41.2020   31.4870   38.4650 O   0  0  0  0  0  0  0  0  0  0  0  0
  1  3  1  0  0  0  0
  1  6  1  0  0  0  0
  1 20  1  0  0  0  0
  2  1  1  0  0  0  0
  4 12  1  0  0  0  0
  5  4  1  0  0  0  0
  5 10  1  0  0  0  0
  6  5  2  0  0  0  0
  7  8  2  0  0  0  0
  7  6  1  0  0  0  0
  8  9  1  0  0  0  0
  9  4  2  0  0  0  0
 11  8  1  0  0  0  0
 12 14  1  0  0  0  0
 12 15  1  0  0  0  0
 13 12  1  0  0  0  0
 13 14  1  0  0  0  0
 13 17  1  0  0  0  0
 14 18  1  0  0  0  0
 16 13  1  0  0  0  0
 19 14  1  0  0  0  0
 20 21  1  0  0  0  0
 22 20  1  0  0  0  0
 23 24  2  0  0  0  0
 25 20  1  0  0  0  0
 25 23  1  0  0  0  0
 26 25  1  0  0  0  0
 27 28  1  0  0  0  0
 28 23  1  0  0  0  0
 28 29  2  0  0  0  0
 29 30  1  0  0  0  0
 31 29  1  0  0  0  0
 31 32  1  0  0  0  0
 33 31  2  0  0  0  0
 34 27  2  0  0  0  0
 34 33  1  0  0  0  0
 35 36  1  0  0  0  0
 36 38  2  0  0  0  0
 36 27  1  0  0  0  0
 37 36  2  0  0  0  0
M  END
>  <minimizedAffinity>
-5.17446041

>  <minimizedRMSD>
1.07709944

$$$$
