
 OpenBabel03242510503D

 25 26  0  0  0  0  0  0  0  0999 V2000
   44.9790   36.2050   43.1390 C   0  0  0  0  0  0  0  0  0  0  0  0
   46.1000   35.9120   42.3500 C   0  0  0  0  0  0  0  0  0  0  0  0
   46.8610   34.7770   42.6900 C   0  0  0  0  0  0  0  0  0  0  0  0
   46.4730   34.0200   43.7650 N   0  0  0  0  0  0  0  0  0  0  0  0
   45.3830   34.3450   44.4970 C   0  0  0  0  0  0  0  0  0  0  0  0
   44.6400   35.4420   44.1740 N   0  0  0  0  0  0  0  0  0  0  0  0
   46.0420   32.6400   46.0800 C   0  0  0  0  0  0  0  0  0  0  0  0
   47.2030   32.5280   45.6140 O   0  0  0  0  0  0  0  0  0  0  0  0
   45.0390   33.5160   45.6010 N   0  0  0  0  0  0  0  0  0  0  0  0
   44.3200   37.0520   42.9720 H   0  0  0  0  0  0  0  0  0  0  0  0
   46.3190   36.5720   41.5260 H   0  0  0  0  0  0  0  0  0  0  0  0
   47.7250   34.5540   42.0780 H   0  0  0  0  0  0  0  0  0  0  0  0
   44.0720   33.6290   45.9670 H   0  0  0  0  0  0  0  0  0  0  0  0
   45.4230   30.4250   47.0620 C   0  0  0  0  0  0  0  0  0  0  0  0
   45.7150   31.7710   47.2290 C   0  0  0  0  0  0  0  0  0  0  0  0
   45.6890   32.2610   48.5040 C   0  0  0  0  0  0  0  0  0  0  0  0
   45.9030   33.2930   48.7520 H   0  0  0  0  0  0  0  0  0  0  0  0
   45.3960   31.5290   49.6400 C   0  0  0  0  0  0  0  0  0  0  0  0
   45.3780   31.9220   50.6460 H   0  0  0  0  0  0  0  0  0  0  0  0
   45.1050   30.1890   49.4540 C   0  0  0  0  0  0  0  0  0  0  0  0
   45.1210   29.6540   48.1860 C   0  0  0  0  0  0  0  0  0  0  0  0
   45.0940   30.6100   44.4790 H   0  0  0  0  0  0  0  0  0  0  0  0
   45.4410   29.7230   45.4460 S   0  0  0  0  0  0  0  0  0  0  0  0
   44.3400   28.6660   45.4510 O   0  0  0  0  0  0  0  0  0  0  0  0
   46.7240   28.9910   45.1660 O   0  0  0  0  0  0  0  0  0  0  0  0
  1  6  1  0  0  0  0
  2  3  1  0  0  0  0
  2  1  2  0  0  0  0
  3  4  2  0  0  0  0
  4  5  1  0  0  0  0
  5  9  1  0  0  0  0
  6  5  2  0  0  0  0
  7 15  1  0  0  0  0
  8  7  2  0  0  0  0
  9 13  1  0  0  0  0
  9  7  1  0  0  0  0
 10  1  1  0  0  0  0
 11  2  1  0  0  0  0
 12  3  1  0  0  0  0
 14 15  2  0  0  0  0
 14 21  1  0  0  0  0
 15 16  1  0  0  0  0
 16 17  1  0  0  0  0
 16 18  2  0  0  0  0
 18 19  1  0  0  0  0
 20 18  1  0  0  0  0
 21 20  2  0  0  0  0
 22 23  1  0  0  0  0
 23 24  2  0  0  0  0
 23 14  1  0  0  0  0
 25 23  2  0  0  0  0
M  END
>  <minimizedAffinity>
-4.79967546

>  <minimizedRMSD>
3.25751996

$$$$
