
 OpenBabel03242519093D

 50 53  0  0  1  0  0  0  0  0999 V2000
   48.6350   32.2830   37.0480 C   0  0  0  0  0  0  0  0  0  0  0  0
   47.9560   33.0360   38.0270 C   0  0  0  0  0  0  0  0  0  0  0  0
   46.6530   33.3010   37.7010 C   0  0  0  0  0  0  0  0  0  0  0  0
   46.0090   32.9060   36.5500 C   0  0  0  0  0  0  0  0  0  0  0  0
   46.7170   32.1700   35.6180 C   0  0  0  0  0  0  0  0  0  0  0  0
   48.0280   31.8710   35.8890 C   0  0  0  0  0  0  0  0  0  0  0  0
   46.0580   33.8800   38.4110 H   0  0  0  0  0  0  0  0  0  0  0  0
   44.9760   33.1620   36.3680 H   0  0  0  0  0  0  0  0  0  0  0  0
   46.2010   31.8670   34.7160 H   0  0  0  0  0  0  0  0  0  0  0  0
   49.3200   31.8060   33.7930 C   0  0  0  0  0  0  0  0  0  0  0  0
   49.1170   33.0470   33.6490 O   0  0  0  0  0  0  0  0  0  0  0  0
   48.7200   31.1140   34.8980 N   0  0  0  0  0  0  0  0  0  0  0  0
   48.7050   30.1080   35.1050 H   0  0  0  0  0  0  0  0  0  0  0  0
   49.9440   30.4310   31.6940 C   0  0  0  0  0  0  0  0  0  0  0  0
   50.1440   30.9930   32.9070 C   0  0  0  0  0  0  0  0  0  0  0  0
   51.3850   30.8050   33.5360 C   0  0  0  0  0  0  0  0  0  0  0  0
   51.7370   31.1740   34.5110 H   0  0  0  0  0  0  0  0  0  0  0  0
   52.4060   30.0550   32.9360 C   0  0  0  0  0  0  0  0  0  0  0  0
   53.3790   29.8730   33.3630 H   0  0  0  0  0  0  0  0  0  0  0  0
   52.1840   29.4840   31.6890 C   0  0  0  0  0  0  0  0  0  0  0  0
   50.9410   29.6950   31.1010 C   0  0  0  0  0  0  0  0  0  0  0  0
   47.3710   30.8170   31.9150 H   0  0  0  0  0  0  0  0  0  0  0  0
   48.3820   30.7180   31.0160 S   0  0  0  0  0  0  0  0  0  0  0  0
   48.4840   32.0400   30.2560 O   0  0  0  0  0  0  0  0  0  0  0  0
   48.1310   29.6230   29.9830 O   0  0  0  0  0  0  0  0  0  0  0  0
   48.5410   33.4730   39.2240 N   0  0  0  0  0  0  0  0  0  0  0  0
   49.4880   33.8590   38.9940 H   0  0  0  0  0  0  0  0  0  0  0  0
   47.4590   34.5450   42.4520 N   0  0  0  0  0  0  0  0  0  0  0  0
   47.4140   34.7410   41.0020 C   0  0  0  0  0  0  0  0  0  0  0  0
   48.0770   33.4670   40.5780 C   0  0  2  0  0  0  0  0  0  0  0  0
   49.2990   33.4210   41.4780 C   0  0  0  0  0  0  0  0  0  0  0  0
   48.7820   34.0690   42.7430 C   0  0  0  0  0  0  0  0  0  0  0  0
   46.3770   34.8260   40.6580 H   0  0  0  0  0  0  0  0  0  0  0  0
   48.0250   35.6340   40.7270 H   0  0  0  0  0  0  0  0  0  0  0  0
   47.3990   32.6250   40.8160 H   0  0  0  0  0  0  0  0  0  0  0  0
   50.0810   34.0470   40.9910 H   0  0  0  0  0  0  0  0  0  0  0  0
   49.6740   32.4030   41.6170 H   0  0  0  0  0  0  0  0  0  0  0  0
   49.4210   34.9500   42.9460 H   0  0  0  0  0  0  0  0  0  0  0  0
   48.8010   33.3470   43.5740 H   0  0  0  0  0  0  0  0  0  0  0  0
   44.5740   35.8490   44.4190 C   0  0  0  0  0  0  0  0  0  0  0  0
   45.4970   35.7500   43.3730 C   0  0  0  0  0  0  0  0  0  0  0  0
   46.4720   34.7500   43.4330 C   0  0  0  0  0  0  0  0  0  0  0  0
   46.4510   33.9310   44.5230 N   0  0  0  0  0  0  0  0  0  0  0  0
   45.5720   34.0260   45.5180 C   0  0  0  0  0  0  0  0  0  0  0  0
   44.6190   35.0050   45.4590 N   0  0  0  0  0  0  0  0  0  0  0  0
   43.8530   36.6440   44.2970 H   0  0  0  0  0  0  0  0  0  0  0  0
   45.5820   36.3390   42.4880 H   0  0  0  0  0  0  0  0  0  0  0  0
   45.6340   33.3320   46.3470 H   0  0  0  0  0  0  0  0  0  0  0  0
   51.1330   31.6760   37.5350 N   0  0  0  0  0  0  0  0  0  0  0  0
   50.0290   31.9560   37.3220 C   0  0  0  0  0  0  0  0  0  0  0  0
  1 50  1  0  0  0  0
  1  2  1  0  0  0  0
  2 26  1  0  0  0  0
  3  2  2  0  0  0  0
  3  7  1  0  0  0  0
  4  3  1  0  0  0  0
  5  6  1  0  0  0  0
  5  4  2  0  0  0  0
  6  1  2  0  0  0  0
  8  4  1  0  0  0  0
  9  5  1  0  0  0  0
 10 12  1  0  0  0  0
 11 10  2  0  0  0  0
 12 13  1  0  0  0  0
 12  6  1  0  0  0  0
 14 15  1  0  0  0  0
 15 16  2  0  0  0  0
 15 10  1  0  0  0  0
 16 17  1  0  0  0  0
 18 19  1  0  0  0  0
 18 16  1  0  0  0  0
 20 18  2  0  0  0  0
 21 20  1  0  0  0  0
 21 14  2  0  0  0  0
 23 14  1  0  0  0  0
 23 22  1  0  0  0  0
 24 23  2  0  0  0  0
 25 23  2  0  0  0  0
 26 30  1  0  0  0  0
 27 26  1  0  0  0  0
 28 32  1  0  0  0  0
 28 42  1  0  0  0  0
 29 28  1  0  0  0  0
 30 35  1  1  0  0  0
 30 29  1  0  0  0  0
 30 31  1  0  0  0  0
 31 37  1  0  0  0  0
 31 32  1  0  0  0  0
 32 38  1  0  0  0  0
 32 39  1  0  0  0  0
 33 29  1  0  0  0  0
 34 29  1  0  0  0  0
 36 31  1  0  0  0  0
 40 45  1  0  0  0  0
 41 42  1  0  0  0  0
 41 40  2  0  0  0  0
 42 43  2  0  0  0  0
 43 44  1  0  0  0  0
 44 48  1  0  0  0  0
 45 44  2  0  0  0  0
 46 40  1  0  0  0  0
 47 41  1  0  0  0  0
 50 49  3  0  0  0  0
M  END
>  <minimizedAffinity>
-6.15479708

>  <minimizedRMSD>
0.980130374

$$$$
