
 OpenBabel03252508003D

 32 34  0  0  1  0  0  0  0  0999 V2000
   46.2650   34.6070   43.3070 C   0  0  0  0  0  0  0  0  0  0  0  0
   45.3370   35.6580   43.5720 C   0  0  0  0  0  0  0  0  0  0  0  0
   44.6680   35.5800   44.7830 C   0  0  0  0  0  0  0  0  0  0  0  0
   44.9300   34.5390   45.6120 N   0  0  0  0  0  0  0  0  0  0  0  0
   45.8280   33.5630   45.3040 C   0  0  0  0  0  0  0  0  0  0  0  0
   46.4970   33.5780   44.1710 N   0  0  0  0  0  0  0  0  0  0  0  0
   45.2070   36.4410   42.8360 H   0  0  0  0  0  0  0  0  0  0  0  0
   43.9590   36.3530   45.0240 H   0  0  0  0  0  0  0  0  0  0  0  0
   46.0410   32.4690   46.2810 C   0  0  1  0  0  0  0  0  0  0  0  0
   46.8320   32.7380   47.5390 C   0  0  0  0  0  0  0  0  0  0  0  0
   45.3300   32.6370   47.5660 C   0  0  1  0  0  0  0  0  0  0  0  0
   46.1680   31.4880   45.7970 H   0  0  0  0  0  0  0  0  0  0  0  0
   47.3610   31.8910   47.9970 H   0  0  0  0  0  0  0  0  0  0  0  0
   47.3240   33.7100   47.5800 H   0  0  0  0  0  0  0  0  0  0  0  0
   44.8560   31.7520   48.0090 H   0  0  0  0  0  0  0  0  0  0  0  0
   44.6940   33.8960   47.8830 N   0  0  0  0  0  0  0  0  0  0  0  0
   43.7340   34.0160   47.6030 H   0  0  0  0  0  0  0  0  0  0  0  0
   45.3080   34.7030   47.9790 H   0  0  0  0  0  0  0  0  0  0  0  0
   46.9760   34.7020   42.0470 C   0  0  0  0  0  0  0  0  0  0  0  0
   47.9220   35.5460   41.8500 O   0  0  0  0  0  0  0  0  0  0  0  0
   47.1070   32.5450   40.7500 C   0  0  0  0  0  0  0  0  0  0  0  0
   46.4890   33.7390   41.0610 C   0  0  0  0  0  0  0  0  0  0  0  0
   45.3070   34.0100   40.3570 C   0  0  0  0  0  0  0  0  0  0  0  0
   44.8070   34.9480   40.5900 H   0  0  0  0  0  0  0  0  0  0  0  0
   44.7690   33.1640   39.4090 C   0  0  0  0  0  0  0  0  0  0  0  0
   43.8530   33.4410   38.9040 H   0  0  0  0  0  0  0  0  0  0  0  0
   45.4180   31.9800   39.1250 C   0  0  0  0  0  3  0  0  0  0  0  0
   46.5840   31.6870   39.8040 C   0  0  0  0  0  3  0  0  0  0  0  0
   48.5470   32.6480   42.8480 H   0  0  0  0  0  0  0  0  0  0  0  0
   48.5780   32.1450   41.5870 S   0  0  0  0  0  0  0  0  0  0  0  0
   49.7220   32.7640   40.7960 O   0  0  0  0  0  0  0  0  0  0  0  0
   48.7990   30.6630   41.6620 O   0  0  0  0  0  0  0  0  0  0  0  0
  1  2  2  0  0  0  0
  1  6  1  0  0  0  0
  2  3  1  0  0  0  0
  3  8  1  0  0  0  0
  3  4  2  0  0  0  0
  5  4  1  0  0  0  0
  5  9  1  0  0  0  0
  6  5  2  0  0  0  0
  7  2  1  0  0  0  0
  9 12  1  6  0  0  0
  9 10  1  0  0  0  0
  9 11  1  0  0  0  0
 10 11  1  0  0  0  0
 10 14  1  0  0  0  0
 10 13  1  0  0  0  0
 11 16  1  0  0  0  0
 11 15  1  1  0  0  0
 16 18  1  0  0  0  0
 17 16  1  0  0  0  0
 19  1  1  0  0  0  0
 20 19  2  0  0  0  0
 21 22  1  0  0  0  0
 21 30  1  0  0  0  0
 22 19  1  0  0  0  0
 23 24  1  0  0  0  0
 23 22  2  0  0  0  0
 25 23  1  0  0  0  0
 26 25  1  0  0  0  0
 27 25  2  0  0  0  0
 27 28  1  0  0  0  0
 28 21  2  0  0  0  0
 30 32  2  0  0  0  0
 30 29  1  0  0  0  0
 31 30  2  0  0  0  0
M  END
>  <minimizedAffinity>
-5.3053031

>  <minimizedRMSD>
0.99661243

$$$$
