
 OpenBabel03252507593D

 32 34  0  0  1  0  0  0  0  0999 V2000
   45.9260   34.7220   43.5270 C   0  0  0  0  0  0  0  0  0  0  0  0
   45.0410   35.7150   44.0470 C   0  0  0  0  0  0  0  0  0  0  0  0
   44.5720   35.4900   45.3310 C   0  0  0  0  0  0  0  0  0  0  0  0
   44.9720   34.3750   45.9920 N   0  0  0  0  0  0  0  0  0  0  0  0
   45.8190   33.4610   45.4420 C   0  0  0  0  0  0  0  0  0  0  0  0
   46.3010   33.6140   44.2270 N   0  0  0  0  0  0  0  0  0  0  0  0
   44.7890   36.5670   43.4300 H   0  0  0  0  0  0  0  0  0  0  0  0
   43.9030   36.2150   45.7630 H   0  0  0  0  0  0  0  0  0  0  0  0
   46.1950   32.2760   46.2500 C   0  0  1  0  0  0  0  0  0  0  0  0
   47.1420   32.4380   47.4150 C   0  0  0  0  0  0  0  0  0  0  0  0
   45.6610   32.2690   47.6280 C   0  0  1  0  0  0  0  0  0  0  0  0
   46.2820   31.3610   45.6420 H   0  0  0  0  0  0  0  0  0  0  0  0
   47.7520   31.5690   47.6970 H   0  0  0  0  0  0  0  0  0  0  0  0
   47.6080   33.4200   47.5020 H   0  0  0  0  0  0  0  0  0  0  0  0
   45.2770   31.3210   48.0250 H   0  0  0  0  0  0  0  0  0  0  0  0
   45.0390   33.4560   48.1700 N   0  0  0  0  0  0  0  0  0  0  0  0
   44.0470   33.5650   48.0360 H   0  0  0  0  0  0  0  0  0  0  0  0
   45.6370   34.2740   48.2760 H   0  0  0  0  0  0  0  0  0  0  0  0
   46.4280   34.9690   42.1910 C   0  0  0  0  0  0  0  0  0  0  0  0
   47.5230   35.5990   41.9690 O   0  0  0  0  0  0  0  0  0  0  0  0
   45.8940   33.4160   40.2790 C   0  0  0  0  0  0  0  0  0  0  0  0
   45.5490   34.4220   41.1580 C   0  0  0  0  0  0  0  0  0  0  0  0
   44.2500   34.9300   41.0160 C   0  0  0  0  0  0  0  0  0  0  0  0
   43.9620   35.7240   41.7020 H   0  0  0  0  0  0  0  0  0  0  0  0
   43.3480   34.4790   40.0730 C   0  0  0  0  0  0  0  0  0  0  0  0
   42.3620   34.9200   40.0240 H   0  0  0  0  0  0  0  0  0  0  0  0
   43.7320   33.4710   39.2120 C   0  0  0  0  0  3  0  0  0  0  0  0
   45.0060   32.9520   39.3300 C   0  0  0  0  0  3  0  0  0  0  0  0
   47.9510   32.8550   41.6710 H   0  0  0  0  0  0  0  0  0  0  0  0
   47.4910   32.7390   40.3980 S   0  0  0  0  0  0  0  0  0  0  0  0
   48.3780   33.5210   39.4390 O   0  0  0  0  0  0  0  0  0  0  0  0
   47.5220   31.2930   40.0030 O   0  0  0  0  0  0  0  0  0  0  0  0
  1  2  2  0  0  0  0
  1  6  1  0  0  0  0
  2  3  1  0  0  0  0
  3  8  1  0  0  0  0
  3  4  2  0  0  0  0
  5  4  1  0  0  0  0
  5  9  1  0  0  0  0
  6  5  2  0  0  0  0
  7  2  1  0  0  0  0
  9 12  1  6  0  0  0
  9 10  1  0  0  0  0
  9 11  1  0  0  0  0
 10 14  1  0  0  0  0
 10 11  1  0  0  0  0
 10 13  1  0  0  0  0
 11 15  1  1  0  0  0
 11 16  1  0  0  0  0
 16 18  1  0  0  0  0
 17 16  1  0  0  0  0
 19  1  1  0  0  0  0
 20 19  2  0  0  0  0
 21 30  1  0  0  0  0
 21 22  1  0  0  0  0
 22 19  1  0  0  0  0
 23 22  2  0  0  0  0
 23 24  1  0  0  0  0
 25 23  1  0  0  0  0
 26 25  1  0  0  0  0
 27 28  1  0  0  0  0
 27 25  2  0  0  0  0
 28 21  2  0  0  0  0
 30 29  1  0  0  0  0
 31 30  2  0  0  0  0
 32 30  2  0  0  0  0
M  END
>  <minimizedAffinity>
-5.71000671

>  <minimizedRMSD>
0.640580118

$$$$
