
 OpenBabel03252508003D

 32 34  0  0  1  0  0  0  0  0999 V2000
   46.4840   34.5070   43.3630 C   0  0  0  0  0  0  0  0  0  0  0  0
   45.5180   35.5430   43.5440 C   0  0  0  0  0  0  0  0  0  0  0  0
   44.7610   35.4640   44.7020 C   0  0  0  0  0  0  0  0  0  0  0  0
   44.9800   34.4380   45.5620 N   0  0  0  0  0  0  0  0  0  0  0  0
   45.9170   33.4770   45.3350 C   0  0  0  0  0  0  0  0  0  0  0  0
   46.6690   33.4930   44.2550 N   0  0  0  0  0  0  0  0  0  0  0  0
   45.4290   36.3140   42.7910 H   0  0  0  0  0  0  0  0  0  0  0  0
   44.0210   36.2260   44.8800 H   0  0  0  0  0  0  0  0  0  0  0  0
   46.0760   32.3980   46.3390 C   0  0  1  0  0  0  0  0  0  0  0  0
   46.8330   32.6760   47.6160 C   0  0  0  0  0  0  0  0  0  0  0  0
   45.3290   32.6060   47.5970 C   0  0  1  0  0  0  0  0  0  0  0  0
   46.1980   31.4050   45.8780 H   0  0  0  0  0  0  0  0  0  0  0  0
   47.3290   31.8270   48.1070 H   0  0  0  0  0  0  0  0  0  0  0  0
   47.3440   33.6380   47.6540 H   0  0  0  0  0  0  0  0  0  0  0  0
   44.8230   31.7410   48.0420 H   0  0  0  0  0  0  0  0  0  0  0  0
   44.7110   33.8840   47.8700 N   0  0  0  0  0  0  0  0  0  0  0  0
   43.7620   34.0180   47.5570 H   0  0  0  0  0  0  0  0  0  0  0  0
   45.3380   34.6800   47.9690 H   0  0  0  0  0  0  0  0  0  0  0  0
   47.2860   34.6030   42.1600 C   0  0  0  0  0  0  0  0  0  0  0  0
   47.8550   35.6920   41.7940 O   0  0  0  0  0  0  0  0  0  0  0  0
   46.3550   32.8150   40.6480 C   0  0  0  0  0  0  0  0  0  0  0  0
   47.3590   33.3320   41.4400 C   0  0  0  0  0  0  0  0  0  0  0  0
   48.5190   32.5510   41.5330 C   0  0  0  0  0  0  0  0  0  0  0  0
   49.3210   32.9460   42.1540 H   0  0  0  0  0  0  0  0  0  0  0  0
   48.6820   31.3410   40.8910 C   0  0  0  0  0  0  0  0  0  0  0  0
   49.6070   30.7930   41.0110 H   0  0  0  0  0  0  0  0  0  0  0  0
   47.6530   30.8570   40.1080 C   0  0  0  0  0  3  0  0  0  0  0  0
   46.5000   31.6060   39.9980 C   0  0  0  0  0  3  0  0  0  0  0  0
   45.1290   35.0450   40.7340 H   0  0  0  0  0  0  0  0  0  0  0  0
   44.8860   33.7310   40.4860 S   0  0  0  0  0  0  0  0  0  0  0  0
   43.9000   33.1750   41.5040 O   0  0  0  0  0  0  0  0  0  0  0  0
   44.2860   33.6000   39.1200 O   0  0  0  0  0  0  0  0  0  0  0  0
  1  2  2  0  0  0  0
  1  6  1  0  0  0  0
  2  3  1  0  0  0  0
  3  8  1  0  0  0  0
  3  4  2  0  0  0  0
  5  4  1  0  0  0  0
  5  9  1  0  0  0  0
  6  5  2  0  0  0  0
  7  2  1  0  0  0  0
  9 12  1  6  0  0  0
  9 11  1  0  0  0  0
  9 10  1  0  0  0  0
 10 14  1  0  0  0  0
 10 13  1  0  0  0  0
 11 10  1  0  0  0  0
 11 16  1  0  0  0  0
 11 15  1  1  0  0  0
 16 18  1  0  0  0  0
 17 16  1  0  0  0  0
 19  1  1  0  0  0  0
 20 19  2  0  0  0  0
 21 22  1  0  0  0  0
 22 23  2  0  0  0  0
 22 19  1  0  0  0  0
 23 24  1  0  0  0  0
 25 26  1  0  0  0  0
 25 23  1  0  0  0  0
 27 25  2  0  0  0  0
 28 27  1  0  0  0  0
 28 21  2  0  0  0  0
 30 21  1  0  0  0  0
 30 29  1  0  0  0  0
 30 31  2  0  0  0  0
 32 30  2  0  0  0  0
M  END
>  <minimizedAffinity>
-5.03945637

>  <minimizedRMSD>
2.03046513

$$$$
