
 OpenBabel03252508003D

 32 34  0  0  1  0  0  0  0  0999 V2000
   46.2430   34.4620   43.3950 C   0  0  0  0  0  0  0  0  0  0  0  0
   45.3190   35.4860   43.7640 C   0  0  0  0  0  0  0  0  0  0  0  0
   44.7580   35.3650   45.0260 C   0  0  0  0  0  0  0  0  0  0  0  0
   45.1130   34.3130   45.8050 N   0  0  0  0  0  0  0  0  0  0  0  0
   46.0020   33.3650   45.3970 C   0  0  0  0  0  0  0  0  0  0  0  0
   46.5700   33.4200   44.2120 N   0  0  0  0  0  0  0  0  0  0  0  0
   45.1100   36.2810   43.0610 H   0  0  0  0  0  0  0  0  0  0  0  0
   44.0560   36.1160   45.3450 H   0  0  0  0  0  0  0  0  0  0  0  0
   46.3210   32.2550   46.3270 C   0  0  1  0  0  0  0  0  0  0  0  0
   47.0150   32.5550   47.6350 C   0  0  0  0  0  0  0  0  0  0  0  0
   45.5410   32.2520   47.5820 C   0  0  1  0  0  0  0  0  0  0  0  0
   46.6020   31.3290   45.8000 H   0  0  0  0  0  0  0  0  0  0  0  0
   47.6350   31.7620   48.0740 H   0  0  0  0  0  0  0  0  0  0  0  0
   47.3670   33.5800   47.7490 H   0  0  0  0  0  0  0  0  0  0  0  0
   45.1740   31.2880   47.9550 H   0  0  0  0  0  0  0  0  0  0  0  0
   44.7260   33.3940   47.9310 N   0  0  0  0  0  0  0  0  0  0  0  0
   43.7710   33.4000   47.6110 H   0  0  0  0  0  0  0  0  0  0  0  0
   45.2190   34.2700   48.0980 H   0  0  0  0  0  0  0  0  0  0  0  0
   46.8410   34.6010   42.0830 C   0  0  0  0  0  0  0  0  0  0  0  0
   47.4840   35.6510   41.7240 O   0  0  0  0  0  0  0  0  0  0  0  0
   45.4580   33.1510   40.5540 C   0  0  0  0  0  0  0  0  0  0  0  0
   46.6220   33.4220   41.2450 C   0  0  0  0  0  0  0  0  0  0  0  0
   47.6420   32.4730   41.1080 C   0  0  0  0  0  0  0  0  0  0  0  0
   48.5670   32.6730   41.6480 H   0  0  0  0  0  0  0  0  0  0  0  0
   47.5300   31.3310   40.3420 C   0  0  0  0  0  0  0  0  0  0  0  0
   48.3620   30.6430   40.2840 H   0  0  0  0  0  0  0  0  0  0  0  0
   46.3500   31.0950   39.6660 C   0  0  0  0  0  3  0  0  0  0  0  0
   45.3280   32.0140   39.7830 C   0  0  0  0  0  3  0  0  0  0  0  0
   44.6250   35.5080   41.0370 H   0  0  0  0  0  0  0  0  0  0  0  0
   44.1480   34.2870   40.6790 S   0  0  0  0  0  0  0  0  0  0  0  0
   43.1990   33.7550   41.7430 O   0  0  0  0  0  0  0  0  0  0  0  0
   43.3940   34.4220   39.3900 O   0  0  0  0  0  0  0  0  0  0  0  0
  1  2  2  0  0  0  0
  1  6  1  0  0  0  0
  2  3  1  0  0  0  0
  3  8  1  0  0  0  0
  3  4  2  0  0  0  0
  5  4  1  0  0  0  0
  5  9  1  0  0  0  0
  6  5  2  0  0  0  0
  7  2  1  0  0  0  0
  9 12  1  6  0  0  0
  9 11  1  0  0  0  0
  9 10  1  0  0  0  0
 10 14  1  0  0  0  0
 10 13  1  0  0  0  0
 11 10  1  0  0  0  0
 11 16  1  0  0  0  0
 11 15  1  1  0  0  0
 16 18  1  0  0  0  0
 17 16  1  0  0  0  0
 19  1  1  0  0  0  0
 20 19  2  0  0  0  0
 21 30  1  0  0  0  0
 21 22  1  0  0  0  0
 22 19  1  0  0  0  0
 23 22  2  0  0  0  0
 23 24  1  0  0  0  0
 25 23  1  0  0  0  0
 26 25  1  0  0  0  0
 27 28  1  0  0  0  0
 27 25  2  0  0  0  0
 28 21  2  0  0  0  0
 30 29  1  0  0  0  0
 30 31  2  0  0  0  0
 32 30  2  0  0  0  0
M  END
>  <minimizedAffinity>
-5.04921627

>  <minimizedRMSD>
1.5939467

$$$$
