
 OpenBabel03252508003D

 32 34  0  0  1  0  0  0  0  0999 V2000
   45.9250   34.7230   43.5260 C   0  0  0  0  0  0  0  0  0  0  0  0
   45.0410   35.7150   44.0460 C   0  0  0  0  0  0  0  0  0  0  0  0
   44.5720   35.4920   45.3310 C   0  0  0  0  0  0  0  0  0  0  0  0
   44.9710   34.3760   45.9910 N   0  0  0  0  0  0  0  0  0  0  0  0
   45.8180   33.4620   45.4420 C   0  0  0  0  0  0  0  0  0  0  0  0
   46.3000   33.6140   44.2270 N   0  0  0  0  0  0  0  0  0  0  0  0
   44.7890   36.5680   43.4290 H   0  0  0  0  0  0  0  0  0  0  0  0
   43.9030   36.2160   45.7630 H   0  0  0  0  0  0  0  0  0  0  0  0
   46.1930   32.2760   46.2500 C   0  0  1  0  0  0  0  0  0  0  0  0
   47.1410   32.4380   47.4150 C   0  0  0  0  0  0  0  0  0  0  0  0
   45.6600   32.2700   47.6280 C   0  0  1  0  0  0  0  0  0  0  0  0
   46.2800   31.3610   45.6420 H   0  0  0  0  0  0  0  0  0  0  0  0
   47.7500   31.5690   47.6970 H   0  0  0  0  0  0  0  0  0  0  0  0
   47.6060   33.4200   47.5020 H   0  0  0  0  0  0  0  0  0  0  0  0
   45.2750   31.3220   48.0240 H   0  0  0  0  0  0  0  0  0  0  0  0
   45.0380   33.4580   48.1690 N   0  0  0  0  0  0  0  0  0  0  0  0
   44.0450   33.5660   48.0350 H   0  0  0  0  0  0  0  0  0  0  0  0
   45.6360   34.2750   48.2760 H   0  0  0  0  0  0  0  0  0  0  0  0
   46.4270   34.9690   42.1900 C   0  0  0  0  0  0  0  0  0  0  0  0
   47.5220   35.5990   41.9680 O   0  0  0  0  0  0  0  0  0  0  0  0
   45.8940   33.4150   40.2790 C   0  0  0  0  0  0  0  0  0  0  0  0
   45.5480   34.4210   41.1570 C   0  0  0  0  0  0  0  0  0  0  0  0
   44.2500   34.9280   41.0150 C   0  0  0  0  0  0  0  0  0  0  0  0
   43.9600   35.7230   41.7010 H   0  0  0  0  0  0  0  0  0  0  0  0
   43.3490   34.4770   40.0720 C   0  0  0  0  0  0  0  0  0  0  0  0
   42.3620   34.9170   40.0230 H   0  0  0  0  0  0  0  0  0  0  0  0
   43.7330   33.4680   39.2120 C   0  0  0  0  0  3  0  0  0  0  0  0
   45.0070   32.9500   39.3290 C   0  0  0  0  0  3  0  0  0  0  0  0
   47.9520   32.8560   41.6710 H   0  0  0  0  0  0  0  0  0  0  0  0
   47.4920   32.7390   40.3980 S   0  0  0  0  0  0  0  0  0  0  0  0
   48.3780   33.5210   39.4400 O   0  0  0  0  0  0  0  0  0  0  0  0
   47.5240   31.2930   40.0040 O   0  0  0  0  0  0  0  0  0  0  0  0
  1  2  2  0  0  0  0
  1  6  1  0  0  0  0
  2  3  1  0  0  0  0
  3  8  1  0  0  0  0
  3  4  2  0  0  0  0
  5  4  1  0  0  0  0
  5  9  1  0  0  0  0
  6  5  2  0  0  0  0
  7  2  1  0  0  0  0
  9 12  1  6  0  0  0
  9 10  1  0  0  0  0
  9 11  1  0  0  0  0
 10 14  1  0  0  0  0
 10 11  1  0  0  0  0
 10 13  1  0  0  0  0
 11 15  1  1  0  0  0
 11 16  1  0  0  0  0
 16 18  1  0  0  0  0
 17 16  1  0  0  0  0
 19  1  1  0  0  0  0
 20 19  2  0  0  0  0
 21 30  1  0  0  0  0
 21 22  1  0  0  0  0
 22 19  1  0  0  0  0
 23 22  2  0  0  0  0
 23 24  1  0  0  0  0
 25 23  1  0  0  0  0
 26 25  1  0  0  0  0
 27 28  1  0  0  0  0
 27 25  2  0  0  0  0
 28 21  2  0  0  0  0
 30 29  1  0  0  0  0
 31 30  2  0  0  0  0
 32 30  2  0  0  0  0
M  END
>  <minimizedAffinity>
-5.70961285

>  <minimizedRMSD>
1.28450191

$$$$
