
 OpenBabel03252503343D

 25 26  0  0  0  0  0  0  0  0999 V2000
   46.6640   33.4870   41.0950 C   0  0  0  0  0  0  0  0  0  0  0  0
   45.4530   33.1210   41.1960 O   0  0  0  0  0  0  0  0  0  0  0  0
   47.1280   34.2160   42.2180 N   0  0  0  0  0  0  0  0  0  0  0  0
   48.1530   34.4640   42.2720 H   0  0  0  0  0  0  0  0  0  0  0  0
   44.6540   36.0730   44.3000 C   0  0  0  0  0  0  0  0  0  0  0  0
   45.4680   35.7680   43.1980 C   0  0  0  0  0  0  0  0  0  0  0  0
   46.2650   34.6250   43.2660 C   0  0  0  0  0  0  0  0  0  0  0  0
   46.2250   33.8530   44.3840 N   0  0  0  0  0  0  0  0  0  0  0  0
   45.4190   34.1800   45.4400 C   0  0  0  0  0  0  0  0  0  0  0  0
   44.6430   35.2870   45.3840 N   0  0  0  0  0  0  0  0  0  0  0  0
   44.0660   36.9740   44.1700 H   0  0  0  0  0  0  0  0  0  0  0  0
   45.5390   36.3450   42.2800 H   0  0  0  0  0  0  0  0  0  0  0  0
   45.3220   33.6370   46.3420 H   0  0  0  0  0  0  0  0  0  0  0  0
   48.5550   32.2720   40.1910 C   0  0  0  0  0  0  0  0  0  0  0  0
   47.5490   33.2140   39.9550 C   0  0  0  0  0  0  0  0  0  0  0  0
   47.3890   33.8430   38.7410 C   0  0  0  0  0  0  0  0  0  0  0  0
   46.5970   34.5700   38.5900 H   0  0  0  0  0  0  0  0  0  0  0  0
   48.2780   33.5160   37.7220 C   0  0  0  0  0  0  0  0  0  0  0  0
   48.1920   33.9780   36.7410 H   0  0  0  0  0  0  0  0  0  0  0  0
   49.3000   32.5890   37.8970 C   0  0  0  0  0  3  0  0  0  0  0  0
   49.4240   31.9750   39.1410 C   0  0  0  0  0  3  0  0  0  0  0  0
   49.6400   30.4730   41.5830 H   0  0  0  0  0  0  0  0  0  0  0  0
   48.7240   31.4900   41.7610 S   0  0  0  0  0  0  0  0  0  0  0  0
   47.4580   30.8760   42.2310 O   0  0  0  0  0  0  0  0  0  0  0  0
   49.3170   32.4450   42.7670 O   0  0  0  0  0  0  0  0  0  0  0  0
  1  2  2  0  0  0  0
  1  3  1  0  0  0  0
  3  4  1  0  0  0  0
  3  7  1  0  0  0  0
  5 10  1  0  0  0  0
  6  7  1  0  0  0  0
  6  5  2  0  0  0  0
  7  8  2  0  0  0  0
  8  9  1  0  0  0  0
  9 13  1  0  0  0  0
 10  9  2  0  0  0  0
 11  5  1  0  0  0  0
 12  6  1  0  0  0  0
 14 23  1  0  0  0  0
 15 14  1  0  0  0  0
 15  1  1  0  0  0  0
 16 15  2  0  0  0  0
 17 16  1  0  0  0  0
 18 20  2  0  0  0  0
 18 16  1  0  0  0  0
 19 18  1  0  0  0  0
 20 21  1  0  0  0  0
 21 14  2  0  0  0  0
 22 23  1  0  0  0  0
 23 24  2  0  0  0  0
 23 25  2  0  0  0  0
M  END
>  <minimizedAffinity>
-4.11151075

>  <minimizedRMSD>
1.07846045

$$$$
