
 OpenBabel03242512283D

 25 26  0  0  0  0  0  0  0  0999 V2000
   36.7470   27.5270   42.4920 C   0  0  0  0  0  0  0  0  0  0  0  0
   36.2450   27.7020   43.6220 O   0  0  0  0  0  0  0  0  0  0  0  0
   36.3670   30.5810   40.5540 C   0  0  0  0  0  0  0  0  0  0  0  0
   35.9380   30.0930   39.3080 C   0  0  0  0  0  0  0  0  0  0  0  0
   35.7760   28.7110   39.1290 C   0  0  0  0  0  0  0  0  0  0  0  0
   36.0510   27.9250   40.1870 N   0  0  0  0  0  0  0  0  0  0  0  0
   36.4590   28.3960   41.3680 C   0  0  0  0  0  0  0  0  0  0  0  0
   36.6140   29.7310   41.5400 N   0  0  0  0  0  0  0  0  0  0  0  0
   36.5230   31.9760   40.7130 N   0  0  0  0  0  0  0  0  0  0  0  0
   35.7290   30.7480   38.4890 H   0  0  0  0  0  0  0  0  0  0  0  0
   35.4560   28.2560   38.2180 H   0  0  0  0  0  0  0  0  0  0  0  0
   35.5730   32.3880   40.6560 H   0  0  0  0  0  0  0  0  0  0  0  0
   37.5540   32.1730   40.8390 H   0  0  0  0  0  0  0  0  0  0  0  0
   39.0170   26.4250   42.5070 C   0  0  0  0  0  0  0  0  0  0  0  0
   37.6480   26.3850   42.3700 C   0  0  0  0  0  0  0  0  0  0  0  0
   37.0370   25.1670   42.0930 C   0  0  0  0  0  0  0  0  0  0  0  0
   35.9810   24.9910   41.9610 H   0  0  0  0  0  0  0  0  0  0  0  0
   37.8670   24.0590   41.9710 C   0  0  0  0  0  0  0  0  0  0  0  0
   37.4260   23.0850   41.7530 H   0  0  0  0  0  0  0  0  0  0  0  0
   39.2570   24.0750   42.1040 C   0  0  0  0  0  3  0  0  0  0  0  0
   39.8040   25.3010   42.3780 C   0  0  0  0  0  3  0  0  0  0  0  0
   38.9010   28.7430   43.6250 H   0  0  0  0  0  0  0  0  0  0  0  0
   39.7450   27.9770   42.8560 S   0  0  0  0  0  0  0  0  0  0  0  0
   39.9870   28.7420   41.5660 O   0  0  0  0  0  0  0  0  0  0  0  0
   41.0530   27.8420   43.5660 O   0  0  0  0  0  0  0  0  0  0  0  0
  1  2  2  0  0  0  0
  3  9  1  0  0  0  0
  3  8  1  0  0  0  0
  4  3  2  0  0  0  0
  5  4  1  0  0  0  0
  5  6  2  0  0  0  0
  6  7  1  0  0  0  0
  7  8  2  0  0  0  0
  7  1  1  0  0  0  0
  9 13  1  0  0  0  0
 10  4  1  0  0  0  0
 11  5  1  0  0  0  0
 12  9  1  0  0  0  0
 14 23  1  0  0  0  0
 15  1  1  0  0  0  0
 15 14  2  0  0  0  0
 16 15  1  0  0  0  0
 17 16  1  0  0  0  0
 18 16  2  0  0  0  0
 18 20  1  0  0  0  0
 19 18  1  0  0  0  0
 20 21  2  0  0  0  0
 21 14  1  0  0  0  0
 23 25  2  0  0  0  0
 23 22  1  0  0  0  0
 24 23  2  0  0  0  0
M  END
>  <minimizedAffinity>
-5.11214256

$$$$

 OpenBabel03242512283D

 25 26  0  0  0  0  0  0  0  0999 V2000
   36.7680   27.4390   42.4310 C   0  0  0  0  0  0  0  0  0  0  0  0
   36.2400   27.4880   43.5620 O   0  0  0  0  0  0  0  0  0  0  0  0
   38.8750   24.4760   42.3330 C   0  0  0  0  0  0  0  0  0  0  0  0
   38.6400   23.9850   41.0370 C   0  0  0  0  0  0  0  0  0  0  0  0
   37.7550   24.6710   40.1910 C   0  0  0  0  0  0  0  0  0  0  0  0
   37.1760   25.7800   40.6880 N   0  0  0  0  0  0  0  0  0  0  0  0
   37.4050   26.2400   41.9210 C   0  0  0  0  0  0  0  0  0  0  0  0
   38.2590   25.5770   42.7370 N   0  0  0  0  0  0  0  0  0  0  0  0
   39.7690   23.7690   43.1680 N   0  0  0  0  0  0  0  0  0  0  0  0
   39.1180   23.0990   40.6750 H   0  0  0  0  0  0  0  0  0  0  0  0
   37.5200   24.3680   39.1950 H   0  0  0  0  0  0  0  0  0  0  0  0
   40.7110   23.8690   42.7450 H   0  0  0  0  0  0  0  0  0  0  0  0
   39.2080   23.3560   43.9640 H   0  0  0  0  0  0  0  0  0  0  0  0
   37.6440   29.6740   41.6530 C   0  0  0  0  0  0  0  0  0  0  0  0
   36.7040   28.6680   41.6480 C   0  0  0  0  0  0  0  0  0  0  0  0
   35.5830   28.8030   40.8350 C   0  0  0  0  0  0  0  0  0  0  0  0
   34.7730   28.0980   40.7330 H   0  0  0  0  0  0  0  0  0  0  0  0
   35.4910   29.9620   40.0750 C   0  0  0  0  0  0  0  0  0  0  0  0
   34.6260   30.1050   39.4250 H   0  0  0  0  0  0  0  0  0  0  0  0
   36.4300   30.9960   40.0640 C   0  0  0  0  0  3  0  0  0  0  0  0
   37.5130   30.8090   40.8820 C   0  0  0  0  0  3  0  0  0  0  0  0
   38.6640   28.9310   43.8990 H   0  0  0  0  0  0  0  0  0  0  0  0
   39.0380   29.4650   42.6890 S   0  0  0  0  0  0  0  0  0  0  0  0
   39.6800   30.8110   42.9770 O   0  0  0  0  0  0  0  0  0  0  0  0
   40.0740   28.5810   42.0730 O   0  0  0  0  0  0  0  0  0  0  0  0
  1  2  2  0  0  0  0
  3  8  1  0  0  0  0
  3  9  1  0  0  0  0
  4  3  2  0  0  0  0
  5  6  2  0  0  0  0
  5  4  1  0  0  0  0
  6  7  1  0  0  0  0
  7  1  1  0  0  0  0
  7  8  2  0  0  0  0
  9 13  1  0  0  0  0
 10  4  1  0  0  0  0
 11  5  1  0  0  0  0
 12  9  1  0  0  0  0
 14 23  1  0  0  0  0
 15 14  1  0  0  0  0
 15  1  1  0  0  0  0
 16 15  2  0  0  0  0
 17 16  1  0  0  0  0
 18 16  1  0  0  0  0
 19 18  1  0  0  0  0
 20 18  2  0  0  0  0
 20 21  1  0  0  0  0
 21 14  2  0  0  0  0
 23 24  2  0  0  0  0
 23 22  1  0  0  0  0
 25 23  2  0  0  0  0
M  END
>  <minimizedAffinity>
-5.07831573

$$$$

 OpenBabel03242512283D

 25 26  0  0  0  0  0  0  0  0999 V2000
   36.6130   30.2210   40.7430 C   0  0  0  0  0  0  0  0  0  0  0  0
   35.9760   31.1500   41.2830 O   0  0  0  0  0  0  0  0  0  0  0  0
   37.5520   31.0350   37.3260 C   0  0  0  0  0  0  0  0  0  0  0  0
   37.0320   29.9460   36.6050 C   0  0  0  0  0  0  0  0  0  0  0  0
   36.3550   28.9270   37.2910 C   0  0  0  0  0  0  0  0  0  0  0  0
   36.2460   29.0620   38.6260 N   0  0  0  0  0  0  0  0  0  0  0  0
   36.7440   30.1000   39.3040 C   0  0  0  0  0  0  0  0  0  0  0  0
   37.3970   31.0840   38.6400 N   0  0  0  0  0  0  0  0  0  0  0  0
   38.2300   32.0500   36.6140 N   0  0  0  0  0  0  0  0  0  0  0  0
   37.1370   29.8720   35.5430 H   0  0  0  0  0  0  0  0  0  0  0  0
   35.9300   28.0670   36.8240 H   0  0  0  0  0  0  0  0  0  0  0  0
   37.5200   32.5240   36.0250 H   0  0  0  0  0  0  0  0  0  0  0  0
   39.2490   32.0160   36.8960 H   0  0  0  0  0  0  0  0  0  0  0  0
   38.4800   29.3550   42.2030 C   0  0  0  0  0  0  0  0  0  0  0  0
   37.2220   29.2570   41.6550 C   0  0  0  0  0  0  0  0  0  0  0  0
   36.4340   28.1580   41.9770 C   0  0  0  0  0  0  0  0  0  0  0  0
   35.4350   27.9550   41.6230 H   0  0  0  0  0  0  0  0  0  0  0  0
   36.9830   27.2210   42.8430 C   0  0  0  0  0  0  0  0  0  0  0  0
   36.3960   26.3430   43.1200 H   0  0  0  0  0  0  0  0  0  0  0  0
   38.2570   27.2980   43.4110 C   0  0  0  0  0  3  0  0  0  0  0  0
   38.9870   28.4020   43.0600 C   0  0  0  0  0  3  0  0  0  0  0  0
   38.6250   31.8280   41.4960 H   0  0  0  0  0  0  0  0  0  0  0  0
   39.4380   30.7540   41.7720 S   0  0  0  0  0  0  0  0  0  0  0  0
   40.2400   30.4700   40.5140 O   0  0  0  0  0  0  0  0  0  0  0  0
   40.3940   31.1410   42.8530 O   0  0  0  0  0  0  0  0  0  0  0  0
  1  2  2  0  0  0  0
  1 15  1  0  0  0  0
  3  8  1  0  0  0  0
  4  5  1  0  0  0  0
  4  3  2  0  0  0  0
  5  6  2  0  0  0  0
  6  7  1  0  0  0  0
  7  1  1  0  0  0  0
  8  7  2  0  0  0  0
  9 13  1  0  0  0  0
  9  3  1  0  0  0  0
 10  4  1  0  0  0  0
 11  5  1  0  0  0  0
 12  9  1  0  0  0  0
 14 21  1  0  0  0  0
 15 16  1  0  0  0  0
 15 14  2  0  0  0  0
 16 18  2  0  0  0  0
 17 16  1  0  0  0  0
 18 19  1  0  0  0  0
 18 20  1  0  0  0  0
 21 20  2  0  0  0  0
 22 23  1  0  0  0  0
 23 14  1  0  0  0  0
 23 25  2  0  0  0  0
 24 23  2  0  0  0  0
M  END
>  <minimizedAffinity>
-5.02842712

$$$$

 OpenBabel03242512283D

 25 26  0  0  0  0  0  0  0  0999 V2000
   35.5920   29.2970   40.1130 C   0  0  0  0  0  0  0  0  0  0  0  0
   34.3600   29.2410   39.9200 O   0  0  0  0  0  0  0  0  0  0  0  0
   37.4720   31.6680   38.0960 C   0  0  0  0  0  0  0  0  0  0  0  0
   37.8660   32.6250   39.0480 C   0  0  0  0  0  0  0  0  0  0  0  0
   37.4870   32.4580   40.3880 C   0  0  0  0  0  0  0  0  0  0  0  0
   36.7540   31.3680   40.6810 N   0  0  0  0  0  0  0  0  0  0  0  0
   36.3830   30.4630   39.7700 C   0  0  0  0  0  0  0  0  0  0  0  0
   36.7490   30.6260   38.4770 N   0  0  0  0  0  0  0  0  0  0  0  0
   37.8640   31.8570   36.7520 N   0  0  0  0  0  0  0  0  0  0  0  0
   38.4500   33.4800   38.7780 H   0  0  0  0  0  0  0  0  0  0  0  0
   37.7420   33.1340   41.1740 H   0  0  0  0  0  0  0  0  0  0  0  0
   38.8950   31.7470   36.7260 H   0  0  0  0  0  0  0  0  0  0  0  0
   36.9920   32.0510   36.1860 H   0  0  0  0  0  0  0  0  0  0  0  0
   36.5630   26.9690   40.0360 C   0  0  0  0  0  0  0  0  0  0  0  0
   36.1940   28.1090   40.7120 C   0  0  0  0  0  0  0  0  0  0  0  0
   36.3990   28.1700   42.0860 C   0  0  0  0  0  0  0  0  0  0  0  0
   36.1590   28.9960   42.7370 H   0  0  0  0  0  0  0  0  0  0  0  0
   36.9710   27.0560   42.6880 C   0  0  0  0  0  0  0  0  0  0  0  0
   37.1470   27.0650   43.7650 H   0  0  0  0  0  0  0  0  0  0  0  0
   37.3530   25.8880   42.0240 C   0  0  0  0  0  3  0  0  0  0  0  0
   37.1290   25.8850   40.6720 C   0  0  0  0  0  3  0  0  0  0  0  0
   35.2320   27.7470   37.9720 H   0  0  0  0  0  0  0  0  0  0  0  0
   36.2890   26.9340   38.3080 S   0  0  0  0  0  0  0  0  0  0  0  0
   35.9260   25.5270   37.8660 O   0  0  0  0  0  0  0  0  0  0  0  0
   37.4920   27.3660   37.5350 O   0  0  0  0  0  0  0  0  0  0  0  0
  1 15  1  0  0  0  0
  2  1  2  0  0  0  0
  3  8  2  0  0  0  0
  3  4  1  0  0  0  0
  4  5  2  0  0  0  0
  5  6  1  0  0  0  0
  5 11  1  0  0  0  0
  7  1  1  0  0  0  0
  7  6  2  0  0  0  0
  8  7  1  0  0  0  0
  9  3  1  0  0  0  0
 10  4  1  0  0  0  0
 12  9  1  0  0  0  0
 13  9  1  0  0  0  0
 14 21  2  0  0  0  0
 14 15  1  0  0  0  0
 15 16  2  0  0  0  0
 16 18  1  0  0  0  0
 16 17  1  0  0  0  0
 18 19  1  0  0  0  0
 20 18  2  0  0  0  0
 21 20  1  0  0  0  0
 22 23  1  0  0  0  0
 23 14  1  0  0  0  0
 24 23  2  0  0  0  0
 25 23  2  0  0  0  0
M  END
>  <minimizedAffinity>
-4.99188471

$$$$

 OpenBabel03242512283D

 25 26  0  0  0  0  0  0  0  0999 V2000
   39.0010   29.4620   40.4080 C   0  0  0  0  0  0  0  0  0  0  0  0
   39.5170   28.7180   39.5480 O   0  0  0  0  0  0  0  0  0  0  0  0
   38.0760   32.9600   40.0460 C   0  0  0  0  0  0  0  0  0  0  0  0
   39.2970   33.6180   40.2760 C   0  0  0  0  0  0  0  0  0  0  0  0
   40.4440   32.8610   40.5560 C   0  0  0  0  0  0  0  0  0  0  0  0
   40.2960   31.5230   40.5880 N   0  0  0  0  0  0  0  0  0  0  0  0
   39.1320   30.9050   40.3680 C   0  0  0  0  0  0  0  0  0  0  0  0
   38.0260   31.6380   40.0970 N   0  0  0  0  0  0  0  0  0  0  0  0
   36.9340   33.7430   39.7650 N   0  0  0  0  0  0  0  0  0  0  0  0
   39.3770   34.6840   40.2430 H   0  0  0  0  0  0  0  0  0  0  0  0
   41.4090   33.2770   40.7430 H   0  0  0  0  0  0  0  0  0  0  0  0
   37.0970   34.1850   38.8410 H   0  0  0  0  0  0  0  0  0  0  0  0
   36.2650   33.6400   40.5780 H   0  0  0  0  0  0  0  0  0  0  0  0
   36.9520   28.3440   41.3690 C   0  0  0  0  0  0  0  0  0  0  0  0
   38.2520   28.7860   41.4630 C   0  0  0  0  0  0  0  0  0  0  0  0
   38.9430   28.5870   42.6540 C   0  0  0  0  0  0  0  0  0  0  0  0
   39.9590   28.8800   42.8650 H   0  0  0  0  0  0  0  0  0  0  0  0
   38.2600   27.9460   43.6790 C   0  0  0  0  0  0  0  0  0  0  0  0
   38.7670   27.7720   44.6300 H   0  0  0  0  0  0  0  0  0  0  0  0
   36.9410   27.4890   43.6080 C   0  0  0  0  0  3  0  0  0  0  0  0
   36.3120   27.7110   42.4120 C   0  0  0  0  0  3  0  0  0  0  0  0
   36.7910   29.5440   39.0950 H   0  0  0  0  0  0  0  0  0  0  0  0
   36.1200   28.6140   39.8540 S   0  0  0  0  0  0  0  0  0  0  0  0
   34.7310   29.1710   40.1140 O   0  0  0  0  0  0  0  0  0  0  0  0
   35.9730   27.3580   39.0570 O   0  0  0  0  0  0  0  0  0  0  0  0
  1 15  1  0  0  0  0
  2  1  2  0  0  0  0
  3  8  2  0  0  0  0
  3  4  1  0  0  0  0
  4  5  2  0  0  0  0
  5  6  1  0  0  0  0
  5 11  1  0  0  0  0
  7  1  1  0  0  0  0
  7  6  2  0  0  0  0
  8  7  1  0  0  0  0
  9  3  1  0  0  0  0
  9 13  1  0  0  0  0
 10  4  1  0  0  0  0
 12  9  1  0  0  0  0
 14 15  2  0  0  0  0
 14 21  1  0  0  0  0
 15 16  1  0  0  0  0
 16 17  1  0  0  0  0
 16 18  2  0  0  0  0
 18 19  1  0  0  0  0
 20 18  1  0  0  0  0
 21 20  2  0  0  0  0
 22 23  1  0  0  0  0
 23 24  2  0  0  0  0
 23 14  1  0  0  0  0
 25 23  2  0  0  0  0
M  END
>  <minimizedAffinity>
-4.96875668

$$$$

 OpenBabel03242512283D

 25 26  0  0  0  0  0  0  0  0999 V2000
   37.2890   30.6360   40.9400 C   0  0  0  0  0  0  0  0  0  0  0  0
   36.2200   31.2730   41.0420 O   0  0  0  0  0  0  0  0  0  0  0  0
   39.3670   31.9270   38.2490 C   0  0  0  0  0  0  0  0  0  0  0  0
   40.5870   32.1710   38.9040 C   0  0  0  0  0  0  0  0  0  0  0  0
   40.7000   31.8920   40.2740 C   0  0  0  0  0  0  0  0  0  0  0  0
   39.6070   31.3980   40.8860 N   0  0  0  0  0  0  0  0  0  0  0  0
   38.4510   31.1690   40.2570 C   0  0  0  0  0  0  0  0  0  0  0  0
   38.3440   31.4390   38.9340 N   0  0  0  0  0  0  0  0  0  0  0  0
   39.2760   32.2150   36.8690 N   0  0  0  0  0  0  0  0  0  0  0  0
   41.4360   32.5640   38.3850 H   0  0  0  0  0  0  0  0  0  0  0  0
   41.5860   32.0470   40.8480 H   0  0  0  0  0  0  0  0  0  0  0  0
   39.8980   31.5420   36.3840 H   0  0  0  0  0  0  0  0  0  0  0  0
   38.6050   33.0240   36.7530 H   0  0  0  0  0  0  0  0  0  0  0  0
   36.9220   28.1390   40.9460 C   0  0  0  0  0  0  0  0  0  0  0  0
   37.2990   29.3130   41.5570 C   0  0  0  0  0  0  0  0  0  0  0  0
   37.7350   29.2720   42.8770 C   0  0  0  0  0  0  0  0  0  0  0  0
   38.0580   30.1090   43.4750 H   0  0  0  0  0  0  0  0  0  0  0  0
   37.7590   28.0280   43.4950 C   0  0  0  0  0  0  0  0  0  0  0  0
   38.0930   27.9540   44.5310 H   0  0  0  0  0  0  0  0  0  0  0  0
   37.3800   26.8230   42.8960 C   0  0  0  0  0  3  0  0  0  0  0  0
   36.9620   26.9250   41.5960 C   0  0  0  0  0  3  0  0  0  0  0  0
   37.1120   29.1740   38.5950 H   0  0  0  0  0  0  0  0  0  0  0  0
   36.3820   28.2360   39.2850 S   0  0  0  0  0  0  0  0  0  0  0  0
   34.9290   28.6780   39.2350 O   0  0  0  0  0  0  0  0  0  0  0  0
   36.4900   26.9250   38.5770 O   0  0  0  0  0  0  0  0  0  0  0  0
  1  2  2  0  0  0  0
  1 15  1  0  0  0  0
  3  4  2  0  0  0  0
  3  8  1  0  0  0  0
  4  5  1  0  0  0  0
  5 11  1  0  0  0  0
  5  6  2  0  0  0  0
  7  6  1  0  0  0  0
  7  1  1  0  0  0  0
  8  7  2  0  0  0  0
  9  3  1  0  0  0  0
 10  4  1  0  0  0  0
 12  9  1  0  0  0  0
 13  9  1  0  0  0  0
 14 15  2  0  0  0  0
 14 21  1  0  0  0  0
 15 16  1  0  0  0  0
 16 17  1  0  0  0  0
 16 18  2  0  0  0  0
 18 19  1  0  0  0  0
 20 18  1  0  0  0  0
 21 20  2  0  0  0  0
 22 23  1  0  0  0  0
 23 14  1  0  0  0  0
 24 23  2  0  0  0  0
 25 23  2  0  0  0  0
M  END
>  <minimizedAffinity>
-4.95510483

$$$$

 OpenBabel03242512283D

 25 26  0  0  0  0  0  0  0  0999 V2000
   39.2050   28.9230   40.2750 C   0  0  0  0  0  0  0  0  0  0  0  0
   40.3730   28.4870   40.2060 O   0  0  0  0  0  0  0  0  0  0  0  0
   39.0930   31.4850   37.6970 C   0  0  0  0  0  0  0  0  0  0  0  0
   37.7140   31.6070   37.4560 C   0  0  0  0  0  0  0  0  0  0  0  0
   36.8160   30.8090   38.1800 C   0  0  0  0  0  0  0  0  0  0  0  0
   37.3470   29.9580   39.0780 N   0  0  0  0  0  0  0  0  0  0  0  0
   38.6590   29.8480   39.3010 C   0  0  0  0  0  0  0  0  0  0  0  0
   39.5250   30.6190   38.6010 N   0  0  0  0  0  0  0  0  0  0  0  0
   39.9800   32.2980   36.9560 N   0  0  0  0  0  0  0  0  0  0  0  0
   37.3270   32.2950   36.7330 H   0  0  0  0  0  0  0  0  0  0  0  0
   35.7560   30.8370   38.0610 H   0  0  0  0  0  0  0  0  0  0  0  0
   39.8120   33.2750   37.2620 H   0  0  0  0  0  0  0  0  0  0  0  0
   40.5400   31.6670   36.3190 H   0  0  0  0  0  0  0  0  0  0  0  0
   37.6650   27.2860   41.4240 C   0  0  0  0  0  0  0  0  0  0  0  0
   38.4150   28.4400   41.4040 C   0  0  0  0  0  0  0  0  0  0  0  0
   38.4450   29.2400   42.5410 C   0  0  0  0  0  0  0  0  0  0  0  0
   38.9860   30.1640   42.6640 H   0  0  0  0  0  0  0  0  0  0  0  0
   37.7040   28.8090   43.6340 C   0  0  0  0  0  0  0  0  0  0  0  0
   37.7020   29.4090   44.5460 H   0  0  0  0  0  0  0  0  0  0  0  0
   36.9360   27.6430   43.6790 C   0  0  0  0  0  3  0  0  0  0  0  0
   36.9440   26.8950   42.5320 C   0  0  0  0  0  3  0  0  0  0  0  0
   38.7310   26.6200   39.1750 H   0  0  0  0  0  0  0  0  0  0  0  0
   37.6550   26.3090   39.9730 S   0  0  0  0  0  0  0  0  0  0  0  0
   36.4030   26.5940   39.1610 O   0  0  0  0  0  0  0  0  0  0  0  0
   37.6870   24.8460   40.2750 O   0  0  0  0  0  0  0  0  0  0  0  0
  1 15  1  0  0  0  0
  2  1  2  0  0  0  0
  3  8  1  0  0  0  0
  4  3  2  0  0  0  0
  4  5  1  0  0  0  0
  5  6  2  0  0  0  0
  6  7  1  0  0  0  0
  7  1  1  0  0  0  0
  8  7  2  0  0  0  0
  9 12  1  0  0  0  0
  9  3  1  0  0  0  0
 10  4  1  0  0  0  0
 11  5  1  0  0  0  0
 13  9  1  0  0  0  0
 14 21  1  0  0  0  0
 15 14  2  0  0  0  0
 15 16  1  0  0  0  0
 16 17  1  0  0  0  0
 16 18  2  0  0  0  0
 18 20  1  0  0  0  0
 18 19  1  0  0  0  0
 21 20  2  0  0  0  0
 22 23  1  0  0  0  0
 23 25  2  0  0  0  0
 23 14  1  0  0  0  0
 24 23  2  0  0  0  0
M  END
>  <minimizedAffinity>
-4.94762897

$$$$

 OpenBabel03242512283D

 25 26  0  0  0  0  0  0  0  0999 V2000
   36.2350   29.0430   40.6620 C   0  0  0  0  0  0  0  0  0  0  0  0
   35.0010   28.8710   40.7330 O   0  0  0  0  0  0  0  0  0  0  0  0
   37.1540   32.3320   39.4120 C   0  0  0  0  0  0  0  0  0  0  0  0
   37.9210   32.0170   38.2760 C   0  0  0  0  0  0  0  0  0  0  0  0
   38.1250   30.6710   37.9360 C   0  0  0  0  0  0  0  0  0  0  0  0
   37.5600   29.7490   38.7380 N   0  0  0  0  0  0  0  0  0  0  0  0
   36.8330   30.0570   39.8160 C   0  0  0  0  0  0  0  0  0  0  0  0
   36.6360   31.3560   40.1430 N   0  0  0  0  0  0  0  0  0  0  0  0
   36.9620   33.6940   39.7360 N   0  0  0  0  0  0  0  0  0  0  0  0
   38.3550   32.7770   37.6610 H   0  0  0  0  0  0  0  0  0  0  0  0
   38.6920   30.3440   37.0940 H   0  0  0  0  0  0  0  0  0  0  0  0
   36.3740   34.0970   38.9820 H   0  0  0  0  0  0  0  0  0  0  0  0
   37.4720   33.8840   40.6420 H   0  0  0  0  0  0  0  0  0  0  0  0
   37.4080   26.8670   41.1700 C   0  0  0  0  0  0  0  0  0  0  0  0
   37.0470   28.1560   41.4900 C   0  0  0  0  0  0  0  0  0  0  0  0
   37.4780   28.6930   42.6980 C   0  0  0  0  0  0  0  0  0  0  0  0
   37.2710   29.6830   43.0730 H   0  0  0  0  0  0  0  0  0  0  0  0
   38.2540   27.8750   43.5100 C   0  0  0  0  0  0  0  0  0  0  0  0
   38.6110   28.2590   44.4670 H   0  0  0  0  0  0  0  0  0  0  0  0
   38.6320   26.5640   43.2090 C   0  0  0  0  0  3  0  0  0  0  0  0
   38.1810   26.0890   42.0060 C   0  0  0  0  0  3  0  0  0  0  0  0
   35.7270   26.9090   39.2190 H   0  0  0  0  0  0  0  0  0  0  0  0
   36.8460   26.2310   39.6410 S   0  0  0  0  0  0  0  0  0  0  0  0
   36.4490   24.7730   39.7960 O   0  0  0  0  0  0  0  0  0  0  0  0
   37.8890   26.3140   38.5750 O   0  0  0  0  0  0  0  0  0  0  0  0
  1  2  2  0  0  0  0
  1 15  1  0  0  0  0
  3  9  1  0  0  0  0
  3  8  1  0  0  0  0
  4  3  2  0  0  0  0
  5  4  1  0  0  0  0
  5  6  2  0  0  0  0
  6  7  1  0  0  0  0
  7  8  2  0  0  0  0
  7  1  1  0  0  0  0
  9 13  1  0  0  0  0
 10  4  1  0  0  0  0
 11  5  1  0  0  0  0
 12  9  1  0  0  0  0
 14 15  2  0  0  0  0
 14 21  1  0  0  0  0
 15 16  1  0  0  0  0
 16 17  1  0  0  0  0
 16 18  2  0  0  0  0
 18 19  1  0  0  0  0
 20 18  1  0  0  0  0
 21 20  2  0  0  0  0
 22 23  1  0  0  0  0
 23 24  2  0  0  0  0
 23 14  1  0  0  0  0
 25 23  2  0  0  0  0
M  END
>  <minimizedAffinity>
-4.93789101

$$$$

 OpenBabel03242512283D

 25 26  0  0  0  0  0  0  0  0999 V2000
   37.1220   30.6200   40.5750 C   0  0  0  0  0  0  0  0  0  0  0  0
   36.2000   31.1610   41.2190 O   0  0  0  0  0  0  0  0  0  0  0  0
   39.5200   32.1160   38.2870 C   0  0  0  0  0  0  0  0  0  0  0  0
   40.4390   32.7150   39.1660 C   0  0  0  0  0  0  0  0  0  0  0  0
   40.2380   32.6070   40.5500 C   0  0  0  0  0  0  0  0  0  0  0  0
   39.1520   31.9210   40.9540 N   0  0  0  0  0  0  0  0  0  0  0  0
   38.2840   31.3540   40.1120 C   0  0  0  0  0  0  0  0  0  0  0  0
   38.4790   31.4600   38.7760 N   0  0  0  0  0  0  0  0  0  0  0  0
   39.7430   32.2380   36.8970 N   0  0  0  0  0  0  0  0  0  0  0  0
   41.2920   33.2540   38.8080 H   0  0  0  0  0  0  0  0  0  0  0  0
   40.8840   33.0300   41.2860 H   0  0  0  0  0  0  0  0  0  0  0  0
   40.6010   31.6950   36.6850 H   0  0  0  0  0  0  0  0  0  0  0  0
   38.9710   32.8420   36.4990 H   0  0  0  0  0  0  0  0  0  0  0  0
   37.4730   28.1730   41.0840 C   0  0  0  0  0  0  0  0  0  0  0  0
   36.9600   29.1930   40.3150 C   0  0  0  0  0  0  0  0  0  0  0  0
   36.2180   28.8710   39.1840 C   0  0  0  0  0  0  0  0  0  0  0  0
   35.7610   29.5640   38.4950 H   0  0  0  0  0  0  0  0  0  0  0  0
   36.0440   27.5210   38.9070 C   0  0  0  0  0  0  0  0  0  0  0  0
   35.4680   27.2280   38.0270 H   0  0  0  0  0  0  0  0  0  0  0  0
   36.5540   26.4690   39.6710 C   0  0  0  0  0  3  0  0  0  0  0  0
   37.2750   26.8450   40.7730 C   0  0  0  0  0  3  0  0  0  0  0  0
   39.1730   29.7280   42.2370 H   0  0  0  0  0  0  0  0  0  0  0  0
   38.3990   28.6210   42.4980 S   0  0  0  0  0  0  0  0  0  0  0  0
   39.3470   27.4970   42.8780 O   0  0  0  0  0  0  0  0  0  0  0  0
   37.5290   28.9110   43.6780 O   0  0  0  0  0  0  0  0  0  0  0  0
  1  2  2  0  0  0  0
  3  8  2  0  0  0  0
  3  4  1  0  0  0  0
  4  5  2  0  0  0  0
  5  6  1  0  0  0  0
  5 11  1  0  0  0  0
  7  1  1  0  0  0  0
  7  6  2  0  0  0  0
  8  7  1  0  0  0  0
  9  3  1  0  0  0  0
 10  4  1  0  0  0  0
 12  9  1  0  0  0  0
 13  9  1  0  0  0  0
 14 23  1  0  0  0  0
 15  1  1  0  0  0  0
 15 14  2  0  0  0  0
 16 15  1  0  0  0  0
 17 16  1  0  0  0  0
 18 16  2  0  0  0  0
 18 20  1  0  0  0  0
 19 18  1  0  0  0  0
 20 21  2  0  0  0  0
 21 14  1  0  0  0  0
 22 23  1  0  0  0  0
 23 24  2  0  0  0  0
 23 25  2  0  0  0  0
M  END
>  <minimizedAffinity>
-4.79912519

$$$$
