
 OpenBabel03252503343D

 25 26  0  0  0  0  0  0  0  0999 V2000
   46.7120   33.0560   40.8410 C   0  0  0  0  0  0  0  0  0  0  0  0
   46.0940   33.9400   40.1740 O   0  0  0  0  0  0  0  0  0  0  0  0
   47.6630   32.3360   40.0760 N   0  0  0  0  0  0  0  0  0  0  0  0
   48.3040   31.6590   40.5720 H   0  0  0  0  0  0  0  0  0  0  0  0
   47.3000   31.9370   36.3860 C   0  0  0  0  0  0  0  0  0  0  0  0
   47.1020   31.6900   37.7540 C   0  0  0  0  0  0  0  0  0  0  0  0
   47.7820   32.4910   38.6720 C   0  0  0  0  0  0  0  0  0  0  0  0
   48.6020   33.4750   38.2160 N   0  0  0  0  0  0  0  0  0  0  0  0
   48.7700   33.6880   36.8750 C   0  0  0  0  0  0  0  0  0  0  0  0
   48.1160   32.9150   35.9770 N   0  0  0  0  0  0  0  0  0  0  0  0
   46.7370   31.2750   35.7390 H   0  0  0  0  0  0  0  0  0  0  0  0
   46.4600   30.9220   38.1750 H   0  0  0  0  0  0  0  0  0  0  0  0
   49.3810   34.4310   36.4340 H   0  0  0  0  0  0  0  0  0  0  0  0
   47.4030   33.3860   43.1390 C   0  0  0  0  0  0  0  0  0  0  0  0
   46.5100   32.7590   42.2650 C   0  0  0  0  0  0  0  0  0  0  0  0
   45.5070   31.9230   42.7000 C   0  0  0  0  0  0  0  0  0  0  0  0
   44.8300   31.4510   41.9950 H   0  0  0  0  0  0  0  0  0  0  0  0
   45.3960   31.7040   44.0690 C   0  0  0  0  0  0  0  0  0  0  0  0
   44.6160   31.0590   44.4660 H   0  0  0  0  0  0  0  0  0  0  0  0
   46.2530   32.2990   44.9880 C   0  0  0  0  0  3  0  0  0  0  0  0
   47.2540   33.1390   44.5040 C   0  0  0  0  0  3  0  0  0  0  0  0
   49.3740   34.8700   43.6530 H   0  0  0  0  0  0  0  0  0  0  0  0
   48.6720   34.4500   42.5410 S   0  0  0  0  0  0  0  0  0  0  0  0
   48.1340   35.6580   41.8680 O   0  0  0  0  0  0  0  0  0  0  0  0
   49.6390   33.6840   41.6740 O   0  0  0  0  0  0  0  0  0  0  0  0
  1 15  1  0  0  0  0
  2  1  2  0  0  0  0
  3  4  1  0  0  0  0
  3  1  1  0  0  0  0
  5  6  1  0  0  0  0
  6 12  1  0  0  0  0
  6  7  2  0  0  0  0
  7  3  1  0  0  0  0
  8  7  1  0  0  0  0
  9  8  2  0  0  0  0
 10  5  2  0  0  0  0
 10  9  1  0  0  0  0
 11  5  1  0  0  0  0
 13  9  1  0  0  0  0
 14 21  1  0  0  0  0
 15 16  1  0  0  0  0
 15 14  2  0  0  0  0
 16 18  2  0  0  0  0
 17 16  1  0  0  0  0
 18 19  1  0  0  0  0
 18 20  1  0  0  0  0
 21 20  2  0  0  0  0
 23 14  1  0  0  0  0
 23 22  1  0  0  0  0
 24 23  2  0  0  0  0
 25 23  2  0  0  0  0
M  END
>  <minimizedAffinity>
-3.28246307

>  <minimizedRMSD>
6.06879044

$$$$
