
 OpenBabel03252503343D

 25 26  0  0  0  0  0  0  0  0999 V2000
   46.2910   33.4370   41.0220 C   0  0  0  0  0  0  0  0  0  0  0  0
   45.4060   32.6780   41.5200 O   0  0  0  0  0  0  0  0  0  0  0  0
   46.6630   34.5050   41.8780 N   0  0  0  0  0  0  0  0  0  0  0  0
   47.4720   35.1220   41.5950 H   0  0  0  0  0  0  0  0  0  0  0  0
   44.4840   36.0010   44.5080 C   0  0  0  0  0  0  0  0  0  0  0  0
   45.0940   35.8340   43.2550 C   0  0  0  0  0  0  0  0  0  0  0  0
   45.9860   34.7730   43.0940 C   0  0  0  0  0  0  0  0  0  0  0  0
   46.2300   33.9450   44.1440 N   0  0  0  0  0  0  0  0  0  0  0  0
   45.6160   34.1370   45.3520 C   0  0  0  0  0  0  0  0  0  0  0  0
   44.7510   35.1640   45.5180 N   0  0  0  0  0  0  0  0  0  0  0  0
   43.8060   36.8450   44.5520 H   0  0  0  0  0  0  0  0  0  0  0  0
   44.9370   36.4610   42.3820 H   0  0  0  0  0  0  0  0  0  0  0  0
   45.7420   33.5420   46.2170 H   0  0  0  0  0  0  0  0  0  0  0  0
   48.2710   32.9640   39.7090 C   0  0  0  0  0  0  0  0  0  0  0  0
   46.9100   33.2810   39.6990 C   0  0  0  0  0  0  0  0  0  0  0  0
   46.1910   33.4380   38.5360 C   0  0  0  0  0  0  0  0  0  0  0  0
   45.1340   33.6860   38.5630 H   0  0  0  0  0  0  0  0  0  0  0  0
   46.8670   33.2700   37.3310 C   0  0  0  0  0  0  0  0  0  0  0  0
   46.3440   33.3730   36.3830 H   0  0  0  0  0  0  0  0  0  0  0  0
   48.2180   32.9530   37.2760 C   0  0  0  0  0  3  0  0  0  0  0  0
   48.9080   32.8030   38.4780 C   0  0  0  0  0  3  0  0  0  0  0  0
   50.3550   32.1790   40.8890 H   0  0  0  0  0  0  0  0  0  0  0  0
   49.1540   32.7720   41.2220 S   0  0  0  0  0  0  0  0  0  0  0  0
   48.4600   31.8750   42.1780 O   0  0  0  0  0  0  0  0  0  0  0  0
   49.4800   34.1190   41.8170 O   0  0  0  0  0  0  0  0  0  0  0  0
  1  2  2  0  0  0  0
  1  3  1  0  0  0  0
  3  7  1  0  0  0  0
  4  3  1  0  0  0  0
  5 11  1  0  0  0  0
  5 10  1  0  0  0  0
  6  5  2  0  0  0  0
  7  6  1  0  0  0  0
  7  8  2  0  0  0  0
  8  9  1  0  0  0  0
  9 10  2  0  0  0  0
  9 13  1  0  0  0  0
 12  6  1  0  0  0  0
 14 23  1  0  0  0  0
 15 14  1  0  0  0  0
 15  1  1  0  0  0  0
 16 17  1  0  0  0  0
 16 15  2  0  0  0  0
 18 16  1  0  0  0  0
 19 18  1  0  0  0  0
 20 18  2  0  0  0  0
 20 21  1  0  0  0  0
 21 14  2  0  0  0  0
 22 23  1  0  0  0  0
 23 25  2  0  0  0  0
 23 24  2  0  0  0  0
M  END
>  <minimizedAffinity>
-4.21559715

>  <minimizedRMSD>
1.05650914

$$$$
