
 OpenBabel03252503343D

 25 26  0  0  0  0  0  0  0  0999 V2000
   46.5070   33.4120   40.9780 C   0  0  0  0  0  0  0  0  0  0  0  0
   45.4900   32.7570   41.3590 O   0  0  0  0  0  0  0  0  0  0  0  0
   46.9160   34.4040   41.9020 N   0  0  0  0  0  0  0  0  0  0  0  0
   47.8190   34.9220   41.7230 H   0  0  0  0  0  0  0  0  0  0  0  0
   44.5950   36.0420   44.3180 C   0  0  0  0  0  0  0  0  0  0  0  0
   45.2950   35.8210   43.1210 C   0  0  0  0  0  0  0  0  0  0  0  0
   46.1570   34.7270   43.0550 C   0  0  0  0  0  0  0  0  0  0  0  0
   46.2890   33.9190   44.1400 N   0  0  0  0  0  0  0  0  0  0  0  0
   45.5900   34.1630   45.2910 C   0  0  0  0  0  0  0  0  0  0  0  0
   44.7520   35.2220   45.3650 N   0  0  0  0  0  0  0  0  0  0  0  0
   43.9460   36.9080   44.2890 H   0  0  0  0  0  0  0  0  0  0  0  0
   45.2280   36.4310   42.2240 H   0  0  0  0  0  0  0  0  0  0  0  0
   45.6270   33.5860   46.1770 H   0  0  0  0  0  0  0  0  0  0  0  0
   48.5340   32.7160   39.8490 C   0  0  0  0  0  0  0  0  0  0  0  0
   47.2330   33.2100   39.7170 C   0  0  0  0  0  0  0  0  0  0  0  0
   46.6640   33.4910   38.4960 C   0  0  0  0  0  0  0  0  0  0  0  0
   45.6510   33.8740   38.4280 H   0  0  0  0  0  0  0  0  0  0  0  0
   47.4320   33.2660   37.3580 C   0  0  0  0  0  0  0  0  0  0  0  0
   47.0290   33.4620   36.3680 H   0  0  0  0  0  0  0  0  0  0  0  0
   48.7320   32.7750   37.4240 C   0  0  0  0  0  3  0  0  0  0  0  0
   49.2690   32.5050   38.6810 C   0  0  0  0  0  3  0  0  0  0  0  0
   50.3680   31.6350   41.1980 H   0  0  0  0  0  0  0  0  0  0  0  0
   49.2250   32.3700   41.4320 S   0  0  0  0  0  0  0  0  0  0  0  0
   48.3270   31.5470   42.2790 O   0  0  0  0  0  0  0  0  0  0  0  0
   49.6550   33.6470   42.1100 O   0  0  0  0  0  0  0  0  0  0  0  0
  1  2  2  0  0  0  0
  1  3  1  0  0  0  0
  3  7  1  0  0  0  0
  4  3  1  0  0  0  0
  5 10  1  0  0  0  0
  6  5  2  0  0  0  0
  7  6  1  0  0  0  0
  7  8  2  0  0  0  0
  8  9  1  0  0  0  0
  9 10  2  0  0  0  0
  9 13  1  0  0  0  0
 11  5  1  0  0  0  0
 12  6  1  0  0  0  0
 14 23  1  0  0  0  0
 15 14  1  0  0  0  0
 15  1  1  0  0  0  0
 16 15  2  0  0  0  0
 17 16  1  0  0  0  0
 18 20  2  0  0  0  0
 18 16  1  0  0  0  0
 19 18  1  0  0  0  0
 20 21  1  0  0  0  0
 21 14  2  0  0  0  0
 22 23  1  0  0  0  0
 23 25  2  0  0  0  0
 23 24  2  0  0  0  0
M  END
>  <minimizedAffinity>
-4.15200138

>  <minimizedRMSD>
1.48049378

$$$$
