
 OpenBabel03252503343D

 25 26  0  0  0  0  0  0  0  0999 V2000
   46.6400   33.1850   40.9490 C   0  0  0  0  0  0  0  0  0  0  0  0
   45.8520   33.8730   40.2320 O   0  0  0  0  0  0  0  0  0  0  0  0
   47.7840   32.7270   40.2480 N   0  0  0  0  0  0  0  0  0  0  0  0
   48.5500   32.2430   40.7910 H   0  0  0  0  0  0  0  0  0  0  0  0
   47.8680   32.1600   36.5640 C   0  0  0  0  0  0  0  0  0  0  0  0
   47.6850   31.8770   37.9260 C   0  0  0  0  0  0  0  0  0  0  0  0
   47.9330   32.8940   38.8480 C   0  0  0  0  0  0  0  0  0  0  0  0
   48.3390   34.1120   38.4010 N   0  0  0  0  0  0  0  0  0  0  0  0
   48.5070   34.3530   37.0650 C   0  0  0  0  0  0  0  0  0  0  0  0
   48.2700   33.3730   36.1630 N   0  0  0  0  0  0  0  0  0  0  0  0
   47.6540   31.3210   35.9130 H   0  0  0  0  0  0  0  0  0  0  0  0
   47.3610   30.9260   38.3410 H   0  0  0  0  0  0  0  0  0  0  0  0
   48.8130   35.2670   36.6300 H   0  0  0  0  0  0  0  0  0  0  0  0
   47.3590   33.4470   43.2470 C   0  0  0  0  0  0  0  0  0  0  0  0
   46.4460   32.8600   42.3680 C   0  0  0  0  0  0  0  0  0  0  0  0
   45.4290   32.0350   42.7940 C   0  0  0  0  0  0  0  0  0  0  0  0
   44.7350   31.5940   42.0840 H   0  0  0  0  0  0  0  0  0  0  0  0
   45.3270   31.7870   44.1590 C   0  0  0  0  0  0  0  0  0  0  0  0
   44.5370   31.1510   44.5490 H   0  0  0  0  0  0  0  0  0  0  0  0
   46.2050   32.3420   45.0830 C   0  0  0  0  0  3  0  0  0  0  0  0
   47.2200   33.1710   44.6080 C   0  0  0  0  0  3  0  0  0  0  0  0
   49.1650   35.1260   43.7740 H   0  0  0  0  0  0  0  0  0  0  0  0
   48.6470   34.4980   42.6610 S   0  0  0  0  0  0  0  0  0  0  0  0
   48.1500   35.5510   41.7420 O   0  0  0  0  0  0  0  0  0  0  0  0
   49.7630   33.6800   42.0580 O   0  0  0  0  0  0  0  0  0  0  0  0
  1 15  1  0  0  0  0
  2  1  2  0  0  0  0
  3  4  1  0  0  0  0
  3  1  1  0  0  0  0
  5  6  1  0  0  0  0
  6 12  1  0  0  0  0
  6  7  2  0  0  0  0
  7  3  1  0  0  0  0
  8  7  1  0  0  0  0
  9  8  2  0  0  0  0
 10  5  2  0  0  0  0
 10  9  1  0  0  0  0
 11  5  1  0  0  0  0
 13  9  1  0  0  0  0
 14 21  1  0  0  0  0
 15 16  1  0  0  0  0
 15 14  2  0  0  0  0
 16 18  2  0  0  0  0
 17 16  1  0  0  0  0
 18 19  1  0  0  0  0
 18 20  1  0  0  0  0
 21 20  2  0  0  0  0
 23 14  1  0  0  0  0
 23 22  1  0  0  0  0
 24 23  2  0  0  0  0
 25 23  2  0  0  0  0
M  END
>  <minimizedAffinity>
-3.43258858

>  <minimizedRMSD>
5.95697403

$$$$
