
 OpenBabel03252500483D

 31 33  0  0  0  0  0  0  0  0999 V2000
   46.8470   32.6990   46.9300 C   0  0  0  0  0  0  0  0  0  0  0  0
   46.7560   31.8360   45.8230 C   0  0  0  0  0  0  0  0  0  0  0  0
   47.4700   30.6390   45.7800 C   0  0  0  0  0  0  0  0  0  0  0  0
   48.2620   30.3490   46.8700 N   0  0  0  0  0  0  0  0  0  0  0  0
   48.3360   31.1910   47.9230 C   0  0  0  0  0  0  0  0  0  0  0  0
   47.6450   32.3330   47.9430 N   0  0  0  0  0  0  0  0  0  0  0  0
   46.3060   33.6250   46.9820 H   0  0  0  0  0  0  0  0  0  0  0  0
   47.4010   29.9730   44.9290 H   0  0  0  0  0  0  0  0  0  0  0  0
   49.1950   30.8190   49.0420 C   0  0  0  0  0  0  0  0  0  0  0  0
   49.8060   31.6920   49.8540 C   0  0  0  0  0  0  0  0  0  0  0  0
   50.6120   31.3800   50.9040 C   0  0  0  0  0  0  0  0  0  0  0  0
   50.7910   30.0500   51.1230 N   0  0  0  0  0  0  0  0  0  0  0  0
   50.1880   29.1520   50.3230 C   0  0  0  0  0  0  0  0  0  0  0  0
   49.3890   29.4840   49.2810 N   0  0  0  0  0  0  0  0  0  0  0  0
   49.6590   32.7660   49.6750 H   0  0  0  0  0  0  0  0  0  0  0  0
   51.0950   32.1040   51.5470 H   0  0  0  0  0  0  0  0  0  0  0  0
   50.3690   28.0920   50.5450 H   0  0  0  0  0  0  0  0  0  0  0  0
   45.8910   32.2350   44.7250 C   0  0  0  0  0  0  0  0  0  0  0  0
   45.2290   31.3060   44.1620 O   0  0  0  0  0  0  0  0  0  0  0  0
   46.4570   33.9480   43.1110 C   0  0  0  0  0  0  0  0  0  0  0  0
   45.7300   33.5950   44.2290 C   0  0  0  0  0  0  0  0  0  0  0  0
   44.8850   34.4970   44.8490 C   0  0  0  0  0  0  0  0  0  0  0  0
   44.3250   34.2130   45.7140 H   0  0  0  0  0  0  0  0  0  0  0  0
   44.7770   35.7660   44.3300 C   0  0  0  0  0  0  0  0  0  0  0  0
   44.1090   36.4780   44.8210 H   0  0  0  0  0  0  0  0  0  0  0  0
   45.4790   36.1970   43.2050 C   0  0  0  0  0  0  0  0  0  0  0  0
   46.2890   35.2410   42.6590 C   0  0  0  0  0  0  0  0  0  0  0  0
   47.0900   31.5640   42.3410 H   0  0  0  0  0  0  0  0  0  0  0  0
   47.5340   32.8420   42.2980 S   0  0  0  0  0  0  0  0  0  0  0  0
   48.9100   32.9390   42.9320 O   0  0  0  0  0  0  0  0  0  0  0  0
   47.7250   33.2530   40.8640 O   0  0  0  0  0  0  0  0  0  0  0  0
  1  7  1  0  0  0  0
  1  6  1  0  0  0  0
  2  1  2  0  0  0  0
  3  2  1  0  0  0  0
  3  4  2  0  0  0  0
  4  5  1  0  0  0  0
  5  6  2  0  0  0  0
  5  9  1  0  0  0  0
  8  3  1  0  0  0  0
  9 14  2  0  0  0  0
  9 10  1  0  0  0  0
 10 11  2  0  0  0  0
 11 12  1  0  0  0  0
 11 16  1  0  0  0  0
 13 17  1  0  0  0  0
 13 12  2  0  0  0  0
 14 13  1  0  0  0  0
 15 10  1  0  0  0  0
 18  2  1  0  0  0  0
 19 18  2  0  0  0  0
 20 21  1  0  0  0  0
 21 18  1  0  0  0  0
 21 22  2  0  0  0  0
 22 23  1  0  0  0  0
 24 25  1  0  0  0  0
 24 22  1  0  0  0  0
 26 24  2  0  0  0  0
 27 20  2  0  0  0  0
 27 26  1  0  0  0  0
 29 28  1  0  0  0  0
 29 30  2  0  0  0  0
 29 20  1  0  0  0  0
 31 29  2  0  0  0  0
M  END
>  <minimizedAffinity>
-5.10502577

>  <minimizedRMSD>
4.26959181

$$$$
