
 OpenBabel03252503343D

 25 26  0  0  0  0  0  0  0  0999 V2000
   46.4770   33.4590   41.1070 C   0  0  0  0  0  0  0  0  0  0  0  0
   46.0970   32.4840   41.8240 O   0  0  0  0  0  0  0  0  0  0  0  0
   46.4300   34.7050   41.7810 N   0  0  0  0  0  0  0  0  0  0  0  0
   46.8340   35.5550   41.3020 H   0  0  0  0  0  0  0  0  0  0  0  0
   44.4250   35.8770   44.6980 C   0  0  0  0  0  0  0  0  0  0  0  0
   44.9200   35.8320   43.3850 C   0  0  0  0  0  0  0  0  0  0  0  0
   45.8590   34.8490   43.0700 C   0  0  0  0  0  0  0  0  0  0  0  0
   46.2570   33.9770   44.0350 N   0  0  0  0  0  0  0  0  0  0  0  0
   45.7530   34.0500   45.3040 C   0  0  0  0  0  0  0  0  0  0  0  0
   44.8430   35.0010   45.6200 N   0  0  0  0  0  0  0  0  0  0  0  0
   43.7010   36.6660   44.8620 H   0  0  0  0  0  0  0  0  0  0  0  0
   44.6380   36.4990   42.5750 H   0  0  0  0  0  0  0  0  0  0  0  0
   46.0000   33.4130   46.1110 H   0  0  0  0  0  0  0  0  0  0  0  0
   45.9180   33.2690   38.7580 C   0  0  0  0  0  0  0  0  0  0  0  0
   46.9340   33.3720   39.7140 C   0  0  0  0  0  0  0  0  0  0  0  0
   48.2690   33.3930   39.3810 C   0  0  0  0  0  0  0  0  0  0  0  0
   49.0330   33.4730   40.1470 H   0  0  0  0  0  0  0  0  0  0  0  0
   48.5990   33.3060   38.0320 C   0  0  0  0  0  0  0  0  0  0  0  0
   49.6390   33.3280   37.7140 H   0  0  0  0  0  0  0  0  0  0  0  0
   47.6360   33.2030   37.0360 C   0  0  0  0  0  3  0  0  0  0  0  0
   46.2950   33.1850   37.4170 C   0  0  0  0  0  3  0  0  0  0  0  0
   43.5000   33.4360   38.0650 H   0  0  0  0  0  0  0  0  0  0  0  0
   44.2200   33.2460   39.2270 S   0  0  0  0  0  0  0  0  0  0  0  0
   43.8700   34.3470   40.1570 O   0  0  0  0  0  0  0  0  0  0  0  0
   43.8390   31.8880   39.7620 O   0  0  0  0  0  0  0  0  0  0  0  0
  1  3  1  0  0  0  0
  1  2  2  0  0  0  0
  3  7  1  0  0  0  0
  4  3  1  0  0  0  0
  5 11  1  0  0  0  0
  5 10  1  0  0  0  0
  6  5  2  0  0  0  0
  7  6  1  0  0  0  0
  7  8  2  0  0  0  0
  8  9  1  0  0  0  0
  9 10  2  0  0  0  0
  9 13  1  0  0  0  0
 12  6  1  0  0  0  0
 14 23  1  0  0  0  0
 14 15  1  0  0  0  0
 15  1  1  0  0  0  0
 16 15  2  0  0  0  0
 16 17  1  0  0  0  0
 18 16  1  0  0  0  0
 19 18  1  0  0  0  0
 20 21  1  0  0  0  0
 20 18  2  0  0  0  0
 21 14  2  0  0  0  0
 22 23  1  0  0  0  0
 23 25  2  0  0  0  0
 23 24  2  0  0  0  0
M  END
>  <minimizedAffinity>
-4.20127439

>  <minimizedRMSD>
1.10942209

$$$$
