
 OpenBabel03242512273D

 25 26  0  0  0  0  0  0  0  0999 V2000
   45.7850   32.8010   47.1310 C   0  0  0  0  0  0  0  0  0  0  0  0
   44.8320   33.0280   47.9060 O   0  0  0  0  0  0  0  0  0  0  0  0
   45.0370   35.0030   44.3350 C   0  0  0  0  0  0  0  0  0  0  0  0
   46.0810   34.7150   43.4390 C   0  0  0  0  0  0  0  0  0  0  0  0
   47.0480   33.7610   43.7940 C   0  0  0  0  0  0  0  0  0  0  0  0
   46.9080   33.1720   44.9960 N   0  0  0  0  0  0  0  0  0  0  0  0
   45.9120   33.4520   45.8410 C   0  0  0  0  0  0  0  0  0  0  0  0
   44.9800   34.3720   45.4980 N   0  0  0  0  0  0  0  0  0  0  0  0
   44.0750   35.9670   43.9580 N   0  0  0  0  0  0  0  0  0  0  0  0
   46.1610   35.2040   42.4910 H   0  0  0  0  0  0  0  0  0  0  0  0
   47.8720   33.4830   43.1760 H   0  0  0  0  0  0  0  0  0  0  0  0
   43.5470   35.5620   43.1620 H   0  0  0  0  0  0  0  0  0  0  0  0
   44.1870   36.8010   44.5980 H   0  0  0  0  0  0  0  0  0  0  0  0
   46.7620   30.4840   47.3410 C   0  0  0  0  0  0  0  0  0  0  0  0
   46.7700   31.8350   47.6050 C   0  0  0  0  0  0  0  0  0  0  0  0
   47.7940   32.3590   48.3880 C   0  0  0  0  0  0  0  0  0  0  0  0
   47.9230   33.3910   48.6730 H   0  0  0  0  0  0  0  0  0  0  0  0
   48.7500   31.4660   48.8560 C   0  0  0  0  0  0  0  0  0  0  0  0
   49.5680   31.8380   49.4740 H   0  0  0  0  0  0  0  0  0  0  0  0
   48.7630   30.0920   48.6020 C   0  0  0  0  0  0  0  0  0  0  0  0
   47.7320   29.6330   47.8250 C   0  0  0  0  0  0  0  0  0  0  0  0
   44.3530   30.6770   46.4510 H   0  0  0  0  0  0  0  0  0  0  0  0
   45.4590   29.8670   46.3520 S   0  0  0  0  0  0  0  0  0  0  0  0
   45.0440   28.4880   46.8360 O   0  0  0  0  0  0  0  0  0  0  0  0
   45.8440   29.7540   44.9120 O   0  0  0  0  0  0  0  0  0  0  0  0
  1 15  1  0  0  0  0
  1  2  2  0  0  0  0
  3  8  1  0  0  0  0
  4  5  1  0  0  0  0
  4  3  2  0  0  0  0
  5  6  2  0  0  0  0
  6  7  1  0  0  0  0
  7  1  1  0  0  0  0
  8  7  2  0  0  0  0
  9  3  1  0  0  0  0
  9 13  1  0  0  0  0
 10  4  1  0  0  0  0
 11  5  1  0  0  0  0
 12  9  1  0  0  0  0
 14 15  2  0  0  0  0
 14 21  1  0  0  0  0
 15 16  1  0  0  0  0
 16 17  1  0  0  0  0
 16 18  2  0  0  0  0
 18 19  1  0  0  0  0
 20 18  1  0  0  0  0
 21 20  2  0  0  0  0
 23 22  1  0  0  0  0
 23 24  2  0  0  0  0
 23 14  1  0  0  0  0
 25 23  2  0  0  0  0
M  END
>  <minimizedAffinity>
-5.04026222

>  <minimizedRMSD>
1.27579808

$$$$
