
 OpenBabel03252503273D

 28 29  0  0  0  0  0  0  0  0999 V2000
   45.0680   34.9090   42.2550 C   0  0  0  0  0  0  0  0  0  0  0  0
   46.2260   35.2800   41.5540 C   0  0  0  0  0  0  0  0  0  0  0  0
   47.4480   34.8810   42.1420 C   0  0  0  0  0  0  0  0  0  0  0  0
   47.4010   34.1970   43.2970 N   0  0  0  0  0  0  0  0  0  0  0  0
   46.2640   33.8600   43.9410 C   0  0  0  0  0  0  0  0  0  0  0  0
   45.0780   34.2280   43.4010 N   0  0  0  0  0  0  0  0  0  0  0  0
   43.4130   34.4690   40.6330 C   0  0  0  0  0  0  0  0  0  0  0  0
   44.2260   33.5460   40.2670 O   0  0  0  0  0  0  0  0  0  0  0  0
   43.7720   35.2640   41.7480 N   0  0  0  0  0  0  0  0  0  0  0  0
   46.1520   35.8230   40.6440 H   0  0  0  0  0  0  0  0  0  0  0  0
   46.3490   33.3070   44.8670 H   0  0  0  0  0  0  0  0  0  0  0  0
   43.0610   35.9550   42.0120 H   0  0  0  0  0  0  0  0  0  0  0  0
   41.0880   33.8040   40.0140 C   0  0  0  0  0  0  0  0  0  0  0  0
   42.2130   34.5380   39.8030 C   0  0  0  0  0  0  0  0  0  0  0  0
   42.3060   35.4330   38.7570 C   0  0  0  0  0  0  0  0  0  0  0  0
   43.1810   36.0340   38.5570 H   0  0  0  0  0  0  0  0  0  0  0  0
   41.2530   35.6310   37.8610 C   0  0  0  0  0  0  0  0  0  0  0  0
   41.2750   36.3180   37.0260 H   0  0  0  0  0  0  0  0  0  0  0  0
   40.1100   34.8600   38.1050 C   0  0  0  0  0  3  0  0  0  0  0  0
   39.9990   33.9590   39.1480 C   0  0  0  0  0  3  0  0  0  0  0  0
   42.0570   33.0080   42.2230 H   0  0  0  0  0  0  0  0  0  0  0  0
   41.0400   32.7030   41.3420 S   0  0  0  0  0  0  0  0  0  0  0  0
   39.7500   32.8360   42.1190 O   0  0  0  0  0  0  0  0  0  0  0  0
   41.1400   31.2580   40.9080 O   0  0  0  0  0  0  0  0  0  0  0  0
   48.6470   35.2770   41.3940 C   0  0  0  0  0  0  0  0  0  0  0  0
   49.6760   34.3710   41.6970 F   0  0  0  0  0  0  0  0  0  0  0  0
   49.0610   36.4900   41.9050 F   0  0  0  0  0  0  0  0  0  0  0  0
   48.4800   35.2710   40.0390 F   0  0  0  0  0  0  0  0  0  0  0  0
  1  6  1  0  0  0  0
  2  3  1  0  0  0  0
  2  1  2  0  0  0  0
  3  4  2  0  0  0  0
  4  5  1  0  0  0  0
  5 11  1  0  0  0  0
  6  5  2  0  0  0  0
  7  9  1  0  0  0  0
  8  7  2  0  0  0  0
  9 12  1  0  0  0  0
  9  1  1  0  0  0  0
 10  2  1  0  0  0  0
 13 22  1  0  0  0  0
 14 13  1  0  0  0  0
 14  7  1  0  0  0  0
 15 14  2  0  0  0  0
 16 15  1  0  0  0  0
 17 19  2  0  0  0  0
 17 15  1  0  0  0  0
 18 17  1  0  0  0  0
 19 20  1  0  0  0  0
 20 13  2  0  0  0  0
 22 23  2  0  0  0  0
 22 21  1  0  0  0  0
 24 22  2  0  0  0  0
 25 26  1  0  0  0  0
 25 27  1  0  0  0  0
 25  3  1  0  0  0  0
 28 25  1  0  0  0  0
M  END
>  <minimizedAffinity>
-6.31305504

>  <minimizedRMSD>
2.30466413

$$$$
