
 OpenBabel03252503273D

 28 29  0  0  0  0  0  0  0  0999 V2000
   45.0620   34.9110   42.2470 C   0  0  0  0  0  0  0  0  0  0  0  0
   46.2220   35.2800   41.5480 C   0  0  0  0  0  0  0  0  0  0  0  0
   47.4420   34.8790   42.1380 C   0  0  0  0  0  0  0  0  0  0  0  0
   47.3920   34.1950   43.2920 N   0  0  0  0  0  0  0  0  0  0  0  0
   46.2530   33.8590   43.9340 C   0  0  0  0  0  0  0  0  0  0  0  0
   45.0690   34.2290   43.3930 N   0  0  0  0  0  0  0  0  0  0  0  0
   43.4090   34.4750   40.6210 C   0  0  0  0  0  0  0  0  0  0  0  0
   44.2210   33.5510   40.2560 O   0  0  0  0  0  0  0  0  0  0  0  0
   43.7680   35.2680   41.7370 N   0  0  0  0  0  0  0  0  0  0  0  0
   46.1500   35.8250   40.6390 H   0  0  0  0  0  0  0  0  0  0  0  0
   46.3350   33.3050   44.8600 H   0  0  0  0  0  0  0  0  0  0  0  0
   43.0570   35.9600   42.0000 H   0  0  0  0  0  0  0  0  0  0  0  0
   41.0840   33.8150   39.9980 C   0  0  0  0  0  0  0  0  0  0  0  0
   42.2110   34.5470   39.7900 C   0  0  0  0  0  0  0  0  0  0  0  0
   42.3080   35.4420   38.7440 C   0  0  0  0  0  0  0  0  0  0  0  0
   43.1830   36.0420   38.5460 H   0  0  0  0  0  0  0  0  0  0  0  0
   41.2560   35.6420   37.8450 C   0  0  0  0  0  0  0  0  0  0  0  0
   41.2820   36.3300   37.0120 H   0  0  0  0  0  0  0  0  0  0  0  0
   40.1110   34.8730   38.0870 C   0  0  0  0  0  3  0  0  0  0  0  0
   39.9970   33.9720   39.1300 C   0  0  0  0  0  3  0  0  0  0  0  0
   41.9470   33.1070   42.2790 H   0  0  0  0  0  0  0  0  0  0  0  0
   41.0300   32.7140   41.3260 S   0  0  0  0  0  0  0  0  0  0  0  0
   39.6780   32.7320   42.0010 O   0  0  0  0  0  0  0  0  0  0  0  0
   41.2900   31.2830   40.9100 O   0  0  0  0  0  0  0  0  0  0  0  0
   48.6430   35.2740   41.3920 C   0  0  0  0  0  0  0  0  0  0  0  0
   49.6700   34.3660   41.6960 F   0  0  0  0  0  0  0  0  0  0  0  0
   49.0590   36.4860   41.9050 F   0  0  0  0  0  0  0  0  0  0  0  0
   48.4780   35.2690   40.0370 F   0  0  0  0  0  0  0  0  0  0  0  0
  1  6  1  0  0  0  0
  2  3  1  0  0  0  0
  2  1  2  0  0  0  0
  3  4  2  0  0  0  0
  4  5  1  0  0  0  0
  5 11  1  0  0  0  0
  6  5  2  0  0  0  0
  7  9  1  0  0  0  0
  8  7  2  0  0  0  0
  9 12  1  0  0  0  0
  9  1  1  0  0  0  0
 10  2  1  0  0  0  0
 13 22  1  0  0  0  0
 14 13  1  0  0  0  0
 14  7  1  0  0  0  0
 15 14  2  0  0  0  0
 16 15  1  0  0  0  0
 17 19  2  0  0  0  0
 17 15  1  0  0  0  0
 18 17  1  0  0  0  0
 19 20  1  0  0  0  0
 20 13  2  0  0  0  0
 22 23  2  0  0  0  0
 22 21  1  0  0  0  0
 24 22  2  0  0  0  0
 25 26  1  0  0  0  0
 25 27  1  0  0  0  0
 25  3  1  0  0  0  0
 28 25  1  0  0  0  0
M  END
>  <minimizedAffinity>
-6.28982449

>  <minimizedRMSD>
1.90185797

$$$$
