
 OpenBabel03252507463D

 40 42  0  0  0  0  0  0  0  0999 V2000
   48.4220   33.9230   41.4110 C   0  0  0  0  0  0  0  0  0  0  0  0
   49.0070   32.7400   40.9970 C   0  0  0  0  0  0  0  0  0  0  0  0
   50.2950   32.3960   41.3900 C   0  0  0  0  0  0  0  0  0  0  0  0
   50.9510   33.2720   42.1960 N   0  0  0  0  0  0  0  0  0  0  0  0
   50.3460   34.4310   42.5870 C   0  0  0  0  0  0  0  0  0  0  0  0
   49.1190   34.7190   42.1890 N   0  0  0  0  0  0  0  0  0  0  0  0
   50.8070   31.5130   41.1120 H   0  0  0  0  0  0  0  0  0  0  0  0
   50.8110   35.1720   43.2270 H   0  0  0  0  0  0  0  0  0  0  0  0
   47.0650   34.1840   40.9220 C   0  0  0  0  0  0  0  0  0  0  0  0
   47.1160   34.7190   39.9250 H   0  0  0  0  0  0  0  0  0  0  0  0
   46.4860   33.2660   40.7140 H   0  0  0  0  0  0  0  0  0  0  0  0
   46.2480   35.0250   41.8650 C   0  0  0  0  0  0  0  0  0  0  0  0
   46.5260   36.0890   41.7140 H   0  0  0  0  0  0  0  0  0  0  0  0
   46.5570   34.7040   42.9000 H   0  0  0  0  0  0  0  0  0  0  0  0
   44.7880   34.9500   41.6600 C   0  0  0  0  0  0  0  0  0  0  0  0
   43.9120   35.3710   42.6960 C   0  0  0  0  0  0  0  0  0  0  0  0
   42.2480   35.0930   41.9770 S   0  0  0  0  0  0  0  0  0  0  0  0
   43.0350   34.4410   40.3630 C   0  0  0  0  0  0  0  0  0  0  0  0
   44.1500   34.5290   40.5980 N   0  0  0  0  0  0  0  0  0  0  0  0
   44.1720   35.7590   43.6690 H   0  0  0  0  0  0  0  0  0  0  0  0
   42.2860   34.0080   39.2720 O   0  0  0  0  0  0  0  0  0  0  0  0
   40.3460   34.5540   37.5560 O   0  0  0  0  0  0  0  0  0  0  0  0
   41.4520   35.1870   38.3820 P   0  0  0  0  0  0  0  0  0  0  0  0
   40.7690   36.2860   39.4660 O   0  0  0  0  0  0  0  0  0  0  0  0
   40.3650   37.0720   39.0080 H   0  0  0  0  0  0  0  0  0  0  0  0
   42.5440   36.0200   37.3860 O   0  0  0  0  0  0  0  0  0  0  0  0
   43.0610   35.3300   36.9150 H   0  0  0  0  0  0  0  0  0  0  0  0
   48.1170   31.6050   39.9050 S   0  0  0  0  0  0  0  0  0  0  0  0
   46.1730   29.9870   40.7580 C   0  0  0  0  0  0  0  0  0  0  0  0
   47.5590   30.1500   40.7560 C   0  0  0  0  0  0  0  0  0  0  0  0
   48.3000   29.1840   41.4010 C   0  0  0  0  0  0  0  0  0  0  0  0
   49.3510   29.3370   41.3840 H   0  0  0  0  0  0  0  0  0  0  0  0
   47.7490   28.0920   42.0310 C   0  0  0  0  0  0  0  0  0  0  0  0
   48.4130   27.3890   42.5090 H   0  0  0  0  0  0  0  0  0  0  0  0
   46.3800   27.9280   42.0350 C   0  0  0  0  0  3  0  0  0  0  0  0
   45.6090   28.8890   41.3920 C   0  0  0  0  0  3  0  0  0  0  0  0
   45.3910   32.2850   39.8420 H   0  0  0  0  0  0  0  0  0  0  0  0
   44.9610   31.0170   40.0470 S   0  0  0  0  0  0  0  0  0  0  0  0
   43.7120   31.0400   40.8960 O   0  0  0  0  0  0  0  0  0  0  0  0
   44.5560   30.4390   38.7180 O   0  0  0  0  0  0  0  0  0  0  0  0
  1  6  1  0  0  0  0
  2  3  1  0  0  0  0
  2  1  2  0  0  0  0
  3  4  2  0  0  0  0
  4  5  1  0  0  0  0
  5  8  1  0  0  0  0
  6  5  2  0  0  0  0
  7  3  1  0  0  0  0
  9  1  1  0  0  0  0
  9 12  1  0  0  0  0
 10  9  1  0  0  0  0
 11  9  1  0  0  0  0
 12 14  1  0  0  0  0
 13 12  1  0  0  0  0
 15 12  1  0  0  0  0
 15 16  2  0  0  0  0
 16 20  1  0  0  0  0
 17 16  1  0  0  0  0
 18 19  2  0  0  0  0
 18 17  1  0  0  0  0
 19 15  1  0  0  0  0
 21 18  1  0  0  0  0
 22 23  2  0  0  0  0
 23 21  1  0  0  0  0
 23 24  1  0  0  0  0
 25 24  1  0  0  0  0
 26 23  1  0  0  0  0
 27 26  1  0  0  0  0
 28 30  1  0  0  0  0
 28  2  1  0  0  0  0
 29 36  1  0  0  0  0
 30 29  2  0  0  0  0
 30 31  1  0  0  0  0
 31 33  2  0  0  0  0
 32 31  1  0  0  0  0
 33 35  1  0  0  0  0
 33 34  1  0  0  0  0
 36 35  2  0  0  0  0
 37 38  1  0  0  0  0
 38 29  1  0  0  0  0
 38 39  2  0  0  0  0
 40 38  2  0  0  0  0
M  END
>  <minimizedAffinity>
-4.14936733

>  <minimizedRMSD>
0.811497927

$$$$
