
 OpenBabel03252508033D

 45 48  0  0  1  0  0  0  0  0999 V2000
   42.0430   33.3200   40.9650 C   0  0  0  0  0  0  0  0  0  0  0  0
   42.7930   34.4150   41.2810 C   0  0  0  0  0  0  0  0  0  0  0  0
   42.1330   35.6570   41.3750 C   0  0  0  0  0  0  0  0  0  0  0  0
   40.7870   35.8180   41.1660 C   0  0  0  0  0  0  0  0  0  0  0  0
   40.0440   34.7160   40.8510 C   0  0  0  0  0  0  0  0  0  0  0  0
   40.6710   33.5110   40.7580 C   0  0  0  0  0  0  0  0  0  0  0  0
   42.6520   36.5830   41.6120 H   0  0  0  0  0  0  0  0  0  0  0  0
   40.3020   36.7550   41.2400 H   0  0  0  0  0  0  0  0  0  0  0  0
   38.9980   34.7710   40.6780 H   0  0  0  0  0  0  0  0  0  0  0  0
   40.0590   32.6340   40.5030 H   0  0  0  0  0  0  0  0  0  0  0  0
   42.6740   31.7630   40.9120 S   0  0  0  0  0  0  0  0  0  0  0  0
   41.4110   30.9590   40.4650 O   0  0  0  0  0  0  0  0  0  0  0  0
   43.0640   31.2490   42.2430 O   0  0  0  0  0  0  0  0  0  0  0  0
   44.8370   30.4800   40.0890 C   0  0  0  0  0  0  0  0  0  0  0  0
   43.5530   30.9570   39.7300 C   0  0  0  0  0  0  0  0  0  0  0  0
   43.2260   30.5770   38.4020 C   0  0  0  0  0  0  0  0  0  0  0  0
   42.2010   30.9190   38.1520 H   0  0  0  0  0  0  0  0  0  0  0  0
   43.9140   29.8610   37.4480 C   0  0  0  0  0  0  0  0  0  0  0  0
   43.4670   29.6980   36.5050 H   0  0  0  0  0  0  0  0  0  0  0  0
   45.1050   29.4920   37.9600 C   0  0  0  0  0  3  0  0  0  0  0  0
   45.6020   29.7540   39.2060 C   0  0  0  0  0  3  0  0  0  0  0  0
   44.7310   31.3390   42.5550 H   0  0  0  0  0  0  0  0  0  0  0  0
   45.5650   30.7780   41.6580 S   0  0  0  0  0  0  0  0  0  0  0  0
   46.9060   31.4820   41.5330 O   0  0  0  0  0  0  0  0  0  0  0  0
   45.9620   29.4600   42.3160 O   0  0  0  0  0  0  0  0  0  0  0  0
   44.2230   34.3510   41.5170 C   0  0  0  0  0  0  0  0  0  0  0  0
   45.0970   34.2060   40.6070 O   0  0  0  0  0  0  0  0  0  0  0  0
   44.5720   34.4700   42.9090 C   0  0  0  0  0  0  0  0  0  0  0  0
   44.3080   35.7490   43.5110 C   0  0  0  0  0  0  0  0  0  0  0  0
   44.6290   35.8820   44.8510 C   0  0  0  0  0  0  0  0  0  0  0  0
   45.1670   34.8140   45.5030 N   0  0  0  0  0  0  0  0  0  0  0  0
   45.3980   33.6160   44.8780 C   0  0  0  0  0  0  0  0  0  0  0  0
   45.1000   33.4880   43.6330 N   0  0  0  0  0  0  0  0  0  0  0  0
   43.8980   36.6210   43.0780 H   0  0  0  0  0  0  0  0  0  0  0  0
   44.4770   36.7940   45.4130 H   0  0  0  0  0  0  0  0  0  0  0  0
   45.9760   32.5120   45.6670 C   0  0  1  0  0  0  0  0  0  0  0  0
   46.9230   32.8350   46.8020 C   0  0  0  0  0  0  0  0  0  0  0  0
   45.5020   32.4400   47.0750 C   0  0  1  0  0  0  0  0  0  0  0  0
   46.1580   31.5610   45.1470 H   0  0  0  0  0  0  0  0  0  0  0  0
   47.2210   33.9160   46.8110 H   0  0  0  0  0  0  0  0  0  0  0  0
   47.7450   32.1240   46.9750 H   0  0  0  0  0  0  0  0  0  0  0  0
   45.4100   31.4210   47.5150 H   0  0  0  0  0  0  0  0  0  0  0  0
   44.7290   33.5280   47.6380 N   0  0  0  0  0  0  0  0  0  0  0  0
   44.0750   33.1630   48.3650 H   0  0  0  0  0  0  0  0  0  0  0  0
   45.2850   34.3360   47.9440 H   0  0  0  0  0  0  0  0  0  0  0  0
  1  2  1  0  0  0  0
  2  3  2  0  0  0  0
  2 26  1  0  0  0  0
  3  7  1  0  0  0  0
  4  8  1  0  0  0  0
  4  3  1  0  0  0  0
  5  4  2  0  0  0  0
  6  5  1  0  0  0  0
  6  1  2  0  0  0  0
  9  5  1  0  0  0  0
 10  6  1  0  0  0  0
 11  1  1  0  0  0  0
 11 13  2  0  0  0  0
 12 11  2  0  0  0  0
 14 23  1  0  0  0  0
 15 14  1  0  0  0  0
 15 11  1  0  0  0  0
 16 15  2  0  0  0  0
 17 16  1  0  0  0  0
 18 20  2  0  0  0  0
 18 16  1  0  0  0  0
 19 18  1  0  0  0  0
 20 21  1  0  0  0  0
 21 14  2  0  0  0  0
 23 25  2  0  0  0  0
 23 22  1  0  0  0  0
 24 23  2  0  0  0  0
 26 28  1  0  0  0  0
 27 26  2  0  0  0  0
 28 29  2  0  0  0  0
 28 33  1  0  0  0  0
 29 30  1  0  0  0  0
 30 35  1  0  0  0  0
 30 31  2  0  0  0  0
 32 31  1  0  0  0  0
 32 36  1  0  0  0  0
 33 32  2  0  0  0  0
 34 29  1  0  0  0  0
 36 39  1  6  0  0  0
 36 37  1  0  0  0  0
 36 38  1  0  0  0  0
 37 40  1  0  0  0  0
 37 41  1  0  0  0  0
 37 38  1  0  0  0  0
 38 42  1  1  0  0  0
 38 43  1  0  0  0  0
 43 45  1  0  0  0  0
 43 44  1  0  0  0  0
M  END
>  <minimizedAffinity>
-5.60707569

>  <minimizedRMSD>
2.13750052

$$$$
