
 OpenBabel03252503103D

 30 32  0  0  1  0  0  0  0  0999 V2000
   36.2880   28.9530   38.4310 C   0  0  0  0  0  0  0  0  0  0  0  0
   36.8820   30.0240   39.1330 C   0  0  0  0  0  0  0  0  0  0  0  0
   37.4250   31.0140   38.3310 C   0  0  0  0  0  0  0  0  0  0  0  0
   37.3910   30.9670   36.9730 N   0  0  0  0  0  0  0  0  0  0  0  0
   36.8010   29.9040   36.3440 C   0  0  0  0  0  0  0  0  0  0  0  0
   36.2530   28.9020   37.0730 N   0  0  0  0  0  0  0  0  0  0  0  0
   35.8220   28.1030   38.9090 H   0  0  0  0  0  0  0  0  0  0  0  0
   36.8020   29.9190   35.2650 H   0  0  0  0  0  0  0  0  0  0  0  0
   38.0190   32.1150   38.9390 C   0  0  0  0  0  0  0  0  0  0  0  0
   37.5230   33.1980   39.6340 C   0  0  0  0  0  0  0  0  0  0  0  0
   38.3140   34.1510   40.1100 C   0  0  0  0  0  0  0  0  0  0  0  0
   39.6690   34.0250   39.8860 C   0  0  0  0  0  0  0  0  0  0  0  0
   39.8020   32.4140   38.9210 S   0  0  0  0  0  0  0  0  0  0  0  0
   36.5300   33.4440   39.9020 H   0  0  0  0  0  0  0  0  0  0  0  0
   38.3230   35.0650   40.6500 H   0  0  0  0  0  0  0  0  0  0  0  0
   40.7440   34.4270   40.0020 H   0  0  0  0  0  0  0  0  0  0  0  0
   36.8360   29.9730   40.5300 C   0  0  2  0  0  3  0  0  0  0  0  0
   36.0470   30.9170   41.0380 O   0  0  0  0  0  1  0  0  0  0  0  0
   38.6540   29.0440   42.1500 C   0  0  0  0  0  0  0  0  0  0  0  0
   37.4320   29.1720   41.6180 C   0  0  0  0  0  0  0  0  0  0  0  0
   36.5250   28.2660   42.2290 C   0  0  0  0  0  0  0  0  0  0  0  0
   35.4530   28.2130   41.9410 H   0  0  0  0  0  0  0  0  0  0  0  0
   36.7740   27.3480   43.2280 C   0  0  0  0  0  0  0  0  0  0  0  0
   36.0590   26.6890   43.6530 H   0  0  0  0  0  0  0  0  0  0  0  0
   38.0660   27.3180   43.6790 C   0  0  0  0  0  3  0  0  0  0  0  0
   39.0080   28.1640   43.1430 C   0  0  0  0  0  3  0  0  0  0  0  0
   40.1030   30.4190   40.4420 H   0  0  0  0  0  0  0  0  0  0  0  0
   39.9120   30.1190   41.7110 S   0  0  0  0  0  0  0  0  0  0  0  0
   41.1890   29.6950   42.3770 O   0  0  0  0  0  0  0  0  0  0  0  0
   39.6340   31.5040   42.3690 O   0  0  0  0  0  0  0  0  0  0  0  0
  1  7  1  0  0  0  0
  1  2  1  0  0  0  0
  2 17  1  0  0  0  0
  3  9  1  0  0  0  0
  3  2  2  0  0  0  0
  4  3  1  0  0  0  0
  5  4  2  0  0  0  0
  5  6  1  0  0  0  0
  6  1  2  0  0  0  0
  8  5  1  0  0  0  0
  9 10  2  0  0  0  0
 10 14  1  0  0  0  0
 10 11  1  0  0  0  0
 11 15  1  0  0  0  0
 12 16  1  0  0  0  0
 12 11  2  0  0  0  0
 13  9  1  0  0  0  0
 13 12  1  0  0  0  0
 17 18  1  1  0  0  0
 17 20  1  0  0  0  0
 19 26  1  0  0  0  0
 20 19  2  0  0  0  0
 20 21  1  0  0  0  0
 21 23  2  0  0  0  0
 22 21  1  0  0  0  0
 23 24  1  0  0  0  0
 23 25  1  0  0  0  0
 26 25  2  0  0  0  0
 27 28  1  0  0  0  0
 28 19  1  0  0  0  0
 28 30  2  0  0  0  0
 28 29  2  0  0  0  0
M  END
>  <minimizedAffinity>
-5.54891062

$$$$

 OpenBabel03252503103D

 30 32  0  0  1  0  0  0  0  0999 V2000
   39.4710   32.2950   41.0530 C   0  0  0  0  0  0  0  0  0  0  0  0
   38.5790   31.2430   40.7490 C   0  0  0  0  0  0  0  0  0  0  0  0
   37.4450   31.6280   40.0530 C   0  0  0  0  0  0  0  0  0  0  0  0
   37.2020   32.9150   39.6880 N   0  0  0  0  0  0  0  0  0  0  0  0
   38.1020   33.8940   40.0090 C   0  0  0  0  0  0  0  0  0  0  0  0
   39.2320   33.5820   40.6900 N   0  0  0  0  0  0  0  0  0  0  0  0
   40.3990   32.1610   41.5920 H   0  0  0  0  0  0  0  0  0  0  0  0
   37.8600   34.8980   39.6940 H   0  0  0  0  0  0  0  0  0  0  0  0
   36.5170   30.6550   39.6990 C   0  0  0  0  0  0  0  0  0  0  0  0
   35.4460   30.0820   40.3530 C   0  0  0  0  0  0  0  0  0  0  0  0
   34.7070   29.1330   39.7940 C   0  0  0  0  0  0  0  0  0  0  0  0
   35.0440   28.7290   38.5190 C   0  0  0  0  0  0  0  0  0  0  0  0
   36.5350   29.8020   38.1050 S   0  0  0  0  0  0  0  0  0  0  0  0
   35.0470   30.2750   41.3130 H   0  0  0  0  0  0  0  0  0  0  0  0
   33.8730   28.4940   39.9510 H   0  0  0  0  0  0  0  0  0  0  0  0
   34.8570   28.0600   37.5990 H   0  0  0  0  0  0  0  0  0  0  0  0
   38.9470   29.9570   41.1560 C   0  0  2  0  0  3  0  0  0  0  0  0
   40.2610   29.7630   41.0700 O   0  0  0  0  0  1  0  0  0  0  0  0
   38.0060   27.5260   41.1330 C   0  0  0  0  0  0  0  0  0  0  0  0
   38.2850   28.7310   41.6470 C   0  0  0  0  0  0  0  0  0  0  0  0
   37.7540   28.8500   42.9580 C   0  0  0  0  0  0  0  0  0  0  0  0
   37.8790   29.7700   43.5690 H   0  0  0  0  0  0  0  0  0  0  0  0
   37.0380   27.9170   43.6790 C   0  0  0  0  0  0  0  0  0  0  0  0
   36.6600   28.0530   44.6610 H   0  0  0  0  0  0  0  0  0  0  0  0
   36.8200   26.7290   43.0350 C   0  0  0  0  0  3  0  0  0  0  0  0
   37.3020   26.5300   41.7630 C   0  0  0  0  0  3  0  0  0  0  0  0
   38.8660   27.9550   38.6860 H   0  0  0  0  0  0  0  0  0  0  0  0
   38.6580   27.0510   39.6230 S   0  0  0  0  0  0  0  0  0  0  0  0
   37.8900   25.8750   39.0940 O   0  0  0  0  0  0  0  0  0  0  0  0
   40.0750   26.4480   39.8610 O   0  0  0  0  0  0  0  0  0  0  0  0
  1  7  1  0  0  0  0
  2  1  1  0  0  0  0
  2 17  1  0  0  0  0
  3  2  2  0  0  0  0
  4  5  2  0  0  0  0
  4  3  1  0  0  0  0
  5  6  1  0  0  0  0
  6  1  2  0  0  0  0
  8  5  1  0  0  0  0
  9  3  1  0  0  0  0
  9 10  2  0  0  0  0
 10 14  1  0  0  0  0
 11 15  1  0  0  0  0
 11 10  1  0  0  0  0
 12 11  2  0  0  0  0
 13 12  1  0  0  0  0
 13  9  1  0  0  0  0
 16 12  1  0  0  0  0
 17 18  1  6  0  0  0
 17 20  1  0  0  0  0
 19 20  2  0  0  0  0
 19 26  1  0  0  0  0
 20 21  1  0  0  0  0
 21 22  1  0  0  0  0
 21 23  2  0  0  0  0
 23 24  1  0  0  0  0
 25 23  1  0  0  0  0
 26 25  2  0  0  0  0
 27 28  1  0  0  0  0
 28 30  2  0  0  0  0
 28 19  1  0  0  0  0
 29 28  2  0  0  0  0
M  END
>  <minimizedAffinity>
-5.31342936

$$$$

 OpenBabel03252503103D

 30 32  0  0  1  0  0  0  0  0999 V2000
   35.6760   28.1370   37.6670 C   0  0  0  0  0  0  0  0  0  0  0  0
   36.2330   29.0260   38.6130 C   0  0  0  0  0  0  0  0  0  0  0  0
   36.9340   30.0890   38.0670 C   0  0  0  0  0  0  0  0  0  0  0  0
   37.0790   30.2690   36.7280 N   0  0  0  0  0  0  0  0  0  0  0  0
   36.5180   29.3760   35.8560 C   0  0  0  0  0  0  0  0  0  0  0  0
   35.8200   28.3140   36.3270 N   0  0  0  0  0  0  0  0  0  0  0  0
   35.1030   27.2590   37.9300 H   0  0  0  0  0  0  0  0  0  0  0  0
   36.6640   29.5680   34.8050 H   0  0  0  0  0  0  0  0  0  0  0  0
   37.5040   31.0220   38.9250 C   0  0  0  0  0  0  0  0  0  0  0  0
   37.0390   32.1830   39.5090 C   0  0  0  0  0  0  0  0  0  0  0  0
   37.8040   32.9300   40.2940 C   0  0  0  0  0  0  0  0  0  0  0  0
   39.0990   32.5070   40.5140 C   0  0  0  0  0  0  0  0  0  0  0  0
   39.2100   30.9160   39.5130 S   0  0  0  0  0  0  0  0  0  0  0  0
   36.0880   32.6420   39.4580 H   0  0  0  0  0  0  0  0  0  0  0  0
   37.8210   33.8140   40.8820 H   0  0  0  0  0  0  0  0  0  0  0  0
   40.1310   32.6570   41.0060 H   0  0  0  0  0  0  0  0  0  0  0  0
   35.9970   28.7490   39.9630 C   0  0  2  0  0  3  0  0  0  0  0  0
   34.7820   29.1320   40.3470 O   0  0  0  0  0  1  0  0  0  0  0  0
   37.0980   26.9240   41.4630 C   0  0  0  0  0  0  0  0  0  0  0  0
   36.7260   28.1590   41.1040 C   0  0  0  0  0  0  0  0  0  0  0  0
   37.0810   29.0980   42.1080 C   0  0  0  0  0  0  0  0  0  0  0  0
   36.8700   30.1850   42.0060 H   0  0  0  0  0  0  0  0  0  0  0  0
   37.7140   28.8670   43.3110 C   0  0  0  0  0  0  0  0  0  0  0  0
   37.9580   29.6070   44.0320 H   0  0  0  0  0  0  0  0  0  0  0  0
   38.0360   27.5600   43.5550 C   0  0  0  0  0  3  0  0  0  0  0  0
   37.7300   26.5860   42.6350 C   0  0  0  0  0  3  0  0  0  0  0  0
   36.2050   25.7540   39.2850 H   0  0  0  0  0  0  0  0  0  0  0  0
   36.9340   25.6130   40.3740 S   0  0  0  0  0  0  0  0  0  0  0  0
   36.5580   24.3740   41.1340 O   0  0  0  0  0  0  0  0  0  0  0  0
   38.3440   25.2500   39.8170 O   0  0  0  0  0  0  0  0  0  0  0  0
  1  7  1  0  0  0  0
  1  2  1  0  0  0  0
  2 17  1  0  0  0  0
  3  2  2  0  0  0  0
  3  9  1  0  0  0  0
  4  3  1  0  0  0  0
  5  6  1  0  0  0  0
  5  4  2  0  0  0  0
  6  1  2  0  0  0  0
  8  5  1  0  0  0  0
  9 10  2  0  0  0  0
  9 13  1  0  0  0  0
 10 11  1  0  0  0  0
 11 12  2  0  0  0  0
 11 15  1  0  0  0  0
 12 16  1  0  0  0  0
 13 12  1  0  0  0  0
 14 10  1  0  0  0  0
 17 18  1  1  0  0  0
 17 20  1  0  0  0  0
 19 26  1  0  0  0  0
 20 19  2  0  0  0  0
 20 21  1  0  0  0  0
 21 23  2  0  0  0  0
 22 21  1  0  0  0  0
 23 25  1  0  0  0  0
 23 24  1  0  0  0  0
 26 25  2  0  0  0  0
 27 28  1  0  0  0  0
 28 29  2  0  0  0  0
 28 19  1  0  0  0  0
 30 28  2  0  0  0  0
M  END
>  <minimizedAffinity>
-5.29183674

$$$$

 OpenBabel03252503103D

 30 32  0  0  1  0  0  0  0  0999 V2000
   35.6870   26.5580   38.2190 C   0  0  0  0  0  0  0  0  0  0  0  0
   36.0850   27.3790   39.2960 C   0  0  0  0  0  0  0  0  0  0  0  0
   36.8150   26.7320   40.2800 C   0  0  0  0  0  0  0  0  0  0  0  0
   37.1270   25.4110   40.2200 N   0  0  0  0  0  0  0  0  0  0  0  0
   36.7160   24.6620   39.1510 C   0  0  0  0  0  0  0  0  0  0  0  0
   35.9980   25.2370   38.1560 N   0  0  0  0  0  0  0  0  0  0  0  0
   35.1130   26.9100   37.3730 H   0  0  0  0  0  0  0  0  0  0  0  0
   36.9930   23.6190   39.1550 H   0  0  0  0  0  0  0  0  0  0  0  0
   37.2600   27.4670   41.3730 C   0  0  0  0  0  0  0  0  0  0  0  0
   36.7040   27.7800   42.5970 C   0  0  0  0  0  0  0  0  0  0  0  0
   37.3370   28.5350   43.4840 C   0  0  0  0  0  0  0  0  0  0  0  0
   38.5890   29.0060   43.1440 C   0  0  0  0  0  0  0  0  0  0  0  0
   38.8630   28.3030   41.4200 S   0  0  0  0  0  0  0  0  0  0  0  0
   35.7760   27.5010   43.0190 H   0  0  0  0  0  0  0  0  0  0  0  0
   37.2600   28.9670   44.4510 H   0  0  0  0  0  0  0  0  0  0  0  0
   39.5330   29.6150   43.4030 H   0  0  0  0  0  0  0  0  0  0  0  0
   35.7240   28.7290   39.2360 C   0  0  2  0  0  3  0  0  0  0  0  0
   34.4200   28.9060   39.4360 O   0  0  0  0  0  1  0  0  0  0  0  0
   36.9830   30.6160   37.9530 C   0  0  0  0  0  0  0  0  0  0  0  0
   36.3810   30.0300   38.9960 C   0  0  0  0  0  0  0  0  0  0  0  0
   36.4590   30.8570   40.1460 C   0  0  0  0  0  0  0  0  0  0  0  0
   36.0130   30.5620   41.1210 H   0  0  0  0  0  0  0  0  0  0  0  0
   37.0500   32.0960   40.2710 C   0  0  0  0  0  0  0  0  0  0  0  0
   37.0820   32.6790   41.1580 H   0  0  0  0  0  0  0  0  0  0  0  0
   37.6330   32.5790   39.1310 C   0  0  0  0  0  3  0  0  0  0  0  0
   37.6020   31.8420   37.9710 C   0  0  0  0  0  3  0  0  0  0  0  0
   37.3760   30.5730   35.3540 H   0  0  0  0  0  0  0  0  0  0  0  0
   36.9090   29.9120   36.3940 S   0  0  0  0  0  0  0  0  0  0  0  0
   35.5220   29.3970   36.1430 O   0  0  0  0  0  0  0  0  0  0  0  0
   37.7570   28.6050   36.3990 O   0  0  0  0  0  0  0  0  0  0  0  0
  1  2  1  0  0  0  0
  2  3  2  0  0  0  0
  3  9  1  0  0  0  0
  4  3  1  0  0  0  0
  5  8  1  0  0  0  0
  5  4  2  0  0  0  0
  6  1  2  0  0  0  0
  6  5  1  0  0  0  0
  7  1  1  0  0  0  0
  9 13  1  0  0  0  0
  9 10  2  0  0  0  0
 10 14  1  0  0  0  0
 10 11  1  0  0  0  0
 11 15  1  0  0  0  0
 12 16  1  0  0  0  0
 12 11  2  0  0  0  0
 13 12  1  0  0  0  0
 17  2  1  0  0  0  0
 17 18  1  6  0  0  0
 19 26  2  0  0  0  0
 19 20  1  0  0  0  0
 20 17  1  0  0  0  0
 20 21  2  0  0  0  0
 21 23  1  0  0  0  0
 21 22  1  0  0  0  0
 23 24  1  0  0  0  0
 25 23  2  0  0  0  0
 26 25  1  0  0  0  0
 27 28  1  0  0  0  0
 28 30  2  0  0  0  0
 28 19  1  0  0  0  0
 29 28  2  0  0  0  0
M  END
>  <minimizedAffinity>
-5.18963051

$$$$

 OpenBabel03252503103D

 30 32  0  0  1  0  0  0  0  0999 V2000
   40.4530   27.6980   43.4610 C   0  0  0  0  0  0  0  0  0  0  0  0
   39.3410   27.2050   42.7440 C   0  0  0  0  0  0  0  0  0  0  0  0
   39.4860   25.9150   42.2630 C   0  0  0  0  0  0  0  0  0  0  0  0
   40.6080   25.1730   42.4610 N   0  0  0  0  0  0  0  0  0  0  0  0
   41.6560   25.7010   43.1640 C   0  0  0  0  0  0  0  0  0  0  0  0
   41.5770   26.9590   43.6610 N   0  0  0  0  0  0  0  0  0  0  0  0
   40.4990   28.6850   43.9000 H   0  0  0  0  0  0  0  0  0  0  0  0
   42.5210   25.0680   43.2920 H   0  0  0  0  0  0  0  0  0  0  0  0
   38.4330   25.3440   41.5560 C   0  0  0  0  0  0  0  0  0  0  0  0
   37.3910   24.5130   41.9130 C   0  0  0  0  0  0  0  0  0  0  0  0
   36.5050   24.0770   41.0270 C   0  0  0  0  0  0  0  0  0  0  0  0
   36.6560   24.4870   39.7190 C   0  0  0  0  0  0  0  0  0  0  0  0
   38.1880   25.5780   39.7800 S   0  0  0  0  0  0  0  0  0  0  0  0
   37.1230   24.1160   42.8560 H   0  0  0  0  0  0  0  0  0  0  0  0
   35.6350   23.4790   40.9100 H   0  0  0  0  0  0  0  0  0  0  0  0
   36.3020   24.4810   38.6210 H   0  0  0  0  0  0  0  0  0  0  0  0
   38.2340   28.0530   42.6250 C   0  0  2  0  0  3  0  0  0  0  0  0
   37.4180   27.9570   43.6720 O   0  0  0  0  0  1  0  0  0  0  0  0
   38.1470   30.1480   41.0770 C   0  0  0  0  0  0  0  0  0  0  0  0
   37.6970   29.0240   41.6500 C   0  0  0  0  0  0  0  0  0  0  0  0
   36.3620   28.7590   41.2500 C   0  0  0  0  0  0  0  0  0  0  0  0
   35.8010   27.8670   41.6050 H   0  0  0  0  0  0  0  0  0  0  0  0
   35.5610   29.4940   40.4020 C   0  0  0  0  0  0  0  0  0  0  0  0
   34.5630   29.2540   40.1320 H   0  0  0  0  0  0  0  0  0  0  0  0
   36.1410   30.6220   39.8880 C   0  0  0  0  0  3  0  0  0  0  0  0
   37.4330   30.9520   40.2230 C   0  0  0  0  0  3  0  0  0  0  0  0
   40.7470   29.7920   40.9410 H   0  0  0  0  0  0  0  0  0  0  0  0
   39.7800   30.6270   41.2610 S   0  0  0  0  0  0  0  0  0  0  0  0
   39.9810   31.2080   42.6300 O   0  0  0  0  0  0  0  0  0  0  0  0
   40.0450   31.8530   40.3350 O   0  0  0  0  0  0  0  0  0  0  0  0
  1  6  1  0  0  0  0
  1  7  1  0  0  0  0
  2  1  2  0  0  0  0
  3  4  2  0  0  0  0
  3  2  1  0  0  0  0
  4  5  1  0  0  0  0
  5  8  1  0  0  0  0
  5  6  2  0  0  0  0
  9 10  2  0  0  0  0
  9  3  1  0  0  0  0
 10 14  1  0  0  0  0
 11 10  1  0  0  0  0
 12 13  1  0  0  0  0
 12 11  2  0  0  0  0
 13  9  1  0  0  0  0
 15 11  1  0  0  0  0
 16 12  1  0  0  0  0
 17  2  1  0  0  0  0
 17 18  1  6  0  0  0
 19 28  1  0  0  0  0
 19 20  1  0  0  0  0
 20 17  1  0  0  0  0
 21 22  1  0  0  0  0
 21 20  2  0  0  0  0
 23 21  1  0  0  0  0
 24 23  1  0  0  0  0
 25 26  1  0  0  0  0
 25 23  2  0  0  0  0
 26 19  2  0  0  0  0
 27 28  1  0  0  0  0
 28 29  2  0  0  0  0
 30 28  2  0  0  0  0
M  END
>  <minimizedAffinity>
-4.9852519

$$$$

 OpenBabel03252503103D

 30 32  0  0  1  0  0  0  0  0999 V2000
   35.6390   26.2870   38.1310 C   0  0  0  0  0  0  0  0  0  0  0  0
   36.0910   27.0840   39.2070 C   0  0  0  0  0  0  0  0  0  0  0  0
   36.7060   26.3810   40.2300 C   0  0  0  0  0  0  0  0  0  0  0  0
   36.8660   25.0320   40.2090 N   0  0  0  0  0  0  0  0  0  0  0  0
   36.4090   24.3090   39.1410 C   0  0  0  0  0  0  0  0  0  0  0  0
   35.7980   24.9380   38.1070 N   0  0  0  0  0  0  0  0  0  0  0  0
   35.1390   26.6820   37.2580 H   0  0  0  0  0  0  0  0  0  0  0  0
   36.5630   23.2420   39.1750 H   0  0  0  0  0  0  0  0  0  0  0  0
   37.1940   27.0870   41.3240 C   0  0  0  0  0  0  0  0  0  0  0  0
   36.6050   27.6060   42.4590 C   0  0  0  0  0  0  0  0  0  0  0  0
   37.3000   28.2750   43.3690 C   0  0  0  0  0  0  0  0  0  0  0  0
   38.6520   28.4390   43.1460 C   0  0  0  0  0  0  0  0  0  0  0  0
   38.9290   27.5620   41.5030 S   0  0  0  0  0  0  0  0  0  0  0  0
   35.6010   27.5650   42.7900 H   0  0  0  0  0  0  0  0  0  0  0  0
   37.2260   28.7870   44.2960 H   0  0  0  0  0  0  0  0  0  0  0  0
   39.6770   28.8510   43.4740 H   0  0  0  0  0  0  0  0  0  0  0  0
   35.8900   28.4640   39.1060 C   0  0  2  0  0  3  0  0  0  0  0  0
   34.7690   28.8510   39.7090 O   0  0  0  0  0  1  0  0  0  0  0  0
   37.1580   30.7370   38.9630 C   0  0  0  0  0  0  0  0  0  0  0  0
   36.5670   29.6280   38.4990 C   0  0  0  0  0  0  0  0  0  0  0  0
   36.5540   29.6270   37.0800 C   0  0  0  0  0  0  0  0  0  0  0  0
   36.1160   28.7920   36.4900 H   0  0  0  0  0  0  0  0  0  0  0  0
   37.0480   30.5840   36.2180 C   0  0  0  0  0  0  0  0  0  0  0  0
   37.0130   30.5370   35.1580 H   0  0  0  0  0  0  0  0  0  0  0  0
   37.6220   31.6690   36.8240 C   0  0  0  0  0  3  0  0  0  0  0  0
   37.6790   31.7490   38.1950 C   0  0  0  0  0  3  0  0  0  0  0  0
   38.2280   30.0750   41.2710 H   0  0  0  0  0  0  0  0  0  0  0  0
   37.4520   30.9320   40.6390 S   0  0  0  0  0  0  0  0  0  0  0  0
   36.1480   31.1320   41.3560 O   0  0  0  0  0  0  0  0  0  0  0  0
   38.1700   32.2980   40.8610 O   0  0  0  0  0  0  0  0  0  0  0  0
  1  2  1  0  0  0  0
  2  3  2  0  0  0  0
  3  9  1  0  0  0  0
  4  3  1  0  0  0  0
  5  8  1  0  0  0  0
  5  4  2  0  0  0  0
  6  1  2  0  0  0  0
  6  5  1  0  0  0  0
  7  1  1  0  0  0  0
  9 13  1  0  0  0  0
  9 10  2  0  0  0  0
 10 14  1  0  0  0  0
 10 11  1  0  0  0  0
 11 15  1  0  0  0  0
 12 11  2  0  0  0  0
 12 16  1  0  0  0  0
 13 12  1  0  0  0  0
 17  2  1  0  0  0  0
 17 18  1  6  0  0  0
 19 28  1  0  0  0  0
 20 19  1  0  0  0  0
 20 17  1  0  0  0  0
 21 20  2  0  0  0  0
 22 21  1  0  0  0  0
 23 25  2  0  0  0  0
 23 21  1  0  0  0  0
 24 23  1  0  0  0  0
 25 26  1  0  0  0  0
 26 19  2  0  0  0  0
 28 30  2  0  0  0  0
 28 27  1  0  0  0  0
 28 29  2  0  0  0  0
M  END
>  <minimizedAffinity>
-4.96108389

$$$$

 OpenBabel03252503103D

 30 32  0  0  1  0  0  0  0  0999 V2000
   36.3620   29.7090   37.5260 C   0  0  0  0  0  0  0  0  0  0  0  0
   36.4500   28.6010   38.3970 C   0  0  0  0  0  0  0  0  0  0  0  0
   36.9190   27.4370   37.8110 C   0  0  0  0  0  0  0  0  0  0  0  0
   37.2690   27.3590   36.5000 N   0  0  0  0  0  0  0  0  0  0  0  0
   37.1640   28.4650   35.7000 C   0  0  0  0  0  0  0  0  0  0  0  0
   36.7110   29.6340   36.2150 N   0  0  0  0  0  0  0  0  0  0  0  0
   36.0140   30.6870   37.8280 H   0  0  0  0  0  0  0  0  0  0  0  0
   37.4570   28.3470   34.6690 H   0  0  0  0  0  0  0  0  0  0  0  0
   37.0510   26.2990   38.5980 C   0  0  0  0  0  0  0  0  0  0  0  0
   36.1880   25.2800   38.9450 C   0  0  0  0  0  0  0  0  0  0  0  0
   36.5560   24.2910   39.7500 C   0  0  0  0  0  0  0  0  0  0  0  0
   37.8460   24.3110   40.2360 C   0  0  0  0  0  0  0  0  0  0  0  0
   38.5740   25.8700   39.4730 S   0  0  0  0  0  0  0  0  0  0  0  0
   35.1850   25.1050   38.6600 H   0  0  0  0  0  0  0  0  0  0  0  0
   36.2200   23.3980   40.2160 H   0  0  0  0  0  0  0  0  0  0  0  0
   38.6810   23.8400   40.8780 H   0  0  0  0  0  0  0  0  0  0  0  0
   36.0820   28.8090   39.7310 C   0  0  2  0  0  3  0  0  0  0  0  0
   34.7890   29.0940   39.8540 O   0  0  0  0  0  1  0  0  0  0  0  0
   37.7100   29.5250   41.6370 C   0  0  0  0  0  0  0  0  0  0  0  0
   36.7310   28.8170   41.0580 C   0  0  0  0  0  0  0  0  0  0  0  0
   36.2640   27.8020   41.9330 C   0  0  0  0  0  0  0  0  0  0  0  0
   35.4460   27.1040   41.6510 H   0  0  0  0  0  0  0  0  0  0  0  0
   36.6960   27.5080   43.2090 C   0  0  0  0  0  0  0  0  0  0  0  0
   36.3130   26.7340   43.8280 H   0  0  0  0  0  0  0  0  0  0  0  0
   37.7040   28.3060   43.6800 C   0  0  0  0  0  3  0  0  0  0  0  0
   38.2130   29.3140   42.8970 C   0  0  0  0  0  3  0  0  0  0  0  0
   38.8770   30.8090   39.6630 H   0  0  0  0  0  0  0  0  0  0  0  0
   38.3540   30.9120   40.8680 S   0  0  0  0  0  0  0  0  0  0  0  0
   39.2780   31.6240   41.8130 O   0  0  0  0  0  0  0  0  0  0  0  0
   37.2080   31.9500   40.6740 O   0  0  0  0  0  0  0  0  0  0  0  0
  1  7  1  0  0  0  0
  1  2  1  0  0  0  0
  2 17  1  0  0  0  0
  3  2  2  0  0  0  0
  3  9  1  0  0  0  0
  4  3  1  0  0  0  0
  5  6  1  0  0  0  0
  5  4  2  0  0  0  0
  6  1  2  0  0  0  0
  8  5  1  0  0  0  0
  9 10  2  0  0  0  0
  9 13  1  0  0  0  0
 10 11  1  0  0  0  0
 11 15  1  0  0  0  0
 11 12  2  0  0  0  0
 12 16  1  0  0  0  0
 13 12  1  0  0  0  0
 14 10  1  0  0  0  0
 17 18  1  6  0  0  0
 17 20  1  0  0  0  0
 19 26  1  0  0  0  0
 20 19  2  0  0  0  0
 20 21  1  0  0  0  0
 21 23  2  0  0  0  0
 22 21  1  0  0  0  0
 23 25  1  0  0  0  0
 23 24  1  0  0  0  0
 26 25  2  0  0  0  0
 27 28  1  0  0  0  0
 28 19  1  0  0  0  0
 28 29  2  0  0  0  0
 30 28  2  0  0  0  0
M  END
>  <minimizedAffinity>
-4.95686579

$$$$

 OpenBabel03252503103D

 30 32  0  0  1  0  0  0  0  0999 V2000
   36.4740   30.4630   41.1300 C   0  0  0  0  0  0  0  0  0  0  0  0
   37.5240   29.5700   41.4360 C   0  0  0  0  0  0  0  0  0  0  0  0
   38.7960   30.0820   41.2410 C   0  0  0  0  0  0  0  0  0  0  0  0
   39.0240   31.3440   40.7890 N   0  0  0  0  0  0  0  0  0  0  0  0
   37.9680   32.1670   40.5080 C   0  0  0  0  0  0  0  0  0  0  0  0
   36.6980   31.7250   40.6780 N   0  0  0  0  0  0  0  0  0  0  0  0
   35.4260   30.2160   41.2270 H   0  0  0  0  0  0  0  0  0  0  0  0
   38.2060   33.1580   40.1540 H   0  0  0  0  0  0  0  0  0  0  0  0
   39.8920   29.2770   41.5310 C   0  0  0  0  0  0  0  0  0  0  0  0
   40.6720   29.1040   42.6560 C   0  0  0  0  0  0  0  0  0  0  0  0
   41.7010   28.2680   42.6760 C   0  0  0  0  0  0  0  0  0  0  0  0
   41.9740   27.5640   41.5220 C   0  0  0  0  0  0  0  0  0  0  0  0
   40.6450   28.1570   40.3280 S   0  0  0  0  0  0  0  0  0  0  0  0
   40.6000   29.5470   43.6140 H   0  0  0  0  0  0  0  0  0  0  0  0
   42.4790   27.8830   43.2880 H   0  0  0  0  0  0  0  0  0  0  0  0
   42.6160   26.8010   40.9430 H   0  0  0  0  0  0  0  0  0  0  0  0
   37.1670   28.3060   41.9150 C   0  0  2  0  0  3  0  0  0  0  0  0
   36.9000   28.3220   43.2180 O   0  0  0  0  0  1  0  0  0  0  0  0
   36.7210   26.4030   40.1890 C   0  0  0  0  0  0  0  0  0  0  0  0
   37.0130   26.9360   41.3830 C   0  0  0  0  0  0  0  0  0  0  0  0
   37.1440   25.9200   42.3640 C   0  0  0  0  0  0  0  0  0  0  0  0
   37.3940   26.1450   43.4240 H   0  0  0  0  0  0  0  0  0  0  0  0
   37.0060   24.5560   42.2090 C   0  0  0  0  0  0  0  0  0  0  0  0
   37.1150   23.8330   42.9780 H   0  0  0  0  0  0  0  0  0  0  0  0
   36.7030   24.1450   40.9390 C   0  0  0  0  0  3  0  0  0  0  0  0
   36.5600   25.0650   39.9270 C   0  0  0  0  0  3  0  0  0  0  0  0
   37.6590   28.1940   38.5100 H   0  0  0  0  0  0  0  0  0  0  0  0
   36.6570   27.3850   38.7880 S   0  0  0  0  0  0  0  0  0  0  0  0
   35.3390   28.1000   38.7370 O   0  0  0  0  0  0  0  0  0  0  0  0
   36.5860   26.4600   37.5360 O   0  0  0  0  0  0  0  0  0  0  0  0
  1  7  1  0  0  0  0
  1  2  1  0  0  0  0
  2 17  1  0  0  0  0
  3  2  2  0  0  0  0
  3  9  1  0  0  0  0
  4  3  1  0  0  0  0
  5  6  1  0  0  0  0
  5  4  2  0  0  0  0
  6  1  2  0  0  0  0
  8  5  1  0  0  0  0
  9 10  2  0  0  0  0
 10 11  1  0  0  0  0
 10 14  1  0  0  0  0
 11 15  1  0  0  0  0
 12 11  2  0  0  0  0
 13 12  1  0  0  0  0
 13  9  1  0  0  0  0
 16 12  1  0  0  0  0
 17 18  1  1  0  0  0
 19 20  1  0  0  0  0
 20 17  1  0  0  0  0
 20 21  2  0  0  0  0
 21 22  1  0  0  0  0
 23 21  1  0  0  0  0
 23 24  1  0  0  0  0
 25 23  2  0  0  0  0
 26 19  2  0  0  0  0
 26 25  1  0  0  0  0
 27 28  1  0  0  0  0
 28 19  1  0  0  0  0
 29 28  2  0  0  0  0
 30 28  2  0  0  0  0
M  END
>  <minimizedAffinity>
-4.889503

$$$$

 OpenBabel03252503103D

 30 32  0  0  1  0  0  0  0  0999 V2000
   37.7160   27.4840   37.3270 C   0  0  0  0  0  0  0  0  0  0  0  0
   37.9610   28.5520   38.2180 C   0  0  0  0  0  0  0  0  0  0  0  0
   37.6110   29.8020   37.7360 C   0  0  0  0  0  0  0  0  0  0  0  0
   37.0720   29.9950   36.5030 N   0  0  0  0  0  0  0  0  0  0  0  0
   36.8550   28.9230   35.6800 C   0  0  0  0  0  0  0  0  0  0  0  0
   37.1770   27.6730   36.0940 N   0  0  0  0  0  0  0  0  0  0  0  0
   37.9340   26.4500   37.5520 H   0  0  0  0  0  0  0  0  0  0  0  0
   36.4240   29.1330   34.7140 H   0  0  0  0  0  0  0  0  0  0  0  0
   37.8050   30.9110   38.5520 C   0  0  0  0  0  0  0  0  0  0  0  0
   36.9760   31.6310   39.3880 C   0  0  0  0  0  0  0  0  0  0  0  0
   37.4050   32.6900   40.0610 C   0  0  0  0  0  0  0  0  0  0  0  0
   38.7250   33.0580   39.8990 C   0  0  0  0  0  0  0  0  0  0  0  0
   39.3860   31.7770   38.6890 S   0  0  0  0  0  0  0  0  0  0  0  0
   35.9580   31.4860   39.6340 H   0  0  0  0  0  0  0  0  0  0  0  0
   37.1100   33.4470   40.7450 H   0  0  0  0  0  0  0  0  0  0  0  0
   39.6050   33.7620   40.1430 H   0  0  0  0  0  0  0  0  0  0  0  0
   38.4980   28.2280   39.4680 C   0  0  2  0  0  3  0  0  0  0  0  0
   39.8260   28.1460   39.4360 O   0  0  0  0  0  1  0  0  0  0  0  0
   37.4280   26.8810   41.4270 C   0  0  0  0  0  0  0  0  0  0  0  0
   38.0050   27.9310   40.8290 C   0  0  0  0  0  0  0  0  0  0  0  0
   38.1030   29.0260   41.7270 C   0  0  0  0  0  0  0  0  0  0  0  0
   38.5600   29.9960   41.4350 H   0  0  0  0  0  0  0  0  0  0  0  0
   37.6880   29.0940   43.0410 C   0  0  0  0  0  0  0  0  0  0  0  0
   37.7830   29.9400   43.6750 H   0  0  0  0  0  0  0  0  0  0  0  0
   37.1100   27.9530   43.5270 C   0  0  0  0  0  3  0  0  0  0  0  0
   36.9780   26.8450   42.7240 C   0  0  0  0  0  3  0  0  0  0  0  0
   38.4090   24.8100   40.1400 H   0  0  0  0  0  0  0  0  0  0  0  0
   37.3210   25.3720   40.6260 S   0  0  0  0  0  0  0  0  0  0  0  0
   36.2220   25.4240   39.6040 O   0  0  0  0  0  0  0  0  0  0  0  0
   36.7900   24.3100   41.6360 O   0  0  0  0  0  0  0  0  0  0  0  0
  1  7  1  0  0  0  0
  1  2  1  0  0  0  0
  2 17  1  0  0  0  0
  3  2  2  0  0  0  0
  3  9  1  0  0  0  0
  4  3  1  0  0  0  0
  5  6  1  0  0  0  0
  5  4  2  0  0  0  0
  6  1  2  0  0  0  0
  8  5  1  0  0  0  0
  9 13  1  0  0  0  0
  9 10  2  0  0  0  0
 10 14  1  0  0  0  0
 10 11  1  0  0  0  0
 11 15  1  0  0  0  0
 12 11  2  0  0  0  0
 12 16  1  0  0  0  0
 13 12  1  0  0  0  0
 17 18  1  6  0  0  0
 17 20  1  0  0  0  0
 19 26  1  0  0  0  0
 20 19  2  0  0  0  0
 20 21  1  0  0  0  0
 21 23  2  0  0  0  0
 22 21  1  0  0  0  0
 23 25  1  0  0  0  0
 23 24  1  0  0  0  0
 26 25  2  0  0  0  0
 27 28  1  0  0  0  0
 28 19  1  0  0  0  0
 28 30  2  0  0  0  0
 29 28  2  0  0  0  0
M  END
>  <minimizedAffinity>
-4.88702154

$$$$
