
 OpenBabel03242512353D

 23 24  0  0  0  0  0  0  0  0999 V2000
   38.3280   25.5860   42.0100 C   0  0  0  0  0  0  0  0  0  0  0  0
   38.2010   26.7450   42.7520 C   0  0  0  0  0  0  0  0  0  0  0  0
   39.2530   27.0940   43.5850 C   0  0  0  0  0  0  0  0  0  0  0  0
   39.1870   28.0000   44.1820 H   0  0  0  0  0  0  0  0  0  0  0  0
   40.3840   26.2990   43.6640 C   0  0  0  0  0  0  0  0  0  0  0  0
   41.1920   26.5660   44.3040 H   0  0  0  0  0  0  0  0  0  0  0  0
   40.5090   25.1280   42.9150 C   0  0  0  0  0  3  0  0  0  0  0  0
   39.4550   24.7900   42.0870 C   0  0  0  0  0  3  0  0  0  0  0  0
   35.8040   25.5570   41.4890 H   0  0  0  0  0  0  0  0  0  0  0  0
   36.9960   25.1470   40.9570 S   0  0  0  0  0  0  0  0  0  0  0  0
   37.0060   23.6380   40.7880 O   0  0  0  0  0  0  0  0  0  0  0  0
   37.2020   25.7010   39.5580 O   0  0  0  0  0  0  0  0  0  0  0  0
   37.0420   27.6340   42.7230 C   0  0  0  0  0  0  0  0  0  0  0  0
   36.2230   27.2660   43.6300 O   0  0  0  0  0  0  0  0  0  0  0  0
   36.8090   28.7560   41.8400 C   0  0  0  0  0  0  0  0  0  0  0  0
   35.6710   28.6460   41.0170 C   0  0  0  0  0  0  0  0  0  0  0  0
   35.4260   29.7120   40.1590 C   0  0  0  0  0  0  0  0  0  0  0  0
   36.2770   30.7670   40.1670 N   0  0  0  0  0  0  0  0  0  0  0  0
   37.3460   30.8250   40.9690 C   0  0  0  0  0  0  0  0  0  0  0  0
   37.6230   29.8330   41.8060 N   0  0  0  0  0  0  0  0  0  0  0  0
   35.0080   27.8130   41.0180 H   0  0  0  0  0  0  0  0  0  0  0  0
   34.5620   29.6840   39.5000 H   0  0  0  0  0  0  0  0  0  0  0  0
   38.0430   31.6530   41.0000 H   0  0  0  0  0  0  0  0  0  0  0  0
  1  8  2  0  0  0  0
  1  2  1  0  0  0  0
  2  3  2  0  0  0  0
  3  5  1  0  0  0  0
  3  4  1  0  0  0  0
  5  6  1  0  0  0  0
  7  5  2  0  0  0  0
  8  7  1  0  0  0  0
 10  9  1  0  0  0  0
 10  1  1  0  0  0  0
 11 10  2  0  0  0  0
 12 10  2  0  0  0  0
 13  2  1  0  0  0  0
 13 14  2  0  0  0  0
 15 13  1  0  0  0  0
 16 21  1  0  0  0  0
 16 15  2  0  0  0  0
 17 18  2  0  0  0  0
 17 16  1  0  0  0  0
 18 19  1  0  0  0  0
 19 23  1  0  0  0  0
 19 20  2  0  0  0  0
 20 15  1  0  0  0  0
 22 17  1  0  0  0  0
M  END
>  <minimizedAffinity>
-4.76975489

$$$$

 OpenBabel03242512353D

 23 24  0  0  0  0  0  0  0  0999 V2000
   38.9660   26.3270   42.5110 C   0  0  0  0  0  0  0  0  0  0  0  0
   37.5930   26.3600   42.3480 C   0  0  0  0  0  0  0  0  0  0  0  0
   36.9600   25.1820   41.9860 C   0  0  0  0  0  0  0  0  0  0  0  0
   35.8810   25.1720   41.8500 H   0  0  0  0  0  0  0  0  0  0  0  0
   37.6880   24.0190   41.7950 C   0  0  0  0  0  0  0  0  0  0  0  0
   37.2020   23.1130   41.5170 H   0  0  0  0  0  0  0  0  0  0  0  0
   39.0730   23.9880   41.9580 C   0  0  0  0  0  3  0  0  0  0  0  0
   39.6950   25.1680   42.3200 C   0  0  0  0  0  3  0  0  0  0  0  0
   38.9390   28.5930   43.7370 H   0  0  0  0  0  0  0  0  0  0  0  0
   39.7640   27.8190   42.9690 S   0  0  0  0  0  0  0  0  0  0  0  0
   40.1470   28.5580   41.6990 O   0  0  0  0  0  0  0  0  0  0  0  0
   41.0810   27.5390   43.6730 O   0  0  0  0  0  0  0  0  0  0  0  0
   36.7580   27.5450   42.5320 C   0  0  0  0  0  0  0  0  0  0  0  0
   36.1980   27.4760   43.6760 O   0  0  0  0  0  0  0  0  0  0  0  0
   36.5600   28.6400   41.6080 C   0  0  0  0  0  0  0  0  0  0  0  0
   35.9850   28.2870   40.3710 C   0  0  0  0  0  0  0  0  0  0  0  0
   35.7860   29.3230   39.4660 C   0  0  0  0  0  0  0  0  0  0  0  0
   36.1480   30.5800   39.8210 N   0  0  0  0  0  0  0  0  0  0  0  0
   36.6920   30.8660   41.0100 C   0  0  0  0  0  0  0  0  0  0  0  0
   36.9020   29.9110   41.9080 N   0  0  0  0  0  0  0  0  0  0  0  0
   35.7030   27.2960   40.1020 H   0  0  0  0  0  0  0  0  0  0  0  0
   35.3450   29.1110   38.4950 H   0  0  0  0  0  0  0  0  0  0  0  0
   36.9900   31.8580   41.3230 H   0  0  0  0  0  0  0  0  0  0  0  0
  1 10  1  0  0  0  0
  2  1  1  0  0  0  0
  2 13  1  0  0  0  0
  3  2  2  0  0  0  0
  4  3  1  0  0  0  0
  5  7  2  0  0  0  0
  5  3  1  0  0  0  0
  6  5  1  0  0  0  0
  7  8  1  0  0  0  0
  8  1  2  0  0  0  0
 10 12  2  0  0  0  0
 10  9  1  0  0  0  0
 11 10  2  0  0  0  0
 13 14  2  0  0  0  0
 15 20  1  0  0  0  0
 15 13  1  0  0  0  0
 16 15  2  0  0  0  0
 17 18  2  0  0  0  0
 17 16  1  0  0  0  0
 18 19  1  0  0  0  0
 19 23  1  0  0  0  0
 19 20  2  0  0  0  0
 21 16  1  0  0  0  0
 22 17  1  0  0  0  0
M  END
>  <minimizedAffinity>
-4.71569347

$$$$

 OpenBabel03242512353D

 23 24  0  0  0  0  0  0  0  0999 V2000
   36.5020   29.7330   38.4140 C   0  0  0  0  0  0  0  0  0  0  0  0
   35.8200   29.6280   39.6120 C   0  0  0  0  0  0  0  0  0  0  0  0
   34.5120   29.1740   39.5700 C   0  0  0  0  0  0  0  0  0  0  0  0
   33.9460   29.0790   40.4940 H   0  0  0  0  0  0  0  0  0  0  0  0
   33.9180   28.8410   38.3640 C   0  0  0  0  0  0  0  0  0  0  0  0
   32.9130   28.4920   38.3310 H   0  0  0  0  0  0  0  0  0  0  0  0
   34.6080   28.9490   37.1550 C   0  0  0  0  0  3  0  0  0  0  0  0
   35.9120   29.4020   37.2080 C   0  0  0  0  0  3  0  0  0  0  0  0
   38.6750   30.1700   39.7280 H   0  0  0  0  0  0  0  0  0  0  0  0
   38.1570   30.3080   38.4700 S   0  0  0  0  0  0  0  0  0  0  0  0
   38.1620   31.7700   38.0560 O   0  0  0  0  0  0  0  0  0  0  0  0
   39.0150   29.6030   37.4340 O   0  0  0  0  0  0  0  0  0  0  0  0
   36.3760   29.9590   40.9220 C   0  0  0  0  0  0  0  0  0  0  0  0
   36.0760   31.1690   41.1990 O   0  0  0  0  0  0  0  0  0  0  0  0
   37.1440   29.1040   41.8000 C   0  0  0  0  0  0  0  0  0  0  0  0
   36.5210   27.8910   42.1530 C   0  0  0  0  0  0  0  0  0  0  0  0
   37.2400   27.0520   42.9970 C   0  0  0  0  0  0  0  0  0  0  0  0
   38.4680   27.4430   43.4170 N   0  0  0  0  0  0  0  0  0  0  0  0
   39.0190   28.6070   43.0520 C   0  0  0  0  0  0  0  0  0  0  0  0
   38.3720   29.4420   42.2480 N   0  0  0  0  0  0  0  0  0  0  0  0
   35.5550   27.5930   41.8180 H   0  0  0  0  0  0  0  0  0  0  0  0
   36.8100   26.1020   43.3040 H   0  0  0  0  0  0  0  0  0  0  0  0
   39.9960   28.9460   43.3690 H   0  0  0  0  0  0  0  0  0  0  0  0
  1 10  1  0  0  0  0
  1  2  1  0  0  0  0
  2 13  1  0  0  0  0
  3  2  2  0  0  0  0
  3  4  1  0  0  0  0
  5  3  1  0  0  0  0
  6  5  1  0  0  0  0
  7  8  1  0  0  0  0
  7  5  2  0  0  0  0
  8  1  2  0  0  0  0
 10  9  1  0  0  0  0
 11 10  2  0  0  0  0
 12 10  2  0  0  0  0
 13 14  2  0  0  0  0
 13 15  1  0  0  0  0
 15 16  2  0  0  0  0
 15 20  1  0  0  0  0
 16 17  1  0  0  0  0
 17 22  1  0  0  0  0
 17 18  2  0  0  0  0
 19 23  1  0  0  0  0
 19 18  1  0  0  0  0
 20 19  2  0  0  0  0
 21 16  1  0  0  0  0
M  END
>  <minimizedAffinity>
-4.65934324

$$$$

 OpenBabel03242512353D

 23 24  0  0  0  0  0  0  0  0999 V2000
   36.6960   30.4130   38.4430 C   0  0  0  0  0  0  0  0  0  0  0  0
   36.3490   30.2260   39.7680 C   0  0  0  0  0  0  0  0  0  0  0  0
   36.6480   31.2430   40.6610 C   0  0  0  0  0  0  0  0  0  0  0  0
   36.3890   31.1300   41.7110 H   0  0  0  0  0  0  0  0  0  0  0  0
   37.2740   32.4000   40.2290 C   0  0  0  0  0  0  0  0  0  0  0  0
   37.5050   33.1820   40.9140 H   0  0  0  0  0  0  0  0  0  0  0  0
   37.6250   32.5860   38.8910 C   0  0  0  0  0  3  0  0  0  0  0  0
   37.3210   31.5670   38.0090 C   0  0  0  0  0  3  0  0  0  0  0  0
   36.5820   27.9030   37.8700 H   0  0  0  0  0  0  0  0  0  0  0  0
   36.3160   29.1250   37.3160 S   0  0  0  0  0  0  0  0  0  0  0  0
   37.1540   29.3300   36.0660 O   0  0  0  0  0  0  0  0  0  0  0  0
   34.8750   29.2210   36.8440 O   0  0  0  0  0  0  0  0  0  0  0  0
   35.6870   29.0370   40.3000 C   0  0  0  0  0  0  0  0  0  0  0  0
   34.4250   29.1860   40.1860 O   0  0  0  0  0  0  0  0  0  0  0  0
   36.3060   27.8610   40.8710 C   0  0  0  0  0  0  0  0  0  0  0  0
   36.5760   27.9340   42.2520 C   0  0  0  0  0  0  0  0  0  0  0  0
   37.1720   26.8150   42.8240 C   0  0  0  0  0  0  0  0  0  0  0  0
   37.4490   25.7470   42.0350 N   0  0  0  0  0  0  0  0  0  0  0  0
   37.1730   25.7260   40.7260 C   0  0  0  0  0  0  0  0  0  0  0  0
   36.6040   26.7690   40.1340 N   0  0  0  0  0  0  0  0  0  0  0  0
   36.3540   28.7770   42.8620 H   0  0  0  0  0  0  0  0  0  0  0  0
   37.4030   26.8130   43.8860 H   0  0  0  0  0  0  0  0  0  0  0  0
   37.3820   24.8900   40.0710 H   0  0  0  0  0  0  0  0  0  0  0  0
  1  2  1  0  0  0  0
  2 13  1  0  0  0  0
  2  3  2  0  0  0  0
  3  4  1  0  0  0  0
  5  3  1  0  0  0  0
  5  6  1  0  0  0  0
  7  5  2  0  0  0  0
  8  1  2  0  0  0  0
  8  7  1  0  0  0  0
 10  9  1  0  0  0  0
 10  1  1  0  0  0  0
 11 10  2  0  0  0  0
 12 10  2  0  0  0  0
 13 15  1  0  0  0  0
 14 13  2  0  0  0  0
 15 16  1  0  0  0  0
 16 17  2  0  0  0  0
 16 21  1  0  0  0  0
 17 22  1  0  0  0  0
 18 17  1  0  0  0  0
 19 18  2  0  0  0  0
 20 19  1  0  0  0  0
 20 15  2  0  0  0  0
 23 19  1  0  0  0  0
M  END
>  <minimizedAffinity>
-4.59501457

$$$$

 OpenBabel03242512353D

 23 24  0  0  0  0  0  0  0  0999 V2000
   36.6710   26.9680   40.2020 C   0  0  0  0  0  0  0  0  0  0  0  0
   36.2690   28.1110   40.8670 C   0  0  0  0  0  0  0  0  0  0  0  0
   36.3810   28.1240   42.2490 C   0  0  0  0  0  0  0  0  0  0  0  0
   36.0750   29.0070   42.8040 H   0  0  0  0  0  0  0  0  0  0  0  0
   36.8790   27.0230   42.9270 C   0  0  0  0  0  0  0  0  0  0  0  0
   36.9650   27.0320   43.9880 H   0  0  0  0  0  0  0  0  0  0  0  0
   37.2820   25.8700   42.2530 C   0  0  0  0  0  3  0  0  0  0  0  0
   37.1680   25.8670   40.8750 C   0  0  0  0  0  3  0  0  0  0  0  0
   36.3130   28.2180   37.9770 H   0  0  0  0  0  0  0  0  0  0  0  0
   36.5290   26.9550   38.4540 S   0  0  0  0  0  0  0  0  0  0  0  0
   35.3690   26.0470   38.0830 O   0  0  0  0  0  0  0  0  0  0  0  0
   37.7480   26.3170   37.8120 O   0  0  0  0  0  0  0  0  0  0  0  0
   35.7360   29.3100   40.2240 C   0  0  0  0  0  0  0  0  0  0  0  0
   34.4850   29.1470   40.0330 O   0  0  0  0  0  0  0  0  0  0  0  0
   36.4560   30.5060   39.8460 C   0  0  0  0  0  0  0  0  0  0  0  0
   36.7290   30.6330   38.4690 C   0  0  0  0  0  0  0  0  0  0  0  0
   37.4210   31.7750   38.0810 C   0  0  0  0  0  0  0  0  0  0  0  0
   37.7810   32.6750   39.0290 N   0  0  0  0  0  0  0  0  0  0  0  0
   37.4980   32.5080   40.3260 C   0  0  0  0  0  0  0  0  0  0  0  0
   36.8400   31.4350   40.7460 N   0  0  0  0  0  0  0  0  0  0  0  0
   36.4410   29.9200   37.7320 H   0  0  0  0  0  0  0  0  0  0  0  0
   37.6590   31.9280   37.0310 H   0  0  0  0  0  0  0  0  0  0  0  0
   37.7720   33.2080   41.1050 H   0  0  0  0  0  0  0  0  0  0  0  0
  1  2  2  0  0  0  0
  1  8  1  0  0  0  0
  2  3  1  0  0  0  0
  3  4  1  0  0  0  0
  3  5  2  0  0  0  0
  5  6  1  0  0  0  0
  7  5  1  0  0  0  0
  8  7  2  0  0  0  0
  9 10  1  0  0  0  0
 10  1  1  0  0  0  0
 11 10  2  0  0  0  0
 12 10  2  0  0  0  0
 13  2  1  0  0  0  0
 14 13  2  0  0  0  0
 15 13  1  0  0  0  0
 15 20  1  0  0  0  0
 16 15  2  0  0  0  0
 17 16  1  0  0  0  0
 17 18  2  0  0  0  0
 18 19  1  0  0  0  0
 19 20  2  0  0  0  0
 19 23  1  0  0  0  0
 21 16  1  0  0  0  0
 22 17  1  0  0  0  0
M  END
>  <minimizedAffinity>
-4.58488274

$$$$

 OpenBabel03242512353D

 23 24  0  0  0  0  0  0  0  0999 V2000
   37.9210   29.6340   40.6880 C   0  0  0  0  0  0  0  0  0  0  0  0
   37.1480   28.7880   41.4610 C   0  0  0  0  0  0  0  0  0  0  0  0
   35.8380   28.5710   41.0630 C   0  0  0  0  0  0  0  0  0  0  0  0
   35.2020   27.9100   41.6480 H   0  0  0  0  0  0  0  0  0  0  0  0
   35.3330   29.1870   39.9300 C   0  0  0  0  0  0  0  0  0  0  0  0
   34.3270   29.0210   39.6250 H   0  0  0  0  0  0  0  0  0  0  0  0
   36.1150   30.0420   39.1530 C   0  0  0  0  0  3  0  0  0  0  0  0
   37.4200   30.2510   39.5570 C   0  0  0  0  0  3  0  0  0  0  0  0
   40.1220   28.7620   41.7070 H   0  0  0  0  0  0  0  0  0  0  0  0
   39.5780   29.9070   41.1930 S   0  0  0  0  0  0  0  0  0  0  0  0
   39.5760   31.0060   42.2420 O   0  0  0  0  0  0  0  0  0  0  0  0
   40.4130   30.4560   40.0500 O   0  0  0  0  0  0  0  0  0  0  0  0
   37.6090   28.1020   42.6660 C   0  0  0  0  0  0  0  0  0  0  0  0
   37.3330   28.8280   43.6790 O   0  0  0  0  0  0  0  0  0  0  0  0
   38.2700   26.8190   42.7560 C   0  0  0  0  0  0  0  0  0  0  0  0
   39.4140   26.7890   43.5770 C   0  0  0  0  0  0  0  0  0  0  0  0
   40.0680   25.5660   43.6800 C   0  0  0  0  0  0  0  0  0  0  0  0
   39.5750   24.5020   42.9990 N   0  0  0  0  0  0  0  0  0  0  0  0
   38.4820   24.5810   42.2300 C   0  0  0  0  0  0  0  0  0  0  0  0
   37.8230   25.7260   42.1010 N   0  0  0  0  0  0  0  0  0  0  0  0
   39.7930   27.6300   44.1090 H   0  0  0  0  0  0  0  0  0  0  0  0
   40.9570   25.4820   44.3000 H   0  0  0  0  0  0  0  0  0  0  0  0
   38.0640   23.7510   41.6760 H   0  0  0  0  0  0  0  0  0  0  0  0
  1 10  1  0  0  0  0
  1  2  1  0  0  0  0
  2 13  1  0  0  0  0
  3  2  2  0  0  0  0
  3  4  1  0  0  0  0
  5  3  1  0  0  0  0
  6  5  1  0  0  0  0
  7  8  1  0  0  0  0
  7  5  2  0  0  0  0
  8  1  2  0  0  0  0
 10  9  1  0  0  0  0
 10 11  2  0  0  0  0
 12 10  2  0  0  0  0
 13 15  1  0  0  0  0
 13 14  2  0  0  0  0
 15 16  1  0  0  0  0
 16 17  2  0  0  0  0
 16 21  1  0  0  0  0
 17 22  1  0  0  0  0
 18 17  1  0  0  0  0
 19 18  2  0  0  0  0
 20 19  1  0  0  0  0
 20 15  2  0  0  0  0
 23 19  1  0  0  0  0
M  END
>  <minimizedAffinity>
-4.48839712

$$$$

 OpenBabel03242512353D

 23 24  0  0  0  0  0  0  0  0999 V2000
   36.7380   27.1760   40.9710 C   0  0  0  0  0  0  0  0  0  0  0  0
   36.1310   27.8250   39.9120 C   0  0  0  0  0  0  0  0  0  0  0  0
   35.9630   27.1150   38.7340 C   0  0  0  0  0  0  0  0  0  0  0  0
   35.4890   27.5940   37.8810 H   0  0  0  0  0  0  0  0  0  0  0  0
   36.3940   25.8020   38.6340 C   0  0  0  0  0  0  0  0  0  0  0  0
   36.2660   25.2560   37.7290 H   0  0  0  0  0  0  0  0  0  0  0  0
   37.0090   25.1500   39.7040 C   0  0  0  0  0  3  0  0  0  0  0  0
   37.1700   25.8670   40.8740 C   0  0  0  0  0  3  0  0  0  0  0  0
   36.4790   29.3540   42.3240 H   0  0  0  0  0  0  0  0  0  0  0  0
   36.9490   28.0770   42.4600 S   0  0  0  0  0  0  0  0  0  0  0  0
   38.4310   28.0950   42.7950 O   0  0  0  0  0  0  0  0  0  0  0  0
   36.2910   27.3630   43.6280 O   0  0  0  0  0  0  0  0  0  0  0  0
   35.6500   29.2040   39.9410 C   0  0  0  0  0  0  0  0  0  0  0  0
   34.4050   29.1960   40.2200 O   0  0  0  0  0  0  0  0  0  0  0  0
   36.4090   30.4120   39.7010 C   0  0  0  0  0  0  0  0  0  0  0  0
   36.7380   30.6570   38.3540 C   0  0  0  0  0  0  0  0  0  0  0  0
   37.4690   31.8120   38.0980 C   0  0  0  0  0  0  0  0  0  0  0  0
   37.8110   32.6130   39.1380 N   0  0  0  0  0  0  0  0  0  0  0  0
   37.4740   32.3360   40.4030 C   0  0  0  0  0  0  0  0  0  0  0  0
   36.7770   31.2450   40.6980 N   0  0  0  0  0  0  0  0  0  0  0  0
   36.4640   30.0230   37.5440 H   0  0  0  0  0  0  0  0  0  0  0  0
   37.7520   32.0550   37.0770 H   0  0  0  0  0  0  0  0  0  0  0  0
   37.7320   32.9540   41.2530 H   0  0  0  0  0  0  0  0  0  0  0  0
  1 10  1  0  0  0  0
  2 13  1  0  0  0  0
  2  1  2  0  0  0  0
  3  2  1  0  0  0  0
  4  3  1  0  0  0  0
  5  3  2  0  0  0  0
  5  7  1  0  0  0  0
  6  5  1  0  0  0  0
  7  8  2  0  0  0  0
  8  1  1  0  0  0  0
  9 10  1  0  0  0  0
 10 11  2  0  0  0  0
 10 12  2  0  0  0  0
 13 14  2  0  0  0  0
 15 13  1  0  0  0  0
 15 20  1  0  0  0  0
 16 15  2  0  0  0  0
 17 16  1  0  0  0  0
 17 18  2  0  0  0  0
 18 19  1  0  0  0  0
 19 20  2  0  0  0  0
 19 23  1  0  0  0  0
 21 16  1  0  0  0  0
 22 17  1  0  0  0  0
M  END
>  <minimizedAffinity>
-4.45234919

$$$$

 OpenBabel03242512353D

 23 24  0  0  0  0  0  0  0  0999 V2000
   36.9700   28.1210   40.9540 C   0  0  0  0  0  0  0  0  0  0  0  0
   37.2830   29.2770   41.6440 C   0  0  0  0  0  0  0  0  0  0  0  0
   37.6370   29.1530   42.9790 C   0  0  0  0  0  0  0  0  0  0  0  0
   37.8900   30.0410   43.5520 H   0  0  0  0  0  0  0  0  0  0  0  0
   37.6710   27.9090   43.5870 C   0  0  0  0  0  0  0  0  0  0  0  0
   37.9430   27.8130   44.6120 H   0  0  0  0  0  0  0  0  0  0  0  0
   37.3540   26.7440   42.8880 C   0  0  0  0  0  3  0  0  0  0  0  0
   37.0030   26.8780   41.5580 C   0  0  0  0  0  3  0  0  0  0  0  0
   37.2110   29.3070   38.6790 H   0  0  0  0  0  0  0  0  0  0  0  0
   36.5230   28.2810   39.2660 S   0  0  0  0  0  0  0  0  0  0  0  0
   35.0280   28.5420   39.1970 O   0  0  0  0  0  0  0  0  0  0  0  0
   36.7280   26.9740   38.5210 O   0  0  0  0  0  0  0  0  0  0  0  0
   37.2710   30.6220   41.0740 C   0  0  0  0  0  0  0  0  0  0  0  0
   36.0940   31.1030   41.1880 O   0  0  0  0  0  0  0  0  0  0  0  0
   38.3730   31.3370   40.4690 C   0  0  0  0  0  0  0  0  0  0  0  0
   38.3530   32.7340   40.6460 C   0  0  0  0  0  0  0  0  0  0  0  0
   39.4020   33.4430   40.0730 C   0  0  0  0  0  0  0  0  0  0  0  0
   40.3580   32.7620   39.3940 N   0  0  0  0  0  0  0  0  0  0  0  0
   40.3330   31.4320   39.2530 C   0  0  0  0  0  0  0  0  0  0  0  0
   39.3520   30.7100   39.7820 N   0  0  0  0  0  0  0  0  0  0  0  0
   37.5980   33.2600   41.1820 H   0  0  0  0  0  0  0  0  0  0  0  0
   39.4410   34.5250   40.1770 H   0  0  0  0  0  0  0  0  0  0  0  0
   41.0800   30.8600   38.7180 H   0  0  0  0  0  0  0  0  0  0  0  0
  1  8  2  0  0  0  0
  1  2  1  0  0  0  0
  2  3  2  0  0  0  0
  3  4  1  0  0  0  0
  3  5  1  0  0  0  0
  5  6  1  0  0  0  0
  7  5  2  0  0  0  0
  8  7  1  0  0  0  0
  9 10  1  0  0  0  0
 10  1  1  0  0  0  0
 11 10  2  0  0  0  0
 12 10  2  0  0  0  0
 13 14  2  0  0  0  0
 13  2  1  0  0  0  0
 15 16  1  0  0  0  0
 15 13  1  0  0  0  0
 16 21  1  0  0  0  0
 17 22  1  0  0  0  0
 17 16  2  0  0  0  0
 18 17  1  0  0  0  0
 19 18  2  0  0  0  0
 19 20  1  0  0  0  0
 20 15  2  0  0  0  0
 23 19  1  0  0  0  0
M  END
>  <minimizedAffinity>
-4.42801094

$$$$

 OpenBabel03242512353D

 23 24  0  0  0  0  0  0  0  0999 V2000
   36.9600   30.7390   38.9170 C   0  0  0  0  0  0  0  0  0  0  0  0
   36.3620   29.5110   39.1280 C   0  0  0  0  0  0  0  0  0  0  0  0
   36.1760   28.6890   38.0270 C   0  0  0  0  0  0  0  0  0  0  0  0
   35.7100   27.7160   38.1560 H   0  0  0  0  0  0  0  0  0  0  0  0
   36.5790   29.0970   36.7650 C   0  0  0  0  0  0  0  0  0  0  0  0
   36.4360   28.4670   35.9200 H   0  0  0  0  0  0  0  0  0  0  0  0
   37.1800   30.3390   36.5560 C   0  0  0  0  0  3  0  0  0  0  0  0
   37.3620   31.1500   37.6600 C   0  0  0  0  0  3  0  0  0  0  0  0
   36.1940   31.5910   41.2250 H   0  0  0  0  0  0  0  0  0  0  0  0
   37.1940   31.7760   40.3110 S   0  0  0  0  0  0  0  0  0  0  0  0
   37.2080   33.2170   39.8300 O   0  0  0  0  0  0  0  0  0  0  0  0
   38.5630   31.5550   40.9320 O   0  0  0  0  0  0  0  0  0  0  0  0
   35.9130   29.0100   40.4240 C   0  0  0  0  0  0  0  0  0  0  0  0
   34.6600   29.2310   40.5350 O   0  0  0  0  0  0  0  0  0  0  0  0
   36.7060   28.3660   41.4480 C   0  0  0  0  0  0  0  0  0  0  0  0
   37.0350   27.0200   41.1950 C   0  0  0  0  0  0  0  0  0  0  0  0
   37.7960   26.3790   42.1660 C   0  0  0  0  0  0  0  0  0  0  0  0
   38.1680   27.0730   43.2700 N   0  0  0  0  0  0  0  0  0  0  0  0
   37.8300   28.3530   43.4640 C   0  0  0  0  0  0  0  0  0  0  0  0
   37.1040   29.0090   42.5670 N   0  0  0  0  0  0  0  0  0  0  0  0
   36.7390   26.4830   40.3250 H   0  0  0  0  0  0  0  0  0  0  0  0
   38.0810   25.3390   42.0260 H   0  0  0  0  0  0  0  0  0  0  0  0
   38.1110   28.9340   44.3330 H   0  0  0  0  0  0  0  0  0  0  0  0
  1  2  1  0  0  0  0
  1 10  1  0  0  0  0
  2 13  1  0  0  0  0
  3  4  1  0  0  0  0
  3  2  2  0  0  0  0
  5  3  1  0  0  0  0
  6  5  1  0  0  0  0
  7  5  2  0  0  0  0
  7  8  1  0  0  0  0
  8  1  2  0  0  0  0
 10 12  2  0  0  0  0
 10  9  1  0  0  0  0
 11 10  2  0  0  0  0
 13 14  2  0  0  0  0
 13 15  1  0  0  0  0
 15 20  1  0  0  0  0
 16 15  2  0  0  0  0
 16 17  1  0  0  0  0
 17 18  2  0  0  0  0
 18 19  1  0  0  0  0
 19 23  1  0  0  0  0
 20 19  2  0  0  0  0
 21 16  1  0  0  0  0
 22 17  1  0  0  0  0
M  END
>  <minimizedAffinity>
-4.41487312

$$$$
