
 OpenBabel03252507463D

 40 42  0  0  0  0  0  0  0  0999 V2000
   48.7200   33.9470   41.2610 C   0  0  0  0  0  0  0  0  0  0  0  0
   48.9540   32.7470   40.6150 C   0  0  0  0  0  0  0  0  0  0  0  0
   50.1010   32.0040   40.8690 C   0  0  0  0  0  0  0  0  0  0  0  0
   50.9770   32.5080   41.7780 N   0  0  0  0  0  0  0  0  0  0  0  0
   50.7160   33.6950   42.3990 C   0  0  0  0  0  0  0  0  0  0  0  0
   49.6120   34.3700   42.1270 N   0  0  0  0  0  0  0  0  0  0  0  0
   50.3490   31.0810   40.4130 H   0  0  0  0  0  0  0  0  0  0  0  0
   51.3700   34.1530   43.1310 H   0  0  0  0  0  0  0  0  0  0  0  0
   47.4830   34.6480   40.9020 C   0  0  0  0  0  0  0  0  0  0  0  0
   47.7370   35.6170   40.3720 H   0  0  0  0  0  0  0  0  0  0  0  0
   46.8540   34.0950   40.1810 H   0  0  0  0  0  0  0  0  0  0  0  0
   46.6210   34.9740   42.0910 C   0  0  0  0  0  0  0  0  0  0  0  0
   46.8480   36.0120   42.4120 H   0  0  0  0  0  0  0  0  0  0  0  0
   46.9390   34.2580   42.8990 H   0  0  0  0  0  0  0  0  0  0  0  0
   45.1680   34.9350   41.8350 C   0  0  0  0  0  0  0  0  0  0  0  0
   44.2750   35.5290   42.7670 C   0  0  0  0  0  0  0  0  0  0  0  0
   42.6280   35.2270   42.0220 S   0  0  0  0  0  0  0  0  0  0  0  0
   43.4410   34.3280   40.5450 C   0  0  0  0  0  0  0  0  0  0  0  0
   44.5500   34.4000   40.8130 N   0  0  0  0  0  0  0  0  0  0  0  0
   44.5180   36.0350   43.6890 H   0  0  0  0  0  0  0  0  0  0  0  0
   42.7120   33.7820   39.4910 O   0  0  0  0  0  0  0  0  0  0  0  0
   40.7310   34.0860   37.7630 O   0  0  0  0  0  0  0  0  0  0  0  0
   41.7790   34.8460   38.5560 P   0  0  0  0  0  0  0  0  0  0  0  0
   41.0060   35.9280   39.5950 O   0  0  0  0  0  0  0  0  0  0  0  0
   40.5350   36.6560   39.1060 H   0  0  0  0  0  0  0  0  0  0  0  0
   42.7950   35.7260   37.5200 O   0  0  0  0  0  0  0  0  0  0  0  0
   43.3680   35.0640   37.0760 H   0  0  0  0  0  0  0  0  0  0  0  0
   47.7810   32.1130   39.3930 S   0  0  0  0  0  0  0  0  0  0  0  0
   45.2840   31.1820   39.2470 C   0  0  0  0  0  0  0  0  0  0  0  0
   46.3170   31.4480   40.1470 C   0  0  0  0  0  0  0  0  0  0  0  0
   46.0740   31.1680   41.4720 C   0  0  0  0  0  0  0  0  0  0  0  0
   46.8780   31.3820   42.1310 H   0  0  0  0  0  0  0  0  0  0  0  0
   44.8880   30.6500   41.9400 C   0  0  0  0  0  0  0  0  0  0  0  0
   44.7940   30.4630   42.9970 H   0  0  0  0  0  0  0  0  0  0  0  0
   43.8650   30.3860   41.0540 C   0  0  0  0  0  3  0  0  0  0  0  0
   44.0830   30.6600   39.7090 C   0  0  0  0  0  3  0  0  0  0  0  0
   46.1140   32.3920   37.1070 H   0  0  0  0  0  0  0  0  0  0  0  0
   45.2620   31.4250   37.5200 S   0  0  0  0  0  0  0  0  0  0  0  0
   43.8660   31.7460   37.0420 O   0  0  0  0  0  0  0  0  0  0  0  0
   45.6510   30.1360   36.8470 O   0  0  0  0  0  0  0  0  0  0  0  0
  1  6  1  0  0  0  0
  2  3  1  0  0  0  0
  2  1  2  0  0  0  0
  3  4  2  0  0  0  0
  4  5  1  0  0  0  0
  5  8  1  0  0  0  0
  6  5  2  0  0  0  0
  7  3  1  0  0  0  0
  9  1  1  0  0  0  0
  9 12  1  0  0  0  0
 10  9  1  0  0  0  0
 11  9  1  0  0  0  0
 12 13  1  0  0  0  0
 12 14  1  0  0  0  0
 15 12  1  0  0  0  0
 15 16  2  0  0  0  0
 16 20  1  0  0  0  0
 17 16  1  0  0  0  0
 18 19  2  0  0  0  0
 18 17  1  0  0  0  0
 19 15  1  0  0  0  0
 21 18  1  0  0  0  0
 22 23  2  0  0  0  0
 23 21  1  0  0  0  0
 23 24  1  0  0  0  0
 25 24  1  0  0  0  0
 26 23  1  0  0  0  0
 27 26  1  0  0  0  0
 28 30  1  0  0  0  0
 28  2  1  0  0  0  0
 29 36  2  0  0  0  0
 29 30  1  0  0  0  0
 30 31  2  0  0  0  0
 31 33  1  0  0  0  0
 31 32  1  0  0  0  0
 33 34  1  0  0  0  0
 35 33  2  0  0  0  0
 36 35  1  0  0  0  0
 37 38  1  0  0  0  0
 38 29  1  0  0  0  0
 39 38  2  0  0  0  0
 40 38  2  0  0  0  0
M  END
>  <minimizedAffinity>
-4.48470449

>  <minimizedRMSD>
0.954197168

$$$$
