
 OpenBabel03252508023D

 45 48  0  0  1  0  0  0  0  0999 V2000
   42.0760   33.2440   41.1520 C   0  0  0  0  0  0  0  0  0  0  0  0
   42.8130   34.3800   41.3180 C   0  0  0  0  0  0  0  0  0  0  0  0
   42.1370   35.6160   41.2510 C   0  0  0  0  0  0  0  0  0  0  0  0
   40.7890   35.7320   41.0310 C   0  0  0  0  0  0  0  0  0  0  0  0
   40.0580   34.5890   40.8680 C   0  0  0  0  0  0  0  0  0  0  0  0
   40.7000   33.3890   40.9300 C   0  0  0  0  0  0  0  0  0  0  0  0
   42.6450   36.5710   41.3610 H   0  0  0  0  0  0  0  0  0  0  0  0
   40.2920   36.6640   40.9830 H   0  0  0  0  0  0  0  0  0  0  0  0
   39.0110   34.6080   40.6940 H   0  0  0  0  0  0  0  0  0  0  0  0
   40.0980   32.4790   40.7960 H   0  0  0  0  0  0  0  0  0  0  0  0
   42.7260   31.7020   41.3010 S   0  0  0  0  0  0  0  0  0  0  0  0
   41.6220   30.8570   40.5870 O   0  0  0  0  0  0  0  0  0  0  0  0
   42.7910   31.2310   42.7010 O   0  0  0  0  0  0  0  0  0  0  0  0
   44.3180   29.6300   40.8770 C   0  0  0  0  0  0  0  0  0  0  0  0
   43.8770   30.8860   40.3900 C   0  0  0  0  0  0  0  0  0  0  0  0
   44.4770   31.1810   39.1390 C   0  0  0  0  0  0  0  0  0  0  0  0
   44.0890   32.1440   38.7510 H   0  0  0  0  0  0  0  0  0  0  0  0
   45.3740   30.4890   38.3550 C   0  0  0  0  0  0  0  0  0  0  0  0
   45.6910   30.9120   37.4420 H   0  0  0  0  0  0  0  0  0  0  0  0
   45.6800   29.3280   38.9700 C   0  0  0  0  0  3  0  0  0  0  0  0
   45.2120   28.8630   40.1680 C   0  0  0  0  0  3  0  0  0  0  0  0
   43.1690   29.8410   43.2150 H   0  0  0  0  0  0  0  0  0  0  0  0
   43.7860   28.9570   42.4070 S   0  0  0  0  0  0  0  0  0  0  0  0
   44.8890   28.1610   43.0860 O   0  0  0  0  0  0  0  0  0  0  0  0
   42.7240   27.8850   42.1750 O   0  0  0  0  0  0  0  0  0  0  0  0
   44.2440   34.3650   41.5520 C   0  0  0  0  0  0  0  0  0  0  0  0
   45.1220   34.2840   40.6380 O   0  0  0  0  0  0  0  0  0  0  0  0
   44.5900   34.4520   42.9460 C   0  0  0  0  0  0  0  0  0  0  0  0
   44.3070   35.7120   43.5810 C   0  0  0  0  0  0  0  0  0  0  0  0
   44.6250   35.8140   44.9250 C   0  0  0  0  0  0  0  0  0  0  0  0
   45.1760   34.7370   45.5500 N   0  0  0  0  0  0  0  0  0  0  0  0
   45.4250   33.5590   44.8940 C   0  0  0  0  0  0  0  0  0  0  0  0
   45.1300   33.4600   43.6460 N   0  0  0  0  0  0  0  0  0  0  0  0
   43.8860   36.5890   43.1700 H   0  0  0  0  0  0  0  0  0  0  0  0
   44.4590   36.7100   45.5100 H   0  0  0  0  0  0  0  0  0  0  0  0
   46.0170   32.4430   45.6550 C   0  0  1  0  0  0  0  0  0  0  0  0
   46.9660   32.7490   46.7930 C   0  0  0  0  0  0  0  0  0  0  0  0
   45.5500   32.3350   47.0640 C   0  0  1  0  0  0  0  0  0  0  0  0
   46.2050   31.5060   45.1130 H   0  0  0  0  0  0  0  0  0  0  0  0
   47.2540   33.8320   46.8250 H   0  0  0  0  0  0  0  0  0  0  0  0
   47.7950   32.0420   46.9450 H   0  0  0  0  0  0  0  0  0  0  0  0
   45.4690   31.3050   47.4810 H   0  0  0  0  0  0  0  0  0  0  0  0
   44.7700   33.4020   47.6540 N   0  0  0  0  0  0  0  0  0  0  0  0
   44.1230   33.0150   48.3760 H   0  0  0  0  0  0  0  0  0  0  0  0
   45.3200   34.2080   47.9760 H   0  0  0  0  0  0  0  0  0  0  0  0
  1 11  1  0  0  0  0
  1  2  1  0  0  0  0
  2 26  1  0  0  0  0
  3  2  2  0  0  0  0
  3  7  1  0  0  0  0
  4  3  1  0  0  0  0
  5  6  1  0  0  0  0
  5  4  2  0  0  0  0
  6  1  2  0  0  0  0
  8  4  1  0  0  0  0
  9  5  1  0  0  0  0
 10  6  1  0  0  0  0
 11 13  2  0  0  0  0
 12 11  2  0  0  0  0
 14 23  1  0  0  0  0
 15 14  1  0  0  0  0
 15 11  1  0  0  0  0
 16 15  2  0  0  0  0
 17 16  1  0  0  0  0
 18 20  2  0  0  0  0
 18 16  1  0  0  0  0
 19 18  1  0  0  0  0
 20 21  1  0  0  0  0
 21 14  2  0  0  0  0
 23 24  2  0  0  0  0
 23 22  1  0  0  0  0
 25 23  2  0  0  0  0
 26 28  1  0  0  0  0
 27 26  2  0  0  0  0
 28 29  2  0  0  0  0
 28 33  1  0  0  0  0
 29 30  1  0  0  0  0
 30 35  1  0  0  0  0
 30 31  2  0  0  0  0
 32 31  1  0  0  0  0
 32 36  1  0  0  0  0
 33 32  2  0  0  0  0
 34 29  1  0  0  0  0
 36 39  1  6  0  0  0
 36 37  1  0  0  0  0
 36 38  1  0  0  0  0
 37 40  1  0  0  0  0
 37 41  1  0  0  0  0
 37 38  1  0  0  0  0
 38 42  1  1  0  0  0
 38 43  1  0  0  0  0
 43 45  1  0  0  0  0
 43 44  1  0  0  0  0
M  END
>  <minimizedAffinity>
-5.52088118

>  <minimizedRMSD>
1.58695602

$$$$
