
 OpenBabel03252507453D

 40 42  0  0  0  0  0  0  0  0999 V2000
   48.4880   34.0070   41.3470 C   0  0  0  0  0  0  0  0  0  0  0  0
   48.9260   32.7760   40.8950 C   0  0  0  0  0  0  0  0  0  0  0  0
   50.1690   32.2740   41.2600 C   0  0  0  0  0  0  0  0  0  0  0  0
   50.9320   33.0460   42.0780 N   0  0  0  0  0  0  0  0  0  0  0  0
   50.4710   34.2570   42.5080 C   0  0  0  0  0  0  0  0  0  0  0  0
   49.2810   34.6960   42.1350 N   0  0  0  0  0  0  0  0  0  0  0  0
   50.5720   31.3450   40.9520 H   0  0  0  0  0  0  0  0  0  0  0  0
   51.0260   34.9210   43.1590 H   0  0  0  0  0  0  0  0  0  0  0  0
   47.1650   34.4370   40.8840 C   0  0  0  0  0  0  0  0  0  0  0  0
   47.2810   35.2240   40.0780 H   0  0  0  0  0  0  0  0  0  0  0  0
   46.5810   33.6320   40.4020 H   0  0  0  0  0  0  0  0  0  0  0  0
   46.3120   35.0110   41.9830 C   0  0  0  0  0  0  0  0  0  0  0  0
   46.5610   36.0880   42.0910 H   0  0  0  0  0  0  0  0  0  0  0  0
   46.6170   34.4640   42.9190 H   0  0  0  0  0  0  0  0  0  0  0  0
   44.8580   34.9520   41.7370 C   0  0  0  0  0  0  0  0  0  0  0  0
   43.9590   35.4320   42.7280 C   0  0  0  0  0  0  0  0  0  0  0  0
   42.3120   35.1490   41.9730 S   0  0  0  0  0  0  0  0  0  0  0  0
   43.1340   34.4140   40.4130 C   0  0  0  0  0  0  0  0  0  0  0  0
   44.2430   34.4930   40.6770 N   0  0  0  0  0  0  0  0  0  0  0  0
   44.1970   35.8590   43.6900 H   0  0  0  0  0  0  0  0  0  0  0  0
   42.4090   33.9440   39.3200 O   0  0  0  0  0  0  0  0  0  0  0  0
   40.4390   34.3950   37.6120 O   0  0  0  0  0  0  0  0  0  0  0  0
   41.5190   35.0800   38.4300 P   0  0  0  0  0  0  0  0  0  0  0  0
   40.7930   36.1520   39.5120 O   0  0  0  0  0  0  0  0  0  0  0  0
   40.3520   36.9170   39.0530 H   0  0  0  0  0  0  0  0  0  0  0  0
   42.5680   35.9570   37.4240 O   0  0  0  0  0  0  0  0  0  0  0  0
   43.1130   35.2890   36.9530 H   0  0  0  0  0  0  0  0  0  0  0  0
   47.8970   31.7810   39.7870 S   0  0  0  0  0  0  0  0  0  0  0  0
   47.1250   29.5250   40.9840 C   0  0  0  0  0  0  0  0  0  0  0  0
   46.6970   30.8160   40.6690 C   0  0  0  0  0  0  0  0  0  0  0  0
   45.4280   31.1650   41.0720 C   0  0  0  0  0  0  0  0  0  0  0  0
   45.1310   32.1520   40.8150 H   0  0  0  0  0  0  0  0  0  0  0  0
   44.5830   30.3200   41.7550 C   0  0  0  0  0  0  0  0  0  0  0  0
   43.6050   30.6870   42.0270 H   0  0  0  0  0  0  0  0  0  0  0  0
   45.0020   29.0460   42.0680 C   0  0  0  0  0  3  0  0  0  0  0  0
   46.2800   28.6660   41.6720 C   0  0  0  0  0  3  0  0  0  0  0  0
   49.2950   29.3450   39.5740 H   0  0  0  0  0  0  0  0  0  0  0  0
   48.6550   28.7710   40.6200 S   0  0  0  0  0  0  0  0  0  0  0  0
   48.4750   27.2970   40.3530 O   0  0  0  0  0  0  0  0  0  0  0  0
   49.5440   28.8750   41.8290 O   0  0  0  0  0  0  0  0  0  0  0  0
  1  6  1  0  0  0  0
  2  3  1  0  0  0  0
  2  1  2  0  0  0  0
  3  4  2  0  0  0  0
  4  5  1  0  0  0  0
  5  8  1  0  0  0  0
  6  5  2  0  0  0  0
  7  3  1  0  0  0  0
  9  1  1  0  0  0  0
  9 12  1  0  0  0  0
 10  9  1  0  0  0  0
 11  9  1  0  0  0  0
 12 13  1  0  0  0  0
 12 14  1  0  0  0  0
 15 12  1  0  0  0  0
 15 16  2  0  0  0  0
 16 20  1  0  0  0  0
 17 16  1  0  0  0  0
 18 19  2  0  0  0  0
 18 17  1  0  0  0  0
 19 15  1  0  0  0  0
 21 18  1  0  0  0  0
 22 23  2  0  0  0  0
 23 21  1  0  0  0  0
 23 24  1  0  0  0  0
 25 24  1  0  0  0  0
 26 23  1  0  0  0  0
 27 26  1  0  0  0  0
 28 30  1  0  0  0  0
 28  2  1  0  0  0  0
 29 36  1  0  0  0  0
 30 29  2  0  0  0  0
 30 31  1  0  0  0  0
 31 33  2  0  0  0  0
 32 31  1  0  0  0  0
 33 34  1  0  0  0  0
 33 35  1  0  0  0  0
 36 35  2  0  0  0  0
 37 38  1  0  0  0  0
 38 29  1  0  0  0  0
 38 40  2  0  0  0  0
 39 38  2  0  0  0  0
M  END
>  <minimizedAffinity>
-4.20394707

>  <minimizedRMSD>
0.429951876

$$$$
