
 OpenBabel03252507453D

 40 42  0  0  0  0  0  0  0  0999 V2000
   48.8530   33.8860   41.2550 C   0  0  0  0  0  0  0  0  0  0  0  0
   49.0290   32.6830   40.5960 C   0  0  0  0  0  0  0  0  0  0  0  0
   50.1410   31.8850   40.8380 C   0  0  0  0  0  0  0  0  0  0  0  0
   51.0430   32.3390   41.7470 N   0  0  0  0  0  0  0  0  0  0  0  0
   50.8400   33.5300   42.3800 C   0  0  0  0  0  0  0  0  0  0  0  0
   49.7680   34.2580   42.1200 N   0  0  0  0  0  0  0  0  0  0  0  0
   50.3440   30.9560   40.3720 H   0  0  0  0  0  0  0  0  0  0  0  0
   51.5190   33.9500   43.1140 H   0  0  0  0  0  0  0  0  0  0  0  0
   47.6490   34.6480   40.9090 C   0  0  0  0  0  0  0  0  0  0  0  0
   47.9450   35.6060   40.3810 H   0  0  0  0  0  0  0  0  0  0  0  0
   46.9890   34.1290   40.1910 H   0  0  0  0  0  0  0  0  0  0  0  0
   46.8130   35.0090   42.1060 C   0  0  0  0  0  0  0  0  0  0  0  0
   47.0490   36.0540   42.3940 H   0  0  0  0  0  0  0  0  0  0  0  0
   47.1450   34.3140   42.9270 H   0  0  0  0  0  0  0  0  0  0  0  0
   45.3550   34.9670   41.8820 C   0  0  0  0  0  0  0  0  0  0  0  0
   44.4860   35.6310   42.7890 C   0  0  0  0  0  0  0  0  0  0  0  0
   42.8210   35.2960   42.0980 S   0  0  0  0  0  0  0  0  0  0  0  0
   43.5970   34.2930   40.6690 C   0  0  0  0  0  0  0  0  0  0  0  0
   44.7110   34.3710   40.9110 N   0  0  0  0  0  0  0  0  0  0  0  0
   44.7510   36.1950   43.6700 H   0  0  0  0  0  0  0  0  0  0  0  0
   42.8420   33.6850   39.6690 O   0  0  0  0  0  0  0  0  0  0  0  0
   40.9250   33.8860   37.8550 O   0  0  0  0  0  0  0  0  0  0  0  0
   41.9260   34.6950   38.6620 P   0  0  0  0  0  0  0  0  0  0  0  0
   41.0890   35.7950   39.6320 O   0  0  0  0  0  0  0  0  0  0  0  0
   40.6240   36.4950   39.1000 H   0  0  0  0  0  0  0  0  0  0  0  0
   42.9630   35.5620   37.6360 O   0  0  0  0  0  0  0  0  0  0  0  0
   43.5670   34.8980   37.2380 H   0  0  0  0  0  0  0  0  0  0  0  0
   47.8220   32.1160   39.3740 S   0  0  0  0  0  0  0  0  0  0  0  0
   45.3400   31.1460   39.2350 C   0  0  0  0  0  0  0  0  0  0  0  0
   46.3780   31.4120   40.1300 C   0  0  0  0  0  0  0  0  0  0  0  0
   46.1540   31.1020   41.4520 C   0  0  0  0  0  0  0  0  0  0  0  0
   46.9600   31.3180   42.1070 H   0  0  0  0  0  0  0  0  0  0  0  0
   44.9810   30.5550   41.9210 C   0  0  0  0  0  0  0  0  0  0  0  0
   44.9010   30.3470   42.9770 H   0  0  0  0  0  0  0  0  0  0  0  0
   43.9540   30.2910   41.0410 C   0  0  0  0  0  3  0  0  0  0  0  0
   44.1540   30.5940   39.6990 C   0  0  0  0  0  3  0  0  0  0  0  0
   46.1570   32.3810   37.1050 H   0  0  0  0  0  0  0  0  0  0  0  0
   45.2950   31.4210   37.5140 S   0  0  0  0  0  0  0  0  0  0  0  0
   43.8980   31.7720   37.0630 O   0  0  0  0  0  0  0  0  0  0  0  0
   45.6540   30.1380   36.8110 O   0  0  0  0  0  0  0  0  0  0  0  0
  1  6  1  0  0  0  0
  2  3  1  0  0  0  0
  2  1  2  0  0  0  0
  3  4  2  0  0  0  0
  4  5  1  0  0  0  0
  5  8  1  0  0  0  0
  6  5  2  0  0  0  0
  7  3  1  0  0  0  0
  9  1  1  0  0  0  0
  9 12  1  0  0  0  0
 10  9  1  0  0  0  0
 11  9  1  0  0  0  0
 12 13  1  0  0  0  0
 12 14  1  0  0  0  0
 15 12  1  0  0  0  0
 15 16  2  0  0  0  0
 16 20  1  0  0  0  0
 17 16  1  0  0  0  0
 18 19  2  0  0  0  0
 18 17  1  0  0  0  0
 19 15  1  0  0  0  0
 21 18  1  0  0  0  0
 22 23  2  0  0  0  0
 23 24  1  0  0  0  0
 23 21  1  0  0  0  0
 25 24  1  0  0  0  0
 26 23  1  0  0  0  0
 27 26  1  0  0  0  0
 28 30  1  0  0  0  0
 28  2  1  0  0  0  0
 29 36  2  0  0  0  0
 29 30  1  0  0  0  0
 30 31  2  0  0  0  0
 31 33  1  0  0  0  0
 31 32  1  0  0  0  0
 33 34  1  0  0  0  0
 35 33  2  0  0  0  0
 36 35  1  0  0  0  0
 37 38  1  0  0  0  0
 38 29  1  0  0  0  0
 39 38  2  0  0  0  0
 40 38  2  0  0  0  0
M  END
>  <minimizedAffinity>
-4.42856979

>  <minimizedRMSD>
1.54117858

$$$$
