
 OpenBabel03252508033D

 45 48  0  0  1  0  0  0  0  0999 V2000
   44.9860   33.9160   40.5290 C   0  0  0  0  0  0  0  0  0  0  0  0
   44.9940   34.8240   41.5470 C   0  0  0  0  0  0  0  0  0  0  0  0
   43.8280   35.5890   41.7540 C   0  0  0  0  0  0  0  0  0  0  0  0
   42.6950   35.4650   40.9920 C   0  0  0  0  0  0  0  0  0  0  0  0
   42.6950   34.5530   39.9750 C   0  0  0  0  0  0  0  0  0  0  0  0
   43.8160   33.8090   39.7650 C   0  0  0  0  0  0  0  0  0  0  0  0
   43.7490   36.3420   42.5350 H   0  0  0  0  0  0  0  0  0  0  0  0
   41.8260   36.0430   41.1560 H   0  0  0  0  0  0  0  0  0  0  0  0
   41.8520   34.4070   39.3470 H   0  0  0  0  0  0  0  0  0  0  0  0
   43.8000   33.0800   38.9420 H   0  0  0  0  0  0  0  0  0  0  0  0
   46.2650   32.8710   40.2240 S   0  0  0  0  0  0  0  0  0  0  0  0
   47.2870   33.8550   39.5670 O   0  0  0  0  0  0  0  0  0  0  0  0
   45.9460   31.8410   39.2110 O   0  0  0  0  0  0  0  0  0  0  0  0
   47.1760   31.3210   42.1660 C   0  0  0  0  0  0  0  0  0  0  0  0
   47.5060   32.3110   41.2080 C   0  0  0  0  0  0  0  0  0  0  0  0
   48.8970   32.5910   41.2290 C   0  0  0  0  0  0  0  0  0  0  0  0
   49.1450   33.3340   40.4440 H   0  0  0  0  0  0  0  0  0  0  0  0
   49.9310   32.0900   41.9880 C   0  0  0  0  0  0  0  0  0  0  0  0
   50.9080   32.4550   41.8310 H   0  0  0  0  0  0  0  0  0  0  0  0
   49.4360   31.1680   42.8380 C   0  0  0  0  0  0  0  0  0  0  0  0
   48.1390   30.7590   42.9720 C   0  0  0  0  0  0  0  0  0  0  0  0
   44.5860   31.5310   41.8870 H   0  0  0  0  0  0  0  0  0  0  0  0
   45.5390   30.7420   42.4200 S   0  0  0  0  0  0  0  0  0  0  0  0
   45.2940   30.3650   43.8720 O   0  0  0  0  0  0  0  0  0  0  0  0
   45.3340   29.4070   41.7100 O   0  0  0  0  0  0  0  0  0  0  0  0
   46.1420   35.0330   42.4080 C   0  0  0  0  0  0  0  0  0  0  0  0
   47.2540   35.5110   42.0230 O   0  0  0  0  0  0  0  0  0  0  0  0
   45.9040   34.6410   43.7730 C   0  0  0  0  0  0  0  0  0  0  0  0
   44.8790   35.3770   44.4630 C   0  0  0  0  0  0  0  0  0  0  0  0
   44.6290   35.0100   45.7740 C   0  0  0  0  0  0  0  0  0  0  0  0
   45.3560   33.9970   46.3200 N   0  0  0  0  0  0  0  0  0  0  0  0
   46.3240   33.3290   45.6140 C   0  0  0  0  0  0  0  0  0  0  0  0
   46.5590   33.6660   44.3950 N   0  0  0  0  0  0  0  0  0  0  0  0
   44.2750   36.1710   44.1150 H   0  0  0  0  0  0  0  0  0  0  0  0
   43.8820   35.4890   46.3950 H   0  0  0  0  0  0  0  0  0  0  0  0
   47.0560   32.2380   46.2860 C   0  0  1  0  0  0  0  0  0  0  0  0
   47.2150   32.2740   47.7900 C   0  0  0  0  0  0  0  0  0  0  0  0
   46.2140   31.3620   47.1440 C   0  0  1  0  0  0  0  0  0  0  0  0
   47.8750   31.7620   45.7280 H   0  0  0  0  0  0  0  0  0  0  0  0
   46.8860   33.2540   48.2270 H   0  0  0  0  0  0  0  0  0  0  0  0
   48.1570   31.8760   48.1940 H   0  0  0  0  0  0  0  0  0  0  0  0
   46.5080   30.2890   47.1940 H   0  0  0  0  0  0  0  0  0  0  0  0
   44.8500   31.7390   47.4510 N   0  0  0  0  0  0  0  0  0  0  0  0
   44.2660   30.8850   47.5920 H   0  0  0  0  0  0  0  0  0  0  0  0
   44.7560   32.4370   48.1990 H   0  0  0  0  0  0  0  0  0  0  0  0
  1  2  1  0  0  0  0
  2  3  2  0  0  0  0
  2 26  1  0  0  0  0
  3  7  1  0  0  0  0
  4  8  1  0  0  0  0
  4  3  1  0  0  0  0
  5  4  2  0  0  0  0
  6  5  1  0  0  0  0
  6  1  2  0  0  0  0
  9  5  1  0  0  0  0
 10  6  1  0  0  0  0
 11  1  1  0  0  0  0
 11 15  1  0  0  0  0
 12 11  2  0  0  0  0
 13 11  2  0  0  0  0
 14 23  1  0  0  0  0
 14 21  1  0  0  0  0
 15 16  1  0  0  0  0
 15 14  2  0  0  0  0
 16 18  2  0  0  0  0
 17 16  1  0  0  0  0
 18 20  1  0  0  0  0
 19 18  1  0  0  0  0
 20 21  2  0  0  0  0
 22 23  1  0  0  0  0
 23 24  2  0  0  0  0
 25 23  2  0  0  0  0
 26 28  1  0  0  0  0
 27 26  2  0  0  0  0
 28 33  2  0  0  0  0
 28 29  1  0  0  0  0
 29 30  2  0  0  0  0
 30 31  1  0  0  0  0
 30 35  1  0  0  0  0
 32 36  1  0  0  0  0
 32 31  2  0  0  0  0
 33 32  1  0  0  0  0
 34 29  1  0  0  0  0
 36 39  1  6  0  0  0
 36 38  1  0  0  0  0
 36 37  1  0  0  0  0
 37 41  1  0  0  0  0
 37 40  1  0  0  0  0
 38 42  1  6  0  0  0
 38 43  1  0  0  0  0
 38 37  1  0  0  0  0
 43 44  1  0  0  0  0
 43 45  1  0  0  0  0
M  END
>  <minimizedAffinity>
-6.0201931

>  <minimizedRMSD>
2.98112249

$$$$
