
 OpenBabel03252509313D

 32 34  0  0  0  0  0  0  0  0999 V2000
   49.6070   31.7220   42.6780 O   0  0  0  0  0  0  0  0  0  0  0  0
   48.3450   32.5420   42.6740 P   0  0  2  0  0  0  0  0  0  0  0  0
   48.6210   34.1700   42.3550 O   0  0  0  0  0  0  0  0  0  0  0  0
   49.5690   34.4310   42.3650 H   0  0  0  0  0  0  0  0  0  0  0  0
   47.6180   32.4320   44.2080 O   0  0  0  0  0  0  0  0  0  0  0  0
   46.2560   32.2870   43.9800 C   0  0  0  0  0  0  0  0  0  0  0  0
   45.8770   31.5040   44.6960 H   0  0  0  0  0  0  0  0  0  0  0  0
   46.0050   31.8840   42.9790 H   0  0  0  0  0  0  0  0  0  0  0  0
   44.6890   35.3170   45.4920 C   0  0  0  0  0  0  0  0  0  0  0  0
   45.3760   34.0900   45.3810 C   0  0  0  0  0  0  0  0  0  0  0  0
   45.5460   33.5580   44.1220 C   0  0  0  0  0  0  0  0  0  0  0  0
   45.0500   34.2320   43.0360 N   0  0  0  0  0  0  0  0  0  0  0  0
   44.3950   35.4100   43.1810 C   0  0  0  0  0  0  0  0  0  0  0  0
   44.2150   35.9490   44.3970 N   0  0  0  0  0  0  0  0  0  0  0  0
   44.5150   35.7980   46.4420 H   0  0  0  0  0  0  0  0  0  0  0  0
   45.7370   33.6250   46.2960 H   0  0  0  0  0  0  0  0  0  0  0  0
   44.0050   35.9340   42.3130 H   0  0  0  0  0  0  0  0  0  0  0  0
   47.2880   31.8610   41.5610 O   0  0  0  0  0  0  0  0  0  0  0  0
   46.2790   30.4030   39.3560 H   0  0  0  0  0  0  0  0  0  0  0  0
   46.8960   31.2330   39.1990 N   0  0  0  0  0  0  0  0  0  0  0  0
   47.4170   31.9810   40.1840 C   0  0  0  0  0  0  0  0  0  0  0  0
   48.1530   32.9570   39.5970 N   0  0  0  0  0  0  0  0  0  0  0  0
   48.0870   32.8120   38.2590 C   0  0  0  0  0  0  0  0  0  0  0  0
   48.5910   33.4520   37.1530 C   0  0  0  0  0  0  0  0  0  0  0  0
   48.3430   33.0650   35.8850 N   0  0  0  0  0  0  0  0  0  0  0  0
   47.5560   31.9880   35.6560 C   0  0  0  0  0  0  0  0  0  0  0  0
   47.2630   31.5540   34.7090 H   0  0  0  0  0  0  0  0  0  0  0  0
   47.0630   31.3620   36.7270 N   0  0  0  0  0  0  0  0  0  0  0  0
   47.2900   31.7210   38.0030 C   0  0  0  0  0  0  0  0  0  0  0  0
   49.4240   34.5890   37.3470 N   0  0  0  0  0  0  0  0  0  0  0  0
   48.9100   35.4460   37.6730 H   0  0  0  0  0  0  0  0  0  0  0  0
   50.3790   35.0320   37.3230 H   0  0  0  0  0  0  0  0  0  0  0  0
  2  1  2  6  0  0  0
  2  5  1  0  0  0  0
  3  4  1  0  0  0  0
  3  2  1  0  0  0  0
  6 11  1  0  0  0  0
  6  5  1  0  0  0  0
  6  7  1  0  0  0  0
  8  6  1  0  0  0  0
  9 15  1  0  0  0  0
 10  9  1  0  0  0  0
 10 16  1  0  0  0  0
 11 10  2  0  0  0  0
 12 13  2  0  0  0  0
 12 11  1  0  0  0  0
 13 14  1  0  0  0  0
 14  9  2  0  0  0  0
 17 13  1  0  0  0  0
 18  2  1  0  0  0  0
 20 19  1  0  0  0  0
 20 21  1  0  0  0  0
 21 18  1  0  0  0  0
 22 21  2  0  0  0  0
 23 22  1  0  0  0  0
 24 30  1  0  0  0  0
 24 23  2  0  0  0  0
 25 24  1  0  0  0  0
 26 25  2  0  0  0  0
 26 28  1  0  0  0  0
 27 26  1  0  0  0  0
 28 29  2  0  0  0  0
 29 23  1  0  0  0  0
 29 20  1  0  0  0  0
 30 31  1  0  0  0  0
 32 30  1  0  0  0  0
M  END
>  <minimizedAffinity>
-4.38069916

>  <minimizedRMSD>
4.75721312

$$$$
