
 OpenBabel03242519413D

 34 36  0  0  0  0  0  0  0  0999 V2000
   47.8030   32.6760   41.8450 O   0  0  0  0  0  0  0  0  0  0  0  0
   46.8740   33.7910   41.2950 P   0  0  2  0  0  0  0  0  0  0  0  0
   45.3250   33.6210   42.0190 O   0  0  0  0  0  0  0  0  0  0  0  0
   44.3460   35.9200   44.6700 C   0  0  0  0  0  0  0  0  0  0  0  0
   44.5430   35.3760   43.3770 C   0  0  0  0  0  0  0  0  0  0  0  0
   45.1470   34.1170   43.2930 C   0  0  0  0  0  0  0  0  0  0  0  0
   45.5050   33.4970   44.4320 N   0  0  0  0  0  0  0  0  0  0  0  0
   45.3030   34.0420   45.6530 C   0  0  0  0  0  0  0  0  0  0  0  0
   44.7290   35.2460   45.7800 N   0  0  0  0  0  0  0  0  0  0  0  0
   43.8770   36.8970   44.7250 H   0  0  0  0  0  0  0  0  0  0  0  0
   44.2120   35.9720   42.5320 H   0  0  0  0  0  0  0  0  0  0  0  0
   45.6350   33.4440   46.5050 H   0  0  0  0  0  0  0  0  0  0  0  0
   46.7140   33.6040   39.6580 O   0  0  0  0  0  0  0  0  0  0  0  0
   45.6390   33.2340   38.9160 C   0  0  0  0  0  0  0  0  0  0  0  0
   45.8430   32.2930   37.9390 O   0  0  0  0  0  0  0  0  0  0  0  0
   43.9010   35.5310   38.8650 H   0  0  0  0  0  0  0  0  0  0  0  0
   43.4570   34.5730   38.7000 N   0  0  0  0  0  0  0  0  0  0  0  0
   44.1830   33.4200   38.6950 C   0  0  0  0  0  0  0  0  0  0  0  0
   43.2450   32.5350   38.4620 N   0  0  0  0  0  0  0  0  0  0  0  0
   42.0560   33.1420   38.3410 C   0  0  0  0  0  0  0  0  0  0  0  0
   40.9230   32.4100   38.0940 C   0  0  0  0  0  0  0  0  0  0  0  0
   39.8080   33.1900   38.0030 N   0  0  0  0  0  0  0  0  0  0  0  0
   39.8350   34.5270   38.1420 C   0  0  0  0  0  0  0  0  0  0  0  0
   38.9280   35.1200   38.0630 H   0  0  0  0  0  0  0  0  0  0  0  0
   41.0270   35.1530   38.3870 N   0  0  0  0  0  0  0  0  0  0  0  0
   42.1610   34.4950   38.4940 C   0  0  0  0  0  0  0  0  0  0  0  0
   40.7890   31.0050   37.9310 N   0  0  0  0  0  0  0  0  0  0  0  0
   40.7200   30.7560   36.9250 H   0  0  0  0  0  0  0  0  0  0  0  0
   40.7700   30.3480   38.7620 H   0  0  0  0  0  0  0  0  0  0  0  0
   47.5220   35.2410   41.7690 O   0  0  0  0  0  0  0  0  0  0  0  0
   48.7900   35.4510   41.2370 C   0  0  0  0  0  0  0  0  0  0  0  0
   49.3270   36.6660   41.6240 F   0  0  0  0  0  0  0  0  0  0  0  0
   49.6070   34.4030   41.5210 F   0  0  0  0  0  0  0  0  0  0  0  0
   48.6200   35.5220   39.8570 F   0  0  0  0  0  0  0  0  0  0  0  0
  2 30  1  0  0  0  0
  2  1  2  1  0  0  0
  2  3  1  0  0  0  0
  3  6  1  0  0  0  0
  4 10  1  0  0  0  0
  4  9  1  0  0  0  0
  5  4  2  0  0  0  0
  6  5  1  0  0  0  0
  6  7  2  0  0  0  0
  7  8  1  0  0  0  0
  8  9  2  0  0  0  0
  8 12  1  0  0  0  0
 11  5  1  0  0  0  0
 13  2  1  0  0  0  0
 14 13  1  0  0  0  0
 15 14  2  0  0  0  0
 17 16  1  0  0  0  0
 18 17  1  0  0  0  0
 18 14  1  0  0  0  0
 19 18  2  0  0  0  0
 20 19  1  0  0  0  0
 20 26  1  0  0  0  0
 21 20  2  0  0  0  0
 22 21  1  0  0  0  0
 22 23  2  0  0  0  0
 23 25  1  0  0  0  0
 24 23  1  0  0  0  0
 25 26  2  0  0  0  0
 26 17  1  0  0  0  0
 27 21  1  0  0  0  0
 27 29  1  0  0  0  0
 28 27  1  0  0  0  0
 31 33  1  0  0  0  0
 31 32  1  0  0  0  0
 31 30  1  0  0  0  0
 34 31  1  0  0  0  0
M  END
>  <minimizedAffinity>
-6.05051231

>  <minimizedRMSD>
4.02364969

$$$$
