
 OpenBabel03252502563D

 42 45  0  0  0  0  0  0  0  0999 V2000
   45.5950   29.9510   44.6940 Br  0  0  0  0  0  0  0  0  0  0  0  0
   45.6630   30.5500   46.5350 C   0  0  0  0  0  0  0  0  0  0  0  0
   46.3470   31.7050   46.7460 C   0  0  0  0  0  0  0  0  0  0  0  0
   46.3800   32.1130   48.0860 C   0  0  0  0  0  0  0  0  0  0  0  0
   45.7770   31.4160   49.1040 C   0  0  0  0  0  0  0  0  0  0  0  0
   45.1060   30.2590   48.8040 C   0  0  0  0  0  0  0  0  0  0  0  0
   45.0390   29.8040   47.5030 C   0  0  0  0  0  0  0  0  0  0  0  0
   46.8940   33.0150   48.3690 H   0  0  0  0  0  0  0  0  0  0  0  0
   45.8280   31.7670   50.1240 H   0  0  0  0  0  0  0  0  0  0  0  0
   44.6140   29.6670   49.5600 H   0  0  0  0  0  0  0  0  0  0  0  0
   47.0310   32.5400   45.7550 C   0  0  0  0  0  0  0  0  0  0  0  0
   47.9940   32.8740   46.1570 H   0  0  0  0  0  0  0  0  0  0  0  0
   47.2880   31.8600   44.8970 H   0  0  0  0  0  0  0  0  0  0  0  0
   44.5460   35.2970   45.4380 C   0  0  0  0  0  0  0  0  0  0  0  0
   44.7490   35.7240   44.1260 C   0  0  0  0  0  0  0  0  0  0  0  0
   45.7280   35.0660   43.3710 C   0  0  0  0  0  0  0  0  0  0  0  0
   46.4210   34.0630   43.9400 N   0  0  0  0  0  0  0  0  0  0  0  0
   46.2120   33.6550   45.2250 C   0  0  0  0  0  0  0  0  0  0  0  0
   45.2630   34.3000   45.9420 N   0  0  0  0  0  0  0  0  0  0  0  0
   43.7840   35.8140   46.0130 H   0  0  0  0  0  0  0  0  0  0  0  0
   44.1920   36.5300   43.6670 H   0  0  0  0  0  0  0  0  0  0  0  0
   45.9620   35.3150   42.3590 H   0  0  0  0  0  0  0  0  0  0  0  0
   44.3550   28.6270   47.2120 O   0  0  0  0  0  0  0  0  0  0  0  0
   43.8870   26.0730   47.1880 O   0  0  0  0  0  0  0  0  0  0  0  0
   44.7480   27.1210   47.8670 P   0  0  2  0  0  0  0  0  0  0  0  0
   44.4210   27.1800   49.5150 O   0  0  0  0  0  0  0  0  0  0  0  0
   45.2290   27.4670   49.9930 H   0  0  0  0  0  0  0  0  0  0  0  0
   46.3690   26.7260   47.5800 O   0  0  0  0  0  0  0  0  0  0  0  0
   48.9760   25.6320   47.3080 H   0  0  0  0  0  0  0  0  0  0  0  0
   48.3310   25.2870   48.0490 N   0  0  0  0  0  0  0  0  0  0  0  0
   47.0830   25.7610   48.2330 C   0  0  0  0  0  0  0  0  0  0  0  0
   46.5330   25.0960   49.2680 N   0  0  0  0  0  0  0  0  0  0  0  0
   47.4680   24.2180   49.7010 C   0  0  0  0  0  0  0  0  0  0  0  0
   47.3570   23.3070   50.7590 C   0  0  0  0  0  0  0  0  0  0  0  0
   48.4320   22.5310   51.0010 N   0  0  0  0  0  0  0  0  0  0  0  0
   49.5450   22.6530   50.2420 C   0  0  0  0  0  0  0  0  0  0  0  0
   50.3310   21.9750   50.5410 H   0  0  0  0  0  0  0  0  0  0  0  0
   49.6540   23.5360   49.2160 N   0  0  0  0  0  0  0  0  0  0  0  0
   48.6150   24.3220   48.9430 C   0  0  0  0  0  0  0  0  0  0  0  0
   46.1450   23.2380   51.5150 N   0  0  0  0  0  0  0  0  0  0  0  0
   45.4290   22.4690   51.5470 H   0  0  0  0  0  0  0  0  0  0  0  0
   45.8710   24.0310   52.1470 H   0  0  0  0  0  0  0  0  0  0  0  0
  1  2  1  0  0  0  0
  2  3  2  0  0  0  0
  2  7  1  0  0  0  0
  3  4  1  0  0  0  0
  4  8  1  0  0  0  0
  4  5  2  0  0  0  0
  5  9  1  0  0  0  0
  6  5  1  0  0  0  0
  6 10  1  0  0  0  0
  7  6  2  0  0  0  0
 11 12  1  0  0  0  0
 11  3  1  0  0  0  0
 13 11  1  0  0  0  0
 14 19  1  0  0  0  0
 14 20  1  0  0  0  0
 15 14  2  0  0  0  0
 16 17  2  0  0  0  0
 16 15  1  0  0  0  0
 17 18  1  0  0  0  0
 18 11  1  0  0  0  0
 18 19  2  0  0  0  0
 21 15  1  0  0  0  0
 22 16  1  0  0  0  0
 23  7  1  0  0  0  0
 23 25  1  0  0  0  0
 25 24  2  6  0  0  0
 25 26  1  0  0  0  0
 26 27  1  0  0  0  0
 28 25  1  0  0  0  0
 28 31  1  0  0  0  0
 29 30  1  0  0  0  0
 30 31  1  0  0  0  0
 30 39  1  0  0  0  0
 31 32  2  0  0  0  0
 32 33  1  0  0  0  0
 33 34  1  0  0  0  0
 34 35  2  0  0  0  0
 34 40  1  0  0  0  0
 36 37  1  0  0  0  0
 36 35  1  0  0  0  0
 38 36  2  0  0  0  0
 39 38  1  0  0  0  0
 39 33  2  0  0  0  0
 40 41  1  0  0  0  0
 40 42  1  0  0  0  0
M  END
>  <minimizedAffinity>
-6.11222649

>  <minimizedRMSD>
0.694294214

$$$$
