
 OpenBabel03252504003D

 39 43  0  0  0  0  0  0  0  0999 V2000
   46.7220   35.0150   42.6620 C   0  0  0  0  0  0  0  0  0  0  0  0
   45.8260   36.0910   42.6750 C   0  0  0  0  0  0  0  0  0  0  0  0
   44.8820   36.1370   43.6980 C   0  0  0  0  0  0  0  0  0  0  0  0
   44.8850   35.1440   44.6170 N   0  0  0  0  0  0  0  0  0  0  0  0
   45.7630   34.1240   44.5720 C   0  0  0  0  0  0  0  0  0  0  0  0
   46.6870   34.0500   43.5980 N   0  0  0  0  0  0  0  0  0  0  0  0
   45.8470   36.8750   41.9220 H   0  0  0  0  0  0  0  0  0  0  0  0
   44.1780   36.9650   43.7250 H   0  0  0  0  0  0  0  0  0  0  0  0
   46.0470   31.7640   45.1530 C   0  0  0  0  0  0  0  0  0  0  0  0
   45.7490   33.0540   45.5810 C   0  0  0  0  0  0  0  0  0  0  0  0
   45.4570   33.2800   46.9050 C   0  0  0  0  0  0  0  0  0  0  0  0
   45.4630   32.2260   47.7950 C   0  0  0  0  0  0  0  0  0  0  0  0
   45.2270   32.1280   49.1040 N   0  0  0  0  0  0  0  0  0  0  0  0
   45.3550   30.8700   49.5350 C   0  0  0  0  0  0  0  0  0  0  0  0
   45.6910   30.0880   48.4660 C   0  0  0  0  0  0  0  0  0  0  0  0
   45.7590   30.9380   47.3770 C   0  0  0  0  0  0  0  0  0  0  0  0
   46.0540   30.7080   46.0390 C   0  0  0  0  0  0  0  0  0  0  0  0
   46.2810   31.5630   44.1080 H   0  0  0  0  0  0  0  0  0  0  0  0
   45.2250   34.2870   47.2330 H   0  0  0  0  0  0  0  0  0  0  0  0
   44.9760   32.9450   49.7030 H   0  0  0  0  0  0  0  0  0  0  0  0
   45.2130   30.5380   50.5670 H   0  0  0  0  0  0  0  0  0  0  0  0
   45.8700   29.0420   48.4510 H   0  0  0  0  0  0  0  0  0  0  0  0
   46.2890   29.7220   45.6700 H   0  0  0  0  0  0  0  0  0  0  0  0
   47.6720   35.0270   41.5770 C   0  0  0  0  0  0  0  0  0  0  0  0
   48.7920   35.6410   41.5990 O   0  0  0  0  0  0  0  0  0  0  0  0
   45.6570   33.1050   40.8700 H   0  0  0  0  0  0  0  0  0  0  0  0
   46.3650   33.4120   40.1910 N   0  0  0  0  0  0  0  0  0  0  0  0
   47.3790   34.2920   40.3290 C   0  0  0  0  0  0  0  0  0  0  0  0
   48.0440   34.3690   39.1610 N   0  0  0  0  0  0  0  0  0  0  0  0
   47.4800   33.5530   38.2650 C   0  0  0  0  0  0  0  0  0  0  0  0
   47.6540   33.1720   36.9490 C   0  0  0  0  0  0  0  0  0  0  0  0
   46.8920   32.2940   36.2980 N   0  0  0  0  0  0  0  0  0  0  0  0
   45.8570   31.7160   36.9650 C   0  0  0  0  0  0  0  0  0  0  0  0
   45.1560   30.9930   36.5780 H   0  0  0  0  0  0  0  0  0  0  0  0
   45.6610   32.0670   38.2490 N   0  0  0  0  0  0  0  0  0  0  0  0
   46.4190   32.9490   38.9150 C   0  0  0  0  0  0  0  0  0  0  0  0
   48.7340   33.7700   36.2420 N   0  0  0  0  0  0  0  0  0  0  0  0
   48.5220   34.7850   36.0090 H   0  0  0  0  0  0  0  0  0  0  0  0
   49.6830   33.7180   35.8110 H   0  0  0  0  0  0  0  0  0  0  0  0
  1  2  2  0  0  0  0
  1  6  1  0  0  0  0
  2  3  1  0  0  0  0
  3  8  1  0  0  0  0
  3  4  2  0  0  0  0
  5  4  1  0  0  0  0
  5 10  1  0  0  0  0
  6  5  2  0  0  0  0
  7  2  1  0  0  0  0
  9 10  2  0  0  0  0
  9 17  1  0  0  0  0
 10 11  1  0  0  0  0
 11 19  1  0  0  0  0
 11 12  2  0  0  0  0
 12 13  1  0  0  0  0
 13 14  1  0  0  0  0
 13 20  1  0  0  0  0
 14 21  1  0  0  0  0
 15 14  2  0  0  0  0
 16 12  1  0  0  0  0
 16 15  1  0  0  0  0
 17 16  2  0  0  0  0
 18  9  1  0  0  0  0
 22 15  1  0  0  0  0
 23 17  1  0  0  0  0
 24 25  2  0  0  0  0
 24  1  1  0  0  0  0
 27 28  1  0  0  0  0
 27 26  1  0  0  0  0
 28 24  1  0  0  0  0
 29 28  2  0  0  0  0
 30 36  1  0  0  0  0
 30 29  1  0  0  0  0
 31 30  2  0  0  0  0
 32 31  1  0  0  0  0
 32 33  2  0  0  0  0
 33 35  1  0  0  0  0
 34 33  1  0  0  0  0
 35 36  2  0  0  0  0
 36 27  1  0  0  0  0
 37 31  1  0  0  0  0
 38 37  1  0  0  0  0
 39 37  1  0  0  0  0
M  END
>  <minimizedAffinity>
-6.89465857

>  <minimizedRMSD>
1.10304821

$$$$
