
 OpenBabel03252504003D

 39 43  0  0  0  0  0  0  0  0999 V2000
   46.7810   35.0300   42.6970 C   0  0  0  0  0  0  0  0  0  0  0  0
   45.8400   36.0660   42.6590 C   0  0  0  0  0  0  0  0  0  0  0  0
   44.8460   36.0770   43.6340 C   0  0  0  0  0  0  0  0  0  0  0  0
   44.8470   35.0890   44.5600 N   0  0  0  0  0  0  0  0  0  0  0  0
   45.7700   34.1080   44.5640 C   0  0  0  0  0  0  0  0  0  0  0  0
   46.7420   34.0690   43.6370 N   0  0  0  0  0  0  0  0  0  0  0  0
   45.8640   36.8470   41.9020 H   0  0  0  0  0  0  0  0  0  0  0  0
   44.1070   36.8730   43.6220 H   0  0  0  0  0  0  0  0  0  0  0  0
   46.0470   31.7500   45.1580 C   0  0  0  0  0  0  0  0  0  0  0  0
   45.7520   33.0440   45.5800 C   0  0  0  0  0  0  0  0  0  0  0  0
   45.4610   33.2780   46.9020 C   0  0  0  0  0  0  0  0  0  0  0  0
   45.4630   32.2290   47.7980 C   0  0  0  0  0  0  0  0  0  0  0  0
   45.2270   32.1380   49.1070 N   0  0  0  0  0  0  0  0  0  0  0  0
   45.3520   30.8820   49.5450 C   0  0  0  0  0  0  0  0  0  0  0  0
   45.6860   30.0940   48.4800 C   0  0  0  0  0  0  0  0  0  0  0  0
   45.7560   30.9380   47.3870 C   0  0  0  0  0  0  0  0  0  0  0  0
   46.0510   30.6990   46.0510 C   0  0  0  0  0  0  0  0  0  0  0  0
   46.2810   31.5430   44.1140 H   0  0  0  0  0  0  0  0  0  0  0  0
   45.2320   34.2870   47.2240 H   0  0  0  0  0  0  0  0  0  0  0  0
   44.9780   32.9600   49.7010 H   0  0  0  0  0  0  0  0  0  0  0  0
   45.2080   30.5570   50.5790 H   0  0  0  0  0  0  0  0  0  0  0  0
   45.8620   29.0470   48.4710 H   0  0  0  0  0  0  0  0  0  0  0  0
   46.2840   29.7110   45.6870 H   0  0  0  0  0  0  0  0  0  0  0  0
   47.7810   35.0770   41.6590 C   0  0  0  0  0  0  0  0  0  0  0  0
   48.8130   35.8300   41.6780 O   0  0  0  0  0  0  0  0  0  0  0  0
   45.5870   34.4960   39.8980 H   0  0  0  0  0  0  0  0  0  0  0  0
   46.5110   34.0700   39.7580 N   0  0  0  0  0  0  0  0  0  0  0  0
   47.6520   34.2140   40.4670 C   0  0  0  0  0  0  0  0  0  0  0  0
   48.6090   33.4530   39.9020 N   0  0  0  0  0  0  0  0  0  0  0  0
   48.1100   32.8150   38.8380 C   0  0  0  0  0  0  0  0  0  0  0  0
   48.5280   31.9280   37.8650 C   0  0  0  0  0  0  0  0  0  0  0  0
   47.7620   31.4470   36.8860 N   0  0  0  0  0  0  0  0  0  0  0  0
   46.4640   31.8500   36.8240 C   0  0  0  0  0  0  0  0  0  0  0  0
   45.7240   31.5510   36.0970 H   0  0  0  0  0  0  0  0  0  0  0  0
   46.0260   32.7130   37.7580 N   0  0  0  0  0  0  0  0  0  0  0  0
   46.7860   33.2040   38.7470 C   0  0  0  0  0  0  0  0  0  0  0  0
   49.8830   31.5020   37.9220 N   0  0  0  0  0  0  0  0  0  0  0  0
   50.5410   32.2800   37.6170 H   0  0  0  0  0  0  0  0  0  0  0  0
   50.6040   30.7730   38.1200 H   0  0  0  0  0  0  0  0  0  0  0  0
  1  6  1  0  0  0  0
  2  1  2  0  0  0  0
  2  3  1  0  0  0  0
  3  4  2  0  0  0  0
  4  5  1  0  0  0  0
  5 10  1  0  0  0  0
  6  5  2  0  0  0  0
  7  2  1  0  0  0  0
  8  3  1  0  0  0  0
  9 10  2  0  0  0  0
  9 17  1  0  0  0  0
 10 11  1  0  0  0  0
 11 19  1  0  0  0  0
 11 12  2  0  0  0  0
 12 13  1  0  0  0  0
 13 14  1  0  0  0  0
 13 20  1  0  0  0  0
 14 21  1  0  0  0  0
 15 14  2  0  0  0  0
 16 12  1  0  0  0  0
 16 15  1  0  0  0  0
 17 16  2  0  0  0  0
 18  9  1  0  0  0  0
 22 15  1  0  0  0  0
 23 17  1  0  0  0  0
 24 25  2  0  0  0  0
 24  1  1  0  0  0  0
 27 26  1  0  0  0  0
 27 28  1  0  0  0  0
 28 24  1  0  0  0  0
 29 28  2  0  0  0  0
 30 29  1  0  0  0  0
 31 37  1  0  0  0  0
 31 30  2  0  0  0  0
 32 31  1  0  0  0  0
 33 32  2  0  0  0  0
 33 35  1  0  0  0  0
 34 33  1  0  0  0  0
 35 36  2  0  0  0  0
 36 30  1  0  0  0  0
 36 27  1  0  0  0  0
 37 39  1  0  0  0  0
 38 37  1  0  0  0  0
M  END
>  <minimizedAffinity>
-6.67324972

>  <minimizedRMSD>
0.716298401

$$$$
