
 OpenBabel03242519413D

 34 36  0  0  0  0  0  0  0  0999 V2000
   48.0660   32.9360   41.9000 O   0  0  0  0  0  0  0  0  0  0  0  0
   47.2090   34.1100   41.3560 P   0  0  2  0  0  0  0  0  0  0  0  0
   45.5980   33.9230   41.9220 O   0  0  0  0  0  0  0  0  0  0  0  0
   44.3780   35.9480   44.6930 C   0  0  0  0  0  0  0  0  0  0  0  0
   44.6780   35.5300   43.3740 C   0  0  0  0  0  0  0  0  0  0  0  0
   45.3200   34.2960   43.2200 C   0  0  0  0  0  0  0  0  0  0  0  0
   45.6140   33.5810   44.3210 N   0  0  0  0  0  0  0  0  0  0  0  0
   45.3140   34.0070   45.5680 C   0  0  0  0  0  0  0  0  0  0  0  0
   44.7000   35.1830   45.7630 N   0  0  0  0  0  0  0  0  0  0  0  0
   43.8800   36.9060   44.8020 H   0  0  0  0  0  0  0  0  0  0  0  0
   44.3900   36.1940   42.5650 H   0  0  0  0  0  0  0  0  0  0  0  0
   45.6020   33.3400   46.3840 H   0  0  0  0  0  0  0  0  0  0  0  0
   47.1970   34.0500   39.7010 O   0  0  0  0  0  0  0  0  0  0  0  0
   46.4750   33.2720   38.8550 C   0  0  0  0  0  0  0  0  0  0  0  0
   47.1640   32.6050   37.8730 O   0  0  0  0  0  0  0  0  0  0  0  0
   45.5050   31.0160   37.3490 H   0  0  0  0  0  0  0  0  0  0  0  0
   44.7770   31.6760   37.7730 N   0  0  0  0  0  0  0  0  0  0  0  0
   45.1230   32.7690   38.5100 C   0  0  0  0  0  0  0  0  0  0  0  0
   43.9400   33.2530   38.8070 N   0  0  0  0  0  0  0  0  0  0  0  0
   42.9800   32.4860   38.2740 C   0  0  0  0  0  0  0  0  0  0  0  0
   41.6570   32.8020   38.4540 C   0  0  0  0  0  0  0  0  0  0  0  0
   40.8210   31.9130   37.8430 N   0  0  0  0  0  0  0  0  0  0  0  0
   41.2620   30.8530   37.1460 C   0  0  0  0  0  0  0  0  0  0  0  0
   40.5700   30.1640   36.6710 H   0  0  0  0  0  0  0  0  0  0  0  0
   42.6090   30.6360   37.0320 N   0  0  0  0  0  0  0  0  0  0  0  0
   43.5000   31.4310   37.5820 C   0  0  0  0  0  0  0  0  0  0  0  0
   41.0920   33.8920   39.1690 N   0  0  0  0  0  0  0  0  0  0  0  0
   40.7620   33.5860   40.1050 H   0  0  0  0  0  0  0  0  0  0  0  0
   41.0420   34.8650   38.7530 H   0  0  0  0  0  0  0  0  0  0  0  0
   47.8350   35.5050   41.9960 O   0  0  0  0  0  0  0  0  0  0  0  0
   49.0780   35.8220   41.4580 C   0  0  0  0  0  0  0  0  0  0  0  0
   49.4890   37.0980   41.8000 F   0  0  0  0  0  0  0  0  0  0  0  0
   49.9950   34.8720   41.7820 F   0  0  0  0  0  0  0  0  0  0  0  0
   48.9080   35.8240   40.0770 F   0  0  0  0  0  0  0  0  0  0  0  0
  2  1  2  1  0  0  0
  2  3  1  0  0  0  0
  2 30  1  0  0  0  0
  3  6  1  0  0  0  0
  4 10  1  0  0  0  0
  4  9  1  0  0  0  0
  5  4  2  0  0  0  0
  6  5  1  0  0  0  0
  6  7  2  0  0  0  0
  7  8  1  0  0  0  0
  8  9  2  0  0  0  0
  8 12  1  0  0  0  0
 11  5  1  0  0  0  0
 13  2  1  0  0  0  0
 14 13  1  0  0  0  0
 15 14  2  0  0  0  0
 16 17  1  0  0  0  0
 17 18  1  0  0  0  0
 18 19  2  0  0  0  0
 18 14  1  0  0  0  0
 20 21  1  0  0  0  0
 20 19  1  0  0  0  0
 21 27  1  0  0  0  0
 22 21  2  0  0  0  0
 23 22  1  0  0  0  0
 24 23  1  0  0  0  0
 25 23  2  0  0  0  0
 25 26  1  0  0  0  0
 26 17  1  0  0  0  0
 26 20  2  0  0  0  0
 27 28  1  0  0  0  0
 29 27  1  0  0  0  0
 31 33  1  0  0  0  0
 31 32  1  0  0  0  0
 31 30  1  0  0  0  0
 34 31  1  0  0  0  0
M  END
>  <minimizedAffinity>
-5.65003347

>  <minimizedRMSD>
3.14822769

$$$$
