
 OpenBabel03242515583D

 42 46  0  0  0  0  0  0  0  0999 V2000
   36.8190   26.9990   39.8090 C   0  0  0  0  0  0  0  0  0  0  0  0
   36.6910   25.5890   39.7330 C   0  0  0  0  0  0  0  0  0  0  0  0
   36.7690   24.7630   40.8230 C   0  0  0  0  0  0  0  0  0  0  0  0
   36.9780   25.2710   42.0570 C   0  0  0  0  0  0  0  0  0  0  0  0
   37.1120   26.6370   42.1890 C   0  0  0  0  0  0  0  0  0  0  0  0
   37.3180   27.1180   43.4540 C   0  0  0  0  0  0  0  0  0  0  0  0
   37.4590   28.4750   43.6550 C   0  0  0  0  0  0  0  0  0  0  0  0
   37.3820   29.2890   42.5300 C   0  0  0  0  0  0  0  0  0  0  0  0
   37.1760   28.7530   41.3210 C   0  0  0  0  0  0  0  0  0  0  0  0
   37.0330   27.4490   41.0910 C   0  0  0  0  0  0  0  0  0  0  0  0
   36.5230   25.1430   38.7660 H   0  0  0  0  0  0  0  0  0  0  0  0
   36.6610   23.6980   40.6780 H   0  0  0  0  0  0  0  0  0  0  0  0
   37.0330   24.6000   42.8890 H   0  0  0  0  0  0  0  0  0  0  0  0
   37.3670   26.3920   44.2960 H   0  0  0  0  0  0  0  0  0  0  0  0
   37.6180   28.7160   44.7250 H   0  0  0  0  0  0  0  0  0  0  0  0
   37.5640   30.2550   42.9680 H   0  0  0  0  0  0  0  0  0  0  0  0
   37.9050   28.5090   36.7350 C   0  0  0  0  0  0  0  0  0  0  0  0
   36.7630   29.2720   36.3390 C   0  0  0  0  0  0  0  0  0  0  0  0
   35.5990   29.2750   37.1570 C   0  0  0  0  0  0  0  0  0  0  0  0
   35.6610   28.5350   38.2760 N   0  0  0  0  0  0  0  0  0  0  0  0
   36.6720   27.8430   38.6520 C   0  0  0  0  0  0  0  0  0  0  0  0
   37.7910   27.8430   37.8640 N   0  0  0  0  0  0  0  0  0  0  0  0
   38.7810   28.5180   36.1020 H   0  0  0  0  0  0  0  0  0  0  0  0
   34.7840   29.8660   36.8010 H   0  0  0  0  0  0  0  0  0  0  0  0
   36.8960   29.9890   35.1150 N   0  0  0  0  0  0  0  0  0  0  0  0
   36.4360   30.9410   35.2250 H   0  0  0  0  0  0  0  0  0  0  0  0
   37.3940   29.5070   34.3310 H   0  0  0  0  0  0  0  0  0  0  0  0
   37.1520   29.7840   40.4400 O   0  0  0  0  0  0  0  0  0  0  0  0
   38.2450   32.1960   41.9290 H   0  0  0  0  0  0  0  0  0  0  0  0
   38.5360   31.9110   40.9870 N   0  0  0  0  0  0  0  0  0  0  0  0
   38.0010   30.8630   40.4170 C   0  0  0  0  0  0  0  0  0  0  0  0
   38.6180   30.9140   39.1990 N   0  0  0  0  0  0  0  0  0  0  0  0
   39.4570   31.9340   39.0880 C   0  0  0  0  0  0  0  0  0  0  0  0
   40.3060   32.4140   38.0820 C   0  0  0  0  0  0  0  0  0  0  0  0
   41.0460   33.5320   38.3410 N   0  0  0  0  0  0  0  0  0  0  0  0
   40.9580   34.1610   39.5470 C   0  0  0  0  0  0  0  0  0  0  0  0
   41.5920   35.0520   39.6620 H   0  0  0  0  0  0  0  0  0  0  0  0
   40.1400   33.7110   40.5390 N   0  0  0  0  0  0  0  0  0  0  0  0
   39.4150   32.6130   40.2790 C   0  0  0  0  0  0  0  0  0  0  0  0
   40.3640   31.7220   36.8370 N   0  0  0  0  0  0  0  0  0  0  0  0
   40.8230   30.7730   36.9690 H   0  0  0  0  0  0  0  0  0  0  0  0
   40.0530   31.9690   35.8720 H   0  0  0  0  0  0  0  0  0  0  0  0
  1 10  1  0  0  0  0
  2  1  2  0  0  0  0
  2  3  1  0  0  0  0
  3  4  2  0  0  0  0
  4  5  1  0  0  0  0
  4 13  1  0  0  0  0
  5  6  1  0  0  0  0
  6  7  2  0  0  0  0
  6 14  1  0  0  0  0
  7 15  1  0  0  0  0
  8 16  1  0  0  0  0
  8  7  1  0  0  0  0
  9  8  2  0  0  0  0
 10  9  1  0  0  0  0
 10  5  2  0  0  0  0
 11  2  1  0  0  0  0
 12  3  1  0  0  0  0
 17 22  1  0  0  0  0
 18 17  2  0  0  0  0
 18 19  1  0  0  0  0
 19 20  2  0  0  0  0
 20 21  1  0  0  0  0
 21  1  1  0  0  0  0
 22 21  2  0  0  0  0
 23 17  1  0  0  0  0
 24 19  1  0  0  0  0
 25 26  1  0  0  0  0
 25 18  1  0  0  0  0
 27 25  1  0  0  0  0
 28  9  1  0  0  0  0
 30 29  1  0  0  0  0
 31 28  1  0  0  0  0
 31 30  1  0  0  0  0
 32 31  2  0  0  0  0
 33 32  1  0  0  0  0
 33 39  1  0  0  0  0
 34 35  1  0  0  0  0
 34 33  2  0  0  0  0
 35 36  2  0  0  0  0
 36 37  1  0  0  0  0
 36 38  1  0  0  0  0
 39 38  2  0  0  0  0
 39 30  1  0  0  0  0
 40 41  1  0  0  0  0
 40 34  1  0  0  0  0
 42 40  1  0  0  0  0
M  END
>  <minimizedAffinity>
-7.10817766

$$$$

 OpenBabel03242515583D

 42 46  0  0  0  0  0  0  0  0999 V2000
   39.9700   29.3220   41.5200 C   0  0  0  0  0  0  0  0  0  0  0  0
   41.2150   28.9780   42.1050 C   0  0  0  0  0  0  0  0  0  0  0  0
   41.3470   28.0670   43.1200 C   0  0  0  0  0  0  0  0  0  0  0  0
   40.2640   27.4370   43.6230 C   0  0  0  0  0  0  0  0  0  0  0  0
   39.0260   27.7350   43.0920 C   0  0  0  0  0  0  0  0  0  0  0  0
   37.9510   27.0750   43.6230 C   0  0  0  0  0  0  0  0  0  0  0  0
   36.6860   27.3260   43.1360 C   0  0  0  0  0  0  0  0  0  0  0  0
   36.5800   28.2610   42.1100 C   0  0  0  0  0  0  0  0  0  0  0  0
   37.6740   28.8690   41.6360 C   0  0  0  0  0  0  0  0  0  0  0  0
   38.9100   28.6480   42.0800 C   0  0  0  0  0  0  0  0  0  0  0  0
   42.1050   29.4590   41.7310 H   0  0  0  0  0  0  0  0  0  0  0  0
   42.3330   27.8630   43.5100 H   0  0  0  0  0  0  0  0  0  0  0  0
   40.4000   26.7300   44.4150 H   0  0  0  0  0  0  0  0  0  0  0  0
   38.1300   26.3450   44.4440 H   0  0  0  0  0  0  0  0  0  0  0  0
   35.9180   26.7210   43.6580 H   0  0  0  0  0  0  0  0  0  0  0  0
   35.5140   28.2830   41.9690 H   0  0  0  0  0  0  0  0  0  0  0  0
   40.1710   30.2640   38.0580 C   0  0  0  0  0  0  0  0  0  0  0  0
   39.7570   31.6310   38.0790 C   0  0  0  0  0  0  0  0  0  0  0  0
   39.4120   32.2440   39.3160 C   0  0  0  0  0  0  0  0  0  0  0  0
   39.5040   31.4660   40.4070 N   0  0  0  0  0  0  0  0  0  0  0  0
   39.8730   30.2390   40.4140 C   0  0  0  0  0  0  0  0  0  0  0  0
   40.2050   29.6520   39.2220 N   0  0  0  0  0  0  0  0  0  0  0  0
   40.4300   29.8130   37.1100 H   0  0  0  0  0  0  0  0  0  0  0  0
   39.1110   33.2670   39.2580 H   0  0  0  0  0  0  0  0  0  0  0  0
   39.7240   32.2840   36.8140 N   0  0  0  0  0  0  0  0  0  0  0  0
   40.0870   33.2760   36.9320 H   0  0  0  0  0  0  0  0  0  0  0  0
   39.3670   31.7310   36.0000 H   0  0  0  0  0  0  0  0  0  0  0  0
   37.2540   29.7120   40.6600 O   0  0  0  0  0  0  0  0  0  0  0  0
   34.3270   29.0330   40.2130 H   0  0  0  0  0  0  0  0  0  0  0  0
   35.0080   29.2040   39.4640 N   0  0  0  0  0  0  0  0  0  0  0  0
   36.2530   29.4780   39.7490 C   0  0  0  0  0  0  0  0  0  0  0  0
   36.7750   29.5550   38.4890 N   0  0  0  0  0  0  0  0  0  0  0  0
   35.8730   29.3370   37.5430 C   0  0  0  0  0  0  0  0  0  0  0  0
   35.8930   29.3040   36.1420 C   0  0  0  0  0  0  0  0  0  0  0  0
   34.7250   29.0390   35.4850 N   0  0  0  0  0  0  0  0  0  0  0  0
   33.5740   28.8130   36.1780 C   0  0  0  0  0  0  0  0  0  0  0  0
   32.6850   28.6080   35.5630 H   0  0  0  0  0  0  0  0  0  0  0  0
   33.5310   28.8410   37.5400 N   0  0  0  0  0  0  0  0  0  0  0  0
   34.6810   29.1010   38.1800 C   0  0  0  0  0  0  0  0  0  0  0  0
   37.1220   29.5470   35.4620 N   0  0  0  0  0  0  0  0  0  0  0  0
   37.4110   30.5610   35.5850 H   0  0  0  0  0  0  0  0  0  0  0  0
   37.7530   28.9370   34.8970 H   0  0  0  0  0  0  0  0  0  0  0  0
  1 10  2  0  0  0  0
  1  2  1  0  0  0  0
  2  3  2  0  0  0  0
  3 12  1  0  0  0  0
  3  4  1  0  0  0  0
  4 13  1  0  0  0  0
  5  6  1  0  0  0  0
  5  4  2  0  0  0  0
  6 14  1  0  0  0  0
  7  6  2  0  0  0  0
  7 15  1  0  0  0  0
  8  7  1  0  0  0  0
  9 10  1  0  0  0  0
  9  8  2  0  0  0  0
 10  5  1  0  0  0  0
 11  2  1  0  0  0  0
 16  8  1  0  0  0  0
 17 18  2  0  0  0  0
 17 22  1  0  0  0  0
 18 19  1  0  0  0  0
 19 20  2  0  0  0  0
 20 21  1  0  0  0  0
 21  1  1  0  0  0  0
 22 21  2  0  0  0  0
 23 17  1  0  0  0  0
 24 19  1  0  0  0  0
 25 26  1  0  0  0  0
 25 18  1  0  0  0  0
 27 25  1  0  0  0  0
 28  9  1  0  0  0  0
 30 31  1  0  0  0  0
 30 29  1  0  0  0  0
 31 28  1  0  0  0  0
 32 31  2  0  0  0  0
 33 39  1  0  0  0  0
 33 32  1  0  0  0  0
 34 33  2  0  0  0  0
 35 34  1  0  0  0  0
 35 36  2  0  0  0  0
 36 38  1  0  0  0  0
 37 36  1  0  0  0  0
 38 39  2  0  0  0  0
 39 30  1  0  0  0  0
 40 41  1  0  0  0  0
 40 34  1  0  0  0  0
 42 40  1  0  0  0  0
M  END
>  <minimizedAffinity>
-6.84251785

$$$$

 OpenBabel03242515583D

 42 46  0  0  0  0  0  0  0  0999 V2000
   38.3590   27.5720   42.2600 C   0  0  0  0  0  0  0  0  0  0  0  0
   39.3440   27.4750   43.2760 C   0  0  0  0  0  0  0  0  0  0  0  0
   39.8980   26.2890   43.6800 C   0  0  0  0  0  0  0  0  0  0  0  0
   39.5190   25.1240   43.1110 C   0  0  0  0  0  0  0  0  0  0  0  0
   38.5630   25.1600   42.1180 C   0  0  0  0  0  0  0  0  0  0  0  0
   38.2060   23.9610   41.5600 C   0  0  0  0  0  0  0  0  0  0  0  0
   37.2560   23.9280   40.5620 C   0  0  0  0  0  0  0  0  0  0  0  0
   36.7050   25.1460   40.1760 C   0  0  0  0  0  0  0  0  0  0  0  0
   37.1010   26.2820   40.7630 C   0  0  0  0  0  0  0  0  0  0  0  0
   38.0170   26.3520   41.7260 C   0  0  0  0  0  0  0  0  0  0  0  0
   39.6740   28.3820   43.7560 H   0  0  0  0  0  0  0  0  0  0  0  0
   40.6430   26.3020   44.4620 H   0  0  0  0  0  0  0  0  0  0  0  0
   39.9720   24.2140   43.4470 H   0  0  0  0  0  0  0  0  0  0  0  0
   38.6990   23.0360   41.9330 H   0  0  0  0  0  0  0  0  0  0  0  0
   37.0700   22.8950   40.2070 H   0  0  0  0  0  0  0  0  0  0  0  0
   35.9900   24.8190   39.4410 H   0  0  0  0  0  0  0  0  0  0  0  0
   38.5200   30.7190   40.5340 C   0  0  0  0  0  0  0  0  0  0  0  0
   37.2170   31.2640   40.7510 C   0  0  0  0  0  0  0  0  0  0  0  0
   36.2670   30.5350   41.5190 C   0  0  0  0  0  0  0  0  0  0  0  0
   36.6790   29.3500   41.9990 N   0  0  0  0  0  0  0  0  0  0  0  0
   37.8400   28.8410   41.8180 C   0  0  0  0  0  0  0  0  0  0  0  0
   38.7530   29.5440   41.0790 N   0  0  0  0  0  0  0  0  0  0  0  0
   39.2300   31.2860   39.9480 H   0  0  0  0  0  0  0  0  0  0  0  0
   35.3140   31.0010   41.6410 H   0  0  0  0  0  0  0  0  0  0  0  0
   36.9740   32.5360   40.1570 N   0  0  0  0  0  0  0  0  0  0  0  0
   36.4070   33.1270   40.8340 H   0  0  0  0  0  0  0  0  0  0  0  0
   37.3630   32.6970   39.1990 H   0  0  0  0  0  0  0  0  0  0  0  0
   36.3930   27.2830   40.1830 O   0  0  0  0  0  0  0  0  0  0  0  0
   35.0290   26.0920   37.7440 H   0  0  0  0  0  0  0  0  0  0  0  0
   35.5340   26.9860   37.7520 N   0  0  0  0  0  0  0  0  0  0  0  0
   36.1020   27.4160   38.8470 C   0  0  0  0  0  0  0  0  0  0  0  0
   36.6870   28.5580   38.3790 N   0  0  0  0  0  0  0  0  0  0  0  0
   36.4600   28.7630   37.0890 C   0  0  0  0  0  0  0  0  0  0  0  0
   36.8210   29.7510   36.1640 C   0  0  0  0  0  0  0  0  0  0  0  0
   36.3840   29.6210   34.8770 N   0  0  0  0  0  0  0  0  0  0  0  0
   35.6170   28.5560   34.5070 C   0  0  0  0  0  0  0  0  0  0  0  0
   35.3130   28.5370   33.4500 H   0  0  0  0  0  0  0  0  0  0  0  0
   35.2540   27.5840   35.3900 N   0  0  0  0  0  0  0  0  0  0  0  0
   35.6860   27.7170   36.6530 C   0  0  0  0  0  0  0  0  0  0  0  0
   37.6250   30.8450   36.5980 N   0  0  0  0  0  0  0  0  0  0  0  0
   37.0690   31.4650   37.2570 H   0  0  0  0  0  0  0  0  0  0  0  0
   38.6080   31.1290   36.3930 H   0  0  0  0  0  0  0  0  0  0  0  0
  1  2  1  0  0  0  0
  2  3  2  0  0  0  0
  2 11  1  0  0  0  0
  3 12  1  0  0  0  0
  4 13  1  0  0  0  0
  4  3  1  0  0  0  0
  5  4  2  0  0  0  0
  6 14  1  0  0  0  0
  6  5  1  0  0  0  0
  7  6  2  0  0  0  0
  8  7  1  0  0  0  0
  8  9  2  0  0  0  0
  9 10  1  0  0  0  0
 10  5  1  0  0  0  0
 10  1  2  0  0  0  0
 15  7  1  0  0  0  0
 16  8  1  0  0  0  0
 17 18  2  0  0  0  0
 17 22  1  0  0  0  0
 18 19  1  0  0  0  0
 19 24  1  0  0  0  0
 19 20  2  0  0  0  0
 21 20  1  0  0  0  0
 21  1  1  0  0  0  0
 22 21  2  0  0  0  0
 23 17  1  0  0  0  0
 25 18  1  0  0  0  0
 25 26  1  0  0  0  0
 27 25  1  0  0  0  0
 28  9  1  0  0  0  0
 29 30  1  0  0  0  0
 30 31  1  0  0  0  0
 31 28  1  0  0  0  0
 32 31  2  0  0  0  0
 33 32  1  0  0  0  0
 34 40  1  0  0  0  0
 34 33  2  0  0  0  0
 35 34  1  0  0  0  0
 36 35  2  0  0  0  0
 36 38  1  0  0  0  0
 37 36  1  0  0  0  0
 38 39  2  0  0  0  0
 39 33  1  0  0  0  0
 39 30  1  0  0  0  0
 40 41  1  0  0  0  0
 42 40  1  0  0  0  0
M  END
>  <minimizedAffinity>
-6.73870754

$$$$

 OpenBabel03242515583D

 42 46  0  0  0  0  0  0  0  0999 V2000
   37.5780   26.0620   39.8210 C   0  0  0  0  0  0  0  0  0  0  0  0
   36.7780   24.9140   40.0520 C   0  0  0  0  0  0  0  0  0  0  0  0
   36.5820   24.3670   41.2930 C   0  0  0  0  0  0  0  0  0  0  0  0
   37.1600   24.9130   42.3840 C   0  0  0  0  0  0  0  0  0  0  0  0
   37.9500   26.0310   42.2170 C   0  0  0  0  0  0  0  0  0  0  0  0
   38.5160   26.5610   43.3460 C   0  0  0  0  0  0  0  0  0  0  0  0
   39.3170   27.6790   43.2480 C   0  0  0  0  0  0  0  0  0  0  0  0
   39.5040   28.2110   41.9750 C   0  0  0  0  0  0  0  0  0  0  0  0
   38.9180   27.6430   40.9150 C   0  0  0  0  0  0  0  0  0  0  0  0
   38.1370   26.5660   40.9720 C   0  0  0  0  0  0  0  0  0  0  0  0
   36.2980   24.4470   39.2070 H   0  0  0  0  0  0  0  0  0  0  0  0
   35.9580   23.4900   41.3810 H   0  0  0  0  0  0  0  0  0  0  0  0
   36.9860   24.4630   43.3400 H   0  0  0  0  0  0  0  0  0  0  0  0
   38.3130   26.0680   44.3220 H   0  0  0  0  0  0  0  0  0  0  0  0
   39.7030   27.9950   44.2370 H   0  0  0  0  0  0  0  0  0  0  0  0
   40.1810   29.0180   42.1930 H   0  0  0  0  0  0  0  0  0  0  0  0
   36.6500   28.2680   37.1410 C   0  0  0  0  0  0  0  0  0  0  0  0
   37.6620   28.0180   36.1640 C   0  0  0  0  0  0  0  0  0  0  0  0
   38.6790   27.0610   36.4310 C   0  0  0  0  0  0  0  0  0  0  0  0
   38.6100   26.4420   37.6210 N   0  0  0  0  0  0  0  0  0  0  0  0
   37.7140   26.6480   38.5130 C   0  0  0  0  0  0  0  0  0  0  0  0
   36.7360   27.5700   38.2530 N   0  0  0  0  0  0  0  0  0  0  0  0
   35.8840   28.9990   36.9220 H   0  0  0  0  0  0  0  0  0  0  0  0
   39.4030   26.9250   35.6580 H   0  0  0  0  0  0  0  0  0  0  0  0
   37.5600   28.7800   34.9640 N   0  0  0  0  0  0  0  0  0  0  0  0
   37.8050   28.1530   34.1410 H   0  0  0  0  0  0  0  0  0  0  0  0
   37.2790   29.7830   35.0570 H   0  0  0  0  0  0  0  0  0  0  0  0
   39.2850   28.3750   39.8330 O   0  0  0  0  0  0  0  0  0  0  0  0
   41.6500   30.2790   39.7350 H   0  0  0  0  0  0  0  0  0  0  0  0
   40.6670   30.5710   39.7810 N   0  0  0  0  0  0  0  0  0  0  0  0
   39.7130   29.6800   39.8330 C   0  0  0  0  0  0  0  0  0  0  0  0
   38.6270   30.5010   39.9500 N   0  0  0  0  0  0  0  0  0  0  0  0
   38.9510   31.7860   39.9630 C   0  0  0  0  0  0  0  0  0  0  0  0
   38.2370   32.9870   40.0600 C   0  0  0  0  0  0  0  0  0  0  0  0
   38.9370   34.1590   40.0360 N   0  0  0  0  0  0  0  0  0  0  0  0
   40.2960   34.1550   39.9210 C   0  0  0  0  0  0  0  0  0  0  0  0
   40.7720   35.1470   39.9100 H   0  0  0  0  0  0  0  0  0  0  0  0
   41.0100   32.9990   39.8240 N   0  0  0  0  0  0  0  0  0  0  0  0
   40.3160   31.8510   39.8490 C   0  0  0  0  0  0  0  0  0  0  0  0
   36.8170   32.9410   40.1790 N   0  0  0  0  0  0  0  0  0  0  0  0
   36.3870   32.5930   39.2720 H   0  0  0  0  0  0  0  0  0  0  0  0
   36.1610   33.1750   40.9560 H   0  0  0  0  0  0  0  0  0  0  0  0
  1  2  2  0  0  0  0
  1 10  1  0  0  0  0
  2  3  1  0  0  0  0
  3 12  1  0  0  0  0
  3  4  2  0  0  0  0
  4 13  1  0  0  0  0
  5  4  1  0  0  0  0
  5  6  1  0  0  0  0
  6 14  1  0  0  0  0
  7  6  2  0  0  0  0
  7 15  1  0  0  0  0
  8 16  1  0  0  0  0
  8  7  1  0  0  0  0
  9 10  1  0  0  0  0
  9  8  2  0  0  0  0
 10  5  2  0  0  0  0
 11  2  1  0  0  0  0
 17 22  1  0  0  0  0
 18 19  1  0  0  0  0
 18 17  2  0  0  0  0
 19 20  2  0  0  0  0
 20 21  1  0  0  0  0
 21  1  1  0  0  0  0
 22 21  2  0  0  0  0
 23 17  1  0  0  0  0
 24 19  1  0  0  0  0
 25 27  1  0  0  0  0
 25 18  1  0  0  0  0
 26 25  1  0  0  0  0
 28 31  1  0  0  0  0
 28  9  1  0  0  0  0
 29 30  1  0  0  0  0
 30 31  1  0  0  0  0
 30 39  1  0  0  0  0
 31 32  2  0  0  0  0
 32 33  1  0  0  0  0
 33 34  1  0  0  0  0
 34 40  1  0  0  0  0
 35 34  2  0  0  0  0
 36 35  1  0  0  0  0
 37 36  1  0  0  0  0
 38 39  1  0  0  0  0
 38 36  2  0  0  0  0
 39 33  2  0  0  0  0
 40 42  1  0  0  0  0
 41 40  1  0  0  0  0
M  END
>  <minimizedAffinity>
-6.71506739

$$$$

 OpenBabel03242515583D

 42 46  0  0  0  0  0  0  0  0999 V2000
   37.1740   26.0210   39.2720 C   0  0  0  0  0  0  0  0  0  0  0  0
   37.4840   24.6370   39.2750 C   0  0  0  0  0  0  0  0  0  0  0  0
   37.5930   23.8890   40.4180 C   0  0  0  0  0  0  0  0  0  0  0  0
   37.4060   24.4540   41.6300 C   0  0  0  0  0  0  0  0  0  0  0  0
   37.1030   25.7990   41.6860 C   0  0  0  0  0  0  0  0  0  0  0  0
   36.9150   26.3380   42.9310 C   0  0  0  0  0  0  0  0  0  0  0  0
   36.6100   27.6770   43.0560 C   0  0  0  0  0  0  0  0  0  0  0  0
   36.5120   28.4140   41.8800 C   0  0  0  0  0  0  0  0  0  0  0  0
   36.7060   27.8220   40.6950 C   0  0  0  0  0  0  0  0  0  0  0  0
   36.9990   26.5330   40.5360 C   0  0  0  0  0  0  0  0  0  0  0  0
   37.6410   24.1470   38.3270 H   0  0  0  0  0  0  0  0  0  0  0  0
   37.8330   22.8400   40.3310 H   0  0  0  0  0  0  0  0  0  0  0  0
   37.4970   23.8430   42.5040 H   0  0  0  0  0  0  0  0  0  0  0  0
   37.0160   25.6730   43.8170 H   0  0  0  0  0  0  0  0  0  0  0  0
   36.4850   27.9710   44.1170 H   0  0  0  0  0  0  0  0  0  0  0  0
   36.3150   29.3950   42.2740 H   0  0  0  0  0  0  0  0  0  0  0  0
   38.3280   27.8700   36.4150 C   0  0  0  0  0  0  0  0  0  0  0  0
   37.1150   28.1550   35.7150 C   0  0  0  0  0  0  0  0  0  0  0  0
   35.8730   27.7090   36.2460 C   0  0  0  0  0  0  0  0  0  0  0  0
   35.9340   27.0310   37.4040 N   0  0  0  0  0  0  0  0  0  0  0  0
   37.0070   26.7640   38.0500 C   0  0  0  0  0  0  0  0  0  0  0  0
   38.2020   27.1940   37.5380 N   0  0  0  0  0  0  0  0  0  0  0  0
   39.2630   28.2150   35.9990 H   0  0  0  0  0  0  0  0  0  0  0  0
   35.0080   27.9560   35.6710 H   0  0  0  0  0  0  0  0  0  0  0  0
   37.2630   28.8860   34.5010 N   0  0  0  0  0  0  0  0  0  0  0  0
   36.4730   29.5940   34.4310 H   0  0  0  0  0  0  0  0  0  0  0  0
   38.0740   28.6370   33.8890 H   0  0  0  0  0  0  0  0  0  0  0  0
   36.5470   28.7850   39.7530 O   0  0  0  0  0  0  0  0  0  0  0  0
   35.6390   31.6460   40.2160 H   0  0  0  0  0  0  0  0  0  0  0  0
   36.6130   31.3610   40.0630 N   0  0  0  0  0  0  0  0  0  0  0  0
   36.9110   30.1050   39.8590 C   0  0  0  0  0  0  0  0  0  0  0  0
   38.2560   30.2110   39.6440 N   0  0  0  0  0  0  0  0  0  0  0  0
   38.6940   31.4590   39.7240 C   0  0  0  0  0  0  0  0  0  0  0  0
   39.9420   32.0820   39.5900 C   0  0  0  0  0  0  0  0  0  0  0  0
   40.0070   33.4370   39.7480 N   0  0  0  0  0  0  0  0  0  0  0  0
   38.8860   34.1600   40.0270 C   0  0  0  0  0  0  0  0  0  0  0  0
   39.0380   35.2440   40.1360 H   0  0  0  0  0  0  0  0  0  0  0  0
   37.6630   33.5750   40.1610 N   0  0  0  0  0  0  0  0  0  0  0  0
   37.6050   32.2440   40.0060 C   0  0  0  0  0  0  0  0  0  0  0  0
   41.0860   31.2840   39.2980 N   0  0  0  0  0  0  0  0  0  0  0  0
   41.3230   30.6690   40.1300 H   0  0  0  0  0  0  0  0  0  0  0  0
   41.6980   31.2020   38.4560 H   0  0  0  0  0  0  0  0  0  0  0  0
  1  2  2  0  0  0  0
  1 10  1  0  0  0  0
  2  3  1  0  0  0  0
  3  4  2  0  0  0  0
  4  5  1  0  0  0  0
  4 13  1  0  0  0  0
  5  6  1  0  0  0  0
  6  7  2  0  0  0  0
  6 14  1  0  0  0  0
  7 15  1  0  0  0  0
  8 16  1  0  0  0  0
  8  7  1  0  0  0  0
  9  8  2  0  0  0  0
 10  9  1  0  0  0  0
 10  5  2  0  0  0  0
 11  2  1  0  0  0  0
 12  3  1  0  0  0  0
 17 22  1  0  0  0  0
 18 19  1  0  0  0  0
 18 17  2  0  0  0  0
 19 20  2  0  0  0  0
 20 21  1  0  0  0  0
 21  1  1  0  0  0  0
 22 21  2  0  0  0  0
 23 17  1  0  0  0  0
 24 19  1  0  0  0  0
 25 18  1  0  0  0  0
 26 25  1  0  0  0  0
 27 25  1  0  0  0  0
 28 31  1  0  0  0  0
 28  9  1  0  0  0  0
 30 29  1  0  0  0  0
 31 30  1  0  0  0  0
 32 33  1  0  0  0  0
 32 31  2  0  0  0  0
 33 39  1  0  0  0  0
 34 33  2  0  0  0  0
 34 35  1  0  0  0  0
 35 36  2  0  0  0  0
 36 37  1  0  0  0  0
 36 38  1  0  0  0  0
 39 30  1  0  0  0  0
 39 38  2  0  0  0  0
 40 34  1  0  0  0  0
 40 41  1  0  0  0  0
 42 40  1  0  0  0  0
M  END
>  <minimizedAffinity>
-6.66916561

$$$$

 OpenBabel03242515583D

 42 46  0  0  0  0  0  0  0  0999 V2000
   37.4800   30.5700   40.1960 C   0  0  0  0  0  0  0  0  0  0  0  0
   36.7120   29.9870   41.2360 C   0  0  0  0  0  0  0  0  0  0  0  0
   35.6160   29.1950   41.0130 C   0  0  0  0  0  0  0  0  0  0  0  0
   35.2060   28.9270   39.7550 C   0  0  0  0  0  0  0  0  0  0  0  0
   35.9170   29.4690   38.7040 C   0  0  0  0  0  0  0  0  0  0  0  0
   35.4770   29.1720   37.4430 C   0  0  0  0  0  0  0  0  0  0  0  0
   36.1430   29.6820   36.3490 C   0  0  0  0  0  0  0  0  0  0  0  0
   37.2480   30.4880   36.6040 C   0  0  0  0  0  0  0  0  0  0  0  0
   37.6250   30.7360   37.8640 C   0  0  0  0  0  0  0  0  0  0  0  0
   37.0080   30.2590   38.9430 C   0  0  0  0  0  0  0  0  0  0  0  0
   37.0060   30.1780   42.2560 H   0  0  0  0  0  0  0  0  0  0  0  0
   35.0860   28.7910   41.8630 H   0  0  0  0  0  0  0  0  0  0  0  0
   34.3480   28.3030   39.6140 H   0  0  0  0  0  0  0  0  0  0  0  0
   34.5820   28.5190   37.3330 H   0  0  0  0  0  0  0  0  0  0  0  0
   35.6770   29.3580   35.3970 H   0  0  0  0  0  0  0  0  0  0  0  0
   37.5290   30.7670   35.6030 H   0  0  0  0  0  0  0  0  0  0  0  0
   39.3140   33.6200   40.6930 C   0  0  0  0  0  0  0  0  0  0  0  0
   40.6310   33.1510   40.9830 C   0  0  0  0  0  0  0  0  0  0  0  0
   40.8950   31.7530   40.9970 C   0  0  0  0  0  0  0  0  0  0  0  0
   39.8510   30.9520   40.7270 N   0  0  0  0  0  0  0  0  0  0  0  0
   38.6620   31.3480   40.4630 C   0  0  0  0  0  0  0  0  0  0  0  0
   38.4110   32.6940   40.4500 N   0  0  0  0  0  0  0  0  0  0  0  0
   39.1300   34.6850   40.6860 H   0  0  0  0  0  0  0  0  0  0  0  0
   41.9010   31.4730   41.2220 H   0  0  0  0  0  0  0  0  0  0  0  0
   41.6010   34.1610   41.2450 N   0  0  0  0  0  0  0  0  0  0  0  0
   42.5190   33.8800   40.7880 H   0  0  0  0  0  0  0  0  0  0  0  0
   41.2930   34.9830   41.8150 H   0  0  0  0  0  0  0  0  0  0  0  0
   38.7150   31.5410   37.7890 O   0  0  0  0  0  0  0  0  0  0  0  0
   40.6380   29.2340   37.3370 H   0  0  0  0  0  0  0  0  0  0  0  0
   40.8960   30.2260   37.2900 N   0  0  0  0  0  0  0  0  0  0  0  0
   40.0030   31.1540   37.5110 C   0  0  0  0  0  0  0  0  0  0  0  0
   40.7890   32.2680   37.4140 N   0  0  0  0  0  0  0  0  0  0  0  0
   42.0560   31.9850   37.1510 C   0  0  0  0  0  0  0  0  0  0  0  0
   43.2210   32.7380   36.9600 C   0  0  0  0  0  0  0  0  0  0  0  0
   44.3840   32.0740   36.6960 N   0  0  0  0  0  0  0  0  0  0  0  0
   44.4070   30.7130   36.6220 C   0  0  0  0  0  0  0  0  0  0  0  0
   45.3880   30.2670   36.4050 H   0  0  0  0  0  0  0  0  0  0  0  0
   43.2860   29.9600   36.8040 N   0  0  0  0  0  0  0  0  0  0  0  0
   42.1460   30.6180   37.0630 C   0  0  0  0  0  0  0  0  0  0  0  0
   43.1480   34.1590   37.0470 N   0  0  0  0  0  0  0  0  0  0  0  0
   42.5930   34.5460   36.2280 H   0  0  0  0  0  0  0  0  0  0  0  0
   43.5230   34.8490   37.7350 H   0  0  0  0  0  0  0  0  0  0  0  0
  1 21  1  0  0  0  0
  1  2  1  0  0  0  0
  2 11  1  0  0  0  0
  3  2  2  0  0  0  0
  3 12  1  0  0  0  0
  4  3  1  0  0  0  0
  5 10  1  0  0  0  0
  5  4  2  0  0  0  0
  6  5  1  0  0  0  0
  7  8  1  0  0  0  0
  7  6  2  0  0  0  0
  8  9  2  0  0  0  0
  9 10  1  0  0  0  0
 10  1  2  0  0  0  0
 13  4  1  0  0  0  0
 14  6  1  0  0  0  0
 15  7  1  0  0  0  0
 16  8  1  0  0  0  0
 17 18  1  0  0  0  0
 18 19  2  0  0  0  0
 18 25  1  0  0  0  0
 19 24  1  0  0  0  0
 20 19  1  0  0  0  0
 21 20  2  0  0  0  0
 22 21  1  0  0  0  0
 22 17  2  0  0  0  0
 23 17  1  0  0  0  0
 25 27  1  0  0  0  0
 26 25  1  0  0  0  0
 28  9  1  0  0  0  0
 30 29  1  0  0  0  0
 30 31  1  0  0  0  0
 31 28  1  0  0  0  0
 32 31  2  0  0  0  0
 33 32  1  0  0  0  0
 34 40  1  0  0  0  0
 34 33  2  0  0  0  0
 35 34  1  0  0  0  0
 36 35  2  0  0  0  0
 36 38  1  0  0  0  0
 37 36  1  0  0  0  0
 38 39  2  0  0  0  0
 39 33  1  0  0  0  0
 39 30  1  0  0  0  0
 40 42  1  0  0  0  0
 41 40  1  0  0  0  0
M  END
>  <minimizedAffinity>
-6.59578991

$$$$

 OpenBabel03242515583D

 42 46  0  0  0  0  0  0  0  0999 V2000
   36.3230   27.1820   39.4870 C   0  0  0  0  0  0  0  0  0  0  0  0
   35.6330   26.7560   38.3240 C   0  0  0  0  0  0  0  0  0  0  0  0
   35.4770   25.4390   37.9780 C   0  0  0  0  0  0  0  0  0  0  0  0
   35.9900   24.4590   38.7520 C   0  0  0  0  0  0  0  0  0  0  0  0
   36.6730   24.8170   39.8960 C   0  0  0  0  0  0  0  0  0  0  0  0
   37.1750   23.7980   40.6590 C   0  0  0  0  0  0  0  0  0  0  0  0
   37.8680   24.0880   41.8160 C   0  0  0  0  0  0  0  0  0  0  0  0
   38.0170   25.4330   42.1400 C   0  0  0  0  0  0  0  0  0  0  0  0
   37.4980   26.3790   41.3490 C   0  0  0  0  0  0  0  0  0  0  0  0
   36.8210   26.1360   40.2280 C   0  0  0  0  0  0  0  0  0  0  0  0
   35.2080   27.5070   37.6780 H   0  0  0  0  0  0  0  0  0  0  0  0
   34.9370   25.2010   37.0730 H   0  0  0  0  0  0  0  0  0  0  0  0
   35.8500   23.4400   38.4550 H   0  0  0  0  0  0  0  0  0  0  0  0
   37.0090   22.7510   40.3210 H   0  0  0  0  0  0  0  0  0  0  0  0
   38.2120   23.1680   42.3290 H   0  0  0  0  0  0  0  0  0  0  0  0
   38.6130   25.3590   43.0330 H   0  0  0  0  0  0  0  0  0  0  0  0
   37.5940   30.5320   39.2140 C   0  0  0  0  0  0  0  0  0  0  0  0
   36.8430   31.2350   40.2060 C   0  0  0  0  0  0  0  0  0  0  0  0
   35.8870   30.5350   40.9930 C   0  0  0  0  0  0  0  0  0  0  0  0
   35.7560   29.2230   40.7370 N   0  0  0  0  0  0  0  0  0  0  0  0
   36.4170   28.5710   39.8540 C   0  0  0  0  0  0  0  0  0  0  0  0
   37.3370   29.2460   39.0980 N   0  0  0  0  0  0  0  0  0  0  0  0
   38.3170   31.0780   38.6240 H   0  0  0  0  0  0  0  0  0  0  0  0
   35.3620   31.1220   41.7140 H   0  0  0  0  0  0  0  0  0  0  0  0
   37.1280   32.6260   40.3230 N   0  0  0  0  0  0  0  0  0  0  0  0
   37.1260   32.8890   41.3520 H   0  0  0  0  0  0  0  0  0  0  0  0
   37.2870   33.1560   39.4350 H   0  0  0  0  0  0  0  0  0  0  0  0
   37.8050   27.5710   41.9200 O   0  0  0  0  0  0  0  0  0  0  0  0
   40.4810   26.8020   43.1350 H   0  0  0  0  0  0  0  0  0  0  0  0
   40.2320   27.7480   42.8240 N   0  0  0  0  0  0  0  0  0  0  0  0
   39.0490   27.9900   42.3230 C   0  0  0  0  0  0  0  0  0  0  0  0
   39.1460   29.3390   42.1280 N   0  0  0  0  0  0  0  0  0  0  0  0
   40.3190   29.8310   42.4970 C   0  0  0  0  0  0  0  0  0  0  0  0
   40.9030   31.1050   42.5020 C   0  0  0  0  0  0  0  0  0  0  0  0
   42.1790   31.2290   42.9730 N   0  0  0  0  0  0  0  0  0  0  0  0
   42.8620   30.1400   43.4250 C   0  0  0  0  0  0  0  0  0  0  0  0
   43.8830   30.3380   43.7850 H   0  0  0  0  0  0  0  0  0  0  0  0
   42.3150   28.8930   43.4290 N   0  0  0  0  0  0  0  0  0  0  0  0
   41.0610   28.7770   42.9660 C   0  0  0  0  0  0  0  0  0  0  0  0
   40.1490   32.2140   42.0190 N   0  0  0  0  0  0  0  0  0  0  0  0
   40.0060   32.1270   40.9700 H   0  0  0  0  0  0  0  0  0  0  0  0
   39.7350   33.0490   42.4880 H   0  0  0  0  0  0  0  0  0  0  0  0
  1 21  1  0  0  0  0
  1 10  1  0  0  0  0
  2  1  2  0  0  0  0
  3  2  1  0  0  0  0
  3  4  2  0  0  0  0
  4  5  1  0  0  0  0
  5 10  2  0  0  0  0
  5  6  1  0  0  0  0
  6  7  2  0  0  0  0
  7  8  1  0  0  0  0
  7 15  1  0  0  0  0
  8 16  1  0  0  0  0
  9 28  1  0  0  0  0
  9  8  2  0  0  0  0
 10  9  1  0  0  0  0
 11  2  1  0  0  0  0
 12  3  1  0  0  0  0
 13  4  1  0  0  0  0
 14  6  1  0  0  0  0
 17 18  1  0  0  0  0
 18 25  1  0  0  0  0
 18 19  2  0  0  0  0
 19 24  1  0  0  0  0
 20 19  1  0  0  0  0
 21 20  2  0  0  0  0
 22 17  2  0  0  0  0
 22 21  1  0  0  0  0
 23 17  1  0  0  0  0
 25 26  1  0  0  0  0
 27 25  1  0  0  0  0
 28 31  1  0  0  0  0
 30 39  1  0  0  0  0
 30 29  1  0  0  0  0
 31 30  1  0  0  0  0
 32 31  2  0  0  0  0
 32 33  1  0  0  0  0
 33 34  2  0  0  0  0
 33 39  1  0  0  0  0
 34 35  1  0  0  0  0
 35 36  2  0  0  0  0
 36 38  1  0  0  0  0
 36 37  1  0  0  0  0
 39 38  2  0  0  0  0
 40 42  1  0  0  0  0
 40 34  1  0  0  0  0
 41 40  1  0  0  0  0
M  END
>  <minimizedAffinity>
-6.58827925

$$$$

 OpenBabel03242515583D

 42 46  0  0  0  0  0  0  0  0999 V2000
   37.4340   28.8420   41.2390 C   0  0  0  0  0  0  0  0  0  0  0  0
   37.5120   29.3510   42.5610 C   0  0  0  0  0  0  0  0  0  0  0  0
   37.4220   28.5660   43.6800 C   0  0  0  0  0  0  0  0  0  0  0  0
   37.2510   27.2310   43.5700 C   0  0  0  0  0  0  0  0  0  0  0  0
   37.1670   26.6820   42.3070 C   0  0  0  0  0  0  0  0  0  0  0  0
   36.9980   25.3250   42.2340 C   0  0  0  0  0  0  0  0  0  0  0  0
   36.9080   24.7140   41.0020 C   0  0  0  0  0  0  0  0  0  0  0  0
   36.9960   25.5360   39.8820 C   0  0  0  0  0  0  0  0  0  0  0  0
   37.1630   26.8560   40.0270 C   0  0  0  0  0  0  0  0  0  0  0  0
   37.2570   27.4790   41.2000 C   0  0  0  0  0  0  0  0  0  0  0  0
   37.6480   30.4130   42.6920 H   0  0  0  0  0  0  0  0  0  0  0  0
   37.4900   29.0340   44.6500 H   0  0  0  0  0  0  0  0  0  0  0  0
   37.1860   26.6440   44.4630 H   0  0  0  0  0  0  0  0  0  0  0  0
   36.9370   24.7460   43.1820 H   0  0  0  0  0  0  0  0  0  0  0  0
   36.7750   23.6180   41.0960 H   0  0  0  0  0  0  0  0  0  0  0  0
   36.8540   24.8180   39.0940 H   0  0  0  0  0  0  0  0  0  0  0  0
   39.3150   30.5070   38.6700 C   0  0  0  0  0  0  0  0  0  0  0  0
   38.2970   31.1590   37.9080 C   0  0  0  0  0  0  0  0  0  0  0  0
   36.9350   31.0310   38.2960 C   0  0  0  0  0  0  0  0  0  0  0  0
   36.6980   30.2820   39.3860 N   0  0  0  0  0  0  0  0  0  0  0  0
   37.5930   29.6880   40.0840 C   0  0  0  0  0  0  0  0  0  0  0  0
   38.9030   29.8130   39.7090 N   0  0  0  0  0  0  0  0  0  0  0  0
   40.3450   30.6140   38.3610 H   0  0  0  0  0  0  0  0  0  0  0  0
   36.2280   31.5440   37.6830 H   0  0  0  0  0  0  0  0  0  0  0  0
   38.7530   31.9070   36.7850 N   0  0  0  0  0  0  0  0  0  0  0  0
   38.1900   32.8060   36.7220 H   0  0  0  0  0  0  0  0  0  0  0  0
   39.5280   31.4910   36.2170 H   0  0  0  0  0  0  0  0  0  0  0  0
   37.2090   27.3780   38.7760 O   0  0  0  0  0  0  0  0  0  0  0  0
   34.8960   25.6830   37.7740 H   0  0  0  0  0  0  0  0  0  0  0  0
   35.3840   26.3920   37.2150 N   0  0  0  0  0  0  0  0  0  0  0  0
   36.3800   27.0670   37.7260 C   0  0  0  0  0  0  0  0  0  0  0  0
   36.7460   27.8100   36.6390 N   0  0  0  0  0  0  0  0  0  0  0  0
   35.9960   27.5690   35.5730 C   0  0  0  0  0  0  0  0  0  0  0  0
   35.9590   28.0490   34.2580 C   0  0  0  0  0  0  0  0  0  0  0  0
   35.0100   27.5480   33.4130 N   0  0  0  0  0  0  0  0  0  0  0  0
   34.1240   26.6060   33.8430 C   0  0  0  0  0  0  0  0  0  0  0  0
   33.3970   26.2630   33.0930 H   0  0  0  0  0  0  0  0  0  0  0  0
   34.1420   26.1250   35.1180 N   0  0  0  0  0  0  0  0  0  0  0  0
   35.0770   26.6200   35.9430 C   0  0  0  0  0  0  0  0  0  0  0  0
   36.9060   29.0350   33.8540 N   0  0  0  0  0  0  0  0  0  0  0  0
   36.7070   29.9540   34.3470 H   0  0  0  0  0  0  0  0  0  0  0  0
   37.7170   29.0140   33.1970 H   0  0  0  0  0  0  0  0  0  0  0  0
  1  2  1  0  0  0  0
  2 11  1  0  0  0  0
  2  3  2  0  0  0  0
  3 12  1  0  0  0  0
  4  3  1  0  0  0  0
  4 13  1  0  0  0  0
  5  4  2  0  0  0  0
  6  5  1  0  0  0  0
  6 14  1  0  0  0  0
  7 15  1  0  0  0  0
  7  6  2  0  0  0  0
  8  9  2  0  0  0  0
  8  7  1  0  0  0  0
  9 10  1  0  0  0  0
 10  1  2  0  0  0  0
 10  5  1  0  0  0  0
 16  8  1  0  0  0  0
 17 22  1  0  0  0  0
 18 19  1  0  0  0  0
 18 17  2  0  0  0  0
 19 20  2  0  0  0  0
 20 21  1  0  0  0  0
 21  1  1  0  0  0  0
 22 21  2  0  0  0  0
 23 17  1  0  0  0  0
 24 19  1  0  0  0  0
 25 18  1  0  0  0  0
 26 25  1  0  0  0  0
 27 25  1  0  0  0  0
 28  9  1  0  0  0  0
 30 31  1  0  0  0  0
 30 29  1  0  0  0  0
 31 28  1  0  0  0  0
 32 31  2  0  0  0  0
 33 39  1  0  0  0  0
 33 32  1  0  0  0  0
 34 33  2  0  0  0  0
 35 36  2  0  0  0  0
 35 34  1  0  0  0  0
 36 38  1  0  0  0  0
 37 36  1  0  0  0  0
 38 39  2  0  0  0  0
 39 30  1  0  0  0  0
 40 34  1  0  0  0  0
 40 41  1  0  0  0  0
 42 40  1  0  0  0  0
M  END
>  <minimizedAffinity>
-6.40261316

$$$$

 OpenBabel03242515583D

 42 46  0  0  0  0  0  0  0  0999 V2000
   37.7590   27.0210   41.1480 C   0  0  0  0  0  0  0  0  0  0  0  0
   36.8870   25.9730   40.7590 C   0  0  0  0  0  0  0  0  0  0  0  0
   37.0350   24.6750   41.1710 C   0  0  0  0  0  0  0  0  0  0  0  0
   38.0500   24.3250   41.9910 C   0  0  0  0  0  0  0  0  0  0  0  0
   38.9290   25.3060   42.4000 C   0  0  0  0  0  0  0  0  0  0  0  0
   39.9430   24.9170   43.2340 C   0  0  0  0  0  0  0  0  0  0  0  0
   40.8560   25.8490   43.6800 C   0  0  0  0  0  0  0  0  0  0  0  0
   40.6850   27.1580   43.2410 C   0  0  0  0  0  0  0  0  0  0  0  0
   39.6700   27.4690   42.4260 C   0  0  0  0  0  0  0  0  0  0  0  0
   38.7690   26.5980   41.9790 C   0  0  0  0  0  0  0  0  0  0  0  0
   36.0630   26.2100   40.1050 H   0  0  0  0  0  0  0  0  0  0  0  0
   36.3260   23.9360   40.8270 H   0  0  0  0  0  0  0  0  0  0  0  0
   38.1380   23.3030   42.2960 H   0  0  0  0  0  0  0  0  0  0  0  0
   40.0030   23.8470   43.5320 H   0  0  0  0  0  0  0  0  0  0  0  0
   41.6150   25.3930   44.3460 H   0  0  0  0  0  0  0  0  0  0  0  0
   41.5360   27.6350   43.6950 H   0  0  0  0  0  0  0  0  0  0  0  0
   36.6280   30.4000   41.6140 C   0  0  0  0  0  0  0  0  0  0  0  0
   37.0020   31.0290   40.3870 C   0  0  0  0  0  0  0  0  0  0  0  0
   37.6480   30.2680   39.3740 C   0  0  0  0  0  0  0  0  0  0  0  0
   37.8650   28.9730   39.6540 N   0  0  0  0  0  0  0  0  0  0  0  0
   37.5390   28.3870   40.7460 C   0  0  0  0  0  0  0  0  0  0  0  0
   36.9170   29.1210   41.7200 N   0  0  0  0  0  0  0  0  0  0  0  0
   36.1380   30.9920   42.3740 H   0  0  0  0  0  0  0  0  0  0  0  0
   37.9000   30.8010   38.4830 H   0  0  0  0  0  0  0  0  0  0  0  0
   36.6850   32.4140   40.2830 N   0  0  0  0  0  0  0  0  0  0  0  0
   36.3440   32.6130   39.2970 H   0  0  0  0  0  0  0  0  0  0  0  0
   36.8260   33.0010   41.1380 H   0  0  0  0  0  0  0  0  0  0  0  0
   39.7700   28.7990   42.1770 O   0  0  0  0  0  0  0  0  0  0  0  0
   42.4720   28.5370   40.8130 H   0  0  0  0  0  0  0  0  0  0  0  0
   41.9580   29.4180   40.9250 N   0  0  0  0  0  0  0  0  0  0  0  0
   40.8040   29.4390   41.5380 C   0  0  0  0  0  0  0  0  0  0  0  0
   40.5440   30.7800   41.5100 N   0  0  0  0  0  0  0  0  0  0  0  0
   41.4980   31.4790   40.9120 C   0  0  0  0  0  0  0  0  0  0  0  0
   41.7050   32.8350   40.6300 C   0  0  0  0  0  0  0  0  0  0  0  0
   42.8480   33.1910   39.9730 N   0  0  0  0  0  0  0  0  0  0  0  0
   43.7600   32.2480   39.6030 C   0  0  0  0  0  0  0  0  0  0  0  0
   44.6490   32.6300   39.0790 H   0  0  0  0  0  0  0  0  0  0  0  0
   43.5790   30.9240   39.8660 N   0  0  0  0  0  0  0  0  0  0  0  0
   42.4540   30.5800   40.5120 C   0  0  0  0  0  0  0  0  0  0  0  0
   40.7230   33.7840   41.0370 N   0  0  0  0  0  0  0  0  0  0  0  0
   39.8350   33.6550   40.4690 H   0  0  0  0  0  0  0  0  0  0  0  0
   40.7220   34.5420   41.7550 H   0  0  0  0  0  0  0  0  0  0  0  0
  1 10  1  0  0  0  0
  2  1  2  0  0  0  0
  2  3  1  0  0  0  0
  3  4  2  0  0  0  0
  4 13  1  0  0  0  0
  4  5  1  0  0  0  0
  5  6  1  0  0  0  0
  6 14  1  0  0  0  0
  6  7  2  0  0  0  0
  7 15  1  0  0  0  0
  8  7  1  0  0  0  0
  8 16  1  0  0  0  0
  9  8  2  0  0  0  0
 10  5  2  0  0  0  0
 10  9  1  0  0  0  0
 11  2  1  0  0  0  0
 12  3  1  0  0  0  0
 17 22  1  0  0  0  0
 17 23  1  0  0  0  0
 18 17  2  0  0  0  0
 19 20  2  0  0  0  0
 19 18  1  0  0  0  0
 20 21  1  0  0  0  0
 21  1  1  0  0  0  0
 21 22  2  0  0  0  0
 24 19  1  0  0  0  0
 25 18  1  0  0  0  0
 25 27  1  0  0  0  0
 26 25  1  0  0  0  0
 28  9  1  0  0  0  0
 29 30  1  0  0  0  0
 30 31  1  0  0  0  0
 31 28  1  0  0  0  0
 32 31  2  0  0  0  0
 33 32  1  0  0  0  0
 34 33  1  0  0  0  0
 34 40  1  0  0  0  0
 35 34  2  0  0  0  0
 36 38  2  0  0  0  0
 36 35  1  0  0  0  0
 37 36  1  0  0  0  0
 38 39  1  0  0  0  0
 39 33  2  0  0  0  0
 39 30  1  0  0  0  0
 40 42  1  0  0  0  0
 41 40  1  0  0  0  0
M  END
>  <minimizedAffinity>
-6.36851501

$$$$
