
 OpenBabel03252501033D

 36 39  0  0  1  0  0  0  0  0999 V2000
   48.8240   32.2630   38.2860 O   0  0  0  0  0  0  0  0  0  0  0  0
   48.2370   33.4990   38.9290 P   0  0  2  0  0  0  0  0  0  0  0  0
   48.7380   34.8130   37.9890 O   0  0  0  0  0  0  0  0  0  0  0  0
   49.5600   34.6220   37.4630 H   0  0  0  0  0  0  0  0  0  0  0  0
   48.5540   33.6570   40.5290 O   0  0  0  0  0  0  0  0  0  0  0  0
   48.0860   35.5080   42.0000 C   0  0  1  0  0  0  0  0  0  0  0  0
   49.4310   35.0540   42.4340 C   0  0  0  0  0  0  0  0  0  0  0  0
   48.9510   34.8470   41.0050 C   0  0  1  0  0  0  0  0  0  0  0  0
   47.9300   36.6210   41.9300 H   0  0  0  0  0  0  0  0  0  0  0  0
   50.2370   35.7930   42.6440 H   0  0  0  0  0  0  0  0  0  0  0  0
   49.6200   34.0930   42.9380 H   0  0  0  0  0  0  0  0  0  0  0  0
   49.5680   35.4460   40.3030 H   0  0  0  0  0  0  0  0  0  0  0  0
   46.0010   33.1890   44.1150 C   0  0  0  0  0  0  0  0  0  0  0  0
   47.1160   33.9120   43.6650 C   0  0  0  0  0  0  0  0  0  0  0  0
   46.9390   34.7200   42.5340 C   0  0  0  0  0  0  0  0  0  0  0  0
   45.7260   34.7800   41.9180 N   0  0  0  0  0  0  0  0  0  0  0  0
   44.6680   34.0700   42.3760 C   0  0  0  0  0  0  0  0  0  0  0  0
   44.8070   33.2750   43.4750 N   0  0  0  0  0  0  0  0  0  0  0  0
   45.9960   32.5360   44.9650 H   0  0  0  0  0  0  0  0  0  0  0  0
   48.0280   33.8170   44.1980 H   0  0  0  0  0  0  0  0  0  0  0  0
   43.6900   34.1060   41.8960 H   0  0  0  0  0  0  0  0  0  0  0  0
   46.5620   33.3650   38.7090 O   0  0  0  0  0  0  0  0  0  0  0  0
   45.8240   30.6140   38.7230 H   0  0  0  0  0  0  0  0  0  0  0  0
   45.7260   31.1300   37.8420 N   0  0  0  0  0  0  0  0  0  0  0  0
   46.0680   32.4310   37.8080 C   0  0  0  0  0  0  0  0  0  0  0  0
   45.8500   32.8880   36.5410 N   0  0  0  0  0  0  0  0  0  0  0  0
   45.3760   31.8680   35.8030 C   0  0  0  0  0  0  0  0  0  0  0  0
   44.9840   31.7340   34.4820 C   0  0  0  0  0  0  0  0  0  0  0  0
   44.5490   30.5410   34.0590 N   0  0  0  0  0  0  0  0  0  0  0  0
   44.4790   29.4720   34.8720 C   0  0  0  0  0  0  0  0  0  0  0  0
   44.1090   28.5440   34.4280 H   0  0  0  0  0  0  0  0  0  0  0  0
   44.8530   29.5510   36.1800 N   0  0  0  0  0  0  0  0  0  0  0  0
   45.2970   30.7560   36.6260 C   0  0  0  0  0  0  0  0  0  0  0  0
   45.0930   32.9170   33.7010 N   0  0  0  0  0  0  0  0  0  0  0  0
   44.2590   33.5630   33.8330 H   0  0  0  0  0  0  0  0  0  0  0  0
   45.8270   33.2620   33.0360 H   0  0  0  0  0  0  0  0  0  0  0  0
  2  1  2  6  0  0  0
  2  5  1  0  0  0  0
  3  2  1  0  0  0  0
  4  3  1  0  0  0  0
  5  8  1  0  0  0  0
  6  9  1  6  0  0  0
  6  7  1  0  0  0  0
  6 15  1  0  0  0  0
  7 10  1  0  0  0  0
  7 11  1  0  0  0  0
  8 12  1  6  0  0  0
  8  6  1  0  0  0  0
  8  7  1  0  0  0  0
 13 19  1  0  0  0  0
 14 13  1  0  0  0  0
 14 20  1  0  0  0  0
 15 14  2  0  0  0  0
 16 17  2  0  0  0  0
 16 15  1  0  0  0  0
 17 18  1  0  0  0  0
 18 13  2  0  0  0  0
 21 17  1  0  0  0  0
 22  2  1  0  0  0  0
 24 23  1  0  0  0  0
 25 24  1  0  0  0  0
 25 22  1  0  0  0  0
 26 25  2  0  0  0  0
 27 26  1  0  0  0  0
 27 33  1  0  0  0  0
 28 27  2  0  0  0  0
 29 28  1  0  0  0  0
 29 30  2  0  0  0  0
 30 32  1  0  0  0  0
 31 30  1  0  0  0  0
 32 33  2  0  0  0  0
 33 24  1  0  0  0  0
 34 35  1  0  0  0  0
 34 28  1  0  0  0  0
 36 34  1  0  0  0  0
M  END
>  <minimizedAffinity>
-5.6518712

>  <minimizedRMSD>
1.4004389

$$$$
