
 OpenBabel03252500283D

 48 51  0  0  1  0  0  0  0  0999 V2000
   47.1120   33.1880   46.6090 O   0  0  0  0  0  0  0  0  0  0  0  0
   45.6580   32.9010   46.4870 P   0  0  1  0  0  0  0  0  0  0  0  0
   45.4190   31.7380   45.2780 O   0  0  0  0  0  0  0  0  0  0  0  0
   45.9360   32.0210   44.4960 H   0  0  0  0  0  0  0  0  0  0  0  0
   45.1570   32.3040   47.9410 O   0  0  0  0  0  0  0  0  0  0  0  0
   47.0820   30.8940   48.0300 C   0  0  2  0  0  0  0  0  0  0  0  0
   45.6080   31.0190   48.1110 C   0  0  2  0  0  0  0  0  0  0  0  0
   45.0660   30.0890   47.1440 C   0  0  0  0  0  0  0  0  0  0  0  0
   46.0230   29.0980   46.8890 O   0  0  0  0  0  0  0  0  0  0  0  0
   47.0510   29.3430   47.7330 C   0  0  0  0  0  0  0  0  0  0  0  0
   47.5780   31.1520   47.0780 H   0  0  0  0  0  0  0  0  0  0  0  0
   45.4030   30.8200   49.2030 H   0  0  0  0  0  0  0  0  0  0  0  0
   44.3660   29.4370   47.7810 H   0  0  0  0  0  0  0  0  0  0  0  0
   44.3620   30.3200   46.3750 H   0  0  0  0  0  0  0  0  0  0  0  0
   46.8670   28.9060   48.7570 H   0  0  0  0  0  0  0  0  0  0  0  0
   48.0360   28.9890   47.4390 H   0  0  0  0  0  0  0  0  0  0  0  0
   47.7800   31.0760   49.1620 O   0  0  0  0  0  0  0  0  0  0  0  0
   49.0430   31.3780   49.2470 C   0  0  0  0  0  0  0  0  0  0  0  0
   49.4550   32.3540   49.1710 H   0  0  0  0  0  0  0  0  0  0  0  0
   49.5110   30.8460   48.2480 H   0  0  0  0  0  0  0  0  0  0  0  0
   49.6970   30.4760   50.2800 C   0  0  0  0  0  0  0  0  0  0  0  0
   49.4190   30.7670   51.3100 H   0  0  0  0  0  0  0  0  0  0  0  0
   49.3850   29.4420   50.0280 H   0  0  0  0  0  0  0  0  0  0  0  0
   50.8020   30.5970   50.1300 H   0  0  0  0  0  0  0  0  0  0  0  0
   44.9190   34.3870   46.0900 O   0  0  0  0  0  0  0  0  0  0  0  0
   45.3370   36.5970   43.2950 C   0  0  0  0  0  0  0  0  0  0  0  0
   44.7860   35.8830   42.2040 C   0  0  0  0  0  0  0  0  0  0  0  0
   44.2680   34.6030   42.4960 C   0  0  0  0  0  0  0  0  0  0  0  0
   44.3240   34.1440   43.7620 N   0  0  0  0  0  0  0  0  0  0  0  0
   44.8570   34.8590   44.7660 C   0  0  0  0  0  0  0  0  0  0  0  0
   45.3590   36.0790   44.5290 N   0  0  0  0  0  0  0  0  0  0  0  0
   44.7480   36.2630   41.1980 H   0  0  0  0  0  0  0  0  0  0  0  0
   43.8330   34.0010   41.7200 H   0  0  0  0  0  0  0  0  0  0  0  0
   45.8490   37.8360   43.0540 O   0  0  0  0  0  0  0  0  0  0  0  0
   45.6090   40.6050   42.4200 H   0  0  0  0  0  0  0  0  0  0  0  0
   45.3980   40.2870   43.3890 N   0  0  0  0  0  0  0  0  0  0  0  0
   45.5060   38.9850   43.7090 C   0  0  0  0  0  0  0  0  0  0  0  0
   45.1740   38.8830   45.0160 N   0  0  0  0  0  0  0  0  0  0  0  0
   44.8730   40.1220   45.4590 C   0  0  0  0  0  0  0  0  0  0  0  0
   44.4700   40.6390   46.6880 C   0  0  0  0  0  0  0  0  0  0  0  0
   44.2250   41.9460   46.8800 N   0  0  0  0  0  0  0  0  0  0  0  0
   44.3760   42.8060   45.8380 C   0  0  0  0  0  0  0  0  0  0  0  0
   44.2090   43.8760   45.8690 H   0  0  0  0  0  0  0  0  0  0  0  0
   44.7690   42.3380   44.6180 N   0  0  0  0  0  0  0  0  0  0  0  0
   45.0100   41.0360   44.4360 C   0  0  0  0  0  0  0  0  0  0  0  0
   44.3060   39.7500   47.7990 N   0  0  0  0  0  0  0  0  0  0  0  0
   43.6730   39.0040   48.1580 H   0  0  0  0  0  0  0  0  0  0  0  0
   45.1130   39.9420   48.4510 H   0  0  0  0  0  0  0  0  0  0  0  0
  2  1  2  1  0  0  0
  2  5  1  0  0  0  0
  3  2  1  0  0  0  0
  4  3  1  0  0  0  0
  5  7  1  0  0  0  0
  6 11  1  6  0  0  0
  6  7  1  0  0  0  0
  6 17  1  0  0  0  0
  7 12  1  1  0  0  0
  8 13  1  0  0  0  0
  8  7  1  0  0  0  0
  9  8  1  0  0  0  0
  9 10  1  0  0  0  0
 10  6  1  0  0  0  0
 10 15  1  0  0  0  0
 14  8  1  0  0  0  0
 16 10  1  0  0  0  0
 17 18  1  0  0  0  0
 18 21  1  0  0  0  0
 19 18  1  0  0  0  0
 20 18  1  0  0  0  0
 21 22  1  0  0  0  0
 23 21  1  0  0  0  0
 24 21  1  0  0  0  0
 25  2  1  0  0  0  0
 26 31  1  0  0  0  0
 27 28  1  0  0  0  0
 27 26  2  0  0  0  0
 28 29  2  0  0  0  0
 29 30  1  0  0  0  0
 30 25  1  0  0  0  0
 31 30  2  0  0  0  0
 32 27  1  0  0  0  0
 33 28  1  0  0  0  0
 34 26  1  0  0  0  0
 34 37  1  0  0  0  0
 35 36  1  0  0  0  0
 36 37  1  0  0  0  0
 36 45  1  0  0  0  0
 37 38  2  0  0  0  0
 38 39  1  0  0  0  0
 39 40  1  0  0  0  0
 40 41  2  0  0  0  0
 40 46  1  0  0  0  0
 42 43  1  0  0  0  0
 42 41  1  0  0  0  0
 44 42  2  0  0  0  0
 45 44  1  0  0  0  0
 45 39  2  0  0  0  0
 46 47  1  0  0  0  0
 46 48  1  0  0  0  0
M  END
>  <minimizedAffinity>
-3.1787703

>  <minimizedRMSD>
1.14934409

$$$$
