
 OpenBabel03242519433D

 34 36  0  0  0  0  0  0  0  0999 V2000
   38.8960   28.6380   41.1000 O   0  0  0  0  0  0  0  0  0  0  0  0
   38.2400   29.4340   42.2590 P   0  0  2  0  0  0  0  0  0  0  0  0
   36.8520   30.2440   41.6530 O   0  0  0  0  0  0  0  0  0  0  0  0
   37.0290   31.1610   38.1320 C   0  0  0  0  0  0  0  0  0  0  0  0
   36.8790   30.3800   39.3040 C   0  0  0  0  0  0  0  0  0  0  0  0
   37.0010   31.0360   40.5340 C   0  0  0  0  0  0  0  0  0  0  0  0
   37.2500   32.3590   40.5380 N   0  0  0  0  0  0  0  0  0  0  0  0
   37.3870   33.0770   39.4010 C   0  0  0  0  0  0  0  0  0  0  0  0
   37.2790   32.4900   38.2010 N   0  0  0  0  0  0  0  0  0  0  0  0
   36.9340   30.6430   37.1830 H   0  0  0  0  0  0  0  0  0  0  0  0
   36.6800   29.3210   39.1740 H   0  0  0  0  0  0  0  0  0  0  0  0
   37.5870   34.1430   39.5300 H   0  0  0  0  0  0  0  0  0  0  0  0
   39.3130   30.5680   42.8120 O   0  0  0  0  0  0  0  0  0  0  0  0
   40.4460   31.0550   42.2460 C   0  0  0  0  0  0  0  0  0  0  0  0
   41.6290   30.8120   42.8970 O   0  0  0  0  0  0  0  0  0  0  0  0
   42.7020   32.8190   41.9290 H   0  0  0  0  0  0  0  0  0  0  0  0
   42.1000   32.6260   41.0650 N   0  0  0  0  0  0  0  0  0  0  0  0
   41.0150   31.8040   41.0980 C   0  0  0  0  0  0  0  0  0  0  0  0
   40.6110   31.8750   39.8520 N   0  0  0  0  0  0  0  0  0  0  0  0
   41.4140   32.6860   39.1510 C   0  0  0  0  0  0  0  0  0  0  0  0
   41.1830   32.9140   37.8190 C   0  0  0  0  0  0  0  0  0  0  0  0
   42.0970   33.7630   37.2680 N   0  0  0  0  0  0  0  0  0  0  0  0
   43.1060   34.3090   37.9690 C   0  0  0  0  0  0  0  0  0  0  0  0
   43.8170   34.9830   37.5000 H   0  0  0  0  0  0  0  0  0  0  0  0
   43.2390   34.0100   39.2980 N   0  0  0  0  0  0  0  0  0  0  0  0
   42.4140   33.2030   39.9270 C   0  0  0  0  0  0  0  0  0  0  0  0
   40.1530   32.3890   36.9920 N   0  0  0  0  0  0  0  0  0  0  0  0
   40.5090   31.6030   36.4150 H   0  0  0  0  0  0  0  0  0  0  0  0
   39.1710   32.7870   37.0070 H   0  0  0  0  0  0  0  0  0  0  0  0
   37.7520   28.3280   43.3930 O   0  0  0  0  0  0  0  0  0  0  0  0
   37.1410   27.2180   42.8180 C   0  0  0  0  0  0  0  0  0  0  0  0
   36.1520   26.6850   43.6260 F   0  0  0  0  0  0  0  0  0  0  0  0
   36.6950   27.5110   41.5690 F   0  0  0  0  0  0  0  0  0  0  0  0
   38.1310   26.2440   42.7190 F   0  0  0  0  0  0  0  0  0  0  0  0
  2  1  2  6  0  0  0
  2 13  1  0  0  0  0
  2 30  1  0  0  0  0
  3  2  1  0  0  0  0
  4  9  2  0  0  0  0
  4  5  1  0  0  0  0
  5  6  2  0  0  0  0
  6  7  1  0  0  0  0
  6  3  1  0  0  0  0
  8 12  1  0  0  0  0
  8  7  2  0  0  0  0
  9  8  1  0  0  0  0
 10  4  1  0  0  0  0
 11  5  1  0  0  0  0
 14 13  1  0  0  0  0
 14 15  2  0  0  0  0
 17 18  1  0  0  0  0
 17 16  1  0  0  0  0
 18 14  1  0  0  0  0
 19 18  2  0  0  0  0
 20 19  1  0  0  0  0
 20 26  1  0  0  0  0
 21 20  2  0  0  0  0
 22 21  1  0  0  0  0
 22 23  2  0  0  0  0
 23 25  1  0  0  0  0
 24 23  1  0  0  0  0
 25 26  2  0  0  0  0
 26 17  1  0  0  0  0
 27 29  1  0  0  0  0
 27 21  1  0  0  0  0
 28 27  1  0  0  0  0
 31 30  1  0  0  0  0
 31 32  1  0  0  0  0
 33 31  1  0  0  0  0
 34 31  1  0  0  0  0
M  END
>  <minimizedAffinity>
-6.00254774

$$$$

 OpenBabel03242519433D

 34 36  0  0  0  0  0  0  0  0999 V2000
   35.5460   29.9480   40.4460 O   0  0  0  0  0  0  0  0  0  0  0  0
   36.9950   30.4400   40.7080 P   0  0  2  0  0  0  0  0  0  0  0  0
   37.4820   29.9070   42.2660 O   0  0  0  0  0  0  0  0  0  0  0  0
   40.4720   27.9770   43.0430 C   0  0  0  0  0  0  0  0  0  0  0  0
   39.1120   28.3050   42.8250 C   0  0  0  0  0  0  0  0  0  0  0  0
   38.8170   29.6250   42.4670 C   0  0  0  0  0  0  0  0  0  0  0  0
   39.8300   30.5020   42.3490 N   0  0  0  0  0  0  0  0  0  0  0  0
   41.1200   30.1590   42.5620 C   0  0  0  0  0  0  0  0  0  0  0  0
   41.4480   28.9060   42.9080 N   0  0  0  0  0  0  0  0  0  0  0  0
   40.6910   26.9510   43.3200 H   0  0  0  0  0  0  0  0  0  0  0  0
   38.3830   27.5100   42.9500 H   0  0  0  0  0  0  0  0  0  0  0  0
   41.8550   30.9580   42.4370 H   0  0  0  0  0  0  0  0  0  0  0  0
   37.0170   32.0950   40.6850 O   0  0  0  0  0  0  0  0  0  0  0  0
   37.9610   32.9540   40.2240 C   0  0  0  0  0  0  0  0  0  0  0  0
   37.5230   34.1200   39.6470 O   0  0  0  0  0  0  0  0  0  0  0  0
   40.1510   33.2060   42.0800 H   0  0  0  0  0  0  0  0  0  0  0  0
   40.3710   33.3140   41.0390 N   0  0  0  0  0  0  0  0  0  0  0  0
   39.4160   33.2080   40.0730 C   0  0  0  0  0  0  0  0  0  0  0  0
   40.1300   33.4080   38.9920 N   0  0  0  0  0  0  0  0  0  0  0  0
   41.4140   33.6150   39.3180 C   0  0  0  0  0  0  0  0  0  0  0  0
   42.3500   33.8490   38.3430 C   0  0  0  0  0  0  0  0  0  0  0  0
   43.6000   34.0390   38.8560 N   0  0  0  0  0  0  0  0  0  0  0  0
   43.8660   33.9990   40.1730 C   0  0  0  0  0  0  0  0  0  0  0  0
   44.8730   34.1540   40.5490 H   0  0  0  0  0  0  0  0  0  0  0  0
   42.8490   33.7570   41.0570 N   0  0  0  0  0  0  0  0  0  0  0  0
   41.6080   33.5610   40.6690 C   0  0  0  0  0  0  0  0  0  0  0  0
   42.1720   33.9100   36.9350 N   0  0  0  0  0  0  0  0  0  0  0  0
   42.4710   33.0220   36.4880 H   0  0  0  0  0  0  0  0  0  0  0  0
   41.7820   34.7730   36.4610 H   0  0  0  0  0  0  0  0  0  0  0  0
   37.9640   29.7150   39.5750 O   0  0  0  0  0  0  0  0  0  0  0  0
   37.5640   30.0040   38.2750 C   0  0  0  0  0  0  0  0  0  0  0  0
   37.3410   28.8610   37.5270 F   0  0  0  0  0  0  0  0  0  0  0  0
   36.4950   30.8430   38.2790 F   0  0  0  0  0  0  0  0  0  0  0  0
   38.6390   30.6570   37.6780 F   0  0  0  0  0  0  0  0  0  0  0  0
  2  1  2  6  0  0  0
  2  3  1  0  0  0  0
  3  6  1  0  0  0  0
  4 10  1  0  0  0  0
  5 11  1  0  0  0  0
  5  4  2  0  0  0  0
  6  5  1  0  0  0  0
  7  6  2  0  0  0  0
  7  8  1  0  0  0  0
  8  9  2  0  0  0  0
  9  4  1  0  0  0  0
 12  8  1  0  0  0  0
 13  2  1  0  0  0  0
 14 13  1  0  0  0  0
 15 14  2  0  0  0  0
 17 16  1  0  0  0  0
 18 14  1  0  0  0  0
 18 17  1  0  0  0  0
 19 20  1  0  0  0  0
 19 18  2  0  0  0  0
 20 26  1  0  0  0  0
 21 22  1  0  0  0  0
 21 20  2  0  0  0  0
 22 23  2  0  0  0  0
 23 24  1  0  0  0  0
 23 25  1  0  0  0  0
 26 17  1  0  0  0  0
 26 25  2  0  0  0  0
 27 21  1  0  0  0  0
 28 27  1  0  0  0  0
 29 27  1  0  0  0  0
 30  2  1  0  0  0  0
 31 33  1  0  0  0  0
 31 30  1  0  0  0  0
 32 31  1  0  0  0  0
 34 31  1  0  0  0  0
M  END
>  <minimizedAffinity>
-5.67225027

$$$$

 OpenBabel03242519433D

 34 36  0  0  0  0  0  0  0  0999 V2000
   35.3130   29.3090   40.7040 O   0  0  0  0  0  0  0  0  0  0  0  0
   36.8210   28.9420   40.6650 P   0  0  2  0  0  0  0  0  0  0  0  0
   36.9870   27.2670   41.0070 O   0  0  0  0  0  0  0  0  0  0  0  0
   39.4180   26.5370   43.6210 C   0  0  0  0  0  0  0  0  0  0  0  0
   38.2270   26.9640   42.9840 C   0  0  0  0  0  0  0  0  0  0  0  0
   38.1600   26.8380   41.5920 C   0  0  0  0  0  0  0  0  0  0  0  0
   39.2180   26.3220   40.9400 N   0  0  0  0  0  0  0  0  0  0  0  0
   40.3420   25.9220   41.5770 C   0  0  0  0  0  0  0  0  0  0  0  0
   40.4500   26.0260   42.9080 N   0  0  0  0  0  0  0  0  0  0  0  0
   39.4610   26.6390   44.7000 H   0  0  0  0  0  0  0  0  0  0  0  0
   37.4410   27.3630   43.6170 H   0  0  0  0  0  0  0  0  0  0  0  0
   41.1350   25.5200   40.9410 H   0  0  0  0  0  0  0  0  0  0  0  0
   37.6180   29.8010   41.8340 O   0  0  0  0  0  0  0  0  0  0  0  0
   38.7730   30.5110   41.7700 C   0  0  0  0  0  0  0  0  0  0  0  0
   39.6070   30.4540   42.8570 O   0  0  0  0  0  0  0  0  0  0  0  0
   40.7970   32.4750   42.3560 H   0  0  0  0  0  0  0  0  0  0  0  0
   40.5500   32.3130   41.3290 N   0  0  0  0  0  0  0  0  0  0  0  0
   39.6140   31.4040   40.9350 C   0  0  0  0  0  0  0  0  0  0  0  0
   39.6540   31.5530   39.6330 N   0  0  0  0  0  0  0  0  0  0  0  0
   40.5550   32.4880   39.3020 C   0  0  0  0  0  0  0  0  0  0  0  0
   40.7680   32.8140   37.9870 C   0  0  0  0  0  0  0  0  0  0  0  0
   41.7180   33.7820   37.8370 N   0  0  0  0  0  0  0  0  0  0  0  0
   42.3620   34.3440   38.8750 C   0  0  0  0  0  0  0  0  0  0  0  0
   43.1130   35.1130   38.7210 H   0  0  0  0  0  0  0  0  0  0  0  0
   42.0660   33.9390   40.1480 N   0  0  0  0  0  0  0  0  0  0  0  0
   41.1690   33.0130   40.4040 C   0  0  0  0  0  0  0  0  0  0  0  0
   40.1450   32.2830   36.8260 N   0  0  0  0  0  0  0  0  0  0  0  0
   40.7590   31.5840   36.3660 H   0  0  0  0  0  0  0  0  0  0  0  0
   39.1800   32.5950   36.5200 H   0  0  0  0  0  0  0  0  0  0  0  0
   37.3480   29.2190   39.1180 O   0  0  0  0  0  0  0  0  0  0  0  0
   36.6150   30.2140   38.4810 C   0  0  0  0  0  0  0  0  0  0  0  0
   35.4270   29.7380   37.9550 F   0  0  0  0  0  0  0  0  0  0  0  0
   36.4320   31.2770   39.3080 F   0  0  0  0  0  0  0  0  0  0  0  0
   37.3860   30.6230   37.3960 F   0  0  0  0  0  0  0  0  0  0  0  0
  2  1  2  1  0  0  0
  2  3  1  0  0  0  0
  2 13  1  0  0  0  0
  3  6  1  0  0  0  0
  4 10  1  0  0  0  0
  5 11  1  0  0  0  0
  5  4  1  0  0  0  0
  6  5  2  0  0  0  0
  7  8  2  0  0  0  0
  7  6  1  0  0  0  0
  8  9  1  0  0  0  0
  9  4  2  0  0  0  0
 12  8  1  0  0  0  0
 14 13  1  0  0  0  0
 14 15  2  0  0  0  0
 17 16  1  0  0  0  0
 18 17  1  0  0  0  0
 18 14  1  0  0  0  0
 19 18  2  0  0  0  0
 20 19  1  0  0  0  0
 20 26  1  0  0  0  0
 21 20  2  0  0  0  0
 22 21  1  0  0  0  0
 22 23  2  0  0  0  0
 23 25  1  0  0  0  0
 24 23  1  0  0  0  0
 25 26  2  0  0  0  0
 26 17  1  0  0  0  0
 27 21  1  0  0  0  0
 28 27  1  0  0  0  0
 29 27  1  0  0  0  0
 30  2  1  0  0  0  0
 31 30  1  0  0  0  0
 31 33  1  0  0  0  0
 32 31  1  0  0  0  0
 34 31  1  0  0  0  0
M  END
>  <minimizedAffinity>
-5.59890413

$$$$

 OpenBabel03242519433D

 34 36  0  0  0  0  0  0  0  0999 V2000
   36.6940   27.6180   43.4700 O   0  0  0  0  0  0  0  0  0  0  0  0
   37.0920   28.3940   42.1860 P   0  0  2  0  0  0  0  0  0  0  0  0
   38.0880   27.3820   41.2190 O   0  0  0  0  0  0  0  0  0  0  0  0
   36.4440   24.5760   39.5760 C   0  0  0  0  0  0  0  0  0  0  0  0
   36.8950   25.8920   39.8420 C   0  0  0  0  0  0  0  0  0  0  0  0
   37.6700   26.0880   40.9910 C   0  0  0  0  0  0  0  0  0  0  0  0
   37.9430   25.0270   41.7720 N   0  0  0  0  0  0  0  0  0  0  0  0
   37.4990   23.7810   41.4910 C   0  0  0  0  0  0  0  0  0  0  0  0
   36.7530   23.5480   40.4020 N   0  0  0  0  0  0  0  0  0  0  0  0
   35.8440   24.4350   38.6830 H   0  0  0  0  0  0  0  0  0  0  0  0
   36.6110   26.6670   39.1370 H   0  0  0  0  0  0  0  0  0  0  0  0
   37.7850   23.0000   42.1990 H   0  0  0  0  0  0  0  0  0  0  0  0
   37.9610   29.7370   42.6120 O   0  0  0  0  0  0  0  0  0  0  0  0
   39.1590   30.1880   42.1610 C   0  0  0  0  0  0  0  0  0  0  0  0
   40.2840   29.5590   42.6320 O   0  0  0  0  0  0  0  0  0  0  0  0
   41.0630   32.3030   42.6090 H   0  0  0  0  0  0  0  0  0  0  0  0
   40.7370   32.1370   41.6040 N   0  0  0  0  0  0  0  0  0  0  0  0
   39.8460   31.1600   41.2750 C   0  0  0  0  0  0  0  0  0  0  0  0
   39.7540   31.3320   39.9790 N   0  0  0  0  0  0  0  0  0  0  0  0
   40.5430   32.3430   39.5890 C   0  0  0  0  0  0  0  0  0  0  0  0
   40.6080   32.7070   38.2680 C   0  0  0  0  0  0  0  0  0  0  0  0
   41.4580   33.7520   38.0560 N   0  0  0  0  0  0  0  0  0  0  0  0
   42.1470   34.3480   39.0440 C   0  0  0  0  0  0  0  0  0  0  0  0
   42.8170   35.1790   38.8410 H   0  0  0  0  0  0  0  0  0  0  0  0
   42.0030   33.9000   40.3290 N   0  0  0  0  0  0  0  0  0  0  0  0
   41.2100   32.9000   40.6440 C   0  0  0  0  0  0  0  0  0  0  0  0
   39.9260   32.1440   37.1560 N   0  0  0  0  0  0  0  0  0  0  0  0
   40.5500   31.5050   36.6260 H   0  0  0  0  0  0  0  0  0  0  0  0
   38.9150   32.3810   36.9460 H   0  0  0  0  0  0  0  0  0  0  0  0
   35.6920   28.7050   41.3540 O   0  0  0  0  0  0  0  0  0  0  0  0
   35.8210   29.7890   40.4920 C   0  0  0  0  0  0  0  0  0  0  0  0
   35.8330   30.9980   41.1660 F   0  0  0  0  0  0  0  0  0  0  0  0
   36.9010   29.6310   39.6820 F   0  0  0  0  0  0  0  0  0  0  0  0
   34.6720   29.7920   39.7060 F   0  0  0  0  0  0  0  0  0  0  0  0
  2 13  1  0  0  0  0
  2  1  2  1  0  0  0
  3  2  1  0  0  0  0
  4  5  2  0  0  0  0
  4  9  1  0  0  0  0
  5  6  1  0  0  0  0
  6  3  1  0  0  0  0
  6  7  2  0  0  0  0
  8  7  1  0  0  0  0
  8 12  1  0  0  0  0
  9  8  2  0  0  0  0
 10  4  1  0  0  0  0
 11  5  1  0  0  0  0
 14 13  1  0  0  0  0
 14 15  2  0  0  0  0
 17 16  1  0  0  0  0
 18 17  1  0  0  0  0
 18 14  1  0  0  0  0
 19 18  2  0  0  0  0
 20 19  1  0  0  0  0
 20 26  1  0  0  0  0
 21 20  2  0  0  0  0
 22 21  1  0  0  0  0
 22 23  2  0  0  0  0
 23 25  1  0  0  0  0
 24 23  1  0  0  0  0
 25 26  2  0  0  0  0
 26 17  1  0  0  0  0
 27 21  1  0  0  0  0
 28 27  1  0  0  0  0
 29 27  1  0  0  0  0
 30  2  1  0  0  0  0
 31 32  1  0  0  0  0
 31 30  1  0  0  0  0
 33 31  1  0  0  0  0
 34 31  1  0  0  0  0
M  END
>  <minimizedAffinity>
-5.58293295

$$$$

 OpenBabel03242519433D

 34 36  0  0  0  0  0  0  0  0999 V2000
   35.1360   29.6700   40.1150 O   0  0  0  0  0  0  0  0  0  0  0  0
   36.5580   30.2690   40.2820 P   0  0  2  0  0  0  0  0  0  0  0  0
   37.0200   30.1350   41.9310 O   0  0  0  0  0  0  0  0  0  0  0  0
   39.5110   27.8360   43.2650 C   0  0  0  0  0  0  0  0  0  0  0  0
   38.8980   29.0340   42.8270 C   0  0  0  0  0  0  0  0  0  0  0  0
   37.5840   28.9490   42.3520 C   0  0  0  0  0  0  0  0  0  0  0  0
   36.9800   27.7460   42.3390 N   0  0  0  0  0  0  0  0  0  0  0  0
   37.5930   26.6190   42.7650 C   0  0  0  0  0  0  0  0  0  0  0  0
   38.8510   26.6540   43.2270 N   0  0  0  0  0  0  0  0  0  0  0  0
   40.5300   27.9120   43.6310 H   0  0  0  0  0  0  0  0  0  0  0  0
   39.4860   29.9440   42.8860 H   0  0  0  0  0  0  0  0  0  0  0  0
   37.0020   25.7020   42.7060 H   0  0  0  0  0  0  0  0  0  0  0  0
   36.5210   31.8730   39.8730 O   0  0  0  0  0  0  0  0  0  0  0  0
   37.5360   32.7470   39.6520 C   0  0  0  0  0  0  0  0  0  0  0  0
   37.2220   34.0820   39.6310 O   0  0  0  0  0  0  0  0  0  0  0  0
   39.2320   32.3870   37.3510 H   0  0  0  0  0  0  0  0  0  0  0  0
   39.6980   32.6880   38.2660 N   0  0  0  0  0  0  0  0  0  0  0  0
   38.9930   32.8940   39.4130 C   0  0  0  0  0  0  0  0  0  0  0  0
   39.9540   33.2360   40.2380 N   0  0  0  0  0  0  0  0  0  0  0  0
   41.1340   33.2260   39.6030 C   0  0  0  0  0  0  0  0  0  0  0  0
   42.2870   33.5510   40.2710 C   0  0  0  0  0  0  0  0  0  0  0  0
   43.3890   33.4880   39.4700 N   0  0  0  0  0  0  0  0  0  0  0  0
   43.3340   33.1420   38.1730 C   0  0  0  0  0  0  0  0  0  0  0  0
   44.2310   33.1010   37.5620 H   0  0  0  0  0  0  0  0  0  0  0  0
   42.1240   32.8360   37.6100 N   0  0  0  0  0  0  0  0  0  0  0  0
   41.0000   32.8660   38.2920 C   0  0  0  0  0  0  0  0  0  0  0  0
   42.4510   33.9290   41.6310 N   0  0  0  0  0  0  0  0  0  0  0  0
   42.5510   34.9580   41.7180 H   0  0  0  0  0  0  0  0  0  0  0  0
   42.4600   33.2110   42.4100 H   0  0  0  0  0  0  0  0  0  0  0  0
   37.5850   29.3420   39.3690 O   0  0  0  0  0  0  0  0  0  0  0  0
   37.2250   29.3220   38.0260 C   0  0  0  0  0  0  0  0  0  0  0  0
   36.2860   30.2910   37.7190 F   0  0  0  0  0  0  0  0  0  0  0  0
   38.3280   29.3940   37.2340 F   0  0  0  0  0  0  0  0  0  0  0  0
   36.6040   28.0950   37.8120 F   0  0  0  0  0  0  0  0  0  0  0  0
  2  1  2  6  0  0  0
  2  3  1  0  0  0  0
  3  6  1  0  0  0  0
  4 10  1  0  0  0  0
  5 11  1  0  0  0  0
  5  4  2  0  0  0  0
  6  5  1  0  0  0  0
  7  6  2  0  0  0  0
  7  8  1  0  0  0  0
  8  9  2  0  0  0  0
  9  4  1  0  0  0  0
 12  8  1  0  0  0  0
 13  2  1  0  0  0  0
 14 13  1  0  0  0  0
 15 14  2  0  0  0  0
 16 17  1  0  0  0  0
 17 26  1  0  0  0  0
 17 18  1  0  0  0  0
 18 14  1  0  0  0  0
 18 19  2  0  0  0  0
 20 19  1  0  0  0  0
 20 21  1  0  0  0  0
 21 27  1  0  0  0  0
 22 21  2  0  0  0  0
 23 22  1  0  0  0  0
 24 23  1  0  0  0  0
 25 23  2  0  0  0  0
 25 26  1  0  0  0  0
 26 20  2  0  0  0  0
 27 28  1  0  0  0  0
 27 29  1  0  0  0  0
 30  2  1  0  0  0  0
 31 30  1  0  0  0  0
 32 31  1  0  0  0  0
 33 31  1  0  0  0  0
 34 31  1  0  0  0  0
M  END
>  <minimizedAffinity>
-5.44552135

$$$$

 OpenBabel03242519433D

 34 36  0  0  0  0  0  0  0  0999 V2000
   39.0790   28.0870   41.2120 O   0  0  0  0  0  0  0  0  0  0  0  0
   38.1360   29.2610   41.5870 P   0  0  2  0  0  0  0  0  0  0  0  0
   37.5750   29.9990   40.1410 O   0  0  0  0  0  0  0  0  0  0  0  0
   39.0390   28.4490   37.1870 C   0  0  0  0  0  0  0  0  0  0  0  0
   38.9220   29.1840   38.3910 C   0  0  0  0  0  0  0  0  0  0  0  0
   37.6510   29.2730   38.9710 C   0  0  0  0  0  0  0  0  0  0  0  0
   36.6200   28.6610   38.3600 N   0  0  0  0  0  0  0  0  0  0  0  0
   36.7640   27.9650   37.2090 C   0  0  0  0  0  0  0  0  0  0  0  0
   37.9620   27.8550   36.6190 N   0  0  0  0  0  0  0  0  0  0  0  0
   40.0280   28.3860   36.7450 H   0  0  0  0  0  0  0  0  0  0  0  0
   39.8260   29.6330   38.7890 H   0  0  0  0  0  0  0  0  0  0  0  0
   35.8540   27.5120   36.8070 H   0  0  0  0  0  0  0  0  0  0  0  0
   38.9870   30.3840   42.4560 O   0  0  0  0  0  0  0  0  0  0  0  0
   40.0610   31.1360   42.1050 C   0  0  0  0  0  0  0  0  0  0  0  0
   40.9900   31.3990   43.0810 O   0  0  0  0  0  0  0  0  0  0  0  0
   42.3900   32.8260   41.9550 H   0  0  0  0  0  0  0  0  0  0  0  0
   41.8500   32.6470   41.0490 N   0  0  0  0  0  0  0  0  0  0  0  0
   40.7400   31.8600   41.0010 C   0  0  0  0  0  0  0  0  0  0  0  0
   40.4350   31.9360   39.7280 N   0  0  0  0  0  0  0  0  0  0  0  0
   41.3150   32.7170   39.0880 C   0  0  0  0  0  0  0  0  0  0  0  0
   41.1930   32.9440   37.7400 C   0  0  0  0  0  0  0  0  0  0  0  0
   42.1730   33.7610   37.2590 N   0  0  0  0  0  0  0  0  0  0  0  0
   43.1420   34.2790   38.0320 C   0  0  0  0  0  0  0  0  0  0  0  0
   43.9080   34.9270   37.6170 H   0  0  0  0  0  0  0  0  0  0  0  0
   43.1650   33.9840   39.3690 N   0  0  0  0  0  0  0  0  0  0  0  0
   42.2680   33.2070   39.9350 C   0  0  0  0  0  0  0  0  0  0  0  0
   40.2130   32.4470   36.8400 N   0  0  0  0  0  0  0  0  0  0  0  0
   40.5870   31.6460   36.2940 H   0  0  0  0  0  0  0  0  0  0  0  0
   39.2460   32.8750   36.7780 H   0  0  0  0  0  0  0  0  0  0  0  0
   36.8380   28.6050   42.3820 O   0  0  0  0  0  0  0  0  0  0  0  0
   37.1140   27.3400   42.8890 C   0  0  0  0  0  0  0  0  0  0  0  0
   37.1950   26.3800   41.8950 F   0  0  0  0  0  0  0  0  0  0  0  0
   38.2220   27.3720   43.6770 F   0  0  0  0  0  0  0  0  0  0  0  0
   36.0190   26.9940   43.6770 F   0  0  0  0  0  0  0  0  0  0  0  0
  2  1  2  6  0  0  0
  2 30  1  0  0  0  0
  2 13  1  0  0  0  0
  3  2  1  0  0  0  0
  4  5  1  0  0  0  0
  5 11  1  0  0  0  0
  5  6  2  0  0  0  0
  6  3  1  0  0  0  0
  7  6  1  0  0  0  0
  8  7  2  0  0  0  0
  9  4  2  0  0  0  0
  9  8  1  0  0  0  0
 10  4  1  0  0  0  0
 12  8  1  0  0  0  0
 14 13  1  0  0  0  0
 14 15  2  0  0  0  0
 17 16  1  0  0  0  0
 18 17  1  0  0  0  0
 18 14  1  0  0  0  0
 19 18  2  0  0  0  0
 20 19  1  0  0  0  0
 20 26  1  0  0  0  0
 21 20  2  0  0  0  0
 22 21  1  0  0  0  0
 22 23  2  0  0  0  0
 23 25  1  0  0  0  0
 24 23  1  0  0  0  0
 25 26  2  0  0  0  0
 26 17  1  0  0  0  0
 27 21  1  0  0  0  0
 28 27  1  0  0  0  0
 29 27  1  0  0  0  0
 30 31  1  0  0  0  0
 31 33  1  0  0  0  0
 31 34  1  0  0  0  0
 32 31  1  0  0  0  0
M  END
>  <minimizedAffinity>
-5.37470913

$$$$

 OpenBabel03242519433D

 34 36  0  0  0  0  0  0  0  0999 V2000
   36.2180   31.2030   41.0400 O   0  0  0  0  0  0  0  0  0  0  0  0
   37.2010   30.0030   41.1030 P   0  0  2  0  0  0  0  0  0  0  0  0
   38.6710   30.5340   41.8150 O   0  0  0  0  0  0  0  0  0  0  0  0
   41.2830   32.8840   40.8540 C   0  0  0  0  0  0  0  0  0  0  0  0
   40.6510   31.7170   41.3490 C   0  0  0  0  0  0  0  0  0  0  0  0
   39.2520   31.6840   41.3230 C   0  0  0  0  0  0  0  0  0  0  0  0
   38.5900   32.7490   40.8350 N   0  0  0  0  0  0  0  0  0  0  0  0
   39.2230   33.8490   40.3690 C   0  0  0  0  0  0  0  0  0  0  0  0
   40.5610   33.9250   40.3750 N   0  0  0  0  0  0  0  0  0  0  0  0
   42.3680   32.9010   40.8780 H   0  0  0  0  0  0  0  0  0  0  0  0
   41.2920   30.9220   41.7160 H   0  0  0  0  0  0  0  0  0  0  0  0
   38.5800   34.6500   39.9980 H   0  0  0  0  0  0  0  0  0  0  0  0
   37.5180   29.4820   39.5640 O   0  0  0  0  0  0  0  0  0  0  0  0
   38.2660   30.0460   38.5820 C   0  0  0  0  0  0  0  0  0  0  0  0
   37.5990   30.7470   37.6080 O   0  0  0  0  0  0  0  0  0  0  0  0
   40.4580   28.2980   37.9200 H   0  0  0  0  0  0  0  0  0  0  0  0
   40.6070   29.3490   37.7880 N   0  0  0  0  0  0  0  0  0  0  0  0
   39.6380   30.2660   38.0630 C   0  0  0  0  0  0  0  0  0  0  0  0
   40.2580   31.3820   37.7610 N   0  0  0  0  0  0  0  0  0  0  0  0
   41.5030   31.1200   37.3400 C   0  0  0  0  0  0  0  0  0  0  0  0
   42.3420   32.1400   36.9690 C   0  0  0  0  0  0  0  0  0  0  0  0
   43.5660   31.6890   36.5700 N   0  0  0  0  0  0  0  0  0  0  0  0
   43.8970   30.3870   36.5500 C   0  0  0  0  0  0  0  0  0  0  0  0
   44.8810   30.0610   36.2260 H   0  0  0  0  0  0  0  0  0  0  0  0
   42.9760   29.4530   36.9440 N   0  0  0  0  0  0  0  0  0  0  0  0
   41.7680   29.7790   37.3460 C   0  0  0  0  0  0  0  0  0  0  0  0
   42.0890   33.5380   36.9530 N   0  0  0  0  0  0  0  0  0  0  0  0
   41.8750   33.8620   35.9900 H   0  0  0  0  0  0  0  0  0  0  0  0
   42.1280   34.1200   37.8370 H   0  0  0  0  0  0  0  0  0  0  0  0
   36.5150   28.8660   42.0950 O   0  0  0  0  0  0  0  0  0  0  0  0
   37.4520   27.9720   42.6000 C   0  0  0  0  0  0  0  0  0  0  0  0
   36.8660   26.8270   43.1090 F   0  0  0  0  0  0  0  0  0  0  0  0
   38.4060   27.7020   41.6700 F   0  0  0  0  0  0  0  0  0  0  0  0
   38.0530   28.6150   43.6790 F   0  0  0  0  0  0  0  0  0  0  0  0
  2  1  2  6  0  0  0
  2  3  1  0  0  0  0
  2 30  1  0  0  0  0
  4 10  1  0  0  0  0
  4  5  1  0  0  0  0
  5 11  1  0  0  0  0
  6  5  2  0  0  0  0
  6  3  1  0  0  0  0
  7  6  1  0  0  0  0
  8  9  1  0  0  0  0
  8  7  2  0  0  0  0
  9  4  2  0  0  0  0
 12  8  1  0  0  0  0
 13  2  1  0  0  0  0
 14 13  1  0  0  0  0
 15 14  2  0  0  0  0
 17 16  1  0  0  0  0
 17 18  1  0  0  0  0
 18 14  1  0  0  0  0
 19 18  2  0  0  0  0
 20 26  1  0  0  0  0
 20 19  1  0  0  0  0
 21 20  2  0  0  0  0
 22 21  1  0  0  0  0
 23 22  2  0  0  0  0
 23 25  1  0  0  0  0
 24 23  1  0  0  0  0
 25 26  2  0  0  0  0
 26 17  1  0  0  0  0
 27 21  1  0  0  0  0
 27 29  1  0  0  0  0
 28 27  1  0  0  0  0
 30 31  1  0  0  0  0
 31 32  1  0  0  0  0
 31 34  1  0  0  0  0
 33 31  1  0  0  0  0
M  END
>  <minimizedAffinity>
-5.30046034

$$$$

 OpenBabel03242519433D

 34 36  0  0  0  0  0  0  0  0999 V2000
   38.5580   27.0060   39.7280 O   0  0  0  0  0  0  0  0  0  0  0  0
   37.1640   26.5900   40.2680 P   0  0  2  0  0  0  0  0  0  0  0  0
   35.9780   26.9820   39.0880 O   0  0  0  0  0  0  0  0  0  0  0  0
   36.8980   28.3280   35.8310 C   0  0  0  0  0  0  0  0  0  0  0  0
   36.5560   27.4020   36.8460 C   0  0  0  0  0  0  0  0  0  0  0  0
   36.3050   27.9130   38.1250 C   0  0  0  0  0  0  0  0  0  0  0  0
   36.4000   29.2410   38.3190 N   0  0  0  0  0  0  0  0  0  0  0  0
   36.7280   30.1000   37.3280 C   0  0  0  0  0  0  0  0  0  0  0  0
   36.9780   29.6560   36.0890 N   0  0  0  0  0  0  0  0  0  0  0  0
   37.0910   27.9230   34.8430 H   0  0  0  0  0  0  0  0  0  0  0  0
   36.5110   26.3540   36.5680 H   0  0  0  0  0  0  0  0  0  0  0  0
   36.7740   31.1560   37.6060 H   0  0  0  0  0  0  0  0  0  0  0  0
   36.8390   27.4470   41.6470 O   0  0  0  0  0  0  0  0  0  0  0  0
   37.2310   28.6920   42.0210 C   0  0  0  0  0  0  0  0  0  0  0  0
   37.3570   28.9340   43.3650 O   0  0  0  0  0  0  0  0  0  0  0  0
   35.8760   30.8210   40.6320 H   0  0  0  0  0  0  0  0  0  0  0  0
   36.9030   30.9740   40.8880 N   0  0  0  0  0  0  0  0  0  0  0  0
   37.6390   30.0380   41.5500 C   0  0  0  0  0  0  0  0  0  0  0  0
   38.7970   30.6480   41.6360 N   0  0  0  0  0  0  0  0  0  0  0  0
   38.7280   31.8560   41.0590 C   0  0  0  0  0  0  0  0  0  0  0  0
   39.8270   32.6760   41.0290 C   0  0  0  0  0  0  0  0  0  0  0  0
   39.5740   33.8620   40.4040 N   0  0  0  0  0  0  0  0  0  0  0  0
   38.3760   34.1750   39.8810 C   0  0  0  0  0  0  0  0  0  0  0  0
   38.2070   35.1290   39.3890 H   0  0  0  0  0  0  0  0  0  0  0  0
   37.3480   33.2750   39.9700 N   0  0  0  0  0  0  0  0  0  0  0  0
   37.4840   32.1040   40.5520 C   0  0  0  0  0  0  0  0  0  0  0  0
   41.1270   32.4420   41.5490 N   0  0  0  0  0  0  0  0  0  0  0  0
   41.2530   32.9270   42.4590 H   0  0  0  0  0  0  0  0  0  0  0  0
   41.8320   31.8420   41.0340 H   0  0  0  0  0  0  0  0  0  0  0  0
   37.1900   24.9440   40.4630 O   0  0  0  0  0  0  0  0  0  0  0  0
   37.4800   24.5720   41.7710 C   0  0  0  0  0  0  0  0  0  0  0  0
   38.5770   25.2450   42.2790 F   0  0  0  0  0  0  0  0  0  0  0  0
   36.3790   24.6980   42.5590 F   0  0  0  0  0  0  0  0  0  0  0  0
   37.8370   23.2280   41.7180 F   0  0  0  0  0  0  0  0  0  0  0  0
  2  1  2  6  0  0  0
  2 30  1  0  0  0  0
  2 13  1  0  0  0  0
  3  2  1  0  0  0  0
  4  9  2  0  0  0  0
  4  5  1  0  0  0  0
  5  6  2  0  0  0  0
  6  7  1  0  0  0  0
  6  3  1  0  0  0  0
  8 12  1  0  0  0  0
  8  7  2  0  0  0  0
  9  8  1  0  0  0  0
 10  4  1  0  0  0  0
 11  5  1  0  0  0  0
 13 14  1  0  0  0  0
 14 15  2  0  0  0  0
 16 17  1  0  0  0  0
 17 18  1  0  0  0  0
 18 19  2  0  0  0  0
 18 14  1  0  0  0  0
 20 19  1  0  0  0  0
 21 20  1  0  0  0  0
 21 27  1  0  0  0  0
 22 21  2  0  0  0  0
 23 25  2  0  0  0  0
 23 22  1  0  0  0  0
 24 23  1  0  0  0  0
 25 26  1  0  0  0  0
 26 17  1  0  0  0  0
 26 20  2  0  0  0  0
 27 28  1  0  0  0  0
 29 27  1  0  0  0  0
 30 31  1  0  0  0  0
 31 32  1  0  0  0  0
 31 33  1  0  0  0  0
 34 31  1  0  0  0  0
M  END
>  <minimizedAffinity>
-5.27860832

$$$$

 OpenBabel03242519433D

 34 36  0  0  0  0  0  0  0  0999 V2000
   40.0640   26.7060   40.8460 O   0  0  0  0  0  0  0  0  0  0  0  0
   38.5510   26.3760   40.7420 P   0  0  2  0  0  0  0  0  0  0  0  0
   38.0590   26.5580   39.1070 O   0  0  0  0  0  0  0  0  0  0  0  0
   36.3620   29.6010   38.0430 C   0  0  0  0  0  0  0  0  0  0  0  0
   36.5720   28.2930   38.5430 C   0  0  0  0  0  0  0  0  0  0  0  0
   37.8930   27.8370   38.6190 C   0  0  0  0  0  0  0  0  0  0  0  0
   38.8820   28.6570   38.2170 N   0  0  0  0  0  0  0  0  0  0  0  0
   38.6490   29.9020   37.7450 C   0  0  0  0  0  0  0  0  0  0  0  0
   37.4000   30.3800   37.6540 N   0  0  0  0  0  0  0  0  0  0  0  0
   35.3350   29.9450   37.9880 H   0  0  0  0  0  0  0  0  0  0  0  0
   35.6950   27.7260   38.8360 H   0  0  0  0  0  0  0  0  0  0  0  0
   39.5320   30.4750   37.4500 H   0  0  0  0  0  0  0  0  0  0  0  0
   37.6980   27.4480   41.6730 O   0  0  0  0  0  0  0  0  0  0  0  0
   37.9890   28.7230   42.0330 C   0  0  0  0  0  0  0  0  0  0  0  0
   37.8010   29.0630   43.3490 O   0  0  0  0  0  0  0  0  0  0  0  0
   40.5840   29.9730   41.9830 H   0  0  0  0  0  0  0  0  0  0  0  0
   39.7580   30.5360   41.6020 N   0  0  0  0  0  0  0  0  0  0  0  0
   38.4890   30.0420   41.5700 C   0  0  0  0  0  0  0  0  0  0  0  0
   37.8420   31.0520   41.0410 N   0  0  0  0  0  0  0  0  0  0  0  0
   38.6870   32.0600   40.7850 C   0  0  0  0  0  0  0  0  0  0  0  0
   38.2300   33.2270   40.2280 C   0  0  0  0  0  0  0  0  0  0  0  0
   39.2260   34.1390   40.0390 N   0  0  0  0  0  0  0  0  0  0  0  0
   40.5080   33.9050   40.3700 C   0  0  0  0  0  0  0  0  0  0  0  0
   41.2770   34.6540   40.2070 H   0  0  0  0  0  0  0  0  0  0  0  0
   40.8490   32.7000   40.9220 N   0  0  0  0  0  0  0  0  0  0  0  0
   39.9680   31.7510   41.1460 C   0  0  0  0  0  0  0  0  0  0  0  0
   36.9060   33.5710   39.8440 N   0  0  0  0  0  0  0  0  0  0  0  0
   36.7820   33.4680   38.8180 H   0  0  0  0  0  0  0  0  0  0  0  0
   36.1840   33.8830   40.5540 H   0  0  0  0  0  0  0  0  0  0  0  0
   38.3710   24.7860   41.1730 O   0  0  0  0  0  0  0  0  0  0  0  0
   37.0390   24.3850   41.1690 C   0  0  0  0  0  0  0  0  0  0  0  0
   36.2590   25.1610   40.3300 F   0  0  0  0  0  0  0  0  0  0  0  0
   36.9400   23.0570   40.8950 F   0  0  0  0  0  0  0  0  0  0  0  0
   36.5670   24.6090   42.4590 F   0  0  0  0  0  0  0  0  0  0  0  0
  2  1  2  1  0  0  0
  2 30  1  0  0  0  0
  2 13  1  0  0  0  0
  3  2  1  0  0  0  0
  4  5  1  0  0  0  0
  5  6  2  0  0  0  0
  5 11  1  0  0  0  0
  6  3  1  0  0  0  0
  7  6  1  0  0  0  0
  8  7  2  0  0  0  0
  9  8  1  0  0  0  0
  9  4  2  0  0  0  0
 10  4  1  0  0  0  0
 12  8  1  0  0  0  0
 13 14  1  0  0  0  0
 14 15  2  0  0  0  0
 17 16  1  0  0  0  0
 18 17  1  0  0  0  0
 18 14  1  0  0  0  0
 19 18  2  0  0  0  0
 20 19  1  0  0  0  0
 20 26  1  0  0  0  0
 21 20  2  0  0  0  0
 22 21  1  0  0  0  0
 22 23  2  0  0  0  0
 23 25  1  0  0  0  0
 24 23  1  0  0  0  0
 25 26  2  0  0  0  0
 26 17  1  0  0  0  0
 27 21  1  0  0  0  0
 27 29  1  0  0  0  0
 28 27  1  0  0  0  0
 31 30  1  0  0  0  0
 31 34  1  0  0  0  0
 32 31  1  0  0  0  0
 33 31  1  0  0  0  0
M  END
>  <minimizedAffinity>
-5.25393772

$$$$
