
 OpenBabel03242523313D

 27 29  0  0  0  0  0  0  0  0999 V2000
   47.0710   28.7500   45.3810 H   0  0  0  0  0  0  0  0  0  0  0  0
   46.6390   29.6320   45.7400 N   0  0  0  0  0  0  0  0  0  0  0  0
   45.8080   29.6450   46.7950 C   0  0  0  0  0  0  0  0  0  0  0  0
   45.4410   30.9270   46.9850 N   0  0  0  0  0  0  0  0  0  0  0  0
   46.0350   31.6800   46.0660 C   0  0  0  0  0  0  0  0  0  0  0  0
   45.9920   33.0350   45.8260 C   0  0  0  0  0  0  0  0  0  0  0  0
   46.7090   33.5530   44.8010 N   0  0  0  0  0  0  0  0  0  0  0  0
   47.4600   32.7180   44.0270 C   0  0  0  0  0  0  0  0  0  0  0  0
   47.9830   33.2520   43.2450 H   0  0  0  0  0  0  0  0  0  0  0  0
   47.5090   31.3970   44.2510 N   0  0  0  0  0  0  0  0  0  0  0  0
   46.8070   30.8710   45.2570 C   0  0  0  0  0  0  0  0  0  0  0  0
   45.1870   33.8380   46.6790 N   0  0  0  0  0  0  0  0  0  0  0  0
   45.1350   33.6480   47.7210 H   0  0  0  0  0  0  0  0  0  0  0  0
   44.5520   34.6550   46.5920 H   0  0  0  0  0  0  0  0  0  0  0  0
   45.1960   28.3580   47.8530 S   0  0  0  0  0  0  0  0  0  0  0  0
   44.1920   27.1490   46.9460 C   0  0  0  0  0  0  0  0  0  0  0  0
   43.3000   26.8460   47.5180 H   0  0  0  0  0  0  0  0  0  0  0  0
   43.8500   27.5630   45.9520 H   0  0  0  0  0  0  0  0  0  0  0  0
   45.7460   23.7790   46.7490 C   0  0  0  0  0  0  0  0  0  0  0  0
   46.8180   24.0020   45.9030 C   0  0  0  0  0  0  0  0  0  0  0  0
   46.9880   25.2910   45.4200 C   0  0  0  0  0  0  0  0  0  0  0  0
   46.1270   26.2830   45.7730 N   0  0  0  0  0  0  0  0  0  0  0  0
   45.0880   26.0260   46.6040 C   0  0  0  0  0  0  0  0  0  0  0  0
   44.9160   24.7810   47.0760 N   0  0  0  0  0  0  0  0  0  0  0  0
   45.6630   22.7570   47.0930 H   0  0  0  0  0  0  0  0  0  0  0  0
   47.5690   23.3090   45.5470 H   0  0  0  0  0  0  0  0  0  0  0  0
   47.7870   25.6130   44.7470 H   0  0  0  0  0  0  0  0  0  0  0  0
  1  2  1  0  0  0  0
  2  3  1  0  0  0  0
  3  4  2  0  0  0  0
  3 15  1  0  0  0  0
  5  4  1  0  0  0  0
  6  5  1  0  0  0  0
  6 12  1  0  0  0  0
  7  6  2  0  0  0  0
  8 10  2  0  0  0  0
  8  7  1  0  0  0  0
  9  8  1  0  0  0  0
 10 11  1  0  0  0  0
 11  2  1  0  0  0  0
 11  5  2  0  0  0  0
 12 13  1  0  0  0  0
 14 12  1  0  0  0  0
 16 17  1  0  0  0  0
 16 15  1  0  0  0  0
 18 16  1  0  0  0  0
 19 24  1  0  0  0  0
 19 25  1  0  0  0  0
 20 19  2  0  0  0  0
 21 22  2  0  0  0  0
 21 20  1  0  0  0  0
 22 23  1  0  0  0  0
 23 16  1  0  0  0  0
 23 24  2  0  0  0  0
 26 20  1  0  0  0  0
 27 21  1  0  0  0  0
M  END
>  <minimizedAffinity>
-3.08665919

>  <minimizedRMSD>
7.40145302

$$$$
