
 OpenBabel03252502563D

 42 45  0  0  0  0  0  0  0  0999 V2000
   45.5930   29.9530   44.6930 Br  0  0  0  0  0  0  0  0  0  0  0  0
   45.6630   30.5500   46.5360 C   0  0  0  0  0  0  0  0  0  0  0  0
   46.3480   31.7040   46.7470 C   0  0  0  0  0  0  0  0  0  0  0  0
   46.3830   32.1120   48.0870 C   0  0  0  0  0  0  0  0  0  0  0  0
   45.7800   31.4130   49.1050 C   0  0  0  0  0  0  0  0  0  0  0  0
   45.1080   30.2570   48.8050 C   0  0  0  0  0  0  0  0  0  0  0  0
   45.0400   29.8040   47.5030 C   0  0  0  0  0  0  0  0  0  0  0  0
   46.8970   33.0120   48.3710 H   0  0  0  0  0  0  0  0  0  0  0  0
   45.8320   31.7640   50.1250 H   0  0  0  0  0  0  0  0  0  0  0  0
   44.6170   29.6650   49.5610 H   0  0  0  0  0  0  0  0  0  0  0  0
   47.0310   32.5410   45.7560 C   0  0  0  0  0  0  0  0  0  0  0  0
   47.9940   32.8740   46.1580 H   0  0  0  0  0  0  0  0  0  0  0  0
   47.2890   31.8600   44.8980 H   0  0  0  0  0  0  0  0  0  0  0  0
   44.5460   35.2970   45.4400 C   0  0  0  0  0  0  0  0  0  0  0  0
   44.7480   35.7230   44.1280 C   0  0  0  0  0  0  0  0  0  0  0  0
   45.7260   35.0660   43.3720 C   0  0  0  0  0  0  0  0  0  0  0  0
   46.4200   34.0620   43.9410 N   0  0  0  0  0  0  0  0  0  0  0  0
   46.2120   33.6550   45.2270 C   0  0  0  0  0  0  0  0  0  0  0  0
   45.2640   34.3000   45.9440 N   0  0  0  0  0  0  0  0  0  0  0  0
   43.7840   35.8140   46.0150 H   0  0  0  0  0  0  0  0  0  0  0  0
   44.1900   36.5290   43.6690 H   0  0  0  0  0  0  0  0  0  0  0  0
   45.9590   35.3140   42.3600 H   0  0  0  0  0  0  0  0  0  0  0  0
   44.3550   28.6280   47.2110 O   0  0  0  0  0  0  0  0  0  0  0  0
   43.8870   26.0740   47.1830 O   0  0  0  0  0  0  0  0  0  0  0  0
   44.7470   27.1200   47.8650 P   0  0  2  0  0  0  0  0  0  0  0  0
   44.4190   27.1770   49.5130 O   0  0  0  0  0  0  0  0  0  0  0  0
   45.2260   27.4640   49.9920 H   0  0  0  0  0  0  0  0  0  0  0  0
   46.3690   26.7270   47.5780 O   0  0  0  0  0  0  0  0  0  0  0  0
   48.9770   25.6350   47.3080 H   0  0  0  0  0  0  0  0  0  0  0  0
   48.3300   25.2880   48.0490 N   0  0  0  0  0  0  0  0  0  0  0  0
   47.0830   25.7620   48.2320 C   0  0  0  0  0  0  0  0  0  0  0  0
   46.5320   25.0960   49.2670 N   0  0  0  0  0  0  0  0  0  0  0  0
   47.4680   24.2180   49.7010 C   0  0  0  0  0  0  0  0  0  0  0  0
   47.3570   23.3070   50.7580 C   0  0  0  0  0  0  0  0  0  0  0  0
   48.4320   22.5320   51.0010 N   0  0  0  0  0  0  0  0  0  0  0  0
   49.5450   22.6550   50.2420 C   0  0  0  0  0  0  0  0  0  0  0  0
   50.3310   21.9770   50.5410 H   0  0  0  0  0  0  0  0  0  0  0  0
   49.6540   23.5390   49.2160 N   0  0  0  0  0  0  0  0  0  0  0  0
   48.6150   24.3240   48.9420 C   0  0  0  0  0  0  0  0  0  0  0  0
   46.1440   23.2380   51.5130 N   0  0  0  0  0  0  0  0  0  0  0  0
   45.4300   22.4680   51.5450 H   0  0  0  0  0  0  0  0  0  0  0  0
   45.8700   24.0300   52.1440 H   0  0  0  0  0  0  0  0  0  0  0  0
  1  2  1  0  0  0  0
  2  3  2  0  0  0  0
  2  7  1  0  0  0  0
  3  4  1  0  0  0  0
  4  8  1  0  0  0  0
  4  5  2  0  0  0  0
  5  9  1  0  0  0  0
  6  5  1  0  0  0  0
  6 10  1  0  0  0  0
  7  6  2  0  0  0  0
 11 12  1  0  0  0  0
 11  3  1  0  0  0  0
 13 11  1  0  0  0  0
 14 19  1  0  0  0  0
 14 20  1  0  0  0  0
 15 14  2  0  0  0  0
 16 17  2  0  0  0  0
 16 15  1  0  0  0  0
 17 18  1  0  0  0  0
 18 11  1  0  0  0  0
 18 19  2  0  0  0  0
 21 15  1  0  0  0  0
 22 16  1  0  0  0  0
 23  7  1  0  0  0  0
 23 25  1  0  0  0  0
 25 24  2  6  0  0  0
 25 26  1  0  0  0  0
 26 27  1  0  0  0  0
 28 25  1  0  0  0  0
 28 31  1  0  0  0  0
 29 30  1  0  0  0  0
 30 31  1  0  0  0  0
 30 39  1  0  0  0  0
 31 32  2  0  0  0  0
 32 33  1  0  0  0  0
 33 34  1  0  0  0  0
 34 35  2  0  0  0  0
 34 40  1  0  0  0  0
 36 37  1  0  0  0  0
 36 35  1  0  0  0  0
 38 36  2  0  0  0  0
 39 38  1  0  0  0  0
 39 33  2  0  0  0  0
 40 41  1  0  0  0  0
 40 42  1  0  0  0  0
M  END
>  <minimizedAffinity>
-6.11077881

>  <minimizedRMSD>
0.866651833

$$$$
