
 OpenBabel03252503593D

 39 43  0  0  0  0  0  0  0  0999 V2000
   46.6850   35.1470   42.8370 C   0  0  0  0  0  0  0  0  0  0  0  0
   45.7220   36.1640   42.8190 C   0  0  0  0  0  0  0  0  0  0  0  0
   44.7240   36.1290   43.7900 C   0  0  0  0  0  0  0  0  0  0  0  0
   44.7430   35.1210   44.6930 N   0  0  0  0  0  0  0  0  0  0  0  0
   45.6870   34.1610   44.6790 C   0  0  0  0  0  0  0  0  0  0  0  0
   46.6640   34.1640   43.7540 N   0  0  0  0  0  0  0  0  0  0  0  0
   45.7310   36.9620   42.0810 H   0  0  0  0  0  0  0  0  0  0  0  0
   43.9680   36.9100   43.7930 H   0  0  0  0  0  0  0  0  0  0  0  0
   45.9980   31.7930   45.2160 C   0  0  0  0  0  0  0  0  0  0  0  0
   45.6890   33.0730   45.6690 C   0  0  0  0  0  0  0  0  0  0  0  0
   45.4010   33.2720   46.9980 C   0  0  0  0  0  0  0  0  0  0  0  0
   45.4230   32.2030   47.8690 C   0  0  0  0  0  0  0  0  0  0  0  0
   45.1950   32.0790   49.1770 N   0  0  0  0  0  0  0  0  0  0  0  0
   45.3380   30.8150   49.5850 C   0  0  0  0  0  0  0  0  0  0  0  0
   45.6770   30.0560   48.5000 C   0  0  0  0  0  0  0  0  0  0  0  0
   45.7300   30.9260   47.4260 C   0  0  0  0  0  0  0  0  0  0  0  0
   46.0210   30.7220   46.0840 C   0  0  0  0  0  0  0  0  0  0  0  0
   46.2290   31.6140   44.1660 H   0  0  0  0  0  0  0  0  0  0  0  0
   45.1610   34.2710   47.3450 H   0  0  0  0  0  0  0  0  0  0  0  0
   44.9380   32.8830   49.7910 H   0  0  0  0  0  0  0  0  0  0  0  0
   45.2050   30.4630   50.6110 H   0  0  0  0  0  0  0  0  0  0  0  0
   45.8670   29.0120   48.4660 H   0  0  0  0  0  0  0  0  0  0  0  0
   46.2650   29.7460   45.6960 H   0  0  0  0  0  0  0  0  0  0  0  0
   47.6880   35.2410   41.8050 C   0  0  0  0  0  0  0  0  0  0  0  0
   48.7410   35.9600   41.8780 O   0  0  0  0  0  0  0  0  0  0  0  0
   45.6350   33.4810   40.8330 H   0  0  0  0  0  0  0  0  0  0  0  0
   46.4750   33.6810   40.2760 N   0  0  0  0  0  0  0  0  0  0  0  0
   47.5360   34.4690   40.5540 C   0  0  0  0  0  0  0  0  0  0  0  0
   48.3930   34.4190   39.5170 N   0  0  0  0  0  0  0  0  0  0  0  0
   47.9070   33.6120   38.5670 C   0  0  0  0  0  0  0  0  0  0  0  0
   48.2610   33.1440   37.3180 C   0  0  0  0  0  0  0  0  0  0  0  0
   47.5340   32.3060   36.5780 N   0  0  0  0  0  0  0  0  0  0  0  0
   46.3480   31.8670   37.0780 C   0  0  0  0  0  0  0  0  0  0  0  0
   45.6520   31.1910   36.6030 H   0  0  0  0  0  0  0  0  0  0  0  0
   45.9750   32.3040   38.2940 N   0  0  0  0  0  0  0  0  0  0  0  0
   46.6960   33.1460   39.0470 C   0  0  0  0  0  0  0  0  0  0  0  0
   49.5000   33.5990   36.7860 N   0  0  0  0  0  0  0  0  0  0  0  0
   49.4350   34.6150   36.4810 H   0  0  0  0  0  0  0  0  0  0  0  0
   50.4970   33.4350   36.5270 H   0  0  0  0  0  0  0  0  0  0  0  0
  1  6  1  0  0  0  0
  2  1  2  0  0  0  0
  2  3  1  0  0  0  0
  3  8  1  0  0  0  0
  3  4  2  0  0  0  0
  5  4  1  0  0  0  0
  5 10  1  0  0  0  0
  6  5  2  0  0  0  0
  7  2  1  0  0  0  0
  9 10  2  0  0  0  0
  9 17  1  0  0  0  0
 10 11  1  0  0  0  0
 11 19  1  0  0  0  0
 11 12  2  0  0  0  0
 12 13  1  0  0  0  0
 13 14  1  0  0  0  0
 13 20  1  0  0  0  0
 14 21  1  0  0  0  0
 15 14  2  0  0  0  0
 16 12  1  0  0  0  0
 16 15  1  0  0  0  0
 17 16  2  0  0  0  0
 18  9  1  0  0  0  0
 22 15  1  0  0  0  0
 23 17  1  0  0  0  0
 24 25  2  0  0  0  0
 24  1  1  0  0  0  0
 27 28  1  0  0  0  0
 27 26  1  0  0  0  0
 28 24  1  0  0  0  0
 29 28  2  0  0  0  0
 30 36  1  0  0  0  0
 30 29  1  0  0  0  0
 31 30  2  0  0  0  0
 32 33  2  0  0  0  0
 32 31  1  0  0  0  0
 33 35  1  0  0  0  0
 34 33  1  0  0  0  0
 35 36  2  0  0  0  0
 36 27  1  0  0  0  0
 37 31  1  0  0  0  0
 38 37  1  0  0  0  0
 39 37  1  0  0  0  0
M  END
>  <minimizedAffinity>
-6.85526466

>  <minimizedRMSD>
0.962997496

$$$$
