
 OpenBabel03252502563D

 42 45  0  0  0  0  0  0  0  0999 V2000
   45.6360   30.0300   44.6480 Br  0  0  0  0  0  0  0  0  0  0  0  0
   45.6880   30.6090   46.4970 C   0  0  0  0  0  0  0  0  0  0  0  0
   46.3670   31.7640   46.7250 C   0  0  0  0  0  0  0  0  0  0  0  0
   46.3880   32.1580   48.0690 C   0  0  0  0  0  0  0  0  0  0  0  0
   45.7790   31.4480   49.0740 C   0  0  0  0  0  0  0  0  0  0  0  0
   45.1140   30.2920   48.7580 C   0  0  0  0  0  0  0  0  0  0  0  0
   45.0580   29.8520   47.4510 C   0  0  0  0  0  0  0  0  0  0  0  0
   46.8970   33.0580   48.3660 H   0  0  0  0  0  0  0  0  0  0  0  0
   45.8200   31.7890   50.0990 H   0  0  0  0  0  0  0  0  0  0  0  0
   44.6170   29.6910   49.5030 H   0  0  0  0  0  0  0  0  0  0  0  0
   47.0560   32.6120   45.7490 C   0  0  0  0  0  0  0  0  0  0  0  0
   48.0020   32.9670   46.1720 H   0  0  0  0  0  0  0  0  0  0  0  0
   47.3490   31.9350   44.8990 H   0  0  0  0  0  0  0  0  0  0  0  0
   44.5380   35.3300   45.3710 C   0  0  0  0  0  0  0  0  0  0  0  0
   44.7450   35.7390   44.0550 C   0  0  0  0  0  0  0  0  0  0  0  0
   45.7370   35.0830   43.3160 C   0  0  0  0  0  0  0  0  0  0  0  0
   46.4400   34.0980   43.9060 N   0  0  0  0  0  0  0  0  0  0  0  0
   46.2260   33.7070   45.1960 C   0  0  0  0  0  0  0  0  0  0  0  0
   45.2650   34.3500   45.8960 N   0  0  0  0  0  0  0  0  0  0  0  0
   43.7650   35.8460   45.9330 H   0  0  0  0  0  0  0  0  0  0  0  0
   44.1800   36.5310   43.5790 H   0  0  0  0  0  0  0  0  0  0  0  0
   45.9750   35.3190   42.3020 H   0  0  0  0  0  0  0  0  0  0  0  0
   44.3810   28.6760   47.1420 O   0  0  0  0  0  0  0  0  0  0  0  0
   44.0640   26.1070   46.9340 O   0  0  0  0  0  0  0  0  0  0  0  0
   44.8070   27.1550   47.7400 P   0  0  2  0  0  0  0  0  0  0  0  0
   44.3500   27.0950   49.3570 O   0  0  0  0  0  0  0  0  0  0  0  0
   45.1000   27.3950   49.9150 H   0  0  0  0  0  0  0  0  0  0  0  0
   46.4670   26.8660   47.5640 O   0  0  0  0  0  0  0  0  0  0  0  0
   49.2400   26.4560   48.0140 H   0  0  0  0  0  0  0  0  0  0  0  0
   48.5320   25.8390   48.4680 N   0  0  0  0  0  0  0  0  0  0  0  0
   47.2040   25.9790   48.2970 C   0  0  0  0  0  0  0  0  0  0  0  0
   46.5880   25.0240   49.0220 N   0  0  0  0  0  0  0  0  0  0  0  0
   47.5660   24.3110   49.6290 C   0  0  0  0  0  0  0  0  0  0  0  0
   47.4170   23.2160   50.4870 C   0  0  0  0  0  0  0  0  0  0  0  0
   48.5500   22.6690   50.9700 N   0  0  0  0  0  0  0  0  0  0  0  0
   49.7530   23.1780   50.6230 C   0  0  0  0  0  0  0  0  0  0  0  0
   50.5780   22.6500   51.0780 H   0  0  0  0  0  0  0  0  0  0  0  0
   49.9010   24.2410   49.7910 N   0  0  0  0  0  0  0  0  0  0  0  0
   48.8070   24.8120   49.2910 C   0  0  0  0  0  0  0  0  0  0  0  0
   46.1080   22.7350   50.8060 N   0  0  0  0  0  0  0  0  0  0  0  0
   45.6480   21.8340   50.5220 H   0  0  0  0  0  0  0  0  0  0  0  0
   45.4640   23.3130   51.4010 H   0  0  0  0  0  0  0  0  0  0  0  0
  1  2  1  0  0  0  0
  2  3  2  0  0  0  0
  2  7  1  0  0  0  0
  3  4  1  0  0  0  0
  4  8  1  0  0  0  0
  4  5  2  0  0  0  0
  5  9  1  0  0  0  0
  6  5  1  0  0  0  0
  6 10  1  0  0  0  0
  7  6  2  0  0  0  0
 11 12  1  0  0  0  0
 11  3  1  0  0  0  0
 13 11  1  0  0  0  0
 14 19  1  0  0  0  0
 14 20  1  0  0  0  0
 15 14  2  0  0  0  0
 16 17  2  0  0  0  0
 16 15  1  0  0  0  0
 17 18  1  0  0  0  0
 18 11  1  0  0  0  0
 18 19  2  0  0  0  0
 21 15  1  0  0  0  0
 22 16  1  0  0  0  0
 23  7  1  0  0  0  0
 23 25  1  0  0  0  0
 25 24  2  6  0  0  0
 25 26  1  0  0  0  0
 26 27  1  0  0  0  0
 28 25  1  0  0  0  0
 28 31  1  0  0  0  0
 29 30  1  0  0  0  0
 30 39  1  0  0  0  0
 31 30  1  0  0  0  0
 31 32  2  0  0  0  0
 32 33  1  0  0  0  0
 33 34  1  0  0  0  0
 34 40  1  0  0  0  0
 34 35  2  0  0  0  0
 36 35  1  0  0  0  0
 36 37  1  0  0  0  0
 38 36  2  0  0  0  0
 39 33  2  0  0  0  0
 39 38  1  0  0  0  0
 40 42  1  0  0  0  0
 41 40  1  0  0  0  0
M  END
>  <minimizedAffinity>
-6.12466669

>  <minimizedRMSD>
0.383636445

$$$$
