
 OpenBabel03252503593D

 39 43  0  0  0  0  0  0  0  0999 V2000
   47.0070   35.0440   42.5920 C   0  0  0  0  0  0  0  0  0  0  0  0
   45.9580   35.9500   42.3890 C   0  0  0  0  0  0  0  0  0  0  0  0
   44.8550   35.8650   43.2340 C   0  0  0  0  0  0  0  0  0  0  0  0
   44.8590   34.9170   44.2000 N   0  0  0  0  0  0  0  0  0  0  0  0
   45.8870   34.0630   44.3650 C   0  0  0  0  0  0  0  0  0  0  0  0
   46.9670   34.1180   43.5660 N   0  0  0  0  0  0  0  0  0  0  0  0
   45.9820   36.7010   41.6040 H   0  0  0  0  0  0  0  0  0  0  0  0
   44.0310   36.5590   43.0920 H   0  0  0  0  0  0  0  0  0  0  0  0
   46.2010   31.7360   45.0570 C   0  0  0  0  0  0  0  0  0  0  0  0
   45.8710   33.0390   45.4210 C   0  0  0  0  0  0  0  0  0  0  0  0
   45.5480   33.3180   46.7280 C   0  0  0  0  0  0  0  0  0  0  0  0
   45.5540   32.3060   47.6640 C   0  0  0  0  0  0  0  0  0  0  0  0
   45.2940   32.2610   48.9710 N   0  0  0  0  0  0  0  0  0  0  0  0
   45.4350   31.0270   49.4610 C   0  0  0  0  0  0  0  0  0  0  0  0
   45.8080   30.2050   48.4350 C   0  0  0  0  0  0  0  0  0  0  0  0
   45.8820   31.0060   47.3100 C   0  0  0  0  0  0  0  0  0  0  0  0
   46.2090   30.7220   45.9910 C   0  0  0  0  0  0  0  0  0  0  0  0
   46.4610   31.4940   44.0270 H   0  0  0  0  0  0  0  0  0  0  0  0
   45.2910   34.3340   47.0050 H   0  0  0  0  0  0  0  0  0  0  0  0
   45.0150   33.1000   49.5270 H   0  0  0  0  0  0  0  0  0  0  0  0
   45.2780   30.7390   50.5040 H   0  0  0  0  0  0  0  0  0  0  0  0
   46.0050   29.1620   48.4710 H   0  0  0  0  0  0  0  0  0  0  0  0
   46.4700   29.7250   45.6720 H   0  0  0  0  0  0  0  0  0  0  0  0
   48.1180   35.1850   41.6840 C   0  0  0  0  0  0  0  0  0  0  0  0
   49.0050   36.1010   41.7570 O   0  0  0  0  0  0  0  0  0  0  0  0
   48.9400   32.4330   41.5850 H   0  0  0  0  0  0  0  0  0  0  0  0
   48.6940   32.9480   40.7310 N   0  0  0  0  0  0  0  0  0  0  0  0
   48.2900   34.2280   40.5710 C   0  0  0  0  0  0  0  0  0  0  0  0
   48.0840   34.4530   39.2610 N   0  0  0  0  0  0  0  0  0  0  0  0
   48.3460   33.3430   38.5630 C   0  0  0  0  0  0  0  0  0  0  0  0
   48.3380   32.9100   37.2520 C   0  0  0  0  0  0  0  0  0  0  0  0
   48.6660   31.6840   36.8460 N   0  0  0  0  0  0  0  0  0  0  0  0
   49.0410   30.7730   37.7840 C   0  0  0  0  0  0  0  0  0  0  0  0
   49.3330   29.7480   37.6140 H   0  0  0  0  0  0  0  0  0  0  0  0
   49.0600   31.1630   39.0710 N   0  0  0  0  0  0  0  0  0  0  0  0
   48.7320   32.3920   39.4920 C   0  0  0  0  0  0  0  0  0  0  0  0
   47.9470   33.8570   36.2640 N   0  0  0  0  0  0  0  0  0  0  0  0
   46.8990   34.0360   36.3000 H   0  0  0  0  0  0  0  0  0  0  0  0
   48.1760   34.5000   35.4760 H   0  0  0  0  0  0  0  0  0  0  0  0
  1  6  1  0  0  0  0
  2  1  2  0  0  0  0
  2  3  1  0  0  0  0
  3  4  2  0  0  0  0
  4  5  1  0  0  0  0
  5 10  1  0  0  0  0
  6  5  2  0  0  0  0
  7  2  1  0  0  0  0
  8  3  1  0  0  0  0
  9 10  2  0  0  0  0
  9 17  1  0  0  0  0
 10 11  1  0  0  0  0
 11 19  1  0  0  0  0
 11 12  2  0  0  0  0
 12 13  1  0  0  0  0
 13 14  1  0  0  0  0
 13 20  1  0  0  0  0
 14 21  1  0  0  0  0
 15 22  1  0  0  0  0
 15 14  2  0  0  0  0
 16 12  1  0  0  0  0
 16 15  1  0  0  0  0
 17 16  2  0  0  0  0
 18  9  1  0  0  0  0
 23 17  1  0  0  0  0
 24 25  2  0  0  0  0
 24  1  1  0  0  0  0
 27 26  1  0  0  0  0
 28 27  1  0  0  0  0
 28 24  1  0  0  0  0
 29 28  2  0  0  0  0
 30 29  1  0  0  0  0
 30 36  1  0  0  0  0
 31 30  2  0  0  0  0
 32 31  1  0  0  0  0
 32 33  2  0  0  0  0
 33 35  1  0  0  0  0
 34 33  1  0  0  0  0
 35 36  2  0  0  0  0
 36 27  1  0  0  0  0
 37 38  1  0  0  0  0
 37 31  1  0  0  0  0
 39 37  1  0  0  0  0
M  END
>  <minimizedAffinity>
-6.81651497

>  <minimizedRMSD>
0.556664705

$$$$
