
 OpenBabel03252506243D

 50 55  0  0  0  0  0  0  0  0999 V2000
   45.6190   27.8660   47.9300 C   0  0  0  0  0  0  0  0  0  0  0  0
   45.3260   29.2120   47.8390 C   0  0  0  0  0  0  0  0  0  0  0  0
   44.3690   29.5720   46.8850 C   0  0  0  0  0  0  0  0  0  0  0  0
   43.7540   28.6370   46.0840 C   0  0  0  0  0  0  0  0  0  0  0  0
   42.8210   28.6840   45.1060 N   0  0  0  0  0  0  0  0  0  0  0  0
   42.5620   27.4590   44.6340 C   0  0  0  0  0  0  0  0  0  0  0  0
   43.3410   26.5430   45.3080 C   0  0  0  0  0  0  0  0  0  0  0  0
   44.0570   27.3060   46.1890 C   0  0  0  0  0  0  0  0  0  0  0  0
   45.0040   26.9460   47.1300 C   0  0  0  0  0  0  0  0  0  0  0  0
   46.3710   27.6530   48.6900 H   0  0  0  0  0  0  0  0  0  0  0  0
   44.0360   30.5840   46.6980 H   0  0  0  0  0  0  0  0  0  0  0  0
   42.3540   29.5480   44.7530 H   0  0  0  0  0  0  0  0  0  0  0  0
   41.8500   27.2050   43.8410 H   0  0  0  0  0  0  0  0  0  0  0  0
   43.3260   25.4790   45.1200 H   0  0  0  0  0  0  0  0  0  0  0  0
   45.3630   25.5790   47.2880 N   0  0  0  0  0  0  0  0  0  0  0  0
   44.9150   24.8470   48.3140 C   0  0  0  0  0  0  0  0  0  0  0  0
   44.2680   25.0380   49.1690 H   0  0  0  0  0  0  0  0  0  0  0  0
   45.4010   23.5940   48.2280 N   0  0  0  0  0  0  0  0  0  0  0  0
   46.1740   23.5250   47.1290 C   0  0  0  0  0  0  0  0  0  0  0  0
   46.9380   22.5390   46.4990 C   0  0  0  0  0  0  0  0  0  0  0  0
   47.6130   22.8250   45.3640 N   0  0  0  0  0  0  0  0  0  0  0  0
   47.5640   24.0680   44.8120 C   0  0  0  0  0  0  0  0  0  0  0  0
   48.1380   24.1850   43.9090 H   0  0  0  0  0  0  0  0  0  0  0  0
   46.8250   25.0520   45.4040 N   0  0  0  0  0  0  0  0  0  0  0  0
   46.1480   24.7890   46.5310 C   0  0  0  0  0  0  0  0  0  0  0  0
   46.9110   21.2980   47.1630 N   0  0  0  0  0  0  0  0  0  0  0  0
   47.6620   21.3980   47.9080 H   0  0  0  0  0  0  0  0  0  0  0  0
   46.1510   20.8130   46.6220 H   0  0  0  0  0  0  0  0  0  0  0  0
   45.8540   30.3470   48.5810 C   0  0  0  0  0  0  0  0  0  0  0  0
   45.1150   31.1680   48.6560 H   0  0  0  0  0  0  0  0  0  0  0  0
   45.9820   29.9990   49.6460 H   0  0  0  0  0  0  0  0  0  0  0  0
   47.1660   30.8850   48.1580 C   0  0  0  0  0  0  0  0  0  0  0  0
   47.9680   30.1550   48.1640 H   0  0  0  0  0  0  0  0  0  0  0  0
   47.4400   31.6990   48.8680 H   0  0  0  0  0  0  0  0  0  0  0  0
   46.4910   32.9730   45.3340 C   0  0  0  0  0  0  0  0  0  0  0  0
   47.2250   31.9140   44.7430 C   0  0  0  0  0  0  0  0  0  0  0  0
   47.5600   31.0220   45.7090 C   0  0  0  0  0  0  0  0  0  0  0  0
   47.0530   31.5120   46.8470 N   0  0  0  0  0  0  0  0  0  0  0  0
   46.4190   32.6690   46.6250 N   0  0  0  0  0  0  0  0  0  0  0  0
   47.4710   31.8450   43.6860 H   0  0  0  0  0  0  0  0  0  0  0  0
   48.1140   30.0940   45.6510 H   0  0  0  0  0  0  0  0  0  0  0  0
   44.5080   35.9160   44.4980 C   0  0  0  0  0  0  0  0  0  0  0  0
   44.9680   36.2640   43.2390 C   0  0  0  0  0  0  0  0  0  0  0  0
   45.9790   35.4710   42.6660 C   0  0  0  0  0  0  0  0  0  0  0  0
   46.4320   34.4240   43.3870 N   0  0  0  0  0  0  0  0  0  0  0  0
   45.9690   34.1060   44.6090 C   0  0  0  0  0  0  0  0  0  0  0  0
   45.0010   34.8590   45.1650 N   0  0  0  0  0  0  0  0  0  0  0  0
   43.7380   36.5590   44.8780 H   0  0  0  0  0  0  0  0  0  0  0  0
   44.6510   37.0730   42.6270 H   0  0  0  0  0  0  0  0  0  0  0  0
   46.4080   35.6490   41.6970 H   0  0  0  0  0  0  0  0  0  0  0  0
  1 10  1  0  0  0  0
  2  1  1  0  0  0  0
  2 29  1  0  0  0  0
  3  2  2  0  0  0  0
  4  8  2  0  0  0  0
  4  3  1  0  0  0  0
  5  4  1  0  0  0  0
  6  5  1  0  0  0  0
  6  7  2  0  0  0  0
  7  8  1  0  0  0  0
  8  9  1  0  0  0  0
  9 15  1  0  0  0  0
  9  1  2  0  0  0  0
 11  3  1  0  0  0  0
 12  5  1  0  0  0  0
 13  6  1  0  0  0  0
 14  7  1  0  0  0  0
 15 16  1  0  0  0  0
 16 17  1  0  0  0  0
 18 16  2  0  0  0  0
 19 18  1  0  0  0  0
 20 19  2  0  0  0  0
 20 26  1  0  0  0  0
 21 20  1  0  0  0  0
 22 21  2  0  0  0  0
 22 24  1  0  0  0  0
 23 22  1  0  0  0  0
 24 25  2  0  0  0  0
 25 19  1  0  0  0  0
 25 15  1  0  0  0  0
 26 27  1  0  0  0  0
 28 26  1  0  0  0  0
 29 30  1  0  0  0  0
 29 31  1  0  0  0  0
 32 33  1  0  0  0  0
 32 29  1  0  0  0  0
 32 34  1  0  0  0  0
 35 39  2  0  0  0  0
 36 35  1  0  0  0  0
 36 37  2  0  0  0  0
 37 38  1  0  0  0  0
 38 32  1  0  0  0  0
 39 38  1  0  0  0  0
 40 36  1  0  0  0  0
 41 37  1  0  0  0  0
 42 48  1  0  0  0  0
 42 47  1  0  0  0  0
 43 42  2  0  0  0  0
 44 43  1  0  0  0  0
 44 45  2  0  0  0  0
 45 46  1  0  0  0  0
 46 47  2  0  0  0  0
 46 35  1  0  0  0  0
 49 43  1  0  0  0  0
 50 44  1  0  0  0  0
M  END
>  <minimizedAffinity>
-5.57573366

>  <minimizedRMSD>
1.39193964

$$$$
