
 OpenBabel03252500283D

 48 51  0  0  1  0  0  0  0  0999 V2000
   47.0770   33.2190   46.5320 O   0  0  0  0  0  0  0  0  0  0  0  0
   45.6140   32.9600   46.4610 P   0  0  1  0  0  0  0  0  0  0  0  0
   45.3090   31.8130   45.2540 O   0  0  0  0  0  0  0  0  0  0  0  0
   45.8020   32.0920   44.4560 H   0  0  0  0  0  0  0  0  0  0  0  0
   45.1540   32.3610   47.9290 O   0  0  0  0  0  0  0  0  0  0  0  0
   47.0870   30.9610   48.0120 C   0  0  2  0  0  0  0  0  0  0  0  0
   45.6110   31.0780   48.0850 C   0  0  2  0  0  0  0  0  0  0  0  0
   45.0820   30.1570   47.1020 C   0  0  0  0  0  0  0  0  0  0  0  0
   46.0470   29.1750   46.8400 O   0  0  0  0  0  0  0  0  0  0  0  0
   47.0670   29.4150   47.6940 C   0  0  0  0  0  0  0  0  0  0  0  0
   47.5880   31.2350   47.0680 H   0  0  0  0  0  0  0  0  0  0  0  0
   45.4000   30.8620   49.1720 H   0  0  0  0  0  0  0  0  0  0  0  0
   44.3810   29.4930   47.7250 H   0  0  0  0  0  0  0  0  0  0  0  0
   44.3820   30.3950   46.3310 H   0  0  0  0  0  0  0  0  0  0  0  0
   46.8780   28.9630   48.7110 H   0  0  0  0  0  0  0  0  0  0  0  0
   48.0560   29.0700   47.4030 H   0  0  0  0  0  0  0  0  0  0  0  0
   47.7760   31.1320   49.1520 O   0  0  0  0  0  0  0  0  0  0  0  0
   49.0490   31.3800   49.2510 C   0  0  0  0  0  0  0  0  0  0  0  0
   49.5010   32.3400   49.2080 H   0  0  0  0  0  0  0  0  0  0  0  0
   49.5000   30.8610   48.2370 H   0  0  0  0  0  0  0  0  0  0  0  0
   49.6610   30.4200   50.2570 C   0  0  0  0  0  0  0  0  0  0  0  0
   49.3900   30.6890   51.2950 H   0  0  0  0  0  0  0  0  0  0  0  0
   49.3090   29.4080   49.9710 H   0  0  0  0  0  0  0  0  0  0  0  0
   50.7710   30.5010   50.1150 H   0  0  0  0  0  0  0  0  0  0  0  0
   44.8910   34.4640   46.1030 O   0  0  0  0  0  0  0  0  0  0  0  0
   45.3390   36.6830   43.3210 C   0  0  0  0  0  0  0  0  0  0  0  0
   44.7060   36.0200   42.2430 C   0  0  0  0  0  0  0  0  0  0  0  0
   44.1220   34.7690   42.5380 C   0  0  0  0  0  0  0  0  0  0  0  0
   44.1960   34.2900   43.7970 N   0  0  0  0  0  0  0  0  0  0  0  0
   44.8080   34.9570   44.7880 C   0  0  0  0  0  0  0  0  0  0  0  0
   45.3750   36.1470   44.5470 N   0  0  0  0  0  0  0  0  0  0  0  0
   44.6540   36.4160   41.2430 H   0  0  0  0  0  0  0  0  0  0  0  0
   43.6220   34.2060   41.7720 H   0  0  0  0  0  0  0  0  0  0  0  0
   45.9170   37.8930   43.0750 O   0  0  0  0  0  0  0  0  0  0  0  0
   45.5600   40.5770   42.1860 H   0  0  0  0  0  0  0  0  0  0  0  0
   45.3780   40.3450   43.1850 N   0  0  0  0  0  0  0  0  0  0  0  0
   45.5410   39.0850   43.6250 C   0  0  0  0  0  0  0  0  0  0  0  0
   45.2340   39.0950   44.9430 N   0  0  0  0  0  0  0  0  0  0  0  0
   44.8930   40.3600   45.2720 C   0  0  0  0  0  0  0  0  0  0  0  0
   44.4900   40.9760   46.4540 C   0  0  0  0  0  0  0  0  0  0  0  0
   44.1990   42.2870   46.5260 N   0  0  0  0  0  0  0  0  0  0  0  0
   44.2980   43.0470   45.4040 C   0  0  0  0  0  0  0  0  0  0  0  0
   44.0910   44.1090   45.3380 H   0  0  0  0  0  0  0  0  0  0  0  0
   44.6900   42.4800   44.2260 N   0  0  0  0  0  0  0  0  0  0  0  0
   44.9780   41.1760   44.1640 C   0  0  0  0  0  0  0  0  0  0  0  0
   44.3790   40.1920   47.6470 N   0  0  0  0  0  0  0  0  0  0  0  0
   43.7810   39.4600   48.0870 H   0  0  0  0  0  0  0  0  0  0  0  0
   45.1880   40.4740   48.2610 H   0  0  0  0  0  0  0  0  0  0  0  0
  2  1  2  1  0  0  0
  2  5  1  0  0  0  0
  3  2  1  0  0  0  0
  4  3  1  0  0  0  0
  5  7  1  0  0  0  0
  6 11  1  6  0  0  0
  6  7  1  0  0  0  0
  6 17  1  0  0  0  0
  7 12  1  1  0  0  0
  8 13  1  0  0  0  0
  8  7  1  0  0  0  0
  9  8  1  0  0  0  0
  9 10  1  0  0  0  0
 10  6  1  0  0  0  0
 10 15  1  0  0  0  0
 14  8  1  0  0  0  0
 16 10  1  0  0  0  0
 17 18  1  0  0  0  0
 18 21  1  0  0  0  0
 19 18  1  0  0  0  0
 20 18  1  0  0  0  0
 21 22  1  0  0  0  0
 23 21  1  0  0  0  0
 24 21  1  0  0  0  0
 25  2  1  0  0  0  0
 26 31  1  0  0  0  0
 27 28  1  0  0  0  0
 27 26  2  0  0  0  0
 28 29  2  0  0  0  0
 29 30  1  0  0  0  0
 30 25  1  0  0  0  0
 31 30  2  0  0  0  0
 32 27  1  0  0  0  0
 33 28  1  0  0  0  0
 34 26  1  0  0  0  0
 34 37  1  0  0  0  0
 35 36  1  0  0  0  0
 36 37  1  0  0  0  0
 36 45  1  0  0  0  0
 37 38  2  0  0  0  0
 38 39  1  0  0  0  0
 39 40  1  0  0  0  0
 40 41  2  0  0  0  0
 40 46  1  0  0  0  0
 42 41  1  0  0  0  0
 43 42  1  0  0  0  0
 44 42  2  0  0  0  0
 45 44  1  0  0  0  0
 45 39  2  0  0  0  0
 46 47  1  0  0  0  0
 46 48  1  0  0  0  0
M  END
>  <minimizedAffinity>
-3.20134854

>  <minimizedRMSD>
1.13526356

$$$$
