
 OpenBabel03252500273D

 48 51  0  0  1  0  0  0  0  0999 V2000
   47.1280   33.0880   46.7290 O   0  0  0  0  0  0  0  0  0  0  0  0
   45.6810   32.7630   46.6220 P   0  0  1  0  0  0  0  0  0  0  0  0
   45.4670   31.5460   45.4640 O   0  0  0  0  0  0  0  0  0  0  0  0
   45.9770   31.8080   44.6700 H   0  0  0  0  0  0  0  0  0  0  0  0
   45.1940   32.2170   48.1020 O   0  0  0  0  0  0  0  0  0  0  0  0
   47.0420   30.7040   48.1290 C   0  0  2  0  0  0  0  0  0  0  0  0
   45.5830   30.9130   48.2800 C   0  0  2  0  0  0  0  0  0  0  0  0
   44.9420   29.9940   47.3640 C   0  0  0  0  0  0  0  0  0  0  0  0
   45.8300   28.9460   47.0860 O   0  0  0  0  0  0  0  0  0  0  0  0
   46.9110   29.1510   47.8710 C   0  0  0  0  0  0  0  0  0  0  0  0
   47.5020   30.9130   47.1480 H   0  0  0  0  0  0  0  0  0  0  0  0
   45.4230   30.7490   49.3850 H   0  0  0  0  0  0  0  0  0  0  0  0
   44.2410   29.3960   48.0510 H   0  0  0  0  0  0  0  0  0  0  0  0
   44.2140   30.2480   46.6260 H   0  0  0  0  0  0  0  0  0  0  0  0
   46.7560   28.7470   48.9140 H   0  0  0  0  0  0  0  0  0  0  0  0
   47.8590   28.7370   47.5370 H   0  0  0  0  0  0  0  0  0  0  0  0
   47.8050   30.8710   49.2210 O   0  0  0  0  0  0  0  0  0  0  0  0
   49.0120   31.3560   49.2470 C   0  0  0  0  0  0  0  0  0  0  0  0
   49.2750   32.3760   49.1150 H   0  0  0  0  0  0  0  0  0  0  0  0
   49.5250   30.8500   48.2570 H   0  0  0  0  0  0  0  0  0  0  0  0
   49.8200   30.6090   50.2960 C   0  0  0  0  0  0  0  0  0  0  0  0
   49.5320   30.9070   51.3210 H   0  0  0  0  0  0  0  0  0  0  0  0
   49.6550   29.5300   50.0990 H   0  0  0  0  0  0  0  0  0  0  0  0
   50.8910   30.8810   50.1020 H   0  0  0  0  0  0  0  0  0  0  0  0
   44.9080   34.2150   46.1650 O   0  0  0  0  0  0  0  0  0  0  0  0
   45.2130   36.5850   43.4900 C   0  0  0  0  0  0  0  0  0  0  0  0
   45.1180   35.7980   42.3180 C   0  0  0  0  0  0  0  0  0  0  0  0
   44.9450   34.4110   42.5110 C   0  0  0  0  0  0  0  0  0  0  0  0
   44.8810   33.9260   43.7680 N   0  0  0  0  0  0  0  0  0  0  0  0
   44.9750   34.7130   44.8510 C   0  0  0  0  0  0  0  0  0  0  0  0
   45.1400   36.0350   44.7080 N   0  0  0  0  0  0  0  0  0  0  0  0
   45.1710   36.2000   41.3200 H   0  0  0  0  0  0  0  0  0  0  0  0
   44.8650   33.7480   41.6700 H   0  0  0  0  0  0  0  0  0  0  0  0
   45.3820   37.9300   43.3450 O   0  0  0  0  0  0  0  0  0  0  0  0
   45.1610   37.9840   46.1860 H   0  0  0  0  0  0  0  0  0  0  0  0
   45.0730   38.8740   45.6540 N   0  0  0  0  0  0  0  0  0  0  0  0
   45.1750   38.8710   44.3130 C   0  0  0  0  0  0  0  0  0  0  0  0
   45.0210   40.1540   43.9120 N   0  0  0  0  0  0  0  0  0  0  0  0
   44.8300   40.9060   45.0170 C   0  0  0  0  0  0  0  0  0  0  0  0
   44.6190   42.2640   45.2390 C   0  0  0  0  0  0  0  0  0  0  0  0
   44.4530   42.7810   46.4670 N   0  0  0  0  0  0  0  0  0  0  0  0
   44.4900   41.9530   47.5430 C   0  0  0  0  0  0  0  0  0  0  0  0
   44.3700   42.2520   48.5790 H   0  0  0  0  0  0  0  0  0  0  0  0
   44.6940   40.6160   47.3690 N   0  0  0  0  0  0  0  0  0  0  0  0
   44.8590   40.1090   46.1430 C   0  0  0  0  0  0  0  0  0  0  0  0
   44.5770   43.1540   44.1170 N   0  0  0  0  0  0  0  0  0  0  0  0
   45.1960   43.5950   43.4030 H   0  0  0  0  0  0  0  0  0  0  0  0
   43.5670   43.4390   44.0070 H   0  0  0  0  0  0  0  0  0  0  0  0
  2  1  2  1  0  0  0
  2  5  1  0  0  0  0
  3  2  1  0  0  0  0
  4  3  1  0  0  0  0
  5  7  1  0  0  0  0
  6 11  1  6  0  0  0
  6  7  1  0  0  0  0
  6 17  1  0  0  0  0
  7 12  1  1  0  0  0
  8 13  1  0  0  0  0
  8  7  1  0  0  0  0
  9  8  1  0  0  0  0
  9 10  1  0  0  0  0
 10  6  1  0  0  0  0
 10 15  1  0  0  0  0
 14  8  1  0  0  0  0
 16 10  1  0  0  0  0
 17 18  1  0  0  0  0
 18 21  1  0  0  0  0
 19 18  1  0  0  0  0
 20 18  1  0  0  0  0
 21 22  1  0  0  0  0
 23 21  1  0  0  0  0
 24 21  1  0  0  0  0
 25  2  1  0  0  0  0
 26 31  1  0  0  0  0
 27 28  1  0  0  0  0
 27 26  2  0  0  0  0
 28 29  2  0  0  0  0
 29 30  1  0  0  0  0
 30 25  1  0  0  0  0
 31 30  2  0  0  0  0
 32 27  1  0  0  0  0
 33 28  1  0  0  0  0
 34 26  1  0  0  0  0
 34 37  1  0  0  0  0
 36 45  1  0  0  0  0
 36 35  1  0  0  0  0
 37 36  1  0  0  0  0
 38 37  2  0  0  0  0
 38 39  1  0  0  0  0
 39 40  2  0  0  0  0
 39 45  1  0  0  0  0
 40 41  1  0  0  0  0
 41 42  2  0  0  0  0
 42 43  1  0  0  0  0
 44 42  1  0  0  0  0
 45 44  2  0  0  0  0
 46 40  1  0  0  0  0
 47 46  1  0  0  0  0
 48 46  1  0  0  0  0
M  END
>  <minimizedAffinity>
-4.21872091

>  <minimizedRMSD>
0.80725497

$$$$
