
 OpenBabel03252503593D

 39 43  0  0  0  0  0  0  0  0999 V2000
   47.0060   34.9520   42.6610 C   0  0  0  0  0  0  0  0  0  0  0  0
   46.0170   35.9310   42.5000 C   0  0  0  0  0  0  0  0  0  0  0  0
   44.9360   35.9110   43.3780 C   0  0  0  0  0  0  0  0  0  0  0  0
   44.9040   34.9520   44.3330 N   0  0  0  0  0  0  0  0  0  0  0  0
   45.8750   34.0270   44.4560 C   0  0  0  0  0  0  0  0  0  0  0  0
   46.9310   34.0180   43.6250 N   0  0  0  0  0  0  0  0  0  0  0  0
   46.0690   36.6890   41.7230 H   0  0  0  0  0  0  0  0  0  0  0  0
   44.1590   36.6630   43.2700 H   0  0  0  0  0  0  0  0  0  0  0  0
   46.0660   31.6780   45.1160 C   0  0  0  0  0  0  0  0  0  0  0  0
   45.8200   32.9930   45.5010 C   0  0  0  0  0  0  0  0  0  0  0  0
   45.5390   33.2750   46.8170 C   0  0  0  0  0  0  0  0  0  0  0  0
   45.5050   32.2520   47.7420 C   0  0  0  0  0  0  0  0  0  0  0  0
   45.2690   32.2060   49.0530 N   0  0  0  0  0  0  0  0  0  0  0  0
   45.3470   30.9600   49.5270 C   0  0  0  0  0  0  0  0  0  0  0  0
   45.6510   30.1300   48.4830 C   0  0  0  0  0  0  0  0  0  0  0  0
   45.7500   30.9400   47.3670 C   0  0  0  0  0  0  0  0  0  0  0  0
   46.0330   30.6530   46.0380 C   0  0  0  0  0  0  0  0  0  0  0  0
   46.2900   31.4330   44.0780 H   0  0  0  0  0  0  0  0  0  0  0  0
   45.3480   34.3000   47.1110 H   0  0  0  0  0  0  0  0  0  0  0  0
   45.0510   33.0530   49.6240 H   0  0  0  0  0  0  0  0  0  0  0  0
   45.1940   30.6680   50.5680 H   0  0  0  0  0  0  0  0  0  0  0  0
   45.7880   29.0770   48.5040 H   0  0  0  0  0  0  0  0  0  0  0  0
   46.2280   29.6470   45.7020 H   0  0  0  0  0  0  0  0  0  0  0  0
   48.0960   35.0280   41.7190 C   0  0  0  0  0  0  0  0  0  0  0  0
   49.0970   35.8140   41.8280 O   0  0  0  0  0  0  0  0  0  0  0  0
   49.9950   33.1240   40.7070 H   0  0  0  0  0  0  0  0  0  0  0  0
   49.1120   33.3110   40.2160 N   0  0  0  0  0  0  0  0  0  0  0  0
   48.1050   34.1560   40.5260 C   0  0  0  0  0  0  0  0  0  0  0  0
   47.1530   34.0570   39.5800 N   0  0  0  0  0  0  0  0  0  0  0  0
   47.5220   33.1610   38.6580 C   0  0  0  0  0  0  0  0  0  0  0  0
   47.0370   32.6100   37.4890 C   0  0  0  0  0  0  0  0  0  0  0  0
   47.6660   31.6910   36.7560 N   0  0  0  0  0  0  0  0  0  0  0  0
   48.8810   31.2480   37.1770 C   0  0  0  0  0  0  0  0  0  0  0  0
   49.5080   30.5130   36.6970 H   0  0  0  0  0  0  0  0  0  0  0  0
   49.3810   31.7650   38.3140 N   0  0  0  0  0  0  0  0  0  0  0  0
   48.7590   32.6890   39.0600 C   0  0  0  0  0  0  0  0  0  0  0  0
   45.7670   33.0660   37.0400 N   0  0  0  0  0  0  0  0  0  0  0  0
   44.9860   32.6780   37.6470 H   0  0  0  0  0  0  0  0  0  0  0  0
   45.1770   33.6190   36.3810 H   0  0  0  0  0  0  0  0  0  0  0  0
  1  6  1  0  0  0  0
  2  1  2  0  0  0  0
  2  3  1  0  0  0  0
  3  4  2  0  0  0  0
  4  5  1  0  0  0  0
  5 10  1  0  0  0  0
  6  5  2  0  0  0  0
  7  2  1  0  0  0  0
  8  3  1  0  0  0  0
  9 10  2  0  0  0  0
  9 17  1  0  0  0  0
 10 11  1  0  0  0  0
 11 19  1  0  0  0  0
 11 12  2  0  0  0  0
 12 13  1  0  0  0  0
 13 14  1  0  0  0  0
 13 20  1  0  0  0  0
 14 21  1  0  0  0  0
 15 22  1  0  0  0  0
 15 14  2  0  0  0  0
 16 12  1  0  0  0  0
 16 15  1  0  0  0  0
 17 16  2  0  0  0  0
 18  9  1  0  0  0  0
 23 17  1  0  0  0  0
 24 25  2  0  0  0  0
 24  1  1  0  0  0  0
 27 28  1  0  0  0  0
 27 26  1  0  0  0  0
 28 24  1  0  0  0  0
 29 28  2  0  0  0  0
 30 36  1  0  0  0  0
 30 29  1  0  0  0  0
 31 30  2  0  0  0  0
 32 33  2  0  0  0  0
 32 31  1  0  0  0  0
 33 35  1  0  0  0  0
 34 33  1  0  0  0  0
 35 36  2  0  0  0  0
 36 27  1  0  0  0  0
 37 31  1  0  0  0  0
 37 38  1  0  0  0  0
 39 37  1  0  0  0  0
M  END
>  <minimizedAffinity>
-6.73816538

>  <minimizedRMSD>
0.625669181

$$$$
