
 OpenBabel03252503593D

 39 43  0  0  0  0  0  0  0  0999 V2000
   46.9240   35.0020   42.6750 C   0  0  0  0  0  0  0  0  0  0  0  0
   45.9430   35.9940   42.5570 C   0  0  0  0  0  0  0  0  0  0  0  0
   44.8890   35.9750   43.4670 C   0  0  0  0  0  0  0  0  0  0  0  0
   44.8730   35.0040   44.4100 N   0  0  0  0  0  0  0  0  0  0  0  0
   45.8360   34.0660   44.4920 C   0  0  0  0  0  0  0  0  0  0  0  0
   46.8670   34.0560   43.6290 N   0  0  0  0  0  0  0  0  0  0  0  0
   45.9810   36.7620   41.7890 H   0  0  0  0  0  0  0  0  0  0  0  0
   44.1180   36.7370   43.3920 H   0  0  0  0  0  0  0  0  0  0  0  0
   46.0780   31.7140   45.1250 C   0  0  0  0  0  0  0  0  0  0  0  0
   45.8000   33.0190   45.5250 C   0  0  0  0  0  0  0  0  0  0  0  0
   45.5070   33.2790   46.8420 C   0  0  0  0  0  0  0  0  0  0  0  0
   45.4920   32.2450   47.7550 C   0  0  0  0  0  0  0  0  0  0  0  0
   45.2500   32.1790   49.0650 N   0  0  0  0  0  0  0  0  0  0  0  0
   45.3550   30.9290   49.5240 C   0  0  0  0  0  0  0  0  0  0  0  0
   45.6820   30.1180   48.4730 C   0  0  0  0  0  0  0  0  0  0  0  0
   45.7670   30.9430   47.3660 C   0  0  0  0  0  0  0  0  0  0  0  0
   46.0640   30.6780   46.0350 C   0  0  0  0  0  0  0  0  0  0  0  0
   46.3120   31.4870   44.0860 H   0  0  0  0  0  0  0  0  0  0  0  0
   45.2910   34.2960   47.1470 H   0  0  0  0  0  0  0  0  0  0  0  0
   45.0110   33.0130   49.6440 H   0  0  0  0  0  0  0  0  0  0  0  0
   45.2030   30.6220   50.5610 H   0  0  0  0  0  0  0  0  0  0  0  0
   45.8420   29.0690   48.4810 H   0  0  0  0  0  0  0  0  0  0  0  0
   46.2830   29.6810   45.6880 H   0  0  0  0  0  0  0  0  0  0  0  0
   47.9870   35.0770   41.7030 C   0  0  0  0  0  0  0  0  0  0  0  0
   48.9490   35.9160   41.7420 O   0  0  0  0  0  0  0  0  0  0  0  0
   46.3650   34.8330   39.3430 H   0  0  0  0  0  0  0  0  0  0  0  0
   47.1450   34.1900   39.5240 N   0  0  0  0  0  0  0  0  0  0  0  0
   48.0110   34.1410   40.5600 C   0  0  0  0  0  0  0  0  0  0  0  0
   48.8640   33.1190   40.3600 N   0  0  0  0  0  0  0  0  0  0  0  0
   48.5690   32.5020   39.2110 C   0  0  0  0  0  0  0  0  0  0  0  0
   49.0220   31.4410   38.4530 C   0  0  0  0  0  0  0  0  0  0  0  0
   48.4960   31.0460   37.2920 N   0  0  0  0  0  0  0  0  0  0  0  0
   47.4290   31.7320   36.8010 C   0  0  0  0  0  0  0  0  0  0  0  0
   46.8980   31.5360   35.8820 H   0  0  0  0  0  0  0  0  0  0  0  0
   46.9630   32.7720   37.5160 N   0  0  0  0  0  0  0  0  0  0  0  0
   47.4830   33.1780   38.6830 C   0  0  0  0  0  0  0  0  0  0  0  0
   50.1380   30.7170   38.9590 N   0  0  0  0  0  0  0  0  0  0  0  0
   51.0340   31.2810   38.8610 H   0  0  0  0  0  0  0  0  0  0  0  0
   50.5500   29.8680   39.4010 H   0  0  0  0  0  0  0  0  0  0  0  0
  1  6  1  0  0  0  0
  2  1  2  0  0  0  0
  2  3  1  0  0  0  0
  3  4  2  0  0  0  0
  4  5  1  0  0  0  0
  5 10  1  0  0  0  0
  6  5  2  0  0  0  0
  7  2  1  0  0  0  0
  8  3  1  0  0  0  0
  9 10  2  0  0  0  0
  9 17  1  0  0  0  0
 10 11  1  0  0  0  0
 11 19  1  0  0  0  0
 11 12  2  0  0  0  0
 12 13  1  0  0  0  0
 13 14  1  0  0  0  0
 13 20  1  0  0  0  0
 14 21  1  0  0  0  0
 15 22  1  0  0  0  0
 15 14  2  0  0  0  0
 16 12  1  0  0  0  0
 16 15  1  0  0  0  0
 17 16  2  0  0  0  0
 18  9  1  0  0  0  0
 23 17  1  0  0  0  0
 24 25  2  0  0  0  0
 24  1  1  0  0  0  0
 26 27  1  0  0  0  0
 27 28  1  0  0  0  0
 28 24  1  0  0  0  0
 29 28  2  0  0  0  0
 30 29  1  0  0  0  0
 31 37  1  0  0  0  0
 31 30  2  0  0  0  0
 32 31  1  0  0  0  0
 33 32  2  0  0  0  0
 33 35  1  0  0  0  0
 34 33  1  0  0  0  0
 35 36  2  0  0  0  0
 36 30  1  0  0  0  0
 36 27  1  0  0  0  0
 37 39  1  0  0  0  0
 38 37  1  0  0  0  0
M  END
>  <minimizedAffinity>
-6.59511137

>  <minimizedRMSD>
0.41361177

$$$$
