
 OpenBabel03242521283D

 40 43  0  0  1  0  0  0  0  0999 V2000
   48.0970   33.5500   42.5590 C   0  0  1  0  0  0  0  0  0  0  0  0
   46.6240   33.7640   42.3020 C   0  0  2  0  0  0  0  0  0  0  0  0
   46.4030   34.6820   41.2950 O   0  0  0  0  0  0  0  0  0  0  0  0
   46.7930   34.0710   40.1160 C   0  0  0  0  0  0  0  0  0  0  0  0
   48.2920   34.0050   40.0950 C   0  0  2  0  0  0  0  0  0  0  0  0
   48.9210   33.4410   41.3240 C   0  0  2  0  0  0  0  0  0  0  0  0
   48.1430   32.5600   43.1000 H   0  0  0  0  0  0  0  0  0  0  0  0
   46.1950   32.7860   41.9870 H   0  0  0  0  0  0  0  0  0  0  0  0
   46.3180   33.0890   39.9380 H   0  0  0  0  0  0  0  0  0  0  0  0
   46.4870   34.7510   39.2930 H   0  0  0  0  0  0  0  0  0  0  0  0
   48.6030   33.4340   39.1830 H   0  0  0  0  0  0  0  0  0  0  0  0
   49.8510   34.0430   41.4980 H   0  0  0  0  0  0  0  0  0  0  0  0
   44.5430   35.7920   44.7320 C   0  0  0  0  0  0  0  0  0  0  0  0
   45.1650   35.3890   43.5420 C   0  0  0  0  0  0  0  0  0  0  0  0
   45.9500   34.2020   43.5320 C   0  0  0  0  0  0  0  0  0  0  0  0
   46.0550   33.5170   44.6910 N   0  0  0  0  0  0  0  0  0  0  0  0
   45.4440   33.9300   45.8300 C   0  0  0  0  0  0  0  0  0  0  0  0
   44.6920   35.0610   45.8520 N   0  0  0  0  0  0  0  0  0  0  0  0
   43.9810   36.7060   44.5970 H   0  0  0  0  0  0  0  0  0  0  0  0
   45.0780   35.9470   42.6010 H   0  0  0  0  0  0  0  0  0  0  0  0
   45.5500   33.3540   46.7500 H   0  0  0  0  0  0  0  0  0  0  0  0
   48.6100   34.4810   43.4690 O   0  0  0  0  0  0  0  0  0  0  0  0
   49.3750   34.1460   43.9710 H   0  0  0  0  0  0  0  0  0  0  0  0
   48.7260   35.3240   39.8570 O   0  0  0  0  0  0  0  0  0  0  0  0
   49.6410   35.2480   39.4570 H   0  0  0  0  0  0  0  0  0  0  0  0
   49.3900   32.1270   41.1260 O   0  0  0  0  0  0  0  0  0  0  0  0
   50.0860   32.2960   38.3710 H   0  0  0  0  0  0  0  0  0  0  0  0
   50.7880   31.9060   39.0390 N   0  0  0  0  0  0  0  0  0  0  0  0
   50.4830   31.8180   40.3460 C   0  0  0  0  0  0  0  0  0  0  0  0
   51.5440   31.2840   41.0180 N   0  0  0  0  0  0  0  0  0  0  0  0
   52.5340   31.0330   40.1260 C   0  0  0  0  0  0  0  0  0  0  0  0
   53.8230   30.5150   40.1420 C   0  0  0  0  0  0  0  0  0  0  0  0
   54.4960   30.4310   39.0000 N   0  0  0  0  0  0  0  0  0  0  0  0
   54.0310   30.8120   37.7980 C   0  0  0  0  0  0  0  0  0  0  0  0
   54.6530   30.7060   36.9190 H   0  0  0  0  0  0  0  0  0  0  0  0
   52.7690   31.3200   37.7740 N   0  0  0  0  0  0  0  0  0  0  0  0
   52.0390   31.4300   38.8970 C   0  0  0  0  0  0  0  0  0  0  0  0
   54.3300   30.1080   41.4070 N   0  0  0  0  0  0  0  0  0  0  0  0
   54.5340   29.2000   41.8630 H   0  0  0  0  0  0  0  0  0  0  0  0
   54.6160   30.7520   42.1830 H   0  0  0  0  0  0  0  0  0  0  0  0
  1  7  1  1  0  0  0
  1 22  1  0  0  0  0
  2  8  1  6  0  0  0
  2  1  1  0  0  0  0
  2 15  1  0  0  0  0
  3  2  1  0  0  0  0
  4  3  1  0  0  0  0
  5 11  1  6  0  0  0
  5  4  1  0  0  0  0
  5  6  1  0  0  0  0
  6 12  1  1  0  0  0
  6  1  1  0  0  0  0
  9  4  1  0  0  0  0
 10  4  1  0  0  0  0
 13 18  1  0  0  0  0
 14 13  2  0  0  0  0
 15 14  1  0  0  0  0
 15 16  2  0  0  0  0
 16 17  1  0  0  0  0
 17 18  2  0  0  0  0
 17 21  1  0  0  0  0
 19 13  1  0  0  0  0
 20 14  1  0  0  0  0
 22 23  1  0  0  0  0
 24  5  1  0  0  0  0
 25 24  1  0  0  0  0
 26  6  1  0  0  0  0
 27 28  1  0  0  0  0
 28 29  1  0  0  0  0
 29 30  2  0  0  0  0
 29 26  1  0  0  0  0
 31 32  1  0  0  0  0
 31 30  1  0  0  0  0
 32 38  1  0  0  0  0
 33 32  2  0  0  0  0
 34 33  1  0  0  0  0
 35 34  1  0  0  0  0
 36 34  2  0  0  0  0
 36 37  1  0  0  0  0
 37 28  1  0  0  0  0
 37 31  2  0  0  0  0
 38 39  1  0  0  0  0
 38 40  1  0  0  0  0
M  END
>  <minimizedAffinity>
-6.53395939

>  <minimizedRMSD>
1.64656281

$$$$
