
 OpenBabel03252504233D

 37 41  0  0  0  0  0  0  0  0999 V2000
   46.9020   33.0850   40.1900 C   0  0  0  0  0  0  0  0  0  0  0  0
   48.2690   32.7820   40.1590 C   0  0  0  0  0  0  0  0  0  0  0  0
   48.9790   32.7770   41.3760 C   0  0  0  0  0  0  0  0  0  0  0  0
   48.2810   33.0700   42.5100 N   0  0  0  0  0  0  0  0  0  0  0  0
   46.9570   33.3580   42.4930 C   0  0  0  0  0  0  0  0  0  0  0  0
   46.2750   33.3640   41.3370 N   0  0  0  0  0  0  0  0  0  0  0  0
   46.3160   33.6500   43.7280 N   0  0  0  0  0  0  0  0  0  0  0  0
   45.4420   34.6620   43.9510 C   0  0  0  0  0  0  0  0  0  0  0  0
   45.0570   34.6000   45.2590 N   0  0  0  0  0  0  0  0  0  0  0  0
   45.6930   33.5680   45.8010 C   0  0  0  0  0  0  0  0  0  0  0  0
   45.7120   33.0180   47.0540 C   0  0  0  0  0  0  0  0  0  0  0  0
   46.4520   31.9530   47.3600 N   0  0  0  0  0  0  0  0  0  0  0  0
   47.2380   31.3440   46.4440 C   0  0  0  0  0  0  0  0  0  0  0  0
   47.2250   31.8760   45.2150 N   0  0  0  0  0  0  0  0  0  0  0  0
   46.4980   32.9440   44.8620 C   0  0  0  0  0  0  0  0  0  0  0  0
   48.8320   32.5500   39.2660 H   0  0  0  0  0  0  0  0  0  0  0  0
   50.0280   32.5530   41.4080 H   0  0  0  0  0  0  0  0  0  0  0  0
   45.0880   35.4070   43.2390 H   0  0  0  0  0  0  0  0  0  0  0  0
   47.8460   30.4770   46.6790 H   0  0  0  0  0  0  0  0  0  0  0  0
   44.9520   33.5270   48.1270 N   0  0  0  0  0  0  0  0  0  0  0  0
   45.4410   34.3150   48.6390 H   0  0  0  0  0  0  0  0  0  0  0  0
   44.0160   33.2420   48.4690 H   0  0  0  0  0  0  0  0  0  0  0  0
   46.1080   33.0590   38.5710 S   0  0  0  0  0  0  0  0  0  0  0  0
   43.8930   31.2000   39.7190 H   0  0  0  0  0  0  0  0  0  0  0  0
   43.5320   32.0580   39.2640 N   0  0  0  0  0  0  0  0  0  0  0  0
   44.3390   32.9810   38.7100 C   0  0  0  0  0  0  0  0  0  0  0  0
   43.5190   33.9440   38.2220 N   0  0  0  0  0  0  0  0  0  0  0  0
   42.2570   33.6150   38.4720 C   0  0  0  0  0  0  0  0  0  0  0  0
   41.0320   34.1930   38.2190 C   0  0  0  0  0  0  0  0  0  0  0  0
   39.9240   33.5700   38.6230 N   0  0  0  0  0  0  0  0  0  0  0  0
   39.9430   32.3970   39.2710 C   0  0  0  0  0  0  0  0  0  0  0  0
   38.9760   31.9780   39.5540 H   0  0  0  0  0  0  0  0  0  0  0  0
   41.1230   31.7900   39.5420 N   0  0  0  0  0  0  0  0  0  0  0  0
   42.2450   32.4090   39.1400 C   0  0  0  0  0  0  0  0  0  0  0  0
   40.9390   35.4220   37.5450 N   0  0  0  0  0  0  0  0  0  0  0  0
   41.7570   36.0610   37.4030 H   0  0  0  0  0  0  0  0  0  0  0  0
   40.0350   35.7670   37.1440 H   0  0  0  0  0  0  0  0  0  0  0  0
  1  6  1  0  0  0  0
  2  1  2  0  0  0  0
  2  3  1  0  0  0  0
  3 17  1  0  0  0  0
  3  4  2  0  0  0  0
  5  4  1  0  0  0  0
  5  7  1  0  0  0  0
  6  5  2  0  0  0  0
  7  8  1  0  0  0  0
  7 15  1  0  0  0  0
  8  9  2  0  0  0  0
  9 10  1  0  0  0  0
 10 11  1  0  0  0  0
 11 12  2  0  0  0  0
 11 20  1  0  0  0  0
 13 19  1  0  0  0  0
 13 12  1  0  0  0  0
 14 13  2  0  0  0  0
 15 14  1  0  0  0  0
 15 10  2  0  0  0  0
 16  2  1  0  0  0  0
 18  8  1  0  0  0  0
 20 22  1  0  0  0  0
 20 21  1  0  0  0  0
 23 26  1  0  0  0  0
 23  1  1  0  0  0  0
 25 24  1  0  0  0  0
 26 25  1  0  0  0  0
 27 28  1  0  0  0  0
 27 26  2  0  0  0  0
 28 34  1  0  0  0  0
 29 28  2  0  0  0  0
 29 30  1  0  0  0  0
 30 31  2  0  0  0  0
 31 33  1  0  0  0  0
 31 32  1  0  0  0  0
 34 25  1  0  0  0  0
 34 33  2  0  0  0  0
 35 29  1  0  0  0  0
 36 35  1  0  0  0  0
 37 35  1  0  0  0  0
M  END
>  <minimizedAffinity>
-6.24809456

>  <minimizedRMSD>
1.55243051

$$$$
