
 OpenBabel03252500283D

 48 51  0  0  1  0  0  0  0  0999 V2000
   47.1150   33.1020   46.7380 O   0  0  0  0  0  0  0  0  0  0  0  0
   45.6690   32.7750   46.6150 P   0  0  1  0  0  0  0  0  0  0  0  0
   45.4700   31.5640   45.4480 O   0  0  0  0  0  0  0  0  0  0  0  0
   45.9860   31.8310   44.6600 H   0  0  0  0  0  0  0  0  0  0  0  0
   45.1700   32.2190   48.0860 O   0  0  0  0  0  0  0  0  0  0  0  0
   47.0440   30.7400   48.1270 C   0  0  2  0  0  0  0  0  0  0  0  0
   45.5800   30.9240   48.2710 C   0  0  2  0  0  0  0  0  0  0  0  0
   44.9610   29.9900   47.3560 C   0  0  0  0  0  0  0  0  0  0  0  0
   45.8680   28.9560   47.0860 O   0  0  0  0  0  0  0  0  0  0  0  0
   46.9420   29.1840   47.8750 C   0  0  0  0  0  0  0  0  0  0  0  0
   47.5040   30.9540   47.1470 H   0  0  0  0  0  0  0  0  0  0  0  0
   45.4190   30.7600   49.3760 H   0  0  0  0  0  0  0  0  0  0  0  0
   44.2670   29.3820   48.0420 H   0  0  0  0  0  0  0  0  0  0  0  0
   44.2310   30.2270   46.6130 H   0  0  0  0  0  0  0  0  0  0  0  0
   46.7900   28.7810   48.9180 H   0  0  0  0  0  0  0  0  0  0  0  0
   47.8990   28.7860   47.5470 H   0  0  0  0  0  0  0  0  0  0  0  0
   47.8000   30.9250   49.2220 O   0  0  0  0  0  0  0  0  0  0  0  0
   49.0300   31.3460   49.2430 C   0  0  0  0  0  0  0  0  0  0  0  0
   49.3460   32.3490   49.0980 H   0  0  0  0  0  0  0  0  0  0  0  0
   49.5160   30.8010   48.2600 H   0  0  0  0  0  0  0  0  0  0  0  0
   49.7970   30.5710   50.3020 C   0  0  0  0  0  0  0  0  0  0  0  0
   49.5240   30.8970   51.3230 H   0  0  0  0  0  0  0  0  0  0  0  0
   49.5760   29.5000   50.1200 H   0  0  0  0  0  0  0  0  0  0  0  0
   50.8800   30.7840   50.1060 H   0  0  0  0  0  0  0  0  0  0  0  0
   44.8980   34.2280   46.1580 O   0  0  0  0  0  0  0  0  0  0  0  0
   45.2090   36.6020   43.4870 C   0  0  0  0  0  0  0  0  0  0  0  0
   45.1160   35.8170   42.3140 C   0  0  0  0  0  0  0  0  0  0  0  0
   44.9430   34.4290   42.5050 C   0  0  0  0  0  0  0  0  0  0  0  0
   44.8750   33.9420   43.7610 N   0  0  0  0  0  0  0  0  0  0  0  0
   44.9680   34.7280   44.8450 C   0  0  0  0  0  0  0  0  0  0  0  0
   45.1330   36.0500   44.7050 N   0  0  0  0  0  0  0  0  0  0  0  0
   45.1710   36.2200   41.3170 H   0  0  0  0  0  0  0  0  0  0  0  0
   44.8630   33.7680   41.6620 H   0  0  0  0  0  0  0  0  0  0  0  0
   45.3790   37.9470   43.3450 O   0  0  0  0  0  0  0  0  0  0  0  0
   45.1720   37.9960   46.1870 H   0  0  0  0  0  0  0  0  0  0  0  0
   45.0780   38.8870   45.6570 N   0  0  0  0  0  0  0  0  0  0  0  0
   45.1730   38.8860   44.3140 C   0  0  0  0  0  0  0  0  0  0  0  0
   45.0120   40.1690   43.9160 N   0  0  0  0  0  0  0  0  0  0  0  0
   44.8230   40.9180   45.0230 C   0  0  0  0  0  0  0  0  0  0  0  0
   44.6070   42.2760   45.2470 C   0  0  0  0  0  0  0  0  0  0  0  0
   44.4440   42.7910   46.4780 N   0  0  0  0  0  0  0  0  0  0  0  0
   44.4910   41.9610   47.5530 C   0  0  0  0  0  0  0  0  0  0  0  0
   44.3750   42.2580   48.5880 H   0  0  0  0  0  0  0  0  0  0  0  0
   44.7000   40.6250   47.3750 N   0  0  0  0  0  0  0  0  0  0  0  0
   44.8610   40.1200   46.1470 C   0  0  0  0  0  0  0  0  0  0  0  0
   44.5550   43.1670   44.1280 N   0  0  0  0  0  0  0  0  0  0  0  0
   45.1670   43.6110   43.4110 H   0  0  0  0  0  0  0  0  0  0  0  0
   43.5430   43.4480   44.0220 H   0  0  0  0  0  0  0  0  0  0  0  0
  2  1  2  1  0  0  0
  2  5  1  0  0  0  0
  3  2  1  0  0  0  0
  4  3  1  0  0  0  0
  5  7  1  0  0  0  0
  6 11  1  6  0  0  0
  6  7  1  0  0  0  0
  6 17  1  0  0  0  0
  7 12  1  1  0  0  0
  8 13  1  0  0  0  0
  8  7  1  0  0  0  0
  9  8  1  0  0  0  0
  9 10  1  0  0  0  0
 10  6  1  0  0  0  0
 10 15  1  0  0  0  0
 14  8  1  0  0  0  0
 16 10  1  0  0  0  0
 17 18  1  0  0  0  0
 18 21  1  0  0  0  0
 19 18  1  0  0  0  0
 20 18  1  0  0  0  0
 21 22  1  0  0  0  0
 23 21  1  0  0  0  0
 24 21  1  0  0  0  0
 25  2  1  0  0  0  0
 26 31  1  0  0  0  0
 27 28  1  0  0  0  0
 27 26  2  0  0  0  0
 28 29  2  0  0  0  0
 29 30  1  0  0  0  0
 30 25  1  0  0  0  0
 31 30  2  0  0  0  0
 32 27  1  0  0  0  0
 33 28  1  0  0  0  0
 34 26  1  0  0  0  0
 34 37  1  0  0  0  0
 36 45  1  0  0  0  0
 36 35  1  0  0  0  0
 37 36  1  0  0  0  0
 38 37  2  0  0  0  0
 38 39  1  0  0  0  0
 39 40  2  0  0  0  0
 39 45  1  0  0  0  0
 40 41  1  0  0  0  0
 41 42  2  0  0  0  0
 42 43  1  0  0  0  0
 44 42  1  0  0  0  0
 45 44  2  0  0  0  0
 46 40  1  0  0  0  0
 47 46  1  0  0  0  0
 48 46  1  0  0  0  0
M  END
>  <minimizedAffinity>
-4.22579718

>  <minimizedRMSD>
0.359718621

$$$$
