
 OpenBabel03252504233D

 37 41  0  0  0  0  0  0  0  0999 V2000
   46.2860   33.4050   39.4940 C   0  0  0  0  0  0  0  0  0  0  0  0
   47.6700   33.1930   39.4760 C   0  0  0  0  0  0  0  0  0  0  0  0
   48.3890   33.3810   40.6730 C   0  0  0  0  0  0  0  0  0  0  0  0
   47.6820   33.7590   41.7760 N   0  0  0  0  0  0  0  0  0  0  0  0
   46.3410   33.9530   41.7470 C   0  0  0  0  0  0  0  0  0  0  0  0
   45.6510   33.7750   40.6100 N   0  0  0  0  0  0  0  0  0  0  0  0
   45.6920   34.3460   42.9490 N   0  0  0  0  0  0  0  0  0  0  0  0
   44.7530   35.3160   43.0660 C   0  0  0  0  0  0  0  0  0  0  0  0
   44.3840   35.3850   44.3780 N   0  0  0  0  0  0  0  0  0  0  0  0
   45.0930   34.4700   45.0280 C   0  0  0  0  0  0  0  0  0  0  0  0
   45.1600   34.0750   46.3360 C   0  0  0  0  0  0  0  0  0  0  0  0
   45.9750   33.1070   46.7530 N   0  0  0  0  0  0  0  0  0  0  0  0
   46.7930   32.4470   45.9030 C   0  0  0  0  0  0  0  0  0  0  0  0
   46.7330   32.8270   44.6210 N   0  0  0  0  0  0  0  0  0  0  0  0
   45.9310   33.7940   44.1560 C   0  0  0  0  0  0  0  0  0  0  0  0
   48.2400   32.8940   38.6080 H   0  0  0  0  0  0  0  0  0  0  0  0
   49.4510   33.2330   40.7140 H   0  0  0  0  0  0  0  0  0  0  0  0
   44.3430   35.9460   42.2760 H   0  0  0  0  0  0  0  0  0  0  0  0
   47.4610   31.6570   46.2290 H   0  0  0  0  0  0  0  0  0  0  0  0
   44.3770   34.6570   47.3540 N   0  0  0  0  0  0  0  0  0  0  0  0
   44.8150   35.5310   47.7610 H   0  0  0  0  0  0  0  0  0  0  0  0
   43.4660   34.3530   47.7420 H   0  0  0  0  0  0  0  0  0  0  0  0
   45.4820   33.1330   37.9030 S   0  0  0  0  0  0  0  0  0  0  0  0
   43.0290   31.3330   37.2470 H   0  0  0  0  0  0  0  0  0  0  0  0
   42.7870   32.2350   37.6950 N   0  0  0  0  0  0  0  0  0  0  0  0
   43.7120   33.1430   38.0520 C   0  0  0  0  0  0  0  0  0  0  0  0
   43.0250   34.1750   38.6000 N   0  0  0  0  0  0  0  0  0  0  0  0
   41.7260   33.9010   38.5760 C   0  0  0  0  0  0  0  0  0  0  0  0
   40.5850   34.5590   38.9820 C   0  0  0  0  0  0  0  0  0  0  0  0
   39.4000   33.9750   38.8010 N   0  0  0  0  0  0  0  0  0  0  0  0
   39.2610   32.7680   38.2370 C   0  0  0  0  0  0  0  0  0  0  0  0
   38.2440   32.3860   38.1380 H   0  0  0  0  0  0  0  0  0  0  0  0
   40.3550   32.0820   37.8220 N   0  0  0  0  0  0  0  0  0  0  0  0
   41.5530   32.6610   37.9990 C   0  0  0  0  0  0  0  0  0  0  0  0
   40.6570   35.8270   39.5810 N   0  0  0  0  0  0  0  0  0  0  0  0
   41.5470   36.2360   39.9510 H   0  0  0  0  0  0  0  0  0  0  0  0
   39.8140   36.4390   39.6890 H   0  0  0  0  0  0  0  0  0  0  0  0
  1  6  1  0  0  0  0
  2  1  2  0  0  0  0
  2  3  1  0  0  0  0
  3 17  1  0  0  0  0
  3  4  2  0  0  0  0
  5  4  1  0  0  0  0
  5  7  1  0  0  0  0
  6  5  2  0  0  0  0
  7  8  1  0  0  0  0
  7 15  1  0  0  0  0
  8  9  2  0  0  0  0
  9 10  1  0  0  0  0
 10 11  1  0  0  0  0
 11 12  2  0  0  0  0
 11 20  1  0  0  0  0
 13 19  1  0  0  0  0
 13 12  1  0  0  0  0
 14 13  2  0  0  0  0
 15 14  1  0  0  0  0
 15 10  2  0  0  0  0
 16  2  1  0  0  0  0
 18  8  1  0  0  0  0
 20 22  1  0  0  0  0
 20 21  1  0  0  0  0
 23 26  1  0  0  0  0
 23  1  1  0  0  0  0
 24 25  1  0  0  0  0
 25 34  1  0  0  0  0
 25 26  1  0  0  0  0
 26 27  2  0  0  0  0
 28 27  1  0  0  0  0
 28 29  1  0  0  0  0
 29 35  1  0  0  0  0
 30 29  2  0  0  0  0
 31 30  1  0  0  0  0
 32 31  1  0  0  0  0
 33 34  1  0  0  0  0
 33 31  2  0  0  0  0
 34 28  2  0  0  0  0
 35 37  1  0  0  0  0
 35 36  1  0  0  0  0
M  END
>  <minimizedAffinity>
-6.72148228

>  <minimizedRMSD>
1.61623752

$$$$
