
 OpenBabel03252502573D

 42 45  0  0  0  0  0  0  0  0999 V2000
   35.4300   28.9380   40.6670 Br  0  0  0  0  0  0  0  0  0  0  0  0
   37.1460   29.0970   41.5530 C   0  0  0  0  0  0  0  0  0  0  0  0
   37.6030   27.9620   42.1420 C   0  0  0  0  0  0  0  0  0  0  0  0
   38.8450   28.1060   42.7750 C   0  0  0  0  0  0  0  0  0  0  0  0
   39.5460   29.2860   42.8020 C   0  0  0  0  0  0  0  0  0  0  0  0
   39.0130   30.3850   42.1810 C   0  0  0  0  0  0  0  0  0  0  0  0
   37.7930   30.3060   41.5410 C   0  0  0  0  0  0  0  0  0  0  0  0
   39.3030   27.2710   43.2750 H   0  0  0  0  0  0  0  0  0  0  0  0
   40.5010   29.3530   43.3020 H   0  0  0  0  0  0  0  0  0  0  0  0
   39.5160   31.3400   42.1690 H   0  0  0  0  0  0  0  0  0  0  0  0
   36.9570   26.6470   42.1860 C   0  0  0  0  0  0  0  0  0  0  0  0
   36.8990   26.3000   43.2240 H   0  0  0  0  0  0  0  0  0  0  0  0
   35.8900   26.8120   41.8700 H   0  0  0  0  0  0  0  0  0  0  0  0
   38.4820   24.9860   39.2210 C   0  0  0  0  0  0  0  0  0  0  0  0
   38.6570   23.6800   39.6750 C   0  0  0  0  0  0  0  0  0  0  0  0
   38.2530   23.3850   40.9830 C   0  0  0  0  0  0  0  0  0  0  0  0
   37.7200   24.3670   41.7340 N   0  0  0  0  0  0  0  0  0  0  0  0
   37.5540   25.6410   41.2760 C   0  0  0  0  0  0  0  0  0  0  0  0
   37.9490   25.9110   40.0120 N   0  0  0  0  0  0  0  0  0  0  0  0
   38.7990   25.2030   38.2050 H   0  0  0  0  0  0  0  0  0  0  0  0
   39.0850   22.8900   39.0720 H   0  0  0  0  0  0  0  0  0  0  0  0
   38.3430   22.4180   41.4270 H   0  0  0  0  0  0  0  0  0  0  0  0
   37.2610   31.4300   40.9150 O   0  0  0  0  0  0  0  0  0  0  0  0
   37.1020   33.2030   39.0250 O   0  0  0  0  0  0  0  0  0  0  0  0
   38.1090   32.3850   39.8100 P   0  0  2  0  0  0  0  0  0  0  0  0
   38.9590   31.3520   38.7910 O   0  0  0  0  0  0  0  0  0  0  0  0
   39.8540   31.1960   39.1630 H   0  0  0  0  0  0  0  0  0  0  0  0
   39.1530   33.4610   40.5970 O   0  0  0  0  0  0  0  0  0  0  0  0
   41.5110   33.3580   42.1770 H   0  0  0  0  0  0  0  0  0  0  0  0
   41.5660   33.5430   41.1520 N   0  0  0  0  0  0  0  0  0  0  0  0
   40.4880   33.6040   40.3460 C   0  0  0  0  0  0  0  0  0  0  0  0
   40.9190   33.8560   39.0940 N   0  0  0  0  0  0  0  0  0  0  0  0
   42.2700   33.9440   39.1620 C   0  0  0  0  0  0  0  0  0  0  0  0
   43.1620   34.1940   38.1130 C   0  0  0  0  0  0  0  0  0  0  0  0
   44.4700   34.2350   38.4310 N   0  0  0  0  0  0  0  0  0  0  0  0
   44.8670   34.0400   39.7100 C   0  0  0  0  0  0  0  0  0  0  0  0
   45.9380   34.0990   39.8280 H   0  0  0  0  0  0  0  0  0  0  0  0
   44.0010   33.7970   40.7290 N   0  0  0  0  0  0  0  0  0  0  0  0
   42.7000   33.7480   40.4580 C   0  0  0  0  0  0  0  0  0  0  0  0
   42.6630   34.3900   36.7850 N   0  0  0  0  0  0  0  0  0  0  0  0
   42.6500   35.2680   36.2100 H   0  0  0  0  0  0  0  0  0  0  0  0
   42.2380   33.5880   36.2580 H   0  0  0  0  0  0  0  0  0  0  0  0
  1  2  1  0  0  0  0
  2  3  1  0  0  0  0
  3 11  1  0  0  0  0
  3  4  2  0  0  0  0
  4  5  1  0  0  0  0
  4  8  1  0  0  0  0
  5  9  1  0  0  0  0
  6  5  2  0  0  0  0
  7  2  2  0  0  0  0
  7  6  1  0  0  0  0
 10  6  1  0  0  0  0
 11 12  1  0  0  0  0
 13 11  1  0  0  0  0
 14 15  2  0  0  0  0
 14 19  1  0  0  0  0
 15 16  1  0  0  0  0
 16 22  1  0  0  0  0
 16 17  2  0  0  0  0
 18 17  1  0  0  0  0
 18 11  1  0  0  0  0
 19 18  2  0  0  0  0
 20 14  1  0  0  0  0
 21 15  1  0  0  0  0
 23  7  1  0  0  0  0
 25 24  2  6  0  0  0
 25 28  1  0  0  0  0
 25 23  1  0  0  0  0
 26 27  1  0  0  0  0
 26 25  1  0  0  0  0
 30 29  1  0  0  0  0
 31 28  1  0  0  0  0
 31 30  1  0  0  0  0
 32 33  1  0  0  0  0
 32 31  2  0  0  0  0
 33 39  1  0  0  0  0
 34 35  1  0  0  0  0
 34 33  2  0  0  0  0
 35 36  2  0  0  0  0
 36 37  1  0  0  0  0
 36 38  1  0  0  0  0
 39 38  2  0  0  0  0
 39 30  1  0  0  0  0
 40 34  1  0  0  0  0
 41 40  1  0  0  0  0
 42 40  1  0  0  0  0
M  END
>  <minimizedAffinity>
-6.84300518

$$$$

 OpenBabel03252502573D

 42 45  0  0  0  0  0  0  0  0999 V2000
   41.4810   31.6430   40.9420 Br  0  0  0  0  0  0  0  0  0  0  0  0
   40.6910   33.3760   40.5870 C   0  0  0  0  0  0  0  0  0  0  0  0
   41.5660   34.3530   40.2360 C   0  0  0  0  0  0  0  0  0  0  0  0
   40.9670   35.5950   39.9850 C   0  0  0  0  0  0  0  0  0  0  0  0
   39.6150   35.8150   40.0830 C   0  0  0  0  0  0  0  0  0  0  0  0
   38.8010   34.7730   40.4440 C   0  0  0  0  0  0  0  0  0  0  0  0
   39.3320   33.5260   40.7040 C   0  0  0  0  0  0  0  0  0  0  0  0
   41.5650   36.4420   39.6990 H   0  0  0  0  0  0  0  0  0  0  0  0
   39.1950   36.7890   39.8810 H   0  0  0  0  0  0  0  0  0  0  0  0
   37.7320   34.8840   40.5390 H   0  0  0  0  0  0  0  0  0  0  0  0
   43.0210   34.2510   40.0950 C   0  0  0  0  0  0  0  0  0  0  0  0
   43.2780   33.3100   39.5980 H   0  0  0  0  0  0  0  0  0  0  0  0
   43.3230   35.0590   39.3720 H   0  0  0  0  0  0  0  0  0  0  0  0
   44.3210   35.7070   43.2680 C   0  0  0  0  0  0  0  0  0  0  0  0
   45.2330   34.7380   43.6820 C   0  0  0  0  0  0  0  0  0  0  0  0
   45.3920   33.6050   42.8750 C   0  0  0  0  0  0  0  0  0  0  0  0
   44.6630   33.5040   41.7470 N   0  0  0  0  0  0  0  0  0  0  0  0
   43.7740   34.4610   41.3540 C   0  0  0  0  0  0  0  0  0  0  0  0
   43.6310   35.5490   42.1440 N   0  0  0  0  0  0  0  0  0  0  0  0
   44.2070   36.5810   43.9020 H   0  0  0  0  0  0  0  0  0  0  0  0
   45.8200   34.8180   44.5880 H   0  0  0  0  0  0  0  0  0  0  0  0
   46.0630   32.8060   43.1010 H   0  0  0  0  0  0  0  0  0  0  0  0
   38.4950   32.4760   41.0710 O   0  0  0  0  0  0  0  0  0  0  0  0
   37.0510   32.7620   38.9320 O   0  0  0  0  0  0  0  0  0  0  0  0
   37.3560   31.7740   40.0410 P   0  0  2  0  0  0  0  0  0  0  0  0
   35.9760   31.4540   40.9480 O   0  0  0  0  0  0  0  0  0  0  0  0
   36.0340   30.5450   41.3130 H   0  0  0  0  0  0  0  0  0  0  0  0
   37.9570   30.3610   39.3270 O   0  0  0  0  0  0  0  0  0  0  0  0
   38.7200   27.7680   38.4540 H   0  0  0  0  0  0  0  0  0  0  0  0
   38.2560   27.9020   39.3780 N   0  0  0  0  0  0  0  0  0  0  0  0
   37.8700   29.1030   39.8520 C   0  0  0  0  0  0  0  0  0  0  0  0
   37.3110   28.9120   41.0640 N   0  0  0  0  0  0  0  0  0  0  0  0
   37.3680   27.5810   41.3090 C   0  0  0  0  0  0  0  0  0  0  0  0
   36.9110   26.9020   42.4440 C   0  0  0  0  0  0  0  0  0  0  0  0
   37.0800   25.5670   42.4570 N   0  0  0  0  0  0  0  0  0  0  0  0
   37.6670   24.9430   41.4090 C   0  0  0  0  0  0  0  0  0  0  0  0
   37.7410   23.8760   41.5460 H   0  0  0  0  0  0  0  0  0  0  0  0
   38.1120   25.6020   40.3070 N   0  0  0  0  0  0  0  0  0  0  0  0
   37.9640   26.9230   40.2530 C   0  0  0  0  0  0  0  0  0  0  0  0
   36.2990   27.6340   43.5130 N   0  0  0  0  0  0  0  0  0  0  0  0
   35.2960   27.6320   43.8220 H   0  0  0  0  0  0  0  0  0  0  0  0
   36.8750   28.2780   44.1070 H   0  0  0  0  0  0  0  0  0  0  0  0
  2  7  1  0  0  0  0
  2  1  1  0  0  0  0
  3  2  2  0  0  0  0
  4  5  2  0  0  0  0
  4  3  1  0  0  0  0
  5  6  1  0  0  0  0
  6 10  1  0  0  0  0
  6  7  2  0  0  0  0
  7 23  1  0  0  0  0
  8  4  1  0  0  0  0
  9  5  1  0  0  0  0
 11  3  1  0  0  0  0
 11 18  1  0  0  0  0
 12 11  1  0  0  0  0
 13 11  1  0  0  0  0
 14 15  1  0  0  0  0
 14 20  1  0  0  0  0
 15 21  1  0  0  0  0
 16 22  1  0  0  0  0
 16 15  2  0  0  0  0
 17 16  1  0  0  0  0
 18 17  2  0  0  0  0
 18 19  1  0  0  0  0
 19 14  2  0  0  0  0
 25 24  2  6  0  0  0
 25 26  1  0  0  0  0
 25 23  1  0  0  0  0
 26 27  1  0  0  0  0
 28 31  1  0  0  0  0
 28 25  1  0  0  0  0
 29 30  1  0  0  0  0
 30 31  1  0  0  0  0
 30 39  1  0  0  0  0
 31 32  2  0  0  0  0
 32 33  1  0  0  0  0
 33 34  1  0  0  0  0
 34 35  2  0  0  0  0
 34 40  1  0  0  0  0
 36 37  1  0  0  0  0
 36 35  1  0  0  0  0
 38 36  2  0  0  0  0
 39 38  1  0  0  0  0
 39 33  2  0  0  0  0
 40 41  1  0  0  0  0
 40 42  1  0  0  0  0
M  END
>  <minimizedAffinity>
-6.74453688

$$$$

 OpenBabel03252502573D

 42 45  0  0  0  0  0  0  0  0999 V2000
   35.7900   28.8620   40.4590 Br  0  0  0  0  0  0  0  0  0  0  0  0
   37.3650   29.7160   41.1970 C   0  0  0  0  0  0  0  0  0  0  0  0
   37.7730   29.2390   42.4020 C   0  0  0  0  0  0  0  0  0  0  0  0
   38.9130   29.8750   42.9120 C   0  0  0  0  0  0  0  0  0  0  0  0
   39.5680   30.8890   42.2590 C   0  0  0  0  0  0  0  0  0  0  0  0
   39.0900   31.3100   41.0450 C   0  0  0  0  0  0  0  0  0  0  0  0
   37.9710   30.7240   40.4910 C   0  0  0  0  0  0  0  0  0  0  0  0
   39.3250   29.5780   43.8600 H   0  0  0  0  0  0  0  0  0  0  0  0
   40.4450   31.3520   42.6890 H   0  0  0  0  0  0  0  0  0  0  0  0
   39.5610   32.1030   40.4850 H   0  0  0  0  0  0  0  0  0  0  0  0
   37.1680   28.1690   43.2000 C   0  0  0  0  0  0  0  0  0  0  0  0
   37.2000   28.4380   44.2610 H   0  0  0  0  0  0  0  0  0  0  0  0
   36.0750   28.1590   42.9310 H   0  0  0  0  0  0  0  0  0  0  0  0
   37.5400   24.6250   42.1170 C   0  0  0  0  0  0  0  0  0  0  0  0
   38.8560   24.3450   42.4800 C   0  0  0  0  0  0  0  0  0  0  0  0
   39.5960   25.3660   43.0890 C   0  0  0  0  0  0  0  0  0  0  0  0
   39.0080   26.5600   43.2920 N   0  0  0  0  0  0  0  0  0  0  0  0
   37.7190   26.8200   42.9310 C   0  0  0  0  0  0  0  0  0  0  0  0
   37.0170   25.8240   42.3440 N   0  0  0  0  0  0  0  0  0  0  0  0
   36.9770   23.8250   41.6460 H   0  0  0  0  0  0  0  0  0  0  0  0
   39.3310   23.3850   42.3180 H   0  0  0  0  0  0  0  0  0  0  0  0
   40.6100   25.2560   43.4050 H   0  0  0  0  0  0  0  0  0  0  0  0
   37.4940   31.1610   39.2580 O   0  0  0  0  0  0  0  0  0  0  0  0
   37.2600   30.8440   36.6920 O   0  0  0  0  0  0  0  0  0  0  0  0
   38.2990   30.9140   37.7940 P   0  0  2  0  0  0  0  0  0  0  0  0
   39.1400   29.4630   37.9110 O   0  0  0  0  0  0  0  0  0  0  0  0
   40.0450   29.6410   38.2440 H   0  0  0  0  0  0  0  0  0  0  0  0
   39.3450   32.1980   37.4410 O   0  0  0  0  0  0  0  0  0  0  0  0
   41.1090   30.2160   36.4280 H   0  0  0  0  0  0  0  0  0  0  0  0
   41.4790   31.1220   36.7880 N   0  0  0  0  0  0  0  0  0  0  0  0
   40.6980   32.1030   37.2810 C   0  0  0  0  0  0  0  0  0  0  0  0
   41.4970   33.1240   37.6520 N   0  0  0  0  0  0  0  0  0  0  0  0
   42.7670   32.7400   37.3750 C   0  0  0  0  0  0  0  0  0  0  0  0
   43.9430   33.4670   37.5870 C   0  0  0  0  0  0  0  0  0  0  0  0
   45.0950   32.8690   37.2270 N   0  0  0  0  0  0  0  0  0  0  0  0
   45.0790   31.6260   36.6910 C   0  0  0  0  0  0  0  0  0  0  0  0
   46.0660   31.2640   36.4480 H   0  0  0  0  0  0  0  0  0  0  0  0
   43.9370   30.9200   36.4850 N   0  0  0  0  0  0  0  0  0  0  0  0
   42.7770   31.4740   36.8260 C   0  0  0  0  0  0  0  0  0  0  0  0
   43.8770   34.7770   38.1590 N   0  0  0  0  0  0  0  0  0  0  0  0
   44.1980   35.0990   39.1060 H   0  0  0  0  0  0  0  0  0  0  0  0
   43.4620   35.5710   37.6130 H   0  0  0  0  0  0  0  0  0  0  0  0
  1  2  1  0  0  0  0
  2  3  1  0  0  0  0
  3  4  2  0  0  0  0
  3 11  1  0  0  0  0
  4  8  1  0  0  0  0
  5  9  1  0  0  0  0
  5  4  1  0  0  0  0
  6  5  2  0  0  0  0
  7  6  1  0  0  0  0
  7  2  2  0  0  0  0
 10  6  1  0  0  0  0
 11 12  1  0  0  0  0
 13 11  1  0  0  0  0
 14 19  2  0  0  0  0
 14 15  1  0  0  0  0
 15 16  2  0  0  0  0
 16 17  1  0  0  0  0
 16 22  1  0  0  0  0
 18 11  1  0  0  0  0
 18 17  2  0  0  0  0
 19 18  1  0  0  0  0
 20 14  1  0  0  0  0
 21 15  1  0  0  0  0
 23  7  1  0  0  0  0
 25 24  2  6  0  0  0
 25 26  1  0  0  0  0
 25 23  1  0  0  0  0
 26 27  1  0  0  0  0
 28 25  1  0  0  0  0
 29 30  1  0  0  0  0
 30 39  1  0  0  0  0
 30 31  1  0  0  0  0
 31 28  1  0  0  0  0
 31 32  2  0  0  0  0
 33 34  1  0  0  0  0
 33 32  1  0  0  0  0
 34 40  1  0  0  0  0
 35 34  2  0  0  0  0
 36 35  1  0  0  0  0
 37 36  1  0  0  0  0
 38 36  2  0  0  0  0
 38 39  1  0  0  0  0
 39 33  2  0  0  0  0
 40 41  1  0  0  0  0
 42 40  1  0  0  0  0
M  END
>  <minimizedAffinity>
-6.68335676

$$$$

 OpenBabel03252502573D

 42 45  0  0  0  0  0  0  0  0999 V2000
   39.6620   29.9940   42.1800 Br  0  0  0  0  0  0  0  0  0  0  0  0
   37.9690   29.7880   41.2590 C   0  0  0  0  0  0  0  0  0  0  0  0
   37.0850   28.9440   41.8520 C   0  0  0  0  0  0  0  0  0  0  0  0
   35.8700   28.8140   41.1640 C   0  0  0  0  0  0  0  0  0  0  0  0
   35.5900   29.4760   39.9950 C   0  0  0  0  0  0  0  0  0  0  0  0
   36.5390   30.3100   39.4640 C   0  0  0  0  0  0  0  0  0  0  0  0
   37.7550   30.4800   40.0950 C   0  0  0  0  0  0  0  0  0  0  0  0
   35.0950   28.1710   41.5420 H   0  0  0  0  0  0  0  0  0  0  0  0
   34.6400   29.3460   39.4970 H   0  0  0  0  0  0  0  0  0  0  0  0
   36.3770   30.8570   38.5470 H   0  0  0  0  0  0  0  0  0  0  0  0
   37.2580   28.1810   43.0910 C   0  0  0  0  0  0  0  0  0  0  0  0
   37.7940   28.7900   43.8260 H   0  0  0  0  0  0  0  0  0  0  0  0
   36.2270   28.0410   43.5180 H   0  0  0  0  0  0  0  0  0  0  0  0
   39.6330   25.3110   43.1030 C   0  0  0  0  0  0  0  0  0  0  0  0
   38.8770   24.3050   42.5050 C   0  0  0  0  0  0  0  0  0  0  0  0
   37.5720   24.6180   42.1060 C   0  0  0  0  0  0  0  0  0  0  0  0
   37.1110   25.8650   42.3180 N   0  0  0  0  0  0  0  0  0  0  0  0
   37.8620   26.8410   42.9040 C   0  0  0  0  0  0  0  0  0  0  0  0
   39.1210   26.5230   43.2840 N   0  0  0  0  0  0  0  0  0  0  0  0
   40.6430   25.0560   43.4070 H   0  0  0  0  0  0  0  0  0  0  0  0
   39.2460   23.3010   42.3340 H   0  0  0  0  0  0  0  0  0  0  0  0
   36.9110   23.9210   41.6400 H   0  0  0  0  0  0  0  0  0  0  0  0
   38.7110   31.3280   39.5450 O   0  0  0  0  0  0  0  0  0  0  0  0
   38.6300   33.2800   41.2560 O   0  0  0  0  0  0  0  0  0  0  0  0
   38.7280   33.0020   39.7680 P   0  0  2  0  0  0  0  0  0  0  0  0
   37.4000   33.6390   38.9570 O   0  0  0  0  0  0  0  0  0  0  0  0
   37.6640   33.8760   38.0420 H   0  0  0  0  0  0  0  0  0  0  0  0
   40.1710   33.6860   39.2060 O   0  0  0  0  0  0  0  0  0  0  0  0
   40.9420   33.1970   41.8960 H   0  0  0  0  0  0  0  0  0  0  0  0
   41.6470   33.4970   41.1870 N   0  0  0  0  0  0  0  0  0  0  0  0
   41.3490   33.7430   39.8970 C   0  0  0  0  0  0  0  0  0  0  0  0
   42.4850   34.1040   39.2680 N   0  0  0  0  0  0  0  0  0  0  0  0
   43.4680   34.0690   40.2000 C   0  0  0  0  0  0  0  0  0  0  0  0
   44.8240   34.3640   40.0220 C   0  0  0  0  0  0  0  0  0  0  0  0
   45.6130   34.2560   41.1070 N   0  0  0  0  0  0  0  0  0  0  0  0
   45.0890   33.8790   42.2960 C   0  0  0  0  0  0  0  0  0  0  0  0
   45.8270   33.8330   43.0820 H   0  0  0  0  0  0  0  0  0  0  0  0
   43.7720   33.5910   42.4710 N   0  0  0  0  0  0  0  0  0  0  0  0
   42.9580   33.6850   41.4230 C   0  0  0  0  0  0  0  0  0  0  0  0
   45.3030   34.7570   38.7310 N   0  0  0  0  0  0  0  0  0  0  0  0
   45.6560   35.6950   38.4170 H   0  0  0  0  0  0  0  0  0  0  0  0
   45.3310   34.0630   37.9450 H   0  0  0  0  0  0  0  0  0  0  0  0
  2  3  1  0  0  0  0
  2  1  1  0  0  0  0
  3 11  1  0  0  0  0
  4  8  1  0  0  0  0
  4  3  2  0  0  0  0
  5  4  1  0  0  0  0
  6  5  2  0  0  0  0
  6  7  1  0  0  0  0
  7  2  2  0  0  0  0
  9  5  1  0  0  0  0
 10  6  1  0  0  0  0
 11 13  1  0  0  0  0
 11 12  1  0  0  0  0
 14 19  1  0  0  0  0
 14 20  1  0  0  0  0
 15 14  2  0  0  0  0
 16 17  2  0  0  0  0
 16 15  1  0  0  0  0
 17 18  1  0  0  0  0
 18 11  1  0  0  0  0
 18 19  2  0  0  0  0
 21 15  1  0  0  0  0
 22 16  1  0  0  0  0
 23 25  1  0  0  0  0
 23  7  1  0  0  0  0
 25 24  2  1  0  0  0
 26 25  1  0  0  0  0
 27 26  1  0  0  0  0
 28 25  1  0  0  0  0
 28 31  1  0  0  0  0
 30 39  1  0  0  0  0
 30 29  1  0  0  0  0
 31 30  1  0  0  0  0
 32 31  2  0  0  0  0
 32 33  1  0  0  0  0
 33 39  1  0  0  0  0
 34 33  2  0  0  0  0
 34 35  1  0  0  0  0
 35 36  2  0  0  0  0
 36 38  1  0  0  0  0
 36 37  1  0  0  0  0
 39 38  2  0  0  0  0
 40 34  1  0  0  0  0
 41 40  1  0  0  0  0
 42 40  1  0  0  0  0
M  END
>  <minimizedAffinity>
-6.64493895

$$$$

 OpenBabel03252502573D

 42 45  0  0  0  0  0  0  0  0999 V2000
   37.7960   25.7690   39.8580 Br  0  0  0  0  0  0  0  0  0  0  0  0
   37.8200   26.8660   41.4550 C   0  0  0  0  0  0  0  0  0  0  0  0
   38.5710   26.3840   42.4800 C   0  0  0  0  0  0  0  0  0  0  0  0
   38.5690   27.1970   43.6210 C   0  0  0  0  0  0  0  0  0  0  0  0
   37.8750   28.3790   43.7060 C   0  0  0  0  0  0  0  0  0  0  0  0
   37.1420   28.7930   42.6240 C   0  0  0  0  0  0  0  0  0  0  0  0
   37.1030   28.0350   41.4720 C   0  0  0  0  0  0  0  0  0  0  0  0
   39.1300   26.9130   44.4940 H   0  0  0  0  0  0  0  0  0  0  0  0
   37.9020   28.9750   44.6060 H   0  0  0  0  0  0  0  0  0  0  0  0
   36.5750   29.7110   42.6310 H   0  0  0  0  0  0  0  0  0  0  0  0
   39.3550   25.1460   42.5180 C   0  0  0  0  0  0  0  0  0  0  0  0
   39.1510   24.6110   43.4520 H   0  0  0  0  0  0  0  0  0  0  0  0
   38.9400   24.4890   41.7050 H   0  0  0  0  0  0  0  0  0  0  0  0
   42.6460   25.6020   40.8350 C   0  0  0  0  0  0  0  0  0  0  0  0
   43.5200   25.6740   41.9190 C   0  0  0  0  0  0  0  0  0  0  0  0
   42.9760   25.5660   43.2040 C   0  0  0  0  0  0  0  0  0  0  0  0
   41.6470   25.4000   43.3340 N   0  0  0  0  0  0  0  0  0  0  0  0
   40.8020   25.3310   42.2640 C   0  0  0  0  0  0  0  0  0  0  0  0
   41.3430   25.4370   41.0290 N   0  0  0  0  0  0  0  0  0  0  0  0
   43.0800   25.6870   39.8440 H   0  0  0  0  0  0  0  0  0  0  0  0
   44.5900   25.8080   41.8160 H   0  0  0  0  0  0  0  0  0  0  0  0
   43.5570   25.6090   44.0990 H   0  0  0  0  0  0  0  0  0  0  0  0
   36.3540   28.4660   40.3810 O   0  0  0  0  0  0  0  0  0  0  0  0
   35.8640   29.7810   38.1970 O   0  0  0  0  0  0  0  0  0  0  0  0
   36.7700   29.7860   39.4130 P   0  0  2  0  0  0  0  0  0  0  0  0
   38.3770   29.5980   38.9560 O   0  0  0  0  0  0  0  0  0  0  0  0
   38.9530   30.0470   39.6110 H   0  0  0  0  0  0  0  0  0  0  0  0
   36.5350   31.2500   40.2300 O   0  0  0  0  0  0  0  0  0  0  0  0
   36.2670   34.0540   39.8620 H   0  0  0  0  0  0  0  0  0  0  0  0
   37.2010   33.6300   40.0480 N   0  0  0  0  0  0  0  0  0  0  0  0
   37.3980   32.3090   40.2330 C   0  0  0  0  0  0  0  0  0  0  0  0
   38.7130   32.1100   40.4490 N   0  0  0  0  0  0  0  0  0  0  0  0
   39.3010   33.3300   40.3910 C   0  0  0  0  0  0  0  0  0  0  0  0
   40.6580   33.6310   40.5550 C   0  0  0  0  0  0  0  0  0  0  0  0
   41.0040   34.9280   40.4530 N   0  0  0  0  0  0  0  0  0  0  0  0
   40.0630   35.8680   40.2040 C   0  0  0  0  0  0  0  0  0  0  0  0
   40.4720   36.8640   40.1470 H   0  0  0  0  0  0  0  0  0  0  0  0
   38.7450   35.5760   40.0460 N   0  0  0  0  0  0  0  0  0  0  0  0
   38.3600   34.3060   40.1390 C   0  0  0  0  0  0  0  0  0  0  0  0
   41.5940   32.5790   40.8160 N   0  0  0  0  0  0  0  0  0  0  0  0
   42.3510   32.2020   40.1930 H   0  0  0  0  0  0  0  0  0  0  0  0
   41.5760   32.0740   41.7350 H   0  0  0  0  0  0  0  0  0  0  0  0
  1  2  1  0  0  0  0
  2  7  2  0  0  0  0
  2  3  1  0  0  0  0
  3 11  1  0  0  0  0
  3  4  2  0  0  0  0
  4  5  1  0  0  0  0
  4  8  1  0  0  0  0
  5  9  1  0  0  0  0
  6 10  1  0  0  0  0
  6  5  2  0  0  0  0
  7  6  1  0  0  0  0
 11 12  1  0  0  0  0
 13 11  1  0  0  0  0
 14 19  2  0  0  0  0
 14 15  1  0  0  0  0
 15 16  2  0  0  0  0
 16 17  1  0  0  0  0
 16 22  1  0  0  0  0
 18 11  1  0  0  0  0
 18 17  2  0  0  0  0
 19 18  1  0  0  0  0
 20 14  1  0  0  0  0
 21 15  1  0  0  0  0
 23  7  1  0  0  0  0
 25 24  2  6  0  0  0
 25 28  1  0  0  0  0
 25 23  1  0  0  0  0
 26 25  1  0  0  0  0
 26 27  1  0  0  0  0
 28 31  1  0  0  0  0
 29 30  1  0  0  0  0
 30 39  1  0  0  0  0
 30 31  1  0  0  0  0
 31 32  2  0  0  0  0
 33 32  1  0  0  0  0
 33 34  1  0  0  0  0
 34 40  1  0  0  0  0
 35 34  2  0  0  0  0
 36 35  1  0  0  0  0
 37 36  1  0  0  0  0
 38 39  1  0  0  0  0
 38 36  2  0  0  0  0
 39 33  2  0  0  0  0
 40 42  1  0  0  0  0
 41 40  1  0  0  0  0
M  END
>  <minimizedAffinity>
-6.61714172

$$$$

 OpenBabel03252502573D

 42 45  0  0  0  0  0  0  0  0999 V2000
   39.3820   27.7280   39.6310 Br  0  0  0  0  0  0  0  0  0  0  0  0
   38.4560   27.7420   41.3340 C   0  0  0  0  0  0  0  0  0  0  0  0
   39.2540   27.6530   42.4290 C   0  0  0  0  0  0  0  0  0  0  0  0
   38.5580   27.6650   43.6460 C   0  0  0  0  0  0  0  0  0  0  0  0
   37.1910   27.7580   43.7330 C   0  0  0  0  0  0  0  0  0  0  0  0
   36.4600   27.8440   42.5770 C   0  0  0  0  0  0  0  0  0  0  0  0
   37.0880   27.8370   41.3480 C   0  0  0  0  0  0  0  0  0  0  0  0
   39.0890   27.6000   44.5790 H   0  0  0  0  0  0  0  0  0  0  0  0
   36.6950   27.7640   44.6930 H   0  0  0  0  0  0  0  0  0  0  0  0
   35.3830   27.9190   42.5810 H   0  0  0  0  0  0  0  0  0  0  0  0
   40.7150   27.5500   42.4740 C   0  0  0  0  0  0  0  0  0  0  0  0
   41.0050   26.7060   43.1090 H   0  0  0  0  0  0  0  0  0  0  0  0
   41.0400   27.2630   41.4360 H   0  0  0  0  0  0  0  0  0  0  0  0
   41.5820   31.1490   42.8790 C   0  0  0  0  0  0  0  0  0  0  0  0
   42.7880   31.0830   43.5750 C   0  0  0  0  0  0  0  0  0  0  0  0
   43.2870   29.8140   43.8960 C   0  0  0  0  0  0  0  0  0  0  0  0
   42.5860   28.7280   43.5200 N   0  0  0  0  0  0  0  0  0  0  0  0
   41.4070   28.8080   42.8390 C   0  0  0  0  0  0  0  0  0  0  0  0
   40.9380   30.0400   42.5370 N   0  0  0  0  0  0  0  0  0  0  0  0
   41.2060   32.1380   42.6360 H   0  0  0  0  0  0  0  0  0  0  0  0
   43.3530   31.9550   43.8770 H   0  0  0  0  0  0  0  0  0  0  0  0
   44.1990   29.6530   44.4260 H   0  0  0  0  0  0  0  0  0  0  0  0
   36.3340   27.9240   40.1810 O   0  0  0  0  0  0  0  0  0  0  0  0
   34.0980   29.1390   39.6660 O   0  0  0  0  0  0  0  0  0  0  0  0
   35.6000   29.3430   39.6350 P   0  0  2  0  0  0  0  0  0  0  0  0
   36.1290   29.6190   38.0630 O   0  0  0  0  0  0  0  0  0  0  0  0
   36.9320   30.1820   38.0870 H   0  0  0  0  0  0  0  0  0  0  0  0
   35.9670   30.6550   40.6410 O   0  0  0  0  0  0  0  0  0  0  0  0
   36.1620   33.4870   40.7440 H   0  0  0  0  0  0  0  0  0  0  0  0
   36.9940   32.9060   40.5020 N   0  0  0  0  0  0  0  0  0  0  0  0
   36.9700   31.5600   40.4360 C   0  0  0  0  0  0  0  0  0  0  0  0
   38.2060   31.1380   40.1010 N   0  0  0  0  0  0  0  0  0  0  0  0
   38.9690   32.2490   39.9680 C   0  0  0  0  0  0  0  0  0  0  0  0
   40.3250   32.3170   39.6290 C   0  0  0  0  0  0  0  0  0  0  0  0
   40.8690   33.5470   39.5580 N   0  0  0  0  0  0  0  0  0  0  0  0
   40.1130   34.6410   39.8070 C   0  0  0  0  0  0  0  0  0  0  0  0
   40.6680   35.5620   39.7160 H   0  0  0  0  0  0  0  0  0  0  0  0
   38.7960   34.5770   40.1370 N   0  0  0  0  0  0  0  0  0  0  0  0
   38.2200   33.3800   40.2180 C   0  0  0  0  0  0  0  0  0  0  0  0
   41.0570   31.1120   39.3800 N   0  0  0  0  0  0  0  0  0  0  0  0
   41.4470   30.7540   38.4720 H   0  0  0  0  0  0  0  0  0  0  0  0
   41.2670   30.4500   40.1660 H   0  0  0  0  0  0  0  0  0  0  0  0
  1  2  1  0  0  0  0
  2  7  2  0  0  0  0
  2  3  1  0  0  0  0
  3 11  1  0  0  0  0
  3  4  2  0  0  0  0
  4  5  1  0  0  0  0
  4  8  1  0  0  0  0
  5  9  1  0  0  0  0
  6 10  1  0  0  0  0
  6  5  2  0  0  0  0
  7  6  1  0  0  0  0
 11 18  1  0  0  0  0
 11 12  1  0  0  0  0
 13 11  1  0  0  0  0
 14 15  1  0  0  0  0
 15 21  1  0  0  0  0
 15 16  2  0  0  0  0
 16 22  1  0  0  0  0
 17 16  1  0  0  0  0
 18 17  2  0  0  0  0
 19 18  1  0  0  0  0
 19 14  2  0  0  0  0
 20 14  1  0  0  0  0
 23  7  1  0  0  0  0
 25 24  2  6  0  0  0
 25 23  1  0  0  0  0
 25 28  1  0  0  0  0
 26 27  1  0  0  0  0
 26 25  1  0  0  0  0
 30 29  1  0  0  0  0
 31 30  1  0  0  0  0
 31 28  1  0  0  0  0
 32 31  2  0  0  0  0
 33 32  1  0  0  0  0
 33 39  1  0  0  0  0
 34 33  2  0  0  0  0
 35 34  1  0  0  0  0
 35 36  2  0  0  0  0
 36 38  1  0  0  0  0
 37 36  1  0  0  0  0
 38 39  2  0  0  0  0
 39 30  1  0  0  0  0
 40 34  1  0  0  0  0
 40 42  1  0  0  0  0
 41 40  1  0  0  0  0
M  END
>  <minimizedAffinity>
-6.50102282

$$$$

 OpenBabel03252502573D

 42 45  0  0  0  0  0  0  0  0999 V2000
   36.7470   26.1740   39.4530 Br  0  0  0  0  0  0  0  0  0  0  0  0
   36.7340   27.9450   40.2380 C   0  0  0  0  0  0  0  0  0  0  0  0
   36.7970   27.9800   41.5950 C   0  0  0  0  0  0  0  0  0  0  0  0
   36.7850   29.2730   42.1350 C   0  0  0  0  0  0  0  0  0  0  0  0
   36.7180   30.4110   41.3700 C   0  0  0  0  0  0  0  0  0  0  0  0
   36.6580   30.2870   40.0060 C   0  0  0  0  0  0  0  0  0  0  0  0
   36.6650   29.0400   39.4150 C   0  0  0  0  0  0  0  0  0  0  0  0
   36.8310   29.4190   43.2000 H   0  0  0  0  0  0  0  0  0  0  0  0
   36.7110   31.3890   41.8280 H   0  0  0  0  0  0  0  0  0  0  0  0
   36.6020   31.1430   39.3520 H   0  0  0  0  0  0  0  0  0  0  0  0
   36.8710   26.8480   42.5220 C   0  0  0  0  0  0  0  0  0  0  0  0
   36.2450   27.0480   43.3980 H   0  0  0  0  0  0  0  0  0  0  0  0
   36.3790   25.9820   41.9990 H   0  0  0  0  0  0  0  0  0  0  0  0
   40.3400   26.8280   43.8800 C   0  0  0  0  0  0  0  0  0  0  0  0
   40.7980   25.5700   43.4930 C   0  0  0  0  0  0  0  0  0  0  0  0
   39.9200   24.7490   42.7750 C   0  0  0  0  0  0  0  0  0  0  0  0
   38.6850   25.2070   42.4960 N   0  0  0  0  0  0  0  0  0  0  0  0
   38.2500   26.4410   42.8810 C   0  0  0  0  0  0  0  0  0  0  0  0
   39.1100   27.2230   43.5740 N   0  0  0  0  0  0  0  0  0  0  0  0
   41.0300   27.4560   44.4360 H   0  0  0  0  0  0  0  0  0  0  0  0
   41.7910   25.2000   43.7160 H   0  0  0  0  0  0  0  0  0  0  0  0
   40.1720   23.7690   42.4320 H   0  0  0  0  0  0  0  0  0  0  0  0
   36.6030   28.9270   38.0290 O   0  0  0  0  0  0  0  0  0  0  0  0
   37.2790   30.9530   36.5510 O   0  0  0  0  0  0  0  0  0  0  0  0
   37.7530   29.5760   36.9760 P   0  0  2  0  0  0  0  0  0  0  0  0
   37.8660   28.5510   35.6480 O   0  0  0  0  0  0  0  0  0  0  0  0
   38.5660   27.8840   35.8150 H   0  0  0  0  0  0  0  0  0  0  0  0
   39.2550   29.7560   37.7380 O   0  0  0  0  0  0  0  0  0  0  0  0
   41.1550   31.1140   36.1210 H   0  0  0  0  0  0  0  0  0  0  0  0
   40.8540   31.5130   37.0360 N   0  0  0  0  0  0  0  0  0  0  0  0
   39.9580   30.9220   37.8500 C   0  0  0  0  0  0  0  0  0  0  0  0
   39.8030   31.7040   38.9370 N   0  0  0  0  0  0  0  0  0  0  0  0
   40.6190   32.7710   38.7620 C   0  0  0  0  0  0  0  0  0  0  0  0
   40.8010   33.8550   39.6280 C   0  0  0  0  0  0  0  0  0  0  0  0
   41.6730   34.8030   39.2330 N   0  0  0  0  0  0  0  0  0  0  0  0
   42.3230   34.6810   38.0520 C   0  0  0  0  0  0  0  0  0  0  0  0
   42.9910   35.5050   37.8560 H   0  0  0  0  0  0  0  0  0  0  0  0
   42.1460   33.6290   37.2110 N   0  0  0  0  0  0  0  0  0  0  0  0
   41.2930   32.6700   37.5630 C   0  0  0  0  0  0  0  0  0  0  0  0
   40.0750   33.9120   40.8610 N   0  0  0  0  0  0  0  0  0  0  0  0
   40.4360   33.8170   41.8430 H   0  0  0  0  0  0  0  0  0  0  0  0
   39.0380   34.0670   40.8550 H   0  0  0  0  0  0  0  0  0  0  0  0
  1  2  1  0  0  0  0
  2  3  1  0  0  0  0
  3  4  2  0  0  0  0
  3 11  1  0  0  0  0
  4  8  1  0  0  0  0
  5  9  1  0  0  0  0
  5  4  1  0  0  0  0
  6  5  2  0  0  0  0
  7  6  1  0  0  0  0
  7  2  2  0  0  0  0
 10  6  1  0  0  0  0
 11 18  1  0  0  0  0
 11 12  1  0  0  0  0
 13 11  1  0  0  0  0
 14 20  1  0  0  0  0
 15 21  1  0  0  0  0
 15 14  2  0  0  0  0
 16 15  1  0  0  0  0
 17 16  2  0  0  0  0
 17 18  1  0  0  0  0
 18 19  2  0  0  0  0
 19 14  1  0  0  0  0
 22 16  1  0  0  0  0
 23  7  1  0  0  0  0
 25 24  2  6  0  0  0
 25 28  1  0  0  0  0
 25 23  1  0  0  0  0
 26 27  1  0  0  0  0
 26 25  1  0  0  0  0
 28 31  1  0  0  0  0
 29 30  1  0  0  0  0
 30 39  1  0  0  0  0
 30 31  1  0  0  0  0
 31 32  2  0  0  0  0
 33 32  1  0  0  0  0
 33 34  1  0  0  0  0
 34 40  1  0  0  0  0
 35 34  2  0  0  0  0
 36 35  1  0  0  0  0
 37 36  1  0  0  0  0
 38 39  1  0  0  0  0
 38 36  2  0  0  0  0
 39 33  2  0  0  0  0
 40 41  1  0  0  0  0
 42 40  1  0  0  0  0
M  END
>  <minimizedAffinity>
-6.4839716

$$$$

 OpenBabel03252502573D

 42 45  0  0  0  0  0  0  0  0999 V2000
   36.2490   26.5610   38.0120 Br  0  0  0  0  0  0  0  0  0  0  0  0
   36.6990   26.2580   39.8720 C   0  0  0  0  0  0  0  0  0  0  0  0
   36.5530   24.9780   40.3040 C   0  0  0  0  0  0  0  0  0  0  0  0
   36.8850   24.7890   41.6520 C   0  0  0  0  0  0  0  0  0  0  0  0
   37.3210   25.8000   42.4720 C   0  0  0  0  0  0  0  0  0  0  0  0
   37.4420   27.0640   41.9560 C   0  0  0  0  0  0  0  0  0  0  0  0
   37.1290   27.3140   40.6350 C   0  0  0  0  0  0  0  0  0  0  0  0
   36.8070   23.8150   42.1020 H   0  0  0  0  0  0  0  0  0  0  0  0
   37.5670   25.6090   43.5070 H   0  0  0  0  0  0  0  0  0  0  0  0
   37.7780   27.8990   42.5500 H   0  0  0  0  0  0  0  0  0  0  0  0
   36.1000   23.8150   39.5380 C   0  0  0  0  0  0  0  0  0  0  0  0
   35.3150   23.2910   40.0940 H   0  0  0  0  0  0  0  0  0  0  0  0
   35.5900   24.2230   38.6210 H   0  0  0  0  0  0  0  0  0  0  0  0
   38.8500   22.2530   37.5700 C   0  0  0  0  0  0  0  0  0  0  0  0
   39.2000   21.1660   38.3700 C   0  0  0  0  0  0  0  0  0  0  0  0
   38.4940   20.9810   39.5650 C   0  0  0  0  0  0  0  0  0  0  0  0
   37.5200   21.8540   39.8840 N   0  0  0  0  0  0  0  0  0  0  0  0
   37.1880   22.9140   39.0920 C   0  0  0  0  0  0  0  0  0  0  0  0
   37.8780   23.0790   37.9410 N   0  0  0  0  0  0  0  0  0  0  0  0
   39.4040   22.3850   36.6460 H   0  0  0  0  0  0  0  0  0  0  0  0
   39.9830   20.4630   38.1140 H   0  0  0  0  0  0  0  0  0  0  0  0
   38.6830   20.1820   40.2470 H   0  0  0  0  0  0  0  0  0  0  0  0
   37.2540   28.6020   40.1220 O   0  0  0  0  0  0  0  0  0  0  0  0
   36.5080   30.3610   41.8800 O   0  0  0  0  0  0  0  0  0  0  0  0
   36.1950   29.8670   40.4810 P   0  0  2  0  0  0  0  0  0  0  0  0
   34.6290   29.2610   40.4030 O   0  0  0  0  0  0  0  0  0  0  0  0
   34.2810   29.3830   39.4930 H   0  0  0  0  0  0  0  0  0  0  0  0
   36.4000   31.1660   39.4130 O   0  0  0  0  0  0  0  0  0  0  0  0
   36.2010   33.8540   40.3080 H   0  0  0  0  0  0  0  0  0  0  0  0
   37.1180   33.4620   40.0060 N   0  0  0  0  0  0  0  0  0  0  0  0
   37.2820   32.1970   39.5720 C   0  0  0  0  0  0  0  0  0  0  0  0
   38.5850   32.0260   39.2680 N   0  0  0  0  0  0  0  0  0  0  0  0
   39.1980   33.2070   39.5260 C   0  0  0  0  0  0  0  0  0  0  0  0
   40.5520   33.5180   39.3650 C   0  0  0  0  0  0  0  0  0  0  0  0
   40.9270   34.7690   39.6910 N   0  0  0  0  0  0  0  0  0  0  0  0
   40.0140   35.6570   40.1480 C   0  0  0  0  0  0  0  0  0  0  0  0
   40.4440   36.6210   40.3720 H   0  0  0  0  0  0  0  0  0  0  0  0
   38.6980   35.3560   40.3060 N   0  0  0  0  0  0  0  0  0  0  0  0
   38.2860   34.1300   39.9950 C   0  0  0  0  0  0  0  0  0  0  0  0
   41.4570   32.5220   38.8740 N   0  0  0  0  0  0  0  0  0  0  0  0
   41.9560   32.4830   37.9500 H   0  0  0  0  0  0  0  0  0  0  0  0
   41.6990   31.6920   39.4670 H   0  0  0  0  0  0  0  0  0  0  0  0
  1  2  1  0  0  0  0
  2  3  2  0  0  0  0
  2  7  1  0  0  0  0
  3  4  1  0  0  0  0
  4  8  1  0  0  0  0
  4  5  2  0  0  0  0
  5  9  1  0  0  0  0
  6  5  1  0  0  0  0
  6 10  1  0  0  0  0
  7  6  2  0  0  0  0
 11 12  1  0  0  0  0
 11  3  1  0  0  0  0
 13 11  1  0  0  0  0
 14 19  2  0  0  0  0
 14 15  1  0  0  0  0
 15 16  2  0  0  0  0
 16 17  1  0  0  0  0
 16 22  1  0  0  0  0
 18 11  1  0  0  0  0
 18 17  2  0  0  0  0
 19 18  1  0  0  0  0
 20 14  1  0  0  0  0
 21 15  1  0  0  0  0
 23 25  1  0  0  0  0
 23  7  1  0  0  0  0
 25 24  2  1  0  0  0
 26 25  1  0  0  0  0
 27 26  1  0  0  0  0
 28 31  1  0  0  0  0
 28 25  1  0  0  0  0
 30 29  1  0  0  0  0
 31 30  1  0  0  0  0
 32 33  1  0  0  0  0
 32 31  2  0  0  0  0
 33 39  1  0  0  0  0
 34 33  2  0  0  0  0
 34 35  1  0  0  0  0
 35 36  2  0  0  0  0
 36 38  1  0  0  0  0
 36 37  1  0  0  0  0
 39 30  1  0  0  0  0
 39 38  2  0  0  0  0
 40 34  1  0  0  0  0
 40 42  1  0  0  0  0
 41 40  1  0  0  0  0
M  END
>  <minimizedAffinity>
-6.45670033

$$$$

 OpenBabel03252502573D

 42 45  0  0  0  0  0  0  0  0999 V2000
   36.6100   29.8040   41.5070 Br  0  0  0  0  0  0  0  0  0  0  0  0
   36.6830   27.9570   40.9260 C   0  0  0  0  0  0  0  0  0  0  0  0
   37.1550   27.0770   41.8470 C   0  0  0  0  0  0  0  0  0  0  0  0
   37.1970   25.7490   41.4000 C   0  0  0  0  0  0  0  0  0  0  0  0
   36.7980   25.3620   40.1440 C   0  0  0  0  0  0  0  0  0  0  0  0
   36.3340   26.3150   39.2760 C   0  0  0  0  0  0  0  0  0  0  0  0
   36.2690   27.6400   39.6580 C   0  0  0  0  0  0  0  0  0  0  0  0
   37.5540   24.9670   42.0460 H   0  0  0  0  0  0  0  0  0  0  0  0
   36.8480   24.3270   39.8410 H   0  0  0  0  0  0  0  0  0  0  0  0
   36.0070   26.0730   38.2760 H   0  0  0  0  0  0  0  0  0  0  0  0
   37.6100   27.3570   43.2120 C   0  0  0  0  0  0  0  0  0  0  0  0
   37.1150   28.2600   43.5860 H   0  0  0  0  0  0  0  0  0  0  0  0
   37.2170   26.5180   43.8500 H   0  0  0  0  0  0  0  0  0  0  0  0
   41.1220   26.5140   44.1220 C   0  0  0  0  0  0  0  0  0  0  0  0
   41.8280   27.5950   43.5960 C   0  0  0  0  0  0  0  0  0  0  0  0
   41.0970   28.5940   42.9400 C   0  0  0  0  0  0  0  0  0  0  0  0
   39.7600   28.4650   42.8480 N   0  0  0  0  0  0  0  0  0  0  0  0
   39.0830   27.4010   43.3680 C   0  0  0  0  0  0  0  0  0  0  0  0
   39.8020   26.4450   43.9990 N   0  0  0  0  0  0  0  0  0  0  0  0
   41.6990   25.7470   44.6290 H   0  0  0  0  0  0  0  0  0  0  0  0
   42.9020   27.7000   43.6690 H   0  0  0  0  0  0  0  0  0  0  0  0
   41.5400   29.4610   42.5020 H   0  0  0  0  0  0  0  0  0  0  0  0
   35.7960   28.5980   38.7660 O   0  0  0  0  0  0  0  0  0  0  0  0
   36.1430   29.3290   36.2990 O   0  0  0  0  0  0  0  0  0  0  0  0
   36.7750   29.4350   37.6740 P   0  0  2  0  0  0  0  0  0  0  0  0
   38.2920   28.7100   37.6880 O   0  0  0  0  0  0  0  0  0  0  0  0
   38.8560   29.1570   38.3550 H   0  0  0  0  0  0  0  0  0  0  0  0
   36.8790   31.0780   38.0710 O   0  0  0  0  0  0  0  0  0  0  0  0
   39.5830   31.0500   37.2000 H   0  0  0  0  0  0  0  0  0  0  0  0
   39.2820   31.6760   37.9780 N   0  0  0  0  0  0  0  0  0  0  0  0
   38.0170   31.7380   38.4390 C   0  0  0  0  0  0  0  0  0  0  0  0
   37.9820   32.6430   39.4380 N   0  0  0  0  0  0  0  0  0  0  0  0
   39.2440   33.1210   39.5680 C   0  0  0  0  0  0  0  0  0  0  0  0
   39.7020   34.0820   40.4760 C   0  0  0  0  0  0  0  0  0  0  0  0
   41.0090   34.3970   40.4130 N   0  0  0  0  0  0  0  0  0  0  0  0
   41.8120   33.7940   39.5060 C   0  0  0  0  0  0  0  0  0  0  0  0
   42.8350   34.1350   39.5610 H   0  0  0  0  0  0  0  0  0  0  0  0
   41.3680   32.8610   38.6230 N   0  0  0  0  0  0  0  0  0  0  0  0
   40.0820   32.5210   38.6520 C   0  0  0  0  0  0  0  0  0  0  0  0
   38.7890   34.6740   41.4070 N   0  0  0  0  0  0  0  0  0  0  0  0
   38.7420   34.5560   42.4500 H   0  0  0  0  0  0  0  0  0  0  0  0
   38.0390   35.3240   41.0680 H   0  0  0  0  0  0  0  0  0  0  0  0
  2  1  1  0  0  0  0
  2  3  1  0  0  0  0
  3 11  1  0  0  0  0
  4  3  2  0  0  0  0
  4  8  1  0  0  0  0
  5  4  1  0  0  0  0
  6  7  1  0  0  0  0
  6  5  2  0  0  0  0
  7  2  2  0  0  0  0
  9  5  1  0  0  0  0
 10  6  1  0  0  0  0
 11 18  1  0  0  0  0
 11 12  1  0  0  0  0
 11 13  1  0  0  0  0
 14 20  1  0  0  0  0
 15 21  1  0  0  0  0
 15 14  2  0  0  0  0
 16 15  1  0  0  0  0
 17 16  2  0  0  0  0
 17 18  1  0  0  0  0
 18 19  2  0  0  0  0
 19 14  1  0  0  0  0
 22 16  1  0  0  0  0
 23  7  1  0  0  0  0
 25 24  2  6  0  0  0
 25 26  1  0  0  0  0
 25 28  1  0  0  0  0
 25 23  1  0  0  0  0
 26 27  1  0  0  0  0
 28 31  1  0  0  0  0
 29 30  1  0  0  0  0
 30 31  1  0  0  0  0
 30 39  1  0  0  0  0
 31 32  2  0  0  0  0
 32 33  1  0  0  0  0
 33 34  1  0  0  0  0
 34 40  1  0  0  0  0
 35 34  2  0  0  0  0
 36 37  1  0  0  0  0
 36 35  1  0  0  0  0
 38 39  1  0  0  0  0
 38 36  2  0  0  0  0
 39 33  2  0  0  0  0
 40 41  1  0  0  0  0
 42 40  1  0  0  0  0
M  END
>  <minimizedAffinity>
-6.36611223

$$$$
