
 OpenBabel03242523303D

 27 29  0  0  0  0  0  0  0  0999 V2000
   46.4470   29.7470   43.2770 H   0  0  0  0  0  0  0  0  0  0  0  0
   46.8690   29.8130   44.2320 N   0  0  0  0  0  0  0  0  0  0  0  0
   48.1780   30.0410   44.4220 C   0  0  0  0  0  0  0  0  0  0  0  0
   48.3800   30.0670   45.7530 N   0  0  0  0  0  0  0  0  0  0  0  0
   47.2160   29.8580   46.3630 C   0  0  0  0  0  0  0  0  0  0  0  0
   46.8820   29.7890   47.6970 C   0  0  0  0  0  0  0  0  0  0  0  0
   45.5950   29.5620   48.0490 N   0  0  0  0  0  0  0  0  0  0  0  0
   44.6570   29.4050   47.0730 C   0  0  0  0  0  0  0  0  0  0  0  0
   43.6700   29.2280   47.4820 H   0  0  0  0  0  0  0  0  0  0  0  0
   44.9710   29.4690   45.7710 N   0  0  0  0  0  0  0  0  0  0  0  0
   46.2350   29.6940   45.4070 C   0  0  0  0  0  0  0  0  0  0  0  0
   47.9170   29.9640   48.6540 N   0  0  0  0  0  0  0  0  0  0  0  0
   48.6850   30.6810   48.5060 H   0  0  0  0  0  0  0  0  0  0  0  0
   48.1970   29.5600   49.5690 H   0  0  0  0  0  0  0  0  0  0  0  0
   49.5270   30.2870   43.2950 S   0  0  0  0  0  0  0  0  0  0  0  0
   49.3130   31.7820   42.2890 C   0  0  0  0  0  0  0  0  0  0  0  0
   48.2590   31.9390   42.0100 H   0  0  0  0  0  0  0  0  0  0  0  0
   49.6750   32.7000   42.8380 H   0  0  0  0  0  0  0  0  0  0  0  0
   50.6350   31.4880   38.8280 C   0  0  0  0  0  0  0  0  0  0  0  0
   51.9990   31.3940   39.0450 C   0  0  0  0  0  0  0  0  0  0  0  0
   52.4370   31.4320   40.3600 C   0  0  0  0  0  0  0  0  0  0  0  0
   51.5500   31.5570   41.3830 N   0  0  0  0  0  0  0  0  0  0  0  0
   50.2210   31.6470   41.1320 C   0  0  0  0  0  0  0  0  0  0  0  0
   49.7890   31.6110   39.8610 N   0  0  0  0  0  0  0  0  0  0  0  0
   50.3530   31.4530   37.7850 H   0  0  0  0  0  0  0  0  0  0  0  0
   52.8030   31.2910   38.3280 H   0  0  0  0  0  0  0  0  0  0  0  0
   53.4800   31.3680   40.6800 H   0  0  0  0  0  0  0  0  0  0  0  0
  1  2  1  0  0  0  0
  2  3  1  0  0  0  0
  2 11  1  0  0  0  0
  3  4  2  0  0  0  0
  4  5  1  0  0  0  0
  5  6  1  0  0  0  0
  6  7  2  0  0  0  0
  6 12  1  0  0  0  0
  8  9  1  0  0  0  0
  8  7  1  0  0  0  0
 10  8  2  0  0  0  0
 11 10  1  0  0  0  0
 11  5  2  0  0  0  0
 12 14  1  0  0  0  0
 13 12  1  0  0  0  0
 15  3  1  0  0  0  0
 16 18  1  0  0  0  0
 16 15  1  0  0  0  0
 17 16  1  0  0  0  0
 19 20  2  0  0  0  0
 19 24  1  0  0  0  0
 20 21  1  0  0  0  0
 21 27  1  0  0  0  0
 21 22  2  0  0  0  0
 23 22  1  0  0  0  0
 23 16  1  0  0  0  0
 24 23  2  0  0  0  0
 25 19  1  0  0  0  0
 26 20  1  0  0  0  0
M  END
>  <minimizedAffinity>
-3.04670024

>  <minimizedRMSD>
5.48844528

$$$$
