
 OpenBabel03252504233D

 37 41  0  0  0  0  0  0  0  0999 V2000
   46.6660   32.9930   40.2110 C   0  0  0  0  0  0  0  0  0  0  0  0
   48.0160   32.6410   40.0920 C   0  0  0  0  0  0  0  0  0  0  0  0
   48.7950   32.5830   41.2640 C   0  0  0  0  0  0  0  0  0  0  0  0
   48.1770   32.8760   42.4440 N   0  0  0  0  0  0  0  0  0  0  0  0
   46.8650   33.2120   42.5110 C   0  0  0  0  0  0  0  0  0  0  0  0
   46.1180   33.2680   41.3980 N   0  0  0  0  0  0  0  0  0  0  0  0
   46.3090   33.4980   43.7880 N   0  0  0  0  0  0  0  0  0  0  0  0
   45.4880   34.5360   44.0830 C   0  0  0  0  0  0  0  0  0  0  0  0
   45.1780   34.4590   45.4100 N   0  0  0  0  0  0  0  0  0  0  0  0
   45.8060   33.3920   45.8920 C   0  0  0  0  0  0  0  0  0  0  0  0
   45.8770   32.8140   47.1300 C   0  0  0  0  0  0  0  0  0  0  0  0
   46.5930   31.7160   47.3700 N   0  0  0  0  0  0  0  0  0  0  0  0
   47.3010   31.0990   46.3960 C   0  0  0  0  0  0  0  0  0  0  0  0
   47.2360   31.6600   45.1820 N   0  0  0  0  0  0  0  0  0  0  0  0
   46.5300   32.7610   44.8950 C   0  0  0  0  0  0  0  0  0  0  0  0
   48.5170   32.4090   39.1630 H   0  0  0  0  0  0  0  0  0  0  0  0
   49.8360   32.3200   41.2300 H   0  0  0  0  0  0  0  0  0  0  0  0
   45.1220   35.3090   43.4090 H   0  0  0  0  0  0  0  0  0  0  0  0
   47.8890   30.2060   46.5780 H   0  0  0  0  0  0  0  0  0  0  0  0
   45.2010   33.3260   48.2570 N   0  0  0  0  0  0  0  0  0  0  0  0
   45.7490   34.0840   48.7550 H   0  0  0  0  0  0  0  0  0  0  0  0
   44.2770   33.0680   48.6470 H   0  0  0  0  0  0  0  0  0  0  0  0
   45.7780   33.0320   38.6420 S   0  0  0  0  0  0  0  0  0  0  0  0
   43.5370   34.6460   37.2060 H   0  0  0  0  0  0  0  0  0  0  0  0
   43.2430   34.2160   38.1020 N   0  0  0  0  0  0  0  0  0  0  0  0
   44.0740   33.4810   38.8630 C   0  0  0  0  0  0  0  0  0  0  0  0
   43.3440   33.0930   39.9390 N   0  0  0  0  0  0  0  0  0  0  0  0
   42.1120   33.5780   39.8310 C   0  0  0  0  0  0  0  0  0  0  0  0
   40.9700   33.5120   40.6000 C   0  0  0  0  0  0  0  0  0  0  0  0
   39.8680   34.1360   40.1800 N   0  0  0  0  0  0  0  0  0  0  0  0
   39.8150   34.8310   39.0360 C   0  0  0  0  0  0  0  0  0  0  0  0
   38.8620   35.3020   38.7910 H   0  0  0  0  0  0  0  0  0  0  0  0
   40.9130   34.9240   38.2470 N   0  0  0  0  0  0  0  0  0  0  0  0
   42.0280   34.3000   38.6600 C   0  0  0  0  0  0  0  0  0  0  0  0
   40.9550   32.8010   41.8110 N   0  0  0  0  0  0  0  0  0  0  0  0
   41.6990   32.1150   42.0810 H   0  0  0  0  0  0  0  0  0  0  0  0
   40.1880   32.9200   42.5150 H   0  0  0  0  0  0  0  0  0  0  0  0
  1  6  1  0  0  0  0
  2  1  2  0  0  0  0
  2  3  1  0  0  0  0
  3  4  2  0  0  0  0
  4  5  1  0  0  0  0
  5  7  1  0  0  0  0
  6  5  2  0  0  0  0
  7  8  1  0  0  0  0
  7 15  1  0  0  0  0
  8  9  2  0  0  0  0
  9 10  1  0  0  0  0
 10 11  1  0  0  0  0
 11 12  2  0  0  0  0
 11 20  1  0  0  0  0
 13 19  1  0  0  0  0
 13 12  1  0  0  0  0
 14 13  2  0  0  0  0
 15 14  1  0  0  0  0
 15 10  2  0  0  0  0
 16  2  1  0  0  0  0
 17  3  1  0  0  0  0
 18  8  1  0  0  0  0
 20 22  1  0  0  0  0
 20 21  1  0  0  0  0
 23 26  1  0  0  0  0
 23  1  1  0  0  0  0
 24 25  1  0  0  0  0
 25 34  1  0  0  0  0
 25 26  1  0  0  0  0
 26 27  2  0  0  0  0
 28 27  1  0  0  0  0
 28 29  1  0  0  0  0
 29 35  1  0  0  0  0
 30 29  2  0  0  0  0
 31 30  1  0  0  0  0
 32 31  1  0  0  0  0
 33 34  1  0  0  0  0
 33 31  2  0  0  0  0
 34 28  2  0  0  0  0
 35 36  1  0  0  0  0
 35 37  1  0  0  0  0
M  END
>  <minimizedAffinity>
-6.87072802

>  <minimizedRMSD>
1.51377368

$$$$
