
 OpenBabel03242519413D

 34 36  0  0  0  0  0  0  0  0999 V2000
   48.1180   32.8680   41.5920 O   0  0  0  0  0  0  0  0  0  0  0  0
   47.1820   34.0510   41.2250 P   0  0  2  0  0  0  0  0  0  0  0  0
   45.6230   33.7410   41.8740 O   0  0  0  0  0  0  0  0  0  0  0  0
   44.4100   35.8540   44.5830 C   0  0  0  0  0  0  0  0  0  0  0  0
   44.6940   35.3870   43.2760 C   0  0  0  0  0  0  0  0  0  0  0  0
   45.3610   34.1620   43.1610 C   0  0  0  0  0  0  0  0  0  0  0  0
   45.6920   33.5000   44.2850 N   0  0  0  0  0  0  0  0  0  0  0  0
   45.4060   33.9710   45.5190 C   0  0  0  0  0  0  0  0  0  0  0  0
   44.7700   35.1410   45.6770 N   0  0  0  0  0  0  0  0  0  0  0  0
   43.8930   36.8040   44.6620 H   0  0  0  0  0  0  0  0  0  0  0  0
   44.3760   36.0090   42.4460 H   0  0  0  0  0  0  0  0  0  0  0  0
   45.7250   33.3460   46.3560 H   0  0  0  0  0  0  0  0  0  0  0  0
   47.0570   34.1510   39.5770 O   0  0  0  0  0  0  0  0  0  0  0  0
   46.9830   33.1710   38.6410 C   0  0  0  0  0  0  0  0  0  0  0  0
   46.9090   33.5610   37.3270 O   0  0  0  0  0  0  0  0  0  0  0  0
   45.3660   31.4370   37.0050 H   0  0  0  0  0  0  0  0  0  0  0  0
   46.1320   30.9830   37.5970 N   0  0  0  0  0  0  0  0  0  0  0  0
   46.9600   31.7070   38.4020 C   0  0  0  0  0  0  0  0  0  0  0  0
   47.7070   30.7560   38.9110 N   0  0  0  0  0  0  0  0  0  0  0  0
   47.3290   29.5650   38.4280 C   0  0  0  0  0  0  0  0  0  0  0  0
   47.9740   28.4190   38.8230 C   0  0  0  0  0  0  0  0  0  0  0  0
   47.4580   27.3020   38.2330 N   0  0  0  0  0  0  0  0  0  0  0  0
   46.4340   27.3380   37.3640 C   0  0  0  0  0  0  0  0  0  0  0  0
   46.0460   26.4300   36.9110 H   0  0  0  0  0  0  0  0  0  0  0  0
   45.8680   28.5420   37.0430 N   0  0  0  0  0  0  0  0  0  0  0  0
   46.2880   29.6770   37.5540 C   0  0  0  0  0  0  0  0  0  0  0  0
   49.0580   28.2750   39.7300 N   0  0  0  0  0  0  0  0  0  0  0  0
   49.9530   28.1560   39.2160 H   0  0  0  0  0  0  0  0  0  0  0  0
   48.9140   28.2950   40.7780 H   0  0  0  0  0  0  0  0  0  0  0  0
   47.7990   35.4030   41.9580 O   0  0  0  0  0  0  0  0  0  0  0  0
   49.0440   35.7580   41.4490 C   0  0  0  0  0  0  0  0  0  0  0  0
   49.4100   37.0450   41.8030 F   0  0  0  0  0  0  0  0  0  0  0  0
   49.9820   34.8360   41.7920 F   0  0  0  0  0  0  0  0  0  0  0  0
   48.9070   35.7580   40.0640 F   0  0  0  0  0  0  0  0  0  0  0  0
  2  1  2  1  0  0  0
  2  3  1  0  0  0  0
  2 30  1  0  0  0  0
  3  6  1  0  0  0  0
  4 10  1  0  0  0  0
  4  9  1  0  0  0  0
  5  4  2  0  0  0  0
  6  5  1  0  0  0  0
  6  7  2  0  0  0  0
  7  8  1  0  0  0  0
  8  9  2  0  0  0  0
  8 12  1  0  0  0  0
 11  5  1  0  0  0  0
 13  2  1  0  0  0  0
 14 13  1  0  0  0  0
 15 14  2  0  0  0  0
 16 17  1  0  0  0  0
 17 18  1  0  0  0  0
 18 14  1  0  0  0  0
 18 19  2  0  0  0  0
 20 21  1  0  0  0  0
 20 19  1  0  0  0  0
 21 27  1  0  0  0  0
 22 21  2  0  0  0  0
 23 22  1  0  0  0  0
 24 23  1  0  0  0  0
 25 23  2  0  0  0  0
 25 26  1  0  0  0  0
 26 17  1  0  0  0  0
 26 20  2  0  0  0  0
 27 29  1  0  0  0  0
 28 27  1  0  0  0  0
 31 33  1  0  0  0  0
 31 32  1  0  0  0  0
 31 30  1  0  0  0  0
 34 31  1  0  0  0  0
M  END
>  <minimizedAffinity>
-4.8449049

>  <minimizedRMSD>
0.804857671

$$$$
