
 OpenBabel03252502563D

 42 45  0  0  0  0  0  0  0  0999 V2000
   45.6720   29.9770   44.7820 Br  0  0  0  0  0  0  0  0  0  0  0  0
   45.6850   30.6130   46.6120 C   0  0  0  0  0  0  0  0  0  0  0  0
   46.3440   31.7820   46.8160 C   0  0  0  0  0  0  0  0  0  0  0  0
   46.3370   32.2180   48.1490 C   0  0  0  0  0  0  0  0  0  0  0  0
   45.7210   31.5300   49.1650 C   0  0  0  0  0  0  0  0  0  0  0  0
   45.0760   30.3560   48.8720 C   0  0  0  0  0  0  0  0  0  0  0  0
   45.0490   29.8760   47.5790 C   0  0  0  0  0  0  0  0  0  0  0  0
   46.8290   33.1330   48.4260 H   0  0  0  0  0  0  0  0  0  0  0  0
   45.7400   31.9020   50.1790 H   0  0  0  0  0  0  0  0  0  0  0  0
   44.5750   29.7710   49.6280 H   0  0  0  0  0  0  0  0  0  0  0  0
   47.0390   32.6100   45.8270 C   0  0  0  0  0  0  0  0  0  0  0  0
   47.9840   32.9710   46.2470 H   0  0  0  0  0  0  0  0  0  0  0  0
   47.3330   31.9160   44.9910 H   0  0  0  0  0  0  0  0  0  0  0  0
   44.5240   35.3230   45.3870 C   0  0  0  0  0  0  0  0  0  0  0  0
   44.7410   35.7100   44.0660 C   0  0  0  0  0  0  0  0  0  0  0  0
   45.7390   35.0420   43.3450 C   0  0  0  0  0  0  0  0  0  0  0  0
   46.4360   34.0660   43.9560 N   0  0  0  0  0  0  0  0  0  0  0  0
   46.2130   33.6970   45.2500 C   0  0  0  0  0  0  0  0  0  0  0  0
   45.2470   34.3510   45.9330 N   0  0  0  0  0  0  0  0  0  0  0  0
   43.7480   35.8470   45.9350 H   0  0  0  0  0  0  0  0  0  0  0  0
   44.1800   36.4940   43.5730 H   0  0  0  0  0  0  0  0  0  0  0  0
   45.9840   35.2610   42.3290 H   0  0  0  0  0  0  0  0  0  0  0  0
   44.3920   28.6820   47.2950 O   0  0  0  0  0  0  0  0  0  0  0  0
   44.3320   26.1290   46.8230 O   0  0  0  0  0  0  0  0  0  0  0  0
   44.9700   27.1580   47.7370 P   0  0  2  0  0  0  0  0  0  0  0  0
   44.5260   26.8870   49.3360 O   0  0  0  0  0  0  0  0  0  0  0  0
   45.2430   27.2010   49.9270 H   0  0  0  0  0  0  0  0  0  0  0  0
   46.6490   27.0540   47.5440 O   0  0  0  0  0  0  0  0  0  0  0  0
   46.3300   24.7550   49.1790 H   0  0  0  0  0  0  0  0  0  0  0  0
   47.2700   25.1880   49.0500 N   0  0  0  0  0  0  0  0  0  0  0  0
   47.4910   26.2780   48.2880 C   0  0  0  0  0  0  0  0  0  0  0  0
   48.8070   26.5640   48.3440 N   0  0  0  0  0  0  0  0  0  0  0  0
   49.3700   25.6310   49.1470 C   0  0  0  0  0  0  0  0  0  0  0  0
   50.7180   25.5160   49.5060 C   0  0  0  0  0  0  0  0  0  0  0  0
   51.0390   24.4970   50.3250 N   0  0  0  0  0  0  0  0  0  0  0  0
   50.0820   23.6440   50.7600 C   0  0  0  0  0  0  0  0  0  0  0  0
   50.4730   22.8750   51.4090 H   0  0  0  0  0  0  0  0  0  0  0  0
   48.7740   23.7550   50.4130 N   0  0  0  0  0  0  0  0  0  0  0  0
   48.4140   24.7490   49.6060 C   0  0  0  0  0  0  0  0  0  0  0  0
   51.6710   26.4580   49.0030 N   0  0  0  0  0  0  0  0  0  0  0  0
   52.1990   27.2030   49.5230 H   0  0  0  0  0  0  0  0  0  0  0  0
   51.9240   26.4610   47.9840 H   0  0  0  0  0  0  0  0  0  0  0  0
  1  2  1  0  0  0  0
  2  3  2  0  0  0  0
  2  7  1  0  0  0  0
  3  4  1  0  0  0  0
  4  8  1  0  0  0  0
  4  5  2  0  0  0  0
  5  9  1  0  0  0  0
  6  5  1  0  0  0  0
  6 10  1  0  0  0  0
  7  6  2  0  0  0  0
 11 12  1  0  0  0  0
 11  3  1  0  0  0  0
 13 11  1  0  0  0  0
 14 19  1  0  0  0  0
 14 20  1  0  0  0  0
 15 14  2  0  0  0  0
 16 17  2  0  0  0  0
 16 15  1  0  0  0  0
 17 18  1  0  0  0  0
 18 11  1  0  0  0  0
 18 19  2  0  0  0  0
 21 15  1  0  0  0  0
 22 16  1  0  0  0  0
 23  7  1  0  0  0  0
 23 25  1  0  0  0  0
 25 24  2  6  0  0  0
 25 26  1  0  0  0  0
 26 27  1  0  0  0  0
 28 25  1  0  0  0  0
 28 31  1  0  0  0  0
 30 29  1  0  0  0  0
 30 39  1  0  0  0  0
 31 32  2  0  0  0  0
 31 30  1  0  0  0  0
 32 33  1  0  0  0  0
 33 34  2  0  0  0  0
 33 39  1  0  0  0  0
 34 35  1  0  0  0  0
 35 36  2  0  0  0  0
 36 37  1  0  0  0  0
 38 36  1  0  0  0  0
 39 38  2  0  0  0  0
 40 34  1  0  0  0  0
 40 41  1  0  0  0  0
 42 40  1  0  0  0  0
M  END
>  <minimizedAffinity>
-5.78859425

>  <minimizedRMSD>
0.458367705

$$$$
