
 OpenBabel03252500283D

 48 51  0  0  1  0  0  0  0  0999 V2000
   47.0870   33.1620   46.6110 O   0  0  0  0  0  0  0  0  0  0  0  0
   45.6240   32.9090   46.5210 P   0  0  1  0  0  0  0  0  0  0  0  0
   45.3350   31.7320   45.3370 O   0  0  0  0  0  0  0  0  0  0  0  0
   45.8440   31.9890   44.5410 H   0  0  0  0  0  0  0  0  0  0  0  0
   45.1350   32.3500   47.9940 O   0  0  0  0  0  0  0  0  0  0  0  0
   46.9910   30.8470   48.0470 C   0  0  2  0  0  0  0  0  0  0  0  0
   45.5270   31.0460   48.1640 C   0  0  2  0  0  0  0  0  0  0  0  0
   44.9150   30.1370   47.2190 C   0  0  0  0  0  0  0  0  0  0  0  0
   45.8160   29.0970   46.9480 O   0  0  0  0  0  0  0  0  0  0  0  0
   46.8760   29.2980   47.7640 C   0  0  0  0  0  0  0  0  0  0  0  0
   47.4740   31.0730   47.0810 H   0  0  0  0  0  0  0  0  0  0  0  0
   45.3400   30.8650   49.2620 H   0  0  0  0  0  0  0  0  0  0  0  0
   44.2000   29.5250   47.8790 H   0  0  0  0  0  0  0  0  0  0  0  0
   44.2040   30.3970   46.4660 H   0  0  0  0  0  0  0  0  0  0  0  0
   46.6970   28.8770   48.7960 H   0  0  0  0  0  0  0  0  0  0  0  0
   47.8340   28.8940   47.4490 H   0  0  0  0  0  0  0  0  0  0  0  0
   47.7250   31.0020   49.1600 O   0  0  0  0  0  0  0  0  0  0  0  0
   48.9750   31.3590   49.2120 C   0  0  0  0  0  0  0  0  0  0  0  0
   49.3440   32.3500   49.1080 H   0  0  0  0  0  0  0  0  0  0  0  0
   49.4460   30.8260   48.2150 H   0  0  0  0  0  0  0  0  0  0  0  0
   49.6870   30.5080   50.2500 C   0  0  0  0  0  0  0  0  0  0  0  0
   49.4180   30.8090   51.2790 H   0  0  0  0  0  0  0  0  0  0  0  0
   49.4150   29.4570   50.0250 H   0  0  0  0  0  0  0  0  0  0  0  0
   50.7830   30.6720   50.0740 H   0  0  0  0  0  0  0  0  0  0  0  0
   44.9150   34.4070   46.1110 O   0  0  0  0  0  0  0  0  0  0  0  0
   45.3400   36.5960   43.3010 C   0  0  0  0  0  0  0  0  0  0  0  0
   44.8010   35.8700   42.2120 C   0  0  0  0  0  0  0  0  0  0  0  0
   44.2890   34.5880   42.5110 C   0  0  0  0  0  0  0  0  0  0  0  0
   44.3390   34.1400   43.7820 N   0  0  0  0  0  0  0  0  0  0  0  0
   44.8600   34.8660   44.7830 C   0  0  0  0  0  0  0  0  0  0  0  0
   45.3560   36.0870   44.5400 N   0  0  0  0  0  0  0  0  0  0  0  0
   44.7680   36.2410   41.2030 H   0  0  0  0  0  0  0  0  0  0  0  0
   43.8630   33.9770   41.7370 H   0  0  0  0  0  0  0  0  0  0  0  0
   45.8460   37.8360   43.0540 O   0  0  0  0  0  0  0  0  0  0  0  0
   45.6070   40.6050   42.4210 H   0  0  0  0  0  0  0  0  0  0  0  0
   45.3970   40.2870   43.3890 N   0  0  0  0  0  0  0  0  0  0  0  0
   45.5040   38.9850   43.7090 C   0  0  0  0  0  0  0  0  0  0  0  0
   45.1720   38.8820   45.0170 N   0  0  0  0  0  0  0  0  0  0  0  0
   44.8720   40.1210   45.4600 C   0  0  0  0  0  0  0  0  0  0  0  0
   44.4700   40.6380   46.6900 C   0  0  0  0  0  0  0  0  0  0  0  0
   44.2270   41.9450   46.8820 N   0  0  0  0  0  0  0  0  0  0  0  0
   44.3770   42.8050   45.8410 C   0  0  0  0  0  0  0  0  0  0  0  0
   44.2120   43.8760   45.8730 H   0  0  0  0  0  0  0  0  0  0  0  0
   44.7700   42.3380   44.6200 N   0  0  0  0  0  0  0  0  0  0  0  0
   45.0090   41.0350   44.4370 C   0  0  0  0  0  0  0  0  0  0  0  0
   44.3060   39.7480   47.8000 N   0  0  0  0  0  0  0  0  0  0  0  0
   43.6730   39.0020   48.1590 H   0  0  0  0  0  0  0  0  0  0  0  0
   45.1140   39.9400   48.4510 H   0  0  0  0  0  0  0  0  0  0  0  0
  2  1  2  1  0  0  0
  2  5  1  0  0  0  0
  3  2  1  0  0  0  0
  4  3  1  0  0  0  0
  5  7  1  0  0  0  0
  6 11  1  6  0  0  0
  6  7  1  0  0  0  0
  6 17  1  0  0  0  0
  7 12  1  1  0  0  0
  8 13  1  0  0  0  0
  8  7  1  0  0  0  0
  9  8  1  0  0  0  0
  9 10  1  0  0  0  0
 10  6  1  0  0  0  0
 10 15  1  0  0  0  0
 14  8  1  0  0  0  0
 16 10  1  0  0  0  0
 17 18  1  0  0  0  0
 18 21  1  0  0  0  0
 19 18  1  0  0  0  0
 20 18  1  0  0  0  0
 21 22  1  0  0  0  0
 23 21  1  0  0  0  0
 24 21  1  0  0  0  0
 25  2  1  0  0  0  0
 26 31  1  0  0  0  0
 27 28  1  0  0  0  0
 27 26  2  0  0  0  0
 28 29  2  0  0  0  0
 29 30  1  0  0  0  0
 30 25  1  0  0  0  0
 31 30  2  0  0  0  0
 32 27  1  0  0  0  0
 33 28  1  0  0  0  0
 34 26  1  0  0  0  0
 34 37  1  0  0  0  0
 35 36  1  0  0  0  0
 36 37  1  0  0  0  0
 36 45  1  0  0  0  0
 37 38  2  0  0  0  0
 38 39  1  0  0  0  0
 39 40  1  0  0  0  0
 40 41  2  0  0  0  0
 40 46  1  0  0  0  0
 42 43  1  0  0  0  0
 42 41  1  0  0  0  0
 44 42  2  0  0  0  0
 45 44  1  0  0  0  0
 45 39  2  0  0  0  0
 46 47  1  0  0  0  0
 46 48  1  0  0  0  0
M  END
>  <minimizedAffinity>
-3.16756821

>  <minimizedRMSD>
0.879249275

$$$$
