
 OpenBabel03252504003D

 39 43  0  0  0  0  0  0  0  0999 V2000
   47.4700   34.5730   42.8320 C   0  0  0  0  0  0  0  0  0  0  0  0
   46.5250   35.5530   42.5050 C   0  0  0  0  0  0  0  0  0  0  0  0
   45.3410   35.5830   43.2380 C   0  0  0  0  0  0  0  0  0  0  0  0
   45.1740   34.6690   44.2220 N   0  0  0  0  0  0  0  0  0  0  0  0
   46.1070   33.7410   44.5080 C   0  0  0  0  0  0  0  0  0  0  0  0
   47.2600   33.6840   43.8190 N   0  0  0  0  0  0  0  0  0  0  0  0
   46.6860   36.2750   41.7080 H   0  0  0  0  0  0  0  0  0  0  0  0
   44.5950   36.3360   42.9990 H   0  0  0  0  0  0  0  0  0  0  0  0
   45.9670   31.4080   45.2360 C   0  0  0  0  0  0  0  0  0  0  0  0
   45.9050   32.7560   45.5810 C   0  0  0  0  0  0  0  0  0  0  0  0
   45.6610   33.1120   46.8870 C   0  0  0  0  0  0  0  0  0  0  0  0
   45.4820   32.1310   47.8400 C   0  0  0  0  0  0  0  0  0  0  0  0
   45.2360   32.1580   49.1500 N   0  0  0  0  0  0  0  0  0  0  0  0
   45.1390   30.9270   49.6600 C   0  0  0  0  0  0  0  0  0  0  0  0
   45.3280   30.0330   48.6430 C   0  0  0  0  0  0  0  0  0  0  0  0
   45.5430   30.7880   47.5040 C   0  0  0  0  0  0  0  0  0  0  0  0
   45.7880   30.4250   46.1860 C   0  0  0  0  0  0  0  0  0  0  0  0
   46.1590   31.1040   44.2070 H   0  0  0  0  0  0  0  0  0  0  0  0
   45.6140   34.1620   47.1490 H   0  0  0  0  0  0  0  0  0  0  0  0
   45.1360   33.0430   49.6950 H   0  0  0  0  0  0  0  0  0  0  0  0
   44.9430   30.6900   50.7080 H   0  0  0  0  0  0  0  0  0  0  0  0
   45.3170   28.9720   48.6940 H   0  0  0  0  0  0  0  0  0  0  0  0
   45.8430   29.3930   45.8810 H   0  0  0  0  0  0  0  0  0  0  0  0
   48.6710   34.5960   42.0350 C   0  0  0  0  0  0  0  0  0  0  0  0
   49.7680   35.1470   42.3880 O   0  0  0  0  0  0  0  0  0  0  0  0
   50.1470   32.3750   40.9630 H   0  0  0  0  0  0  0  0  0  0  0  0
   49.4710   32.8930   40.3900 N   0  0  0  0  0  0  0  0  0  0  0  0
   48.6900   33.9500   40.7060 C   0  0  0  0  0  0  0  0  0  0  0  0
   47.9640   34.2870   39.6240 N   0  0  0  0  0  0  0  0  0  0  0  0
   48.2580   33.4670   38.6080 C   0  0  0  0  0  0  0  0  0  0  0  0
   47.8950   33.2710   37.2910 C   0  0  0  0  0  0  0  0  0  0  0  0
   48.3870   32.3230   36.4930 N   0  0  0  0  0  0  0  0  0  0  0  0
   49.3210   31.4730   36.9990 C   0  0  0  0  0  0  0  0  0  0  0  0
   49.8100   30.6610   36.4820 H   0  0  0  0  0  0  0  0  0  0  0  0
   49.6960   31.6380   38.2800 N   0  0  0  0  0  0  0  0  0  0  0  0
   49.2100   32.5870   39.0920 C   0  0  0  0  0  0  0  0  0  0  0  0
   46.9190   34.1540   36.7520 N   0  0  0  0  0  0  0  0  0  0  0  0
   45.9530   33.9380   37.1400 H   0  0  0  0  0  0  0  0  0  0  0  0
   46.6510   34.9520   36.1350 H   0  0  0  0  0  0  0  0  0  0  0  0
  1  6  1  0  0  0  0
  2  1  2  0  0  0  0
  2  3  1  0  0  0  0
  3  4  2  0  0  0  0
  4  5  1  0  0  0  0
  5 10  1  0  0  0  0
  6  5  2  0  0  0  0
  7  2  1  0  0  0  0
  8  3  1  0  0  0  0
  9 10  2  0  0  0  0
  9 17  1  0  0  0  0
 10 11  1  0  0  0  0
 11 19  1  0  0  0  0
 11 12  2  0  0  0  0
 12 13  1  0  0  0  0
 13 14  1  0  0  0  0
 13 20  1  0  0  0  0
 14 21  1  0  0  0  0
 15 22  1  0  0  0  0
 15 14  2  0  0  0  0
 16 12  1  0  0  0  0
 16 15  1  0  0  0  0
 17 16  2  0  0  0  0
 18  9  1  0  0  0  0
 23 17  1  0  0  0  0
 24 25  2  0  0  0  0
 24  1  1  0  0  0  0
 27 28  1  0  0  0  0
 27 26  1  0  0  0  0
 28 24  1  0  0  0  0
 29 28  2  0  0  0  0
 30 36  1  0  0  0  0
 30 29  1  0  0  0  0
 31 30  2  0  0  0  0
 32 33  2  0  0  0  0
 32 31  1  0  0  0  0
 33 35  1  0  0  0  0
 34 33  1  0  0  0  0
 35 36  2  0  0  0  0
 36 27  1  0  0  0  0
 37 38  1  0  0  0  0
 37 31  1  0  0  0  0
 39 37  1  0  0  0  0
M  END
>  <minimizedAffinity>
-7.18326616

>  <minimizedRMSD>
0.923543155

$$$$
