
 OpenBabel03252504233D

 37 41  0  0  0  0  0  0  0  0999 V2000
   47.4870   33.9230   43.0240 C   0  0  0  0  0  0  0  0  0  0  0  0
   47.3500   33.1240   44.1650 C   0  0  0  0  0  0  0  0  0  0  0  0
   46.0530   32.7450   44.5620 C   0  0  0  0  0  0  0  0  0  0  0  0
   45.0110   33.1850   43.8010 N   0  0  0  0  0  0  0  0  0  0  0  0
   45.1900   33.9590   42.7030 C   0  0  0  0  0  0  0  0  0  0  0  0
   46.4240   34.3220   42.3190 N   0  0  0  0  0  0  0  0  0  0  0  0
   44.0410   34.3680   41.9720 N   0  0  0  0  0  0  0  0  0  0  0  0
   43.8040   35.6140   41.4960 C   0  0  0  0  0  0  0  0  0  0  0  0
   42.5980   35.5940   40.8560 N   0  0  0  0  0  0  0  0  0  0  0  0
   42.1290   34.3550   40.9530 C   0  0  0  0  0  0  0  0  0  0  0  0
   40.9900   33.7360   40.5170 C   0  0  0  0  0  0  0  0  0  0  0  0
   40.7400   32.4480   40.7460 N   0  0  0  0  0  0  0  0  0  0  0  0
   41.6050   31.6640   41.4290 C   0  0  0  0  0  0  0  0  0  0  0  0
   42.7230   32.2620   41.8590 N   0  0  0  0  0  0  0  0  0  0  0  0
   43.0150   33.5530   41.6530 C   0  0  0  0  0  0  0  0  0  0  0  0
   48.1680   32.7700   44.7760 H   0  0  0  0  0  0  0  0  0  0  0  0
   45.8910   32.1340   45.4300 H   0  0  0  0  0  0  0  0  0  0  0  0
   44.4380   36.4950   41.5870 H   0  0  0  0  0  0  0  0  0  0  0  0
   41.4140   30.6130   41.6220 H   0  0  0  0  0  0  0  0  0  0  0  0
   39.9830   34.4050   39.7900 N   0  0  0  0  0  0  0  0  0  0  0  0
   39.2850   34.8990   40.4150 H   0  0  0  0  0  0  0  0  0  0  0  0
   39.8410   34.4720   38.7660 H   0  0  0  0  0  0  0  0  0  0  0  0
   49.1950   34.3400   42.6210 S   0  0  0  0  0  0  0  0  0  0  0  0
   48.5500   32.9770   39.8990 H   0  0  0  0  0  0  0  0  0  0  0  0
   49.4560   32.6900   40.3130 N   0  0  0  0  0  0  0  0  0  0  0  0
   49.9050   33.1720   41.4860 C   0  0  0  0  0  0  0  0  0  0  0  0
   51.1030   32.5750   41.6960 N   0  0  0  0  0  0  0  0  0  0  0  0
   51.3710   31.7570   40.6850 C   0  0  0  0  0  0  0  0  0  0  0  0
   52.4130   30.9130   40.3660 C   0  0  0  0  0  0  0  0  0  0  0  0
   52.3570   30.2150   39.2320 N   0  0  0  0  0  0  0  0  0  0  0  0
   51.3290   30.2930   38.3770 C   0  0  0  0  0  0  0  0  0  0  0  0
   51.3890   29.6760   37.4790 H   0  0  0  0  0  0  0  0  0  0  0  0
   50.2810   31.1090   38.6480 N   0  0  0  0  0  0  0  0  0  0  0  0
   50.3270   31.8170   39.7890 C   0  0  0  0  0  0  0  0  0  0  0  0
   53.5230   30.7840   41.2170 N   0  0  0  0  0  0  0  0  0  0  0  0
   53.7330   31.4550   41.9920 H   0  0  0  0  0  0  0  0  0  0  0  0
   54.2090   29.9970   41.1170 H   0  0  0  0  0  0  0  0  0  0  0  0
  1  2  1  0  0  0  0
  2  3  2  0  0  0  0
  2 16  1  0  0  0  0
  3 17  1  0  0  0  0
  4  3  1  0  0  0  0
  5  4  2  0  0  0  0
  6  5  1  0  0  0  0
  6  1  2  0  0  0  0
  7  5  1  0  0  0  0
  8 18  1  0  0  0  0
  8  7  1  0  0  0  0
  9 10  1  0  0  0  0
  9  8  2  0  0  0  0
 10 15  1  0  0  0  0
 11 12  1  0  0  0  0
 11 10  2  0  0  0  0
 12 13  2  0  0  0  0
 13 19  1  0  0  0  0
 13 14  1  0  0  0  0
 15 14  2  0  0  0  0
 15  7  1  0  0  0  0
 20 21  1  0  0  0  0
 20 11  1  0  0  0  0
 22 20  1  0  0  0  0
 23  1  1  0  0  0  0
 24 25  1  0  0  0  0
 25 26  1  0  0  0  0
 26 27  2  0  0  0  0
 26 23  1  0  0  0  0
 28 27  1  0  0  0  0
 29 28  1  0  0  0  0
 29 35  1  0  0  0  0
 30 29  2  0  0  0  0
 31 33  2  0  0  0  0
 31 30  1  0  0  0  0
 32 31  1  0  0  0  0
 33 34  1  0  0  0  0
 34 25  1  0  0  0  0
 34 28  2  0  0  0  0
 35 36  1  0  0  0  0
 37 35  1  0  0  0  0
M  END
>  <minimizedAffinity>
-5.93670416

>  <minimizedRMSD>
7.04643202

$$$$
