
 OpenBabel03252504483D

 32 34  0  0  0  0  0  0  0  0999 V2000
   38.4900   31.1200   39.2680 O   0  0  0  0  0  0  0  0  0  0  0  0
   38.2980   31.9440   40.5350 P   0  0  1  0  0  0  0  0  0  0  0  0
   36.6250   32.1800   40.6860 O   0  0  0  0  0  0  0  0  0  0  0  0
   36.3570   33.0750   40.3480 H   0  0  0  0  0  0  0  0  0  0  0  0
   38.9510   31.0430   41.8040 O   0  0  0  0  0  0  0  0  0  0  0  0
   38.7560   27.7250   43.2060 C   0  0  0  0  0  0  0  0  0  0  0  0
   37.4260   27.3750   42.9110 C   0  0  0  0  0  0  0  0  0  0  0  0
   36.6490   28.3280   42.2270 C   0  0  0  0  0  0  0  0  0  0  0  0
   37.2280   29.5110   41.8990 N   0  0  0  0  0  0  0  0  0  0  0  0
   38.5090   29.7870   42.2100 C   0  0  0  0  0  0  0  0  0  0  0  0
   39.2760   28.8920   42.8660 N   0  0  0  0  0  0  0  0  0  0  0  0
   36.9960   26.4230   43.1870 H   0  0  0  0  0  0  0  0  0  0  0  0
   35.6210   28.0950   41.9820 H   0  0  0  0  0  0  0  0  0  0  0  0
   39.5760   26.6970   43.9410 C   0  0  0  0  0  0  0  0  0  0  0  0
   40.6500   26.7650   43.6620 H   0  0  0  0  0  0  0  0  0  0  0  0
   39.1620   25.6750   43.7670 H   0  0  0  0  0  0  0  0  0  0  0  0
   39.4670   26.9450   45.0190 H   0  0  0  0  0  0  0  0  0  0  0  0
   39.0230   33.4540   40.4340 O   0  0  0  0  0  0  0  0  0  0  0  0
   41.3130   33.3310   42.1420 H   0  0  0  0  0  0  0  0  0  0  0  0
   41.4880   33.5220   41.1510 N   0  0  0  0  0  0  0  0  0  0  0  0
   40.4020   33.5750   40.3680 C   0  0  0  0  0  0  0  0  0  0  0  0
   40.8030   33.8320   39.1090 N   0  0  0  0  0  0  0  0  0  0  0  0
   42.1440   33.9510   39.0360 C   0  0  0  0  0  0  0  0  0  0  0  0
   43.1310   34.1960   38.1050 C   0  0  0  0  0  0  0  0  0  0  0  0
   44.4400   34.2400   38.4400 N   0  0  0  0  0  0  0  0  0  0  0  0
   44.7450   34.0320   39.7410 C   0  0  0  0  0  0  0  0  0  0  0  0
   45.7950   34.0750   39.9670 H   0  0  0  0  0  0  0  0  0  0  0  0
   43.8200   33.7860   40.7120 N   0  0  0  0  0  0  0  0  0  0  0  0
   42.5320   33.7500   40.3340 C   0  0  0  0  0  0  0  0  0  0  0  0
   42.6870   34.4000   36.7660 N   0  0  0  0  0  0  0  0  0  0  0  0
   42.2390   33.8740   35.9880 H   0  0  0  0  0  0  0  0  0  0  0  0
   42.8900   35.4040   36.5180 H   0  0  0  0  0  0  0  0  0  0  0  0
  2  1  2  6  0  0  0
  2  3  1  0  0  0  0
  2  5  1  0  0  0  0
  4  3  1  0  0  0  0
  5 10  1  0  0  0  0
  6 14  1  0  0  0  0
  7 12  1  0  0  0  0
  7  6  1  0  0  0  0
  8  7  2  0  0  0  0
  9 10  2  0  0  0  0
  9  8  1  0  0  0  0
 10 11  1  0  0  0  0
 11  6  2  0  0  0  0
 13  8  1  0  0  0  0
 14 17  1  0  0  0  0
 15 14  1  0  0  0  0
 16 14  1  0  0  0  0
 18  2  1  0  0  0  0
 20 19  1  0  0  0  0
 21 18  1  0  0  0  0
 21 20  1  0  0  0  0
 22 21  2  0  0  0  0
 23 22  1  0  0  0  0
 23 29  1  0  0  0  0
 24 25  1  0  0  0  0
 24 23  2  0  0  0  0
 25 26  2  0  0  0  0
 26 27  1  0  0  0  0
 26 28  1  0  0  0  0
 29 28  2  0  0  0  0
 29 20  1  0  0  0  0
 30 24  1  0  0  0  0
 31 30  1  0  0  0  0
 32 30  1  0  0  0  0
M  END
>  <minimizedAffinity>
-6.52878761

$$$$

 OpenBabel03252504483D

 32 34  0  0  0  0  0  0  0  0999 V2000
   36.3730   30.5540   38.9970 O   0  0  0  0  0  0  0  0  0  0  0  0
   36.9180   31.1200   40.3040 P   0  0  1  0  0  0  0  0  0  0  0  0
   35.6570   30.9850   41.4300 O   0  0  0  0  0  0  0  0  0  0  0  0
   35.1750   31.8480   41.5330 H   0  0  0  0  0  0  0  0  0  0  0  0
   38.2650   30.1880   40.7110 O   0  0  0  0  0  0  0  0  0  0  0  0
   37.3740   27.8620   43.3200 C   0  0  0  0  0  0  0  0  0  0  0  0
   38.6370   27.3770   43.7050 C   0  0  0  0  0  0  0  0  0  0  0  0
   39.7560   27.8930   43.0250 C   0  0  0  0  0  0  0  0  0  0  0  0
   39.5460   28.8150   42.0530 N   0  0  0  0  0  0  0  0  0  0  0  0
   38.3100   29.2410   41.7300 C   0  0  0  0  0  0  0  0  0  0  0  0
   37.2200   28.7630   42.3640 N   0  0  0  0  0  0  0  0  0  0  0  0
   38.7690   26.6410   44.4850 H   0  0  0  0  0  0  0  0  0  0  0  0
   40.7440   27.5440   43.2940 H   0  0  0  0  0  0  0  0  0  0  0  0
   36.1840   27.3000   44.0550 C   0  0  0  0  0  0  0  0  0  0  0  0
   35.3660   28.0490   44.1260 H   0  0  0  0  0  0  0  0  0  0  0  0
   36.4920   26.9210   45.0580 H   0  0  0  0  0  0  0  0  0  0  0  0
   35.8360   26.4410   43.4420 H   0  0  0  0  0  0  0  0  0  0  0  0
   37.3240   32.7430   40.1780 O   0  0  0  0  0  0  0  0  0  0  0  0
   39.1610   33.8580   42.0660 H   0  0  0  0  0  0  0  0  0  0  0  0
   39.5230   33.6740   41.1250 N   0  0  0  0  0  0  0  0  0  0  0  0
   38.6460   33.1510   40.2560 C   0  0  0  0  0  0  0  0  0  0  0  0
   39.2750   32.9720   39.0800 N   0  0  0  0  0  0  0  0  0  0  0  0
   40.5620   33.3670   39.1470 C   0  0  0  0  0  0  0  0  0  0  0  0
   41.6830   33.4470   38.3480 C   0  0  0  0  0  0  0  0  0  0  0  0
   42.8600   33.9290   38.8060 N   0  0  0  0  0  0  0  0  0  0  0  0
   42.8930   34.3360   40.0950 C   0  0  0  0  0  0  0  0  0  0  0  0
   43.8450   34.7140   40.4220 H   0  0  0  0  0  0  0  0  0  0  0  0
   41.8230   34.2850   40.9390 N   0  0  0  0  0  0  0  0  0  0  0  0
   40.6750   33.7980   40.4420 C   0  0  0  0  0  0  0  0  0  0  0  0
   41.5260   32.9890   37.0070 N   0  0  0  0  0  0  0  0  0  0  0  0
   41.3520   32.1060   36.4840 H   0  0  0  0  0  0  0  0  0  0  0  0
   41.6200   33.8280   36.3760 H   0  0  0  0  0  0  0  0  0  0  0  0
  2  1  2  6  0  0  0
  2  5  1  0  0  0  0
  2  3  1  0  0  0  0
  3  4  1  0  0  0  0
  5 10  1  0  0  0  0
  6  7  1  0  0  0  0
  6 14  1  0  0  0  0
  7 12  1  0  0  0  0
  8 13  1  0  0  0  0
  8  7  2  0  0  0  0
  9  8  1  0  0  0  0
 10  9  2  0  0  0  0
 10 11  1  0  0  0  0
 11  6  2  0  0  0  0
 14 15  1  0  0  0  0
 14 16  1  0  0  0  0
 17 14  1  0  0  0  0
 18 21  1  0  0  0  0
 18  2  1  0  0  0  0
 20 19  1  0  0  0  0
 21 20  1  0  0  0  0
 22 23  1  0  0  0  0
 22 21  2  0  0  0  0
 23 29  1  0  0  0  0
 24 25  1  0  0  0  0
 24 23  2  0  0  0  0
 25 26  2  0  0  0  0
 26 27  1  0  0  0  0
 26 28  1  0  0  0  0
 29 28  2  0  0  0  0
 29 20  1  0  0  0  0
 30 24  1  0  0  0  0
 31 30  1  0  0  0  0
 32 30  1  0  0  0  0
M  END
>  <minimizedAffinity>
-6.34890318

$$$$

 OpenBabel03252504483D

 32 34  0  0  0  0  0  0  0  0999 V2000
   36.5510   30.9830   38.8720 O   0  0  0  0  0  0  0  0  0  0  0  0
   37.0930   31.1860   40.2820 P   0  0  1  0  0  0  0  0  0  0  0  0
   35.7610   31.0170   41.3200 O   0  0  0  0  0  0  0  0  0  0  0  0
   35.4000   31.9040   41.5870 H   0  0  0  0  0  0  0  0  0  0  0  0
   38.2690   30.0010   40.5250 O   0  0  0  0  0  0  0  0  0  0  0  0
   37.3800   27.8500   43.2810 C   0  0  0  0  0  0  0  0  0  0  0  0
   38.6430   27.3870   43.6930 C   0  0  0  0  0  0  0  0  0  0  0  0
   39.7610   27.8550   42.9780 C   0  0  0  0  0  0  0  0  0  0  0  0
   39.5510   28.7130   41.9480 N   0  0  0  0  0  0  0  0  0  0  0  0
   38.3140   29.1200   41.6020 C   0  0  0  0  0  0  0  0  0  0  0  0
   37.2250   28.6870   42.2690 N   0  0  0  0  0  0  0  0  0  0  0  0
   38.7750   26.7030   44.5180 H   0  0  0  0  0  0  0  0  0  0  0  0
   40.7490   27.5220   43.2650 H   0  0  0  0  0  0  0  0  0  0  0  0
   36.1910   27.3390   44.0530 C   0  0  0  0  0  0  0  0  0  0  0  0
   35.3750   28.0940   44.0780 H   0  0  0  0  0  0  0  0  0  0  0  0
   36.5010   27.0250   45.0780 H   0  0  0  0  0  0  0  0  0  0  0  0
   35.8390   26.4440   43.4980 H   0  0  0  0  0  0  0  0  0  0  0  0
   37.7290   32.7220   40.5090 O   0  0  0  0  0  0  0  0  0  0  0  0
   38.9220   33.3060   37.9760 H   0  0  0  0  0  0  0  0  0  0  0  0
   39.5380   33.3430   38.7950 N   0  0  0  0  0  0  0  0  0  0  0  0
   38.9590   33.0660   39.9720 C   0  0  0  0  0  0  0  0  0  0  0  0
   39.8960   33.1580   40.9330 N   0  0  0  0  0  0  0  0  0  0  0  0
   41.0960   33.4920   40.4180 C   0  0  0  0  0  0  0  0  0  0  0  0
   42.3900   33.7320   40.8310 C   0  0  0  0  0  0  0  0  0  0  0  0
   43.3720   34.0630   39.9620 N   0  0  0  0  0  0  0  0  0  0  0  0
   43.0300   34.1470   38.6560 C   0  0  0  0  0  0  0  0  0  0  0  0
   43.8370   34.4110   37.9970 H   0  0  0  0  0  0  0  0  0  0  0  0
   41.7720   33.9220   38.1810 N   0  0  0  0  0  0  0  0  0  0  0  0
   40.8280   33.5980   39.0790 C   0  0  0  0  0  0  0  0  0  0  0  0
   42.6300   33.6120   42.2300 N   0  0  0  0  0  0  0  0  0  0  0  0
   42.3760   34.0820   43.1230 H   0  0  0  0  0  0  0  0  0  0  0  0
   43.2630   32.7810   42.3700 H   0  0  0  0  0  0  0  0  0  0  0  0
  2  1  2  6  0  0  0
  2 18  1  0  0  0  0
  2  5  1  0  0  0  0
  2  3  1  0  0  0  0
  3  4  1  0  0  0  0
  5 10  1  0  0  0  0
  6  7  1  0  0  0  0
  6 14  1  0  0  0  0
  7 12  1  0  0  0  0
  8 13  1  0  0  0  0
  8  7  2  0  0  0  0
  9  8  1  0  0  0  0
 10  9  2  0  0  0  0
 10 11  1  0  0  0  0
 11  6  2  0  0  0  0
 14 15  1  0  0  0  0
 14 16  1  0  0  0  0
 17 14  1  0  0  0  0
 19 20  1  0  0  0  0
 20 29  1  0  0  0  0
 20 21  1  0  0  0  0
 21 18  1  0  0  0  0
 21 22  2  0  0  0  0
 23 24  1  0  0  0  0
 23 22  1  0  0  0  0
 24 30  1  0  0  0  0
 25 24  2  0  0  0  0
 26 25  1  0  0  0  0
 27 26  1  0  0  0  0
 28 26  2  0  0  0  0
 28 29  1  0  0  0  0
 29 23  2  0  0  0  0
 30 32  1  0  0  0  0
 30 31  1  0  0  0  0
M  END
>  <minimizedAffinity>
-6.26350546

$$$$

 OpenBabel03252504483D

 32 34  0  0  0  0  0  0  0  0999 V2000
   34.8720   29.1520   40.2820 O   0  0  0  0  0  0  0  0  0  0  0  0
   36.1070   30.0350   40.4260 P   0  0  1  0  0  0  0  0  0  0  0  0
   35.6850   31.2470   41.5340 O   0  0  0  0  0  0  0  0  0  0  0  0
   35.4310   32.0870   41.0680 H   0  0  0  0  0  0  0  0  0  0  0  0
   37.3520   29.0410   40.9830 O   0  0  0  0  0  0  0  0  0  0  0  0
   37.3920   25.4350   41.0880 C   0  0  0  0  0  0  0  0  0  0  0  0
   37.9120   25.1250   39.8190 C   0  0  0  0  0  0  0  0  0  0  0  0
   38.2280   26.2050   38.9740 C   0  0  0  0  0  0  0  0  0  0  0  0
   38.0130   27.4630   39.4340 N   0  0  0  0  0  0  0  0  0  0  0  0
   37.5120   27.6960   40.6620 C   0  0  0  0  0  0  0  0  0  0  0  0
   37.2000   26.6800   41.4930 N   0  0  0  0  0  0  0  0  0  0  0  0
   38.0700   24.1100   39.4830 H   0  0  0  0  0  0  0  0  0  0  0  0
   38.6310   26.0050   37.9890 H   0  0  0  0  0  0  0  0  0  0  0  0
   37.0550   24.2700   41.9820 C   0  0  0  0  0  0  0  0  0  0  0  0
   37.1930   24.5320   43.0530 H   0  0  0  0  0  0  0  0  0  0  0  0
   37.6520   23.3730   41.6900 H   0  0  0  0  0  0  0  0  0  0  0  0
   35.9800   24.0560   41.7980 H   0  0  0  0  0  0  0  0  0  0  0  0
   36.5320   30.7820   38.9850 O   0  0  0  0  0  0  0  0  0  0  0  0
   38.8660   30.9470   37.3400 H   0  0  0  0  0  0  0  0  0  0  0  0
   38.8080   31.6040   38.1240 N   0  0  0  0  0  0  0  0  0  0  0  0
   37.7060   31.5100   38.8820 C   0  0  0  0  0  0  0  0  0  0  0  0
   37.7870   32.4330   39.8580 N   0  0  0  0  0  0  0  0  0  0  0  0
   38.9270   33.1460   39.7650 C   0  0  0  0  0  0  0  0  0  0  0  0
   39.5820   34.1750   40.4090 C   0  0  0  0  0  0  0  0  0  0  0  0
   40.7810   34.6390   39.9890 N   0  0  0  0  0  0  0  0  0  0  0  0
   41.3180   34.0440   38.9000 C   0  0  0  0  0  0  0  0  0  0  0  0
   42.2710   34.4400   38.5980 H   0  0  0  0  0  0  0  0  0  0  0  0
   40.7250   33.0230   38.2170 N   0  0  0  0  0  0  0  0  0  0  0  0
   39.5350   32.5960   38.6690 C   0  0  0  0  0  0  0  0  0  0  0  0
   38.9170   34.7220   41.5450 N   0  0  0  0  0  0  0  0  0  0  0  0
   38.0630   35.2670   41.7800 H   0  0  0  0  0  0  0  0  0  0  0  0
   39.4960   34.4810   42.3930 H   0  0  0  0  0  0  0  0  0  0  0  0
  2  1  2  6  0  0  0
  2  5  1  0  0  0  0
  2  3  1  0  0  0  0
  4  3  1  0  0  0  0
  6 11  1  0  0  0  0
  6 14  1  0  0  0  0
  7  6  2  0  0  0  0
  8  9  2  0  0  0  0
  8  7  1  0  0  0  0
  9 10  1  0  0  0  0
 10  5  1  0  0  0  0
 10 11  2  0  0  0  0
 12  7  1  0  0  0  0
 13  8  1  0  0  0  0
 14 15  1  0  0  0  0
 16 14  1  0  0  0  0
 17 14  1  0  0  0  0
 18  2  1  0  0  0  0
 19 20  1  0  0  0  0
 20 29  1  0  0  0  0
 20 21  1  0  0  0  0
 21 18  1  0  0  0  0
 21 22  2  0  0  0  0
 23 22  1  0  0  0  0
 23 24  1  0  0  0  0
 24 30  1  0  0  0  0
 25 24  2  0  0  0  0
 26 25  1  0  0  0  0
 27 26  1  0  0  0  0
 28 29  1  0  0  0  0
 28 26  2  0  0  0  0
 29 23  2  0  0  0  0
 30 31  1  0  0  0  0
 30 32  1  0  0  0  0
M  END
>  <minimizedAffinity>
-5.70913076

$$$$

 OpenBabel03252504483D

 32 34  0  0  0  0  0  0  0  0999 V2000
   36.6710   31.0850   41.0730 O   0  0  0  0  0  0  0  0  0  0  0  0
   37.3190   29.7590   41.4560 P   0  0  1  0  0  0  0  0  0  0  0  0
   36.9240   29.5030   43.0850 O   0  0  0  0  0  0  0  0  0  0  0  0
   37.6730   29.7690   43.6820 H   0  0  0  0  0  0  0  0  0  0  0  0
   36.6690   28.5880   40.4300 O   0  0  0  0  0  0  0  0  0  0  0  0
   36.5230   25.0090   40.0030 C   0  0  0  0  0  0  0  0  0  0  0  0
   36.9050   24.5590   41.2800 C   0  0  0  0  0  0  0  0  0  0  0  0
   37.2000   25.5420   42.2430 C   0  0  0  0  0  0  0  0  0  0  0  0
   37.0980   26.8450   41.8820 N   0  0  0  0  0  0  0  0  0  0  0  0
   36.7250   27.2130   40.6410 C   0  0  0  0  0  0  0  0  0  0  0  0
   36.4370   26.2930   39.6970 N   0  0  0  0  0  0  0  0  0  0  0  0
   36.9770   23.5120   41.5340 H   0  0  0  0  0  0  0  0  0  0  0  0
   37.4980   25.2350   43.2370 H   0  0  0  0  0  0  0  0  0  0  0  0
   36.2120   23.9470   38.9800 C   0  0  0  0  0  0  0  0  0  0  0  0
   35.4390   24.2960   38.2610 H   0  0  0  0  0  0  0  0  0  0  0  0
   35.9160   22.9980   39.4860 H   0  0  0  0  0  0  0  0  0  0  0  0
   37.1640   23.7760   38.4320 H   0  0  0  0  0  0  0  0  0  0  0  0
   38.9920   29.8060   41.3330 O   0  0  0  0  0  0  0  0  0  0  0  0
   40.1990   32.0570   42.6180 H   0  0  0  0  0  0  0  0  0  0  0  0
   40.2180   32.0470   41.5940 N   0  0  0  0  0  0  0  0  0  0  0  0
   39.6470   30.9830   41.0120 C   0  0  0  0  0  0  0  0  0  0  0  0
   39.7570   31.1250   39.6780 N   0  0  0  0  0  0  0  0  0  0  0  0
   40.3930   32.2690   39.3560 C   0  0  0  0  0  0  0  0  0  0  0  0
   40.8040   32.9680   38.2410 C   0  0  0  0  0  0  0  0  0  0  0  0
   41.4530   34.1510   38.3330 N   0  0  0  0  0  0  0  0  0  0  0  0
   41.6830   34.6260   39.5780 C   0  0  0  0  0  0  0  0  0  0  0  0
   42.2000   35.5680   39.6100 H   0  0  0  0  0  0  0  0  0  0  0  0
   41.3050   33.9860   40.7210 N   0  0  0  0  0  0  0  0  0  0  0  0
   40.6640   32.8140   40.5830 C   0  0  0  0  0  0  0  0  0  0  0  0
   40.5040   32.3680   36.9840 N   0  0  0  0  0  0  0  0  0  0  0  0
   40.7640   31.5340   36.4190 H   0  0  0  0  0  0  0  0  0  0  0  0
   39.7970   32.9850   36.5030 H   0  0  0  0  0  0  0  0  0  0  0  0
  2  1  2  6  0  0  0
  2  3  1  0  0  0  0
  3  4  1  0  0  0  0
  5 10  1  0  0  0  0
  5  2  1  0  0  0  0
  6  7  1  0  0  0  0
  7 12  1  0  0  0  0
  7  8  2  0  0  0  0
  8 13  1  0  0  0  0
  9  8  1  0  0  0  0
 10  9  2  0  0  0  0
 11  6  2  0  0  0  0
 11 10  1  0  0  0  0
 14 16  1  0  0  0  0
 14  6  1  0  0  0  0
 15 14  1  0  0  0  0
 17 14  1  0  0  0  0
 18  2  1  0  0  0  0
 20 19  1  0  0  0  0
 21 18  1  0  0  0  0
 21 20  1  0  0  0  0
 22 21  2  0  0  0  0
 23 22  1  0  0  0  0
 23 29  1  0  0  0  0
 24 25  1  0  0  0  0
 24 23  2  0  0  0  0
 25 26  2  0  0  0  0
 26 27  1  0  0  0  0
 26 28  1  0  0  0  0
 29 28  2  0  0  0  0
 29 20  1  0  0  0  0
 30 24  1  0  0  0  0
 31 30  1  0  0  0  0
 32 30  1  0  0  0  0
M  END
>  <minimizedAffinity>
-5.65496826

$$$$

 OpenBabel03252504483D

 32 34  0  0  0  0  0  0  0  0999 V2000
   36.0380   27.9250   39.7230 O   0  0  0  0  0  0  0  0  0  0  0  0
   35.5770   29.3230   40.1210 P   0  0  1  0  0  0  0  0  0  0  0  0
   33.8830   29.2880   40.0600 O   0  0  0  0  0  0  0  0  0  0  0  0
   33.5460   29.6770   39.2100 H   0  0  0  0  0  0  0  0  0  0  0  0
   36.1730   29.6060   41.6740 O   0  0  0  0  0  0  0  0  0  0  0  0
   39.5900   28.9650   42.6360 C   0  0  0  0  0  0  0  0  0  0  0  0
   39.4590   27.7560   43.3430 C   0  0  0  0  0  0  0  0  0  0  0  0
   38.1650   27.2150   43.4520 C   0  0  0  0  0  0  0  0  0  0  0  0
   37.1380   27.8870   42.8740 N   0  0  0  0  0  0  0  0  0  0  0  0
   37.3280   29.0420   42.2080 C   0  0  0  0  0  0  0  0  0  0  0  0
   38.5570   29.5840   42.0890 N   0  0  0  0  0  0  0  0  0  0  0  0
   40.2990   27.2460   43.7910 H   0  0  0  0  0  0  0  0  0  0  0  0
   38.0240   26.2860   43.9890 H   0  0  0  0  0  0  0  0  0  0  0  0
   40.9810   29.5350   42.5280 C   0  0  0  0  0  0  0  0  0  0  0  0
   41.1110   30.0980   41.5780 H   0  0  0  0  0  0  0  0  0  0  0  0
   41.7410   28.7260   42.6420 H   0  0  0  0  0  0  0  0  0  0  0  0
   41.0800   30.2380   43.3820 H   0  0  0  0  0  0  0  0  0  0  0  0
   36.1060   30.5010   39.0490 O   0  0  0  0  0  0  0  0  0  0  0  0
   36.8970   32.1790   41.2260 H   0  0  0  0  0  0  0  0  0  0  0  0
   37.5150   32.1650   40.4080 N   0  0  0  0  0  0  0  0  0  0  0  0
   37.1250   31.3720   39.3990 C   0  0  0  0  0  0  0  0  0  0  0  0
   38.0360   31.4670   38.4140 N   0  0  0  0  0  0  0  0  0  0  0  0
   39.0320   32.3130   38.7460 C   0  0  0  0  0  0  0  0  0  0  0  0
   40.2000   32.8240   38.2210 C   0  0  0  0  0  0  0  0  0  0  0  0
   40.9720   33.7010   38.9020 N   0  0  0  0  0  0  0  0  0  0  0  0
   40.5450   34.0610   40.1340 C   0  0  0  0  0  0  0  0  0  0  0  0
   41.1840   34.7600   40.6430 H   0  0  0  0  0  0  0  0  0  0  0  0
   39.4020   33.5960   40.7120 N   0  0  0  0  0  0  0  0  0  0  0  0
   38.6670   32.7260   40.0000 C   0  0  0  0  0  0  0  0  0  0  0  0
   40.5470   32.3700   36.9150 N   0  0  0  0  0  0  0  0  0  0  0  0
   40.8400   31.4990   36.4280 H   0  0  0  0  0  0  0  0  0  0  0  0
   40.4730   33.1980   36.2660 H   0  0  0  0  0  0  0  0  0  0  0  0
  2  1  2  6  0  0  0
  2  5  1  0  0  0  0
  3  2  1  0  0  0  0
  4  3  1  0  0  0  0
  5 10  1  0  0  0  0
  6  7  1  0  0  0  0
  7  8  2  0  0  0  0
  7 12  1  0  0  0  0
  8 13  1  0  0  0  0
  9  8  1  0  0  0  0
 10  9  2  0  0  0  0
 11 10  1  0  0  0  0
 11  6  2  0  0  0  0
 14  6  1  0  0  0  0
 14 16  1  0  0  0  0
 14 17  1  0  0  0  0
 15 14  1  0  0  0  0
 18 21  1  0  0  0  0
 18  2  1  0  0  0  0
 20 19  1  0  0  0  0
 21 20  1  0  0  0  0
 22 23  1  0  0  0  0
 22 21  2  0  0  0  0
 23 29  1  0  0  0  0
 24 23  2  0  0  0  0
 24 25  1  0  0  0  0
 25 26  2  0  0  0  0
 26 27  1  0  0  0  0
 26 28  1  0  0  0  0
 29 20  1  0  0  0  0
 29 28  2  0  0  0  0
 30 24  1  0  0  0  0
 31 30  1  0  0  0  0
 32 30  1  0  0  0  0
M  END
>  <minimizedAffinity>
-5.59030294

$$$$

 OpenBabel03252504483D

 32 34  0  0  0  0  0  0  0  0999 V2000
   36.8570   30.6740   39.5660 O   0  0  0  0  0  0  0  0  0  0  0  0
   37.7880   31.8260   39.9310 P   0  0  1  0  0  0  0  0  0  0  0  0
   36.7810   33.1560   40.2410 O   0  0  0  0  0  0  0  0  0  0  0  0
   36.7320   33.7590   39.4530 H   0  0  0  0  0  0  0  0  0  0  0  0
   38.6600   31.3330   41.2890 O   0  0  0  0  0  0  0  0  0  0  0  0
   37.8550   28.3200   43.1020 C   0  0  0  0  0  0  0  0  0  0  0  0
   38.9040   27.4690   42.7100 C   0  0  0  0  0  0  0  0  0  0  0  0
   39.8570   27.9960   41.8180 C   0  0  0  0  0  0  0  0  0  0  0  0
   39.7030   29.2770   41.3980 N   0  0  0  0  0  0  0  0  0  0  0  0
   38.6750   30.0430   41.8110 C   0  0  0  0  0  0  0  0  0  0  0  0
   37.7470   29.5630   42.6650 N   0  0  0  0  0  0  0  0  0  0  0  0
   38.9970   26.4530   43.0640 H   0  0  0  0  0  0  0  0  0  0  0  0
   40.6790   27.3720   41.4940 H   0  0  0  0  0  0  0  0  0  0  0  0
   36.8400   27.7430   44.0550 C   0  0  0  0  0  0  0  0  0  0  0  0
   36.4210   28.5300   44.7190 H   0  0  0  0  0  0  0  0  0  0  0  0
   37.2890   26.9020   44.6340 H   0  0  0  0  0  0  0  0  0  0  0  0
   36.0270   27.3390   43.4140 H   0  0  0  0  0  0  0  0  0  0  0  0
   38.8160   32.2420   38.6720 O   0  0  0  0  0  0  0  0  0  0  0  0
   40.6910   30.5430   40.0060 H   0  0  0  0  0  0  0  0  0  0  0  0
   41.0800   31.2720   39.4000 N   0  0  0  0  0  0  0  0  0  0  0  0
   40.1840   32.0570   38.7840 C   0  0  0  0  0  0  0  0  0  0  0  0
   40.8540   32.9510   38.0340 N   0  0  0  0  0  0  0  0  0  0  0  0
   42.1870   32.7780   38.1380 C   0  0  0  0  0  0  0  0  0  0  0  0
   43.3610   33.3220   37.6600 C   0  0  0  0  0  0  0  0  0  0  0  0
   44.5740   32.8420   38.0170 N   0  0  0  0  0  0  0  0  0  0  0  0
   44.5880   31.7950   38.8730 C   0  0  0  0  0  0  0  0  0  0  0  0
   45.5700   31.4420   39.1330 H   0  0  0  0  0  0  0  0  0  0  0  0
   43.4670   31.2100   39.3830 N   0  0  0  0  0  0  0  0  0  0  0  0
   42.2840   31.7180   39.0010 C   0  0  0  0  0  0  0  0  0  0  0  0
   43.2180   34.4220   36.7660 N   0  0  0  0  0  0  0  0  0  0  0  0
   42.8640   34.6280   35.8090 H   0  0  0  0  0  0  0  0  0  0  0  0
   43.5990   35.2750   37.2540 H   0  0  0  0  0  0  0  0  0  0  0  0
  2  1  2  6  0  0  0
  2  3  1  0  0  0  0
  2  5  1  0  0  0  0
  4  3  1  0  0  0  0
  5 10  1  0  0  0  0
  6 14  1  0  0  0  0
  7 12  1  0  0  0  0
  7  6  1  0  0  0  0
  8  7  2  0  0  0  0
  9 10  2  0  0  0  0
  9  8  1  0  0  0  0
 10 11  1  0  0  0  0
 11  6  2  0  0  0  0
 13  8  1  0  0  0  0
 14 16  1  0  0  0  0
 14 15  1  0  0  0  0
 17 14  1  0  0  0  0
 18 21  1  0  0  0  0
 18  2  1  0  0  0  0
 20 19  1  0  0  0  0
 21 20  1  0  0  0  0
 22 23  1  0  0  0  0
 22 21  2  0  0  0  0
 23 29  1  0  0  0  0
 24 25  1  0  0  0  0
 24 23  2  0  0  0  0
 25 26  2  0  0  0  0
 26 27  1  0  0  0  0
 26 28  1  0  0  0  0
 29 28  2  0  0  0  0
 29 20  1  0  0  0  0
 30 32  1  0  0  0  0
 30 24  1  0  0  0  0
 31 30  1  0  0  0  0
M  END
>  <minimizedAffinity>
-5.52609015

$$$$

 OpenBabel03252504483D

 32 34  0  0  0  0  0  0  0  0999 V2000
   38.0980   28.9000   38.3670 O   0  0  0  0  0  0  0  0  0  0  0  0
   36.9250   29.8720   38.4210 P   0  0  1  0  0  0  0  0  0  0  0  0
   35.7140   29.1930   37.4470 O   0  0  0  0  0  0  0  0  0  0  0  0
   35.7070   29.6070   36.5430 H   0  0  0  0  0  0  0  0  0  0  0  0
   36.4710   29.9940   40.0420 O   0  0  0  0  0  0  0  0  0  0  0  0
   37.2310   27.1640   42.1470 C   0  0  0  0  0  0  0  0  0  0  0  0
   37.9410   27.7780   43.1950 C   0  0  0  0  0  0  0  0  0  0  0  0
   38.1240   29.1710   43.1150 C   0  0  0  0  0  0  0  0  0  0  0  0
   37.6080   29.8250   42.0440 N   0  0  0  0  0  0  0  0  0  0  0  0
   36.9360   29.1800   41.0710 C   0  0  0  0  0  0  0  0  0  0  0  0
   36.7470   27.8450   41.1220 N   0  0  0  0  0  0  0  0  0  0  0  0
   38.3380   27.2270   44.0340 H   0  0  0  0  0  0  0  0  0  0  0  0
   38.6650   29.6790   43.9020 H   0  0  0  0  0  0  0  0  0  0  0  0
   37.0440   25.6720   42.2440 C   0  0  0  0  0  0  0  0  0  0  0  0
   36.0900   25.3550   41.7680 H   0  0  0  0  0  0  0  0  0  0  0  0
   37.1120   25.3420   43.3070 H   0  0  0  0  0  0  0  0  0  0  0  0
   37.8940   25.2300   41.6790 H   0  0  0  0  0  0  0  0  0  0  0  0
   37.3100   31.3780   37.7890 O   0  0  0  0  0  0  0  0  0  0  0  0
   39.3950   31.9480   35.9160 H   0  0  0  0  0  0  0  0  0  0  0  0
   39.6120   32.0960   36.9070 N   0  0  0  0  0  0  0  0  0  0  0  0
   38.6220   31.8230   37.7680 C   0  0  0  0  0  0  0  0  0  0  0  0
   39.0680   32.0690   39.0130 N   0  0  0  0  0  0  0  0  0  0  0  0
   40.3440   32.5030   39.0010 C   0  0  0  0  0  0  0  0  0  0  0  0
   41.3290   32.9040   39.8790 C   0  0  0  0  0  0  0  0  0  0  0  0
   42.5540   33.2910   39.4570 N   0  0  0  0  0  0  0  0  0  0  0  0
   42.7760   33.2660   38.1230 C   0  0  0  0  0  0  0  0  0  0  0  0
   43.7610   33.5800   37.8270 H   0  0  0  0  0  0  0  0  0  0  0  0
   41.8480   32.8810   37.2010 N   0  0  0  0  0  0  0  0  0  0  0  0
   40.6450   32.5060   37.6650 C   0  0  0  0  0  0  0  0  0  0  0  0
   40.9770   32.8880   41.2600 N   0  0  0  0  0  0  0  0  0  0  0  0
   40.3420   33.3750   41.9240 H   0  0  0  0  0  0  0  0  0  0  0  0
   41.5580   32.1390   41.7220 H   0  0  0  0  0  0  0  0  0  0  0  0
  2  1  2  6  0  0  0
  2  5  1  0  0  0  0
  3  2  1  0  0  0  0
  4  3  1  0  0  0  0
  5 10  1  0  0  0  0
  6 14  1  0  0  0  0
  6  7  1  0  0  0  0
  7 12  1  0  0  0  0
  8  7  2  0  0  0  0
  8 13  1  0  0  0  0
  9  8  1  0  0  0  0
 10 11  1  0  0  0  0
 10  9  2  0  0  0  0
 11  6  2  0  0  0  0
 14 16  1  0  0  0  0
 15 14  1  0  0  0  0
 17 14  1  0  0  0  0
 18  2  1  0  0  0  0
 19 20  1  0  0  0  0
 20 29  1  0  0  0  0
 20 21  1  0  0  0  0
 21 18  1  0  0  0  0
 21 22  2  0  0  0  0
 23 22  1  0  0  0  0
 23 24  1  0  0  0  0
 24 30  1  0  0  0  0
 25 24  2  0  0  0  0
 26 25  1  0  0  0  0
 27 26  1  0  0  0  0
 28 29  1  0  0  0  0
 28 26  2  0  0  0  0
 29 23  2  0  0  0  0
 30 32  1  0  0  0  0
 30 31  1  0  0  0  0
M  END
>  <minimizedAffinity>
-5.46365261

$$$$

 OpenBabel03252504483D

 32 34  0  0  0  0  0  0  0  0999 V2000
   36.2660   30.9990   41.1650 O   0  0  0  0  0  0  0  0  0  0  0  0
   36.8260   29.5990   41.3930 P   0  0  1  0  0  0  0  0  0  0  0  0
   36.7820   29.3500   43.0710 O   0  0  0  0  0  0  0  0  0  0  0  0
   37.6720   29.5150   43.4810 H   0  0  0  0  0  0  0  0  0  0  0  0
   35.8290   28.5340   40.5450 O   0  0  0  0  0  0  0  0  0  0  0  0
   33.8720   29.0100   37.5530 C   0  0  0  0  0  0  0  0  0  0  0  0
   34.8670   28.9720   36.5590 C   0  0  0  0  0  0  0  0  0  0  0  0
   36.1940   28.7780   36.9880 C   0  0  0  0  0  0  0  0  0  0  0  0
   36.4240   28.6430   38.3180 N   0  0  0  0  0  0  0  0  0  0  0  0
   35.4270   28.6890   39.2220 C   0  0  0  0  0  0  0  0  0  0  0  0
   34.1460   28.8730   38.8390 N   0  0  0  0  0  0  0  0  0  0  0  0
   34.6490   29.0830   35.5070 H   0  0  0  0  0  0  0  0  0  0  0  0
   36.9870   28.7430   36.2530 H   0  0  0  0  0  0  0  0  0  0  0  0
   32.4570   29.2200   37.0800 C   0  0  0  0  0  0  0  0  0  0  0  0
   31.7300   28.7120   37.7510 H   0  0  0  0  0  0  0  0  0  0  0  0
   32.3500   28.8890   36.0200 H   0  0  0  0  0  0  0  0  0  0  0  0
   32.2870   30.3170   37.1290 H   0  0  0  0  0  0  0  0  0  0  0  0
   38.4210   29.4580   40.8940 O   0  0  0  0  0  0  0  0  0  0  0  0
   39.8780   31.3890   42.4200 H   0  0  0  0  0  0  0  0  0  0  0  0
   39.8960   31.4990   41.4010 N   0  0  0  0  0  0  0  0  0  0  0  0
   39.2070   30.5840   40.7050 C   0  0  0  0  0  0  0  0  0  0  0  0
   39.3320   30.8690   39.3960 N   0  0  0  0  0  0  0  0  0  0  0  0
   40.0950   31.9640   39.2030 C   0  0  0  0  0  0  0  0  0  0  0  0
   40.5840   32.7400   38.1730 C   0  0  0  0  0  0  0  0  0  0  0  0
   41.3640   33.8210   38.3960 N   0  0  0  0  0  0  0  0  0  0  0  0
   41.6470   34.1150   39.6850 C   0  0  0  0  0  0  0  0  0  0  0  0
   42.2690   34.9820   39.8210 H   0  0  0  0  0  0  0  0  0  0  0  0
   41.1980   33.3920   40.7500 N   0  0  0  0  0  0  0  0  0  0  0  0
   40.4270   32.3250   40.4820 C   0  0  0  0  0  0  0  0  0  0  0  0
   40.2170   32.3310   36.8580 N   0  0  0  0  0  0  0  0  0  0  0  0
   40.3800   31.5460   36.1950 H   0  0  0  0  0  0  0  0  0  0  0  0
   39.5860   33.0770   36.4630 H   0  0  0  0  0  0  0  0  0  0  0  0
  2  1  2  6  0  0  0
  2  3  1  0  0  0  0
  3  4  1  0  0  0  0
  5  2  1  0  0  0  0
  6 11  1  0  0  0  0
  7  8  1  0  0  0  0
  7  6  2  0  0  0  0
  8  9  2  0  0  0  0
  9 10  1  0  0  0  0
 10  5  1  0  0  0  0
 11 10  2  0  0  0  0
 12  7  1  0  0  0  0
 13  8  1  0  0  0  0
 14 17  1  0  0  0  0
 14  6  1  0  0  0  0
 14 15  1  0  0  0  0
 16 14  1  0  0  0  0
 18  2  1  0  0  0  0
 20 19  1  0  0  0  0
 21 18  1  0  0  0  0
 21 20  1  0  0  0  0
 22 21  2  0  0  0  0
 23 22  1  0  0  0  0
 23 29  1  0  0  0  0
 24 25  1  0  0  0  0
 24 23  2  0  0  0  0
 25 26  2  0  0  0  0
 26 27  1  0  0  0  0
 26 28  1  0  0  0  0
 29 28  2  0  0  0  0
 29 20  1  0  0  0  0
 30 24  1  0  0  0  0
 31 30  1  0  0  0  0
 32 30  1  0  0  0  0
M  END
>  <minimizedAffinity>
-5.41520834

$$$$
