
 OpenBabel03252503593D

 39 43  0  0  0  0  0  0  0  0999 V2000
   46.9110   35.0210   42.5920 C   0  0  0  0  0  0  0  0  0  0  0  0
   45.8920   35.9710   42.4460 C   0  0  0  0  0  0  0  0  0  0  0  0
   44.8300   35.9250   43.3460 C   0  0  0  0  0  0  0  0  0  0  0  0
   44.8430   34.9720   44.3060 N   0  0  0  0  0  0  0  0  0  0  0  0
   45.8420   34.0750   44.4150 C   0  0  0  0  0  0  0  0  0  0  0  0
   46.8820   34.0910   43.5620 N   0  0  0  0  0  0  0  0  0  0  0  0
   45.9070   36.7260   41.6650 H   0  0  0  0  0  0  0  0  0  0  0  0
   44.0290   36.6540   43.2490 H   0  0  0  0  0  0  0  0  0  0  0  0
   46.1770   31.7480   45.0940 C   0  0  0  0  0  0  0  0  0  0  0  0
   45.8380   33.0460   45.4650 C   0  0  0  0  0  0  0  0  0  0  0  0
   45.5160   33.3160   46.7740 C   0  0  0  0  0  0  0  0  0  0  0  0
   45.5330   32.2980   47.7060 C   0  0  0  0  0  0  0  0  0  0  0  0
   45.2770   32.2450   49.0130 N   0  0  0  0  0  0  0  0  0  0  0  0
   45.4300   31.0090   49.4960 C   0  0  0  0  0  0  0  0  0  0  0  0
   45.8060   30.1950   48.4640 C   0  0  0  0  0  0  0  0  0  0  0  0
   45.8700   31.0030   47.3440 C   0  0  0  0  0  0  0  0  0  0  0  0
   46.1960   30.7280   46.0220 C   0  0  0  0  0  0  0  0  0  0  0  0
   46.4350   31.5120   44.0620 H   0  0  0  0  0  0  0  0  0  0  0  0
   45.2520   34.3280   47.0580 H   0  0  0  0  0  0  0  0  0  0  0  0
   44.9940   33.0780   49.5740 H   0  0  0  0  0  0  0  0  0  0  0  0
   45.2780   30.7140   50.5370 H   0  0  0  0  0  0  0  0  0  0  0  0
   46.0110   29.1540   48.4940 H   0  0  0  0  0  0  0  0  0  0  0  0
   46.4630   29.7350   45.6970 H   0  0  0  0  0  0  0  0  0  0  0  0
   47.9800   35.1230   41.6290 C   0  0  0  0  0  0  0  0  0  0  0  0
   49.0870   35.7250   41.8330 O   0  0  0  0  0  0  0  0  0  0  0  0
   49.5090   35.3270   39.2040 H   0  0  0  0  0  0  0  0  0  0  0  0
   48.6750   34.7300   39.2610 N   0  0  0  0  0  0  0  0  0  0  0  0
   47.8350   34.5030   40.2950 C   0  0  0  0  0  0  0  0  0  0  0  0
   46.8820   33.6420   39.8940 N   0  0  0  0  0  0  0  0  0  0  0  0
   47.0860   33.3030   38.6170 C   0  0  0  0  0  0  0  0  0  0  0  0
   46.5130   32.5060   37.6470 C   0  0  0  0  0  0  0  0  0  0  0  0
   46.9680   32.3650   36.4010 N   0  0  0  0  0  0  0  0  0  0  0  0
   48.0840   33.0540   36.0400 C   0  0  0  0  0  0  0  0  0  0  0  0
   48.5710   33.0450   35.0760 H   0  0  0  0  0  0  0  0  0  0  0  0
   48.6670   33.8410   36.9630 N   0  0  0  0  0  0  0  0  0  0  0  0
   48.2190   33.9900   38.2180 C   0  0  0  0  0  0  0  0  0  0  0  0
   45.3450   31.7810   38.0140 N   0  0  0  0  0  0  0  0  0  0  0  0
   45.5860   30.9710   38.6590 H   0  0  0  0  0  0  0  0  0  0  0  0
   44.3150   31.6290   37.9730 H   0  0  0  0  0  0  0  0  0  0  0  0
  1  6  1  0  0  0  0
  2  1  2  0  0  0  0
  2  3  1  0  0  0  0
  3  4  2  0  0  0  0
  4  5  1  0  0  0  0
  5 10  1  0  0  0  0
  6  5  2  0  0  0  0
  7  2  1  0  0  0  0
  8  3  1  0  0  0  0
  9 10  2  0  0  0  0
  9 17  1  0  0  0  0
 10 11  1  0  0  0  0
 11 19  1  0  0  0  0
 11 12  2  0  0  0  0
 12 13  1  0  0  0  0
 13 14  1  0  0  0  0
 13 20  1  0  0  0  0
 14 21  1  0  0  0  0
 15 22  1  0  0  0  0
 15 14  2  0  0  0  0
 16 12  1  0  0  0  0
 16 15  1  0  0  0  0
 17 16  2  0  0  0  0
 18  9  1  0  0  0  0
 23 17  1  0  0  0  0
 24 25  2  0  0  0  0
 24  1  1  0  0  0  0
 26 27  1  0  0  0  0
 27 28  1  0  0  0  0
 28 24  1  0  0  0  0
 29 28  2  0  0  0  0
 30 29  1  0  0  0  0
 31 37  1  0  0  0  0
 31 30  2  0  0  0  0
 32 31  1  0  0  0  0
 33 32  2  0  0  0  0
 33 35  1  0  0  0  0
 34 33  1  0  0  0  0
 35 36  2  0  0  0  0
 36 30  1  0  0  0  0
 36 27  1  0  0  0  0
 37 38  1  0  0  0  0
 39 37  1  0  0  0  0
M  END
>  <minimizedAffinity>
-7.15188217

>  <minimizedRMSD>
1.12988508

$$$$
