
 OpenBabel03252506253D

 50 55  0  0  0  0  0  0  0  0999 V2000
   45.4940   27.8790   47.9980 C   0  0  0  0  0  0  0  0  0  0  0  0
   45.1810   29.2210   47.9150 C   0  0  0  0  0  0  0  0  0  0  0  0
   44.3050   29.5870   46.8890 C   0  0  0  0  0  0  0  0  0  0  0  0
   43.7840   28.6620   46.0130 C   0  0  0  0  0  0  0  0  0  0  0  0
   42.9410   28.7180   44.9570 N   0  0  0  0  0  0  0  0  0  0  0  0
   42.7520   27.5010   44.4330 C   0  0  0  0  0  0  0  0  0  0  0  0
   43.4870   26.5820   45.1510 C   0  0  0  0  0  0  0  0  0  0  0  0
   44.1060   27.3360   46.1120 C   0  0  0  0  0  0  0  0  0  0  0  0
   44.9730   26.9690   47.1240 C   0  0  0  0  0  0  0  0  0  0  0  0
   46.1800   27.6600   48.8170 H   0  0  0  0  0  0  0  0  0  0  0  0
   43.9680   30.5980   46.6980 H   0  0  0  0  0  0  0  0  0  0  0  0
   42.4880   29.5820   44.5850 H   0  0  0  0  0  0  0  0  0  0  0  0
   42.1190   27.2550   43.5740 H   0  0  0  0  0  0  0  0  0  0  0  0
   43.5130   25.5240   44.9360 H   0  0  0  0  0  0  0  0  0  0  0  0
   45.3460   25.6060   47.2790 N   0  0  0  0  0  0  0  0  0  0  0  0
   44.8410   24.8440   48.2560 C   0  0  0  0  0  0  0  0  0  0  0  0
   44.1320   25.0060   49.0660 H   0  0  0  0  0  0  0  0  0  0  0  0
   45.3570   23.6010   48.1790 N   0  0  0  0  0  0  0  0  0  0  0  0
   46.2060   23.5690   47.1360 C   0  0  0  0  0  0  0  0  0  0  0  0
   47.0320   22.6120   46.5410 C   0  0  0  0  0  0  0  0  0  0  0  0
   47.7790   22.9340   45.4640 N   0  0  0  0  0  0  0  0  0  0  0  0
   47.7450   24.1880   44.9360 C   0  0  0  0  0  0  0  0  0  0  0  0
   48.3790   24.3350   44.0780 H   0  0  0  0  0  0  0  0  0  0  0  0
   46.9480   25.1460   45.4920 N   0  0  0  0  0  0  0  0  0  0  0  0
   46.1970   24.8470   46.5640 C   0  0  0  0  0  0  0  0  0  0  0  0
   46.9820   21.3560   47.1770 N   0  0  0  0  0  0  0  0  0  0  0  0
   47.6760   21.4540   47.9750 H   0  0  0  0  0  0  0  0  0  0  0  0
   46.2710   20.8700   46.5740 H   0  0  0  0  0  0  0  0  0  0  0  0
   45.6160   30.3460   48.7290 C   0  0  0  0  0  0  0  0  0  0  0  0
   44.8440   31.1380   48.7830 H   0  0  0  0  0  0  0  0  0  0  0  0
   45.6870   29.9640   49.7880 H   0  0  0  0  0  0  0  0  0  0  0  0
   46.9320   30.9450   48.4140 C   0  0  0  0  0  0  0  0  0  0  0  0
   47.7660   30.2560   48.5010 H   0  0  0  0  0  0  0  0  0  0  0  0
   47.1030   31.7790   49.1330 H   0  0  0  0  0  0  0  0  0  0  0  0
   46.4240   32.9760   45.5150 C   0  0  0  0  0  0  0  0  0  0  0  0
   47.2260   31.9270   44.9970 C   0  0  0  0  0  0  0  0  0  0  0  0
   47.5080   31.0570   46.0000 C   0  0  0  0  0  0  0  0  0  0  0  0
   46.9040   31.5500   47.0890 N   0  0  0  0  0  0  0  0  0  0  0  0
   46.2620   32.6880   46.8010 N   0  0  0  0  0  0  0  0  0  0  0  0
   47.5520   31.8490   43.9630 H   0  0  0  0  0  0  0  0  0  0  0  0
   48.0850   30.1420   45.9980 H   0  0  0  0  0  0  0  0  0  0  0  0
   44.4980   35.9070   44.5210 C   0  0  0  0  0  0  0  0  0  0  0  0
   44.9880   36.1990   43.2590 C   0  0  0  0  0  0  0  0  0  0  0  0
   46.0000   35.3720   42.7400 C   0  0  0  0  0  0  0  0  0  0  0  0
   46.4250   34.3480   43.5110 N   0  0  0  0  0  0  0  0  0  0  0  0
   45.9320   34.0860   44.7350 C   0  0  0  0  0  0  0  0  0  0  0  0
   44.9630   34.8710   45.2390 N   0  0  0  0  0  0  0  0  0  0  0  0
   43.7280   36.5740   44.8590 H   0  0  0  0  0  0  0  0  0  0  0  0
   44.6950   36.9870   42.6090 H   0  0  0  0  0  0  0  0  0  0  0  0
   46.4520   35.5060   41.7740 H   0  0  0  0  0  0  0  0  0  0  0  0
  1 10  1  0  0  0  0
  2  1  1  0  0  0  0
  2 29  1  0  0  0  0
  3  2  2  0  0  0  0
  4  8  2  0  0  0  0
  4  3  1  0  0  0  0
  5  4  1  0  0  0  0
  6  5  1  0  0  0  0
  6  7  2  0  0  0  0
  7  8  1  0  0  0  0
  8  9  1  0  0  0  0
  9 15  1  0  0  0  0
  9  1  2  0  0  0  0
 11  3  1  0  0  0  0
 12  5  1  0  0  0  0
 13  6  1  0  0  0  0
 14  7  1  0  0  0  0
 15 16  1  0  0  0  0
 16 17  1  0  0  0  0
 18 16  2  0  0  0  0
 19 18  1  0  0  0  0
 20 19  2  0  0  0  0
 20 26  1  0  0  0  0
 21 20  1  0  0  0  0
 22 21  2  0  0  0  0
 22 24  1  0  0  0  0
 23 22  1  0  0  0  0
 24 25  2  0  0  0  0
 25 19  1  0  0  0  0
 25 15  1  0  0  0  0
 26 27  1  0  0  0  0
 28 26  1  0  0  0  0
 29 30  1  0  0  0  0
 29 31  1  0  0  0  0
 32 33  1  0  0  0  0
 32 29  1  0  0  0  0
 32 34  1  0  0  0  0
 35 39  2  0  0  0  0
 36 35  1  0  0  0  0
 36 37  2  0  0  0  0
 37 38  1  0  0  0  0
 38 32  1  0  0  0  0
 39 38  1  0  0  0  0
 40 36  1  0  0  0  0
 41 37  1  0  0  0  0
 42 48  1  0  0  0  0
 42 47  1  0  0  0  0
 43 42  2  0  0  0  0
 44 43  1  0  0  0  0
 44 45  2  0  0  0  0
 45 46  1  0  0  0  0
 46 47  2  0  0  0  0
 46 35  1  0  0  0  0
 49 43  1  0  0  0  0
 50 44  1  0  0  0  0
M  END
>  <minimizedAffinity>
-5.60511971

>  <minimizedRMSD>
1.66155779

$$$$
