
 OpenBabel03252502563D

 42 45  0  0  0  0  0  0  0  0999 V2000
   45.6190   30.0030   44.7280 Br  0  0  0  0  0  0  0  0  0  0  0  0
   45.6690   30.6070   46.5690 C   0  0  0  0  0  0  0  0  0  0  0  0
   46.3510   31.7620   46.7830 C   0  0  0  0  0  0  0  0  0  0  0  0
   46.3710   32.1740   48.1220 C   0  0  0  0  0  0  0  0  0  0  0  0
   45.7580   31.4800   49.1350 C   0  0  0  0  0  0  0  0  0  0  0  0
   45.0900   30.3220   48.8330 C   0  0  0  0  0  0  0  0  0  0  0  0
   45.0360   29.8640   47.5320 C   0  0  0  0  0  0  0  0  0  0  0  0
   46.8820   33.0770   48.4070 H   0  0  0  0  0  0  0  0  0  0  0  0
   45.7980   31.8340   50.1550 H   0  0  0  0  0  0  0  0  0  0  0  0
   44.5900   29.7320   49.5860 H   0  0  0  0  0  0  0  0  0  0  0  0
   47.0440   32.5950   45.7970 C   0  0  0  0  0  0  0  0  0  0  0  0
   47.9920   32.9500   46.2160 H   0  0  0  0  0  0  0  0  0  0  0  0
   47.3340   31.9070   44.9550 H   0  0  0  0  0  0  0  0  0  0  0  0
   44.5360   35.3180   45.3860 C   0  0  0  0  0  0  0  0  0  0  0  0
   44.7490   35.7150   44.0670 C   0  0  0  0  0  0  0  0  0  0  0  0
   45.7430   35.0490   43.3380 C   0  0  0  0  0  0  0  0  0  0  0  0
   46.4400   34.0670   43.9390 N   0  0  0  0  0  0  0  0  0  0  0  0
   46.2200   33.6890   45.2310 C   0  0  0  0  0  0  0  0  0  0  0  0
   45.2580   34.3400   45.9220 N   0  0  0  0  0  0  0  0  0  0  0  0
   43.7630   35.8410   45.9410 H   0  0  0  0  0  0  0  0  0  0  0  0
   44.1890   36.5040   43.5830 H   0  0  0  0  0  0  0  0  0  0  0  0
   45.9850   35.2760   42.3230 H   0  0  0  0  0  0  0  0  0  0  0  0
   44.3550   28.6860   47.2370 O   0  0  0  0  0  0  0  0  0  0  0  0
   44.1880   26.1290   46.8170 O   0  0  0  0  0  0  0  0  0  0  0  0
   44.8850   27.1490   47.6970 P   0  0  2  0  0  0  0  0  0  0  0  0
   44.4670   26.9260   49.3100 O   0  0  0  0  0  0  0  0  0  0  0  0
   45.2090   27.2230   49.8790 H   0  0  0  0  0  0  0  0  0  0  0  0
   46.5540   26.9780   47.4690 O   0  0  0  0  0  0  0  0  0  0  0  0
   49.2330   27.2380   48.3780 H   0  0  0  0  0  0  0  0  0  0  0  0
   48.6640   26.4030   48.6340 N   0  0  0  0  0  0  0  0  0  0  0  0
   47.3900   26.2180   48.2370 C   0  0  0  0  0  0  0  0  0  0  0  0
   46.9620   25.0440   48.7440 N   0  0  0  0  0  0  0  0  0  0  0  0
   47.9970   24.5290   49.4490 C   0  0  0  0  0  0  0  0  0  0  0  0
   48.0320   23.3230   50.1570 C   0  0  0  0  0  0  0  0  0  0  0  0
   49.1850   23.0240   50.7850 N   0  0  0  0  0  0  0  0  0  0  0  0
   50.2380   23.8700   50.7140 C   0  0  0  0  0  0  0  0  0  0  0  0
   51.0990   23.5130   51.2600 H   0  0  0  0  0  0  0  0  0  0  0  0
   50.2070   25.0420   50.0280 N   0  0  0  0  0  0  0  0  0  0  0  0
   49.0850   25.3750   49.3930 C   0  0  0  0  0  0  0  0  0  0  0  0
   46.8750   22.4810   50.1840 N   0  0  0  0  0  0  0  0  0  0  0  0
   46.7320   21.5410   49.7370 H   0  0  0  0  0  0  0  0  0  0  0  0
   46.0140   22.7830   50.7040 H   0  0  0  0  0  0  0  0  0  0  0  0
  1  2  1  0  0  0  0
  2  3  2  0  0  0  0
  2  7  1  0  0  0  0
  3  4  1  0  0  0  0
  4  8  1  0  0  0  0
  4  5  2  0  0  0  0
  5  9  1  0  0  0  0
  6  5  1  0  0  0  0
  6 10  1  0  0  0  0
  7  6  2  0  0  0  0
 11 12  1  0  0  0  0
 11  3  1  0  0  0  0
 13 11  1  0  0  0  0
 14 19  1  0  0  0  0
 14 20  1  0  0  0  0
 15 14  2  0  0  0  0
 16 17  2  0  0  0  0
 16 15  1  0  0  0  0
 17 18  1  0  0  0  0
 18 11  1  0  0  0  0
 18 19  2  0  0  0  0
 21 15  1  0  0  0  0
 22 16  1  0  0  0  0
 23  7  1  0  0  0  0
 23 25  1  0  0  0  0
 25 24  2  6  0  0  0
 25 26  1  0  0  0  0
 26 27  1  0  0  0  0
 28 25  1  0  0  0  0
 28 31  1  0  0  0  0
 29 30  1  0  0  0  0
 30 39  1  0  0  0  0
 31 30  1  0  0  0  0
 31 32  2  0  0  0  0
 32 33  1  0  0  0  0
 33 34  1  0  0  0  0
 34 40  1  0  0  0  0
 34 35  2  0  0  0  0
 36 35  1  0  0  0  0
 36 37  1  0  0  0  0
 38 36  2  0  0  0  0
 39 33  2  0  0  0  0
 39 38  1  0  0  0  0
 40 42  1  0  0  0  0
 41 40  1  0  0  0  0
M  END
>  <minimizedAffinity>
-6.16688538

>  <minimizedRMSD>
0.545931339

$$$$
