
 OpenBabel03252504473D

 32 34  0  0  0  0  0  0  0  0999 V2000
   45.4320   31.6350   49.5050 O   0  0  0  0  0  0  0  0  0  0  0  0
   45.6860   31.5770   48.0020 P   0  0  1  0  0  0  0  0  0  0  0  0
   44.6260   30.4000   47.3970 O   0  0  0  0  0  0  0  0  0  0  0  0
   45.0910   29.5310   47.2680 H   0  0  0  0  0  0  0  0  0  0  0  0
   45.3690   33.1200   47.3980 O   0  0  0  0  0  0  0  0  0  0  0  0
   45.4230   34.9290   44.2770 C   0  0  0  0  0  0  0  0  0  0  0  0
   46.4330   34.2460   43.5760 C   0  0  0  0  0  0  0  0  0  0  0  0
   47.0560   33.1710   44.2360 C   0  0  0  0  0  0  0  0  0  0  0  0
   46.6470   32.8660   45.4930 N   0  0  0  0  0  0  0  0  0  0  0  0
   45.6720   33.5590   46.1120 C   0  0  0  0  0  0  0  0  0  0  0  0
   45.0580   34.5940   45.5030 N   0  0  0  0  0  0  0  0  0  0  0  0
   46.7350   34.5160   42.5750 H   0  0  0  0  0  0  0  0  0  0  0  0
   47.8380   32.6210   43.7290 H   0  0  0  0  0  0  0  0  0  0  0  0
   44.7650   36.0800   43.5600 C   0  0  0  0  0  0  0  0  0  0  0  0
   43.7040   36.1950   43.8740 H   0  0  0  0  0  0  0  0  0  0  0  0
   44.8630   35.9550   42.4560 H   0  0  0  0  0  0  0  0  0  0  0  0
   45.3330   36.9840   43.8670 H   0  0  0  0  0  0  0  0  0  0  0  0
   47.2520   31.0960   47.6350 O   0  0  0  0  0  0  0  0  0  0  0  0
   47.9800   29.0160   49.4580 H   0  0  0  0  0  0  0  0  0  0  0  0
   48.5270   29.8810   49.5040 N   0  0  0  0  0  0  0  0  0  0  0  0
   48.1700   30.8430   48.6420 C   0  0  0  0  0  0  0  0  0  0  0  0
   48.9800   31.9010   48.8330 N   0  0  0  0  0  0  0  0  0  0  0  0
   49.8770   31.6630   49.8110 C   0  0  0  0  0  0  0  0  0  0  0  0
   50.9200   32.2880   50.4570 C   0  0  0  0  0  0  0  0  0  0  0  0
   51.6180   31.6850   51.4470 N   0  0  0  0  0  0  0  0  0  0  0  0
   51.2450   30.4290   51.7780 C   0  0  0  0  0  0  0  0  0  0  0  0
   51.8230   29.9830   52.5680 H   0  0  0  0  0  0  0  0  0  0  0  0
   50.2230   29.7520   51.1800 N   0  0  0  0  0  0  0  0  0  0  0  0
   49.5580   30.3900   50.2030 C   0  0  0  0  0  0  0  0  0  0  0  0
   51.2210   33.6110   50.0210 N   0  0  0  0  0  0  0  0  0  0  0  0
   51.5890   34.1080   49.1850 H   0  0  0  0  0  0  0  0  0  0  0  0
   50.9860   34.2650   50.8160 H   0  0  0  0  0  0  0  0  0  0  0  0
  2  1  2  1  0  0  0
  3  2  1  0  0  0  0
  4  3  1  0  0  0  0
  5  2  1  0  0  0  0
  6 11  1  0  0  0  0
  7  8  1  0  0  0  0
  7  6  2  0  0  0  0
  8  9  2  0  0  0  0
  9 10  1  0  0  0  0
 10  5  1  0  0  0  0
 11 10  2  0  0  0  0
 12  7  1  0  0  0  0
 13  8  1  0  0  0  0
 14 17  1  0  0  0  0
 14 15  1  0  0  0  0
 14  6  1  0  0  0  0
 16 14  1  0  0  0  0
 18  2  1  0  0  0  0
 18 21  1  0  0  0  0
 19 20  1  0  0  0  0
 20 29  1  0  0  0  0
 21 22  2  0  0  0  0
 21 20  1  0  0  0  0
 22 23  1  0  0  0  0
 23 29  2  0  0  0  0
 23 24  1  0  0  0  0
 24 25  2  0  0  0  0
 25 26  1  0  0  0  0
 26 27  1  0  0  0  0
 28 26  2  0  0  0  0
 29 28  1  0  0  0  0
 30 24  1  0  0  0  0
 30 32  1  0  0  0  0
 31 30  1  0  0  0  0
M  END
>  <minimizedAffinity>
-6.30001259

>  <minimizedRMSD>
0.662321568

$$$$
