
 OpenBabel03252504233D

 37 41  0  0  0  0  0  0  0  0999 V2000
   37.1950   30.3670   38.8360 C   0  0  0  0  0  0  0  0  0  0  0  0
   36.6470   30.9850   39.9670 C   0  0  0  0  0  0  0  0  0  0  0  0
   36.2630   30.1720   41.0510 C   0  0  0  0  0  0  0  0  0  0  0  0
   36.4520   28.8280   40.9240 N   0  0  0  0  0  0  0  0  0  0  0  0
   36.9860   28.2720   39.8090 C   0  0  0  0  0  0  0  0  0  0  0  0
   37.3550   29.0410   38.7730 N   0  0  0  0  0  0  0  0  0  0  0  0
   37.1450   26.8590   39.7720 N   0  0  0  0  0  0  0  0  0  0  0  0
   36.8330   26.0520   38.7290 C   0  0  0  0  0  0  0  0  0  0  0  0
   37.1320   24.7700   39.0900 N   0  0  0  0  0  0  0  0  0  0  0  0
   37.6140   24.8180   40.3260 C   0  0  0  0  0  0  0  0  0  0  0  0
   38.0750   23.8740   41.2020 C   0  0  0  0  0  0  0  0  0  0  0  0
   38.5180   24.1800   42.4210 N   0  0  0  0  0  0  0  0  0  0  0  0
   38.5400   25.4540   42.8730 C   0  0  0  0  0  0  0  0  0  0  0  0
   38.0900   26.3840   42.0220 N   0  0  0  0  0  0  0  0  0  0  0  0
   37.6360   26.1240   40.7890 C   0  0  0  0  0  0  0  0  0  0  0  0
   36.4920   32.0490   40.0770 H   0  0  0  0  0  0  0  0  0  0  0  0
   35.8370   30.5950   41.9410 H   0  0  0  0  0  0  0  0  0  0  0  0
   36.4180   26.3390   37.7630 H   0  0  0  0  0  0  0  0  0  0  0  0
   38.8970   25.7160   43.8630 H   0  0  0  0  0  0  0  0  0  0  0  0
   38.1230   22.4990   40.8920 N   0  0  0  0  0  0  0  0  0  0  0  0
   37.2080   22.0020   41.0870 H   0  0  0  0  0  0  0  0  0  0  0  0
   38.9050   21.9320   40.5170 H   0  0  0  0  0  0  0  0  0  0  0  0
   37.6450   31.5130   37.5190 S   0  0  0  0  0  0  0  0  0  0  0  0
   40.2610   32.1290   35.9490 H   0  0  0  0  0  0  0  0  0  0  0  0
   40.2900   32.4050   36.9470 N   0  0  0  0  0  0  0  0  0  0  0  0
   39.2540   32.2170   37.7840 C   0  0  0  0  0  0  0  0  0  0  0  0
   39.6600   32.6950   38.9870 N   0  0  0  0  0  0  0  0  0  0  0  0
   40.9010   33.1560   38.8810 C   0  0  0  0  0  0  0  0  0  0  0  0
   41.8000   33.7390   39.7470 C   0  0  0  0  0  0  0  0  0  0  0  0
   43.0030   34.0930   39.2940 N   0  0  0  0  0  0  0  0  0  0  0  0
   43.3860   33.9080   38.0230 C   0  0  0  0  0  0  0  0  0  0  0  0
   44.3930   34.2360   37.7610 H   0  0  0  0  0  0  0  0  0  0  0  0
   42.5370   33.3390   37.1340 N   0  0  0  0  0  0  0  0  0  0  0  0
   41.3230   32.9780   37.5800 C   0  0  0  0  0  0  0  0  0  0  0  0
   41.4640   33.9620   41.0930 N   0  0  0  0  0  0  0  0  0  0  0  0
   40.4820   33.9170   41.4540 H   0  0  0  0  0  0  0  0  0  0  0  0
   42.1890   34.1870   41.8160 H   0  0  0  0  0  0  0  0  0  0  0  0
  1  2  1  0  0  0  0
  2 16  1  0  0  0  0
  2  3  2  0  0  0  0
  3 17  1  0  0  0  0
  4  3  1  0  0  0  0
  5  4  2  0  0  0  0
  6  1  2  0  0  0  0
  6  5  1  0  0  0  0
  7  5  1  0  0  0  0
  7 15  1  0  0  0  0
  8  9  2  0  0  0  0
  8  7  1  0  0  0  0
  9 10  1  0  0  0  0
 10 15  2  0  0  0  0
 10 11  1  0  0  0  0
 11 12  2  0  0  0  0
 12 13  1  0  0  0  0
 13 19  1  0  0  0  0
 14 13  2  0  0  0  0
 15 14  1  0  0  0  0
 18  8  1  0  0  0  0
 20 21  1  0  0  0  0
 20 11  1  0  0  0  0
 22 20  1  0  0  0  0
 23 26  1  0  0  0  0
 23  1  1  0  0  0  0
 24 25  1  0  0  0  0
 25 34  1  0  0  0  0
 25 26  1  0  0  0  0
 26 27  2  0  0  0  0
 28 27  1  0  0  0  0
 28 29  1  0  0  0  0
 29 35  1  0  0  0  0
 30 29  2  0  0  0  0
 31 30  1  0  0  0  0
 32 31  1  0  0  0  0
 33 34  1  0  0  0  0
 33 31  2  0  0  0  0
 34 28  2  0  0  0  0
 35 36  1  0  0  0  0
 35 37  1  0  0  0  0
M  END
>  <minimizedAffinity>
-6.72734451

$$$$

 OpenBabel03252504233D

 37 41  0  0  0  0  0  0  0  0999 V2000
   37.6200   29.6510   37.7400 C   0  0  0  0  0  0  0  0  0  0  0  0
   36.9100   28.9720   36.7420 C   0  0  0  0  0  0  0  0  0  0  0  0
   36.8530   27.5660   36.8040 C   0  0  0  0  0  0  0  0  0  0  0  0
   37.4980   26.9570   37.8400 N   0  0  0  0  0  0  0  0  0  0  0  0
   38.1740   27.6560   38.7840 C   0  0  0  0  0  0  0  0  0  0  0  0
   38.2320   28.9950   38.7310 N   0  0  0  0  0  0  0  0  0  0  0  0
   38.8150   26.9320   39.8270 N   0  0  0  0  0  0  0  0  0  0  0  0
   40.0670   27.1530   40.2960 C   0  0  0  0  0  0  0  0  0  0  0  0
   40.3060   26.2500   41.2910 N   0  0  0  0  0  0  0  0  0  0  0  0
   39.2130   25.5060   41.4090 C   0  0  0  0  0  0  0  0  0  0  0  0
   38.8600   24.4600   42.2180 C   0  0  0  0  0  0  0  0  0  0  0  0
   37.6710   23.8630   42.1420 N   0  0  0  0  0  0  0  0  0  0  0  0
   36.7300   24.2560   41.2540 C   0  0  0  0  0  0  0  0  0  0  0  0
   37.0680   25.2780   40.4590 N   0  0  0  0  0  0  0  0  0  0  0  0
   38.2490   25.9080   40.4980 C   0  0  0  0  0  0  0  0  0  0  0  0
   36.3960   29.4430   35.9170 H   0  0  0  0  0  0  0  0  0  0  0  0
   36.3230   26.9960   36.0650 H   0  0  0  0  0  0  0  0  0  0  0  0
   40.7810   27.9070   39.9630 H   0  0  0  0  0  0  0  0  0  0  0  0
   35.7590   23.7780   41.1820 H   0  0  0  0  0  0  0  0  0  0  0  0
   39.7200   23.9250   43.1990 N   0  0  0  0  0  0  0  0  0  0  0  0
   40.3810   23.1940   42.8110 H   0  0  0  0  0  0  0  0  0  0  0  0
   39.7860   24.1430   44.2100 H   0  0  0  0  0  0  0  0  0  0  0  0
   37.6190   31.4440   37.5490 S   0  0  0  0  0  0  0  0  0  0  0  0
   40.1650   32.2610   35.9570 H   0  0  0  0  0  0  0  0  0  0  0  0
   40.2310   32.4260   36.9770 N   0  0  0  0  0  0  0  0  0  0  0  0
   39.2310   32.1350   37.8280 C   0  0  0  0  0  0  0  0  0  0  0  0
   39.6800   32.4830   39.0600 N   0  0  0  0  0  0  0  0  0  0  0  0
   40.9120   32.9680   38.9570 C   0  0  0  0  0  0  0  0  0  0  0  0
   41.8400   33.4640   39.8470 C   0  0  0  0  0  0  0  0  0  0  0  0
   43.0220   33.8800   39.3890 N   0  0  0  0  0  0  0  0  0  0  0  0
   43.3550   33.8400   38.0920 C   0  0  0  0  0  0  0  0  0  0  0  0
   44.3480   34.2070   37.8290 H   0  0  0  0  0  0  0  0  0  0  0  0
   42.4760   33.3610   37.1790 N   0  0  0  0  0  0  0  0  0  0  0  0
   41.2830   32.9390   37.6290 C   0  0  0  0  0  0  0  0  0  0  0  0
   41.5560   33.5340   41.2210 N   0  0  0  0  0  0  0  0  0  0  0  0
   40.5900   33.4380   41.6120 H   0  0  0  0  0  0  0  0  0  0  0  0
   42.3080   33.6880   41.9360 H   0  0  0  0  0  0  0  0  0  0  0  0
  1  6  1  0  0  0  0
  2  3  1  0  0  0  0
  2  1  2  0  0  0  0
  3  4  2  0  0  0  0
  4  5  1  0  0  0  0
  5  7  1  0  0  0  0
  6  5  2  0  0  0  0
  7  8  1  0  0  0  0
  7 15  1  0  0  0  0
  8  9  2  0  0  0  0
  9 10  1  0  0  0  0
 10 11  1  0  0  0  0
 11 20  1  0  0  0  0
 12 11  2  0  0  0  0
 13 12  1  0  0  0  0
 14 15  1  0  0  0  0
 14 13  2  0  0  0  0
 15 10  2  0  0  0  0
 16  2  1  0  0  0  0
 17  3  1  0  0  0  0
 18  8  1  0  0  0  0
 19 13  1  0  0  0  0
 20 22  1  0  0  0  0
 21 20  1  0  0  0  0
 23  1  1  0  0  0  0
 23 26  1  0  0  0  0
 24 25  1  0  0  0  0
 25 34  1  0  0  0  0
 25 26  1  0  0  0  0
 26 27  2  0  0  0  0
 28 27  1  0  0  0  0
 28 29  1  0  0  0  0
 29 35  1  0  0  0  0
 30 29  2  0  0  0  0
 31 30  1  0  0  0  0
 32 31  1  0  0  0  0
 33 34  1  0  0  0  0
 33 31  2  0  0  0  0
 34 28  2  0  0  0  0
 35 36  1  0  0  0  0
 35 37  1  0  0  0  0
M  END
>  <minimizedAffinity>
-6.42158175

$$$$

 OpenBabel03252504233D

 37 41  0  0  0  0  0  0  0  0999 V2000
   37.6490   31.2550   40.7160 C   0  0  0  0  0  0  0  0  0  0  0  0
   36.8380   32.2190   40.1040 C   0  0  0  0  0  0  0  0  0  0  0  0
   37.4500   33.3890   39.6120 C   0  0  0  0  0  0  0  0  0  0  0  0
   38.8000   33.5040   39.7660 N   0  0  0  0  0  0  0  0  0  0  0  0
   39.5450   32.5440   40.3660 C   0  0  0  0  0  0  0  0  0  0  0  0
   38.9690   31.4270   40.8360 N   0  0  0  0  0  0  0  0  0  0  0  0
   40.9470   32.7530   40.4790 N   0  0  0  0  0  0  0  0  0  0  0  0
   41.7000   32.5220   41.5820 C   0  0  0  0  0  0  0  0  0  0  0  0
   42.9910   32.8490   41.2830 N   0  0  0  0  0  0  0  0  0  0  0  0
   43.0020   33.2660   40.0220 C   0  0  0  0  0  0  0  0  0  0  0  0
   43.9830   33.7160   39.1810 C   0  0  0  0  0  0  0  0  0  0  0  0
   43.7380   34.0870   37.9260 N   0  0  0  0  0  0  0  0  0  0  0  0
   42.4940   34.0420   37.3980 C   0  0  0  0  0  0  0  0  0  0  0  0
   41.5280   33.6030   38.2150 N   0  0  0  0  0  0  0  0  0  0  0  0
   41.7270   33.2200   39.4830 C   0  0  0  0  0  0  0  0  0  0  0  0
   35.7680   32.1400   39.9780 H   0  0  0  0  0  0  0  0  0  0  0  0
   36.8750   34.1600   39.1350 H   0  0  0  0  0  0  0  0  0  0  0  0
   41.3680   32.1440   42.5490 H   0  0  0  0  0  0  0  0  0  0  0  0
   42.2810   34.3420   36.3780 H   0  0  0  0  0  0  0  0  0  0  0  0
   45.3350   33.8260   39.5690 N   0  0  0  0  0  0  0  0  0  0  0  0
   45.5500   34.7440   40.0530 H   0  0  0  0  0  0  0  0  0  0  0  0
   46.1140   33.1550   39.4460 H   0  0  0  0  0  0  0  0  0  0  0  0
   36.7490   29.8070   41.3040 S   0  0  0  0  0  0  0  0  0  0  0  0
   39.3840   29.5640   42.9420 H   0  0  0  0  0  0  0  0  0  0  0  0
   38.9840   28.6560   42.6450 N   0  0  0  0  0  0  0  0  0  0  0  0
   37.8490   28.5600   41.9290 C   0  0  0  0  0  0  0  0  0  0  0  0
   37.6460   27.2340   41.7330 N   0  0  0  0  0  0  0  0  0  0  0  0
   38.6260   26.5490   42.3120 C   0  0  0  0  0  0  0  0  0  0  0  0
   38.9370   25.2130   42.4380 C   0  0  0  0  0  0  0  0  0  0  0  0
   40.0350   24.8610   43.1070 N   0  0  0  0  0  0  0  0  0  0  0  0
   40.8620   25.7530   43.6710 C   0  0  0  0  0  0  0  0  0  0  0  0
   41.7310   25.3550   44.1950 H   0  0  0  0  0  0  0  0  0  0  0  0
   40.5970   27.0790   43.5740 N   0  0  0  0  0  0  0  0  0  0  0  0
   39.4940   27.4440   42.9020 C   0  0  0  0  0  0  0  0  0  0  0  0
   38.1150   24.2240   41.8710 N   0  0  0  0  0  0  0  0  0  0  0  0
   37.1410   24.4120   41.5350 H   0  0  0  0  0  0  0  0  0  0  0  0
   38.4380   23.2340   41.7550 H   0  0  0  0  0  0  0  0  0  0  0  0
  1  6  1  0  0  0  0
  1 23  1  0  0  0  0
  2  1  2  0  0  0  0
  3  4  2  0  0  0  0
  3  2  1  0  0  0  0
  4  5  1  0  0  0  0
  5  7  1  0  0  0  0
  5  6  2  0  0  0  0
  7  8  1  0  0  0  0
  8 18  1  0  0  0  0
  9  8  2  0  0  0  0
 10  9  1  0  0  0  0
 11 20  1  0  0  0  0
 11 10  2  0  0  0  0
 12 11  1  0  0  0  0
 13 12  2  0  0  0  0
 13 14  1  0  0  0  0
 14 15  2  0  0  0  0
 15 10  1  0  0  0  0
 15  7  1  0  0  0  0
 16  2  1  0  0  0  0
 17  3  1  0  0  0  0
 19 13  1  0  0  0  0
 20 21  1  0  0  0  0
 22 20  1  0  0  0  0
 23 26  1  0  0  0  0
 25 34  1  0  0  0  0
 25 24  1  0  0  0  0
 26 25  1  0  0  0  0
 27 26  2  0  0  0  0
 27 28  1  0  0  0  0
 28 29  2  0  0  0  0
 28 34  1  0  0  0  0
 29 30  1  0  0  0  0
 30 31  2  0  0  0  0
 31 32  1  0  0  0  0
 33 31  1  0  0  0  0
 34 33  2  0  0  0  0
 35 29  1  0  0  0  0
 36 35  1  0  0  0  0
 37 35  1  0  0  0  0
M  END
>  <minimizedAffinity>
-6.34758139

$$$$

 OpenBabel03252504233D

 37 41  0  0  0  0  0  0  0  0999 V2000
   38.9710   29.6330   42.0360 C   0  0  0  0  0  0  0  0  0  0  0  0
   39.5020   28.4220   42.4960 C   0  0  0  0  0  0  0  0  0  0  0  0
   38.8630   27.2260   42.1130 C   0  0  0  0  0  0  0  0  0  0  0  0
   37.7640   27.3300   41.3130 N   0  0  0  0  0  0  0  0  0  0  0  0
   37.2850   28.5260   40.8910 C   0  0  0  0  0  0  0  0  0  0  0  0
   37.8890   29.6680   41.2520 N   0  0  0  0  0  0  0  0  0  0  0  0
   36.1320   28.5330   40.0580 N   0  0  0  0  0  0  0  0  0  0  0  0
   35.0640   29.3580   40.1850 C   0  0  0  0  0  0  0  0  0  0  0  0
   34.1760   29.0460   39.1970 N   0  0  0  0  0  0  0  0  0  0  0  0
   34.7100   28.0520   38.4960 C   0  0  0  0  0  0  0  0  0  0  0  0
   34.3000   27.3320   37.4070 C   0  0  0  0  0  0  0  0  0  0  0  0
   35.0340   26.3570   36.8730 N   0  0  0  0  0  0  0  0  0  0  0  0
   36.2410   26.0140   37.3770 C   0  0  0  0  0  0  0  0  0  0  0  0
   36.6490   26.7140   38.4430 N   0  0  0  0  0  0  0  0  0  0  0  0
   35.9470   27.7020   39.0130 C   0  0  0  0  0  0  0  0  0  0  0  0
   40.3710   28.3270   43.1300 H   0  0  0  0  0  0  0  0  0  0  0  0
   39.2280   26.2700   42.4380 H   0  0  0  0  0  0  0  0  0  0  0  0
   34.9100   30.1390   40.9290 H   0  0  0  0  0  0  0  0  0  0  0  0
   36.8480   25.2220   36.9520 H   0  0  0  0  0  0  0  0  0  0  0  0
   33.0690   27.5580   36.7580 N   0  0  0  0  0  0  0  0  0  0  0  0
   32.2650   27.0350   37.2070 H   0  0  0  0  0  0  0  0  0  0  0  0
   32.8560   28.1440   35.9300 H   0  0  0  0  0  0  0  0  0  0  0  0
   39.8760   31.0900   42.5950 S   0  0  0  0  0  0  0  0  0  0  0  0
   42.3100   32.9540   42.0620 H   0  0  0  0  0  0  0  0  0  0  0  0
   41.7670   32.7120   41.2140 N   0  0  0  0  0  0  0  0  0  0  0  0
   40.6820   31.9180   41.2460 C   0  0  0  0  0  0  0  0  0  0  0  0
   40.2480   31.8330   39.9640 N   0  0  0  0  0  0  0  0  0  0  0  0
   41.0440   32.5530   39.1820 C   0  0  0  0  0  0  0  0  0  0  0  0
   41.0910   32.8300   37.8330 C   0  0  0  0  0  0  0  0  0  0  0  0
   42.0600   33.6190   37.3650 N   0  0  0  0  0  0  0  0  0  0  0  0
   43.0010   34.1610   38.1510 C   0  0  0  0  0  0  0  0  0  0  0  0
   43.7460   34.7900   37.6620 H   0  0  0  0  0  0  0  0  0  0  0  0
   42.9950   33.9170   39.4840 N   0  0  0  0  0  0  0  0  0  0  0  0
   42.0240   33.1240   39.9650 C   0  0  0  0  0  0  0  0  0  0  0  0
   40.1370   32.2950   36.9520 N   0  0  0  0  0  0  0  0  0  0  0  0
   39.4990   31.5060   37.2100 H   0  0  0  0  0  0  0  0  0  0  0  0
   40.0120   32.6630   35.9790 H   0  0  0  0  0  0  0  0  0  0  0  0
  1  2  1  0  0  0  0
  1 23  1  0  0  0  0
  2 16  1  0  0  0  0
  3 17  1  0  0  0  0
  3  2  2  0  0  0  0
  4  3  1  0  0  0  0
  5  6  1  0  0  0  0
  5  4  2  0  0  0  0
  6  1  2  0  0  0  0
  7  8  1  0  0  0  0
  7  5  1  0  0  0  0
  8 18  1  0  0  0  0
  9  8  2  0  0  0  0
 10 15  1  0  0  0  0
 10  9  1  0  0  0  0
 11 10  2  0  0  0  0
 12 13  2  0  0  0  0
 12 11  1  0  0  0  0
 13 14  1  0  0  0  0
 14 15  2  0  0  0  0
 15  7  1  0  0  0  0
 19 13  1  0  0  0  0
 20 21  1  0  0  0  0
 20 11  1  0  0  0  0
 22 20  1  0  0  0  0
 25 26  1  0  0  0  0
 25 24  1  0  0  0  0
 26 23  1  0  0  0  0
 27 26  2  0  0  0  0
 28 27  1  0  0  0  0
 28 34  1  0  0  0  0
 29 28  2  0  0  0  0
 30 29  1  0  0  0  0
 30 31  2  0  0  0  0
 31 33  1  0  0  0  0
 32 31  1  0  0  0  0
 33 34  2  0  0  0  0
 34 25  1  0  0  0  0
 35 36  1  0  0  0  0
 35 29  1  0  0  0  0
 37 35  1  0  0  0  0
M  END
>  <minimizedAffinity>
-6.17401218

$$$$

 OpenBabel03252504233D

 37 41  0  0  0  0  0  0  0  0999 V2000
   37.5000   30.4570   39.2700 C   0  0  0  0  0  0  0  0  0  0  0  0
   36.8940   30.4950   38.0080 C   0  0  0  0  0  0  0  0  0  0  0  0
   36.7250   29.2810   37.3130 C   0  0  0  0  0  0  0  0  0  0  0  0
   37.1660   28.1440   37.9210 N   0  0  0  0  0  0  0  0  0  0  0  0
   37.7470   28.1540   39.1460 C   0  0  0  0  0  0  0  0  0  0  0  0
   37.9110   29.3070   39.8130 N   0  0  0  0  0  0  0  0  0  0  0  0
   38.1740   26.9150   39.6990 N   0  0  0  0  0  0  0  0  0  0  0  0
   39.3570   26.6870   40.3190 C   0  0  0  0  0  0  0  0  0  0  0  0
   39.3810   25.3770   40.7030 N   0  0  0  0  0  0  0  0  0  0  0  0
   38.2300   24.8390   40.3160 C   0  0  0  0  0  0  0  0  0  0  0  0
   37.6860   23.5880   40.4170 C   0  0  0  0  0  0  0  0  0  0  0  0
   36.4810   23.2870   39.9370 N   0  0  0  0  0  0  0  0  0  0  0  0
   35.7110   24.2080   39.3140 C   0  0  0  0  0  0  0  0  0  0  0  0
   36.2360   25.4350   39.2110 N   0  0  0  0  0  0  0  0  0  0  0  0
   37.4420   25.7830   39.6770 C   0  0  0  0  0  0  0  0  0  0  0  0
   36.5430   31.3900   37.5160 H   0  0  0  0  0  0  0  0  0  0  0  0
   36.2680   29.2540   36.3420 H   0  0  0  0  0  0  0  0  0  0  0  0
   40.1650   27.3960   40.4970 H   0  0  0  0  0  0  0  0  0  0  0  0
   34.7280   23.9770   38.9180 H   0  0  0  0  0  0  0  0  0  0  0  0
   38.3520   22.5100   41.0370 N   0  0  0  0  0  0  0  0  0  0  0  0
   39.0070   21.9990   40.3790 H   0  0  0  0  0  0  0  0  0  0  0  0
   38.2870   22.1650   42.0110 H   0  0  0  0  0  0  0  0  0  0  0  0
   37.6600   32.0720   40.0560 S   0  0  0  0  0  0  0  0  0  0  0  0
   39.9900   32.8280   41.9760 H   0  0  0  0  0  0  0  0  0  0  0  0
   40.2120   32.9460   40.9710 N   0  0  0  0  0  0  0  0  0  0  0  0
   39.3310   32.6700   39.9930 C   0  0  0  0  0  0  0  0  0  0  0  0
   39.9720   32.9440   38.8300 N   0  0  0  0  0  0  0  0  0  0  0  0
   41.2000   33.3720   39.0950 C   0  0  0  0  0  0  0  0  0  0  0  0
   42.2730   33.7840   38.3340 C   0  0  0  0  0  0  0  0  0  0  0  0
   43.3970   34.1610   38.9450 N   0  0  0  0  0  0  0  0  0  0  0  0
   43.5370   34.1590   40.2780 C   0  0  0  0  0  0  0  0  0  0  0  0
   44.5000   34.4870   40.6710 H   0  0  0  0  0  0  0  0  0  0  0  0
   42.5100   33.7620   41.0680 N   0  0  0  0  0  0  0  0  0  0  0  0
   41.3740   33.3800   40.4630 C   0  0  0  0  0  0  0  0  0  0  0  0
   42.1950   33.8110   36.9310 N   0  0  0  0  0  0  0  0  0  0  0  0
   41.4410   33.3260   36.3900 H   0  0  0  0  0  0  0  0  0  0  0  0
   42.8960   34.3250   36.3470 H   0  0  0  0  0  0  0  0  0  0  0  0
  1  6  1  0  0  0  0
  1 23  1  0  0  0  0
  2  1  2  0  0  0  0
  3  4  2  0  0  0  0
  3  2  1  0  0  0  0
  4  5  1  0  0  0  0
  5  7  1  0  0  0  0
  5  6  2  0  0  0  0
  7  8  1  0  0  0  0
  8 18  1  0  0  0  0
  8  9  2  0  0  0  0
 10 11  1  0  0  0  0
 10  9  1  0  0  0  0
 11 20  1  0  0  0  0
 12 11  2  0  0  0  0
 13 12  1  0  0  0  0
 14 13  2  0  0  0  0
 14 15  1  0  0  0  0
 15  7  1  0  0  0  0
 15 10  2  0  0  0  0
 16  2  1  0  0  0  0
 17  3  1  0  0  0  0
 19 13  1  0  0  0  0
 20 22  1  0  0  0  0
 21 20  1  0  0  0  0
 25 24  1  0  0  0  0
 26 23  1  0  0  0  0
 26 25  1  0  0  0  0
 27 28  1  0  0  0  0
 27 26  2  0  0  0  0
 28 34  1  0  0  0  0
 29 30  1  0  0  0  0
 29 28  2  0  0  0  0
 30 31  2  0  0  0  0
 31 32  1  0  0  0  0
 31 33  1  0  0  0  0
 34 25  1  0  0  0  0
 34 33  2  0  0  0  0
 35 29  1  0  0  0  0
 36 35  1  0  0  0  0
 37 35  1  0  0  0  0
M  END
>  <minimizedAffinity>
-6.15801525

$$$$

 OpenBabel03252504233D

 37 41  0  0  0  0  0  0  0  0999 V2000
   37.4550   30.9100   39.7530 C   0  0  0  0  0  0  0  0  0  0  0  0
   36.9610   30.8390   38.4440 C   0  0  0  0  0  0  0  0  0  0  0  0
   37.7170   31.4320   37.4130 C   0  0  0  0  0  0  0  0  0  0  0  0
   38.8880   32.0380   37.7630 N   0  0  0  0  0  0  0  0  0  0  0  0
   39.3270   32.0820   39.0450 C   0  0  0  0  0  0  0  0  0  0  0  0
   38.6120   31.5190   40.0300 N   0  0  0  0  0  0  0  0  0  0  0  0
   40.5610   32.7360   39.3100 N   0  0  0  0  0  0  0  0  0  0  0  0
   40.8000   33.6010   40.3260 C   0  0  0  0  0  0  0  0  0  0  0  0
   42.1000   34.0050   40.2330 N   0  0  0  0  0  0  0  0  0  0  0  0
   42.6230   33.3890   39.1790 C   0  0  0  0  0  0  0  0  0  0  0  0
   43.8600   33.3940   38.5950 C   0  0  0  0  0  0  0  0  0  0  0  0
   44.1460   32.6700   37.5130 N   0  0  0  0  0  0  0  0  0  0  0  0
   43.2240   31.8790   36.9190 C   0  0  0  0  0  0  0  0  0  0  0  0
   42.0110   31.8690   37.4860 N   0  0  0  0  0  0  0  0  0  0  0  0
   41.6780   32.5790   38.5710 C   0  0  0  0  0  0  0  0  0  0  0  0
   36.0360   30.3630   38.1560 H   0  0  0  0  0  0  0  0  0  0  0  0
   37.3840   31.4070   36.3930 H   0  0  0  0  0  0  0  0  0  0  0  0
   40.1050   33.9350   41.0950 H   0  0  0  0  0  0  0  0  0  0  0  0
   43.4440   31.2850   36.0380 H   0  0  0  0  0  0  0  0  0  0  0  0
   44.9370   34.1610   39.0850 N   0  0  0  0  0  0  0  0  0  0  0  0
   44.9350   35.1540   38.7160 H   0  0  0  0  0  0  0  0  0  0  0  0
   45.7010   33.8920   39.7300 H   0  0  0  0  0  0  0  0  0  0  0  0
   36.3980   30.1160   40.9790 S   0  0  0  0  0  0  0  0  0  0  0  0
   35.6350   27.2270   40.1080 H   0  0  0  0  0  0  0  0  0  0  0  0
   36.4170   27.2740   40.7860 N   0  0  0  0  0  0  0  0  0  0  0  0
   36.8860   28.4350   41.2770 C   0  0  0  0  0  0  0  0  0  0  0  0
   37.8930   28.0990   42.1210 N   0  0  0  0  0  0  0  0  0  0  0  0
   38.0280   26.7780   42.1400 C   0  0  0  0  0  0  0  0  0  0  0  0
   38.8600   25.8940   42.7930 C   0  0  0  0  0  0  0  0  0  0  0  0
   38.7180   24.5860   42.5750 N   0  0  0  0  0  0  0  0  0  0  0  0
   37.7970   24.0820   41.7420 C   0  0  0  0  0  0  0  0  0  0  0  0
   37.7700   22.9970   41.6390 H   0  0  0  0  0  0  0  0  0  0  0  0
   36.9560   24.9120   41.0780 N   0  0  0  0  0  0  0  0  0  0  0  0
   37.0900   26.2310   41.2910 C   0  0  0  0  0  0  0  0  0  0  0  0
   39.8480   26.3540   43.6800 N   0  0  0  0  0  0  0  0  0  0  0  0
   40.1570   27.3530   43.7250 H   0  0  0  0  0  0  0  0  0  0  0  0
   40.3330   25.7120   44.3510 H   0  0  0  0  0  0  0  0  0  0  0  0
  1  6  1  0  0  0  0
  1 23  1  0  0  0  0
  2  1  2  0  0  0  0
  3  4  2  0  0  0  0
  3  2  1  0  0  0  0
  4  5  1  0  0  0  0
  5  7  1  0  0  0  0
  5  6  2  0  0  0  0
  7  8  1  0  0  0  0
  8 18  1  0  0  0  0
  9  8  2  0  0  0  0
 10  9  1  0  0  0  0
 11 20  1  0  0  0  0
 11 10  1  0  0  0  0
 12 11  2  0  0  0  0
 13 14  2  0  0  0  0
 13 12  1  0  0  0  0
 14 15  1  0  0  0  0
 15 10  2  0  0  0  0
 15  7  1  0  0  0  0
 16  2  1  0  0  0  0
 17  3  1  0  0  0  0
 19 13  1  0  0  0  0
 20 22  1  0  0  0  0
 21 20  1  0  0  0  0
 23 26  1  0  0  0  0
 24 25  1  0  0  0  0
 25 26  1  0  0  0  0
 25 34  1  0  0  0  0
 26 27  2  0  0  0  0
 27 28  1  0  0  0  0
 28 29  1  0  0  0  0
 29 35  1  0  0  0  0
 30 29  2  0  0  0  0
 31 30  1  0  0  0  0
 32 31  1  0  0  0  0
 33 34  1  0  0  0  0
 33 31  2  0  0  0  0
 34 28  2  0  0  0  0
 35 36  1  0  0  0  0
 35 37  1  0  0  0  0
M  END
>  <minimizedAffinity>
-6.11082172

$$$$

 OpenBabel03252504233D

 37 41  0  0  0  0  0  0  0  0999 V2000
   35.0260   28.6720   36.0030 C   0  0  0  0  0  0  0  0  0  0  0  0
   36.1310   28.2750   35.2390 C   0  0  0  0  0  0  0  0  0  0  0  0
   37.3920   28.2290   35.8650 C   0  0  0  0  0  0  0  0  0  0  0  0
   37.4520   28.5770   37.1820 N   0  0  0  0  0  0  0  0  0  0  0  0
   36.3550   28.9550   37.8830 C   0  0  0  0  0  0  0  0  0  0  0  0
   35.1510   29.0000   37.2920 N   0  0  0  0  0  0  0  0  0  0  0  0
   36.5170   29.2990   39.2530 N   0  0  0  0  0  0  0  0  0  0  0  0
   35.9670   30.3700   39.8750 C   0  0  0  0  0  0  0  0  0  0  0  0
   36.3640   30.3430   41.1810 N   0  0  0  0  0  0  0  0  0  0  0  0
   37.1360   29.2730   41.3290 C   0  0  0  0  0  0  0  0  0  0  0  0
   37.8120   28.7310   42.3880 C   0  0  0  0  0  0  0  0  0  0  0  0
   38.5400   27.6200   42.2830 N   0  0  0  0  0  0  0  0  0  0  0  0
   38.6570   26.9520   41.1130 C   0  0  0  0  0  0  0  0  0  0  0  0
   37.9980   27.4760   40.0720 N   0  0  0  0  0  0  0  0  0  0  0  0
   37.2560   28.5890   40.1300 C   0  0  0  0  0  0  0  0  0  0  0  0
   36.0960   27.9980   34.1950 H   0  0  0  0  0  0  0  0  0  0  0  0
   38.2720   27.9330   35.3250 H   0  0  0  0  0  0  0  0  0  0  0  0
   35.3210   31.1330   39.4430 H   0  0  0  0  0  0  0  0  0  0  0  0
   39.2460   26.0460   41.0130 H   0  0  0  0  0  0  0  0  0  0  0  0
   37.7990   29.2990   43.6790 N   0  0  0  0  0  0  0  0  0  0  0  0
   38.5310   30.0540   43.8030 H   0  0  0  0  0  0  0  0  0  0  0  0
   37.1920   29.0820   44.4900 H   0  0  0  0  0  0  0  0  0  0  0  0
   33.4720   28.6900   35.0890 S   0  0  0  0  0  0  0  0  0  0  0  0
   32.1470   28.4690   37.8970 H   0  0  0  0  0  0  0  0  0  0  0  0
   31.7250   29.1900   37.2840 N   0  0  0  0  0  0  0  0  0  0  0  0
   32.1630   29.4300   36.0350 C   0  0  0  0  0  0  0  0  0  0  0  0
   31.3780   30.4250   35.5530 N   0  0  0  0  0  0  0  0  0  0  0  0
   30.4940   30.7750   36.4800 C   0  0  0  0  0  0  0  0  0  0  0  0
   29.4740   31.7000   36.5530 C   0  0  0  0  0  0  0  0  0  0  0  0
   28.7570   31.7900   37.6730 N   0  0  0  0  0  0  0  0  0  0  0  0
   28.9810   31.0170   38.7450 C   0  0  0  0  0  0  0  0  0  0  0  0
   28.3340   31.1760   39.6090 H   0  0  0  0  0  0  0  0  0  0  0  0
   29.9720   30.0930   38.7210 N   0  0  0  0  0  0  0  0  0  0  0  0
   30.7000   29.9940   37.5970 C   0  0  0  0  0  0  0  0  0  0  0  0
   29.1860   32.5430   35.4660 N   0  0  0  0  0  0  0  0  0  0  0  0
   29.8370   32.6790   34.6580 H   0  0  0  0  0  0  0  0  0  0  0  0
   28.2910   33.0850   35.4070 H   0  0  0  0  0  0  0  0  0  0  0  0
  1  6  1  0  0  0  0
  2  3  1  0  0  0  0
  2  1  2  0  0  0  0
  3  4  2  0  0  0  0
  4  5  1  0  0  0  0
  5  7  1  0  0  0  0
  6  5  2  0  0  0  0
  7  8  1  0  0  0  0
  7 15  1  0  0  0  0
  8  9  2  0  0  0  0
  9 10  1  0  0  0  0
 10 11  1  0  0  0  0
 11 20  1  0  0  0  0
 12 11  2  0  0  0  0
 13 12  1  0  0  0  0
 14 15  1  0  0  0  0
 14 13  2  0  0  0  0
 15 10  2  0  0  0  0
 16  2  1  0  0  0  0
 17  3  1  0  0  0  0
 18  8  1  0  0  0  0
 19 13  1  0  0  0  0
 20 21  1  0  0  0  0
 20 22  1  0  0  0  0
 23  1  1  0  0  0  0
 23 26  1  0  0  0  0
 25 34  1  0  0  0  0
 25 24  1  0  0  0  0
 26 25  1  0  0  0  0
 27 26  2  0  0  0  0
 27 28  1  0  0  0  0
 28 29  2  0  0  0  0
 28 34  1  0  0  0  0
 29 30  1  0  0  0  0
 30 31  2  0  0  0  0
 31 32  1  0  0  0  0
 33 31  1  0  0  0  0
 34 33  2  0  0  0  0
 35 29  1  0  0  0  0
 36 35  1  0  0  0  0
 37 35  1  0  0  0  0
M  END
>  <minimizedAffinity>
-6.11007118

$$$$

 OpenBabel03252504233D

 37 41  0  0  0  0  0  0  0  0999 V2000
   38.4050   31.0800   40.1190 C   0  0  0  0  0  0  0  0  0  0  0  0
   39.1580   31.9670   40.8980 C   0  0  0  0  0  0  0  0  0  0  0  0
   39.7660   31.4760   42.0700 C   0  0  0  0  0  0  0  0  0  0  0  0
   39.5790   30.1580   42.3680 N   0  0  0  0  0  0  0  0  0  0  0  0
   38.8410   29.3350   41.5840 C   0  0  0  0  0  0  0  0  0  0  0  0
   38.2600   29.7970   40.4660 N   0  0  0  0  0  0  0  0  0  0  0  0
   38.7050   27.9750   41.9770 N   0  0  0  0  0  0  0  0  0  0  0  0
   37.5550   27.2570   41.9700 C   0  0  0  0  0  0  0  0  0  0  0  0
   37.8450   26.0010   42.4170 N   0  0  0  0  0  0  0  0  0  0  0  0
   39.1460   25.9760   42.6840 C   0  0  0  0  0  0  0  0  0  0  0  0
   40.0000   25.0140   43.1520 C   0  0  0  0  0  0  0  0  0  0  0  0
   41.2990   25.2380   43.3410 N   0  0  0  0  0  0  0  0  0  0  0  0
   41.8620   26.4400   43.0820 C   0  0  0  0  0  0  0  0  0  0  0  0
   41.0330   27.3860   42.6230 N   0  0  0  0  0  0  0  0  0  0  0  0
   39.7210   27.2070   42.4180 C   0  0  0  0  0  0  0  0  0  0  0  0
   39.3110   33.0130   40.6720 H   0  0  0  0  0  0  0  0  0  0  0  0
   40.3530   32.1130   42.7030 H   0  0  0  0  0  0  0  0  0  0  0  0
   36.5620   27.5900   41.6690 H   0  0  0  0  0  0  0  0  0  0  0  0
   42.9180   26.6360   43.2320 H   0  0  0  0  0  0  0  0  0  0  0  0
   39.5810   23.7060   43.4730 N   0  0  0  0  0  0  0  0  0  0  0  0
   39.2050   23.6260   44.4600 H   0  0  0  0  0  0  0  0  0  0  0  0
   39.5940   22.8470   42.8940 H   0  0  0  0  0  0  0  0  0  0  0  0
   37.6780   31.8290   38.6490 S   0  0  0  0  0  0  0  0  0  0  0  0
   35.5110   29.6100   38.9060 H   0  0  0  0  0  0  0  0  0  0  0  0
   35.8950   29.7200   37.9500 N   0  0  0  0  0  0  0  0  0  0  0  0
   36.8400   30.6270   37.6460 C   0  0  0  0  0  0  0  0  0  0  0  0
   37.0860   30.4730   36.3200 N   0  0  0  0  0  0  0  0  0  0  0  0
   36.3140   29.5050   35.8400 C   0  0  0  0  0  0  0  0  0  0  0  0
   36.1350   28.9280   34.6010 C   0  0  0  0  0  0  0  0  0  0  0  0
   35.2470   27.9420   34.4660 N   0  0  0  0  0  0  0  0  0  0  0  0
   34.5110   27.4800   35.4860 C   0  0  0  0  0  0  0  0  0  0  0  0
   33.8140   26.6710   35.2620 H   0  0  0  0  0  0  0  0  0  0  0  0
   34.6520   28.0170   36.7230 N   0  0  0  0  0  0  0  0  0  0  0  0
   35.5440   29.0090   36.8700 C   0  0  0  0  0  0  0  0  0  0  0  0
   36.8740   29.3640   33.4890 N   0  0  0  0  0  0  0  0  0  0  0  0
   37.4110   30.2620   33.4740 H   0  0  0  0  0  0  0  0  0  0  0  0
   36.9260   28.8040   32.6040 H   0  0  0  0  0  0  0  0  0  0  0  0
  1  6  2  0  0  0  0
  1  2  1  0  0  0  0
  2  3  2  0  0  0  0
  3  4  1  0  0  0  0
  3 17  1  0  0  0  0
  5  7  1  0  0  0  0
  5  4  2  0  0  0  0
  6  5  1  0  0  0  0
  7 15  1  0  0  0  0
  8  7  1  0  0  0  0
  8  9  2  0  0  0  0
  9 10  1  0  0  0  0
 10 11  1  0  0  0  0
 11 12  2  0  0  0  0
 11 20  1  0  0  0  0
 13 19  1  0  0  0  0
 13 12  1  0  0  0  0
 14 13  2  0  0  0  0
 15 14  1  0  0  0  0
 15 10  2  0  0  0  0
 16  2  1  0  0  0  0
 18  8  1  0  0  0  0
 20 21  1  0  0  0  0
 22 20  1  0  0  0  0
 23  1  1  0  0  0  0
 25 24  1  0  0  0  0
 26 25  1  0  0  0  0
 26 23  1  0  0  0  0
 27 26  2  0  0  0  0
 28 27  1  0  0  0  0
 28 34  1  0  0  0  0
 29 28  2  0  0  0  0
 30 29  1  0  0  0  0
 30 31  2  0  0  0  0
 31 33  1  0  0  0  0
 32 31  1  0  0  0  0
 33 34  2  0  0  0  0
 34 25  1  0  0  0  0
 35 29  1  0  0  0  0
 36 35  1  0  0  0  0
 37 35  1  0  0  0  0
M  END
>  <minimizedAffinity>
-6.05507565

$$$$

 OpenBabel03252504233D

 37 41  0  0  0  0  0  0  0  0999 V2000
   37.1750   26.8100   41.8560 C   0  0  0  0  0  0  0  0  0  0  0  0
   37.1900   25.4970   42.3430 C   0  0  0  0  0  0  0  0  0  0  0  0
   36.8610   24.4530   41.4560 C   0  0  0  0  0  0  0  0  0  0  0  0
   36.5470   24.7940   40.1740 N   0  0  0  0  0  0  0  0  0  0  0  0
   36.5460   26.0800   39.7460 C   0  0  0  0  0  0  0  0  0  0  0  0
   36.8590   27.0790   40.5850 N   0  0  0  0  0  0  0  0  0  0  0  0
   36.2060   26.3370   38.3890 N   0  0  0  0  0  0  0  0  0  0  0  0
   35.3740   27.3120   37.9480 C   0  0  0  0  0  0  0  0  0  0  0  0
   35.3120   27.2250   36.5880 N   0  0  0  0  0  0  0  0  0  0  0  0
   36.0950   26.2130   36.2290 C   0  0  0  0  0  0  0  0  0  0  0  0
   36.4290   25.6540   35.0260 C   0  0  0  0  0  0  0  0  0  0  0  0
   37.2580   24.6160   34.9220 N   0  0  0  0  0  0  0  0  0  0  0  0
   37.8260   24.0450   36.0090 C   0  0  0  0  0  0  0  0  0  0  0  0
   37.5030   24.5870   37.1900 N   0  0  0  0  0  0  0  0  0  0  0  0
   36.6760   25.6290   37.3420 C   0  0  0  0  0  0  0  0  0  0  0  0
   37.4360   25.2150   43.3560 H   0  0  0  0  0  0  0  0  0  0  0  0
   36.8560   23.4290   41.7780 H   0  0  0  0  0  0  0  0  0  0  0  0
   34.8370   28.0500   38.5430 H   0  0  0  0  0  0  0  0  0  0  0  0
   38.5010   23.1990   35.9390 H   0  0  0  0  0  0  0  0  0  0  0  0
   35.9290   26.1250   33.7950 N   0  0  0  0  0  0  0  0  0  0  0  0
   34.9880   25.7070   33.5470 H   0  0  0  0  0  0  0  0  0  0  0  0
   36.3450   26.7990   33.1260 H   0  0  0  0  0  0  0  0  0  0  0  0
   37.6130   28.0540   43.0850 S   0  0  0  0  0  0  0  0  0  0  0  0
   40.3540   29.4770   42.6970 H   0  0  0  0  0  0  0  0  0  0  0  0
   39.5530   29.9740   42.2670 N   0  0  0  0  0  0  0  0  0  0  0  0
   38.2910   29.5120   42.3310 C   0  0  0  0  0  0  0  0  0  0  0  0
   37.5320   30.4170   41.6640 N   0  0  0  0  0  0  0  0  0  0  0  0
   38.3090   31.3940   41.2130 C   0  0  0  0  0  0  0  0  0  0  0  0
   38.1000   32.5490   40.4900 C   0  0  0  0  0  0  0  0  0  0  0  0
   39.1400   33.3310   40.1990 N   0  0  0  0  0  0  0  0  0  0  0  0
   40.3940   33.0470   40.5790 C   0  0  0  0  0  0  0  0  0  0  0  0
   41.1680   33.7570   40.2860 H   0  0  0  0  0  0  0  0  0  0  0  0
   40.6490   31.9230   41.2910 N   0  0  0  0  0  0  0  0  0  0  0  0
   39.6090   31.1280   41.5890 C   0  0  0  0  0  0  0  0  0  0  0  0
   36.8110   32.9080   40.0610 N   0  0  0  0  0  0  0  0  0  0  0  0
   36.0020   32.2430   40.0580 H   0  0  0  0  0  0  0  0  0  0  0  0
   36.5900   33.8730   39.7160 H   0  0  0  0  0  0  0  0  0  0  0  0
  1  2  1  0  0  0  0
  1 23  1  0  0  0  0
  2 16  1  0  0  0  0
  3 17  1  0  0  0  0
  3  2  2  0  0  0  0
  4  3  1  0  0  0  0
  5  4  2  0  0  0  0
  5  6  1  0  0  0  0
  6  1  2  0  0  0  0
  7  5  1  0  0  0  0
  8  7  1  0  0  0  0
  8 18  1  0  0  0  0
  9  8  2  0  0  0  0
 10  9  1  0  0  0  0
 10 15  1  0  0  0  0
 11 10  2  0  0  0  0
 12 11  1  0  0  0  0
 12 13  2  0  0  0  0
 13 14  1  0  0  0  0
 14 15  2  0  0  0  0
 15  7  1  0  0  0  0
 19 13  1  0  0  0  0
 20 11  1  0  0  0  0
 21 20  1  0  0  0  0
 22 20  1  0  0  0  0
 25 26  1  0  0  0  0
 25 24  1  0  0  0  0
 26 23  1  0  0  0  0
 27 26  2  0  0  0  0
 28 34  1  0  0  0  0
 28 27  1  0  0  0  0
 29 28  2  0  0  0  0
 30 29  1  0  0  0  0
 30 31  2  0  0  0  0
 31 33  1  0  0  0  0
 32 31  1  0  0  0  0
 33 34  2  0  0  0  0
 34 25  1  0  0  0  0
 35 29  1  0  0  0  0
 36 35  1  0  0  0  0
 37 35  1  0  0  0  0
M  END
>  <minimizedAffinity>
-5.96802568

$$$$
