
 OpenBabel03252504233D

 37 41  0  0  0  0  0  0  0  0999 V2000
   46.6670   32.9860   40.2110 C   0  0  0  0  0  0  0  0  0  0  0  0
   48.0170   32.6320   40.0930 C   0  0  0  0  0  0  0  0  0  0  0  0
   48.7960   32.5720   41.2650 C   0  0  0  0  0  0  0  0  0  0  0  0
   48.1780   32.8670   42.4440 N   0  0  0  0  0  0  0  0  0  0  0  0
   46.8670   33.2050   42.5120 C   0  0  0  0  0  0  0  0  0  0  0  0
   46.1200   33.2630   41.3980 N   0  0  0  0  0  0  0  0  0  0  0  0
   46.3110   33.4940   43.7880 N   0  0  0  0  0  0  0  0  0  0  0  0
   45.4930   34.5330   44.0830 C   0  0  0  0  0  0  0  0  0  0  0  0
   45.1820   34.4570   45.4090 N   0  0  0  0  0  0  0  0  0  0  0  0
   45.8080   33.3890   45.8930 C   0  0  0  0  0  0  0  0  0  0  0  0
   45.8780   32.8110   47.1310 C   0  0  0  0  0  0  0  0  0  0  0  0
   46.5920   31.7120   47.3710 N   0  0  0  0  0  0  0  0  0  0  0  0
   47.2990   31.0940   46.3980 C   0  0  0  0  0  0  0  0  0  0  0  0
   47.2350   31.6540   45.1830 N   0  0  0  0  0  0  0  0  0  0  0  0
   46.5310   32.7560   44.8950 C   0  0  0  0  0  0  0  0  0  0  0  0
   48.5170   32.3980   39.1640 H   0  0  0  0  0  0  0  0  0  0  0  0
   49.8360   32.3070   41.2310 H   0  0  0  0  0  0  0  0  0  0  0  0
   45.1280   35.3070   43.4080 H   0  0  0  0  0  0  0  0  0  0  0  0
   47.8850   30.1990   46.5790 H   0  0  0  0  0  0  0  0  0  0  0  0
   45.2030   33.3250   48.2570 N   0  0  0  0  0  0  0  0  0  0  0  0
   45.7520   34.0820   48.7550 H   0  0  0  0  0  0  0  0  0  0  0  0
   44.2780   33.0690   48.6470 H   0  0  0  0  0  0  0  0  0  0  0  0
   45.7800   33.0260   38.6420 S   0  0  0  0  0  0  0  0  0  0  0  0
   43.5400   34.6410   37.2050 H   0  0  0  0  0  0  0  0  0  0  0  0
   43.2460   34.2120   38.1020 N   0  0  0  0  0  0  0  0  0  0  0  0
   44.0760   33.4770   38.8630 C   0  0  0  0  0  0  0  0  0  0  0  0
   43.3450   33.0920   39.9390 N   0  0  0  0  0  0  0  0  0  0  0  0
   42.1140   33.5770   39.8320 C   0  0  0  0  0  0  0  0  0  0  0  0
   40.9720   33.5120   40.6000 C   0  0  0  0  0  0  0  0  0  0  0  0
   39.8710   34.1370   40.1800 N   0  0  0  0  0  0  0  0  0  0  0  0
   39.8190   34.8310   39.0360 C   0  0  0  0  0  0  0  0  0  0  0  0
   38.8660   35.3020   38.7900 H   0  0  0  0  0  0  0  0  0  0  0  0
   40.9170   34.9230   38.2470 N   0  0  0  0  0  0  0  0  0  0  0  0
   42.0310   34.2970   38.6600 C   0  0  0  0  0  0  0  0  0  0  0  0
   40.9560   32.8010   41.8110 N   0  0  0  0  0  0  0  0  0  0  0  0
   41.6990   32.1160   42.0830 H   0  0  0  0  0  0  0  0  0  0  0  0
   40.1910   32.9210   42.5150 H   0  0  0  0  0  0  0  0  0  0  0  0
  1  6  1  0  0  0  0
  2  1  2  0  0  0  0
  2  3  1  0  0  0  0
  3  4  2  0  0  0  0
  4  5  1  0  0  0  0
  5  7  1  0  0  0  0
  6  5  2  0  0  0  0
  7  8  1  0  0  0  0
  7 15  1  0  0  0  0
  8  9  2  0  0  0  0
  9 10  1  0  0  0  0
 10 11  1  0  0  0  0
 11 12  2  0  0  0  0
 11 20  1  0  0  0  0
 13 19  1  0  0  0  0
 13 12  1  0  0  0  0
 14 13  2  0  0  0  0
 15 14  1  0  0  0  0
 15 10  2  0  0  0  0
 16  2  1  0  0  0  0
 17  3  1  0  0  0  0
 18  8  1  0  0  0  0
 20 22  1  0  0  0  0
 20 21  1  0  0  0  0
 23 26  1  0  0  0  0
 23  1  1  0  0  0  0
 24 25  1  0  0  0  0
 25 34  1  0  0  0  0
 25 26  1  0  0  0  0
 26 27  2  0  0  0  0
 28 27  1  0  0  0  0
 28 29  1  0  0  0  0
 29 35  1  0  0  0  0
 30 29  2  0  0  0  0
 31 30  1  0  0  0  0
 32 31  1  0  0  0  0
 33 34  1  0  0  0  0
 33 31  2  0  0  0  0
 34 28  2  0  0  0  0
 35 36  1  0  0  0  0
 35 37  1  0  0  0  0
M  END
>  <minimizedAffinity>
-6.86960602

>  <minimizedRMSD>
1.48814499

$$$$
