
 OpenBabel03242512193D

 38 41  0  0  0  0  0  0  0  0999 V2000
   38.1940   29.3920   42.6330 C   0  0  0  0  0  0  0  0  0  0  0  0
   38.4710   28.1030   43.0140 C   0  0  0  0  0  0  0  0  0  0  0  0
   39.7910   27.7050   43.1360 C   0  0  0  0  0  0  0  0  0  0  0  0
   40.8010   28.6180   42.8690 C   0  0  0  0  0  0  0  0  0  0  0  0
   40.4930   29.8930   42.4910 C   0  0  0  0  0  0  0  0  0  0  0  0
   39.1630   30.3130   42.3630 C   0  0  0  0  0  0  0  0  0  0  0  0
   39.9090   26.6570   43.4470 H   0  0  0  0  0  0  0  0  0  0  0  0
   41.7940   28.2310   42.9860 H   0  0  0  0  0  0  0  0  0  0  0  0
   41.3240   30.5690   42.2930 H   0  0  0  0  0  0  0  0  0  0  0  0
   37.2920   27.2480   43.2650 C   0  0  0  0  0  0  0  0  0  0  0  0
   36.4240   27.7920   43.6010 H   0  0  0  0  0  0  0  0  0  0  0  0
   37.5440   26.5370   44.1080 H   0  0  0  0  0  0  0  0  0  0  0  0
   37.0290   26.3930   42.0380 C   0  0  0  0  0  0  0  0  0  0  0  0
   37.0070   25.0180   42.2050 C   0  0  0  0  0  0  0  0  0  0  0  0
   36.7610   24.2430   41.0800 C   0  0  0  0  0  0  0  0  0  0  0  0
   36.5600   24.8700   39.8990 N   0  0  0  0  0  0  0  0  0  0  0  0
   36.5860   26.2150   39.7700 C   0  0  0  0  0  0  0  0  0  0  0  0
   36.8210   26.9740   40.8380 N   0  0  0  0  0  0  0  0  0  0  0  0
   37.1730   24.5390   43.1660 H   0  0  0  0  0  0  0  0  0  0  0  0
   36.7350   23.1590   41.1610 H   0  0  0  0  0  0  0  0  0  0  0  0
   36.4120   26.6220   38.7780 H   0  0  0  0  0  0  0  0  0  0  0  0
   36.9070   29.9110   42.4740 O   0  0  0  0  0  0  0  0  0  0  0  0
   36.4470   29.7940   41.5890 H   0  0  0  0  0  0  0  0  0  0  0  0
   38.9780   31.6420   41.9740 O   0  0  0  0  0  0  0  0  0  0  0  0
   41.5000   32.9920   42.2000 H   0  0  0  0  0  0  0  0  0  0  0  0
   41.1430   32.8230   41.2360 N   0  0  0  0  0  0  0  0  0  0  0  0
   39.9590   32.1880   41.1620 C   0  0  0  0  0  0  0  0  0  0  0  0
   39.6880   32.0730   39.8270 N   0  0  0  0  0  0  0  0  0  0  0  0
   40.6770   32.6210   39.0990 C   0  0  0  0  0  0  0  0  0  0  0  0
   41.0040   32.8270   37.7770 C   0  0  0  0  0  0  0  0  0  0  0  0
   42.1360   33.4450   37.3860 N   0  0  0  0  0  0  0  0  0  0  0  0
   42.9980   33.8880   38.3140 C   0  0  0  0  0  0  0  0  0  0  0  0
   43.9340   34.3960   38.0750 H   0  0  0  0  0  0  0  0  0  0  0  0
   42.7130   33.7040   39.6320 N   0  0  0  0  0  0  0  0  0  0  0  0
   41.5790   33.0860   40.0040 C   0  0  0  0  0  0  0  0  0  0  0  0
   40.0610   32.3420   36.8000 N   0  0  0  0  0  0  0  0  0  0  0  0
   39.7580   31.3910   36.4530 H   0  0  0  0  0  0  0  0  0  0  0  0
   39.5950   33.1630   36.3630 H   0  0  0  0  0  0  0  0  0  0  0  0
  1  2  1  0  0  0  0
  2  3  2  0  0  0  0
  2 10  1  0  0  0  0
  3  7  1  0  0  0  0
  4  8  1  0  0  0  0
  4  3  1  0  0  0  0
  5  4  2  0  0  0  0
  6  5  1  0  0  0  0
  6  1  2  0  0  0  0
  9  5  1  0  0  0  0
 10 11  1  0  0  0  0
 10 12  1  0  0  0  0
 13 14  1  0  0  0  0
 13 10  1  0  0  0  0
 14 19  1  0  0  0  0
 15 20  1  0  0  0  0
 15 14  2  0  0  0  0
 16 15  1  0  0  0  0
 17 16  2  0  0  0  0
 17 18  1  0  0  0  0
 18 13  2  0  0  0  0
 21 17  1  0  0  0  0
 22  1  1  0  0  0  0
 23 22  1  0  0  0  0
 24  6  1  0  0  0  0
 26 25  1  0  0  0  0
 27 26  1  0  0  0  0
 27 24  1  0  0  0  0
 28 27  2  0  0  0  0
 29 28  1  0  0  0  0
 29 35  1  0  0  0  0
 30 29  2  0  0  0  0
 31 30  1  0  0  0  0
 31 32  2  0  0  0  0
 32 34  1  0  0  0  0
 33 32  1  0  0  0  0
 34 35  2  0  0  0  0
 35 26  1  0  0  0  0
 36 30  1  0  0  0  0
 37 36  1  0  0  0  0
 38 36  1  0  0  0  0
M  END
>  <minimizedAffinity>
-6.86275291

$$$$

 OpenBabel03242512193D

 38 41  0  0  0  0  0  0  0  0999 V2000
   36.9340   29.0170   41.8320 C   0  0  0  0  0  0  0  0  0  0  0  0
   36.8100   27.6650   41.6240 C   0  0  0  0  0  0  0  0  0  0  0  0
   36.5920   27.1980   40.3390 C   0  0  0  0  0  0  0  0  0  0  0  0
   36.5040   28.1060   39.2940 C   0  0  0  0  0  0  0  0  0  0  0  0
   36.6320   29.4430   39.5330 C   0  0  0  0  0  0  0  0  0  0  0  0
   36.8530   29.9340   40.8260 C   0  0  0  0  0  0  0  0  0  0  0  0
   36.5080   26.1040   40.2760 H   0  0  0  0  0  0  0  0  0  0  0  0
   36.3350   27.6630   38.3330 H   0  0  0  0  0  0  0  0  0  0  0  0
   36.5540   30.1130   38.6770 H   0  0  0  0  0  0  0  0  0  0  0  0
   36.9270   26.8240   42.8330 C   0  0  0  0  0  0  0  0  0  0  0  0
   36.2420   25.9910   42.8510 H   0  0  0  0  0  0  0  0  0  0  0  0
   36.6540   27.4540   43.7310 H   0  0  0  0  0  0  0  0  0  0  0  0
   38.3770   26.4120   43.0140 C   0  0  0  0  0  0  0  0  0  0  0  0
   38.7580   25.1700   42.5350 C   0  0  0  0  0  0  0  0  0  0  0  0
   40.0860   24.8030   42.7000 C   0  0  0  0  0  0  0  0  0  0  0  0
   40.9220   25.6710   43.3130 N   0  0  0  0  0  0  0  0  0  0  0  0
   40.5190   26.8780   43.7690 C   0  0  0  0  0  0  0  0  0  0  0  0
   39.2490   27.2470   43.6200 N   0  0  0  0  0  0  0  0  0  0  0  0
   38.0650   24.4900   42.0470 H   0  0  0  0  0  0  0  0  0  0  0  0
   40.4320   23.8360   42.3400 H   0  0  0  0  0  0  0  0  0  0  0  0
   41.2670   27.5030   44.2470 H   0  0  0  0  0  0  0  0  0  0  0  0
   37.1530   29.6090   43.0770 O   0  0  0  0  0  0  0  0  0  0  0  0
   36.3600   29.8260   43.6530 H   0  0  0  0  0  0  0  0  0  0  0  0
   36.9700   31.3220   40.9410 O   0  0  0  0  0  0  0  0  0  0  0  0
   39.1820   32.3700   42.4380 H   0  0  0  0  0  0  0  0  0  0  0  0
   39.2840   32.3500   41.4010 N   0  0  0  0  0  0  0  0  0  0  0  0
   38.2310   31.8540   40.7270 C   0  0  0  0  0  0  0  0  0  0  0  0
   38.5780   31.9200   39.4070 N   0  0  0  0  0  0  0  0  0  0  0  0
   39.8090   32.4430   39.2710 C   0  0  0  0  0  0  0  0  0  0  0  0
   40.6990   32.7640   38.2690 C   0  0  0  0  0  0  0  0  0  0  0  0
   41.9120   33.3030   38.5060 N   0  0  0  0  0  0  0  0  0  0  0  0
   42.2880   33.5460   39.7710 C   0  0  0  0  0  0  0  0  0  0  0  0
   43.2530   33.9780   40.0400 H   0  0  0  0  0  0  0  0  0  0  0  0
   41.4390   33.2420   40.7900 N   0  0  0  0  0  0  0  0  0  0  0  0
   40.2330   32.7060   40.5360 C   0  0  0  0  0  0  0  0  0  0  0  0
   40.2700   32.4930   36.9190 N   0  0  0  0  0  0  0  0  0  0  0  0
   40.1130   31.6240   36.3390 H   0  0  0  0  0  0  0  0  0  0  0  0
   40.0810   33.4030   36.4510 H   0  0  0  0  0  0  0  0  0  0  0  0
  1 22  1  0  0  0  0
  2  1  1  0  0  0  0
  2 10  1  0  0  0  0
  3  2  2  0  0  0  0
  4  5  2  0  0  0  0
  4  3  1  0  0  0  0
  5  6  1  0  0  0  0
  6 24  1  0  0  0  0
  6  1  2  0  0  0  0
  7  3  1  0  0  0  0
  8  4  1  0  0  0  0
  9  5  1  0  0  0  0
 10 11  1  0  0  0  0
 10 13  1  0  0  0  0
 10 12  1  0  0  0  0
 13 18  1  0  0  0  0
 14 15  1  0  0  0  0
 14 13  2  0  0  0  0
 15 16  2  0  0  0  0
 16 17  1  0  0  0  0
 17 21  1  0  0  0  0
 18 17  2  0  0  0  0
 19 14  1  0  0  0  0
 20 15  1  0  0  0  0
 22 23  1  0  0  0  0
 26 25  1  0  0  0  0
 27 24  1  0  0  0  0
 27 26  1  0  0  0  0
 28 27  2  0  0  0  0
 29 28  1  0  0  0  0
 29 35  1  0  0  0  0
 30 31  1  0  0  0  0
 30 29  2  0  0  0  0
 31 32  2  0  0  0  0
 32 33  1  0  0  0  0
 32 34  1  0  0  0  0
 35 34  2  0  0  0  0
 35 26  1  0  0  0  0
 36 30  1  0  0  0  0
 37 36  1  0  0  0  0
 38 36  1  0  0  0  0
M  END
>  <minimizedAffinity>
-6.76146412

$$$$

 OpenBabel03242512193D

 38 41  0  0  0  0  0  0  0  0999 V2000
   36.6920   28.8970   41.5640 C   0  0  0  0  0  0  0  0  0  0  0  0
   37.0270   27.6220   41.9470 C   0  0  0  0  0  0  0  0  0  0  0  0
   36.9330   26.5940   41.0230 C   0  0  0  0  0  0  0  0  0  0  0  0
   36.5040   26.8780   39.7350 C   0  0  0  0  0  0  0  0  0  0  0  0
   36.1780   28.1570   39.3850 C   0  0  0  0  0  0  0  0  0  0  0  0
   36.2670   29.2080   40.3060 C   0  0  0  0  0  0  0  0  0  0  0  0
   37.2230   25.6130   41.4240 H   0  0  0  0  0  0  0  0  0  0  0  0
   36.4590   26.0290   39.0830 H   0  0  0  0  0  0  0  0  0  0  0  0
   35.8460   28.3240   38.3610 H   0  0  0  0  0  0  0  0  0  0  0  0
   37.4680   27.4750   43.3490 C   0  0  0  0  0  0  0  0  0  0  0  0
   37.0340   26.6270   43.8550 H   0  0  0  0  0  0  0  0  0  0  0  0
   37.1160   28.3800   43.9270 H   0  0  0  0  0  0  0  0  0  0  0  0
   38.9860   27.4900   43.3980 C   0  0  0  0  0  0  0  0  0  0  0  0
   39.6280   26.3390   43.8230 C   0  0  0  0  0  0  0  0  0  0  0  0
   41.0150   26.3590   43.8600 C   0  0  0  0  0  0  0  0  0  0  0  0
   41.6520   27.4910   43.4830 N   0  0  0  0  0  0  0  0  0  0  0  0
   40.9950   28.5980   43.0720 C   0  0  0  0  0  0  0  0  0  0  0  0
   39.6650   28.5980   43.0300 N   0  0  0  0  0  0  0  0  0  0  0  0
   39.0910   25.4420   44.1210 H   0  0  0  0  0  0  0  0  0  0  0  0
   41.5630   25.4780   44.1870 H   0  0  0  0  0  0  0  0  0  0  0  0
   41.5980   29.4570   42.7900 H   0  0  0  0  0  0  0  0  0  0  0  0
   36.7430   30.0130   42.4010 O   0  0  0  0  0  0  0  0  0  0  0  0
   35.9460   30.2220   42.9730 H   0  0  0  0  0  0  0  0  0  0  0  0
   35.9100   30.4720   39.8260 O   0  0  0  0  0  0  0  0  0  0  0  0
   36.4160   32.9140   41.2440 H   0  0  0  0  0  0  0  0  0  0  0  0
   37.1420   32.6080   40.5630 N   0  0  0  0  0  0  0  0  0  0  0  0
   36.8770   31.4600   39.9140 C   0  0  0  0  0  0  0  0  0  0  0  0
   37.9450   31.2520   39.0880 N   0  0  0  0  0  0  0  0  0  0  0  0
   38.8430   32.2440   39.2220 C   0  0  0  0  0  0  0  0  0  0  0  0
   40.0660   32.6170   38.7100 C   0  0  0  0  0  0  0  0  0  0  0  0
   40.7150   33.7350   39.0920 N   0  0  0  0  0  0  0  0  0  0  0  0
   40.1580   34.5360   40.0150 C   0  0  0  0  0  0  0  0  0  0  0  0
   40.6230   35.4550   40.3740 H   0  0  0  0  0  0  0  0  0  0  0  0
   38.9510   34.2030   40.5470 N   0  0  0  0  0  0  0  0  0  0  0  0
   38.3170   33.0850   40.1530 C   0  0  0  0  0  0  0  0  0  0  0  0
   40.6420   31.7400   37.7200 N   0  0  0  0  0  0  0  0  0  0  0  0
   41.0730   30.7760   37.7290 H   0  0  0  0  0  0  0  0  0  0  0  0
   40.5950   32.2180   36.7970 H   0  0  0  0  0  0  0  0  0  0  0  0
  1  2  1  0  0  0  0
  1 22  1  0  0  0  0
  2 10  1  0  0  0  0
  3  7  1  0  0  0  0
  3  2  2  0  0  0  0
  4  3  1  0  0  0  0
  5  4  2  0  0  0  0
  5  6  1  0  0  0  0
  6  1  2  0  0  0  0
  8  4  1  0  0  0  0
  9  5  1  0  0  0  0
 10 13  1  0  0  0  0
 10 11  1  0  0  0  0
 10 12  1  0  0  0  0
 13 14  1  0  0  0  0
 14 15  2  0  0  0  0
 14 19  1  0  0  0  0
 15 20  1  0  0  0  0
 16 15  1  0  0  0  0
 17 16  2  0  0  0  0
 18 17  1  0  0  0  0
 18 13  2  0  0  0  0
 21 17  1  0  0  0  0
 22 23  1  0  0  0  0
 24 27  1  0  0  0  0
 24  6  1  0  0  0  0
 26 25  1  0  0  0  0
 27 26  1  0  0  0  0
 28 29  1  0  0  0  0
 28 27  2  0  0  0  0
 29 35  1  0  0  0  0
 30 31  1  0  0  0  0
 30 29  2  0  0  0  0
 31 32  2  0  0  0  0
 32 33  1  0  0  0  0
 32 34  1  0  0  0  0
 35 34  2  0  0  0  0
 35 26  1  0  0  0  0
 36 37  1  0  0  0  0
 36 30  1  0  0  0  0
 38 36  1  0  0  0  0
M  END
>  <minimizedAffinity>
-6.74829102

$$$$

 OpenBabel03242512193D

 38 41  0  0  0  0  0  0  0  0999 V2000
   36.3910   31.0630   39.9570 C   0  0  0  0  0  0  0  0  0  0  0  0
   36.0640   29.8140   39.4900 C   0  0  0  0  0  0  0  0  0  0  0  0
   36.4080   29.4680   38.1940 C   0  0  0  0  0  0  0  0  0  0  0  0
   37.0750   30.3910   37.4010 C   0  0  0  0  0  0  0  0  0  0  0  0
   37.3860   31.6250   37.8950 C   0  0  0  0  0  0  0  0  0  0  0  0
   37.0460   31.9910   39.2040 C   0  0  0  0  0  0  0  0  0  0  0  0
   36.1050   28.4500   37.9140 H   0  0  0  0  0  0  0  0  0  0  0  0
   37.3060   30.0460   36.4130 H   0  0  0  0  0  0  0  0  0  0  0  0
   37.9090   32.3110   37.2310 H   0  0  0  0  0  0  0  0  0  0  0  0
   35.3560   28.9420   40.4490 C   0  0  0  0  0  0  0  0  0  0  0  0
   34.6000   28.3200   39.9960 H   0  0  0  0  0  0  0  0  0  0  0  0
   34.8010   29.5990   41.1830 H   0  0  0  0  0  0  0  0  0  0  0  0
   36.3770   28.1570   41.2540 C   0  0  0  0  0  0  0  0  0  0  0  0
   36.7810   26.9280   40.7570 C   0  0  0  0  0  0  0  0  0  0  0  0
   37.7170   26.2190   41.4960 C   0  0  0  0  0  0  0  0  0  0  0  0
   38.1750   26.7630   42.6460 N   0  0  0  0  0  0  0  0  0  0  0  0
   37.7620   27.9660   43.1030 C   0  0  0  0  0  0  0  0  0  0  0  0
   36.8630   28.6610   42.4080 N   0  0  0  0  0  0  0  0  0  0  0  0
   36.3950   26.5140   39.8300 H   0  0  0  0  0  0  0  0  0  0  0  0
   38.0650   25.2500   41.1460 H   0  0  0  0  0  0  0  0  0  0  0  0
   38.1900   28.3160   44.0370 H   0  0  0  0  0  0  0  0  0  0  0  0
   36.0970   31.5290   41.2400 O   0  0  0  0  0  0  0  0  0  0  0  0
   35.2020   31.9540   41.4050 H   0  0  0  0  0  0  0  0  0  0  0  0
   37.4220   33.2800   39.5940 O   0  0  0  0  0  0  0  0  0  0  0  0
   39.5470   34.9190   38.5780 H   0  0  0  0  0  0  0  0  0  0  0  0
   39.7940   34.2460   39.3350 N   0  0  0  0  0  0  0  0  0  0  0  0
   38.7770   33.4930   39.7900 C   0  0  0  0  0  0  0  0  0  0  0  0
   39.3170   32.6990   40.7620 N   0  0  0  0  0  0  0  0  0  0  0  0
   40.6300   32.9550   40.9010 C   0  0  0  0  0  0  0  0  0  0  0  0
   41.6990   32.5300   41.6600 C   0  0  0  0  0  0  0  0  0  0  0  0
   42.9430   33.0320   41.5270 N   0  0  0  0  0  0  0  0  0  0  0  0
   43.1700   33.9940   40.6180 C   0  0  0  0  0  0  0  0  0  0  0  0
   44.1480   34.4490   40.4550 H   0  0  0  0  0  0  0  0  0  0  0  0
   42.1410   34.4430   39.8500 N   0  0  0  0  0  0  0  0  0  0  0  0
   40.9070   33.9300   39.9950 C   0  0  0  0  0  0  0  0  0  0  0  0
   41.4270   31.4950   42.6280 N   0  0  0  0  0  0  0  0  0  0  0  0
   40.9080   31.4420   43.5450 H   0  0  0  0  0  0  0  0  0  0  0  0
   41.8690   30.6150   42.2930 H   0  0  0  0  0  0  0  0  0  0  0  0
  1 22  1  0  0  0  0
  2  1  1  0  0  0  0
  2 10  1  0  0  0  0
  3  2  2  0  0  0  0
  4  5  2  0  0  0  0
  4  3  1  0  0  0  0
  5  6  1  0  0  0  0
  6 24  1  0  0  0  0
  6  1  2  0  0  0  0
  7  3  1  0  0  0  0
  8  4  1  0  0  0  0
  9  5  1  0  0  0  0
 10 12  1  0  0  0  0
 10 13  1  0  0  0  0
 11 10  1  0  0  0  0
 13 18  1  0  0  0  0
 14 13  2  0  0  0  0
 14 15  1  0  0  0  0
 15 16  2  0  0  0  0
 16 17  1  0  0  0  0
 17 21  1  0  0  0  0
 18 17  2  0  0  0  0
 19 14  1  0  0  0  0
 20 15  1  0  0  0  0
 22 23  1  0  0  0  0
 24 27  1  0  0  0  0
 25 26  1  0  0  0  0
 26 27  1  0  0  0  0
 26 35  1  0  0  0  0
 27 28  2  0  0  0  0
 28 29  1  0  0  0  0
 29 30  1  0  0  0  0
 30 36  1  0  0  0  0
 31 30  2  0  0  0  0
 32 31  1  0  0  0  0
 33 32  1  0  0  0  0
 34 35  1  0  0  0  0
 34 32  2  0  0  0  0
 35 29  2  0  0  0  0
 36 37  1  0  0  0  0
 38 36  1  0  0  0  0
M  END
>  <minimizedAffinity>
-6.55145741

$$$$

 OpenBabel03242512193D

 38 41  0  0  0  0  0  0  0  0999 V2000
   36.8780   28.1070   41.8170 C   0  0  0  0  0  0  0  0  0  0  0  0
   36.1940   28.1810   40.6290 C   0  0  0  0  0  0  0  0  0  0  0  0
   36.3030   27.1410   39.7220 C   0  0  0  0  0  0  0  0  0  0  0  0
   37.1000   26.0500   40.0370 C   0  0  0  0  0  0  0  0  0  0  0  0
   37.7680   26.0050   41.2260 C   0  0  0  0  0  0  0  0  0  0  0  0
   37.6690   27.0490   42.1550 C   0  0  0  0  0  0  0  0  0  0  0  0
   35.7190   27.2930   38.8040 H   0  0  0  0  0  0  0  0  0  0  0  0
   37.1320   25.2890   39.2820 H   0  0  0  0  0  0  0  0  0  0  0  0
   38.3810   25.1270   41.4220 H   0  0  0  0  0  0  0  0  0  0  0  0
   35.3850   29.4030   40.4370 C   0  0  0  0  0  0  0  0  0  0  0  0
   34.8170   29.6900   41.3070 H   0  0  0  0  0  0  0  0  0  0  0  0
   34.6170   29.1960   39.6340 H   0  0  0  0  0  0  0  0  0  0  0  0
   36.2780   30.5120   39.9090 C   0  0  0  0  0  0  0  0  0  0  0  0
   36.5780   30.5080   38.5570 C   0  0  0  0  0  0  0  0  0  0  0  0
   37.3910   31.5270   38.0820 C   0  0  0  0  0  0  0  0  0  0  0  0
   37.8390   32.4540   38.9580 N   0  0  0  0  0  0  0  0  0  0  0  0
   37.5270   32.4310   40.2730 C   0  0  0  0  0  0  0  0  0  0  0  0
   36.7490   31.4600   40.7470 N   0  0  0  0  0  0  0  0  0  0  0  0
   36.2050   29.7500   37.8740 H   0  0  0  0  0  0  0  0  0  0  0  0
   37.6540   31.5660   37.0270 H   0  0  0  0  0  0  0  0  0  0  0  0
   37.9370   33.2210   40.8950 H   0  0  0  0  0  0  0  0  0  0  0  0
   36.8490   29.0900   42.8090 O   0  0  0  0  0  0  0  0  0  0  0  0
   37.4980   29.8530   42.7480 H   0  0  0  0  0  0  0  0  0  0  0  0
   38.3970   26.8850   43.3370 O   0  0  0  0  0  0  0  0  0  0  0  0
   39.9670   29.2750   43.0950 H   0  0  0  0  0  0  0  0  0  0  0  0
   40.4890   28.3770   43.1890 N   0  0  0  0  0  0  0  0  0  0  0  0
   39.7250   27.2750   43.3010 C   0  0  0  0  0  0  0  0  0  0  0  0
   40.6020   26.2330   43.4140 N   0  0  0  0  0  0  0  0  0  0  0  0
   41.8700   26.6800   43.3710 C   0  0  0  0  0  0  0  0  0  0  0  0
   43.1520   26.1800   43.4280 C   0  0  0  0  0  0  0  0  0  0  0  0
   44.2510   26.9570   43.3500 N   0  0  0  0  0  0  0  0  0  0  0  0
   44.1080   28.2840   43.2100 C   0  0  0  0  0  0  0  0  0  0  0  0
   44.9490   28.9770   43.1420 H   0  0  0  0  0  0  0  0  0  0  0  0
   42.8580   28.8190   43.1510 N   0  0  0  0  0  0  0  0  0  0  0  0
   41.7740   28.0290   43.2290 C   0  0  0  0  0  0  0  0  0  0  0  0
   43.2770   24.7510   43.5780 N   0  0  0  0  0  0  0  0  0  0  0  0
   43.0990   24.0570   44.3540 H   0  0  0  0  0  0  0  0  0  0  0  0
   43.6270   24.3600   42.6790 H   0  0  0  0  0  0  0  0  0  0  0  0
  1  6  1  0  0  0  0
  1 22  1  0  0  0  0
  2  1  2  0  0  0  0
  3  4  2  0  0  0  0
  3  2  1  0  0  0  0
  4  5  1  0  0  0  0
  5  9  1  0  0  0  0
  5  6  2  0  0  0  0
  6 24  1  0  0  0  0
  7  3  1  0  0  0  0
  8  4  1  0  0  0  0
 10  2  1  0  0  0  0
 10 11  1  0  0  0  0
 12 10  1  0  0  0  0
 13 10  1  0  0  0  0
 13 18  1  0  0  0  0
 14 13  2  0  0  0  0
 15 14  1  0  0  0  0
 15 16  2  0  0  0  0
 16 17  1  0  0  0  0
 17 18  2  0  0  0  0
 17 21  1  0  0  0  0
 19 14  1  0  0  0  0
 20 15  1  0  0  0  0
 23 22  1  0  0  0  0
 25 26  1  0  0  0  0
 26 35  1  0  0  0  0
 26 27  1  0  0  0  0
 27 24  1  0  0  0  0
 27 28  2  0  0  0  0
 29 28  1  0  0  0  0
 29 30  1  0  0  0  0
 30 36  1  0  0  0  0
 31 30  2  0  0  0  0
 32 31  1  0  0  0  0
 33 32  1  0  0  0  0
 34 32  2  0  0  0  0
 34 35  1  0  0  0  0
 35 29  2  0  0  0  0
 36 37  1  0  0  0  0
 38 36  1  0  0  0  0
M  END
>  <minimizedAffinity>
-6.21836042

$$$$

 OpenBabel03242512193D

 38 41  0  0  0  0  0  0  0  0999 V2000
   37.1110   29.8220   41.7630 C   0  0  0  0  0  0  0  0  0  0  0  0
   38.0100   29.4310   42.7240 C   0  0  0  0  0  0  0  0  0  0  0  0
   39.2630   30.0210   42.7550 C   0  0  0  0  0  0  0  0  0  0  0  0
   39.5770   30.9920   41.8150 C   0  0  0  0  0  0  0  0  0  0  0  0
   38.6620   31.3590   40.8730 C   0  0  0  0  0  0  0  0  0  0  0  0
   37.3900   30.7730   40.8270 C   0  0  0  0  0  0  0  0  0  0  0  0
   39.9090   29.6420   43.5590 H   0  0  0  0  0  0  0  0  0  0  0  0
   40.5650   31.3980   41.9080 H   0  0  0  0  0  0  0  0  0  0  0  0
   38.9600   32.1250   40.1580 H   0  0  0  0  0  0  0  0  0  0  0  0
   37.5310   28.3890   43.6560 C   0  0  0  0  0  0  0  0  0  0  0  0
   36.4570   28.3190   43.7150 H   0  0  0  0  0  0  0  0  0  0  0  0
   37.8710   28.6630   44.6980 H   0  0  0  0  0  0  0  0  0  0  0  0
   38.2010   27.0700   43.3120 C   0  0  0  0  0  0  0  0  0  0  0  0
   37.5540   26.2330   42.4190 C   0  0  0  0  0  0  0  0  0  0  0  0
   38.1740   25.0310   42.1060 C   0  0  0  0  0  0  0  0  0  0  0  0
   39.3620   24.7510   42.6870 N   0  0  0  0  0  0  0  0  0  0  0  0
   39.9700   25.5910   43.5550 C   0  0  0  0  0  0  0  0  0  0  0  0
   39.3890   26.7470   43.8670 N   0  0  0  0  0  0  0  0  0  0  0  0
   36.5970   26.4830   41.9660 H   0  0  0  0  0  0  0  0  0  0  0  0
   37.7030   24.3420   41.4090 H   0  0  0  0  0  0  0  0  0  0  0  0
   40.9230   25.2740   43.9670 H   0  0  0  0  0  0  0  0  0  0  0  0
   35.8220   29.3020   41.6280 O   0  0  0  0  0  0  0  0  0  0  0  0
   35.6940   28.4700   41.0820 H   0  0  0  0  0  0  0  0  0  0  0  0
   36.5410   31.2360   39.8170 O   0  0  0  0  0  0  0  0  0  0  0  0
   38.1010   30.8750   37.4360 H   0  0  0  0  0  0  0  0  0  0  0  0
   37.2300   30.3090   37.5170 N   0  0  0  0  0  0  0  0  0  0  0  0
   36.5200   30.5000   38.6440 C   0  0  0  0  0  0  0  0  0  0  0  0
   35.4400   29.6690   38.5410 N   0  0  0  0  0  0  0  0  0  0  0  0
   35.4820   28.9870   37.3830 C   0  0  0  0  0  0  0  0  0  0  0  0
   34.7420   28.0440   36.7030 C   0  0  0  0  0  0  0  0  0  0  0  0
   35.0990   27.5560   35.4980 N   0  0  0  0  0  0  0  0  0  0  0  0
   36.2250   27.9980   34.9170 C   0  0  0  0  0  0  0  0  0  0  0  0
   36.5780   27.6490   33.9460 H   0  0  0  0  0  0  0  0  0  0  0  0
   36.9850   28.9290   35.5560 N   0  0  0  0  0  0  0  0  0  0  0  0
   36.6140   29.4050   36.7560 C   0  0  0  0  0  0  0  0  0  0  0  0
   33.5370   27.5870   37.3500 N   0  0  0  0  0  0  0  0  0  0  0  0
   33.3150   26.9840   38.1880 H   0  0  0  0  0  0  0  0  0  0  0  0
   32.7230   27.9720   36.8280 H   0  0  0  0  0  0  0  0  0  0  0  0
  1  2  1  0  0  0  0
  2  3  2  0  0  0  0
  2 10  1  0  0  0  0
  3  7  1  0  0  0  0
  4  8  1  0  0  0  0
  4  3  1  0  0  0  0
  5  4  2  0  0  0  0
  6  5  1  0  0  0  0
  6  1  2  0  0  0  0
  9  5  1  0  0  0  0
 10 11  1  0  0  0  0
 10 12  1  0  0  0  0
 13 10  1  0  0  0  0
 13 18  1  0  0  0  0
 14 13  2  0  0  0  0
 15 14  1  0  0  0  0
 15 16  2  0  0  0  0
 16 17  1  0  0  0  0
 17 18  2  0  0  0  0
 17 21  1  0  0  0  0
 19 14  1  0  0  0  0
 20 15  1  0  0  0  0
 22  1  1  0  0  0  0
 23 22  1  0  0  0  0
 24  6  1  0  0  0  0
 25 26  1  0  0  0  0
 26 27  1  0  0  0  0
 27 24  1  0  0  0  0
 28 27  2  0  0  0  0
 29 28  1  0  0  0  0
 30 36  1  0  0  0  0
 30 29  2  0  0  0  0
 31 30  1  0  0  0  0
 32 31  2  0  0  0  0
 32 34  1  0  0  0  0
 33 32  1  0  0  0  0
 34 35  2  0  0  0  0
 35 29  1  0  0  0  0
 35 26  1  0  0  0  0
 36 37  1  0  0  0  0
 38 36  1  0  0  0  0
M  END
>  <minimizedAffinity>
-6.06754589

$$$$

 OpenBabel03242512193D

 38 41  0  0  0  0  0  0  0  0999 V2000
   37.2570   31.6270   38.4260 C   0  0  0  0  0  0  0  0  0  0  0  0
   36.7080   30.3790   38.2690 C   0  0  0  0  0  0  0  0  0  0  0  0
   36.2550   29.6970   39.3860 C   0  0  0  0  0  0  0  0  0  0  0  0
   36.3670   30.2910   40.6340 C   0  0  0  0  0  0  0  0  0  0  0  0
   36.9170   31.5330   40.7580 C   0  0  0  0  0  0  0  0  0  0  0  0
   37.3810   32.2380   39.6390 C   0  0  0  0  0  0  0  0  0  0  0  0
   35.8330   28.7080   39.1570 H   0  0  0  0  0  0  0  0  0  0  0  0
   35.9930   29.6980   41.4450 H   0  0  0  0  0  0  0  0  0  0  0  0
   36.9820   31.9530   41.7610 H   0  0  0  0  0  0  0  0  0  0  0  0
   36.6550   29.8780   36.8800 C   0  0  0  0  0  0  0  0  0  0  0  0
   36.7850   30.6480   36.1360 H   0  0  0  0  0  0  0  0  0  0  0  0
   35.6240   29.4550   36.6960 H   0  0  0  0  0  0  0  0  0  0  0  0
   37.6330   28.7260   36.7300 C   0  0  0  0  0  0  0  0  0  0  0  0
   37.1410   27.5250   36.2440 C   0  0  0  0  0  0  0  0  0  0  0  0
   38.0410   26.4780   36.1060 C   0  0  0  0  0  0  0  0  0  0  0  0
   39.3310   26.6890   36.4500 N   0  0  0  0  0  0  0  0  0  0  0  0
   39.7800   27.8740   36.9200 C   0  0  0  0  0  0  0  0  0  0  0  0
   38.9310   28.8900   37.0610 N   0  0  0  0  0  0  0  0  0  0  0  0
   36.0980   27.3830   35.9750 H   0  0  0  0  0  0  0  0  0  0  0  0
   37.7020   25.5160   35.7280 H   0  0  0  0  0  0  0  0  0  0  0  0
   40.8350   27.9420   37.1690 H   0  0  0  0  0  0  0  0  0  0  0  0
   37.7500   32.4120   37.3820 O   0  0  0  0  0  0  0  0  0  0  0  0
   38.7010   32.2820   37.0900 H   0  0  0  0  0  0  0  0  0  0  0  0
   37.9200   33.5020   39.8950 O   0  0  0  0  0  0  0  0  0  0  0  0
   39.8610   33.3270   42.0010 H   0  0  0  0  0  0  0  0  0  0  0  0
   40.2270   33.4840   41.0380 N   0  0  0  0  0  0  0  0  0  0  0  0
   39.2930   33.5610   40.0730 C   0  0  0  0  0  0  0  0  0  0  0  0
   39.9850   33.7630   38.9110 N   0  0  0  0  0  0  0  0  0  0  0  0
   41.3060   33.8100   39.1540 C   0  0  0  0  0  0  0  0  0  0  0  0
   42.4860   33.9760   38.4620 C   0  0  0  0  0  0  0  0  0  0  0  0
   43.6960   33.9690   39.0560 N   0  0  0  0  0  0  0  0  0  0  0  0
   43.7750   33.7910   40.3850 C   0  0  0  0  0  0  0  0  0  0  0  0
   44.7170   33.7710   40.9350 H   0  0  0  0  0  0  0  0  0  0  0  0
   42.6330   33.6210   41.1050 N   0  0  0  0  0  0  0  0  0  0  0  0
   41.4350   33.6330   40.4960 C   0  0  0  0  0  0  0  0  0  0  0  0
   42.3730   34.1670   37.0370 N   0  0  0  0  0  0  0  0  0  0  0  0
   42.1150   33.5560   36.2150 H   0  0  0  0  0  0  0  0  0  0  0  0
   42.6100   35.1570   36.8220 H   0  0  0  0  0  0  0  0  0  0  0  0
  1  6  1  0  0  0  0
  2  1  2  0  0  0  0
  2  3  1  0  0  0  0
  3  4  2  0  0  0  0
  4  5  1  0  0  0  0
  4  8  1  0  0  0  0
  5  9  1  0  0  0  0
  6 24  1  0  0  0  0
  6  5  2  0  0  0  0
  7  3  1  0  0  0  0
 10  2  1  0  0  0  0
 11 10  1  0  0  0  0
 12 10  1  0  0  0  0
 13 10  1  0  0  0  0
 13 18  1  0  0  0  0
 14 13  2  0  0  0  0
 15 14  1  0  0  0  0
 15 16  2  0  0  0  0
 16 17  1  0  0  0  0
 17 18  2  0  0  0  0
 17 21  1  0  0  0  0
 19 14  1  0  0  0  0
 20 15  1  0  0  0  0
 22  1  1  0  0  0  0
 23 22  1  0  0  0  0
 24 27  1  0  0  0  0
 26 25  1  0  0  0  0
 27 26  1  0  0  0  0
 28 29  1  0  0  0  0
 28 27  2  0  0  0  0
 29 35  1  0  0  0  0
 30 31  1  0  0  0  0
 30 29  2  0  0  0  0
 31 32  2  0  0  0  0
 32 33  1  0  0  0  0
 32 34  1  0  0  0  0
 35 26  1  0  0  0  0
 35 34  2  0  0  0  0
 36 30  1  0  0  0  0
 37 36  1  0  0  0  0
 38 36  1  0  0  0  0
M  END
>  <minimizedAffinity>
-5.95818615

$$$$

 OpenBabel03242512193D

 38 41  0  0  0  0  0  0  0  0999 V2000
   38.1860   25.9530   42.6380 C   0  0  0  0  0  0  0  0  0  0  0  0
   38.9230   24.8570   42.2620 C   0  0  0  0  0  0  0  0  0  0  0  0
   40.2310   24.7420   42.7000 C   0  0  0  0  0  0  0  0  0  0  0  0
   40.7650   25.7360   43.5080 C   0  0  0  0  0  0  0  0  0  0  0  0
   40.0070   26.8130   43.8640 C   0  0  0  0  0  0  0  0  0  0  0  0
   38.6810   26.9460   43.4310 C   0  0  0  0  0  0  0  0  0  0  0  0
   40.7360   23.8320   42.3480 H   0  0  0  0  0  0  0  0  0  0  0  0
   41.7820   25.5720   43.8030 H   0  0  0  0  0  0  0  0  0  0  0  0
   40.4750   27.5650   44.4990 H   0  0  0  0  0  0  0  0  0  0  0  0
   38.2190   23.8830   41.4020 C   0  0  0  0  0  0  0  0  0  0  0  0
   37.1960   23.7050   41.6940 H   0  0  0  0  0  0  0  0  0  0  0  0
   38.7370   22.8830   41.5040 H   0  0  0  0  0  0  0  0  0  0  0  0
   38.3660   24.3050   39.9510 C   0  0  0  0  0  0  0  0  0  0  0  0
   39.4360   23.7910   39.2370 C   0  0  0  0  0  0  0  0  0  0  0  0
   39.5610   24.1770   37.9100 C   0  0  0  0  0  0  0  0  0  0  0  0
   38.6410   25.0240   37.3970 N   0  0  0  0  0  0  0  0  0  0  0  0
   37.6060   25.5070   38.1210 C   0  0  0  0  0  0  0  0  0  0  0  0
   37.4700   25.1480   39.3960 N   0  0  0  0  0  0  0  0  0  0  0  0
   40.1620   23.1110   39.6740 H   0  0  0  0  0  0  0  0  0  0  0  0
   40.3850   23.7990   37.3090 H   0  0  0  0  0  0  0  0  0  0  0  0
   36.9200   26.1820   37.6170 H   0  0  0  0  0  0  0  0  0  0  0  0
   36.8610   26.1830   42.2610 O   0  0  0  0  0  0  0  0  0  0  0  0
   36.6830   26.6490   41.3900 H   0  0  0  0  0  0  0  0  0  0  0  0
   38.0090   28.0910   43.8660 O   0  0  0  0  0  0  0  0  0  0  0  0
   35.8930   28.8800   42.0960 H   0  0  0  0  0  0  0  0  0  0  0  0
   36.7680   29.4450   42.0620 N   0  0  0  0  0  0  0  0  0  0  0  0
   37.7410   29.0510   42.9030 C   0  0  0  0  0  0  0  0  0  0  0  0
   38.7770   29.9180   42.6960 N   0  0  0  0  0  0  0  0  0  0  0  0
   38.4520   30.8200   41.7530 C   0  0  0  0  0  0  0  0  0  0  0  0
   39.0110   31.9040   41.1120 C   0  0  0  0  0  0  0  0  0  0  0  0
   38.3660   32.6150   40.1670 N   0  0  0  0  0  0  0  0  0  0  0  0
   37.1170   32.2660   39.8190 C   0  0  0  0  0  0  0  0  0  0  0  0
   36.5320   32.7930   39.0640 H   0  0  0  0  0  0  0  0  0  0  0  0
   36.5270   31.2020   40.4290 N   0  0  0  0  0  0  0  0  0  0  0  0
   37.1860   30.5030   41.3690 C   0  0  0  0  0  0  0  0  0  0  0  0
   40.3540   32.2570   41.5040 N   0  0  0  0  0  0  0  0  0  0  0  0
   40.8000   32.6840   42.3610 H   0  0  0  0  0  0  0  0  0  0  0  0
   40.9950   32.0110   40.7220 H   0  0  0  0  0  0  0  0  0  0  0  0
  1  6  1  0  0  0  0
  2  1  2  0  0  0  0
  2  3  1  0  0  0  0
  3  4  2  0  0  0  0
  4  8  1  0  0  0  0
  4  5  1  0  0  0  0
  5  9  1  0  0  0  0
  6  5  2  0  0  0  0
  6 24  1  0  0  0  0
  7  3  1  0  0  0  0
 10 12  1  0  0  0  0
 10 11  1  0  0  0  0
 10  2  1  0  0  0  0
 13 10  1  0  0  0  0
 14 19  1  0  0  0  0
 14 13  2  0  0  0  0
 15 14  1  0  0  0  0
 16 15  2  0  0  0  0
 16 17  1  0  0  0  0
 17 18  2  0  0  0  0
 18 13  1  0  0  0  0
 20 15  1  0  0  0  0
 21 17  1  0  0  0  0
 22  1  1  0  0  0  0
 23 22  1  0  0  0  0
 26 25  1  0  0  0  0
 26 27  1  0  0  0  0
 27 24  1  0  0  0  0
 28 27  2  0  0  0  0
 29 28  1  0  0  0  0
 30 36  1  0  0  0  0
 30 29  2  0  0  0  0
 31 30  1  0  0  0  0
 32 31  2  0  0  0  0
 32 34  1  0  0  0  0
 33 32  1  0  0  0  0
 34 35  2  0  0  0  0
 35 29  1  0  0  0  0
 35 26  1  0  0  0  0
 36 37  1  0  0  0  0
 38 36  1  0  0  0  0
M  END
>  <minimizedAffinity>
-5.87780046

$$$$

 OpenBabel03242512193D

 38 41  0  0  0  0  0  0  0  0999 V2000
   37.2030   31.4840   38.4170 C   0  0  0  0  0  0  0  0  0  0  0  0
   36.6400   30.2380   38.2980 C   0  0  0  0  0  0  0  0  0  0  0  0
   36.1930   29.5880   39.4360 C   0  0  0  0  0  0  0  0  0  0  0  0
   36.3260   30.2130   40.6680 C   0  0  0  0  0  0  0  0  0  0  0  0
   36.8900   31.4520   40.7540 C   0  0  0  0  0  0  0  0  0  0  0  0
   37.3470   32.1240   39.6120 C   0  0  0  0  0  0  0  0  0  0  0  0
   35.7590   28.5990   39.2370 H   0  0  0  0  0  0  0  0  0  0  0  0
   35.9550   29.6440   41.4980 H   0  0  0  0  0  0  0  0  0  0  0  0
   36.9700   31.8970   41.7450 H   0  0  0  0  0  0  0  0  0  0  0  0
   36.5670   29.7030   36.9220 C   0  0  0  0  0  0  0  0  0  0  0  0
   37.5050   29.3200   36.5540 H   0  0  0  0  0  0  0  0  0  0  0  0
   36.2960   30.5520   36.2260 H   0  0  0  0  0  0  0  0  0  0  0  0
   35.4330   28.6960   36.8410 C   0  0  0  0  0  0  0  0  0  0  0  0
   34.1400   29.1870   36.7670 C   0  0  0  0  0  0  0  0  0  0  0  0
   33.1100   28.2610   36.6880 C   0  0  0  0  0  0  0  0  0  0  0  0
   33.4250   26.9470   36.6890 N   0  0  0  0  0  0  0  0  0  0  0  0
   34.6980   26.4990   36.7620 C   0  0  0  0  0  0  0  0  0  0  0  0
   35.7000   27.3730   36.8380 N   0  0  0  0  0  0  0  0  0  0  0  0
   33.9140   30.2500   36.7680 H   0  0  0  0  0  0  0  0  0  0  0  0
   32.0770   28.6000   36.6280 H   0  0  0  0  0  0  0  0  0  0  0  0
   34.8470   25.4230   36.7550 H   0  0  0  0  0  0  0  0  0  0  0  0
   37.6920   32.2370   37.3470 O   0  0  0  0  0  0  0  0  0  0  0  0
   38.6380   32.0900   37.0480 H   0  0  0  0  0  0  0  0  0  0  0  0
   37.9020   33.3890   39.8300 O   0  0  0  0  0  0  0  0  0  0  0  0
   39.8420   33.2110   41.9370 H   0  0  0  0  0  0  0  0  0  0  0  0
   40.2090   33.3570   40.9730 N   0  0  0  0  0  0  0  0  0  0  0  0
   39.2760   33.4360   40.0070 C   0  0  0  0  0  0  0  0  0  0  0  0
   39.9680   33.6230   38.8440 N   0  0  0  0  0  0  0  0  0  0  0  0
   41.2900   33.6590   39.0860 C   0  0  0  0  0  0  0  0  0  0  0  0
   42.4720   33.8100   38.3930 C   0  0  0  0  0  0  0  0  0  0  0  0
   43.6810   33.7950   38.9870 N   0  0  0  0  0  0  0  0  0  0  0  0
   43.7590   33.6260   40.3160 C   0  0  0  0  0  0  0  0  0  0  0  0
   44.7010   33.6020   40.8670 H   0  0  0  0  0  0  0  0  0  0  0  0
   42.6160   33.4720   41.0380 N   0  0  0  0  0  0  0  0  0  0  0  0
   41.4180   33.4910   40.4290 C   0  0  0  0  0  0  0  0  0  0  0  0
   42.3600   33.9910   36.9660 N   0  0  0  0  0  0  0  0  0  0  0  0
   42.0970   33.3760   36.1490 H   0  0  0  0  0  0  0  0  0  0  0  0
   42.6060   34.9770   36.7440 H   0  0  0  0  0  0  0  0  0  0  0  0
  1  6  1  0  0  0  0
  2  1  2  0  0  0  0
  2  3  1  0  0  0  0
  3  4  2  0  0  0  0
  4  5  1  0  0  0  0
  4  8  1  0  0  0  0
  5  9  1  0  0  0  0
  6 24  1  0  0  0  0
  6  5  2  0  0  0  0
  7  3  1  0  0  0  0
 10  2  1  0  0  0  0
 11 10  1  0  0  0  0
 12 10  1  0  0  0  0
 13 10  1  0  0  0  0
 14 19  1  0  0  0  0
 14 13  2  0  0  0  0
 15 16  2  0  0  0  0
 15 14  1  0  0  0  0
 16 17  1  0  0  0  0
 17 18  2  0  0  0  0
 18 13  1  0  0  0  0
 20 15  1  0  0  0  0
 21 17  1  0  0  0  0
 22  1  1  0  0  0  0
 23 22  1  0  0  0  0
 24 27  1  0  0  0  0
 26 25  1  0  0  0  0
 27 26  1  0  0  0  0
 28 29  1  0  0  0  0
 28 27  2  0  0  0  0
 29 35  1  0  0  0  0
 30 31  1  0  0  0  0
 30 29  2  0  0  0  0
 31 32  2  0  0  0  0
 32 33  1  0  0  0  0
 32 34  1  0  0  0  0
 35 26  1  0  0  0  0
 35 34  2  0  0  0  0
 36 30  1  0  0  0  0
 37 36  1  0  0  0  0
 38 36  1  0  0  0  0
M  END
>  <minimizedAffinity>
-5.87430811

$$$$
