
 OpenBabel03252502563D

 42 45  0  0  0  0  0  0  0  0999 V2000
   45.7270   29.7790   44.7210 Br  0  0  0  0  0  0  0  0  0  0  0  0
   45.7030   30.4330   46.5450 C   0  0  0  0  0  0  0  0  0  0  0  0
   46.3200   31.6270   46.7420 C   0  0  0  0  0  0  0  0  0  0  0  0
   46.2880   32.0760   48.0700 C   0  0  0  0  0  0  0  0  0  0  0  0
   45.6870   31.3780   49.0880 C   0  0  0  0  0  0  0  0  0  0  0  0
   45.0860   30.1790   48.8020 C   0  0  0  0  0  0  0  0  0  0  0  0
   45.0850   29.6850   47.5140 C   0  0  0  0  0  0  0  0  0  0  0  0
   46.7460   33.0100   48.3410 H   0  0  0  0  0  0  0  0  0  0  0  0
   45.6850   31.7600   50.0980 H   0  0  0  0  0  0  0  0  0  0  0  0
   44.5990   29.5850   49.5600 H   0  0  0  0  0  0  0  0  0  0  0  0
   46.9950   32.4680   45.7490 C   0  0  0  0  0  0  0  0  0  0  0  0
   47.9710   32.7810   46.1340 H   0  0  0  0  0  0  0  0  0  0  0  0
   47.2220   31.7970   44.8750 H   0  0  0  0  0  0  0  0  0  0  0  0
   44.5400   35.2620   45.5280 C   0  0  0  0  0  0  0  0  0  0  0  0
   44.7260   35.7100   44.2210 C   0  0  0  0  0  0  0  0  0  0  0  0
   45.6820   35.0550   43.4360 C   0  0  0  0  0  0  0  0  0  0  0  0
   46.3730   34.0320   43.9740 N   0  0  0  0  0  0  0  0  0  0  0  0
   46.1810   33.6030   45.2550 C   0  0  0  0  0  0  0  0  0  0  0  0
   45.2540   34.2460   46.0000 N   0  0  0  0  0  0  0  0  0  0  0  0
   43.7960   35.7770   46.1260 H   0  0  0  0  0  0  0  0  0  0  0  0
   44.1710   36.5320   43.7870 H   0  0  0  0  0  0  0  0  0  0  0  0
   45.9010   35.3190   42.4250 H   0  0  0  0  0  0  0  0  0  0  0  0
   44.4720   28.4660   47.2370 O   0  0  0  0  0  0  0  0  0  0  0  0
   44.2360   25.8810   47.1890 O   0  0  0  0  0  0  0  0  0  0  0  0
   44.9170   27.0020   47.9510 P   0  0  2  0  0  0  0  0  0  0  0  0
   44.3970   27.0340   49.5490 O   0  0  0  0  0  0  0  0  0  0  0  0
   45.1150   27.3920   50.1140 H   0  0  0  0  0  0  0  0  0  0  0  0
   46.5900   26.7530   47.8580 O   0  0  0  0  0  0  0  0  0  0  0  0
   45.9870   24.0700   48.5660 H   0  0  0  0  0  0  0  0  0  0  0  0
   46.9270   24.4720   48.7660 N   0  0  0  0  0  0  0  0  0  0  0  0
   47.2790   25.7360   48.4560 C   0  0  0  0  0  0  0  0  0  0  0  0
   48.5540   25.9220   48.8520 N   0  0  0  0  0  0  0  0  0  0  0  0
   48.9610   24.7540   49.4020 C   0  0  0  0  0  0  0  0  0  0  0  0
   50.2130   24.4610   49.9540 C   0  0  0  0  0  0  0  0  0  0  0  0
   50.3800   23.2170   50.4430 N   0  0  0  0  0  0  0  0  0  0  0  0
   49.3690   22.3210   50.3870 C   0  0  0  0  0  0  0  0  0  0  0  0
   49.6330   21.3640   50.8130 H   0  0  0  0  0  0  0  0  0  0  0  0
   48.1520   22.6030   49.8520 N   0  0  0  0  0  0  0  0  0  0  0  0
   47.9440   23.8210   49.3570 C   0  0  0  0  0  0  0  0  0  0  0  0
   51.2330   25.4640   49.9750 N   0  0  0  0  0  0  0  0  0  0  0  0
   51.6380   25.9750   50.7990 H   0  0  0  0  0  0  0  0  0  0  0  0
   51.6810   25.7810   49.0810 H   0  0  0  0  0  0  0  0  0  0  0  0
  1  2  1  0  0  0  0
  2  3  2  0  0  0  0
  2  7  1  0  0  0  0
  3  4  1  0  0  0  0
  4  8  1  0  0  0  0
  4  5  2  0  0  0  0
  5  9  1  0  0  0  0
  6  5  1  0  0  0  0
  6 10  1  0  0  0  0
  7  6  2  0  0  0  0
 11 12  1  0  0  0  0
 11  3  1  0  0  0  0
 13 11  1  0  0  0  0
 14 19  1  0  0  0  0
 14 20  1  0  0  0  0
 15 14  2  0  0  0  0
 16 17  2  0  0  0  0
 16 15  1  0  0  0  0
 17 18  1  0  0  0  0
 18 11  1  0  0  0  0
 18 19  2  0  0  0  0
 21 15  1  0  0  0  0
 22 16  1  0  0  0  0
 23  7  1  0  0  0  0
 23 25  1  0  0  0  0
 25 24  2  6  0  0  0
 25 26  1  0  0  0  0
 26 27  1  0  0  0  0
 28 25  1  0  0  0  0
 28 31  1  0  0  0  0
 29 30  1  0  0  0  0
 30 39  1  0  0  0  0
 31 30  1  0  0  0  0
 31 32  2  0  0  0  0
 32 33  1  0  0  0  0
 33 34  1  0  0  0  0
 34 40  1  0  0  0  0
 34 35  2  0  0  0  0
 36 35  1  0  0  0  0
 36 37  1  0  0  0  0
 38 36  2  0  0  0  0
 39 33  2  0  0  0  0
 39 38  1  0  0  0  0
 40 41  1  0  0  0  0
 42 40  1  0  0  0  0
M  END
>  <minimizedAffinity>
-5.86889887

>  <minimizedRMSD>
0.404480219

$$$$
