
 OpenBabel03252504233D

 37 41  0  0  0  0  0  0  0  0999 V2000
   46.1200   34.5280   42.0130 C   0  0  0  0  0  0  0  0  0  0  0  0
   45.8010   35.5230   42.9460 C   0  0  0  0  0  0  0  0  0  0  0  0
   44.5060   36.0770   42.9140 C   0  0  0  0  0  0  0  0  0  0  0  0
   43.6440   35.6020   41.9700 N   0  0  0  0  0  0  0  0  0  0  0  0
   43.9960   34.6370   41.0860 C   0  0  0  0  0  0  0  0  0  0  0  0
   45.2280   34.1060   41.1110 N   0  0  0  0  0  0  0  0  0  0  0  0
   43.0270   34.2060   40.1390 N   0  0  0  0  0  0  0  0  0  0  0  0
   43.2440   33.9990   38.8170 C   0  0  0  0  0  0  0  0  0  0  0  0
   42.0670   33.5940   38.2590 N   0  0  0  0  0  0  0  0  0  0  0  0
   41.1670   33.5610   39.2350 C   0  0  0  0  0  0  0  0  0  0  0  0
   39.8380   33.2390   39.2900 C   0  0  0  0  0  0  0  0  0  0  0  0
   39.1340   33.2860   40.4200 N   0  0  0  0  0  0  0  0  0  0  0  0
   39.6920   33.6580   41.5940 C   0  0  0  0  0  0  0  0  0  0  0  0
   40.9920   33.9750   41.5480 N   0  0  0  0  0  0  0  0  0  0  0  0
   41.7390   33.9430   40.4370 C   0  0  0  0  0  0  0  0  0  0  0  0
   46.4760   35.9070   43.6970 H   0  0  0  0  0  0  0  0  0  0  0  0
   44.2100   36.8430   43.6050 H   0  0  0  0  0  0  0  0  0  0  0  0
   44.1760   34.1240   38.2660 H   0  0  0  0  0  0  0  0  0  0  0  0
   39.1300   33.7010   42.5200 H   0  0  0  0  0  0  0  0  0  0  0  0
   39.1010   32.8300   38.1590 N   0  0  0  0  0  0  0  0  0  0  0  0
   38.7170   33.6450   37.6030 H   0  0  0  0  0  0  0  0  0  0  0  0
   38.8920   31.8750   37.8170 H   0  0  0  0  0  0  0  0  0  0  0  0
   47.8050   33.9020   42.1560 S   0  0  0  0  0  0  0  0  0  0  0  0
   49.6910   31.6700   41.0850 H   0  0  0  0  0  0  0  0  0  0  0  0
   49.2410   32.2370   40.3430 N   0  0  0  0  0  0  0  0  0  0  0  0
   48.3940   33.2470   40.6130 C   0  0  0  0  0  0  0  0  0  0  0  0
   48.0170   33.7430   39.4100 N   0  0  0  0  0  0  0  0  0  0  0  0
   48.6150   33.0570   38.4430 C   0  0  0  0  0  0  0  0  0  0  0  0
   48.6110   33.1110   37.0660 C   0  0  0  0  0  0  0  0  0  0  0  0
   49.3550   32.2400   36.3810 N   0  0  0  0  0  0  0  0  0  0  0  0
   50.1130   31.3070   36.9710 C   0  0  0  0  0  0  0  0  0  0  0  0
   50.6800   30.6480   36.3130 H   0  0  0  0  0  0  0  0  0  0  0  0
   50.1490   31.2160   38.3230 N   0  0  0  0  0  0  0  0  0  0  0  0
   49.4050   32.0870   39.0230 C   0  0  0  0  0  0  0  0  0  0  0  0
   47.8390   34.0650   36.3830 N   0  0  0  0  0  0  0  0  0  0  0  0
   47.0760   34.6170   36.8390 H   0  0  0  0  0  0  0  0  0  0  0  0
   47.9890   34.2750   35.3680 H   0  0  0  0  0  0  0  0  0  0  0  0
  1 23  1  0  0  0  0
  1  2  1  0  0  0  0
  2 16  1  0  0  0  0
  3  2  2  0  0  0  0
  3 17  1  0  0  0  0
  4  3  1  0  0  0  0
  5  6  1  0  0  0  0
  5  4  2  0  0  0  0
  6  1  2  0  0  0  0
  7 15  1  0  0  0  0
  7  5  1  0  0  0  0
  8  7  1  0  0  0  0
  9  8  2  0  0  0  0
  9 10  1  0  0  0  0
 10 11  2  0  0  0  0
 10 15  1  0  0  0  0
 11 12  1  0  0  0  0
 12 13  2  0  0  0  0
 13 19  1  0  0  0  0
 14 13  1  0  0  0  0
 15 14  2  0  0  0  0
 18  8  1  0  0  0  0
 20 11  1  0  0  0  0
 21 20  1  0  0  0  0
 22 20  1  0  0  0  0
 25 26  1  0  0  0  0
 25 24  1  0  0  0  0
 26 23  1  0  0  0  0
 27 26  2  0  0  0  0
 28 34  1  0  0  0  0
 28 27  1  0  0  0  0
 29 28  2  0  0  0  0
 30 31  2  0  0  0  0
 30 29  1  0  0  0  0
 31 33  1  0  0  0  0
 32 31  1  0  0  0  0
 33 34  2  0  0  0  0
 34 25  1  0  0  0  0
 35 36  1  0  0  0  0
 35 29  1  0  0  0  0
 37 35  1  0  0  0  0
M  END
>  <minimizedAffinity>
-6.10516453

>  <minimizedRMSD>
6.56457853

$$$$
