
 OpenBabel03252502563D

 42 45  0  0  0  0  0  0  0  0999 V2000
   45.6620   29.8460   44.7330 Br  0  0  0  0  0  0  0  0  0  0  0  0
   45.6840   30.4830   46.5630 C   0  0  0  0  0  0  0  0  0  0  0  0
   46.3320   31.6610   46.7600 C   0  0  0  0  0  0  0  0  0  0  0  0
   46.3320   32.0970   48.0920 C   0  0  0  0  0  0  0  0  0  0  0  0
   45.7330   31.4030   49.1140 C   0  0  0  0  0  0  0  0  0  0  0  0
   45.1000   30.2210   48.8280 C   0  0  0  0  0  0  0  0  0  0  0  0
   45.0660   29.7390   47.5350 C   0  0  0  0  0  0  0  0  0  0  0  0
   46.8160   33.0180   48.3650 H   0  0  0  0  0  0  0  0  0  0  0  0
   45.7580   31.7750   50.1280 H   0  0  0  0  0  0  0  0  0  0  0  0
   44.6130   29.6300   49.5890 H   0  0  0  0  0  0  0  0  0  0  0  0
   47.0070   32.4960   45.7640 C   0  0  0  0  0  0  0  0  0  0  0  0
   47.9800   32.8170   46.1510 H   0  0  0  0  0  0  0  0  0  0  0  0
   47.2430   31.8190   44.8970 H   0  0  0  0  0  0  0  0  0  0  0  0
   44.5380   35.2730   45.5030 C   0  0  0  0  0  0  0  0  0  0  0  0
   44.7330   35.7150   44.1960 C   0  0  0  0  0  0  0  0  0  0  0  0
   45.7010   35.0610   43.4240 C   0  0  0  0  0  0  0  0  0  0  0  0
   46.3920   34.0460   43.9740 N   0  0  0  0  0  0  0  0  0  0  0  0
   46.1910   33.6230   45.2560 C   0  0  0  0  0  0  0  0  0  0  0  0
   45.2530   34.2650   45.9890 N   0  0  0  0  0  0  0  0  0  0  0  0
   43.7850   35.7870   46.0920 H   0  0  0  0  0  0  0  0  0  0  0  0
   44.1770   36.5310   43.7520 H   0  0  0  0  0  0  0  0  0  0  0  0
   45.9270   35.3220   42.4130 H   0  0  0  0  0  0  0  0  0  0  0  0
   44.4210   28.5380   47.2580 O   0  0  0  0  0  0  0  0  0  0  0  0
   43.9880   25.9780   47.3310 O   0  0  0  0  0  0  0  0  0  0  0  0
   44.7930   27.0710   48.0090 P   0  0  2  0  0  0  0  0  0  0  0  0
   44.3650   27.2050   49.6290 O   0  0  0  0  0  0  0  0  0  0  0  0
   45.1380   27.5280   50.1410 H   0  0  0  0  0  0  0  0  0  0  0  0
   46.4340   26.6890   47.8400 O   0  0  0  0  0  0  0  0  0  0  0  0
   45.8070   23.9200   47.8840 H   0  0  0  0  0  0  0  0  0  0  0  0
   46.6880   24.2710   48.3160 N   0  0  0  0  0  0  0  0  0  0  0  0
   47.0460   25.5700   48.3290 C   0  0  0  0  0  0  0  0  0  0  0  0
   48.2330   25.6690   48.9620 N   0  0  0  0  0  0  0  0  0  0  0  0
   48.5790   24.4120   49.3270 C   0  0  0  0  0  0  0  0  0  0  0  0
   49.7320   24.0090   50.0110 C   0  0  0  0  0  0  0  0  0  0  0  0
   49.8550   22.6920   50.2620 N   0  0  0  0  0  0  0  0  0  0  0  0
   48.8950   21.8280   49.8590 C   0  0  0  0  0  0  0  0  0  0  0  0
   49.1160   20.8040   50.1220 H   0  0  0  0  0  0  0  0  0  0  0  0
   47.7760   22.2170   49.1950 N   0  0  0  0  0  0  0  0  0  0  0  0
   47.6150   23.5110   48.9260 C   0  0  0  0  0  0  0  0  0  0  0  0
   50.7030   24.9850   50.4050 N   0  0  0  0  0  0  0  0  0  0  0  0
   50.9500   25.3160   51.3700 H   0  0  0  0  0  0  0  0  0  0  0  0
   51.2820   25.4750   49.6800 H   0  0  0  0  0  0  0  0  0  0  0  0
  1  2  1  0  0  0  0
  2  3  2  0  0  0  0
  2  7  1  0  0  0  0
  3  4  1  0  0  0  0
  4  8  1  0  0  0  0
  4  5  2  0  0  0  0
  5  9  1  0  0  0  0
  6  5  1  0  0  0  0
  6 10  1  0  0  0  0
  7  6  2  0  0  0  0
 11 12  1  0  0  0  0
 11  3  1  0  0  0  0
 13 11  1  0  0  0  0
 14 19  1  0  0  0  0
 14 20  1  0  0  0  0
 15 14  2  0  0  0  0
 16 17  2  0  0  0  0
 16 15  1  0  0  0  0
 17 18  1  0  0  0  0
 18 11  1  0  0  0  0
 18 19  2  0  0  0  0
 21 15  1  0  0  0  0
 22 16  1  0  0  0  0
 23  7  1  0  0  0  0
 23 25  1  0  0  0  0
 25 24  2  6  0  0  0
 25 26  1  0  0  0  0
 26 27  1  0  0  0  0
 28 25  1  0  0  0  0
 28 31  1  0  0  0  0
 29 30  1  0  0  0  0
 30 31  1  0  0  0  0
 30 39  1  0  0  0  0
 31 32  2  0  0  0  0
 32 33  1  0  0  0  0
 33 34  1  0  0  0  0
 34 35  2  0  0  0  0
 34 40  1  0  0  0  0
 36 37  1  0  0  0  0
 36 35  1  0  0  0  0
 38 36  2  0  0  0  0
 39 38  1  0  0  0  0
 39 33  2  0  0  0  0
 40 41  1  0  0  0  0
 42 40  1  0  0  0  0
M  END
>  <minimizedAffinity>
-5.87943745

>  <minimizedRMSD>
0.688514829

$$$$
