
 OpenBabel03252502563D

 42 45  0  0  0  0  0  0  0  0999 V2000
   45.6250   29.9890   44.7250 Br  0  0  0  0  0  0  0  0  0  0  0  0
   45.6710   30.5950   46.5650 C   0  0  0  0  0  0  0  0  0  0  0  0
   46.3490   31.7530   46.7780 C   0  0  0  0  0  0  0  0  0  0  0  0
   46.3660   32.1670   48.1170 C   0  0  0  0  0  0  0  0  0  0  0  0
   45.7540   31.4720   49.1300 C   0  0  0  0  0  0  0  0  0  0  0  0
   45.0900   30.3120   48.8280 C   0  0  0  0  0  0  0  0  0  0  0  0
   45.0380   29.8520   47.5280 C   0  0  0  0  0  0  0  0  0  0  0  0
   46.8740   33.0710   48.4020 H   0  0  0  0  0  0  0  0  0  0  0  0
   45.7920   31.8280   50.1490 H   0  0  0  0  0  0  0  0  0  0  0  0
   44.5900   29.7210   49.5810 H   0  0  0  0  0  0  0  0  0  0  0  0
   47.0420   32.5870   45.7920 C   0  0  0  0  0  0  0  0  0  0  0  0
   47.9910   32.9390   46.2090 H   0  0  0  0  0  0  0  0  0  0  0  0
   47.3270   31.9000   44.9470 H   0  0  0  0  0  0  0  0  0  0  0  0
   44.5360   35.3150   45.3940 C   0  0  0  0  0  0  0  0  0  0  0  0
   44.7480   35.7150   44.0750 C   0  0  0  0  0  0  0  0  0  0  0  0
   45.7390   35.0500   43.3430 C   0  0  0  0  0  0  0  0  0  0  0  0
   46.4360   34.0650   43.9400 N   0  0  0  0  0  0  0  0  0  0  0  0
   46.2180   33.6830   45.2310 C   0  0  0  0  0  0  0  0  0  0  0  0
   45.2580   34.3340   45.9260 N   0  0  0  0  0  0  0  0  0  0  0  0
   43.7650   35.8370   45.9510 H   0  0  0  0  0  0  0  0  0  0  0  0
   44.1880   36.5060   43.5940 H   0  0  0  0  0  0  0  0  0  0  0  0
   45.9800   35.2790   42.3280 H   0  0  0  0  0  0  0  0  0  0  0  0
   44.3620   28.6710   47.2340 O   0  0  0  0  0  0  0  0  0  0  0  0
   44.2140   26.1160   46.8000 O   0  0  0  0  0  0  0  0  0  0  0  0
   44.9000   27.1360   47.6870 P   0  0  2  0  0  0  0  0  0  0  0  0
   44.4790   26.9020   49.2980 O   0  0  0  0  0  0  0  0  0  0  0  0
   45.2170   27.2020   49.8710 H   0  0  0  0  0  0  0  0  0  0  0  0
   46.5720   26.9780   47.4640 O   0  0  0  0  0  0  0  0  0  0  0  0
   49.2170   27.2880   48.4510 H   0  0  0  0  0  0  0  0  0  0  0  0
   48.6670   26.4290   48.6670 N   0  0  0  0  0  0  0  0  0  0  0  0
   47.4100   26.2190   48.2310 C   0  0  0  0  0  0  0  0  0  0  0  0
   47.0040   25.0190   48.6920 N   0  0  0  0  0  0  0  0  0  0  0  0
   48.0370   24.5130   49.4090 C   0  0  0  0  0  0  0  0  0  0  0  0
   48.0890   23.2870   50.0820 C   0  0  0  0  0  0  0  0  0  0  0  0
   49.2340   23.0030   50.7300 N   0  0  0  0  0  0  0  0  0  0  0  0
   50.2630   23.8820   50.7120 C   0  0  0  0  0  0  0  0  0  0  0  0
   51.1200   23.5330   51.2700 H   0  0  0  0  0  0  0  0  0  0  0  0
   50.2140   25.0720   50.0600 N   0  0  0  0  0  0  0  0  0  0  0  0
   49.1010   25.3920   49.4050 C   0  0  0  0  0  0  0  0  0  0  0  0
   46.9570   22.4120   50.0530 N   0  0  0  0  0  0  0  0  0  0  0  0
   46.8540   21.4820   49.5750 H   0  0  0  0  0  0  0  0  0  0  0  0
   46.0760   22.6730   50.5600 H   0  0  0  0  0  0  0  0  0  0  0  0
  1  2  1  0  0  0  0
  2  3  2  0  0  0  0
  2  7  1  0  0  0  0
  3  4  1  0  0  0  0
  4  8  1  0  0  0  0
  4  5  2  0  0  0  0
  5  9  1  0  0  0  0
  6  5  1  0  0  0  0
  6 10  1  0  0  0  0
  7  6  2  0  0  0  0
 11 12  1  0  0  0  0
 11  3  1  0  0  0  0
 13 11  1  0  0  0  0
 14 19  1  0  0  0  0
 14 20  1  0  0  0  0
 15 14  2  0  0  0  0
 16 17  2  0  0  0  0
 16 15  1  0  0  0  0
 17 18  1  0  0  0  0
 18 11  1  0  0  0  0
 18 19  2  0  0  0  0
 21 15  1  0  0  0  0
 22 16  1  0  0  0  0
 23  7  1  0  0  0  0
 23 25  1  0  0  0  0
 25 24  2  6  0  0  0
 25 26  1  0  0  0  0
 26 27  1  0  0  0  0
 28 25  1  0  0  0  0
 28 31  1  0  0  0  0
 29 30  1  0  0  0  0
 30 39  1  0  0  0  0
 31 30  1  0  0  0  0
 31 32  2  0  0  0  0
 32 33  1  0  0  0  0
 33 34  1  0  0  0  0
 34 35  2  0  0  0  0
 36 35  1  0  0  0  0
 36 37  1  0  0  0  0
 38 36  2  0  0  0  0
 39 33  2  0  0  0  0
 39 38  1  0  0  0  0
 40 34  1  0  0  0  0
 40 42  1  0  0  0  0
 41 40  1  0  0  0  0
M  END
>  <minimizedAffinity>
-6.1737318

>  <minimizedRMSD>
0.800789297

$$$$
