
 OpenBabel03252500273D

 48 51  0  0  1  0  0  0  0  0999 V2000
   47.1280   33.0830   46.7330 O   0  0  0  0  0  0  0  0  0  0  0  0
   45.6800   32.7600   46.6240 P   0  0  1  0  0  0  0  0  0  0  0  0
   45.4660   31.5440   45.4640 O   0  0  0  0  0  0  0  0  0  0  0  0
   45.9770   31.8060   44.6710 H   0  0  0  0  0  0  0  0  0  0  0  0
   45.1910   32.2130   48.1020 O   0  0  0  0  0  0  0  0  0  0  0  0
   47.0390   30.7010   48.1290 C   0  0  2  0  0  0  0  0  0  0  0  0
   45.5790   30.9100   48.2810 C   0  0  2  0  0  0  0  0  0  0  0  0
   44.9380   29.9900   47.3660 C   0  0  0  0  0  0  0  0  0  0  0  0
   45.8260   28.9420   47.0880 O   0  0  0  0  0  0  0  0  0  0  0  0
   46.9080   29.1480   47.8730 C   0  0  0  0  0  0  0  0  0  0  0  0
   47.4980   30.9100   47.1470 H   0  0  0  0  0  0  0  0  0  0  0  0
   45.4210   30.7460   49.3860 H   0  0  0  0  0  0  0  0  0  0  0  0
   44.2380   29.3930   48.0540 H   0  0  0  0  0  0  0  0  0  0  0  0
   44.2090   30.2430   46.6280 H   0  0  0  0  0  0  0  0  0  0  0  0
   46.7530   28.7450   48.9160 H   0  0  0  0  0  0  0  0  0  0  0  0
   47.8560   28.7340   47.5390 H   0  0  0  0  0  0  0  0  0  0  0  0
   47.8030   30.8690   49.2200 O   0  0  0  0  0  0  0  0  0  0  0  0
   49.0100   31.3530   49.2450 C   0  0  0  0  0  0  0  0  0  0  0  0
   49.2730   32.3730   49.1100 H   0  0  0  0  0  0  0  0  0  0  0  0
   49.5220   30.8430   48.2560 H   0  0  0  0  0  0  0  0  0  0  0  0
   49.8170   30.6090   50.2960 C   0  0  0  0  0  0  0  0  0  0  0  0
   49.5290   30.9100   51.3200 H   0  0  0  0  0  0  0  0  0  0  0  0
   49.6520   29.5290   50.1030 H   0  0  0  0  0  0  0  0  0  0  0  0
   50.8880   30.8800   50.1010 H   0  0  0  0  0  0  0  0  0  0  0  0
   44.9100   34.2130   46.1660 O   0  0  0  0  0  0  0  0  0  0  0  0
   45.2130   36.5820   43.4900 C   0  0  0  0  0  0  0  0  0  0  0  0
   45.1200   35.7950   42.3180 C   0  0  0  0  0  0  0  0  0  0  0  0
   44.9490   34.4070   42.5130 C   0  0  0  0  0  0  0  0  0  0  0  0
   44.8840   33.9230   43.7690 N   0  0  0  0  0  0  0  0  0  0  0  0
   44.9770   34.7100   44.8520 C   0  0  0  0  0  0  0  0  0  0  0  0
   45.1400   36.0330   44.7080 N   0  0  0  0  0  0  0  0  0  0  0  0
   45.1730   36.1960   41.3200 H   0  0  0  0  0  0  0  0  0  0  0  0
   44.8700   33.7440   41.6710 H   0  0  0  0  0  0  0  0  0  0  0  0
   45.3800   37.9270   43.3440 O   0  0  0  0  0  0  0  0  0  0  0  0
   45.1580   37.9810   46.1850 H   0  0  0  0  0  0  0  0  0  0  0  0
   45.0710   38.8720   45.6530 N   0  0  0  0  0  0  0  0  0  0  0  0
   45.1740   38.8680   44.3120 C   0  0  0  0  0  0  0  0  0  0  0  0
   45.0220   40.1510   43.9110 N   0  0  0  0  0  0  0  0  0  0  0  0
   44.8310   40.9040   45.0170 C   0  0  0  0  0  0  0  0  0  0  0  0
   44.6220   42.2620   45.2380 C   0  0  0  0  0  0  0  0  0  0  0  0
   44.4560   42.7810   46.4660 N   0  0  0  0  0  0  0  0  0  0  0  0
   44.4920   41.9520   47.5420 C   0  0  0  0  0  0  0  0  0  0  0  0
   44.3710   42.2500   48.5760 H   0  0  0  0  0  0  0  0  0  0  0  0
   44.6940   40.6140   47.3670 N   0  0  0  0  0  0  0  0  0  0  0  0
   44.8600   40.1070   46.1420 C   0  0  0  0  0  0  0  0  0  0  0  0
   44.5800   43.1530   44.1170 N   0  0  0  0  0  0  0  0  0  0  0  0
   45.2010   43.5920   43.4020 H   0  0  0  0  0  0  0  0  0  0  0  0
   43.5710   43.4390   44.0050 H   0  0  0  0  0  0  0  0  0  0  0  0
  2  1  2  1  0  0  0
  2  5  1  0  0  0  0
  3  2  1  0  0  0  0
  4  3  1  0  0  0  0
  5  7  1  0  0  0  0
  6 11  1  6  0  0  0
  6  7  1  0  0  0  0
  6 17  1  0  0  0  0
  7 12  1  1  0  0  0
  8 13  1  0  0  0  0
  8  7  1  0  0  0  0
  9  8  1  0  0  0  0
  9 10  1  0  0  0  0
 10  6  1  0  0  0  0
 10 15  1  0  0  0  0
 14  8  1  0  0  0  0
 16 10  1  0  0  0  0
 17 18  1  0  0  0  0
 18 21  1  0  0  0  0
 19 18  1  0  0  0  0
 20 18  1  0  0  0  0
 21 22  1  0  0  0  0
 23 21  1  0  0  0  0
 24 21  1  0  0  0  0
 25  2  1  0  0  0  0
 26 31  1  0  0  0  0
 27 28  1  0  0  0  0
 27 26  2  0  0  0  0
 28 29  2  0  0  0  0
 29 30  1  0  0  0  0
 30 25  1  0  0  0  0
 31 30  2  0  0  0  0
 32 27  1  0  0  0  0
 33 28  1  0  0  0  0
 34 26  1  0  0  0  0
 34 37  1  0  0  0  0
 36 45  1  0  0  0  0
 36 35  1  0  0  0  0
 37 36  1  0  0  0  0
 38 37  2  0  0  0  0
 38 39  1  0  0  0  0
 39 40  2  0  0  0  0
 39 45  1  0  0  0  0
 40 41  1  0  0  0  0
 41 42  2  0  0  0  0
 42 43  1  0  0  0  0
 44 42  1  0  0  0  0
 45 44  2  0  0  0  0
 46 40  1  0  0  0  0
 47 46  1  0  0  0  0
 48 46  1  0  0  0  0
M  END
>  <minimizedAffinity>
-4.22070408

>  <minimizedRMSD>
1.13956082

$$$$
