
 OpenBabel03242520193D

 40 43  0  0  0  0  0  0  0  0999 V2000
   40.0620   35.7010   39.9600 C   0  0  0  0  0  0  0  0  0  0  0  0
   40.3500   35.8230   41.0050 H   0  0  0  0  0  0  0  0  0  0  0  0
   39.3530   36.5560   39.7540 H   0  0  0  0  0  0  0  0  0  0  0  0
   39.3920   33.4860   40.7360 C   0  0  0  0  0  0  0  0  0  0  0  0
   39.8030   33.6640   41.9170 O   0  0  0  0  0  0  0  0  0  0  0  0
   39.4290   34.4310   39.6810 N   0  0  0  0  0  0  0  0  0  0  0  0
   39.0280   34.2450   38.7400 H   0  0  0  0  0  0  0  0  0  0  0  0
   38.9500   32.0220   38.2840 H   0  0  0  0  0  0  0  0  0  0  0  0
   38.6610   31.5830   39.1830 N   0  0  0  0  0  0  0  0  0  0  0  0
   38.8120   32.1630   40.4100 C   0  0  0  0  0  0  0  0  0  0  0  0
   38.3080   31.2560   41.2940 N   0  0  0  0  0  0  0  0  0  0  0  0
   37.8640   30.1660   40.6720 C   0  0  0  0  0  0  0  0  0  0  0  0
   37.2830   29.0200   41.2050 C   0  0  0  0  0  0  0  0  0  0  0  0
   36.9350   28.0770   40.2880 N   0  0  0  0  0  0  0  0  0  0  0  0
   37.1460   28.2630   38.9760 C   0  0  0  0  0  0  0  0  0  0  0  0
   36.8460   27.4710   38.2980 H   0  0  0  0  0  0  0  0  0  0  0  0
   37.7130   29.3890   38.4950 N   0  0  0  0  0  0  0  0  0  0  0  0
   38.0890   30.3760   39.3280 C   0  0  0  0  0  0  0  0  0  0  0  0
   37.0970   28.9090   42.6110 N   0  0  0  0  0  0  0  0  0  0  0  0
   38.0780   28.8260   42.9650 H   0  0  0  0  0  0  0  0  0  0  0  0
   36.2410   28.9000   43.2280 H   0  0  0  0  0  0  0  0  0  0  0  0
   41.2890   35.9420   39.1090 C   0  0  0  0  0  0  0  0  0  0  0  0
   41.5630   37.0170   39.0980 H   0  0  0  0  0  0  0  0  0  0  0  0
   41.1060   35.6610   38.0470 H   0  0  0  0  0  0  0  0  0  0  0  0
   44.0430   34.5890   41.3210 C   0  0  0  0  0  0  0  0  0  0  0  0
   42.9590   35.3760   40.8700 C   0  0  0  0  0  0  0  0  0  0  0  0
   42.4330   35.1430   39.6110 C   0  0  0  0  0  0  0  0  0  0  0  0
   43.0140   34.1410   38.8680 N   0  0  0  0  0  0  0  0  0  0  0  0
   44.0550   33.4120   39.3460 C   0  0  0  0  0  0  0  0  0  0  0  0
   44.5630   33.6330   40.5560 N   0  0  0  0  0  0  0  0  0  0  0  0
   42.5750   36.1360   41.5250 H   0  0  0  0  0  0  0  0  0  0  0  0
   44.4850   32.6290   38.7250 H   0  0  0  0  0  0  0  0  0  0  0  0
   44.6040   34.8540   42.6680 C   0  0  0  0  0  0  0  0  0  0  0  0
   46.1150   35.2760   42.5990 C   0  0  0  0  0  0  0  0  0  0  0  0
   45.0390   36.1220   43.1270 C   0  0  0  0  0  0  0  0  0  0  0  0
   44.4610   34.0020   43.3970 H   0  0  0  0  0  0  0  0  0  0  0  0
   46.8130   34.7230   43.2390 H   0  0  0  0  0  0  0  0  0  0  0  0
   46.5040   35.5610   41.6090 H   0  0  0  0  0  0  0  0  0  0  0  0
   45.0600   36.3280   44.2270 H   0  0  0  0  0  0  0  0  0  0  0  0
   44.7650   37.0710   42.5810 H   0  0  0  0  0  0  0  0  0  0  0  0
  1  2  1  0  0  0  0
  3  1  1  0  0  0  0
  4  5  2  0  0  0  0
  6  1  1  0  0  0  0
  6  4  1  0  0  0  0
  7  6  1  0  0  0  0
  8  9  1  0  0  0  0
  9 18  1  0  0  0  0
  9 10  1  0  0  0  0
 10  4  1  0  0  0  0
 10 11  2  0  0  0  0
 12 13  1  0  0  0  0
 12 11  1  0  0  0  0
 13 19  1  0  0  0  0
 14 13  2  0  0  0  0
 15 14  1  0  0  0  0
 16 15  1  0  0  0  0
 17 15  2  0  0  0  0
 17 18  1  0  0  0  0
 18 12  2  0  0  0  0
 19 20  1  0  0  0  0
 19 21  1  0  0  0  0
 22 27  1  0  0  0  0
 22  1  1  0  0  0  0
 23 22  1  0  0  0  0
 24 22  1  0  0  0  0
 25 33  1  0  0  0  0
 26 25  1  0  0  0  0
 26 31  1  0  0  0  0
 27 26  2  0  0  0  0
 28 29  2  0  0  0  0
 28 27  1  0  0  0  0
 29 30  1  0  0  0  0
 30 25  2  0  0  0  0
 32 29  1  0  0  0  0
 33 35  1  0  0  0  0
 33 36  1  0  0  0  0
 34 33  1  0  0  0  0
 34 35  1  0  0  0  0
 34 37  1  0  0  0  0
 35 39  1  0  0  0  0
 38 34  1  0  0  0  0
 40 35  1  0  0  0  0
M  END
>  <minimizedAffinity>
-5.56211329

>  <minimizedRMSD>
0.8991822

$$$$
