
 OpenBabel03252503453D

 49 53  0  0  1  0  0  0  0  0999 V2000
   45.9440   35.5750   42.7420 C   0  0  0  0  0  0  0  0  0  0  0  0
   46.9280   35.4960   42.2380 H   0  0  0  0  0  0  0  0  0  0  0  0
   45.8610   36.6500   43.0300 H   0  0  0  0  0  0  0  0  0  0  0  0
   44.8970   35.1860   41.7860 C   0  0  0  0  0  0  0  0  0  0  0  0
   43.5960   35.6290   41.8140 C   0  0  0  0  0  0  0  0  0  0  0  0
   42.6520   35.2310   40.9010 C   0  0  0  0  0  0  0  0  0  0  0  0
   43.0180   34.3530   39.9140 C   0  0  0  0  0  0  0  0  0  0  0  0
   44.3320   33.8910   39.8650 C   0  0  0  0  0  0  0  0  0  0  0  0
   45.2830   34.3040   40.8010 C   0  0  0  0  0  0  0  0  0  0  0  0
   43.3760   36.3180   42.6180 H   0  0  0  0  0  0  0  0  0  0  0  0
   41.6530   35.6380   41.0100 H   0  0  0  0  0  0  0  0  0  0  0  0
   42.2340   34.0780   39.2280 H   0  0  0  0  0  0  0  0  0  0  0  0
   44.4570   33.2040   39.0260 H   0  0  0  0  0  0  0  0  0  0  0  0
   46.5180   33.6850   40.4830 N   0  0  0  0  0  0  0  0  0  0  0  0
   47.5810   34.2310   39.8640 C   0  0  0  0  0  0  0  0  0  0  0  0
   47.7010   35.2370   39.4900 H   0  0  0  0  0  0  0  0  0  0  0  0
   48.5520   33.3290   39.7440 N   0  0  0  0  0  0  0  0  0  0  0  0
   48.1350   32.1700   40.2880 C   0  0  0  0  0  0  0  0  0  0  0  0
   48.6640   30.9280   40.4630 C   0  0  0  0  0  0  0  0  0  0  0  0
   47.9830   29.9230   41.0680 N   0  0  0  0  0  0  0  0  0  0  0  0
   46.7210   30.1550   41.5230 C   0  0  0  0  0  0  0  0  0  0  0  0
   46.1170   29.4000   42.0170 H   0  0  0  0  0  0  0  0  0  0  0  0
   46.1860   31.3690   41.3600 N   0  0  0  0  0  0  0  0  0  0  0  0
   46.8370   32.3850   40.7640 C   0  0  0  0  0  0  0  0  0  0  0  0
   49.9850   30.7430   39.9680 N   0  0  0  0  0  0  0  0  0  0  0  0
   50.8920   30.2840   40.1810 H   0  0  0  0  0  0  0  0  0  0  0  0
   50.2750   31.1770   39.0730 H   0  0  0  0  0  0  0  0  0  0  0  0
   45.0070   34.8860   44.9290 C   0  0  0  0  0  0  0  0  0  0  0  0
   45.9220   34.6970   43.8990 C   0  0  0  0  0  0  0  0  0  0  0  0
   46.8110   33.6300   44.0290 C   0  0  0  0  0  0  0  0  0  0  0  0
   46.7790   32.8160   45.1110 N   0  0  0  0  0  0  0  0  0  0  0  0
   45.8730   33.0340   46.0910 C   0  0  0  0  0  0  0  0  0  0  0  0
   44.9850   34.0650   46.0090 N   0  0  0  0  0  0  0  0  0  0  0  0
   44.3060   35.6860   44.8810 H   0  0  0  0  0  0  0  0  0  0  0  0
   47.5670   33.3820   43.3350 H   0  0  0  0  0  0  0  0  0  0  0  0
   47.3200   31.7990   47.6920 C   0  0  2  0  0  0  0  0  0  0  0  0
   45.8690   32.1280   47.2400 C   0  0  1  0  0  0  0  0  0  0  0  0
   45.3970   32.6430   48.3990 O   0  0  0  0  0  0  0  0  0  0  0  0
   45.7750   31.8170   49.4170 C   0  0  0  0  0  0  0  0  0  0  0  0
   46.9500   30.9860   48.9410 C   0  0  2  0  0  0  0  0  0  0  0  0
   47.8340   31.1830   46.9360 H   0  0  0  0  0  0  0  0  0  0  0  0
   45.3600   31.1550   47.0210 H   0  0  0  0  0  0  0  0  0  0  0  0
   46.0830   32.4380   50.2830 H   0  0  0  0  0  0  0  0  0  0  0  0
   44.9030   31.1610   49.6780 H   0  0  0  0  0  0  0  0  0  0  0  0
   46.5840   29.9850   48.6650 H   0  0  0  0  0  0  0  0  0  0  0  0
   47.9450   32.9160   48.1100 O   0  0  0  0  0  0  0  0  0  0  0  0
   48.9380   32.7520   48.0550 H   0  0  0  0  0  0  0  0  0  0  0  0
   47.9690   30.8860   49.8390 O   0  0  0  0  0  0  0  0  0  0  0  0
   48.7660   31.4340   49.6120 H   0  0  0  0  0  0  0  0  0  0  0  0
  1  3  1  0  0  0  0
  1 29  1  0  0  0  0
  2  1  1  0  0  0  0
  4  5  1  0  0  0  0
  4  1  1  0  0  0  0
  5 10  1  0  0  0  0
  6 11  1  0  0  0  0
  6  5  2  0  0  0  0
  7  6  1  0  0  0  0
  8  7  2  0  0  0  0
  8  9  1  0  0  0  0
  9  4  2  0  0  0  0
 12  7  1  0  0  0  0
 13  8  1  0  0  0  0
 14 24  1  0  0  0  0
 14  9  1  0  0  0  0
 15 14  1  0  0  0  0
 16 15  1  0  0  0  0
 17 15  2  0  0  0  0
 17 18  1  0  0  0  0
 18 19  2  0  0  0  0
 18 24  1  0  0  0  0
 19 20  1  0  0  0  0
 20 21  2  0  0  0  0
 21 22  1  0  0  0  0
 23 21  1  0  0  0  0
 24 23  2  0  0  0  0
 25 26  1  0  0  0  0
 25 19  1  0  0  0  0
 27 25  1  0  0  0  0
 28 33  1  0  0  0  0
 29 30  1  0  0  0  0
 29 28  2  0  0  0  0
 30 31  2  0  0  0  0
 31 32  1  0  0  0  0
 32 37  1  0  0  0  0
 33 32  2  0  0  0  0
 34 28  1  0  0  0  0
 35 30  1  0  0  0  0
 36 41  1  6  0  0  0
 36 46  1  0  0  0  0
 36 40  1  0  0  0  0
 37 42  1  6  0  0  0
 37 36  1  0  0  0  0
 37 38  1  0  0  0  0
 38 39  1  0  0  0  0
 39 44  1  0  0  0  0
 39 43  1  0  0  0  0
 40 45  1  6  0  0  0
 40 39  1  0  0  0  0
 40 48  1  0  0  0  0
 47 46  1  0  0  0  0
 49 48  1  0  0  0  0
M  END
>  <minimizedAffinity>
-7.09068584

>  <minimizedRMSD>
0.481265575

$$$$
