
 OpenBabel03252502563D

 42 45  0  0  0  0  0  0  0  0999 V2000
   45.6580   29.8460   44.7330 Br  0  0  0  0  0  0  0  0  0  0  0  0
   45.6830   30.4830   46.5630 C   0  0  0  0  0  0  0  0  0  0  0  0
   46.3310   31.6600   46.7590 C   0  0  0  0  0  0  0  0  0  0  0  0
   46.3340   32.0960   48.0920 C   0  0  0  0  0  0  0  0  0  0  0  0
   45.7370   31.4020   49.1140 C   0  0  0  0  0  0  0  0  0  0  0  0
   45.1020   30.2210   48.8290 C   0  0  0  0  0  0  0  0  0  0  0  0
   45.0660   29.7390   47.5360 C   0  0  0  0  0  0  0  0  0  0  0  0
   46.8190   33.0170   48.3630 H   0  0  0  0  0  0  0  0  0  0  0  0
   45.7630   31.7750   50.1280 H   0  0  0  0  0  0  0  0  0  0  0  0
   44.6160   29.6300   49.5900 H   0  0  0  0  0  0  0  0  0  0  0  0
   47.0060   32.4950   45.7620 C   0  0  0  0  0  0  0  0  0  0  0  0
   47.9800   32.8150   46.1470 H   0  0  0  0  0  0  0  0  0  0  0  0
   47.2400   31.8180   44.8940 H   0  0  0  0  0  0  0  0  0  0  0  0
   44.5370   35.2730   45.5060 C   0  0  0  0  0  0  0  0  0  0  0  0
   44.7310   35.7160   44.1990 C   0  0  0  0  0  0  0  0  0  0  0  0
   45.6980   35.0630   43.4250 C   0  0  0  0  0  0  0  0  0  0  0  0
   46.3900   34.0470   43.9740 N   0  0  0  0  0  0  0  0  0  0  0  0
   46.1900   33.6230   45.2550 C   0  0  0  0  0  0  0  0  0  0  0  0
   45.2520   34.2640   45.9900 N   0  0  0  0  0  0  0  0  0  0  0  0
   43.7850   35.7870   46.0950 H   0  0  0  0  0  0  0  0  0  0  0  0
   44.1760   36.5330   43.7560 H   0  0  0  0  0  0  0  0  0  0  0  0
   45.9240   35.3240   42.4150 H   0  0  0  0  0  0  0  0  0  0  0  0
   44.4200   28.5380   47.2590 O   0  0  0  0  0  0  0  0  0  0  0  0
   43.9880   25.9790   47.3310 O   0  0  0  0  0  0  0  0  0  0  0  0
   44.7910   27.0710   48.0100 P   0  0  2  0  0  0  0  0  0  0  0  0
   44.3630   27.2040   49.6300 O   0  0  0  0  0  0  0  0  0  0  0  0
   45.1360   27.5270   50.1420 H   0  0  0  0  0  0  0  0  0  0  0  0
   46.4330   26.6900   47.8420 O   0  0  0  0  0  0  0  0  0  0  0  0
   45.8050   23.9210   47.8860 H   0  0  0  0  0  0  0  0  0  0  0  0
   46.6870   24.2720   48.3180 N   0  0  0  0  0  0  0  0  0  0  0  0
   47.0450   25.5710   48.3300 C   0  0  0  0  0  0  0  0  0  0  0  0
   48.2320   25.6690   48.9620 N   0  0  0  0  0  0  0  0  0  0  0  0
   48.5790   24.4110   49.3270 C   0  0  0  0  0  0  0  0  0  0  0  0
   49.7310   24.0080   50.0100 C   0  0  0  0  0  0  0  0  0  0  0  0
   49.8540   22.6910   50.2600 N   0  0  0  0  0  0  0  0  0  0  0  0
   48.8940   21.8270   49.8590 C   0  0  0  0  0  0  0  0  0  0  0  0
   49.1150   20.8040   50.1220 H   0  0  0  0  0  0  0  0  0  0  0  0
   47.7740   22.2170   49.1960 N   0  0  0  0  0  0  0  0  0  0  0  0
   47.6130   23.5110   48.9270 C   0  0  0  0  0  0  0  0  0  0  0  0
   50.7030   24.9830   50.4020 N   0  0  0  0  0  0  0  0  0  0  0  0
   50.9520   25.3140   51.3680 H   0  0  0  0  0  0  0  0  0  0  0  0
   51.2820   25.4730   49.6770 H   0  0  0  0  0  0  0  0  0  0  0  0
  1  2  1  0  0  0  0
  2  3  2  0  0  0  0
  2  7  1  0  0  0  0
  3  4  1  0  0  0  0
  4  8  1  0  0  0  0
  4  5  2  0  0  0  0
  5  9  1  0  0  0  0
  6  5  1  0  0  0  0
  6 10  1  0  0  0  0
  7  6  2  0  0  0  0
 11 12  1  0  0  0  0
 11  3  1  0  0  0  0
 13 11  1  0  0  0  0
 14 19  1  0  0  0  0
 14 20  1  0  0  0  0
 15 14  2  0  0  0  0
 16 17  2  0  0  0  0
 16 15  1  0  0  0  0
 17 18  1  0  0  0  0
 18 11  1  0  0  0  0
 18 19  2  0  0  0  0
 21 15  1  0  0  0  0
 22 16  1  0  0  0  0
 23  7  1  0  0  0  0
 23 25  1  0  0  0  0
 25 24  2  6  0  0  0
 25 26  1  0  0  0  0
 26 27  1  0  0  0  0
 28 25  1  0  0  0  0
 28 31  1  0  0  0  0
 29 30  1  0  0  0  0
 30 31  1  0  0  0  0
 30 39  1  0  0  0  0
 31 32  2  0  0  0  0
 32 33  1  0  0  0  0
 33 34  1  0  0  0  0
 34 35  2  0  0  0  0
 34 40  1  0  0  0  0
 36 37  1  0  0  0  0
 36 35  1  0  0  0  0
 38 36  2  0  0  0  0
 39 38  1  0  0  0  0
 39 33  2  0  0  0  0
 40 41  1  0  0  0  0
 42 40  1  0  0  0  0
M  END
>  <minimizedAffinity>
-5.87785673

>  <minimizedRMSD>
0.727948189

$$$$
