
 OpenBabel03252504473D

 32 34  0  0  0  0  0  0  0  0999 V2000
   45.2830   31.0490   49.5010 O   0  0  0  0  0  0  0  0  0  0  0  0
   45.6770   31.0350   48.0280 P   0  0  1  0  0  0  0  0  0  0  0  0
   44.4380   30.2000   47.2250 O   0  0  0  0  0  0  0  0  0  0  0  0
   44.6940   29.2550   47.0560 H   0  0  0  0  0  0  0  0  0  0  0  0
   45.8020   32.6470   47.5450 O   0  0  0  0  0  0  0  0  0  0  0  0
   45.0790   34.7060   44.6730 C   0  0  0  0  0  0  0  0  0  0  0  0
   45.3450   33.8150   43.6170 C   0  0  0  0  0  0  0  0  0  0  0  0
   45.7710   32.5190   43.9640 C   0  0  0  0  0  0  0  0  0  0  0  0
   45.8960   32.2160   45.2800 N   0  0  0  0  0  0  0  0  0  0  0  0
   45.6250   33.1140   46.2470 C   0  0  0  0  0  0  0  0  0  0  0  0
   45.2150   34.3630   45.9430 N   0  0  0  0  0  0  0  0  0  0  0  0
   45.2340   34.0890   42.5780 H   0  0  0  0  0  0  0  0  0  0  0  0
   45.9850   31.8060   43.1790 H   0  0  0  0  0  0  0  0  0  0  0  0
   44.6250   36.0900   44.2880 C   0  0  0  0  0  0  0  0  0  0  0  0
   43.9410   36.5160   45.0540 H   0  0  0  0  0  0  0  0  0  0  0  0
   44.1620   36.0770   43.2730 H   0  0  0  0  0  0  0  0  0  0  0  0
   45.5500   36.7050   44.2480 H   0  0  0  0  0  0  0  0  0  0  0  0
   47.1130   30.2110   47.7570 O   0  0  0  0  0  0  0  0  0  0  0  0
   47.6400   30.9620   50.4650 H   0  0  0  0  0  0  0  0  0  0  0  0
   48.4470   30.6830   49.9000 N   0  0  0  0  0  0  0  0  0  0  0  0
   48.1780   30.3350   48.6340 C   0  0  0  0  0  0  0  0  0  0  0  0
   49.3370   29.9980   48.0360 N   0  0  0  0  0  0  0  0  0  0  0  0
   50.3790   30.1160   48.8820 C   0  0  0  0  0  0  0  0  0  0  0  0
   51.7450   29.9390   48.9000 C   0  0  0  0  0  0  0  0  0  0  0  0
   52.4860   30.1750   50.0060 N   0  0  0  0  0  0  0  0  0  0  0  0
   51.8230   30.5980   51.1060 C   0  0  0  0  0  0  0  0  0  0  0  0
   52.4460   30.7750   51.9650 H   0  0  0  0  0  0  0  0  0  0  0  0
   50.4740   30.7940   51.1580 N   0  0  0  0  0  0  0  0  0  0  0  0
   49.7790   30.5460   50.0360 C   0  0  0  0  0  0  0  0  0  0  0  0
   52.3330   29.4900   47.6820 N   0  0  0  0  0  0  0  0  0  0  0  0
   52.3450   28.6520   47.0660 H   0  0  0  0  0  0  0  0  0  0  0  0
   52.9350   30.2760   47.3160 H   0  0  0  0  0  0  0  0  0  0  0  0
  2  1  2  1  0  0  0
  3  2  1  0  0  0  0
  4  3  1  0  0  0  0
  5  2  1  0  0  0  0
  6 11  1  0  0  0  0
  7  8  1  0  0  0  0
  7  6  2  0  0  0  0
  8  9  2  0  0  0  0
  9 10  1  0  0  0  0
 10  5  1  0  0  0  0
 11 10  2  0  0  0  0
 12  7  1  0  0  0  0
 13  8  1  0  0  0  0
 14  6  1  0  0  0  0
 14 15  1  0  0  0  0
 16 14  1  0  0  0  0
 17 14  1  0  0  0  0
 18  2  1  0  0  0  0
 18 21  1  0  0  0  0
 20 29  1  0  0  0  0
 20 19  1  0  0  0  0
 21 20  1  0  0  0  0
 22 21  2  0  0  0  0
 22 23  1  0  0  0  0
 23 24  2  0  0  0  0
 23 29  1  0  0  0  0
 24 25  1  0  0  0  0
 25 26  2  0  0  0  0
 26 28  1  0  0  0  0
 26 27  1  0  0  0  0
 29 28  2  0  0  0  0
 30 24  1  0  0  0  0
 31 30  1  0  0  0  0
 32 30  1  0  0  0  0
M  END
>  <minimizedAffinity>
-5.46893024

>  <minimizedRMSD>
1.97704709

$$$$
