
 OpenBabel03252506283D

 52 57  0  0  0  0  0  0  0  0999 V2000
   45.7030   30.8640   45.4330 C   0  0  0  0  0  0  0  0  0  0  0  0
   45.2600   29.8060   46.2550 C   0  0  0  0  0  0  0  0  0  0  0  0
   45.6250   30.0650   47.5300 C   0  0  0  0  0  0  0  0  0  0  0  0
   46.2710   31.2410   47.5000 N   0  0  0  0  0  0  0  0  0  0  0  0
   46.3220   31.7250   46.2580 N   0  0  0  0  0  0  0  0  0  0  0  0
   44.7090   28.8910   45.9910 H   0  0  0  0  0  0  0  0  0  0  0  0
   45.4380   29.4480   48.4200 H   0  0  0  0  0  0  0  0  0  0  0  0
   44.2890   30.2070   42.1310 C   0  0  0  0  0  0  0  0  0  0  0  0
   45.0520   31.0200   41.2960 C   0  0  0  0  0  0  0  0  0  0  0  0
   46.0540   31.7920   41.8830 C   0  0  0  0  0  0  0  0  0  0  0  0
   46.2230   31.7070   43.2110 N   0  0  0  0  0  0  0  0  0  0  0  0
   45.4910   30.9280   44.0080 C   0  0  0  0  0  0  0  0  0  0  0  0
   44.5190   30.1770   43.4500 N   0  0  0  0  0  0  0  0  0  0  0  0
   43.4890   29.5790   41.7340 H   0  0  0  0  0  0  0  0  0  0  0  0
   44.8740   31.0510   40.2300 H   0  0  0  0  0  0  0  0  0  0  0  0
   46.8780   32.6490   41.1010 N   0  0  0  0  0  0  0  0  0  0  0  0
   47.8620   33.4180   41.5910 C   0  0  0  0  0  0  0  0  0  0  0  0
   48.1550   33.4860   42.6500 H   0  0  0  0  0  0  0  0  0  0  0  0
   48.4480   34.1080   40.5870 N   0  0  0  0  0  0  0  0  0  0  0  0
   47.8360   33.7760   39.4510 C   0  0  0  0  0  0  0  0  0  0  0  0
   48.0360   34.1820   38.1430 C   0  0  0  0  0  0  0  0  0  0  0  0
   47.2280   33.6480   37.1900 N   0  0  0  0  0  0  0  0  0  0  0  0
   46.2610   32.7490   37.5140 C   0  0  0  0  0  0  0  0  0  0  0  0
   45.6540   32.3680   36.6780 H   0  0  0  0  0  0  0  0  0  0  0  0
   46.0890   32.3720   38.7930 N   0  0  0  0  0  0  0  0  0  0  0  0
   46.8390   32.8510   39.7750 C   0  0  0  0  0  0  0  0  0  0  0  0
   49.0640   35.1280   37.8600 N   0  0  0  0  0  0  0  0  0  0  0  0
   48.4500   35.9700   37.7810 H   0  0  0  0  0  0  0  0  0  0  0  0
   50.1000   35.0870   37.7490 H   0  0  0  0  0  0  0  0  0  0  0  0
   46.8450   31.9170   48.6560 C   0  0  0  0  0  0  0  0  0  0  0  0
   46.5360   31.4380   49.6020 H   0  0  0  0  0  0  0  0  0  0  0  0
   46.5130   32.9640   48.6860 H   0  0  0  0  0  0  0  0  0  0  0  0
   48.3280   31.9120   48.5770 C   0  0  0  0  0  0  0  0  0  0  0  0
   48.5920   32.0810   47.4940 H   0  0  0  0  0  0  0  0  0  0  0  0
   48.7050   32.8120   49.1120 H   0  0  0  0  0  0  0  0  0  0  0  0
   49.3040   29.5610   48.3130 C   0  0  0  0  0  0  0  0  0  0  0  0
   49.0140   30.7150   49.0070 C   0  0  0  0  0  0  0  0  0  0  0  0
   49.4460   30.7430   50.3380 C   0  0  0  0  0  0  0  0  0  0  0  0
   50.1120   29.6860   50.9010 C   0  0  0  0  0  0  0  0  0  0  0  0
   50.6340   29.4390   52.1270 N   0  0  0  0  0  0  0  0  0  0  0  0
   51.1980   28.2320   52.1820 C   0  0  0  0  0  0  0  0  0  0  0  0
   51.0580   27.6230   50.9380 C   0  0  0  0  0  0  0  0  0  0  0  0
   50.3910   28.5510   50.1990 C   0  0  0  0  0  0  0  0  0  0  0  0
   49.9700   28.5100   48.8840 C   0  0  0  0  0  0  0  0  0  0  0  0
   48.9510   29.5750   47.2760 H   0  0  0  0  0  0  0  0  0  0  0  0
   49.2840   31.5880   51.0000 H   0  0  0  0  0  0  0  0  0  0  0  0
   50.5860   30.1330   52.9220 H   0  0  0  0  0  0  0  0  0  0  0  0
   51.6780   27.8250   53.0650 H   0  0  0  0  0  0  0  0  0  0  0  0
   51.4250   26.6500   50.7170 H   0  0  0  0  0  0  0  0  0  0  0  0
   50.2330   27.3260   48.0640 C   0  0  0  0  0  0  0  0  0  0  0  0
   49.4160   26.3760   47.9870 O   0  0  0  0  0  0  0  0  0  0  0  0
   51.1570   27.2330   47.4930 H   0  0  0  0  0  0  0  0  0  0  0  0
  1  2  1  0  0  0  0
  1  5  2  0  0  0  0
  2  3  2  0  0  0  0
  3  7  1  0  0  0  0
  4  3  1  0  0  0  0
  4 30  1  0  0  0  0
  5  4  1  0  0  0  0
  6  2  1  0  0  0  0
  8 13  1  0  0  0  0
  9 10  1  0  0  0  0
  9  8  2  0  0  0  0
 10 11  2  0  0  0  0
 11 12  1  0  0  0  0
 12  1  1  0  0  0  0
 13 12  2  0  0  0  0
 14  8  1  0  0  0  0
 15  9  1  0  0  0  0
 16 17  1  0  0  0  0
 16 10  1  0  0  0  0
 17 18  1  0  0  0  0
 19 17  2  0  0  0  0
 20 26  1  0  0  0  0
 20 19  1  0  0  0  0
 21 20  2  0  0  0  0
 22 23  2  0  0  0  0
 22 21  1  0  0  0  0
 23 25  1  0  0  0  0
 24 23  1  0  0  0  0
 25 26  2  0  0  0  0
 26 16  1  0  0  0  0
 27 21  1  0  0  0  0
 28 27  1  0  0  0  0
 29 27  1  0  0  0  0
 30 32  1  0  0  0  0
 30 31  1  0  0  0  0
 33 30  1  0  0  0  0
 33 37  1  0  0  0  0
 33 35  1  0  0  0  0
 34 33  1  0  0  0  0
 36 44  2  0  0  0  0
 36 37  1  0  0  0  0
 37 38  2  0  0  0  0
 38 39  1  0  0  0  0
 38 46  1  0  0  0  0
 39 40  1  0  0  0  0
 40 41  1  0  0  0  0
 40 47  1  0  0  0  0
 41 48  1  0  0  0  0
 42 41  2  0  0  0  0
 43 39  2  0  0  0  0
 43 42  1  0  0  0  0
 44 43  1  0  0  0  0
 45 36  1  0  0  0  0
 49 42  1  0  0  0  0
 50 44  1  0  0  0  0
 51 50  2  0  0  0  0
 52 50  1  0  0  0  0
M  END
>  <minimizedAffinity>
-5.91083765

>  <minimizedRMSD>
5.1311717

$$$$
