
 OpenBabel03252504233D

 37 41  0  0  0  0  0  0  0  0999 V2000
   48.0240   30.0510   44.4760 C   0  0  0  0  0  0  0  0  0  0  0  0
   47.1340   29.1610   45.0900 C   0  0  0  0  0  0  0  0  0  0  0  0
   45.7810   29.5380   45.1960 C   0  0  0  0  0  0  0  0  0  0  0  0
   45.4270   30.7540   44.6900 N   0  0  0  0  0  0  0  0  0  0  0  0
   46.3230   31.5840   44.1040 C   0  0  0  0  0  0  0  0  0  0  0  0
   47.6130   31.2310   43.9990 N   0  0  0  0  0  0  0  0  0  0  0  0
   45.8580   32.8320   43.6050 N   0  0  0  0  0  0  0  0  0  0  0  0
   46.4670   34.0320   43.7710 C   0  0  0  0  0  0  0  0  0  0  0  0
   45.7060   34.9760   43.1440 N   0  0  0  0  0  0  0  0  0  0  0  0
   44.6640   34.3450   42.6150 C   0  0  0  0  0  0  0  0  0  0  0  0
   43.5810   34.7500   41.8840 C   0  0  0  0  0  0  0  0  0  0  0  0
   42.6450   33.9040   41.4570 N   0  0  0  0  0  0  0  0  0  0  0  0
   42.7060   32.5790   41.7220 C   0  0  0  0  0  0  0  0  0  0  0  0
   43.7630   32.1750   42.4370 N   0  0  0  0  0  0  0  0  0  0  0  0
   44.7270   32.9880   42.8870 C   0  0  0  0  0  0  0  0  0  0  0  0
   47.4030   28.1960   45.4950 H   0  0  0  0  0  0  0  0  0  0  0  0
   45.0570   28.8930   45.6580 H   0  0  0  0  0  0  0  0  0  0  0  0
   47.3950   34.2410   44.3020 H   0  0  0  0  0  0  0  0  0  0  0  0
   41.9510   31.8800   41.3810 H   0  0  0  0  0  0  0  0  0  0  0  0
   43.3630   36.0950   41.5180 N   0  0  0  0  0  0  0  0  0  0  0  0
   42.8610   36.6480   42.2700 H   0  0  0  0  0  0  0  0  0  0  0  0
   43.6150   36.5920   40.6450 H   0  0  0  0  0  0  0  0  0  0  0  0
   49.7240   29.4550   44.4020 S   0  0  0  0  0  0  0  0  0  0  0  0
   49.0620   30.7890   41.6700 H   0  0  0  0  0  0  0  0  0  0  0  0
   50.0660   30.5680   41.8020 N   0  0  0  0  0  0  0  0  0  0  0  0
   50.5430   29.9890   42.9190 C   0  0  0  0  0  0  0  0  0  0  0  0
   51.8780   29.8590   42.7260 N   0  0  0  0  0  0  0  0  0  0  0  0
   52.2000   30.3440   41.5330 C   0  0  0  0  0  0  0  0  0  0  0  0
   53.3720   30.4740   40.8190 C   0  0  0  0  0  0  0  0  0  0  0  0
   53.3340   31.0270   39.6060 N   0  0  0  0  0  0  0  0  0  0  0  0
   52.2020   31.4640   39.0390 C   0  0  0  0  0  0  0  0  0  0  0  0
   52.2880   31.8980   38.0420 H   0  0  0  0  0  0  0  0  0  0  0  0
   51.0250   31.3570   39.7020 N   0  0  0  0  0  0  0  0  0  0  0  0
   51.0510   30.8030   40.9250 C   0  0  0  0  0  0  0  0  0  0  0  0
   54.5950   30.0360   41.3540 N   0  0  0  0  0  0  0  0  0  0  0  0
   54.7290   29.8070   42.3660 H   0  0  0  0  0  0  0  0  0  0  0  0
   55.4480   29.9150   40.7580 H   0  0  0  0  0  0  0  0  0  0  0  0
  1  2  1  0  0  0  0
  2  3  2  0  0  0  0
  2 16  1  0  0  0  0
  3 17  1  0  0  0  0
  4  3  1  0  0  0  0
  5  4  2  0  0  0  0
  6  5  1  0  0  0  0
  6  1  2  0  0  0  0
  7  8  1  0  0  0  0
  7  5  1  0  0  0  0
  8 18  1  0  0  0  0
  9  8  2  0  0  0  0
 10 15  1  0  0  0  0
 10  9  1  0  0  0  0
 11 10  2  0  0  0  0
 12 13  2  0  0  0  0
 12 11  1  0  0  0  0
 13 14  1  0  0  0  0
 14 15  2  0  0  0  0
 15  7  1  0  0  0  0
 19 13  1  0  0  0  0
 20 11  1  0  0  0  0
 20 21  1  0  0  0  0
 22 20  1  0  0  0  0
 23  1  1  0  0  0  0
 24 25  1  0  0  0  0
 25 26  1  0  0  0  0
 26 23  1  0  0  0  0
 27 26  2  0  0  0  0
 28 27  1  0  0  0  0
 29 35  1  0  0  0  0
 29 28  2  0  0  0  0
 30 29  1  0  0  0  0
 31 30  2  0  0  0  0
 31 33  1  0  0  0  0
 32 31  1  0  0  0  0
 33 34  2  0  0  0  0
 34 28  1  0  0  0  0
 34 25  1  0  0  0  0
 35 36  1  0  0  0  0
 37 35  1  0  0  0  0
M  END
>  <minimizedAffinity>
-4.64370728

>  <minimizedRMSD>
7.50063896

$$$$
