
 OpenBabel03242521103D

 24 26  0  0  0  0  0  0  0  0999 V2000
   38.9960   32.7660   42.3060 H   0  0  0  0  0  0  0  0  0  0  0  0
   39.1780   32.6600   41.2860 N   0  0  0  0  0  0  0  0  0  0  0  0
   38.3060   31.9330   40.5760 C   0  0  0  0  0  0  0  0  0  0  0  0
   38.7080   31.9100   39.2790 N   0  0  0  0  0  0  0  0  0  0  0  0
   39.8390   32.6220   39.1440 C   0  0  0  0  0  0  0  0  0  0  0  0
   40.7020   32.9600   38.1160 C   0  0  0  0  0  0  0  0  0  0  0  0
   41.7890   33.7320   38.3920 N   0  0  0  0  0  0  0  0  0  0  0  0
   42.0130   34.1540   39.6480 C   0  0  0  0  0  0  0  0  0  0  0  0
   42.8660   34.7660   39.8870 H   0  0  0  0  0  0  0  0  0  0  0  0
   41.1780   33.8360   40.6810 N   0  0  0  0  0  0  0  0  0  0  0  0
   40.0960   33.0710   40.4230 C   0  0  0  0  0  0  0  0  0  0  0  0
   40.3710   32.4610   36.8310 N   0  0  0  0  0  0  0  0  0  0  0  0
   40.8780   31.6270   36.4370 H   0  0  0  0  0  0  0  0  0  0  0  0
   39.6260   32.8850   36.2250 H   0  0  0  0  0  0  0  0  0  0  0  0
   36.8050   31.0240   40.9080 S   0  0  0  0  0  0  0  0  0  0  0  0
   36.8460   27.3790   42.6400 C   0  0  0  0  0  0  0  0  0  0  0  0
   38.1120   27.4130   43.2970 C   0  0  0  0  0  0  0  0  0  0  0  0
   38.8750   28.5660   43.1610 C   0  0  0  0  0  0  0  0  0  0  0  0
   38.4130   29.6050   42.4280 N   0  0  0  0  0  0  0  0  0  0  0  0
   37.1910   29.5380   41.8100 C   0  0  0  0  0  0  0  0  0  0  0  0
   36.4290   28.4420   41.9190 N   0  0  0  0  0  0  0  0  0  0  0  0
   36.2390   26.5030   42.7290 H   0  0  0  0  0  0  0  0  0  0  0  0
   38.4320   26.5510   43.8710 H   0  0  0  0  0  0  0  0  0  0  0  0
   39.8420   28.6160   43.6510 H   0  0  0  0  0  0  0  0  0  0  0  0
  2  1  1  0  0  0  0
  3 15  1  0  0  0  0
  3  2  1  0  0  0  0
  4  3  2  0  0  0  0
  5  4  1  0  0  0  0
  5 11  1  0  0  0  0
  6  7  1  0  0  0  0
  6  5  2  0  0  0  0
  7  8  2  0  0  0  0
  8  9  1  0  0  0  0
  8 10  1  0  0  0  0
 11 10  2  0  0  0  0
 11  2  1  0  0  0  0
 12  6  1  0  0  0  0
 13 12  1  0  0  0  0
 14 12  1  0  0  0  0
 15 20  1  0  0  0  0
 16 22  1  0  0  0  0
 16 17  1  0  0  0  0
 17 23  1  0  0  0  0
 18 17  2  0  0  0  0
 18 24  1  0  0  0  0
 19 18  1  0  0  0  0
 20 21  1  0  0  0  0
 20 19  2  0  0  0  0
 21 16  2  0  0  0  0
M  END
>  <minimizedAffinity>
-5.25118971

$$$$

 OpenBabel03242521103D

 24 26  0  0  0  0  0  0  0  0999 V2000
   40.9190   33.9400   42.1570 H   0  0  0  0  0  0  0  0  0  0  0  0
   41.2200   33.9770   41.1610 N   0  0  0  0  0  0  0  0  0  0  0  0
   40.2610   33.9720   40.2260 C   0  0  0  0  0  0  0  0  0  0  0  0
   40.8440   34.0250   39.0010 N   0  0  0  0  0  0  0  0  0  0  0  0
   42.1790   34.0650   39.1370 C   0  0  0  0  0  0  0  0  0  0  0  0
   43.2780   34.1240   38.2970 C   0  0  0  0  0  0  0  0  0  0  0  0
   44.5260   34.1500   38.8420 N   0  0  0  0  0  0  0  0  0  0  0  0
   44.6780   34.1170   40.1770 C   0  0  0  0  0  0  0  0  0  0  0  0
   45.6570   34.1370   40.6270 H   0  0  0  0  0  0  0  0  0  0  0  0
   43.6120   34.0590   41.0280 N   0  0  0  0  0  0  0  0  0  0  0  0
   42.3690   34.0340   40.5030 C   0  0  0  0  0  0  0  0  0  0  0  0
   43.0030   34.1540   36.9070 N   0  0  0  0  0  0  0  0  0  0  0  0
   43.1140   33.2850   36.3230 H   0  0  0  0  0  0  0  0  0  0  0  0
   42.6850   35.0180   36.4040 H   0  0  0  0  0  0  0  0  0  0  0  0
   38.4760   33.9150   40.2030 S   0  0  0  0  0  0  0  0  0  0  0  0
   36.4220   30.5120   40.8990 C   0  0  0  0  0  0  0  0  0  0  0  0
   37.4100   29.7430   41.5840 C   0  0  0  0  0  0  0  0  0  0  0  0
   38.6540   30.3300   41.7870 C   0  0  0  0  0  0  0  0  0  0  0  0
   38.8940   31.5840   41.3420 N   0  0  0  0  0  0  0  0  0  0  0  0
   37.9220   32.2950   40.6870 C   0  0  0  0  0  0  0  0  0  0  0  0
   36.7110   31.7610   40.4740 N   0  0  0  0  0  0  0  0  0  0  0  0
   35.4570   30.0830   40.7290 H   0  0  0  0  0  0  0  0  0  0  0  0
   37.1610   28.7420   41.9180 H   0  0  0  0  0  0  0  0  0  0  0  0
   39.4210   29.7650   42.3060 H   0  0  0  0  0  0  0  0  0  0  0  0
  2  1  1  0  0  0  0
  3  2  1  0  0  0  0
  4  5  1  0  0  0  0
  4  3  2  0  0  0  0
  5 11  1  0  0  0  0
  6  7  1  0  0  0  0
  6  5  2  0  0  0  0
  7  8  2  0  0  0  0
  8  9  1  0  0  0  0
  8 10  1  0  0  0  0
 11 10  2  0  0  0  0
 11  2  1  0  0  0  0
 12  6  1  0  0  0  0
 13 12  1  0  0  0  0
 14 12  1  0  0  0  0
 15  3  1  0  0  0  0
 15 20  1  0  0  0  0
 16 17  1  0  0  0  0
 17 18  2  0  0  0  0
 17 23  1  0  0  0  0
 18 24  1  0  0  0  0
 19 18  1  0  0  0  0
 20 19  2  0  0  0  0
 21 20  1  0  0  0  0
 21 16  2  0  0  0  0
 22 16  1  0  0  0  0
M  END
>  <minimizedAffinity>
-5.03649187

$$$$

 OpenBabel03242521103D

 24 26  0  0  0  0  0  0  0  0999 V2000
   40.7820   29.4470   42.6390 H   0  0  0  0  0  0  0  0  0  0  0  0
   39.7820   29.5830   42.3820 N   0  0  0  0  0  0  0  0  0  0  0  0
   38.9170   28.6250   42.7380 C   0  0  0  0  0  0  0  0  0  0  0  0
   37.6740   28.9790   42.3210 N   0  0  0  0  0  0  0  0  0  0  0  0
   37.7290   30.1650   41.6940 C   0  0  0  0  0  0  0  0  0  0  0  0
   36.8360   31.0200   41.0710 C   0  0  0  0  0  0  0  0  0  0  0  0
   37.2990   32.1820   40.5320 N   0  0  0  0  0  0  0  0  0  0  0  0
   38.6060   32.4850   40.6080 C   0  0  0  0  0  0  0  0  0  0  0  0
   38.9910   33.3990   40.1880 H   0  0  0  0  0  0  0  0  0  0  0  0
   39.5090   31.6600   41.2160 N   0  0  0  0  0  0  0  0  0  0  0  0
   39.0650   30.5060   41.7560 C   0  0  0  0  0  0  0  0  0  0  0  0
   35.4820   30.6020   41.0470 N   0  0  0  0  0  0  0  0  0  0  0  0
   35.0670   30.1880   40.1730 H   0  0  0  0  0  0  0  0  0  0  0  0
   34.8420   30.6820   41.8760 H   0  0  0  0  0  0  0  0  0  0  0  0
   39.0000   27.0600   43.5940 S   0  0  0  0  0  0  0  0  0  0  0  0
   39.0470   24.0470   40.9090 C   0  0  0  0  0  0  0  0  0  0  0  0
   37.6530   23.7540   40.8170 C   0  0  0  0  0  0  0  0  0  0  0  0
   36.7850   24.5110   41.5950 C   0  0  0  0  0  0  0  0  0  0  0  0
   37.2670   25.4830   42.4020 N   0  0  0  0  0  0  0  0  0  0  0  0
   38.6130   25.7380   42.4660 C   0  0  0  0  0  0  0  0  0  0  0  0
   39.4790   25.0280   41.7300 N   0  0  0  0  0  0  0  0  0  0  0  0
   39.7360   23.4790   40.3210 H   0  0  0  0  0  0  0  0  0  0  0  0
   37.3230   22.9630   40.1530 H   0  0  0  0  0  0  0  0  0  0  0  0
   35.7210   24.3070   41.5420 H   0  0  0  0  0  0  0  0  0  0  0  0
  2  1  1  0  0  0  0
  2  3  1  0  0  0  0
  3 15  1  0  0  0  0
  4  3  2  0  0  0  0
  5 11  1  0  0  0  0
  5  4  1  0  0  0  0
  6  5  2  0  0  0  0
  7  8  2  0  0  0  0
  7  6  1  0  0  0  0
  8 10  1  0  0  0  0
  9  8  1  0  0  0  0
 10 11  2  0  0  0  0
 11  2  1  0  0  0  0
 12  6  1  0  0  0  0
 12 14  1  0  0  0  0
 13 12  1  0  0  0  0
 16 21  1  0  0  0  0
 17 16  2  0  0  0  0
 17 18  1  0  0  0  0
 18 19  2  0  0  0  0
 19 20  1  0  0  0  0
 20 15  1  0  0  0  0
 21 20  2  0  0  0  0
 22 16  1  0  0  0  0
 23 17  1  0  0  0  0
 24 18  1  0  0  0  0
M  END
>  <minimizedAffinity>
-4.97422171

$$$$

 OpenBabel03242521103D

 24 26  0  0  0  0  0  0  0  0999 V2000
   37.1200   27.5470   39.9430 H   0  0  0  0  0  0  0  0  0  0  0  0
   37.1420   28.5710   40.1310 N   0  0  0  0  0  0  0  0  0  0  0  0
   37.1360   28.9630   41.4110 C   0  0  0  0  0  0  0  0  0  0  0  0
   37.1700   30.3200   41.4540 N   0  0  0  0  0  0  0  0  0  0  0  0
   37.1980   30.8110   40.2050 C   0  0  0  0  0  0  0  0  0  0  0  0
   37.2360   32.0610   39.6110 C   0  0  0  0  0  0  0  0  0  0  0  0
   37.2560   32.1480   38.2520 N   0  0  0  0  0  0  0  0  0  0  0  0
   37.2360   31.0300   37.5060 C   0  0  0  0  0  0  0  0  0  0  0  0
   37.2520   31.0780   36.4300 H   0  0  0  0  0  0  0  0  0  0  0  0
   37.1990   29.7850   38.0650 N   0  0  0  0  0  0  0  0  0  0  0  0
   37.1800   29.6820   39.4100 C   0  0  0  0  0  0  0  0  0  0  0  0
   37.2530   33.1720   40.4920 N   0  0  0  0  0  0  0  0  0  0  0  0
   36.3760   33.7280   40.6640 H   0  0  0  0  0  0  0  0  0  0  0  0
   38.1140   33.4860   41.0020 H   0  0  0  0  0  0  0  0  0  0  0  0
   37.0960   28.1670   43.0100 S   0  0  0  0  0  0  0  0  0  0  0  0
   38.4190   24.4120   42.3470 C   0  0  0  0  0  0  0  0  0  0  0  0
   39.6650   24.4450   43.0420 C   0  0  0  0  0  0  0  0  0  0  0  0
   40.0170   25.6320   43.6740 C   0  0  0  0  0  0  0  0  0  0  0  0
   39.1930   26.7030   43.6170 N   0  0  0  0  0  0  0  0  0  0  0  0
   38.0020   26.6360   42.9400 C   0  0  0  0  0  0  0  0  0  0  0  0
   37.6310   25.5080   42.3190 N   0  0  0  0  0  0  0  0  0  0  0  0
   38.1250   23.5110   41.8520 H   0  0  0  0  0  0  0  0  0  0  0  0
   40.2860   23.5560   43.0550 H   0  0  0  0  0  0  0  0  0  0  0  0
   40.9600   25.6810   44.2090 H   0  0  0  0  0  0  0  0  0  0  0  0
  1  2  1  0  0  0  0
  2  3  1  0  0  0  0
  3  4  2  0  0  0  0
  3 15  1  0  0  0  0
  5  4  1  0  0  0  0
  6  5  1  0  0  0  0
  6 12  1  0  0  0  0
  7  6  2  0  0  0  0
  8 10  2  0  0  0  0
  8  7  1  0  0  0  0
  9  8  1  0  0  0  0
 10 11  1  0  0  0  0
 11  2  1  0  0  0  0
 11  5  2  0  0  0  0
 12 13  1  0  0  0  0
 12 14  1  0  0  0  0
 16 17  1  0  0  0  0
 17 23  1  0  0  0  0
 17 18  2  0  0  0  0
 18 24  1  0  0  0  0
 19 18  1  0  0  0  0
 20 15  1  0  0  0  0
 20 19  2  0  0  0  0
 21 16  2  0  0  0  0
 21 20  1  0  0  0  0
 22 16  1  0  0  0  0
M  END
>  <minimizedAffinity>
-4.92453003

$$$$

 OpenBabel03242521103D

 24 26  0  0  0  0  0  0  0  0999 V2000
   40.0960   29.2610   41.8750 H   0  0  0  0  0  0  0  0  0  0  0  0
   39.4470   29.9980   41.5270 N   0  0  0  0  0  0  0  0  0  0  0  0
   38.1410   29.7030   41.4930 C   0  0  0  0  0  0  0  0  0  0  0  0
   37.4620   30.7780   41.0160 N   0  0  0  0  0  0  0  0  0  0  0  0
   38.3230   31.7710   40.7410 C   0  0  0  0  0  0  0  0  0  0  0  0
   38.2510   33.0630   40.2490 C   0  0  0  0  0  0  0  0  0  0  0  0
   39.3980   33.7820   40.1090 N   0  0  0  0  0  0  0  0  0  0  0  0
   40.5800   33.2360   40.4430 C   0  0  0  0  0  0  0  0  0  0  0  0
   41.4980   33.7890   40.3390 H   0  0  0  0  0  0  0  0  0  0  0  0
   40.6810   31.9640   40.9290 N   0  0  0  0  0  0  0  0  0  0  0  0
   39.5520   31.2390   41.0760 C   0  0  0  0  0  0  0  0  0  0  0  0
   36.9540   33.5390   39.9280 N   0  0  0  0  0  0  0  0  0  0  0  0
   36.6330   33.5740   38.9260 H   0  0  0  0  0  0  0  0  0  0  0  0
   36.2700   33.8700   40.6510 H   0  0  0  0  0  0  0  0  0  0  0  0
   37.1200   28.2970   41.9040 S   0  0  0  0  0  0  0  0  0  0  0  0
   38.8560   24.7040   42.5030 C   0  0  0  0  0  0  0  0  0  0  0  0
   39.9450   25.0740   43.3480 C   0  0  0  0  0  0  0  0  0  0  0  0
   40.0720   26.4180   43.6800 C   0  0  0  0  0  0  0  0  0  0  0  0
   39.1840   27.3220   43.2060 N   0  0  0  0  0  0  0  0  0  0  0  0
   38.1490   26.9310   42.3960 C   0  0  0  0  0  0  0  0  0  0  0  0
   37.9960   25.6440   42.0560 N   0  0  0  0  0  0  0  0  0  0  0  0
   38.7360   23.6760   42.2330 H   0  0  0  0  0  0  0  0  0  0  0  0
   40.6260   24.3070   43.6990 H   0  0  0  0  0  0  0  0  0  0  0  0
   40.8910   26.7240   44.3210 H   0  0  0  0  0  0  0  0  0  0  0  0
  2  1  1  0  0  0  0
  3  2  1  0  0  0  0
  3 15  1  0  0  0  0
  4  3  2  0  0  0  0
  5  4  1  0  0  0  0
  5 11  1  0  0  0  0
  6  5  2  0  0  0  0
  7  6  1  0  0  0  0
  7  8  2  0  0  0  0
  8 10  1  0  0  0  0
  9  8  1  0  0  0  0
 10 11  2  0  0  0  0
 11  2  1  0  0  0  0
 12  6  1  0  0  0  0
 12 14  1  0  0  0  0
 13 12  1  0  0  0  0
 15 20  1  0  0  0  0
 16 17  1  0  0  0  0
 17 18  2  0  0  0  0
 17 23  1  0  0  0  0
 18 24  1  0  0  0  0
 19 18  1  0  0  0  0
 20 19  2  0  0  0  0
 21 20  1  0  0  0  0
 21 16  2  0  0  0  0
 22 16  1  0  0  0  0
M  END
>  <minimizedAffinity>
-4.84667921

$$$$

 OpenBabel03242521103D

 24 26  0  0  0  0  0  0  0  0999 V2000
   35.9680   29.7010   41.1410 H   0  0  0  0  0  0  0  0  0  0  0  0
   36.8910   30.1670   41.2690 N   0  0  0  0  0  0  0  0  0  0  0  0
   37.7850   29.5580   42.0580 C   0  0  0  0  0  0  0  0  0  0  0  0
   38.9160   30.3090   42.1000 N   0  0  0  0  0  0  0  0  0  0  0  0
   38.7590   31.4040   41.3380 C   0  0  0  0  0  0  0  0  0  0  0  0
   39.5180   32.5070   40.9890 C   0  0  0  0  0  0  0  0  0  0  0  0
   38.9820   33.4420   40.1560 N   0  0  0  0  0  0  0  0  0  0  0  0
   37.7320   33.2870   39.6860 C   0  0  0  0  0  0  0  0  0  0  0  0
   37.2910   34.0150   39.0260 H   0  0  0  0  0  0  0  0  0  0  0  0
   36.9610   32.2090   40.0150 N   0  0  0  0  0  0  0  0  0  0  0  0
   37.4800   31.2740   40.8390 C   0  0  0  0  0  0  0  0  0  0  0  0
   40.8220   32.5710   41.5420 N   0  0  0  0  0  0  0  0  0  0  0  0
   41.0230   33.2000   42.3610 H   0  0  0  0  0  0  0  0  0  0  0  0
   41.6290   32.0100   41.1720 H   0  0  0  0  0  0  0  0  0  0  0  0
   37.8470   28.0610   43.0300 S   0  0  0  0  0  0  0  0  0  0  0  0
   37.0410   24.4170   41.4950 C   0  0  0  0  0  0  0  0  0  0  0  0
   36.6200   24.7720   40.1780 C   0  0  0  0  0  0  0  0  0  0  0  0
   36.6130   26.1220   39.8490 C   0  0  0  0  0  0  0  0  0  0  0  0
   36.9940   27.0460   40.7600 N   0  0  0  0  0  0  0  0  0  0  0  0
   37.3930   26.6690   42.0170 C   0  0  0  0  0  0  0  0  0  0  0  0
   37.4120   25.3770   42.3690 N   0  0  0  0  0  0  0  0  0  0  0  0
   37.0550   23.3840   41.7730 H   0  0  0  0  0  0  0  0  0  0  0  0
   36.3250   23.9890   39.4890 H   0  0  0  0  0  0  0  0  0  0  0  0
   36.2970   26.4170   38.8540 H   0  0  0  0  0  0  0  0  0  0  0  0
  1  2  1  0  0  0  0
  2  3  1  0  0  0  0
  3  4  2  0  0  0  0
  3 15  1  0  0  0  0
  5  4  1  0  0  0  0
  6  5  1  0  0  0  0
  6 12  1  0  0  0  0
  7  6  2  0  0  0  0
  8 10  2  0  0  0  0
  8  7  1  0  0  0  0
  9  8  1  0  0  0  0
 10 11  1  0  0  0  0
 11  2  1  0  0  0  0
 11  5  2  0  0  0  0
 12 13  1  0  0  0  0
 14 12  1  0  0  0  0
 16 22  1  0  0  0  0
 16 21  1  0  0  0  0
 17 16  2  0  0  0  0
 18 17  1  0  0  0  0
 18 19  2  0  0  0  0
 19 20  1  0  0  0  0
 20 21  2  0  0  0  0
 20 15  1  0  0  0  0
 23 17  1  0  0  0  0
 24 18  1  0  0  0  0
M  END
>  <minimizedAffinity>
-4.66881037

$$$$

 OpenBabel03242521103D

 24 26  0  0  0  0  0  0  0  0999 V2000
   37.0190   28.3260   40.5880 H   0  0  0  0  0  0  0  0  0  0  0  0
   37.5030   27.5570   41.0970 N   0  0  0  0  0  0  0  0  0  0  0  0
   38.4160   27.9030   42.0130 C   0  0  0  0  0  0  0  0  0  0  0  0
   38.9330   26.7750   42.5650 N   0  0  0  0  0  0  0  0  0  0  0  0
   38.3580   25.6960   42.0100 C   0  0  0  0  0  0  0  0  0  0  0  0
   38.4530   24.3210   42.1400 C   0  0  0  0  0  0  0  0  0  0  0  0
   37.6660   23.5270   41.3630 N   0  0  0  0  0  0  0  0  0  0  0  0
   36.8120   24.0790   40.4840 C   0  0  0  0  0  0  0  0  0  0  0  0
   36.1810   23.4680   39.8610 H   0  0  0  0  0  0  0  0  0  0  0  0
   36.6980   25.4310   40.3340 N   0  0  0  0  0  0  0  0  0  0  0  0
   37.4710   26.2320   41.0980 C   0  0  0  0  0  0  0  0  0  0  0  0
   39.3860   23.8460   43.0960 N   0  0  0  0  0  0  0  0  0  0  0  0
   40.3210   23.4740   42.7890 H   0  0  0  0  0  0  0  0  0  0  0  0
   39.1960   23.8420   44.1290 H   0  0  0  0  0  0  0  0  0  0  0  0
   39.0900   29.4260   42.6580 S   0  0  0  0  0  0  0  0  0  0  0  0
   38.7510   32.8720   40.5870 C   0  0  0  0  0  0  0  0  0  0  0  0
   37.4610   32.7020   40.0010 C   0  0  0  0  0  0  0  0  0  0  0  0
   36.7760   31.5260   40.2860 C   0  0  0  0  0  0  0  0  0  0  0  0
   37.3330   30.5940   41.0910 N   0  0  0  0  0  0  0  0  0  0  0  0
   38.5750   30.7900   41.6380 C   0  0  0  0  0  0  0  0  0  0  0  0
   39.2640   31.9110   41.3840 N   0  0  0  0  0  0  0  0  0  0  0  0
   39.2990   33.7680   40.3830 H   0  0  0  0  0  0  0  0  0  0  0  0
   37.0630   33.4830   39.3630 H   0  0  0  0  0  0  0  0  0  0  0  0
   35.7930   31.3740   39.8530 H   0  0  0  0  0  0  0  0  0  0  0  0
  1  2  1  0  0  0  0
  2 11  1  0  0  0  0
  2  3  1  0  0  0  0
  3  4  2  0  0  0  0
  3 15  1  0  0  0  0
  5  6  1  0  0  0  0
  5  4  1  0  0  0  0
  6 12  1  0  0  0  0
  7  6  2  0  0  0  0
  8  7  1  0  0  0  0
  9  8  1  0  0  0  0
 10  8  2  0  0  0  0
 10 11  1  0  0  0  0
 11  5  2  0  0  0  0
 12 14  1  0  0  0  0
 13 12  1  0  0  0  0
 16 21  1  0  0  0  0
 17 18  1  0  0  0  0
 17 16  2  0  0  0  0
 18 19  2  0  0  0  0
 19 20  1  0  0  0  0
 20 15  1  0  0  0  0
 21 20  2  0  0  0  0
 22 16  1  0  0  0  0
 23 17  1  0  0  0  0
 24 18  1  0  0  0  0
M  END
>  <minimizedAffinity>
-4.64333057

$$$$

 OpenBabel03242521103D

 24 26  0  0  0  0  0  0  0  0999 V2000
   37.0940   27.3900   38.1480 H   0  0  0  0  0  0  0  0  0  0  0  0
   37.0800   27.7980   39.1060 N   0  0  0  0  0  0  0  0  0  0  0  0
   37.0570   29.1330   39.2080 C   0  0  0  0  0  0  0  0  0  0  0  0
   37.0410   29.4720   40.5230 N   0  0  0  0  0  0  0  0  0  0  0  0
   37.0530   28.3600   41.2760 C   0  0  0  0  0  0  0  0  0  0  0  0
   37.0480   28.0550   42.6260 C   0  0  0  0  0  0  0  0  0  0  0  0
   37.0660   26.7490   43.0090 N   0  0  0  0  0  0  0  0  0  0  0  0
   37.0900   25.7760   42.0820 C   0  0  0  0  0  0  0  0  0  0  0  0
   37.1050   24.7370   42.3650 H   0  0  0  0  0  0  0  0  0  0  0  0
   37.0960   26.0480   40.7440 N   0  0  0  0  0  0  0  0  0  0  0  0
   37.0780   27.3380   40.3490 C   0  0  0  0  0  0  0  0  0  0  0  0
   37.0230   29.1580   43.5170 N   0  0  0  0  0  0  0  0  0  0  0  0
   37.9020   29.4680   44.0050 H   0  0  0  0  0  0  0  0  0  0  0  0
   36.1520   29.7040   43.7280 H   0  0  0  0  0  0  0  0  0  0  0  0
   37.0440   30.5180   38.0800 S   0  0  0  0  0  0  0  0  0  0  0  0
   37.9420   33.9700   39.9660 C   0  0  0  0  0  0  0  0  0  0  0  0
   39.3680   33.9270   39.9290 C   0  0  0  0  0  0  0  0  0  0  0  0
   39.9620   32.8280   39.3200 C   0  0  0  0  0  0  0  0  0  0  0  0
   39.1960   31.8480   38.7900 N   0  0  0  0  0  0  0  0  0  0  0  0
   37.8280   31.9210   38.8430 C   0  0  0  0  0  0  0  0  0  0  0  0
   37.2210   32.9660   39.4230 N   0  0  0  0  0  0  0  0  0  0  0  0
   37.4610   34.8050   40.4300 H   0  0  0  0  0  0  0  0  0  0  0  0
   39.9320   34.7410   40.3710 H   0  0  0  0  0  0  0  0  0  0  0  0
   41.0450   32.7730   39.2800 H   0  0  0  0  0  0  0  0  0  0  0  0
  1  2  1  0  0  0  0
  2  3  1  0  0  0  0
  2 11  1  0  0  0  0
  3  4  2  0  0  0  0
  4  5  1  0  0  0  0
  5  6  1  0  0  0  0
  6  7  2  0  0  0  0
  6 12  1  0  0  0  0
  8  9  1  0  0  0  0
  8  7  1  0  0  0  0
 10  8  2  0  0  0  0
 11 10  1  0  0  0  0
 11  5  2  0  0  0  0
 12 14  1  0  0  0  0
 12 13  1  0  0  0  0
 15 20  1  0  0  0  0
 15  3  1  0  0  0  0
 16 22  1  0  0  0  0
 17 16  1  0  0  0  0
 17 23  1  0  0  0  0
 18 17  2  0  0  0  0
 19 20  2  0  0  0  0
 19 18  1  0  0  0  0
 20 21  1  0  0  0  0
 21 16  2  0  0  0  0
 24 18  1  0  0  0  0
M  END
>  <minimizedAffinity>
-4.58682251

$$$$

 OpenBabel03242521103D

 24 26  0  0  0  0  0  0  0  0999 V2000
   41.1740   29.9440   40.3460 H   0  0  0  0  0  0  0  0  0  0  0  0
   40.1730   30.0730   40.6010 N   0  0  0  0  0  0  0  0  0  0  0  0
   39.7290   29.4460   41.6980 C   0  0  0  0  0  0  0  0  0  0  0  0
   38.4130   29.7340   41.8660 N   0  0  0  0  0  0  0  0  0  0  0  0
   38.0000   30.5480   40.8810 C   0  0  0  0  0  0  0  0  0  0  0  0
   36.8180   31.1680   40.5120 C   0  0  0  0  0  0  0  0  0  0  0  0
   36.8020   31.9500   39.3980 N   0  0  0  0  0  0  0  0  0  0  0  0
   37.9210   32.1110   38.6720 C   0  0  0  0  0  0  0  0  0  0  0  0
   37.9280   32.7260   37.7880 H   0  0  0  0  0  0  0  0  0  0  0  0
   39.1000   31.5120   39.0120 N   0  0  0  0  0  0  0  0  0  0  0  0
   39.1320   30.7340   40.1140 C   0  0  0  0  0  0  0  0  0  0  0  0
   35.6990   30.9290   41.3490 N   0  0  0  0  0  0  0  0  0  0  0  0
   34.9550   30.2430   41.0600 H   0  0  0  0  0  0  0  0  0  0  0  0
   35.5590   31.4100   42.2710 H   0  0  0  0  0  0  0  0  0  0  0  0
   40.4220   28.3660   42.9410 S   0  0  0  0  0  0  0  0  0  0  0  0
   39.5560   24.4270   43.0900 C   0  0  0  0  0  0  0  0  0  0  0  0
   39.1130   24.2030   41.7520 C   0  0  0  0  0  0  0  0  0  0  0  0
   39.1100   25.2910   40.8870 C   0  0  0  0  0  0  0  0  0  0  0  0
   39.5170   26.5050   41.3200 N   0  0  0  0  0  0  0  0  0  0  0  0
   39.9370   26.6850   42.6130 C   0  0  0  0  0  0  0  0  0  0  0  0
   39.9530   25.6600   43.4750 N   0  0  0  0  0  0  0  0  0  0  0  0
   39.5680   23.6070   43.7770 H   0  0  0  0  0  0  0  0  0  0  0  0
   38.7980   23.2080   41.4600 H   0  0  0  0  0  0  0  0  0  0  0  0
   38.7780   25.1450   39.8640 H   0  0  0  0  0  0  0  0  0  0  0  0
  1  2  1  0  0  0  0
  2  3  1  0  0  0  0
  3  4  2  0  0  0  0
  3 15  1  0  0  0  0
  5  4  1  0  0  0  0
  6  5  1  0  0  0  0
  6 12  1  0  0  0  0
  7  6  2  0  0  0  0
  8 10  2  0  0  0  0
  8  7  1  0  0  0  0
  9  8  1  0  0  0  0
 10 11  1  0  0  0  0
 11  2  1  0  0  0  0
 11  5  2  0  0  0  0
 12 14  1  0  0  0  0
 13 12  1  0  0  0  0
 16 21  1  0  0  0  0
 16 22  1  0  0  0  0
 17 16  2  0  0  0  0
 18 19  2  0  0  0  0
 18 17  1  0  0  0  0
 19 20  1  0  0  0  0
 20 15  1  0  0  0  0
 20 21  2  0  0  0  0
 23 17  1  0  0  0  0
 24 18  1  0  0  0  0
M  END
>  <minimizedAffinity>
-4.55532598

$$$$
