
 OpenBabel03252503163D

 41 45  0  0  0  0  0  0  0  0999 V2000
   45.2810   34.0580   40.7730 C   0  0  0  0  0  0  0  0  0  0  0  0
   43.9140   34.2070   40.6450 C   0  0  0  0  0  0  0  0  0  0  0  0
   43.5640   33.4640   39.5830 N   0  0  0  0  0  0  0  0  0  0  0  0
   44.6860   32.8770   39.0730 C   0  0  0  0  0  0  0  0  0  0  0  0
   45.7470   33.2460   39.8110 N   0  0  0  0  0  0  0  0  0  0  0  0
   44.8360   32.0060   37.9620 N   0  0  0  0  0  0  0  0  0  0  0  0
   43.2910   34.7950   41.2740 H   0  0  0  0  0  0  0  0  0  0  0  0
   44.6530   31.0250   38.2950 H   0  0  0  0  0  0  0  0  0  0  0  0
   45.0890   32.3900   37.0170 H   0  0  0  0  0  0  0  0  0  0  0  0
   41.2290   35.1280   39.4910 H   0  0  0  0  0  0  0  0  0  0  0  0
   41.2510   34.1820   39.0840 N   0  0  0  0  0  0  0  0  0  0  0  0
   42.2550   33.2950   39.0490 C   0  0  0  0  0  0  0  0  0  0  0  0
   41.8180   32.1910   38.4130 N   0  0  0  0  0  0  0  0  0  0  0  0
   40.5500   32.3540   38.0390 C   0  0  0  0  0  0  0  0  0  0  0  0
   39.5960   31.6030   37.3760 C   0  0  0  0  0  0  0  0  0  0  0  0
   38.3470   32.0370   37.1280 N   0  0  0  0  0  0  0  0  0  0  0  0
   38.0170   33.2780   37.5550 C   0  0  0  0  0  0  0  0  0  0  0  0
   37.0890   33.8230   37.4680 H   0  0  0  0  0  0  0  0  0  0  0  0
   38.9330   34.0280   38.2040 N   0  0  0  0  0  0  0  0  0  0  0  0
   40.1830   33.6050   38.4580 C   0  0  0  0  0  0  0  0  0  0  0  0
   39.9720   30.3110   36.9420 N   0  0  0  0  0  0  0  0  0  0  0  0
   40.4720   29.7270   37.6240 H   0  0  0  0  0  0  0  0  0  0  0  0
   39.9880   29.5960   36.1940 H   0  0  0  0  0  0  0  0  0  0  0  0
   46.1420   34.6920   41.8110 C   0  0  0  0  0  0  0  0  0  0  0  0
   47.3410   35.0910   41.6060 O   0  0  0  0  0  0  0  0  0  0  0  0
   45.0350   36.1010   43.4850 C   0  0  0  0  0  0  0  0  0  0  0  0
   45.6560   34.8900   43.1290 C   0  0  0  0  0  0  0  0  0  0  0  0
   45.7400   33.9610   44.1460 C   0  0  0  0  0  0  0  0  0  0  0  0
   45.2660   34.1940   45.3780 N   0  0  0  0  0  0  0  0  0  0  0  0
   44.6750   35.3780   45.6730 C   0  0  0  0  0  0  0  0  0  0  0  0
   44.5640   36.3230   44.7270 N   0  0  0  0  0  0  0  0  0  0  0  0
   44.9210   36.9020   42.7490 H   0  0  0  0  0  0  0  0  0  0  0  0
   44.3100   35.5310   46.6600 H   0  0  0  0  0  0  0  0  0  0  0  0
   46.3520   32.7120   43.8800 C   0  0  0  0  0  0  0  0  0  0  0  0
   47.6330   32.2400   43.8990 C   0  0  0  0  0  0  0  0  0  0  0  0
   47.9300   30.9920   43.5990 C   0  0  0  0  0  0  0  0  0  0  0  0
   46.9000   30.1850   43.2650 C   0  0  0  0  0  0  0  0  0  0  0  0
   45.4320   31.2670   43.3890 S   0  0  0  0  0  0  0  0  0  0  0  0
   48.3810   33.0070   44.1890 H   0  0  0  0  0  0  0  0  0  0  0  0
   48.9270   30.5690   43.5970 H   0  0  0  0  0  0  0  0  0  0  0  0
   46.9280   29.0690   42.9700 H   0  0  0  0  0  0  0  0  0  0  0  0
  1 24  1  0  0  0  0
  2  1  2  0  0  0  0
  2  7  1  0  0  0  0
  3  2  1  0  0  0  0
  4  3  1  0  0  0  0
  4  5  2  0  0  0  0
  5  1  1  0  0  0  0
  6  8  1  0  0  0  0
  6  4  1  0  0  0  0
  9  6  1  0  0  0  0
 11 10  1  0  0  0  0
 12 11  1  0  0  0  0
 12  3  1  0  0  0  0
 13 12  2  0  0  0  0
 14 13  1  0  0  0  0
 14 20  1  0  0  0  0
 15 14  2  0  0  0  0
 16 15  1  0  0  0  0
 16 17  2  0  0  0  0
 17 19  1  0  0  0  0
 18 17  1  0  0  0  0
 19 20  2  0  0  0  0
 20 11  1  0  0  0  0
 21 15  1  0  0  0  0
 21 22  1  0  0  0  0
 23 21  1  0  0  0  0
 24 27  1  0  0  0  0
 25 24  2  0  0  0  0
 26 31  1  0  0  0  0
 27 26  2  0  0  0  0
 27 28  1  0  0  0  0
 28 29  2  0  0  0  0
 29 30  1  0  0  0  0
 30 33  1  0  0  0  0
 31 30  2  0  0  0  0
 32 26  1  0  0  0  0
 34 35  2  0  0  0  0
 34 28  1  0  0  0  0
 35 39  1  0  0  0  0
 36 35  1  0  0  0  0
 37 38  1  0  0  0  0
 37 36  2  0  0  0  0
 38 34  1  0  0  0  0
 40 36  1  0  0  0  0
 41 37  1  0  0  0  0
M  END
>  <minimizedAffinity>
-6.13609123

>  <minimizedRMSD>
0.743363678

$$$$
