
 OpenBabel03242521443D

 43 46  0  0  1  0  0  0  0  0999 V2000
   45.4800   34.6410   43.9050 C   0  0  0  0  0  0  0  0  0  0  0  0
   46.5580   33.9920   43.2800 C   0  0  0  0  0  0  0  0  0  0  0  0
   47.3130   33.0690   44.0160 C   0  0  0  0  0  0  0  0  0  0  0  0
   46.9610   32.8560   45.2810 N   0  0  0  0  0  0  0  0  0  0  0  0
   45.9200   33.4900   45.8680 C   0  0  0  0  0  0  0  0  0  0  0  0
   45.1780   34.3830   45.1820 N   0  0  0  0  0  0  0  0  0  0  0  0
   46.7470   34.2450   42.2540 H   0  0  0  0  0  0  0  0  0  0  0  0
   45.7010   33.2650   46.8870 H   0  0  0  0  0  0  0  0  0  0  0  0
   49.2320   33.3300   42.4550 C   0  0  2  0  0  0  0  0  0  0  0  0
   48.4190   32.4280   43.3140 C   0  0  2  0  0  0  0  0  0  0  0  0
   48.0070   31.4490   42.3610 O   0  0  0  0  0  0  0  0  0  0  0  0
   49.2100   31.0910   41.7780 C   0  0  0  0  0  0  0  0  0  0  0  0
   50.1520   32.2600   41.8280 C   0  0  1  0  0  0  0  0  0  0  0  0
   48.6630   33.7100   41.5630 H   0  0  0  0  0  0  0  0  0  0  0  0
   49.1070   31.8690   43.9990 H   0  0  0  0  0  0  0  0  0  0  0  0
   49.0270   30.8440   40.7110 H   0  0  0  0  0  0  0  0  0  0  0  0
   49.6490   30.2470   42.3200 H   0  0  0  0  0  0  0  0  0  0  0  0
   51.0190   32.0950   42.4990 H   0  0  0  0  0  0  0  0  0  0  0  0
   49.9010   34.3100   43.1240 O   0  0  0  0  0  0  0  0  0  0  0  0
   49.9610   35.1750   42.6560 H   0  0  0  0  0  0  0  0  0  0  0  0
   50.5610   32.7040   40.5750 O   0  0  0  0  0  0  0  0  0  0  0  0
   50.6860   33.6720   40.6350 H   0  0  0  0  0  0  0  0  0  0  0  0
   44.6850   35.6380   43.1020 C   0  0  0  0  0  0  0  0  0  0  0  0
   45.2060   35.8440   42.1580 H   0  0  0  0  0  0  0  0  0  0  0  0
   43.6560   35.2590   42.9820 H   0  0  0  0  0  0  0  0  0  0  0  0
   45.3720   38.0230   43.7850 C   0  0  0  0  0  0  0  0  0  0  0  0
   46.2450   38.0230   42.8780 O   0  0  0  0  0  0  0  0  0  0  0  0
   44.6060   36.8460   43.9160 N   0  0  0  0  0  0  0  0  0  0  0  0
   43.8890   36.8430   44.6960 H   0  0  0  0  0  0  0  0  0  0  0  0
   45.3200   38.3930   46.6510 H   0  0  0  0  0  0  0  0  0  0  0  0
   45.1500   39.1840   46.0130 N   0  0  0  0  0  0  0  0  0  0  0  0
   45.1430   39.1630   44.6650 C   0  0  0  0  0  0  0  0  0  0  0  0
   44.8780   40.4190   44.2590 N   0  0  0  0  0  0  0  0  0  0  0  0
   44.7180   41.2350   45.3190 C   0  0  0  0  0  0  0  0  0  0  0  0
   44.4370   42.5870   45.3510 C   0  0  0  0  0  0  0  0  0  0  0  0
   44.3390   43.1130   46.6000 N   0  0  0  0  0  0  0  0  0  0  0  0
   44.5000   42.3880   47.7190 C   0  0  0  0  0  0  0  0  0  0  0  0
   44.4140   42.8460   48.7070 H   0  0  0  0  0  0  0  0  0  0  0  0
   44.7760   41.0580   47.6600 N   0  0  0  0  0  0  0  0  0  0  0  0
   44.8910   40.4520   46.4420 C   0  0  0  0  0  0  0  0  0  0  0  0
   44.2650   43.3670   44.1670 N   0  0  0  0  0  0  0  0  0  0  0  0
   44.0590   42.8150   43.2920 H   0  0  0  0  0  0  0  0  0  0  0  0
   44.3640   44.4010   44.3070 H   0  0  0  0  0  0  0  0  0  0  0  0
  1  6  1  0  0  0  0
  2  1  2  0  0  0  0
  2  3  1  0  0  0  0
  3  4  2  0  0  0  0
  4  5  1  0  0  0  0
  5  8  1  0  0  0  0
  6  5  2  0  0  0  0
  7  2  1  0  0  0  0
  9 14  1  6  0  0  0
  9 19  1  0  0  0  0
  9 10  1  0  0  0  0
 10 15  1  1  0  0  0
 10  3  1  0  0  0  0
 11 10  1  0  0  0  0
 12 13  1  0  0  0  0
 12 17  1  0  0  0  0
 12 11  1  0  0  0  0
 13  9  1  0  0  0  0
 13 18  1  1  0  0  0
 16 12  1  0  0  0  0
 20 19  1  0  0  0  0
 21 22  1  0  0  0  0
 21 13  1  0  0  0  0
 23  1  1  0  0  0  0
 23 28  1  0  0  0  0
 24 23  1  0  0  0  0
 25 23  1  0  0  0  0
 26 28  1  0  0  0  0
 26 32  1  0  0  0  0
 27 26  2  0  0  0  0
 28 29  1  0  0  0  0
 31 40  1  0  0  0  0
 31 30  1  0  0  0  0
 32 31  1  0  0  0  0
 33 32  2  0  0  0  0
 33 34  1  0  0  0  0
 34 35  2  0  0  0  0
 34 40  1  0  0  0  0
 35 36  1  0  0  0  0
 36 37  2  0  0  0  0
 37 38  1  0  0  0  0
 39 37  1  0  0  0  0
 40 39  2  0  0  0  0
 41 43  1  0  0  0  0
 41 35  1  0  0  0  0
 42 41  1  0  0  0  0
M  END
>  <minimizedAffinity>
-2.91250396

>  <minimizedRMSD>
1.38743734

$$$$
