
 OpenBabel03252504273D

 27 29  0  0  0  0  0  0  0  0999 V2000
   44.0890   32.4300   38.6030 H   0  0  0  0  0  0  0  0  0  0  0  0
   44.4210   32.9430   39.4520 N   0  0  0  0  0  0  0  0  0  0  0  0
   43.6820   33.2340   40.5390 C   0  0  0  0  0  0  0  0  0  0  0  0
   44.4470   33.8920   41.4060 N   0  0  0  0  0  0  0  0  0  0  0  0
   45.6910   34.0360   40.8900 C   0  0  0  0  0  0  0  0  0  0  0  0
   46.8870   34.5920   41.2630 C   0  0  0  0  0  0  0  0  0  0  0  0
   47.9670   34.5510   40.4700 N   0  0  0  0  0  0  0  0  0  0  0  0
   47.9180   33.9480   39.2500 C   0  0  0  0  0  0  0  0  0  0  0  0
   48.8540   33.9780   38.6990 H   0  0  0  0  0  0  0  0  0  0  0  0
   46.7570   33.3940   38.8570 N   0  0  0  0  0  0  0  0  0  0  0  0
   45.6660   33.4290   39.6440 C   0  0  0  0  0  0  0  0  0  0  0  0
   46.9460   35.2200   42.5290 N   0  0  0  0  0  0  0  0  0  0  0  0
   47.5470   34.5490   43.0880 H   0  0  0  0  0  0  0  0  0  0  0  0
   46.6310   36.0520   43.0690 H   0  0  0  0  0  0  0  0  0  0  0  0
   42.3410   32.9300   40.7870 O   0  0  0  0  0  0  0  0  0  0  0  0
   41.5610   32.3580   39.7930 C   0  0  0  0  0  0  0  0  0  0  0  0
   41.3610   33.0990   38.9730 H   0  0  0  0  0  0  0  0  0  0  0  0
   42.1100   31.5300   39.2960 H   0  0  0  0  0  0  0  0  0  0  0  0
   40.0930   30.5290   40.3360 C   0  0  0  0  0  0  0  0  0  0  0  0
   40.2480   31.9010   40.2550 C   0  0  0  0  0  0  0  0  0  0  0  0
   39.1740   32.6930   40.6090 C   0  0  0  0  0  0  0  0  0  0  0  0
   38.0450   32.0740   41.0090 N   0  0  0  0  0  0  0  0  0  0  0  0
   37.9140   30.7360   41.0820 C   0  0  0  0  0  0  0  0  0  0  0  0
   38.9470   29.8940   40.7430 N   0  0  0  0  0  0  0  0  0  0  0  0
   40.8740   29.8040   40.0810 H   0  0  0  0  0  0  0  0  0  0  0  0
   39.3150   33.7450   40.5390 H   0  0  0  0  0  0  0  0  0  0  0  0
   36.9270   30.4110   41.4280 H   0  0  0  0  0  0  0  0  0  0  0  0
  1  2  1  0  0  0  0
  2 11  1  0  0  0  0
  2  3  1  0  0  0  0
  3 15  1  0  0  0  0
  3  4  2  0  0  0  0
  5  6  1  0  0  0  0
  5  4  1  0  0  0  0
  6 12  1  0  0  0  0
  7  6  2  0  0  0  0
  8  7  1  0  0  0  0
  9  8  1  0  0  0  0
 10  8  2  0  0  0  0
 10 11  1  0  0  0  0
 11  5  2  0  0  0  0
 12 14  1  0  0  0  0
 12 13  1  0  0  0  0
 16 20  1  0  0  0  0
 16 15  1  0  0  0  0
 17 16  1  0  0  0  0
 18 16  1  0  0  0  0
 19 24  1  0  0  0  0
 20 19  2  0  0  0  0
 20 21  1  0  0  0  0
 21 22  2  0  0  0  0
 22 23  1  0  0  0  0
 23 27  1  0  0  0  0
 24 23  2  0  0  0  0
 25 19  1  0  0  0  0
 26 21  1  0  0  0  0
M  END
>  <minimizedAffinity>
-3.59523559

>  <minimizedRMSD>
6.92326784

$$$$
