
 OpenBabel03242523313D

 27 29  0  0  0  0  0  0  0  0999 V2000
   45.7380   28.8110   45.6570 H   0  0  0  0  0  0  0  0  0  0  0  0
   46.6390   28.9570   46.1700 N   0  0  0  0  0  0  0  0  0  0  0  0
   47.3200   30.1120   46.1020 C   0  0  0  0  0  0  0  0  0  0  0  0
   48.4160   29.9610   46.8700 N   0  0  0  0  0  0  0  0  0  0  0  0
   48.4030   28.7400   47.3950 C   0  0  0  0  0  0  0  0  0  0  0  0
   49.2820   28.0960   48.2380 C   0  0  0  0  0  0  0  0  0  0  0  0
   49.0220   26.8260   48.6260 N   0  0  0  0  0  0  0  0  0  0  0  0
   47.8930   26.2110   48.1710 C   0  0  0  0  0  0  0  0  0  0  0  0
   47.8000   25.2010   48.5520 H   0  0  0  0  0  0  0  0  0  0  0  0
   47.0300   26.8280   47.3500 N   0  0  0  0  0  0  0  0  0  0  0  0
   47.2730   28.0800   46.9580 C   0  0  0  0  0  0  0  0  0  0  0  0
   50.4360   28.8060   48.6670 N   0  0  0  0  0  0  0  0  0  0  0  0
   50.3850   29.8370   48.9090 H   0  0  0  0  0  0  0  0  0  0  0  0
   51.4400   28.6090   48.8400 H   0  0  0  0  0  0  0  0  0  0  0  0
   47.0160   31.6350   45.2430 S   0  0  0  0  0  0  0  0  0  0  0  0
   46.0490   32.8010   46.2420 C   0  0  0  0  0  0  0  0  0  0  0  0
   45.1860   32.3110   46.7210 H   0  0  0  0  0  0  0  0  0  0  0  0
   46.6820   33.2710   47.0510 H   0  0  0  0  0  0  0  0  0  0  0  0
   44.4900   35.8820   44.8690 C   0  0  0  0  0  0  0  0  0  0  0  0
   45.0550   35.9570   43.6090 C   0  0  0  0  0  0  0  0  0  0  0  0
   45.9520   34.9600   43.2540 C   0  0  0  0  0  0  0  0  0  0  0  0
   46.2520   33.9570   44.1220 N   0  0  0  0  0  0  0  0  0  0  0  0
   45.6780   33.9180   45.3490 C   0  0  0  0  0  0  0  0  0  0  0  0
   44.8100   34.8790   45.7010 N   0  0  0  0  0  0  0  0  0  0  0  0
   43.8010   36.6850   45.0900 H   0  0  0  0  0  0  0  0  0  0  0  0
   44.9040   36.6930   42.8300 H   0  0  0  0  0  0  0  0  0  0  0  0
   46.4720   34.8910   42.2960 H   0  0  0  0  0  0  0  0  0  0  0  0
  1  2  1  0  0  0  0
  2 11  1  0  0  0  0
  3  2  1  0  0  0  0
  3  4  2  0  0  0  0
  4  5  1  0  0  0  0
  5  6  1  0  0  0  0
  6  7  2  0  0  0  0
  6 12  1  0  0  0  0
  8  9  1  0  0  0  0
  8  7  1  0  0  0  0
 10  8  2  0  0  0  0
 11 10  1  0  0  0  0
 11  5  2  0  0  0  0
 12 14  1  0  0  0  0
 12 13  1  0  0  0  0
 15  3  1  0  0  0  0
 15 16  1  0  0  0  0
 16 17  1  0  0  0  0
 16 18  1  0  0  0  0
 19 25  1  0  0  0  0
 19 24  1  0  0  0  0
 20 19  2  0  0  0  0
 21 20  1  0  0  0  0
 21 22  2  0  0  0  0
 22 23  1  0  0  0  0
 23 24  2  0  0  0  0
 23 16  1  0  0  0  0
 26 20  1  0  0  0  0
 27 21  1  0  0  0  0
M  END
>  <minimizedAffinity>
-3.9254055

>  <minimizedRMSD>
0.920139313

$$$$
