
 OpenBabel03252504003D

 39 43  0  0  0  0  0  0  0  0999 V2000
   46.7400   35.0930   42.7900 C   0  0  0  0  0  0  0  0  0  0  0  0
   45.7720   36.1040   42.7440 C   0  0  0  0  0  0  0  0  0  0  0  0
   44.7600   36.0780   43.7010 C   0  0  0  0  0  0  0  0  0  0  0  0
   44.7710   35.0810   44.6170 N   0  0  0  0  0  0  0  0  0  0  0  0
   45.7190   34.1250   44.6290 C   0  0  0  0  0  0  0  0  0  0  0  0
   46.7090   34.1220   43.7190 N   0  0  0  0  0  0  0  0  0  0  0  0
   45.7880   36.8930   41.9960 H   0  0  0  0  0  0  0  0  0  0  0  0
   44.0000   36.8540   43.6830 H   0  0  0  0  0  0  0  0  0  0  0  0
   46.0110   31.7630   45.1970 C   0  0  0  0  0  0  0  0  0  0  0  0
   45.7120   33.0510   45.6330 C   0  0  0  0  0  0  0  0  0  0  0  0
   45.4250   33.2690   46.9600 C   0  0  0  0  0  0  0  0  0  0  0  0
   45.4370   32.2110   47.8440 C   0  0  0  0  0  0  0  0  0  0  0  0
   45.2080   32.1060   49.1540 N   0  0  0  0  0  0  0  0  0  0  0  0
   45.3400   30.8460   49.5780 C   0  0  0  0  0  0  0  0  0  0  0  0
   45.6740   30.0710   48.5030 C   0  0  0  0  0  0  0  0  0  0  0  0
   45.7350   30.9260   47.4180 C   0  0  0  0  0  0  0  0  0  0  0  0
   46.0250   30.7030   46.0790 C   0  0  0  0  0  0  0  0  0  0  0  0
   46.2410   31.5680   44.1500 H   0  0  0  0  0  0  0  0  0  0  0  0
   45.1920   34.2740   47.2930 H   0  0  0  0  0  0  0  0  0  0  0  0
   44.9570   32.9200   49.7570 H   0  0  0  0  0  0  0  0  0  0  0  0
   45.2030   30.5090   50.6090 H   0  0  0  0  0  0  0  0  0  0  0  0
   45.8550   29.0250   48.4830 H   0  0  0  0  0  0  0  0  0  0  0  0
   46.2610   29.7200   45.7040 H   0  0  0  0  0  0  0  0  0  0  0  0
   47.7570   35.1780   41.7710 C   0  0  0  0  0  0  0  0  0  0  0  0
   48.8610   35.8070   41.8980 O   0  0  0  0  0  0  0  0  0  0  0  0
   45.4880   33.8950   40.5600 H   0  0  0  0  0  0  0  0  0  0  0  0
   46.3920   33.9540   40.0750 N   0  0  0  0  0  0  0  0  0  0  0  0
   47.5590   34.5070   40.4700 C   0  0  0  0  0  0  0  0  0  0  0  0
   48.4690   34.3370   39.4920 N   0  0  0  0  0  0  0  0  0  0  0  0
   47.9130   33.6820   38.4660 C   0  0  0  0  0  0  0  0  0  0  0  0
   48.2680   33.2100   37.2180 C   0  0  0  0  0  0  0  0  0  0  0  0
   47.4550   32.5630   36.3830 N   0  0  0  0  0  0  0  0  0  0  0  0
   46.1710   32.3410   36.7750 C   0  0  0  0  0  0  0  0  0  0  0  0
   45.3980   31.8350   36.2150 H   0  0  0  0  0  0  0  0  0  0  0  0
   45.7940   32.7880   37.9870 N   0  0  0  0  0  0  0  0  0  0  0  0
   46.6020   33.4400   38.8350 C   0  0  0  0  0  0  0  0  0  0  0  0
   49.6080   33.4380   36.7990 N   0  0  0  0  0  0  0  0  0  0  0  0
   49.7620   34.4600   36.5510 H   0  0  0  0  0  0  0  0  0  0  0  0
   50.5730   33.0950   36.6000 H   0  0  0  0  0  0  0  0  0  0  0  0
  1  6  1  0  0  0  0
  2  1  2  0  0  0  0
  2  3  1  0  0  0  0
  3  4  2  0  0  0  0
  4  5  1  0  0  0  0
  5 10  1  0  0  0  0
  6  5  2  0  0  0  0
  7  2  1  0  0  0  0
  8  3  1  0  0  0  0
  9 10  2  0  0  0  0
  9 17  1  0  0  0  0
 10 11  1  0  0  0  0
 11 19  1  0  0  0  0
 11 12  2  0  0  0  0
 12 13  1  0  0  0  0
 13 14  1  0  0  0  0
 13 20  1  0  0  0  0
 14 21  1  0  0  0  0
 15 14  2  0  0  0  0
 16 12  1  0  0  0  0
 16 15  1  0  0  0  0
 17 16  2  0  0  0  0
 18  9  1  0  0  0  0
 22 15  1  0  0  0  0
 23 17  1  0  0  0  0
 24 25  2  0  0  0  0
 24  1  1  0  0  0  0
 27 28  1  0  0  0  0
 27 26  1  0  0  0  0
 28 24  1  0  0  0  0
 29 28  2  0  0  0  0
 30 36  1  0  0  0  0
 30 29  1  0  0  0  0
 31 30  2  0  0  0  0
 32 33  2  0  0  0  0
 32 31  1  0  0  0  0
 33 35  1  0  0  0  0
 34 33  1  0  0  0  0
 35 36  2  0  0  0  0
 36 27  1  0  0  0  0
 37 31  1  0  0  0  0
 38 37  1  0  0  0  0
 39 37  1  0  0  0  0
M  END
>  <minimizedAffinity>
-7.03819084

>  <minimizedRMSD>
1.11960793

$$$$
