
 OpenBabel03252503463D

 49 53  0  0  1  0  0  0  0  0999 V2000
   45.6030   35.7430   42.9930 C   0  0  0  0  0  0  0  0  0  0  0  0
   46.6360   35.9340   42.6380 H   0  0  0  0  0  0  0  0  0  0  0  0
   45.2140   36.7490   43.2790 H   0  0  0  0  0  0  0  0  0  0  0  0
   44.8320   35.1540   41.8890 C   0  0  0  0  0  0  0  0  0  0  0  0
   43.4730   35.2800   41.7180 C   0  0  0  0  0  0  0  0  0  0  0  0
   42.7970   34.7050   40.6710 C   0  0  0  0  0  0  0  0  0  0  0  0
   43.5020   33.9710   39.7530 C   0  0  0  0  0  0  0  0  0  0  0  0
   44.8800   33.8310   39.9060 C   0  0  0  0  0  0  0  0  0  0  0  0
   45.5570   34.4210   40.9760 C   0  0  0  0  0  0  0  0  0  0  0  0
   42.9800   35.8700   42.4780 H   0  0  0  0  0  0  0  0  0  0  0  0
   41.7250   34.8640   40.6260 H   0  0  0  0  0  0  0  0  0  0  0  0
   42.9160   33.5460   38.9560 H   0  0  0  0  0  0  0  0  0  0  0  0
   45.2870   33.2220   39.0960 H   0  0  0  0  0  0  0  0  0  0  0  0
   46.9360   34.1190   40.8510 N   0  0  0  0  0  0  0  0  0  0  0  0
   47.9480   34.9670   40.5910 C   0  0  0  0  0  0  0  0  0  0  0  0
   47.9100   36.0340   40.4290 H   0  0  0  0  0  0  0  0  0  0  0  0
   49.1010   34.3040   40.5490 N   0  0  0  0  0  0  0  0  0  0  0  0
   48.8580   33.0000   40.7820 C   0  0  0  0  0  0  0  0  0  0  0  0
   49.6070   31.8650   40.8640 C   0  0  0  0  0  0  0  0  0  0  0  0
   49.0660   30.6500   41.1200 N   0  0  0  0  0  0  0  0  0  0  0  0
   47.7210   30.5460   41.3060 C   0  0  0  0  0  0  0  0  0  0  0  0
   47.2180   29.6080   41.5150 H   0  0  0  0  0  0  0  0  0  0  0  0
   46.9690   31.6490   41.2290 N   0  0  0  0  0  0  0  0  0  0  0  0
   47.4770   32.8690   40.9760 C   0  0  0  0  0  0  0  0  0  0  0  0
   51.0050   32.0340   40.6600 N   0  0  0  0  0  0  0  0  0  0  0  0
   51.9340   31.7120   40.9960 H   0  0  0  0  0  0  0  0  0  0  0  0
   51.3550   32.6920   39.9400 H   0  0  0  0  0  0  0  0  0  0  0  0
   44.8200   35.0210   45.2290 C   0  0  0  0  0  0  0  0  0  0  0  0
   45.6420   34.8310   44.1240 C   0  0  0  0  0  0  0  0  0  0  0  0
   46.4990   33.7310   44.1520 C   0  0  0  0  0  0  0  0  0  0  0  0
   46.5230   32.8870   45.2110 N   0  0  0  0  0  0  0  0  0  0  0  0
   45.7080   33.1060   46.2660 C   0  0  0  0  0  0  0  0  0  0  0  0
   44.8550   34.1690   46.2850 N   0  0  0  0  0  0  0  0  0  0  0  0
   44.1470   35.8460   45.2600 H   0  0  0  0  0  0  0  0  0  0  0  0
   47.1870   33.4780   43.3930 H   0  0  0  0  0  0  0  0  0  0  0  0
   47.2340   31.8020   47.7340 C   0  0  2  0  0  0  0  0  0  0  0  0
   45.7620   32.1660   47.3870 C   0  0  1  0  0  0  0  0  0  0  0  0
   45.3750   32.6540   48.5880 O   0  0  0  0  0  0  0  0  0  0  0  0
   45.8040   31.7930   49.5560 C   0  0  0  0  0  0  0  0  0  0  0  0
   46.9320   30.9580   48.9800 C   0  0  2  0  0  0  0  0  0  0  0  0
   47.6870   31.2010   46.9290 H   0  0  0  0  0  0  0  0  0  0  0  0
   45.2240   31.2090   47.1740 H   0  0  0  0  0  0  0  0  0  0  0  0
   46.1780   32.3830   50.4180 H   0  0  0  0  0  0  0  0  0  0  0  0
   44.9390   31.1430   49.8540 H   0  0  0  0  0  0  0  0  0  0  0  0
   46.5310   29.9720   48.7010 H   0  0  0  0  0  0  0  0  0  0  0  0
   47.9030   32.8960   48.1420 O   0  0  0  0  0  0  0  0  0  0  0  0
   48.8880   32.7190   48.0180 H   0  0  0  0  0  0  0  0  0  0  0  0
   48.0040   30.8160   49.8070 O   0  0  0  0  0  0  0  0  0  0  0  0
   48.7940   31.3580   49.5440 H   0  0  0  0  0  0  0  0  0  0  0  0
  1  3  1  0  0  0  0
  1 29  1  0  0  0  0
  2  1  1  0  0  0  0
  4  1  1  0  0  0  0
  5  4  1  0  0  0  0
  5 10  1  0  0  0  0
  6  5  2  0  0  0  0
  7  8  2  0  0  0  0
  7  6  1  0  0  0  0
  8  9  1  0  0  0  0
  9  4  2  0  0  0  0
 11  6  1  0  0  0  0
 12  7  1  0  0  0  0
 13  8  1  0  0  0  0
 14  9  1  0  0  0  0
 14 24  1  0  0  0  0
 15 14  1  0  0  0  0
 16 15  1  0  0  0  0
 17 15  2  0  0  0  0
 17 18  1  0  0  0  0
 18 19  2  0  0  0  0
 18 24  1  0  0  0  0
 19 20  1  0  0  0  0
 20 21  2  0  0  0  0
 21 22  1  0  0  0  0
 23 21  1  0  0  0  0
 24 23  2  0  0  0  0
 25 19  1  0  0  0  0
 25 26  1  0  0  0  0
 27 25  1  0  0  0  0
 28 34  1  0  0  0  0
 28 33  1  0  0  0  0
 29 30  1  0  0  0  0
 29 28  2  0  0  0  0
 30 31  2  0  0  0  0
 31 32  1  0  0  0  0
 32 33  2  0  0  0  0
 32 37  1  0  0  0  0
 35 30  1  0  0  0  0
 36 41  1  6  0  0  0
 36 46  1  0  0  0  0
 36 40  1  0  0  0  0
 37 42  1  6  0  0  0
 37 36  1  0  0  0  0
 37 38  1  0  0  0  0
 38 39  1  0  0  0  0
 39 44  1  0  0  0  0
 39 43  1  0  0  0  0
 40 45  1  6  0  0  0
 40 39  1  0  0  0  0
 40 48  1  0  0  0  0
 47 46  1  0  0  0  0
 49 48  1  0  0  0  0
M  END
>  <minimizedAffinity>
-7.19513512

>  <minimizedRMSD>
1.29238749

$$$$
