
 OpenBabel03252502563D

 42 45  0  0  0  0  0  0  0  0999 V2000
   45.5750   29.9640   44.7570 Br  0  0  0  0  0  0  0  0  0  0  0  0
   45.6550   30.5950   46.5870 C   0  0  0  0  0  0  0  0  0  0  0  0
   46.3460   31.7490   46.7740 C   0  0  0  0  0  0  0  0  0  0  0  0
   46.3880   32.1810   48.1070 C   0  0  0  0  0  0  0  0  0  0  0  0
   45.7850   31.5050   49.1390 C   0  0  0  0  0  0  0  0  0  0  0  0
   45.1060   30.3470   48.8630 C   0  0  0  0  0  0  0  0  0  0  0  0
   45.0300   29.8700   47.5700 C   0  0  0  0  0  0  0  0  0  0  0  0
   46.9080   33.0840   48.3710 H   0  0  0  0  0  0  0  0  0  0  0  0
   45.8420   31.8740   50.1530 H   0  0  0  0  0  0  0  0  0  0  0  0
   44.6130   29.7720   49.6320 H   0  0  0  0  0  0  0  0  0  0  0  0
   47.0310   32.5620   45.7660 C   0  0  0  0  0  0  0  0  0  0  0  0
   47.9960   32.8990   46.1590 H   0  0  0  0  0  0  0  0  0  0  0  0
   47.2830   31.8640   44.9200 H   0  0  0  0  0  0  0  0  0  0  0  0
   44.5460   35.3130   45.3980 C   0  0  0  0  0  0  0  0  0  0  0  0
   44.7600   35.7250   44.0840 C   0  0  0  0  0  0  0  0  0  0  0  0
   45.7450   35.0600   43.3430 C   0  0  0  0  0  0  0  0  0  0  0  0
   46.4350   34.0640   43.9300 N   0  0  0  0  0  0  0  0  0  0  0  0
   46.2150   33.6710   45.2170 C   0  0  0  0  0  0  0  0  0  0  0  0
   45.2600   34.3220   45.9190 N   0  0  0  0  0  0  0  0  0  0  0  0
   43.7800   35.8360   45.9610 H   0  0  0  0  0  0  0  0  0  0  0  0
   44.2060   36.5260   43.6110 H   0  0  0  0  0  0  0  0  0  0  0  0
   45.9870   35.2980   42.3310 H   0  0  0  0  0  0  0  0  0  0  0  0
   44.3380   28.6920   47.3030 O   0  0  0  0  0  0  0  0  0  0  0  0
   44.0970   26.1260   46.9890 O   0  0  0  0  0  0  0  0  0  0  0  0
   44.8520   27.1620   47.7990 P   0  0  2  0  0  0  0  0  0  0  0  0
   44.4970   27.0100   49.4360 O   0  0  0  0  0  0  0  0  0  0  0  0
   45.2690   27.3100   49.9620 H   0  0  0  0  0  0  0  0  0  0  0  0
   46.5070   26.9430   47.5110 O   0  0  0  0  0  0  0  0  0  0  0  0
   46.3030   25.3460   49.8510 H   0  0  0  0  0  0  0  0  0  0  0  0
   47.1450   25.2850   49.2380 N   0  0  0  0  0  0  0  0  0  0  0  0
   47.3050   26.0140   48.1160 C   0  0  0  0  0  0  0  0  0  0  0  0
   48.4960   25.6890   47.5740 N   0  0  0  0  0  0  0  0  0  0  0  0
   49.0460   24.7570   48.3880 C   0  0  0  0  0  0  0  0  0  0  0  0
   50.2810   24.1160   48.2390 C   0  0  0  0  0  0  0  0  0  0  0  0
   50.6140   23.2180   49.1850 N   0  0  0  0  0  0  0  0  0  0  0  0
   49.7730   22.9710   50.2160 C   0  0  0  0  0  0  0  0  0  0  0  0
   50.1590   22.2320   50.9030 H   0  0  0  0  0  0  0  0  0  0  0  0
   48.5730   23.5910   50.3630 N   0  0  0  0  0  0  0  0  0  0  0  0
   48.2070   24.4860   49.4480 C   0  0  0  0  0  0  0  0  0  0  0  0
   51.1160   24.4330   47.1190 N   0  0  0  0  0  0  0  0  0  0  0  0
   52.0360   24.9410   47.1060 H   0  0  0  0  0  0  0  0  0  0  0  0
   50.8310   24.1480   46.1510 H   0  0  0  0  0  0  0  0  0  0  0  0
  1  2  1  0  0  0  0
  2  3  2  0  0  0  0
  2  7  1  0  0  0  0
  3  4  1  0  0  0  0
  4  8  1  0  0  0  0
  4  5  2  0  0  0  0
  5  9  1  0  0  0  0
  6  5  1  0  0  0  0
  6 10  1  0  0  0  0
  7  6  2  0  0  0  0
 11 12  1  0  0  0  0
 11  3  1  0  0  0  0
 13 11  1  0  0  0  0
 14 19  1  0  0  0  0
 14 20  1  0  0  0  0
 15 14  2  0  0  0  0
 16 17  2  0  0  0  0
 16 15  1  0  0  0  0
 17 18  1  0  0  0  0
 18 11  1  0  0  0  0
 18 19  2  0  0  0  0
 21 15  1  0  0  0  0
 22 16  1  0  0  0  0
 23  7  1  0  0  0  0
 23 25  1  0  0  0  0
 25 24  2  6  0  0  0
 25 26  1  0  0  0  0
 26 27  1  0  0  0  0
 28 25  1  0  0  0  0
 28 31  1  0  0  0  0
 30 39  1  0  0  0  0
 30 29  1  0  0  0  0
 31 30  1  0  0  0  0
 32 31  2  0  0  0  0
 32 33  1  0  0  0  0
 33 39  1  0  0  0  0
 34 33  2  0  0  0  0
 34 35  1  0  0  0  0
 35 36  2  0  0  0  0
 36 38  1  0  0  0  0
 36 37  1  0  0  0  0
 39 38  2  0  0  0  0
 40 34  1  0  0  0  0
 41 40  1  0  0  0  0
 42 40  1  0  0  0  0
M  END
>  <minimizedAffinity>
-5.71208763

>  <minimizedRMSD>
0.240821719

$$$$
