
 OpenBabel03252504473D

 32 34  0  0  0  0  0  0  0  0999 V2000
   45.4210   31.8250   49.3640 O   0  0  0  0  0  0  0  0  0  0  0  0
   45.6640   31.6970   47.8640 P   0  0  1  0  0  0  0  0  0  0  0  0
   44.6060   30.4860   47.3250 O   0  0  0  0  0  0  0  0  0  0  0  0
   45.0740   29.6150   47.2340 H   0  0  0  0  0  0  0  0  0  0  0  0
   45.3330   33.2080   47.1890 O   0  0  0  0  0  0  0  0  0  0  0  0
   45.5000   34.9060   44.0110 C   0  0  0  0  0  0  0  0  0  0  0  0
   46.5780   34.2420   43.3960 C   0  0  0  0  0  0  0  0  0  0  0  0
   47.2040   33.2190   44.1320 C   0  0  0  0  0  0  0  0  0  0  0  0
   46.7320   32.9410   45.3730 N   0  0  0  0  0  0  0  0  0  0  0  0
   45.6940   33.6130   45.9080 C   0  0  0  0  0  0  0  0  0  0  0  0
   45.0760   34.5990   45.2250 N   0  0  0  0  0  0  0  0  0  0  0  0
   46.9280   34.4890   42.4050 H   0  0  0  0  0  0  0  0  0  0  0  0
   48.0370   32.6860   43.6920 H   0  0  0  0  0  0  0  0  0  0  0  0
   44.8400   36.0000   43.2130 C   0  0  0  0  0  0  0  0  0  0  0  0
   43.7590   36.0810   43.4600 H   0  0  0  0  0  0  0  0  0  0  0  0
   45.0090   35.8410   42.1220 H   0  0  0  0  0  0  0  0  0  0  0  0
   45.3510   36.9390   43.5190 H   0  0  0  0  0  0  0  0  0  0  0  0
   47.2290   31.2080   47.5080 O   0  0  0  0  0  0  0  0  0  0  0  0
   48.6840   32.9830   49.2150 H   0  0  0  0  0  0  0  0  0  0  0  0
   48.8940   31.9830   49.3030 N   0  0  0  0  0  0  0  0  0  0  0  0
   48.2020   31.1700   48.4940 C   0  0  0  0  0  0  0  0  0  0  0  0
   48.5940   29.9040   48.7350 N   0  0  0  0  0  0  0  0  0  0  0  0
   49.5420   29.8580   49.6930 C   0  0  0  0  0  0  0  0  0  0  0  0
   50.3140   28.9360   50.3650 C   0  0  0  0  0  0  0  0  0  0  0  0
   51.2040   29.3010   51.3170 N   0  0  0  0  0  0  0  0  0  0  0  0
   51.3020   30.6230   51.5840 C   0  0  0  0  0  0  0  0  0  0  0  0
   52.0200   30.8740   52.3460 H   0  0  0  0  0  0  0  0  0  0  0  0
   50.5690   31.5860   50.9590 N   0  0  0  0  0  0  0  0  0  0  0  0
   49.6990   31.1780   50.0210 C   0  0  0  0  0  0  0  0  0  0  0  0
   50.1230   27.5730   49.9970 N   0  0  0  0  0  0  0  0  0  0  0  0
   49.3950   26.8320   50.0460 H   0  0  0  0  0  0  0  0  0  0  0  0
   51.0100   27.2460   49.5320 H   0  0  0  0  0  0  0  0  0  0  0  0
  2  1  2  1  0  0  0
  3  2  1  0  0  0  0
  4  3  1  0  0  0  0
  5  2  1  0  0  0  0
  6 11  1  0  0  0  0
  7  6  2  0  0  0  0
  7  8  1  0  0  0  0
  8  9  2  0  0  0  0
  9 10  1  0  0  0  0
 10  5  1  0  0  0  0
 11 10  2  0  0  0  0
 12  7  1  0  0  0  0
 13  8  1  0  0  0  0
 14 15  1  0  0  0  0
 14 17  1  0  0  0  0
 14  6  1  0  0  0  0
 16 14  1  0  0  0  0
 18  2  1  0  0  0  0
 18 21  1  0  0  0  0
 19 20  1  0  0  0  0
 20 29  1  0  0  0  0
 21 22  2  0  0  0  0
 21 20  1  0  0  0  0
 22 23  1  0  0  0  0
 23 29  2  0  0  0  0
 23 24  1  0  0  0  0
 24 25  2  0  0  0  0
 25 26  1  0  0  0  0
 26 27  1  0  0  0  0
 28 26  2  0  0  0  0
 29 28  1  0  0  0  0
 30 31  1  0  0  0  0
 30 24  1  0  0  0  0
 32 30  1  0  0  0  0
M  END
>  <minimizedAffinity>
-5.90872097

>  <minimizedRMSD>
1.20208037

$$$$
