
 OpenBabel03252504463D

 32 34  0  0  0  0  0  0  0  0999 V2000
   45.4400   31.6940   49.4890 O   0  0  0  0  0  0  0  0  0  0  0  0
   45.6890   31.6090   47.9870 P   0  0  1  0  0  0  0  0  0  0  0  0
   44.6150   30.4330   47.4040 O   0  0  0  0  0  0  0  0  0  0  0  0
   45.0700   29.5570   47.2890 H   0  0  0  0  0  0  0  0  0  0  0  0
   45.3840   33.1450   47.3570 O   0  0  0  0  0  0  0  0  0  0  0  0
   45.4360   34.8800   44.1950 C   0  0  0  0  0  0  0  0  0  0  0  0
   46.4790   34.2140   43.5280 C   0  0  0  0  0  0  0  0  0  0  0  0
   47.1250   33.1750   44.2240 C   0  0  0  0  0  0  0  0  0  0  0  0
   46.7030   32.8870   45.4810 N   0  0  0  0  0  0  0  0  0  0  0  0
   45.6960   33.5630   46.0670 C   0  0  0  0  0  0  0  0  0  0  0  0
   45.0600   34.5630   45.4230 N   0  0  0  0  0  0  0  0  0  0  0  0
   46.7900   34.4690   42.5250 H   0  0  0  0  0  0  0  0  0  0  0  0
   47.9330   32.6390   43.7440 H   0  0  0  0  0  0  0  0  0  0  0  0
   44.7550   35.9910   43.4390 C   0  0  0  0  0  0  0  0  0  0  0  0
   43.6850   36.0800   43.7320 H   0  0  0  0  0  0  0  0  0  0  0  0
   44.8760   35.8430   42.3400 H   0  0  0  0  0  0  0  0  0  0  0  0
   45.2880   36.9210   43.7340 H   0  0  0  0  0  0  0  0  0  0  0  0
   47.2480   31.1070   47.6230 O   0  0  0  0  0  0  0  0  0  0  0  0
   47.9670   29.0210   49.4420 H   0  0  0  0  0  0  0  0  0  0  0  0
   48.5160   29.8850   49.4910 N   0  0  0  0  0  0  0  0  0  0  0  0
   48.1630   30.8500   48.6300 C   0  0  0  0  0  0  0  0  0  0  0  0
   48.9750   31.9040   48.8250 N   0  0  0  0  0  0  0  0  0  0  0  0
   49.8690   31.6620   49.8040 C   0  0  0  0  0  0  0  0  0  0  0  0
   50.9140   32.2830   50.4550 C   0  0  0  0  0  0  0  0  0  0  0  0
   51.6090   31.6750   51.4430 N   0  0  0  0  0  0  0  0  0  0  0  0
   51.2310   30.4190   51.7720 C   0  0  0  0  0  0  0  0  0  0  0  0
   51.8060   29.9700   52.5610 H   0  0  0  0  0  0  0  0  0  0  0  0
   50.2090   29.7470   51.1700 N   0  0  0  0  0  0  0  0  0  0  0  0
   49.5470   30.3880   50.1930 C   0  0  0  0  0  0  0  0  0  0  0  0
   51.2190   33.6060   50.0220 N   0  0  0  0  0  0  0  0  0  0  0  0
   51.5890   34.1040   49.1870 H   0  0  0  0  0  0  0  0  0  0  0  0
   50.9840   34.2580   50.8170 H   0  0  0  0  0  0  0  0  0  0  0  0
  2  1  2  1  0  0  0
  3  2  1  0  0  0  0
  4  3  1  0  0  0  0
  5  2  1  0  0  0  0
  6 11  1  0  0  0  0
  7  6  2  0  0  0  0
  7  8  1  0  0  0  0
  8  9  2  0  0  0  0
  9 10  1  0  0  0  0
 10  5  1  0  0  0  0
 11 10  2  0  0  0  0
 12  7  1  0  0  0  0
 13  8  1  0  0  0  0
 14 15  1  0  0  0  0
 14 17  1  0  0  0  0
 14  6  1  0  0  0  0
 16 14  1  0  0  0  0
 18  2  1  0  0  0  0
 18 21  1  0  0  0  0
 19 20  1  0  0  0  0
 20 29  1  0  0  0  0
 21 22  2  0  0  0  0
 21 20  1  0  0  0  0
 22 23  1  0  0  0  0
 23 29  2  0  0  0  0
 23 24  1  0  0  0  0
 24 25  2  0  0  0  0
 25 26  1  0  0  0  0
 26 27  1  0  0  0  0
 28 26  2  0  0  0  0
 29 28  1  0  0  0  0
 30 24  1  0  0  0  0
 30 32  1  0  0  0  0
 31 30  1  0  0  0  0
M  END
>  <minimizedAffinity>
-6.31219387

>  <minimizedRMSD>
0.794635594

$$$$
