
 OpenBabel03242521443D

 43 46  0  0  1  0  0  0  0  0999 V2000
   45.4800   34.6410   43.9050 C   0  0  0  0  0  0  0  0  0  0  0  0
   46.5580   33.9930   43.2810 C   0  0  0  0  0  0  0  0  0  0  0  0
   47.3130   33.0700   44.0170 C   0  0  0  0  0  0  0  0  0  0  0  0
   46.9600   32.8560   45.2820 N   0  0  0  0  0  0  0  0  0  0  0  0
   45.9180   33.4890   45.8690 C   0  0  0  0  0  0  0  0  0  0  0  0
   45.1760   34.3820   45.1820 N   0  0  0  0  0  0  0  0  0  0  0  0
   46.7480   34.2460   42.2550 H   0  0  0  0  0  0  0  0  0  0  0  0
   45.6980   33.2640   46.8870 H   0  0  0  0  0  0  0  0  0  0  0  0
   49.2320   33.3320   42.4560 C   0  0  2  0  0  0  0  0  0  0  0  0
   48.4200   32.4290   43.3160 C   0  0  2  0  0  0  0  0  0  0  0  0
   48.0100   31.4480   42.3650 O   0  0  0  0  0  0  0  0  0  0  0  0
   49.2130   31.0910   41.7820 C   0  0  0  0  0  0  0  0  0  0  0  0
   50.1530   32.2620   41.8300 C   0  0  1  0  0  0  0  0  0  0  0  0
   48.6620   33.7090   41.5640 H   0  0  0  0  0  0  0  0  0  0  0  0
   49.1090   31.8720   44.0020 H   0  0  0  0  0  0  0  0  0  0  0  0
   49.0300   30.8430   40.7150 H   0  0  0  0  0  0  0  0  0  0  0  0
   49.6530   30.2490   42.3250 H   0  0  0  0  0  0  0  0  0  0  0  0
   51.0210   32.0990   42.5020 H   0  0  0  0  0  0  0  0  0  0  0  0
   49.8990   34.3130   43.1240 O   0  0  0  0  0  0  0  0  0  0  0  0
   49.9580   35.1780   42.6550 H   0  0  0  0  0  0  0  0  0  0  0  0
   50.5610   32.7050   40.5760 O   0  0  0  0  0  0  0  0  0  0  0  0
   50.6860   33.6740   40.6360 H   0  0  0  0  0  0  0  0  0  0  0  0
   44.6850   35.6380   43.1030 C   0  0  0  0  0  0  0  0  0  0  0  0
   45.2060   35.8430   42.1590 H   0  0  0  0  0  0  0  0  0  0  0  0
   43.6560   35.2590   42.9820 H   0  0  0  0  0  0  0  0  0  0  0  0
   45.3720   38.0220   43.7850 C   0  0  0  0  0  0  0  0  0  0  0  0
   46.2460   38.0220   42.8790 O   0  0  0  0  0  0  0  0  0  0  0  0
   44.6050   36.8460   43.9160 N   0  0  0  0  0  0  0  0  0  0  0  0
   43.8880   36.8430   44.6950 H   0  0  0  0  0  0  0  0  0  0  0  0
   45.3190   38.3930   46.6510 H   0  0  0  0  0  0  0  0  0  0  0  0
   45.1500   39.1840   46.0130 N   0  0  0  0  0  0  0  0  0  0  0  0
   45.1430   39.1620   44.6650 C   0  0  0  0  0  0  0  0  0  0  0  0
   44.8790   40.4180   44.2590 N   0  0  0  0  0  0  0  0  0  0  0  0
   44.7190   41.2340   45.3190 C   0  0  0  0  0  0  0  0  0  0  0  0
   44.4380   42.5870   45.3500 C   0  0  0  0  0  0  0  0  0  0  0  0
   44.3390   43.1130   46.5990 N   0  0  0  0  0  0  0  0  0  0  0  0
   44.4990   42.3880   47.7170 C   0  0  0  0  0  0  0  0  0  0  0  0
   44.4120   42.8460   48.7060 H   0  0  0  0  0  0  0  0  0  0  0  0
   44.7750   41.0580   47.6590 N   0  0  0  0  0  0  0  0  0  0  0  0
   44.8900   40.4520   46.4420 C   0  0  0  0  0  0  0  0  0  0  0  0
   44.2670   43.3660   44.1650 N   0  0  0  0  0  0  0  0  0  0  0  0
   44.0610   42.8150   43.2910 H   0  0  0  0  0  0  0  0  0  0  0  0
   44.3650   44.4010   44.3060 H   0  0  0  0  0  0  0  0  0  0  0  0
  1  6  1  0  0  0  0
  2  1  2  0  0  0  0
  2  3  1  0  0  0  0
  3  4  2  0  0  0  0
  4  5  1  0  0  0  0
  5  8  1  0  0  0  0
  6  5  2  0  0  0  0
  7  2  1  0  0  0  0
  9 14  1  6  0  0  0
  9 19  1  0  0  0  0
  9 10  1  0  0  0  0
 10 15  1  1  0  0  0
 10  3  1  0  0  0  0
 11 10  1  0  0  0  0
 12 13  1  0  0  0  0
 12 17  1  0  0  0  0
 12 11  1  0  0  0  0
 13  9  1  0  0  0  0
 13 18  1  1  0  0  0
 16 12  1  0  0  0  0
 20 19  1  0  0  0  0
 21 22  1  0  0  0  0
 21 13  1  0  0  0  0
 23  1  1  0  0  0  0
 23 28  1  0  0  0  0
 24 23  1  0  0  0  0
 25 23  1  0  0  0  0
 26 28  1  0  0  0  0
 26 32  1  0  0  0  0
 27 26  2  0  0  0  0
 28 29  1  0  0  0  0
 31 40  1  0  0  0  0
 31 30  1  0  0  0  0
 32 31  1  0  0  0  0
 33 32  2  0  0  0  0
 33 34  1  0  0  0  0
 34 35  2  0  0  0  0
 34 40  1  0  0  0  0
 35 36  1  0  0  0  0
 36 37  2  0  0  0  0
 37 38  1  0  0  0  0
 39 37  1  0  0  0  0
 40 39  2  0  0  0  0
 41 43  1  0  0  0  0
 41 35  1  0  0  0  0
 42 41  1  0  0  0  0
M  END
>  <minimizedAffinity>
-2.91603303

>  <minimizedRMSD>
1.43928289

$$$$
