
 OpenBabel03252509323D

 32 34  0  0  0  0  0  0  0  0999 V2000
   50.9210   31.0660   42.8830 O   0  0  0  0  0  0  0  0  0  0  0  0
   50.4410   32.2870   42.1460 P   0  0  2  0  0  0  0  0  0  0  0  0
   51.3080   33.6740   42.5400 O   0  0  0  0  0  0  0  0  0  0  0  0
   51.9130   33.5710   43.3080 H   0  0  0  0  0  0  0  0  0  0  0  0
   48.8120   32.5640   42.5520 O   0  0  0  0  0  0  0  0  0  0  0  0
   48.7060   33.9220   42.8230 C   0  0  0  0  0  0  0  0  0  0  0  0
   49.0490   34.4760   41.9030 H   0  0  0  0  0  0  0  0  0  0  0  0
   49.3840   34.2770   43.6230 H   0  0  0  0  0  0  0  0  0  0  0  0
   45.4420   33.9950   44.6290 C   0  0  0  0  0  0  0  0  0  0  0  0
   46.7540   33.6240   44.2680 C   0  0  0  0  0  0  0  0  0  0  0  0
   47.3460   34.2890   43.2170 C   0  0  0  0  0  0  0  0  0  0  0  0
   46.6480   35.2740   42.5690 N   0  0  0  0  0  0  0  0  0  0  0  0
   45.3890   35.6050   42.9440 C   0  0  0  0  0  0  0  0  0  0  0  0
   44.7890   34.9720   43.9640 N   0  0  0  0  0  0  0  0  0  0  0  0
   44.9100   33.5220   45.4400 H   0  0  0  0  0  0  0  0  0  0  0  0
   47.2330   32.8300   44.8380 H   0  0  0  0  0  0  0  0  0  0  0  0
   44.8450   36.3880   42.4220 H   0  0  0  0  0  0  0  0  0  0  0  0
   50.5050   31.9590   40.5010 O   0  0  0  0  0  0  0  0  0  0  0  0
   49.2230   34.2180   39.3770 H   0  0  0  0  0  0  0  0  0  0  0  0
   48.8930   33.2550   39.1400 N   0  0  0  0  0  0  0  0  0  0  0  0
   49.4410   32.1300   39.6270 C   0  0  0  0  0  0  0  0  0  0  0  0
   48.7480   31.0890   39.0990 N   0  0  0  0  0  0  0  0  0  0  0  0
   47.7800   31.5680   38.2940 C   0  0  0  0  0  0  0  0  0  0  0  0
   46.7850   31.0520   37.5000 C   0  0  0  0  0  0  0  0  0  0  0  0
   45.9340   31.8070   36.7800 N   0  0  0  0  0  0  0  0  0  0  0  0
   46.0380   33.1560   36.8170 C   0  0  0  0  0  0  0  0  0  0  0  0
   45.4400   33.8960   36.3020 H   0  0  0  0  0  0  0  0  0  0  0  0
   47.0040   33.6640   37.5850 N   0  0  0  0  0  0  0  0  0  0  0  0
   47.8700   32.9410   38.3180 C   0  0  0  0  0  0  0  0  0  0  0  0
   46.6390   29.6380   37.4300 N   0  0  0  0  0  0  0  0  0  0  0  0
   47.3960   29.1550   36.8850 H   0  0  0  0  0  0  0  0  0  0  0  0
   46.1010   28.7660   37.6760 H   0  0  0  0  0  0  0  0  0  0  0  0
  2  3  1  0  0  0  0
  2  5  1  0  0  0  0
  2  1  2  1  0  0  0
  3  4  1  0  0  0  0
  5  6  1  0  0  0  0
  6 11  1  0  0  0  0
  6  8  1  0  0  0  0
  7  6  1  0  0  0  0
  9 15  1  0  0  0  0
 10  9  1  0  0  0  0
 10 16  1  0  0  0  0
 11 10  2  0  0  0  0
 12 13  2  0  0  0  0
 12 11  1  0  0  0  0
 13 14  1  0  0  0  0
 14  9  2  0  0  0  0
 17 13  1  0  0  0  0
 18  2  1  0  0  0  0
 20 19  1  0  0  0  0
 20 21  1  0  0  0  0
 21 18  1  0  0  0  0
 22 21  2  0  0  0  0
 23 29  1  0  0  0  0
 23 22  1  0  0  0  0
 24 23  2  0  0  0  0
 25 26  2  0  0  0  0
 25 24  1  0  0  0  0
 26 28  1  0  0  0  0
 27 26  1  0  0  0  0
 28 29  2  0  0  0  0
 29 20  1  0  0  0  0
 30 24  1  0  0  0  0
 30 32  1  0  0  0  0
 31 30  1  0  0  0  0
M  END
>  <minimizedAffinity>
-4.58421564

>  <minimizedRMSD>
5.28377151

$$$$
