
 OpenBabel03252504273D

 27 29  0  0  0  0  0  0  0  0999 V2000
   42.8010   35.2280   38.1620 H   0  0  0  0  0  0  0  0  0  0  0  0
   42.1750   34.8220   38.8970 N   0  0  0  0  0  0  0  0  0  0  0  0
   42.5240   34.5500   40.1670 C   0  0  0  0  0  0  0  0  0  0  0  0
   41.4660   34.0440   40.7970 N   0  0  0  0  0  0  0  0  0  0  0  0
   40.4200   33.9850   39.9390 C   0  0  0  0  0  0  0  0  0  0  0  0
   39.1090   33.5830   39.9640 C   0  0  0  0  0  0  0  0  0  0  0  0
   38.3200   33.6660   38.8820 N   0  0  0  0  0  0  0  0  0  0  0  0
   38.7960   34.1590   37.7040 C   0  0  0  0  0  0  0  0  0  0  0  0
   38.0660   34.1790   36.9000 H   0  0  0  0  0  0  0  0  0  0  0  0
   40.0780   34.5600   37.6510 N   0  0  0  0  0  0  0  0  0  0  0  0
   40.8810   34.4820   38.7300 C   0  0  0  0  0  0  0  0  0  0  0  0
   38.6070   33.0700   41.1820 N   0  0  0  0  0  0  0  0  0  0  0  0
   37.9540   33.8430   41.5020 H   0  0  0  0  0  0  0  0  0  0  0  0
   38.6490   32.2580   41.8310 H   0  0  0  0  0  0  0  0  0  0  0  0
   43.7600   34.7370   40.7910 O   0  0  0  0  0  0  0  0  0  0  0  0
   43.8790   35.6220   41.8510 C   0  0  0  0  0  0  0  0  0  0  0  0
   44.5780   36.4620   41.5870 H   0  0  0  0  0  0  0  0  0  0  0  0
   42.9070   36.1190   42.0550 H   0  0  0  0  0  0  0  0  0  0  0  0
   44.2720   35.7780   44.2210 C   0  0  0  0  0  0  0  0  0  0  0  0
   44.4150   35.0190   43.0740 C   0  0  0  0  0  0  0  0  0  0  0  0
   45.0370   33.7910   43.1880 C   0  0  0  0  0  0  0  0  0  0  0  0
   45.4630   33.4160   44.4090 N   0  0  0  0  0  0  0  0  0  0  0  0
   45.3130   34.1690   45.5160 C   0  0  0  0  0  0  0  0  0  0  0  0
   44.7030   35.4010   45.4680 N   0  0  0  0  0  0  0  0  0  0  0  0
   43.7970   36.7640   44.2520 H   0  0  0  0  0  0  0  0  0  0  0  0
   45.1370   33.2240   42.2920 H   0  0  0  0  0  0  0  0  0  0  0  0
   45.7190   33.7040   46.4200 H   0  0  0  0  0  0  0  0  0  0  0  0
  1  2  1  0  0  0  0
  2  3  1  0  0  0  0
  3 15  1  0  0  0  0
  3  4  2  0  0  0  0
  5  6  1  0  0  0  0
  5  4  1  0  0  0  0
  6 12  1  0  0  0  0
  7  6  2  0  0  0  0
  8  7  1  0  0  0  0
  9  8  1  0  0  0  0
 10  8  2  0  0  0  0
 10 11  1  0  0  0  0
 11  2  1  0  0  0  0
 11  5  2  0  0  0  0
 12 13  1  0  0  0  0
 12 14  1  0  0  0  0
 15 16  1  0  0  0  0
 16 18  1  0  0  0  0
 16 20  1  0  0  0  0
 17 16  1  0  0  0  0
 19 25  1  0  0  0  0
 19 24  1  0  0  0  0
 20 21  1  0  0  0  0
 20 19  2  0  0  0  0
 21 22  2  0  0  0  0
 22 23  1  0  0  0  0
 23 27  1  0  0  0  0
 24 23  2  0  0  0  0
 26 21  1  0  0  0  0
M  END
>  <minimizedAffinity>
-5.35060549

>  <minimizedRMSD>
2.76411319

$$$$
