
 OpenBabel03252500253D

 42 45  0  0  1  0  0  0  0  0999 V2000
   46.9630   30.1000   48.0530 C   0  0  2  0  0  0  0  0  0  0  0  0
   45.5140   30.3700   48.1840 C   0  0  2  0  0  0  0  0  0  0  0  0
   44.9070   29.5120   47.1380 C   0  0  0  0  0  0  0  0  0  0  0  0
   45.7270   28.4080   46.9740 O   0  0  0  0  0  0  0  0  0  0  0  0
   46.8820   28.6120   47.6580 C   0  0  0  0  0  0  0  0  0  0  0  0
   47.6080   30.4960   47.3300 H   0  0  0  0  0  0  0  0  0  0  0  0
   45.2560   30.1050   49.2440 H   0  0  0  0  0  0  0  0  0  0  0  0
   43.9880   29.0700   47.6360 H   0  0  0  0  0  0  0  0  0  0  0  0
   44.5210   29.9870   46.2580 H   0  0  0  0  0  0  0  0  0  0  0  0
   46.8060   28.0490   48.6270 H   0  0  0  0  0  0  0  0  0  0  0  0
   47.7720   28.2570   47.1440 H   0  0  0  0  0  0  0  0  0  0  0  0
   45.1680   31.6940   48.0420 O   0  0  0  0  0  0  0  0  0  0  0  0
   47.3850   32.8680   47.4580 O   0  0  0  0  0  0  0  0  0  0  0  0
   46.0890   32.4000   46.8510 P   0  0  1  0  0  0  0  0  0  0  0  0
   46.4320   31.2460   45.6610 O   0  0  0  0  0  0  0  0  0  0  0  0
   45.8930   31.3590   44.8570 H   0  0  0  0  0  0  0  0  0  0  0  0
   45.3170   33.7630   46.1590 O   0  0  0  0  0  0  0  0  0  0  0  0
   45.1730   35.7790   43.2260 C   0  0  0  0  0  0  0  0  0  0  0  0
   46.2740   35.3400   42.4410 C   0  0  0  0  0  0  0  0  0  0  0  0
   47.0590   34.3130   42.9890 C   0  0  0  0  0  0  0  0  0  0  0  0
   46.7270   33.8170   44.1990 N   0  0  0  0  0  0  0  0  0  0  0  0
   45.6670   34.2700   44.9090 C   0  0  0  0  0  0  0  0  0  0  0  0
   44.9060   35.2420   44.4130 N   0  0  0  0  0  0  0  0  0  0  0  0
   46.5300   35.7350   41.4860 H   0  0  0  0  0  0  0  0  0  0  0  0
   47.9100   33.9170   42.4680 H   0  0  0  0  0  0  0  0  0  0  0  0
   44.3960   36.7900   42.6950 O   0  0  0  0  0  0  0  0  0  0  0  0
   44.8280   37.6860   42.4990 H   0  0  0  0  0  0  0  0  0  0  0  0
   47.6500   30.2830   49.2440 O   0  0  0  0  0  0  0  0  0  0  0  0
   48.8760   30.9130   51.6210 H   0  0  0  0  0  0  0  0  0  0  0  0
   49.3920   30.7650   50.7240 N   0  0  0  0  0  0  0  0  0  0  0  0
   48.9780   30.4530   49.4680 C   0  0  0  0  0  0  0  0  0  0  0  0
   50.0750   30.3840   48.6850 N   0  0  0  0  0  0  0  0  0  0  0  0
   51.1770   30.6380   49.3820 C   0  0  0  0  0  0  0  0  0  0  0  0
   52.5080   30.6810   49.0200 C   0  0  0  0  0  0  0  0  0  0  0  0
   53.4210   30.9740   49.9820 N   0  0  0  0  0  0  0  0  0  0  0  0
   53.0050   31.2130   51.2530 C   0  0  0  0  0  0  0  0  0  0  0  0
   53.7640   31.4430   51.9910 H   0  0  0  0  0  0  0  0  0  0  0  0
   51.7020   31.1640   51.5820 N   0  0  0  0  0  0  0  0  0  0  0  0
   50.7430   30.8780   50.6700 C   0  0  0  0  0  0  0  0  0  0  0  0
   52.8880   30.4220   47.6700 N   0  0  0  0  0  0  0  0  0  0  0  0
   53.0340   29.5470   47.0860 H   0  0  0  0  0  0  0  0  0  0  0  0
   53.0740   31.2950   47.0960 H   0  0  0  0  0  0  0  0  0  0  0  0
  1  6  1  6  0  0  0
  1  2  1  0  0  0  0
  1 28  1  0  0  0  0
  2  7  1  1  0  0  0
  3  8  1  0  0  0  0
  3  2  1  0  0  0  0
  4  3  1  0  0  0  0
  4  5  1  0  0  0  0
  5  1  1  0  0  0  0
  5 10  1  0  0  0  0
  9  3  1  0  0  0  0
 11  5  1  0  0  0  0
 12  2  1  0  0  0  0
 14 13  2  1  0  0  0
 14 12  1  0  0  0  0
 15 14  1  0  0  0  0
 16 15  1  0  0  0  0
 17 14  1  0  0  0  0
 18 23  1  0  0  0  0
 19 20  1  0  0  0  0
 19 18  2  0  0  0  0
 20 21  2  0  0  0  0
 21 22  1  0  0  0  0
 22 17  1  0  0  0  0
 23 22  2  0  0  0  0
 24 19  1  0  0  0  0
 25 20  1  0  0  0  0
 26 18  1  0  0  0  0
 27 26  1  0  0  0  0
 28 31  1  0  0  0  0
 30 29  1  0  0  0  0
 31 30  1  0  0  0  0
 32 33  1  0  0  0  0
 32 31  2  0  0  0  0
 33 39  1  0  0  0  0
 34 33  2  0  0  0  0
 34 35  1  0  0  0  0
 35 36  2  0  0  0  0
 36 38  1  0  0  0  0
 36 37  1  0  0  0  0
 39 30  1  0  0  0  0
 39 38  2  0  0  0  0
 40 34  1  0  0  0  0
 41 40  1  0  0  0  0
 42 40  1  0  0  0  0
M  END
>  <minimizedAffinity>
-5.7120676

>  <minimizedRMSD>
0.602476597

$$$$
