
 OpenBabel03252506383D

 49 53  0  0  1  0  0  0  0  0999 V2000
   45.2320   30.5890   43.5310 O   0  0  0  0  0  0  0  0  0  0  0  0
   44.7430   29.9770   44.4950 C   0  0  0  0  0  0  0  0  0  0  0  0
   45.0520   29.6500   45.9100 C   0  0  1  0  0  0  0  0  0  0  0  0
   44.5370   28.2370   46.0200 C   0  0  0  0  0  0  0  0  0  0  0  0
   43.1330   28.4840   45.4690 C   0  0  0  0  0  0  0  0  0  0  0  0
   43.4680   29.3250   44.3280 N   0  0  0  0  0  0  0  0  0  0  0  0
   44.2250   30.2180   46.4180 H   0  0  0  0  0  0  0  0  0  0  0  0
   45.1390   27.6150   45.3350 H   0  0  0  0  0  0  0  0  0  0  0  0
   44.5240   27.8430   47.0470 H   0  0  0  0  0  0  0  0  0  0  0  0
   42.5840   29.0870   46.1930 H   0  0  0  0  0  0  0  0  0  0  0  0
   42.6410   27.5440   45.1710 H   0  0  0  0  0  0  0  0  0  0  0  0
   41.0980   30.7190   44.2310 H   0  0  0  0  0  0  0  0  0  0  0  0
   41.4310   30.1720   43.3930 N   0  0  0  0  0  0  0  0  0  0  0  0
   42.5530   29.4200   43.2130 C   0  0  0  0  0  0  0  0  0  0  0  0
   42.5610   28.9050   41.9750 N   0  0  0  0  0  0  0  0  0  0  0  0
   41.4240   29.3380   41.3570 C   0  0  0  0  0  0  0  0  0  0  0  0
   40.8720   29.1640   40.1230 C   0  0  0  0  0  0  0  0  0  0  0  0
   39.7080   29.7410   39.8130 N   0  0  0  0  0  0  0  0  0  0  0  0
   39.0140   30.5180   40.6810 C   0  0  0  0  0  0  0  0  0  0  0  0
   38.0710   31.0030   40.4720 H   0  0  0  0  0  0  0  0  0  0  0  0
   39.5270   30.7140   41.9100 N   0  0  0  0  0  0  0  0  0  0  0  0
   40.6980   30.1420   42.2440 C   0  0  0  0  0  0  0  0  0  0  0  0
   41.5700   28.3570   39.1870 N   0  0  0  0  0  0  0  0  0  0  0  0
   42.6110   28.4440   39.1190 H   0  0  0  0  0  0  0  0  0  0  0  0
   41.2830   27.6260   38.4820 H   0  0  0  0  0  0  0  0  0  0  0  0
   46.6900   29.9070   46.4510 S   0  0  0  0  0  0  0  0  0  0  0  0
   44.5550   35.4360   45.2450 C   0  0  0  0  0  0  0  0  0  0  0  0
   45.1860   35.4630   43.9830 C   0  0  0  0  0  0  0  0  0  0  0  0
   46.0980   34.5070   43.6750 C   0  0  0  0  0  0  0  0  0  0  0  0
   46.3440   33.5700   44.6220 N   0  0  0  0  0  0  0  0  0  0  0  0
   45.7480   33.5480   45.8060 C   0  0  0  0  0  0  0  0  0  0  0  0
   44.8490   34.4750   46.1340 N   0  0  0  0  0  0  0  0  0  0  0  0
   46.0960   32.5020   46.7320 N   0  0  0  0  0  0  0  0  0  0  0  0
   45.3840   32.2180   47.9240 C   0  0  0  0  0  0  0  0  0  0  0  0
   46.4840   31.8430   48.9020 C   0  0  0  0  0  0  0  0  0  0  0  0
   47.7450   31.7560   48.0990 C   0  0  0  0  0  0  0  0  0  0  0  0
   47.2120   31.5900   46.6770 C   0  0  1  0  0  0  0  0  0  0  0  0
   43.8330   36.2070   45.4660 H   0  0  0  0  0  0  0  0  0  0  0  0
   46.5820   34.5140   42.7310 H   0  0  0  0  0  0  0  0  0  0  0  0
   44.5970   31.5470   48.0280 H   0  0  0  0  0  0  0  0  0  0  0  0
   45.0090   33.2140   48.3190 H   0  0  0  0  0  0  0  0  0  0  0  0
   46.5930   32.5330   49.7450 H   0  0  0  0  0  0  0  0  0  0  0  0
   46.2690   30.8390   49.3660 H   0  0  0  0  0  0  0  0  0  0  0  0
   48.3200   30.8810   48.4190 H   0  0  0  0  0  0  0  0  0  0  0  0
   48.3010   32.7150   48.2160 H   0  0  0  0  0  0  0  0  0  0  0  0
   48.0180   31.9200   45.9930 H   0  0  0  0  0  0  0  0  0  0  0  0
   44.8130   36.5280   43.0900 N   0  0  0  0  0  0  0  0  0  0  0  0
   45.5400   36.7950   42.3650 H   0  0  0  0  0  0  0  0  0  0  0  0
   43.8920   36.9710   43.1840 H   0  0  0  0  0  0  0  0  0  0  0  0
  1  2  2  0  0  0  0
  2  3  1  0  0  0  0
  3  4  1  0  0  0  0
  3  7  1  1  0  0  0
  3 26  1  0  0  0  0
  4  9  1  0  0  0  0
  5  4  1  0  0  0  0
  5 10  1  0  0  0  0
  6  2  1  0  0  0  0
  6  5  1  0  0  0  0
  8  4  1  0  0  0  0
 11  5  1  0  0  0  0
 13 12  1  0  0  0  0
 14 13  1  0  0  0  0
 14  6  1  0  0  0  0
 15 14  2  0  0  0  0
 16 15  1  0  0  0  0
 16 22  1  0  0  0  0
 17 16  2  0  0  0  0
 18 17  1  0  0  0  0
 18 19  2  0  0  0  0
 19 21  1  0  0  0  0
 20 19  1  0  0  0  0
 21 22  2  0  0  0  0
 22 13  1  0  0  0  0
 23 17  1  0  0  0  0
 24 23  1  0  0  0  0
 25 23  1  0  0  0  0
 26 37  1  0  0  0  0
 27 38  1  0  0  0  0
 27 32  1  0  0  0  0
 28 27  2  0  0  0  0
 29 28  1  0  0  0  0
 29 30  2  0  0  0  0
 30 31  1  0  0  0  0
 31 32  2  0  0  0  0
 31 33  1  0  0  0  0
 33 34  1  0  0  0  0
 34 40  1  0  0  0  0
 34 41  1  0  0  0  0
 34 35  1  0  0  0  0
 35 43  1  0  0  0  0
 35 42  1  0  0  0  0
 36 45  1  0  0  0  0
 36 44  1  0  0  0  0
 36 35  1  0  0  0  0
 37 46  1  6  0  0  0
 37 33  1  0  0  0  0
 37 36  1  0  0  0  0
 39 29  1  0  0  0  0
 47 49  1  0  0  0  0
 47 28  1  0  0  0  0
 48 47  1  0  0  0  0
M  END
>  <minimizedAffinity>
-6.25654602

>  <minimizedRMSD>
0.618497729

$$$$
