
 OpenBabel03252500253D

 42 45  0  0  1  0  0  0  0  0999 V2000
   47.0140   30.1820   48.1310 C   0  0  2  0  0  0  0  0  0  0  0  0
   45.5460   30.3700   48.1330 C   0  0  2  0  0  0  0  0  0  0  0  0
   45.0820   29.4780   47.0430 C   0  0  0  0  0  0  0  0  0  0  0  0
   45.9740   28.4220   46.9570 O   0  0  0  0  0  0  0  0  0  0  0  0
   47.0510   28.6910   47.7380 C   0  0  0  0  0  0  0  0  0  0  0  0
   47.6960   30.6130   47.4640 H   0  0  0  0  0  0  0  0  0  0  0  0
   45.2120   30.0910   49.1680 H   0  0  0  0  0  0  0  0  0  0  0  0
   44.1500   28.9850   47.4610 H   0  0  0  0  0  0  0  0  0  0  0  0
   44.7490   29.9300   46.1300 H   0  0  0  0  0  0  0  0  0  0  0  0
   46.9230   28.1260   48.7000 H   0  0  0  0  0  0  0  0  0  0  0  0
   48.0020   28.3870   47.3060 H   0  0  0  0  0  0  0  0  0  0  0  0
   45.1400   31.6720   47.9540 O   0  0  0  0  0  0  0  0  0  0  0  0
   47.3560   32.8840   47.4490 O   0  0  0  0  0  0  0  0  0  0  0  0
   46.0830   32.4110   46.8000 P   0  0  1  0  0  0  0  0  0  0  0  0
   46.4720   31.2820   45.6000 O   0  0  0  0  0  0  0  0  0  0  0  0
   45.9530   31.4020   44.7840 H   0  0  0  0  0  0  0  0  0  0  0  0
   45.3110   33.7750   46.1110 O   0  0  0  0  0  0  0  0  0  0  0  0
   45.1820   35.8080   43.1900 C   0  0  0  0  0  0  0  0  0  0  0  0
   46.2930   35.3810   42.4120 C   0  0  0  0  0  0  0  0  0  0  0  0
   47.0790   34.3560   42.9610 C   0  0  0  0  0  0  0  0  0  0  0  0
   46.7390   33.8500   44.1640 N   0  0  0  0  0  0  0  0  0  0  0  0
   45.6690   34.2910   44.8670 C   0  0  0  0  0  0  0  0  0  0  0  0
   44.9070   35.2630   44.3710 N   0  0  0  0  0  0  0  0  0  0  0  0
   46.5560   35.7840   41.4620 H   0  0  0  0  0  0  0  0  0  0  0  0
   47.9380   33.9680   42.4450 H   0  0  0  0  0  0  0  0  0  0  0  0
   44.4040   36.8180   42.6570 O   0  0  0  0  0  0  0  0  0  0  0  0
   44.8320   37.7180   42.4720 H   0  0  0  0  0  0  0  0  0  0  0  0
   47.5830   30.4040   49.3760 O   0  0  0  0  0  0  0  0  0  0  0  0
   49.4190   28.5990   50.3350 H   0  0  0  0  0  0  0  0  0  0  0  0
   49.6300   29.6110   50.1730 N   0  0  0  0  0  0  0  0  0  0  0  0
   48.8760   30.6430   49.7140 C   0  0  0  0  0  0  0  0  0  0  0  0
   49.6580   31.7430   49.7040 N   0  0  0  0  0  0  0  0  0  0  0  0
   50.8820   31.4630   50.1360 C   0  0  0  0  0  0  0  0  0  0  0  0
   52.0030   32.2500   50.3000 C   0  0  0  0  0  0  0  0  0  0  0  0
   53.1320   31.6600   50.7730 N   0  0  0  0  0  0  0  0  0  0  0  0
   53.1250   30.3330   51.0680 C   0  0  0  0  0  0  0  0  0  0  0  0
   54.0430   29.9000   51.4430 H   0  0  0  0  0  0  0  0  0  0  0  0
   52.0180   29.5880   50.9010 N   0  0  0  0  0  0  0  0  0  0  0  0
   50.8610   30.1160   50.4320 C   0  0  0  0  0  0  0  0  0  0  0  0
   51.9560   33.6370   49.9750 N   0  0  0  0  0  0  0  0  0  0  0  0
   52.0200   34.2010   49.0770 H   0  0  0  0  0  0  0  0  0  0  0  0
   51.8260   34.2750   50.8140 H   0  0  0  0  0  0  0  0  0  0  0  0
  1  6  1  6  0  0  0
  1  2  1  0  0  0  0
  1 28  1  0  0  0  0
  2  7  1  1  0  0  0
  3  8  1  0  0  0  0
  3  2  1  0  0  0  0
  4  3  1  0  0  0  0
  4  5  1  0  0  0  0
  5  1  1  0  0  0  0
  5 10  1  0  0  0  0
  9  3  1  0  0  0  0
 11  5  1  0  0  0  0
 12  2  1  0  0  0  0
 14 13  2  1  0  0  0
 14 12  1  0  0  0  0
 15 14  1  0  0  0  0
 16 15  1  0  0  0  0
 17 14  1  0  0  0  0
 18 23  1  0  0  0  0
 19 20  1  0  0  0  0
 19 18  2  0  0  0  0
 20 21  2  0  0  0  0
 21 22  1  0  0  0  0
 22 17  1  0  0  0  0
 23 22  2  0  0  0  0
 24 19  1  0  0  0  0
 25 20  1  0  0  0  0
 26 18  1  0  0  0  0
 27 26  1  0  0  0  0
 28 31  1  0  0  0  0
 30 29  1  0  0  0  0
 30 39  1  0  0  0  0
 31 30  1  0  0  0  0
 32 31  2  0  0  0  0
 32 33  1  0  0  0  0
 33 34  2  0  0  0  0
 33 39  1  0  0  0  0
 34 35  1  0  0  0  0
 35 36  2  0  0  0  0
 36 37  1  0  0  0  0
 38 36  1  0  0  0  0
 39 38  2  0  0  0  0
 40 34  1  0  0  0  0
 40 42  1  0  0  0  0
 41 40  1  0  0  0  0
M  END
>  <minimizedAffinity>
-5.99213123

>  <minimizedRMSD>
0.884477496

$$$$
