
 OpenBabel03252506383D

 49 53  0  0  1  0  0  0  0  0999 V2000
   45.2890   30.5900   43.5670 O   0  0  0  0  0  0  0  0  0  0  0  0
   44.8150   29.9750   44.5360 C   0  0  0  0  0  0  0  0  0  0  0  0
   45.1320   29.6670   45.9540 C   0  0  1  0  0  0  0  0  0  0  0  0
   44.6500   28.2430   46.0770 C   0  0  0  0  0  0  0  0  0  0  0  0
   43.2400   28.4530   45.5240 C   0  0  0  0  0  0  0  0  0  0  0  0
   43.5560   29.2910   44.3760 N   0  0  0  0  0  0  0  0  0  0  0  0
   44.2910   30.2200   46.4580 H   0  0  0  0  0  0  0  0  0  0  0  0
   45.2670   27.6310   45.3970 H   0  0  0  0  0  0  0  0  0  0  0  0
   44.6470   27.8580   47.1070 H   0  0  0  0  0  0  0  0  0  0  0  0
   42.6780   29.0490   46.2430 H   0  0  0  0  0  0  0  0  0  0  0  0
   42.7710   27.4990   45.2350 H   0  0  0  0  0  0  0  0  0  0  0  0
   41.4650   31.0470   44.0350 H   0  0  0  0  0  0  0  0  0  0  0  0
   41.6720   30.3150   43.3060 N   0  0  0  0  0  0  0  0  0  0  0  0
   42.6390   29.3550   43.2600 C   0  0  0  0  0  0  0  0  0  0  0  0
   42.5190   28.6430   42.1300 N   0  0  0  0  0  0  0  0  0  0  0  0
   41.4580   29.1600   41.4460 C   0  0  0  0  0  0  0  0  0  0  0  0
   40.8470   28.8770   40.2600 C   0  0  0  0  0  0  0  0  0  0  0  0
   39.7930   29.5900   39.8530 N   0  0  0  0  0  0  0  0  0  0  0  0
   39.2730   30.6150   40.5720 C   0  0  0  0  0  0  0  0  0  0  0  0
   38.4230   31.2170   40.2820 H   0  0  0  0  0  0  0  0  0  0  0  0
   39.8490   30.9240   41.7480 N   0  0  0  0  0  0  0  0  0  0  0  0
   40.9110   30.2200   42.1780 C   0  0  0  0  0  0  0  0  0  0  0  0
   41.3650   27.8100   39.4800 N   0  0  0  0  0  0  0  0  0  0  0  0
   42.4020   27.6990   39.3980 H   0  0  0  0  0  0  0  0  0  0  0  0
   40.9330   27.0320   38.9110 H   0  0  0  0  0  0  0  0  0  0  0  0
   46.7630   29.9680   46.4930 S   0  0  0  0  0  0  0  0  0  0  0  0
   44.5370   35.4370   45.1820 C   0  0  0  0  0  0  0  0  0  0  0  0
   45.2010   35.4680   43.9370 C   0  0  0  0  0  0  0  0  0  0  0  0
   46.1420   34.5310   43.6620 C   0  0  0  0  0  0  0  0  0  0  0  0
   46.3830   33.6070   44.6240 N   0  0  0  0  0  0  0  0  0  0  0  0
   45.7570   33.5810   45.7920 C   0  0  0  0  0  0  0  0  0  0  0  0
   44.8290   34.4900   46.0880 N   0  0  0  0  0  0  0  0  0  0  0  0
   46.1030   32.5510   46.7350 N   0  0  0  0  0  0  0  0  0  0  0  0
   45.3670   32.2600   47.9100 C   0  0  0  0  0  0  0  0  0  0  0  0
   46.4490   31.9190   48.9200 C   0  0  0  0  0  0  0  0  0  0  0  0
   47.7320   31.8540   48.1520 C   0  0  0  0  0  0  0  0  0  0  0  0
   47.2410   31.6640   46.7180 C   0  0  1  0  0  0  0  0  0  0  0  0
   43.7930   36.1920   45.3780 H   0  0  0  0  0  0  0  0  0  0  0  0
   46.6510   34.5400   42.7310 H   0  0  0  0  0  0  0  0  0  0  0  0
   44.5930   31.5720   48.0000 H   0  0  0  0  0  0  0  0  0  0  0  0
   44.9590   33.2500   48.2860 H   0  0  0  0  0  0  0  0  0  0  0  0
   46.5190   32.6170   49.7600 H   0  0  0  0  0  0  0  0  0  0  0  0
   46.2440   30.9130   49.3870 H   0  0  0  0  0  0  0  0  0  0  0  0
   48.3180   30.9940   48.4950 H   0  0  0  0  0  0  0  0  0  0  0  0
   48.2630   32.8260   48.2750 H   0  0  0  0  0  0  0  0  0  0  0  0
   48.0570   32.0070   46.0530 H   0  0  0  0  0  0  0  0  0  0  0  0
   44.8270   36.5170   43.0260 N   0  0  0  0  0  0  0  0  0  0  0  0
   45.5670   36.7950   42.3180 H   0  0  0  0  0  0  0  0  0  0  0  0
   43.8950   36.9400   43.0910 H   0  0  0  0  0  0  0  0  0  0  0  0
  1  2  2  0  0  0  0
  2  3  1  0  0  0  0
  3  4  1  0  0  0  0
  3  7  1  1  0  0  0
  3 26  1  0  0  0  0
  4  9  1  0  0  0  0
  5  4  1  0  0  0  0
  5 10  1  0  0  0  0
  6  2  1  0  0  0  0
  6  5  1  0  0  0  0
  8  4  1  0  0  0  0
 11  5  1  0  0  0  0
 13 12  1  0  0  0  0
 14 13  1  0  0  0  0
 14  6  1  0  0  0  0
 15 14  2  0  0  0  0
 16 15  1  0  0  0  0
 16 22  1  0  0  0  0
 17 16  2  0  0  0  0
 18 17  1  0  0  0  0
 18 19  2  0  0  0  0
 19 21  1  0  0  0  0
 20 19  1  0  0  0  0
 21 22  2  0  0  0  0
 22 13  1  0  0  0  0
 23 17  1  0  0  0  0
 24 23  1  0  0  0  0
 25 23  1  0  0  0  0
 26 37  1  0  0  0  0
 27 38  1  0  0  0  0
 27 32  1  0  0  0  0
 28 27  2  0  0  0  0
 29 28  1  0  0  0  0
 29 30  2  0  0  0  0
 30 31  1  0  0  0  0
 31 32  2  0  0  0  0
 31 33  1  0  0  0  0
 33 34  1  0  0  0  0
 34 40  1  0  0  0  0
 34 41  1  0  0  0  0
 34 35  1  0  0  0  0
 35 43  1  0  0  0  0
 35 42  1  0  0  0  0
 36 45  1  0  0  0  0
 36 44  1  0  0  0  0
 36 35  1  0  0  0  0
 37 46  1  6  0  0  0
 37 33  1  0  0  0  0
 37 36  1  0  0  0  0
 39 29  1  0  0  0  0
 47 49  1  0  0  0  0
 47 28  1  0  0  0  0
 48 47  1  0  0  0  0
M  END
>  <minimizedAffinity>
-6.27635336

>  <minimizedRMSD>
0.57815963

$$$$
