
 OpenBabel03252500253D

 42 45  0  0  1  0  0  0  0  0999 V2000
   46.9150   29.7860   47.7710 C   0  0  2  0  0  0  0  0  0  0  0  0
   45.5140   30.1510   48.0780 C   0  0  2  0  0  0  0  0  0  0  0  0
   44.7370   29.4580   47.0210 C   0  0  0  0  0  0  0  0  0  0  0  0
   45.4400   28.3190   46.6640 O   0  0  0  0  0  0  0  0  0  0  0  0
   46.6680   28.3600   47.2410 C   0  0  0  0  0  0  0  0  0  0  0  0
   47.5190   30.2070   47.0260 H   0  0  0  0  0  0  0  0  0  0  0  0
   45.3370   29.7940   49.1270 H   0  0  0  0  0  0  0  0  0  0  0  0
   43.8360   29.0360   47.5650 H   0  0  0  0  0  0  0  0  0  0  0  0
   44.3120   30.0520   46.2370 H   0  0  0  0  0  0  0  0  0  0  0  0
   46.6370   27.7040   48.1520 H   0  0  0  0  0  0  0  0  0  0  0  0
   47.4710   27.9950   46.6040 H   0  0  0  0  0  0  0  0  0  0  0  0
   45.2720   31.5050   48.1040 O   0  0  0  0  0  0  0  0  0  0  0  0
   47.4310   32.7940   47.5480 O   0  0  0  0  0  0  0  0  0  0  0  0
   46.1660   32.2670   46.9260 P   0  0  1  0  0  0  0  0  0  0  0  0
   46.5760   31.1430   45.7290 O   0  0  0  0  0  0  0  0  0  0  0  0
   46.0380   31.2360   44.9220 H   0  0  0  0  0  0  0  0  0  0  0  0
   45.3310   33.5960   46.2400 O   0  0  0  0  0  0  0  0  0  0  0  0
   45.2010   35.7290   43.3910 C   0  0  0  0  0  0  0  0  0  0  0  0
   46.2920   35.3080   42.5830 C   0  0  0  0  0  0  0  0  0  0  0  0
   47.0650   34.2490   43.0850 C   0  0  0  0  0  0  0  0  0  0  0  0
   46.7330   33.7100   44.2760 N   0  0  0  0  0  0  0  0  0  0  0  0
   45.6820   34.1470   45.0090 C   0  0  0  0  0  0  0  0  0  0  0  0
   44.9320   35.1490   44.5570 N   0  0  0  0  0  0  0  0  0  0  0  0
   46.5490   35.7370   41.6440 H   0  0  0  0  0  0  0  0  0  0  0  0
   47.9090   33.8640   42.5440 H   0  0  0  0  0  0  0  0  0  0  0  0
   44.4350   36.7720   42.9050 O   0  0  0  0  0  0  0  0  0  0  0  0
   44.8780   37.6690   42.7440 H   0  0  0  0  0  0  0  0  0  0  0  0
   47.7260   29.7880   48.8960 O   0  0  0  0  0  0  0  0  0  0  0  0
   48.3060   32.1450   50.1820 H   0  0  0  0  0  0  0  0  0  0  0  0
   49.0310   31.5250   49.7530 N   0  0  0  0  0  0  0  0  0  0  0  0
   48.9500   30.3430   49.0880 C   0  0  0  0  0  0  0  0  0  0  0  0
   50.2050   29.9800   48.7520 N   0  0  0  0  0  0  0  0  0  0  0  0
   51.0910   30.8750   49.1730 C   0  0  0  0  0  0  0  0  0  0  0  0
   52.4650   30.9340   49.0660 C   0  0  0  0  0  0  0  0  0  0  0  0
   53.1020   32.0030   49.6100 N   0  0  0  0  0  0  0  0  0  0  0  0
   52.3800   32.9700   50.2350 C   0  0  0  0  0  0  0  0  0  0  0  0
   52.9240   33.8060   50.6570 H   0  0  0  0  0  0  0  0  0  0  0  0
   51.0410   32.8900   50.3270 N   0  0  0  0  0  0  0  0  0  0  0  0
   50.3470   31.8500   49.8050 C   0  0  0  0  0  0  0  0  0  0  0  0
   53.1740   29.8910   48.3990 N   0  0  0  0  0  0  0  0  0  0  0  0
   53.5040   28.9180   48.6660 H   0  0  0  0  0  0  0  0  0  0  0  0
   53.4460   30.1220   47.3980 H   0  0  0  0  0  0  0  0  0  0  0  0
  1  6  1  6  0  0  0
  1  2  1  0  0  0  0
  1 28  1  0  0  0  0
  2 12  1  0  0  0  0
  2  7  1  1  0  0  0
  3  8  1  0  0  0  0
  3  2  1  0  0  0  0
  4  3  1  0  0  0  0
  4  5  1  0  0  0  0
  5  1  1  0  0  0  0
  5 10  1  0  0  0  0
  9  3  1  0  0  0  0
 11  5  1  0  0  0  0
 14 13  2  1  0  0  0
 14 12  1  0  0  0  0
 15 14  1  0  0  0  0
 16 15  1  0  0  0  0
 17 14  1  0  0  0  0
 18 23  1  0  0  0  0
 19 20  1  0  0  0  0
 19 18  2  0  0  0  0
 20 21  2  0  0  0  0
 21 22  1  0  0  0  0
 22 17  1  0  0  0  0
 23 22  2  0  0  0  0
 24 19  1  0  0  0  0
 25 20  1  0  0  0  0
 26 18  1  0  0  0  0
 27 26  1  0  0  0  0
 28 31  1  0  0  0  0
 30 39  1  0  0  0  0
 30 29  1  0  0  0  0
 31 30  1  0  0  0  0
 32 31  2  0  0  0  0
 32 33  1  0  0  0  0
 33 39  1  0  0  0  0
 34 33  2  0  0  0  0
 34 35  1  0  0  0  0
 35 36  2  0  0  0  0
 36 38  1  0  0  0  0
 36 37  1  0  0  0  0
 39 38  2  0  0  0  0
 40 41  1  0  0  0  0
 40 34  1  0  0  0  0
 42 40  1  0  0  0  0
M  END
>  <minimizedAffinity>
-5.88286543

>  <minimizedRMSD>
0.48448512

$$$$
