
 OpenBabel03252506383D

 49 53  0  0  1  0  0  0  0  0999 V2000
   45.2340   30.5920   43.5520 O   0  0  0  0  0  0  0  0  0  0  0  0
   44.7580   29.9730   44.5180 C   0  0  0  0  0  0  0  0  0  0  0  0
   45.0800   29.6470   45.9310 C   0  0  1  0  0  0  0  0  0  0  0  0
   44.5810   28.2290   46.0420 C   0  0  0  0  0  0  0  0  0  0  0  0
   43.1700   28.4620   45.5020 C   0  0  0  0  0  0  0  0  0  0  0  0
   43.4890   29.3090   44.3590 N   0  0  0  0  0  0  0  0  0  0  0  0
   44.2500   30.2060   46.4460 H   0  0  0  0  0  0  0  0  0  0  0  0
   45.1840   27.6150   45.3520 H   0  0  0  0  0  0  0  0  0  0  0  0
   44.5790   27.8330   47.0690 H   0  0  0  0  0  0  0  0  0  0  0  0
   42.6200   29.0580   46.2300 H   0  0  0  0  0  0  0  0  0  0  0  0
   42.6860   27.5180   45.2060 H   0  0  0  0  0  0  0  0  0  0  0  0
   43.4280   27.7220   42.1120 H   0  0  0  0  0  0  0  0  0  0  0  0
   42.7260   28.4980   42.2380 N   0  0  0  0  0  0  0  0  0  0  0  0
   42.5650   29.3960   43.2510 C   0  0  0  0  0  0  0  0  0  0  0  0
   41.5310   30.2050   42.9810 N   0  0  0  0  0  0  0  0  0  0  0  0
   41.0230   29.8150   41.7770 C   0  0  0  0  0  0  0  0  0  0  0  0
   39.9980   30.2330   40.9830 C   0  0  0  0  0  0  0  0  0  0  0  0
   39.7480   29.6240   39.8200 N   0  0  0  0  0  0  0  0  0  0  0  0
   40.4800   28.5770   39.3630 C   0  0  0  0  0  0  0  0  0  0  0  0
   40.3130   28.0570   38.4300 H   0  0  0  0  0  0  0  0  0  0  0  0
   41.5020   28.1360   40.1180 N   0  0  0  0  0  0  0  0  0  0  0  0
   41.7710   28.7350   41.2940 C   0  0  0  0  0  0  0  0  0  0  0  0
   39.2100   31.3250   41.4290 N   0  0  0  0  0  0  0  0  0  0  0  0
   38.9410   31.3780   42.4400 H   0  0  0  0  0  0  0  0  0  0  0  0
   38.7890   32.1730   40.9620 H   0  0  0  0  0  0  0  0  0  0  0  0
   46.7190   29.9210   46.4610 S   0  0  0  0  0  0  0  0  0  0  0  0
   44.5510   35.4280   45.2140 C   0  0  0  0  0  0  0  0  0  0  0  0
   45.1940   35.4550   43.9580 C   0  0  0  0  0  0  0  0  0  0  0  0
   46.1160   34.5050   43.6620 C   0  0  0  0  0  0  0  0  0  0  0  0
   46.3600   33.5740   44.6160 N   0  0  0  0  0  0  0  0  0  0  0  0
   45.7540   33.5510   45.7940 C   0  0  0  0  0  0  0  0  0  0  0  0
   44.8450   34.4720   46.1100 N   0  0  0  0  0  0  0  0  0  0  0  0
   46.1020   32.5120   46.7270 N   0  0  0  0  0  0  0  0  0  0  0  0
   45.3810   32.2270   47.9130 C   0  0  0  0  0  0  0  0  0  0  0  0
   46.4750   31.8640   48.9030 C   0  0  0  0  0  0  0  0  0  0  0  0
   47.7440   31.7840   48.1120 C   0  0  0  0  0  0  0  0  0  0  0  0
   47.2260   31.6090   46.6860 C   0  0  1  0  0  0  0  0  0  0  0  0
   43.8220   36.1930   45.4260 H   0  0  0  0  0  0  0  0  0  0  0  0
   46.6090   34.5120   42.7230 H   0  0  0  0  0  0  0  0  0  0  0  0
   44.5990   31.5490   48.0130 H   0  0  0  0  0  0  0  0  0  0  0  0
   44.9940   33.2210   48.3010 H   0  0  0  0  0  0  0  0  0  0  0  0
   46.5710   32.5580   49.7440 H   0  0  0  0  0  0  0  0  0  0  0  0
   46.2640   30.8600   49.3690 H   0  0  0  0  0  0  0  0  0  0  0  0
   48.3230   30.9150   48.4410 H   0  0  0  0  0  0  0  0  0  0  0  0
   48.2910   32.7480   48.2300 H   0  0  0  0  0  0  0  0  0  0  0  0
   48.0350   31.9430   46.0080 H   0  0  0  0  0  0  0  0  0  0  0  0
   44.8200   36.5130   43.0580 N   0  0  0  0  0  0  0  0  0  0  0  0
   45.5520   36.7840   42.3390 H   0  0  0  0  0  0  0  0  0  0  0  0
   43.8960   36.9500   43.1410 H   0  0  0  0  0  0  0  0  0  0  0  0
  1  2  2  0  0  0  0
  2  3  1  0  0  0  0
  3  4  1  0  0  0  0
  3  7  1  1  0  0  0
  3 26  1  0  0  0  0
  4  9  1  0  0  0  0
  5  4  1  0  0  0  0
  5 10  1  0  0  0  0
  6  2  1  0  0  0  0
  6  5  1  0  0  0  0
  8  4  1  0  0  0  0
 11  5  1  0  0  0  0
 12 13  1  0  0  0  0
 13 14  1  0  0  0  0
 14  6  1  0  0  0  0
 15 14  2  0  0  0  0
 16 15  1  0  0  0  0
 17 23  1  0  0  0  0
 17 16  2  0  0  0  0
 18 17  1  0  0  0  0
 19 18  2  0  0  0  0
 19 21  1  0  0  0  0
 20 19  1  0  0  0  0
 21 22  2  0  0  0  0
 22 16  1  0  0  0  0
 22 13  1  0  0  0  0
 23 24  1  0  0  0  0
 25 23  1  0  0  0  0
 26 37  1  0  0  0  0
 27 38  1  0  0  0  0
 27 32  1  0  0  0  0
 28 27  2  0  0  0  0
 29 28  1  0  0  0  0
 29 30  2  0  0  0  0
 30 31  1  0  0  0  0
 31 32  2  0  0  0  0
 31 33  1  0  0  0  0
 33 34  1  0  0  0  0
 34 40  1  0  0  0  0
 34 41  1  0  0  0  0
 34 35  1  0  0  0  0
 35 43  1  0  0  0  0
 35 42  1  0  0  0  0
 36 45  1  0  0  0  0
 36 44  1  0  0  0  0
 36 35  1  0  0  0  0
 37 46  1  6  0  0  0
 37 33  1  0  0  0  0
 37 36  1  0  0  0  0
 39 29  1  0  0  0  0
 47 49  1  0  0  0  0
 47 28  1  0  0  0  0
 48 47  1  0  0  0  0
M  END
>  <minimizedAffinity>
-6.01715946

>  <minimizedRMSD>
0.624868631

$$$$
