
 OpenBabel03252500263D

 42 45  0  0  1  0  0  0  0  0999 V2000
   46.9370   30.1820   48.1270 C   0  0  2  0  0  0  0  0  0  0  0  0
   45.4770   30.4220   48.1490 C   0  0  2  0  0  0  0  0  0  0  0  0
   44.9660   29.5480   47.0650 C   0  0  0  0  0  0  0  0  0  0  0  0
   45.8200   28.4610   46.9680 O   0  0  0  0  0  0  0  0  0  0  0  0
   46.9160   28.6910   47.7340 C   0  0  0  0  0  0  0  0  0  0  0  0
   47.6250   30.5890   47.4510 H   0  0  0  0  0  0  0  0  0  0  0  0
   45.1470   30.1550   49.1880 H   0  0  0  0  0  0  0  0  0  0  0  0
   44.0230   29.0870   47.4960 H   0  0  0  0  0  0  0  0  0  0  0  0
   44.6370   30.0110   46.1560 H   0  0  0  0  0  0  0  0  0  0  0  0
   46.7810   28.1300   48.6980 H   0  0  0  0  0  0  0  0  0  0  0  0
   47.8490   28.3540   47.2890 H   0  0  0  0  0  0  0  0  0  0  0  0
   45.1140   31.7380   47.9750 O   0  0  0  0  0  0  0  0  0  0  0  0
   47.3510   32.8780   47.4000 O   0  0  0  0  0  0  0  0  0  0  0  0
   46.0490   32.4350   46.7890 P   0  0  1  0  0  0  0  0  0  0  0  0
   46.3740   31.2820   45.5930 O   0  0  0  0  0  0  0  0  0  0  0  0
   45.8380   31.4080   44.7890 H   0  0  0  0  0  0  0  0  0  0  0  0
   45.3000   33.8140   46.1030 O   0  0  0  0  0  0  0  0  0  0  0  0
   45.1980   35.8510   43.1840 C   0  0  0  0  0  0  0  0  0  0  0  0
   46.2930   35.3980   42.3980 C   0  0  0  0  0  0  0  0  0  0  0  0
   47.0580   34.3540   42.9400 C   0  0  0  0  0  0  0  0  0  0  0  0
   46.7150   33.8560   44.1460 N   0  0  0  0  0  0  0  0  0  0  0  0
   45.6610   34.3220   44.8570 C   0  0  0  0  0  0  0  0  0  0  0  0
   44.9190   35.3120   44.3670 N   0  0  0  0  0  0  0  0  0  0  0  0
   46.5580   35.7950   41.4460 H   0  0  0  0  0  0  0  0  0  0  0  0
   47.9040   33.9470   42.4180 H   0  0  0  0  0  0  0  0  0  0  0  0
   44.4400   36.8800   42.6580 O   0  0  0  0  0  0  0  0  0  0  0  0
   44.8890   37.7690   42.4690 H   0  0  0  0  0  0  0  0  0  0  0  0
   47.5290   30.3840   49.3640 O   0  0  0  0  0  0  0  0  0  0  0  0
   49.4180   28.5760   50.2090 H   0  0  0  0  0  0  0  0  0  0  0  0
   49.6080   29.5970   50.0800 N   0  0  0  0  0  0  0  0  0  0  0  0
   48.8260   30.6320   49.6800 C   0  0  0  0  0  0  0  0  0  0  0  0
   49.5890   31.7460   49.6950 N   0  0  0  0  0  0  0  0  0  0  0  0
   50.8280   31.4720   50.0860 C   0  0  0  0  0  0  0  0  0  0  0  0
   51.9410   32.2700   50.2530 C   0  0  0  0  0  0  0  0  0  0  0  0
   53.0900   31.6830   50.6750 N   0  0  0  0  0  0  0  0  0  0  0  0
   53.1120   30.3460   50.9180 C   0  0  0  0  0  0  0  0  0  0  0  0
   54.0470   29.9160   51.2530 H   0  0  0  0  0  0  0  0  0  0  0  0
   52.0140   29.5880   50.7480 N   0  0  0  0  0  0  0  0  0  0  0  0
   50.8370   30.1140   50.3290 C   0  0  0  0  0  0  0  0  0  0  0  0
   51.8610   33.6690   49.9830 N   0  0  0  0  0  0  0  0  0  0  0  0
   51.8930   34.2670   49.1060 H   0  0  0  0  0  0  0  0  0  0  0  0
   51.7420   34.2710   50.8490 H   0  0  0  0  0  0  0  0  0  0  0  0
  1  6  1  6  0  0  0
  1  2  1  0  0  0  0
  1 28  1  0  0  0  0
  2  7  1  1  0  0  0
  3  8  1  0  0  0  0
  3  2  1  0  0  0  0
  4  3  1  0  0  0  0
  4  5  1  0  0  0  0
  5  1  1  0  0  0  0
  5 10  1  0  0  0  0
  9  3  1  0  0  0  0
 11  5  1  0  0  0  0
 12  2  1  0  0  0  0
 14 13  2  1  0  0  0
 14 12  1  0  0  0  0
 15 14  1  0  0  0  0
 16 15  1  0  0  0  0
 17 14  1  0  0  0  0
 18 23  1  0  0  0  0
 19 20  1  0  0  0  0
 19 18  2  0  0  0  0
 20 21  2  0  0  0  0
 21 22  1  0  0  0  0
 22 17  1  0  0  0  0
 23 22  2  0  0  0  0
 24 19  1  0  0  0  0
 25 20  1  0  0  0  0
 26 18  1  0  0  0  0
 27 26  1  0  0  0  0
 28 31  1  0  0  0  0
 30 29  1  0  0  0  0
 30 39  1  0  0  0  0
 31 32  2  0  0  0  0
 31 30  1  0  0  0  0
 32 33  1  0  0  0  0
 33 34  2  0  0  0  0
 33 39  1  0  0  0  0
 34 35  1  0  0  0  0
 35 36  2  0  0  0  0
 36 37  1  0  0  0  0
 38 36  1  0  0  0  0
 39 38  2  0  0  0  0
 40 34  1  0  0  0  0
 40 42  1  0  0  0  0
 41 40  1  0  0  0  0
M  END
>  <minimizedAffinity>
-5.98714161

>  <minimizedRMSD>
0.445690572

$$$$
