
 OpenBabel03252506383D

 49 53  0  0  1  0  0  0  0  0999 V2000
   45.2690   30.5750   43.5660 O   0  0  0  0  0  0  0  0  0  0  0  0
   44.8010   29.9650   44.5410 C   0  0  0  0  0  0  0  0  0  0  0  0
   45.1270   29.6640   45.9580 C   0  0  1  0  0  0  0  0  0  0  0  0
   44.6430   28.2410   46.0910 C   0  0  0  0  0  0  0  0  0  0  0  0
   43.2300   28.4510   45.5470 C   0  0  0  0  0  0  0  0  0  0  0  0
   43.5390   29.2840   44.3930 N   0  0  0  0  0  0  0  0  0  0  0  0
   44.2910   30.2210   46.4650 H   0  0  0  0  0  0  0  0  0  0  0  0
   45.2530   27.6240   45.4100 H   0  0  0  0  0  0  0  0  0  0  0  0
   44.6460   27.8610   47.1230 H   0  0  0  0  0  0  0  0  0  0  0  0
   42.6740   29.0520   46.2670 H   0  0  0  0  0  0  0  0  0  0  0  0
   42.7560   27.4970   45.2650 H   0  0  0  0  0  0  0  0  0  0  0  0
   41.8300   31.3450   43.7580 H   0  0  0  0  0  0  0  0  0  0  0  0
   41.8610   30.4740   43.1640 N   0  0  0  0  0  0  0  0  0  0  0  0
   42.6140   29.3450   43.2830 C   0  0  0  0  0  0  0  0  0  0  0  0
   42.3150   28.4930   42.2920 N   0  0  0  0  0  0  0  0  0  0  0  0
   41.3540   29.0910   41.5300 C   0  0  0  0  0  0  0  0  0  0  0  0
   40.6580   28.7440   40.4100 C   0  0  0  0  0  0  0  0  0  0  0  0
   39.7550   29.5780   39.8890 N   0  0  0  0  0  0  0  0  0  0  0  0
   39.4750   30.7920   40.4220 C   0  0  0  0  0  0  0  0  0  0  0  0
   38.7520   31.4970   40.0320 H   0  0  0  0  0  0  0  0  0  0  0  0
   40.1420   31.1710   41.5270 N   0  0  0  0  0  0  0  0  0  0  0  0
   41.0570   30.3470   42.0700 C   0  0  0  0  0  0  0  0  0  0  0  0
   40.9250   27.4790   39.8250 N   0  0  0  0  0  0  0  0  0  0  0  0
   41.9150   27.1470   39.7630 H   0  0  0  0  0  0  0  0  0  0  0  0
   40.3260   26.7210   39.3980 H   0  0  0  0  0  0  0  0  0  0  0  0
   46.7630   29.9630   46.4840 S   0  0  0  0  0  0  0  0  0  0  0  0
   44.5380   35.4360   45.1850 C   0  0  0  0  0  0  0  0  0  0  0  0
   45.2010   35.4680   43.9390 C   0  0  0  0  0  0  0  0  0  0  0  0
   46.1400   34.5310   43.6620 C   0  0  0  0  0  0  0  0  0  0  0  0
   46.3820   33.6060   44.6220 N   0  0  0  0  0  0  0  0  0  0  0  0
   45.7570   33.5780   45.7900 C   0  0  0  0  0  0  0  0  0  0  0  0
   44.8300   34.4870   46.0890 N   0  0  0  0  0  0  0  0  0  0  0  0
   46.1040   32.5460   46.7310 N   0  0  0  0  0  0  0  0  0  0  0  0
   45.3690   32.2540   47.9070 C   0  0  0  0  0  0  0  0  0  0  0  0
   46.4510   31.9100   48.9150 C   0  0  0  0  0  0  0  0  0  0  0  0
   47.7340   31.8460   48.1460 C   0  0  0  0  0  0  0  0  0  0  0  0
   47.2420   31.6590   46.7110 C   0  0  1  0  0  0  0  0  0  0  0  0
   43.7940   36.1910   45.3830 H   0  0  0  0  0  0  0  0  0  0  0  0
   46.6480   34.5420   42.7300 H   0  0  0  0  0  0  0  0  0  0  0  0
   44.5950   31.5660   47.9960 H   0  0  0  0  0  0  0  0  0  0  0  0
   44.9610   33.2440   48.2850 H   0  0  0  0  0  0  0  0  0  0  0  0
   46.5230   32.6070   49.7560 H   0  0  0  0  0  0  0  0  0  0  0  0
   46.2470   30.9040   49.3810 H   0  0  0  0  0  0  0  0  0  0  0  0
   48.3200   30.9850   48.4860 H   0  0  0  0  0  0  0  0  0  0  0  0
   48.2660   32.8180   48.2690 H   0  0  0  0  0  0  0  0  0  0  0  0
   48.0570   32.0020   46.0460 H   0  0  0  0  0  0  0  0  0  0  0  0
   44.8260   36.5190   43.0300 N   0  0  0  0  0  0  0  0  0  0  0  0
   45.5660   36.7980   42.3220 H   0  0  0  0  0  0  0  0  0  0  0  0
   43.8940   36.9430   43.0970 H   0  0  0  0  0  0  0  0  0  0  0  0
  1  2  2  0  0  0  0
  2  3  1  0  0  0  0
  3  4  1  0  0  0  0
  3  7  1  1  0  0  0
  3 26  1  0  0  0  0
  4  9  1  0  0  0  0
  5  4  1  0  0  0  0
  5 10  1  0  0  0  0
  6  2  1  0  0  0  0
  6  5  1  0  0  0  0
  8  4  1  0  0  0  0
 11  5  1  0  0  0  0
 13 14  1  0  0  0  0
 13 12  1  0  0  0  0
 14  6  1  0  0  0  0
 15 14  2  0  0  0  0
 16 22  1  0  0  0  0
 16 15  1  0  0  0  0
 17 16  2  0  0  0  0
 18 17  1  0  0  0  0
 18 19  2  0  0  0  0
 19 21  1  0  0  0  0
 20 19  1  0  0  0  0
 21 22  2  0  0  0  0
 22 13  1  0  0  0  0
 23 17  1  0  0  0  0
 24 23  1  0  0  0  0
 25 23  1  0  0  0  0
 26 37  1  0  0  0  0
 27 38  1  0  0  0  0
 27 32  1  0  0  0  0
 28 27  2  0  0  0  0
 29 28  1  0  0  0  0
 29 30  2  0  0  0  0
 30 31  1  0  0  0  0
 31 32  2  0  0  0  0
 31 33  1  0  0  0  0
 33 34  1  0  0  0  0
 34 40  1  0  0  0  0
 34 41  1  0  0  0  0
 34 35  1  0  0  0  0
 35 43  1  0  0  0  0
 35 42  1  0  0  0  0
 36 45  1  0  0  0  0
 36 44  1  0  0  0  0
 36 35  1  0  0  0  0
 37 46  1  6  0  0  0
 37 33  1  0  0  0  0
 37 36  1  0  0  0  0
 39 29  1  0  0  0  0
 47 49  1  0  0  0  0
 47 28  1  0  0  0  0
 48 47  1  0  0  0  0
M  END
>  <minimizedAffinity>
-6.28582573

>  <minimizedRMSD>
0.604532897

$$$$
