
 OpenBabel03252506383D

 49 53  0  0  1  0  0  0  0  0999 V2000
   45.5500   30.5370   43.4680 O   0  0  0  0  0  0  0  0  0  0  0  0
   44.9550   29.9810   44.4060 C   0  0  0  0  0  0  0  0  0  0  0  0
   45.1050   29.7370   45.8630 C   0  0  1  0  0  0  0  0  0  0  0  0
   44.5740   28.3320   45.9970 C   0  0  0  0  0  0  0  0  0  0  0  0
   43.2390   28.5450   45.2820 C   0  0  0  0  0  0  0  0  0  0  0  0
   43.7030   29.3200   44.1380 N   0  0  0  0  0  0  0  0  0  0  0  0
   44.2300   30.3320   46.2430 H   0  0  0  0  0  0  0  0  0  0  0  0
   45.2440   27.6730   45.4190 H   0  0  0  0  0  0  0  0  0  0  0  0
   44.4460   27.9980   47.0370 H   0  0  0  0  0  0  0  0  0  0  0  0
   42.6180   29.1880   45.9050 H   0  0  0  0  0  0  0  0  0  0  0  0
   42.7780   27.5890   44.9860 H   0  0  0  0  0  0  0  0  0  0  0  0
   44.6210   29.6170   41.5610 H   0  0  0  0  0  0  0  0  0  0  0  0
   43.5900   29.5080   41.7520 N   0  0  0  0  0  0  0  0  0  0  0  0
   42.9160   29.3490   42.9250 C   0  0  0  0  0  0  0  0  0  0  0  0
   41.6010   29.2500   42.6840 N   0  0  0  0  0  0  0  0  0  0  0  0
   41.4350   29.3470   41.3330 C   0  0  0  0  0  0  0  0  0  0  0  0
   40.3660   29.3210   40.4890 C   0  0  0  0  0  0  0  0  0  0  0  0
   40.5390   29.4460   39.1710 N   0  0  0  0  0  0  0  0  0  0  0  0
   41.7570   29.6040   38.5980 C   0  0  0  0  0  0  0  0  0  0  0  0
   41.9420   29.7090   37.5380 H   0  0  0  0  0  0  0  0  0  0  0  0
   42.8390   29.6360   39.3980 N   0  0  0  0  0  0  0  0  0  0  0  0
   42.6880   29.5110   40.7300 C   0  0  0  0  0  0  0  0  0  0  0  0
   39.0740   29.1560   41.0540 N   0  0  0  0  0  0  0  0  0  0  0  0
   38.9460   28.4730   41.8360 H   0  0  0  0  0  0  0  0  0  0  0  0
   38.1270   29.5850   40.8710 H   0  0  0  0  0  0  0  0  0  0  0  0
   46.6750   30.0260   46.5650 S   0  0  0  0  0  0  0  0  0  0  0  0
   44.5200   35.4970   45.1470 C   0  0  0  0  0  0  0  0  0  0  0  0
   45.1790   35.4920   43.9000 C   0  0  0  0  0  0  0  0  0  0  0  0
   46.1050   34.5370   43.6410 C   0  0  0  0  0  0  0  0  0  0  0  0
   46.3380   33.6310   44.6210 N   0  0  0  0  0  0  0  0  0  0  0  0
   45.7160   33.6370   45.7910 C   0  0  0  0  0  0  0  0  0  0  0  0
   44.8020   34.5650   46.0720 N   0  0  0  0  0  0  0  0  0  0  0  0
   46.0520   32.6230   46.7550 N   0  0  0  0  0  0  0  0  0  0  0  0
   45.3170   32.3670   47.9390 C   0  0  0  0  0  0  0  0  0  0  0  0
   46.3980   32.0320   48.9520 C   0  0  0  0  0  0  0  0  0  0  0  0
   47.6770   31.9330   48.1800 C   0  0  0  0  0  0  0  0  0  0  0  0
   47.1780   31.7200   46.7520 C   0  0  1  0  0  0  0  0  0  0  0  0
   43.7870   36.2670   45.3300 H   0  0  0  0  0  0  0  0  0  0  0  0
   46.6110   34.5200   42.7080 H   0  0  0  0  0  0  0  0  0  0  0  0
   44.5340   31.6920   48.0460 H   0  0  0  0  0  0  0  0  0  0  0  0
   44.9240   33.3710   48.2960 H   0  0  0  0  0  0  0  0  0  0  0  0
   46.4820   32.7470   49.7760 H   0  0  0  0  0  0  0  0  0  0  0  0
   46.1810   31.0400   49.4400 H   0  0  0  0  0  0  0  0  0  0  0  0
   48.2520   31.0730   48.5390 H   0  0  0  0  0  0  0  0  0  0  0  0
   48.2220   32.9000   48.2800 H   0  0  0  0  0  0  0  0  0  0  0  0
   47.9960   32.0370   46.0770 H   0  0  0  0  0  0  0  0  0  0  0  0
   44.8160   36.5270   42.9680 N   0  0  0  0  0  0  0  0  0  0  0  0
   45.5570   36.7790   42.2520 H   0  0  0  0  0  0  0  0  0  0  0  0
   43.8900   36.9640   43.0280 H   0  0  0  0  0  0  0  0  0  0  0  0
  1  2  2  0  0  0  0
  2  3  1  0  0  0  0
  3  4  1  0  0  0  0
  3  7  1  1  0  0  0
  3 26  1  0  0  0  0
  4  9  1  0  0  0  0
  5 10  1  0  0  0  0
  5  4  1  0  0  0  0
  6  2  1  0  0  0  0
  6  5  1  0  0  0  0
  8  4  1  0  0  0  0
 11  5  1  0  0  0  0
 12 13  1  0  0  0  0
 13 14  1  0  0  0  0
 14  6  1  0  0  0  0
 15 14  2  0  0  0  0
 16 15  1  0  0  0  0
 17 23  1  0  0  0  0
 17 16  2  0  0  0  0
 18 17  1  0  0  0  0
 19 18  2  0  0  0  0
 19 21  1  0  0  0  0
 20 19  1  0  0  0  0
 21 22  2  0  0  0  0
 22 16  1  0  0  0  0
 22 13  1  0  0  0  0
 23 24  1  0  0  0  0
 25 23  1  0  0  0  0
 26 37  1  0  0  0  0
 27 38  1  0  0  0  0
 27 32  1  0  0  0  0
 28 27  2  0  0  0  0
 29 28  1  0  0  0  0
 29 30  2  0  0  0  0
 30 31  1  0  0  0  0
 31 32  2  0  0  0  0
 31 33  1  0  0  0  0
 33 34  1  0  0  0  0
 34 40  1  0  0  0  0
 34 41  1  0  0  0  0
 34 35  1  0  0  0  0
 35 43  1  0  0  0  0
 35 42  1  0  0  0  0
 36 45  1  0  0  0  0
 36 44  1  0  0  0  0
 36 35  1  0  0  0  0
 37 46  1  6  0  0  0
 37 33  1  0  0  0  0
 37 36  1  0  0  0  0
 39 29  1  0  0  0  0
 47 49  1  0  0  0  0
 47 28  1  0  0  0  0
 48 47  1  0  0  0  0
M  END
>  <minimizedAffinity>
-5.80786705

>  <minimizedRMSD>
0.138026744

$$$$
