
 OpenBabel03252500253D

 42 45  0  0  1  0  0  0  0  0999 V2000
   46.9020   29.9000   47.8970 C   0  0  2  0  0  0  0  0  0  0  0  0
   45.4720   30.2330   48.0860 C   0  0  2  0  0  0  0  0  0  0  0  0
   44.7970   29.4890   46.9940 C   0  0  0  0  0  0  0  0  0  0  0  0
   45.5540   28.3610   46.7260 O   0  0  0  0  0  0  0  0  0  0  0  0
   46.7330   28.4520   47.3940 C   0  0  0  0  0  0  0  0  0  0  0  0
   47.5500   30.3160   47.1890 H   0  0  0  0  0  0  0  0  0  0  0  0
   45.2240   29.9010   49.1290 H   0  0  0  0  0  0  0  0  0  0  0  0
   43.8680   29.0580   47.4810 H   0  0  0  0  0  0  0  0  0  0  0  0
   44.4180   30.0490   46.1620 H   0  0  0  0  0  0  0  0  0  0  0  0
   46.6490   27.8220   48.3190 H   0  0  0  0  0  0  0  0  0  0  0  0
   47.5920   28.0930   46.8310 H   0  0  0  0  0  0  0  0  0  0  0  0
   45.1930   31.5800   48.0520 O   0  0  0  0  0  0  0  0  0  0  0  0
   47.3910   32.8110   47.5130 O   0  0  0  0  0  0  0  0  0  0  0  0
   46.1140   32.3240   46.8830 P   0  0  1  0  0  0  0  0  0  0  0  0
   46.4970   31.1960   45.6810 O   0  0  0  0  0  0  0  0  0  0  0  0
   45.9660   31.3090   44.8720 H   0  0  0  0  0  0  0  0  0  0  0  0
   45.3190   33.6790   46.2010 O   0  0  0  0  0  0  0  0  0  0  0  0
   45.2040   35.7780   43.3260 C   0  0  0  0  0  0  0  0  0  0  0  0
   46.2880   35.3330   42.5200 C   0  0  0  0  0  0  0  0  0  0  0  0
   47.0500   34.2720   43.0330 C   0  0  0  0  0  0  0  0  0  0  0  0
   46.7150   33.7520   44.2310 N   0  0  0  0  0  0  0  0  0  0  0  0
   45.6720   34.2110   44.9620 C   0  0  0  0  0  0  0  0  0  0  0  0
   44.9330   35.2160   44.5000 N   0  0  0  0  0  0  0  0  0  0  0  0
   46.5470   35.7480   41.5740 H   0  0  0  0  0  0  0  0  0  0  0  0
   47.8870   33.8690   42.4930 H   0  0  0  0  0  0  0  0  0  0  0  0
   44.4490   36.8230   42.8290 O   0  0  0  0  0  0  0  0  0  0  0  0
   44.9030   37.7130   42.6550 H   0  0  0  0  0  0  0  0  0  0  0  0
   47.6230   29.9560   49.0800 O   0  0  0  0  0  0  0  0  0  0  0  0
   48.4010   32.5300   49.6460 H   0  0  0  0  0  0  0  0  0  0  0  0
   49.0650   31.7240   49.5770 N   0  0  0  0  0  0  0  0  0  0  0  0
   48.8830   30.4040   49.3130 C   0  0  0  0  0  0  0  0  0  0  0  0
   50.0950   29.8130   49.3480 N   0  0  0  0  0  0  0  0  0  0  0  0
   51.0490   30.6950   49.6230 C   0  0  0  0  0  0  0  0  0  0  0  0
   52.4160   30.5620   49.7620 C   0  0  0  0  0  0  0  0  0  0  0  0
   53.1380   31.6750   50.0520 N   0  0  0  0  0  0  0  0  0  0  0  0
   52.5070   32.8690   50.1970 C   0  0  0  0  0  0  0  0  0  0  0  0
   53.1180   33.7320   50.4280 H   0  0  0  0  0  0  0  0  0  0  0  0
   51.1730   32.9730   50.0570 N   0  0  0  0  0  0  0  0  0  0  0  0
   50.3960   31.9020   49.7670 C   0  0  0  0  0  0  0  0  0  0  0  0
   53.0290   29.2830   49.5990 N   0  0  0  0  0  0  0  0  0  0  0  0
   53.1520   28.4280   50.2150 H   0  0  0  0  0  0  0  0  0  0  0  0
   53.4710   29.1320   48.6460 H   0  0  0  0  0  0  0  0  0  0  0  0
  1  6  1  6  0  0  0
  1  2  1  0  0  0  0
  1 28  1  0  0  0  0
  2  7  1  1  0  0  0
  3  8  1  0  0  0  0
  3  2  1  0  0  0  0
  4  3  1  0  0  0  0
  4  5  1  0  0  0  0
  5  1  1  0  0  0  0
  5 10  1  0  0  0  0
  9  3  1  0  0  0  0
 11  5  1  0  0  0  0
 12  2  1  0  0  0  0
 14 13  2  1  0  0  0
 14 12  1  0  0  0  0
 15 14  1  0  0  0  0
 16 15  1  0  0  0  0
 17 14  1  0  0  0  0
 18 23  1  0  0  0  0
 19 20  1  0  0  0  0
 19 18  2  0  0  0  0
 20 21  2  0  0  0  0
 21 22  1  0  0  0  0
 22 17  1  0  0  0  0
 23 22  2  0  0  0  0
 24 19  1  0  0  0  0
 25 20  1  0  0  0  0
 26 18  1  0  0  0  0
 27 26  1  0  0  0  0
 28 31  1  0  0  0  0
 30 29  1  0  0  0  0
 30 39  1  0  0  0  0
 31 32  2  0  0  0  0
 31 30  1  0  0  0  0
 32 33  1  0  0  0  0
 33 34  2  0  0  0  0
 33 39  1  0  0  0  0
 34 35  1  0  0  0  0
 35 36  2  0  0  0  0
 36 37  1  0  0  0  0
 38 36  1  0  0  0  0
 39 38  2  0  0  0  0
 40 34  1  0  0  0  0
 40 41  1  0  0  0  0
 42 40  1  0  0  0  0
M  END
>  <minimizedAffinity>
-5.81078911

>  <minimizedRMSD>
0.309553564

$$$$
