
 OpenBabel03252506383D

 49 53  0  0  1  0  0  0  0  0999 V2000
   45.5870   30.5910   43.4640 O   0  0  0  0  0  0  0  0  0  0  0  0
   44.9830   30.0140   44.3820 C   0  0  0  0  0  0  0  0  0  0  0  0
   45.1120   29.7450   45.8370 C   0  0  1  0  0  0  0  0  0  0  0  0
   44.5910   28.3330   45.9380 C   0  0  0  0  0  0  0  0  0  0  0  0
   43.2660   28.5480   45.2060 C   0  0  0  0  0  0  0  0  0  0  0  0
   43.7410   29.3460   44.0830 N   0  0  0  0  0  0  0  0  0  0  0  0
   44.2260   30.3270   46.2140 H   0  0  0  0  0  0  0  0  0  0  0  0
   45.2760   27.6900   45.3600 H   0  0  0  0  0  0  0  0  0  0  0  0
   44.4510   27.9800   46.9710 H   0  0  0  0  0  0  0  0  0  0  0  0
   42.6300   29.1750   45.8310 H   0  0  0  0  0  0  0  0  0  0  0  0
   42.8190   27.5930   44.8870 H   0  0  0  0  0  0  0  0  0  0  0  0
   44.0020   31.1410   42.0150 H   0  0  0  0  0  0  0  0  0  0  0  0
   43.2780   30.3750   41.9700 N   0  0  0  0  0  0  0  0  0  0  0  0
   42.9730   29.3900   42.8590 C   0  0  0  0  0  0  0  0  0  0  0  0
   41.9720   28.6370   42.3770 N   0  0  0  0  0  0  0  0  0  0  0  0
   41.6370   29.1540   41.1600 C   0  0  0  0  0  0  0  0  0  0  0  0
   40.7210   28.8420   40.2010 C   0  0  0  0  0  0  0  0  0  0  0  0
   40.6380   29.5650   39.0820 N   0  0  0  0  0  0  0  0  0  0  0  0
   41.4370   30.6300   38.8300 C   0  0  0  0  0  0  0  0  0  0  0  0
   41.4030   31.2430   37.9390 H   0  0  0  0  0  0  0  0  0  0  0  0
   42.3550   30.9700   39.7530 N   0  0  0  0  0  0  0  0  0  0  0  0
   42.4560   30.2550   40.8890 C   0  0  0  0  0  0  0  0  0  0  0  0
   39.8660   27.7310   40.4300 N   0  0  0  0  0  0  0  0  0  0  0  0
   40.2660   26.8640   40.8570 H   0  0  0  0  0  0  0  0  0  0  0  0
   38.8410   27.5410   40.2660 H   0  0  0  0  0  0  0  0  0  0  0  0
   46.6680   30.0360   46.5690 S   0  0  0  0  0  0  0  0  0  0  0  0
   44.5170   35.5060   45.1390 C   0  0  0  0  0  0  0  0  0  0  0  0
   45.1790   35.4990   43.8930 C   0  0  0  0  0  0  0  0  0  0  0  0
   46.1060   34.5430   43.6380 C   0  0  0  0  0  0  0  0  0  0  0  0
   46.3360   33.6380   44.6190 N   0  0  0  0  0  0  0  0  0  0  0  0
   45.7120   33.6460   45.7880 C   0  0  0  0  0  0  0  0  0  0  0  0
   44.7970   34.5750   46.0650 N   0  0  0  0  0  0  0  0  0  0  0  0
   46.0460   32.6330   46.7540 N   0  0  0  0  0  0  0  0  0  0  0  0
   45.3070   32.3790   47.9370 C   0  0  0  0  0  0  0  0  0  0  0  0
   46.3860   32.0450   48.9520 C   0  0  0  0  0  0  0  0  0  0  0  0
   47.6670   31.9450   48.1840 C   0  0  0  0  0  0  0  0  0  0  0  0
   47.1710   31.7300   46.7550 C   0  0  1  0  0  0  0  0  0  0  0  0
   43.7840   36.2750   45.3190 H   0  0  0  0  0  0  0  0  0  0  0  0
   46.6140   34.5240   42.7060 H   0  0  0  0  0  0  0  0  0  0  0  0
   44.5240   31.7040   48.0430 H   0  0  0  0  0  0  0  0  0  0  0  0
   44.9130   33.3830   48.2910 H   0  0  0  0  0  0  0  0  0  0  0  0
   46.4680   32.7610   49.7760 H   0  0  0  0  0  0  0  0  0  0  0  0
   46.1680   31.0530   49.4420 H   0  0  0  0  0  0  0  0  0  0  0  0
   48.2410   31.0850   48.5450 H   0  0  0  0  0  0  0  0  0  0  0  0
   48.2120   32.9120   48.2840 H   0  0  0  0  0  0  0  0  0  0  0  0
   47.9900   32.0460   46.0810 H   0  0  0  0  0  0  0  0  0  0  0  0
   44.8190   36.5320   42.9590 N   0  0  0  0  0  0  0  0  0  0  0  0
   45.5610   36.7840   42.2440 H   0  0  0  0  0  0  0  0  0  0  0  0
   43.8930   36.9700   43.0160 H   0  0  0  0  0  0  0  0  0  0  0  0
  1  2  2  0  0  0  0
  2  3  1  0  0  0  0
  3  4  1  0  0  0  0
  3  7  1  1  0  0  0
  3 26  1  0  0  0  0
  4  9  1  0  0  0  0
  5 10  1  0  0  0  0
  5  4  1  0  0  0  0
  6  2  1  0  0  0  0
  6  5  1  0  0  0  0
  8  4  1  0  0  0  0
 11  5  1  0  0  0  0
 13 12  1  0  0  0  0
 13 14  1  0  0  0  0
 14  6  1  0  0  0  0
 15 14  2  0  0  0  0
 16 15  1  0  0  0  0
 17 23  1  0  0  0  0
 17 16  2  0  0  0  0
 18 17  1  0  0  0  0
 19 18  2  0  0  0  0
 19 21  1  0  0  0  0
 20 19  1  0  0  0  0
 21 22  2  0  0  0  0
 22 16  1  0  0  0  0
 22 13  1  0  0  0  0
 23 24  1  0  0  0  0
 25 23  1  0  0  0  0
 26 37  1  0  0  0  0
 27 38  1  0  0  0  0
 27 32  1  0  0  0  0
 28 27  2  0  0  0  0
 29 28  1  0  0  0  0
 29 30  2  0  0  0  0
 30 31  1  0  0  0  0
 31 32  2  0  0  0  0
 31 33  1  0  0  0  0
 33 37  1  0  0  0  0
 33 34  1  0  0  0  0
 34 40  1  0  0  0  0
 34 41  1  0  0  0  0
 34 35  1  0  0  0  0
 35 43  1  0  0  0  0
 35 42  1  0  0  0  0
 36 45  1  0  0  0  0
 36 44  1  0  0  0  0
 36 35  1  0  0  0  0
 37 46  1  6  0  0  0
 37 36  1  0  0  0  0
 39 29  1  0  0  0  0
 47 49  1  0  0  0  0
 47 28  1  0  0  0  0
 48 47  1  0  0  0  0
M  END
>  <minimizedAffinity>
-5.78954744

>  <minimizedRMSD>
0.114889346

$$$$
