
 OpenBabel03252506383D

 49 53  0  0  1  0  0  0  0  0999 V2000
   45.2830   30.6090   43.5690 O   0  0  0  0  0  0  0  0  0  0  0  0
   44.8040   29.9880   44.5310 C   0  0  0  0  0  0  0  0  0  0  0  0
   45.1130   29.6700   45.9480 C   0  0  1  0  0  0  0  0  0  0  0  0
   44.6290   28.2460   46.0580 C   0  0  0  0  0  0  0  0  0  0  0  0
   43.2210   28.4620   45.5010 C   0  0  0  0  0  0  0  0  0  0  0  0
   43.5440   29.3080   44.3600 N   0  0  0  0  0  0  0  0  0  0  0  0
   44.2720   30.2200   46.4520 H   0  0  0  0  0  0  0  0  0  0  0  0
   45.2470   27.6370   45.3770 H   0  0  0  0  0  0  0  0  0  0  0  0
   44.6200   27.8530   47.0860 H   0  0  0  0  0  0  0  0  0  0  0  0
   42.6570   29.0540   46.2220 H   0  0  0  0  0  0  0  0  0  0  0  0
   42.7510   27.5110   45.2020 H   0  0  0  0  0  0  0  0  0  0  0  0
   42.7140   27.2400   42.7480 H   0  0  0  0  0  0  0  0  0  0  0  0
   42.3630   28.2200   42.5820 N   0  0  0  0  0  0  0  0  0  0  0  0
   42.6320   29.3820   43.2410 C   0  0  0  0  0  0  0  0  0  0  0  0
   41.9540   30.3920   42.6760 N   0  0  0  0  0  0  0  0  0  0  0  0
   41.2420   29.8610   41.6400 C   0  0  0  0  0  0  0  0  0  0  0  0
   40.3840   30.3600   40.7060 C   0  0  0  0  0  0  0  0  0  0  0  0
   39.8330   29.5570   39.7930 N   0  0  0  0  0  0  0  0  0  0  0  0
   40.0820   28.2260   39.7340 C   0  0  0  0  0  0  0  0  0  0  0  0
   39.6570   27.5400   39.0140 H   0  0  0  0  0  0  0  0  0  0  0  0
   40.9250   27.6950   40.6390 N   0  0  0  0  0  0  0  0  0  0  0  0
   41.4920   28.4870   41.5670 C   0  0  0  0  0  0  0  0  0  0  0  0
   40.0980   31.7510   40.7370 N   0  0  0  0  0  0  0  0  0  0  0  0
   39.9540   32.2190   41.6620 H   0  0  0  0  0  0  0  0  0  0  0  0
   39.9870   32.5000   40.0000 H   0  0  0  0  0  0  0  0  0  0  0  0
   46.7430   29.9630   46.4960 S   0  0  0  0  0  0  0  0  0  0  0  0
   44.5370   35.4400   45.1840 C   0  0  0  0  0  0  0  0  0  0  0  0
   45.1950   35.4640   43.9360 C   0  0  0  0  0  0  0  0  0  0  0  0
   46.1300   34.5220   43.6580 C   0  0  0  0  0  0  0  0  0  0  0  0
   46.3720   33.6000   44.6210 N   0  0  0  0  0  0  0  0  0  0  0  0
   45.7510   33.5790   45.7920 C   0  0  0  0  0  0  0  0  0  0  0  0
   44.8280   34.4930   46.0900 N   0  0  0  0  0  0  0  0  0  0  0  0
   46.0970   32.5490   46.7360 N   0  0  0  0  0  0  0  0  0  0  0  0
   45.3640   32.2650   47.9150 C   0  0  0  0  0  0  0  0  0  0  0  0
   46.4490   31.9200   48.9210 C   0  0  0  0  0  0  0  0  0  0  0  0
   47.7290   31.8480   48.1470 C   0  0  0  0  0  0  0  0  0  0  0  0
   47.2300   31.6570   46.7150 C   0  0  1  0  0  0  0  0  0  0  0  0
   43.7970   36.1990   45.3810 H   0  0  0  0  0  0  0  0  0  0  0  0
   46.6350   34.5270   42.7250 H   0  0  0  0  0  0  0  0  0  0  0  0
   44.5870   31.5810   48.0100 H   0  0  0  0  0  0  0  0  0  0  0  0
   44.9620   33.2580   48.2910 H   0  0  0  0  0  0  0  0  0  0  0  0
   46.5270   32.6200   49.7590 H   0  0  0  0  0  0  0  0  0  0  0  0
   46.2420   30.9170   49.3910 H   0  0  0  0  0  0  0  0  0  0  0  0
   48.3120   30.9860   48.4890 H   0  0  0  0  0  0  0  0  0  0  0  0
   48.2650   32.8180   48.2650 H   0  0  0  0  0  0  0  0  0  0  0  0
   48.0450   31.9940   46.0460 H   0  0  0  0  0  0  0  0  0  0  0  0
   44.8220   36.5130   43.0230 N   0  0  0  0  0  0  0  0  0  0  0  0
   45.5610   36.7860   42.3120 H   0  0  0  0  0  0  0  0  0  0  0  0
   43.8930   36.9410   43.0920 H   0  0  0  0  0  0  0  0  0  0  0  0
  1  2  2  0  0  0  0
  2  3  1  0  0  0  0
  3  4  1  0  0  0  0
  3  7  1  1  0  0  0
  3 26  1  0  0  0  0
  4  9  1  0  0  0  0
  5  4  1  0  0  0  0
  5 10  1  0  0  0  0
  6  2  1  0  0  0  0
  6  5  1  0  0  0  0
  8  4  1  0  0  0  0
 11  5  1  0  0  0  0
 13 12  1  0  0  0  0
 13 14  1  0  0  0  0
 14  6  1  0  0  0  0
 15 14  2  0  0  0  0
 16 15  1  0  0  0  0
 17 23  1  0  0  0  0
 17 16  2  0  0  0  0
 18 17  1  0  0  0  0
 19 18  2  0  0  0  0
 19 21  1  0  0  0  0
 20 19  1  0  0  0  0
 21 22  2  0  0  0  0
 22 16  1  0  0  0  0
 22 13  1  0  0  0  0
 23 24  1  0  0  0  0
 25 23  1  0  0  0  0
 26 37  1  0  0  0  0
 27 38  1  0  0  0  0
 27 32  1  0  0  0  0
 28 27  2  0  0  0  0
 29 28  1  0  0  0  0
 29 30  2  0  0  0  0
 30 31  1  0  0  0  0
 31 32  2  0  0  0  0
 31 33  1  0  0  0  0
 33 34  1  0  0  0  0
 34 40  1  0  0  0  0
 34 41  1  0  0  0  0
 34 35  1  0  0  0  0
 35 43  1  0  0  0  0
 35 42  1  0  0  0  0
 36 45  1  0  0  0  0
 36 44  1  0  0  0  0
 36 35  1  0  0  0  0
 37 46  1  6  0  0  0
 37 33  1  0  0  0  0
 37 36  1  0  0  0  0
 39 29  1  0  0  0  0
 47 49  1  0  0  0  0
 47 28  1  0  0  0  0
 48 47  1  0  0  0  0
M  END
>  <minimizedAffinity>
-5.98659754

>  <minimizedRMSD>
0.559003472

$$$$
