
 OpenBabel03252506383D

 49 53  0  0  1  0  0  0  0  0999 V2000
   45.4450   30.5960   43.5190 O   0  0  0  0  0  0  0  0  0  0  0  0
   44.9140   29.9930   44.4670 C   0  0  0  0  0  0  0  0  0  0  0  0
   45.1470   29.7020   45.9040 C   0  0  1  0  0  0  0  0  0  0  0  0
   44.6540   28.2810   46.0160 C   0  0  0  0  0  0  0  0  0  0  0  0
   43.2790   28.4880   45.3810 C   0  0  0  0  0  0  0  0  0  0  0  0
   43.6640   29.3120   44.2420 N   0  0  0  0  0  0  0  0  0  0  0  0
   44.2810   30.2640   46.3520 H   0  0  0  0  0  0  0  0  0  0  0  0
   45.3070   27.6590   45.3800 H   0  0  0  0  0  0  0  0  0  0  0  0
   44.5900   27.9080   47.0490 H   0  0  0  0  0  0  0  0  0  0  0  0
   42.6790   29.0940   46.0590 H   0  0  0  0  0  0  0  0  0  0  0  0
   42.8240   27.5320   45.0760 H   0  0  0  0  0  0  0  0  0  0  0  0
   40.9280   29.5970   44.1860 H   0  0  0  0  0  0  0  0  0  0  0  0
   41.4740   29.5110   43.2900 N   0  0  0  0  0  0  0  0  0  0  0  0
   42.8120   29.3650   43.0750 C   0  0  0  0  0  0  0  0  0  0  0  0
   43.0570   29.2990   41.7580 N   0  0  0  0  0  0  0  0  0  0  0  0
   41.8530   29.4050   41.1250 C   0  0  0  0  0  0  0  0  0  0  0  0
   41.4470   29.4070   39.8230 C   0  0  0  0  0  0  0  0  0  0  0  0
   40.1530   29.5330   39.5180 N   0  0  0  0  0  0  0  0  0  0  0  0
   39.1820   29.6630   40.4540 C   0  0  0  0  0  0  0  0  0  0  0  0
   38.1240   29.7680   40.2510 H   0  0  0  0  0  0  0  0  0  0  0  0
   39.5430   29.6660   41.7500 N   0  0  0  0  0  0  0  0  0  0  0  0
   40.8410   29.5400   42.0810 C   0  0  0  0  0  0  0  0  0  0  0  0
   42.4370   29.2720   38.8140 N   0  0  0  0  0  0  0  0  0  0  0  0
   43.3420   29.7860   38.9210 H   0  0  0  0  0  0  0  0  0  0  0  0
   42.4970   28.7390   37.9050 H   0  0  0  0  0  0  0  0  0  0  0  0
   46.7460   30.0040   46.5320 S   0  0  0  0  0  0  0  0  0  0  0  0
   44.5300   35.4630   45.1610 C   0  0  0  0  0  0  0  0  0  0  0  0
   45.1960   35.4790   43.9180 C   0  0  0  0  0  0  0  0  0  0  0  0
   46.1360   34.5390   43.6540 C   0  0  0  0  0  0  0  0  0  0  0  0
   46.3750   33.6250   44.6250 N   0  0  0  0  0  0  0  0  0  0  0  0
   45.7460   33.6110   45.7920 C   0  0  0  0  0  0  0  0  0  0  0  0
   44.8180   34.5240   46.0770 N   0  0  0  0  0  0  0  0  0  0  0  0
   46.0890   32.5900   46.7470 N   0  0  0  0  0  0  0  0  0  0  0  0
   45.3500   32.3130   47.9230 C   0  0  0  0  0  0  0  0  0  0  0  0
   46.4290   31.9800   48.9390 C   0  0  0  0  0  0  0  0  0  0  0  0
   47.7140   31.9060   48.1740 C   0  0  0  0  0  0  0  0  0  0  0  0
   47.2260   31.7020   46.7410 C   0  0  1  0  0  0  0  0  0  0  0  0
   43.7860   36.2210   45.3480 H   0  0  0  0  0  0  0  0  0  0  0  0
   46.6470   34.5380   42.7240 H   0  0  0  0  0  0  0  0  0  0  0  0
   44.5750   31.6260   48.0190 H   0  0  0  0  0  0  0  0  0  0  0  0
   44.9420   33.3070   48.2890 H   0  0  0  0  0  0  0  0  0  0  0  0
   46.4990   32.6870   49.7720 H   0  0  0  0  0  0  0  0  0  0  0  0
   46.2230   30.9800   49.4160 H   0  0  0  0  0  0  0  0  0  0  0  0
   48.2980   31.0490   48.5270 H   0  0  0  0  0  0  0  0  0  0  0  0
   48.2460   32.8780   48.2880 H   0  0  0  0  0  0  0  0  0  0  0  0
   48.0440   32.0370   46.0740 H   0  0  0  0  0  0  0  0  0  0  0  0
   44.8260   36.5200   42.9950 N   0  0  0  0  0  0  0  0  0  0  0  0
   45.5670   36.7890   42.2860 H   0  0  0  0  0  0  0  0  0  0  0  0
   43.8940   36.9450   43.0540 H   0  0  0  0  0  0  0  0  0  0  0  0
  1  2  2  0  0  0  0
  2  3  1  0  0  0  0
  3  4  1  0  0  0  0
  3  7  1  1  0  0  0
  3 26  1  0  0  0  0
  4  9  1  0  0  0  0
  5  4  1  0  0  0  0
  5 10  1  0  0  0  0
  6  2  1  0  0  0  0
  6  5  1  0  0  0  0
  8  4  1  0  0  0  0
 11  5  1  0  0  0  0
 13 12  1  0  0  0  0
 14 13  1  0  0  0  0
 14  6  1  0  0  0  0
 15 14  2  0  0  0  0
 16 15  1  0  0  0  0
 16 22  1  0  0  0  0
 17 16  2  0  0  0  0
 18 17  1  0  0  0  0
 18 19  2  0  0  0  0
 19 21  1  0  0  0  0
 20 19  1  0  0  0  0
 21 22  2  0  0  0  0
 22 13  1  0  0  0  0
 23 24  1  0  0  0  0
 23 17  1  0  0  0  0
 25 23  1  0  0  0  0
 26 37  1  0  0  0  0
 27 38  1  0  0  0  0
 27 32  1  0  0  0  0
 28 27  2  0  0  0  0
 29 28  1  0  0  0  0
 29 30  2  0  0  0  0
 30 31  1  0  0  0  0
 31 32  2  0  0  0  0
 31 33  1  0  0  0  0
 33 34  1  0  0  0  0
 34 40  1  0  0  0  0
 34 41  1  0  0  0  0
 34 35  1  0  0  0  0
 35 43  1  0  0  0  0
 35 42  1  0  0  0  0
 36 45  1  0  0  0  0
 36 44  1  0  0  0  0
 36 35  1  0  0  0  0
 37 46  1  6  0  0  0
 37 33  1  0  0  0  0
 37 36  1  0  0  0  0
 39 29  1  0  0  0  0
 47 49  1  0  0  0  0
 47 28  1  0  0  0  0
 48 47  1  0  0  0  0
M  END
>  <minimizedAffinity>
-5.98052216

>  <minimizedRMSD>
0.336826324

$$$$
