
 OpenBabel03252500253D

 42 45  0  0  1  0  0  0  0  0999 V2000
   46.9290   30.1840   48.1290 C   0  0  2  0  0  0  0  0  0  0  0  0
   45.4690   30.4290   48.1530 C   0  0  2  0  0  0  0  0  0  0  0  0
   44.9540   29.5550   47.0710 C   0  0  0  0  0  0  0  0  0  0  0  0
   45.8040   28.4650   46.9730 O   0  0  0  0  0  0  0  0  0  0  0  0
   46.9020   28.6920   47.7370 C   0  0  0  0  0  0  0  0  0  0  0  0
   47.6170   30.5870   47.4510 H   0  0  0  0  0  0  0  0  0  0  0  0
   45.1400   30.1640   49.1930 H   0  0  0  0  0  0  0  0  0  0  0  0
   44.0100   29.0980   47.5030 H   0  0  0  0  0  0  0  0  0  0  0  0
   44.6250   30.0180   46.1620 H   0  0  0  0  0  0  0  0  0  0  0  0
   46.7660   28.1330   48.7020 H   0  0  0  0  0  0  0  0  0  0  0  0
   47.8330   28.3510   47.2910 H   0  0  0  0  0  0  0  0  0  0  0  0
   45.1110   31.7450   47.9780 O   0  0  0  0  0  0  0  0  0  0  0  0
   47.3510   32.8760   47.3940 O   0  0  0  0  0  0  0  0  0  0  0  0
   46.0440   32.4370   46.7880 P   0  0  1  0  0  0  0  0  0  0  0  0
   46.3610   31.2810   45.5920 O   0  0  0  0  0  0  0  0  0  0  0  0
   45.8230   31.4090   44.7900 H   0  0  0  0  0  0  0  0  0  0  0  0
   45.2990   33.8190   46.1030 O   0  0  0  0  0  0  0  0  0  0  0  0
   45.1970   35.8530   43.1810 C   0  0  0  0  0  0  0  0  0  0  0  0
   46.2920   35.3990   42.3960 C   0  0  0  0  0  0  0  0  0  0  0  0
   47.0570   34.3550   42.9390 C   0  0  0  0  0  0  0  0  0  0  0  0
   46.7140   33.8590   44.1460 N   0  0  0  0  0  0  0  0  0  0  0  0
   45.6600   34.3260   44.8560 C   0  0  0  0  0  0  0  0  0  0  0  0
   44.9180   35.3150   44.3650 N   0  0  0  0  0  0  0  0  0  0  0  0
   46.5580   35.7950   41.4440 H   0  0  0  0  0  0  0  0  0  0  0  0
   47.9030   33.9480   42.4170 H   0  0  0  0  0  0  0  0  0  0  0  0
   44.4400   36.8820   42.6540 O   0  0  0  0  0  0  0  0  0  0  0  0
   44.8880   37.7700   42.4650 H   0  0  0  0  0  0  0  0  0  0  0  0
   47.5230   30.3840   49.3650 O   0  0  0  0  0  0  0  0  0  0  0  0
   49.4160   28.5760   50.2000 H   0  0  0  0  0  0  0  0  0  0  0  0
   49.6050   29.5970   50.0740 N   0  0  0  0  0  0  0  0  0  0  0  0
   48.8210   30.6330   49.6780 C   0  0  0  0  0  0  0  0  0  0  0  0
   49.5840   31.7460   49.6930 N   0  0  0  0  0  0  0  0  0  0  0  0
   50.8230   31.4720   50.0820 C   0  0  0  0  0  0  0  0  0  0  0  0
   51.9360   32.2710   50.2470 C   0  0  0  0  0  0  0  0  0  0  0  0
   53.0860   31.6820   50.6660 N   0  0  0  0  0  0  0  0  0  0  0  0
   53.1100   30.3440   50.9060 C   0  0  0  0  0  0  0  0  0  0  0  0
   54.0460   29.9140   51.2370 H   0  0  0  0  0  0  0  0  0  0  0  0
   52.0110   29.5870   50.7360 N   0  0  0  0  0  0  0  0  0  0  0  0
   50.8340   30.1130   50.3220 C   0  0  0  0  0  0  0  0  0  0  0  0
   51.8550   33.6700   49.9820 N   0  0  0  0  0  0  0  0  0  0  0  0
   51.8850   34.2710   49.1070 H   0  0  0  0  0  0  0  0  0  0  0  0
   51.7380   34.2710   50.8500 H   0  0  0  0  0  0  0  0  0  0  0  0
  1  6  1  6  0  0  0
  1  2  1  0  0  0  0
  1 28  1  0  0  0  0
  2  7  1  1  0  0  0
  3  8  1  0  0  0  0
  3  2  1  0  0  0  0
  4  3  1  0  0  0  0
  4  5  1  0  0  0  0
  5  1  1  0  0  0  0
  5 10  1  0  0  0  0
  9  3  1  0  0  0  0
 11  5  1  0  0  0  0
 12  2  1  0  0  0  0
 14 13  2  1  0  0  0
 14 12  1  0  0  0  0
 15 14  1  0  0  0  0
 16 15  1  0  0  0  0
 17 14  1  0  0  0  0
 18 23  1  0  0  0  0
 19 20  1  0  0  0  0
 19 18  2  0  0  0  0
 20 21  2  0  0  0  0
 21 22  1  0  0  0  0
 22 17  1  0  0  0  0
 23 22  2  0  0  0  0
 24 19  1  0  0  0  0
 25 20  1  0  0  0  0
 26 18  1  0  0  0  0
 27 26  1  0  0  0  0
 28 31  1  0  0  0  0
 30 29  1  0  0  0  0
 30 39  1  0  0  0  0
 31 32  2  0  0  0  0
 31 30  1  0  0  0  0
 32 33  1  0  0  0  0
 33 34  2  0  0  0  0
 33 39  1  0  0  0  0
 34 35  1  0  0  0  0
 35 36  2  0  0  0  0
 36 37  1  0  0  0  0
 38 36  1  0  0  0  0
 39 38  2  0  0  0  0
 40 34  1  0  0  0  0
 40 42  1  0  0  0  0
 41 40  1  0  0  0  0
M  END
>  <minimizedAffinity>
-5.98899364

>  <minimizedRMSD>
0.380896509

$$$$
