
 OpenBabel03252500263D

 42 45  0  0  1  0  0  0  0  0999 V2000
   47.6270   30.1260   48.0890 C   0  0  2  0  0  0  0  0  0  0  0  0
   46.1720   29.9830   47.8550 C   0  0  2  0  0  0  0  0  0  0  0  0
   46.1000   29.1250   46.6460 C   0  0  0  0  0  0  0  0  0  0  0  0
   47.2180   28.3080   46.6460 O   0  0  0  0  0  0  0  0  0  0  0  0
   48.0720   28.7280   47.6140 C   0  0  0  0  0  0  0  0  0  0  0  0
   48.2810   30.7620   47.5770 H   0  0  0  0  0  0  0  0  0  0  0  0
   45.7610   29.5330   48.7980 H   0  0  0  0  0  0  0  0  0  0  0  0
   45.2580   28.3980   46.8680 H   0  0  0  0  0  0  0  0  0  0  0  0
   45.8110   29.5820   45.7210 H   0  0  0  0  0  0  0  0  0  0  0  0
   47.9370   28.0540   48.5020 H   0  0  0  0  0  0  0  0  0  0  0  0
   49.1210   28.6870   47.3300 H   0  0  0  0  0  0  0  0  0  0  0  0
   45.5030   31.1740   47.6920 O   0  0  0  0  0  0  0  0  0  0  0  0
   47.4520   32.8560   47.6080 O   0  0  0  0  0  0  0  0  0  0  0  0
   46.4000   32.2080   46.7480 P   0  0  1  0  0  0  0  0  0  0  0  0
   47.1670   31.3190   45.5290 O   0  0  0  0  0  0  0  0  0  0  0  0
   46.7380   31.4200   44.6600 H   0  0  0  0  0  0  0  0  0  0  0  0
   45.4440   33.4560   46.0690 O   0  0  0  0  0  0  0  0  0  0  0  0
   45.1760   35.6620   43.2850 C   0  0  0  0  0  0  0  0  0  0  0  0
   46.3210   35.3720   42.4930 C   0  0  0  0  0  0  0  0  0  0  0  0
   47.1800   34.3750   42.9820 C   0  0  0  0  0  0  0  0  0  0  0  0
   46.8730   33.7670   44.1460 N   0  0  0  0  0  0  0  0  0  0  0  0
   45.7690   34.0790   44.8650 C   0  0  0  0  0  0  0  0  0  0  0  0
   44.9370   35.0200   44.4250 N   0  0  0  0  0  0  0  0  0  0  0  0
   46.5580   35.8550   41.5750 H   0  0  0  0  0  0  0  0  0  0  0  0
   48.0690   34.0900   42.4510 H   0  0  0  0  0  0  0  0  0  0  0  0
   44.3260   36.6430   42.8120 O   0  0  0  0  0  0  0  0  0  0  0  0
   44.6850   37.5820   42.6900 H   0  0  0  0  0  0  0  0  0  0  0  0
   47.9330   30.3400   49.4240 O   0  0  0  0  0  0  0  0  0  0  0  0
   49.2490   29.1650   51.5310 H   0  0  0  0  0  0  0  0  0  0  0  0
   49.5910   30.0220   51.0390 N   0  0  0  0  0  0  0  0  0  0  0  0
   49.0960   30.7420   49.9980 C   0  0  0  0  0  0  0  0  0  0  0  0
   49.9490   31.7620   49.7700 N   0  0  0  0  0  0  0  0  0  0  0  0
   50.9710   31.7310   50.6180 C   0  0  0  0  0  0  0  0  0  0  0  0
   52.0700   32.5500   50.7660 C   0  0  0  0  0  0  0  0  0  0  0  0
   52.9600   32.2500   51.7490 N   0  0  0  0  0  0  0  0  0  0  0  0
   52.7460   31.1690   52.5440 C   0  0  0  0  0  0  0  0  0  0  0  0
   53.4780   30.9640   53.3140 H   0  0  0  0  0  0  0  0  0  0  0  0
   51.6650   30.3850   52.3780 N   0  0  0  0  0  0  0  0  0  0  0  0
   50.7420   30.6310   51.4190 C   0  0  0  0  0  0  0  0  0  0  0  0
   52.2470   33.6730   49.9040 N   0  0  0  0  0  0  0  0  0  0  0  0
   52.6120   33.8090   48.9160 H   0  0  0  0  0  0  0  0  0  0  0  0
   51.9480   34.5980   50.3290 H   0  0  0  0  0  0  0  0  0  0  0  0
  1  6  1  6  0  0  0
  1 28  1  0  0  0  0
  2  1  1  0  0  0  0
  2  7  1  1  0  0  0
  3  8  1  0  0  0  0
  3  2  1  0  0  0  0
  4  3  1  0  0  0  0
  4  5  1  0  0  0  0
  5  1  1  0  0  0  0
  5 10  1  0  0  0  0
  9  3  1  0  0  0  0
 11  5  1  0  0  0  0
 12  2  1  0  0  0  0
 14 13  2  1  0  0  0
 14 12  1  0  0  0  0
 15 14  1  0  0  0  0
 16 15  1  0  0  0  0
 17 14  1  0  0  0  0
 18 23  1  0  0  0  0
 19 20  1  0  0  0  0
 19 18  2  0  0  0  0
 20 21  2  0  0  0  0
 21 22  1  0  0  0  0
 22 17  1  0  0  0  0
 23 22  2  0  0  0  0
 24 19  1  0  0  0  0
 25 20  1  0  0  0  0
 26 18  1  0  0  0  0
 27 26  1  0  0  0  0
 28 31  1  0  0  0  0
 30 39  1  0  0  0  0
 30 29  1  0  0  0  0
 31 30  1  0  0  0  0
 32 31  2  0  0  0  0
 32 33  1  0  0  0  0
 33 34  2  0  0  0  0
 33 39  1  0  0  0  0
 34 35  1  0  0  0  0
 35 36  2  0  0  0  0
 36 37  1  0  0  0  0
 38 36  1  0  0  0  0
 39 38  2  0  0  0  0
 40 42  1  0  0  0  0
 40 34  1  0  0  0  0
 41 40  1  0  0  0  0
M  END
>  <minimizedAffinity>
-6.16060209

>  <minimizedRMSD>
0.941295624

$$$$
