
 OpenBabel03252500253D

 42 45  0  0  1  0  0  0  0  0999 V2000
   47.0070   30.1740   48.1220 C   0  0  2  0  0  0  0  0  0  0  0  0
   45.5400   30.3680   48.1230 C   0  0  2  0  0  0  0  0  0  0  0  0
   45.0740   29.4840   47.0270 C   0  0  0  0  0  0  0  0  0  0  0  0
   45.9620   28.4250   46.9370 O   0  0  0  0  0  0  0  0  0  0  0  0
   47.0390   28.6850   47.7210 C   0  0  0  0  0  0  0  0  0  0  0  0
   47.6920   30.6060   47.4580 H   0  0  0  0  0  0  0  0  0  0  0  0
   45.2030   30.0850   49.1550 H   0  0  0  0  0  0  0  0  0  0  0  0
   44.1390   28.9920   47.4410 H   0  0  0  0  0  0  0  0  0  0  0  0
   44.7440   29.9410   46.1160 H   0  0  0  0  0  0  0  0  0  0  0  0
   46.9070   28.1160   48.6800 H   0  0  0  0  0  0  0  0  0  0  0  0
   47.9890   28.3800   47.2890 H   0  0  0  0  0  0  0  0  0  0  0  0
   45.1390   31.6730   47.9490 O   0  0  0  0  0  0  0  0  0  0  0  0
   47.3560   32.8830   47.4430 O   0  0  0  0  0  0  0  0  0  0  0  0
   46.0820   32.4110   46.7950 P   0  0  1  0  0  0  0  0  0  0  0  0
   46.4690   31.2820   45.5940 O   0  0  0  0  0  0  0  0  0  0  0  0
   45.9500   31.4030   44.7790 H   0  0  0  0  0  0  0  0  0  0  0  0
   45.3100   33.7760   46.1070 O   0  0  0  0  0  0  0  0  0  0  0  0
   45.1810   35.8100   43.1860 C   0  0  0  0  0  0  0  0  0  0  0  0
   46.2930   35.3850   42.4090 C   0  0  0  0  0  0  0  0  0  0  0  0
   47.0800   34.3600   42.9580 C   0  0  0  0  0  0  0  0  0  0  0  0
   46.7400   33.8540   44.1610 N   0  0  0  0  0  0  0  0  0  0  0  0
   45.6690   34.2930   44.8630 C   0  0  0  0  0  0  0  0  0  0  0  0
   44.9060   35.2640   44.3670 N   0  0  0  0  0  0  0  0  0  0  0  0
   46.5560   35.7880   41.4600 H   0  0  0  0  0  0  0  0  0  0  0  0
   47.9400   33.9740   42.4430 H   0  0  0  0  0  0  0  0  0  0  0  0
   44.4020   36.8190   42.6530 O   0  0  0  0  0  0  0  0  0  0  0  0
   44.8300   37.7190   42.4690 H   0  0  0  0  0  0  0  0  0  0  0  0
   47.5740   30.3870   49.3690 O   0  0  0  0  0  0  0  0  0  0  0  0
   49.4380   28.6030   50.3140 H   0  0  0  0  0  0  0  0  0  0  0  0
   49.6330   29.6190   50.1600 N   0  0  0  0  0  0  0  0  0  0  0  0
   48.8640   30.6430   49.7080 C   0  0  0  0  0  0  0  0  0  0  0  0
   49.6290   31.7550   49.7070 N   0  0  0  0  0  0  0  0  0  0  0  0
   50.8570   31.4910   50.1370 C   0  0  0  0  0  0  0  0  0  0  0  0
   51.9680   32.2920   50.3060 C   0  0  0  0  0  0  0  0  0  0  0  0
   53.1050   31.7160   50.7740 N   0  0  0  0  0  0  0  0  0  0  0  0
   53.1180   30.3870   51.0590 C   0  0  0  0  0  0  0  0  0  0  0  0
   54.0420   29.9650   51.4290 H   0  0  0  0  0  0  0  0  0  0  0  0
   52.0220   29.6260   50.8860 N   0  0  0  0  0  0  0  0  0  0  0  0
   50.8570   30.1410   50.4230 C   0  0  0  0  0  0  0  0  0  0  0  0
   51.8990   33.6830   49.9920 N   0  0  0  0  0  0  0  0  0  0  0  0
   51.9540   34.2530   49.0980 H   0  0  0  0  0  0  0  0  0  0  0  0
   51.7600   34.3110   50.8350 H   0  0  0  0  0  0  0  0  0  0  0  0
  1  6  1  6  0  0  0
  1  2  1  0  0  0  0
  1 28  1  0  0  0  0
  2  7  1  1  0  0  0
  3  8  1  0  0  0  0
  3  2  1  0  0  0  0
  4  3  1  0  0  0  0
  4  5  1  0  0  0  0
  5  1  1  0  0  0  0
  5 10  1  0  0  0  0
  9  3  1  0  0  0  0
 11  5  1  0  0  0  0
 12  2  1  0  0  0  0
 14 13  2  1  0  0  0
 14 12  1  0  0  0  0
 15 14  1  0  0  0  0
 16 15  1  0  0  0  0
 17 14  1  0  0  0  0
 18 23  1  0  0  0  0
 19 20  1  0  0  0  0
 19 18  2  0  0  0  0
 20 21  2  0  0  0  0
 21 22  1  0  0  0  0
 22 17  1  0  0  0  0
 23 22  2  0  0  0  0
 24 19  1  0  0  0  0
 25 20  1  0  0  0  0
 26 18  1  0  0  0  0
 27 26  1  0  0  0  0
 28 31  1  0  0  0  0
 30 29  1  0  0  0  0
 30 39  1  0  0  0  0
 31 30  1  0  0  0  0
 32 31  2  0  0  0  0
 32 33  1  0  0  0  0
 33 34  2  0  0  0  0
 33 39  1  0  0  0  0
 34 35  1  0  0  0  0
 35 36  2  0  0  0  0
 36 37  1  0  0  0  0
 38 36  1  0  0  0  0
 39 38  2  0  0  0  0
 40 34  1  0  0  0  0
 40 42  1  0  0  0  0
 41 40  1  0  0  0  0
M  END
>  <minimizedAffinity>
-5.99082088

>  <minimizedRMSD>
0.425286204

$$$$
