
 OpenBabel03242518253D

 50 55  0  0  1  0  0  0  0  0999 V2000
   46.8650   31.1760   43.2090 C   0  0  0  0  0  0  0  0  0  0  0  0
   45.9350   31.9990   43.7350 C   0  0  0  0  0  0  0  0  0  0  0  0
   45.8720   32.1290   45.1190 C   0  0  0  0  0  0  0  0  0  0  0  0
   46.7430   31.4300   45.9270 C   0  0  0  0  0  0  0  0  0  0  0  0
   47.6980   30.5810   45.3560 C   0  0  0  0  0  0  0  0  0  0  0  0
   47.7630   30.4500   43.9700 C   0  0  0  0  0  0  0  0  0  0  0  0
   48.4270   30.0160   46.3990 O   0  0  0  0  0  0  0  0  0  0  0  0
   47.6760   30.2140   47.5970 C   0  0  1  0  0  0  0  0  0  0  0  0
   46.9170   31.3580   47.3110 O   0  0  0  0  0  0  0  0  0  0  0  0
   46.9620   31.0330   42.1390 H   0  0  0  0  0  0  0  0  0  0  0  0
   45.1510   32.7730   45.6200 H   0  0  0  0  0  0  0  0  0  0  0  0
   48.4950   29.8000   43.5280 H   0  0  0  0  0  0  0  0  0  0  0  0
   48.2930   30.2660   48.4990 H   0  0  0  0  0  0  0  0  0  0  0  0
   46.7160   29.1030   47.6600 N   0  0  0  0  0  0  0  0  0  0  0  0
   45.3660   29.1470   47.8550 C   0  0  0  0  0  0  0  0  0  0  0  0
   44.8310   30.0950   47.9960 H   0  0  0  0  0  0  0  0  0  0  0  0
   44.8780   27.8920   47.8410 N   0  0  0  0  0  0  0  0  0  0  0  0
   45.8910   27.0280   47.6380 C   0  0  0  0  0  0  0  0  0  0  0  0
   45.8230   25.6520   47.5550 C   0  0  0  0  0  0  0  0  0  0  0  0
   47.0010   25.0270   47.3450 N   0  0  0  0  0  0  0  0  0  0  0  0
   48.1440   25.7460   47.2300 C   0  0  0  0  0  0  0  0  0  0  0  0
   49.0550   25.1800   47.0610 H   0  0  0  0  0  0  0  0  0  0  0  0
   48.1800   27.1040   47.3160 N   0  0  0  0  0  0  0  0  0  0  0  0
   47.0370   27.7870   47.5260 C   0  0  0  0  0  0  0  0  0  0  0  0
   44.5640   24.9730   47.6900 N   0  0  0  0  0  0  0  0  0  0  0  0
   44.2400   25.0560   48.6780 H   0  0  0  0  0  0  0  0  0  0  0  0
   44.1250   24.4980   46.8510 H   0  0  0  0  0  0  0  0  0  0  0  0
   44.2800   34.7020   41.8280 C   0  0  0  0  0  0  0  0  0  0  0  0
   43.1700   34.0640   41.3090 C   0  0  0  0  0  0  0  0  0  0  0  0
   43.0050   32.7120   41.6210 C   0  0  0  0  0  0  0  0  0  0  0  0
   43.9170   32.0850   42.4020 N   0  0  0  0  0  0  0  0  0  0  0  0
   44.9980   32.7470   42.8950 C   0  0  0  0  0  0  0  0  0  0  0  0
   45.1660   34.0400   42.6050 N   0  0  0  0  0  0  0  0  0  0  0  0
   44.5580   35.7430   41.6860 H   0  0  0  0  0  0  0  0  0  0  0  0
   42.1300   32.2240   41.2060 H   0  0  0  0  0  0  0  0  0  0  0  0
   42.2990   34.8300   40.5120 N   0  0  0  0  0  0  0  0  0  0  0  0
   42.4420   34.7540   39.0920 C   0  0  0  0  0  0  0  0  0  0  0  0
   41.5340   35.6520   38.3370 C   0  0  0  0  0  0  0  0  0  0  0  0
   40.1820   35.5960   38.7930 N   0  0  0  0  0  0  0  0  0  0  0  0
   39.9680   35.4650   40.1780 C   0  0  0  0  0  0  0  0  0  0  0  0
   41.2550   35.7060   40.9630 C   0  0  0  0  0  0  0  0  0  0  0  0
   42.1840   33.6950   38.7990 H   0  0  0  0  0  0  0  0  0  0  0  0
   43.4930   34.9090   38.8300 H   0  0  0  0  0  0  0  0  0  0  0  0
   41.8900   36.6850   38.3810 H   0  0  0  0  0  0  0  0  0  0  0  0
   41.5190   35.3020   37.2660 H   0  0  0  0  0  0  0  0  0  0  0  0
   39.6800   36.4650   38.4540 H   0  0  0  0  0  0  0  0  0  0  0  0
   39.2360   36.1950   40.6050 H   0  0  0  0  0  0  0  0  0  0  0  0
   39.6100   34.4520   40.4880 H   0  0  0  0  0  0  0  0  0  0  0  0
   41.0530   35.4890   42.0320 H   0  0  0  0  0  0  0  0  0  0  0  0
   41.5840   36.7560   40.9160 H   0  0  0  0  0  0  0  0  0  0  0  0
  1  2  2  0  0  0  0
  1  6  1  0  0  0  0
  2  3  1  0  0  0  0
  3 11  1  0  0  0  0
  3  4  2  0  0  0  0
  4  9  1  0  0  0  0
  5  4  1  0  0  0  0
  5  7  1  0  0  0  0
  6  5  2  0  0  0  0
  7  8  1  0  0  0  0
  8 14  1  0  0  0  0
  8 13  1  1  0  0  0
  9  8  1  0  0  0  0
 10  1  1  0  0  0  0
 12  6  1  0  0  0  0
 14 15  1  0  0  0  0
 15 16  1  0  0  0  0
 17 15  2  0  0  0  0
 18 17  1  0  0  0  0
 19 18  1  0  0  0  0
 19 25  1  0  0  0  0
 20 19  2  0  0  0  0
 21 23  2  0  0  0  0
 21 20  1  0  0  0  0
 22 21  1  0  0  0  0
 23 24  1  0  0  0  0
 24 18  2  0  0  0  0
 24 14  1  0  0  0  0
 25 26  1  0  0  0  0
 27 25  1  0  0  0  0
 28 33  1  0  0  0  0
 29 30  1  0  0  0  0
 29 28  2  0  0  0  0
 30 31  2  0  0  0  0
 31 32  1  0  0  0  0
 32  2  1  0  0  0  0
 33 32  2  0  0  0  0
 34 28  1  0  0  0  0
 35 30  1  0  0  0  0
 36 41  1  0  0  0  0
 36 29  1  0  0  0  0
 37 36  1  0  0  0  0
 38 44  1  0  0  0  0
 38 39  1  0  0  0  0
 38 37  1  0  0  0  0
 39 40  1  0  0  0  0
 40 48  1  0  0  0  0
 40 47  1  0  0  0  0
 40 41  1  0  0  0  0
 41 49  1  0  0  0  0
 42 37  1  0  0  0  0
 43 37  1  0  0  0  0
 45 38  1  0  0  0  0
 46 39  1  0  0  0  0
 50 41  1  0  0  0  0
M  END
>  <minimizedAffinity>
-5.37725687

>  <minimizedRMSD>
2.17271352

$$$$
