
 OpenBabel03242518243D

 50 55  0  0  1  0  0  0  0  0999 V2000
   46.5100   32.4260   43.0460 C   0  0  0  0  0  0  0  0  0  0  0  0
   45.4100   33.1140   43.4140 C   0  0  0  0  0  0  0  0  0  0  0  0
   45.1990   33.3490   44.7700 C   0  0  0  0  0  0  0  0  0  0  0  0
   46.0960   32.8860   45.7070 C   0  0  0  0  0  0  0  0  0  0  0  0
   47.2300   32.1740   45.2990 C   0  0  0  0  0  0  0  0  0  0  0  0
   47.4440   31.9380   43.9420 C   0  0  0  0  0  0  0  0  0  0  0  0
   47.9440   31.8370   46.4460 O   0  0  0  0  0  0  0  0  0  0  0  0
   47.0620   32.0010   47.5580 C   0  0  1  0  0  0  0  0  0  0  0  0
   46.1500   32.9650   47.1010 O   0  0  0  0  0  0  0  0  0  0  0  0
   46.7290   32.2130   42.0060 H   0  0  0  0  0  0  0  0  0  0  0  0
   44.3360   33.8960   45.1460 H   0  0  0  0  0  0  0  0  0  0  0  0
   48.3120   31.3920   43.6240 H   0  0  0  0  0  0  0  0  0  0  0  0
   47.5750   32.2380   48.4940 H   0  0  0  0  0  0  0  0  0  0  0  0
   46.3010   30.7470   47.6580 N   0  0  0  0  0  0  0  0  0  0  0  0
   44.9620   30.5710   47.8520 C   0  0  0  0  0  0  0  0  0  0  0  0
   44.2750   31.4190   47.9610 H   0  0  0  0  0  0  0  0  0  0  0  0
   44.6920   29.2520   47.8790 N   0  0  0  0  0  0  0  0  0  0  0  0
   45.8360   28.5640   47.7050 C   0  0  0  0  0  0  0  0  0  0  0  0
   46.0010   27.1940   47.6680 C   0  0  0  0  0  0  0  0  0  0  0  0
   47.2680   26.7690   47.4780 N   0  0  0  0  0  0  0  0  0  0  0  0
   48.2750   27.6650   47.3400 C   0  0  0  0  0  0  0  0  0  0  0  0
   49.2690   27.2550   47.1900 H   0  0  0  0  0  0  0  0  0  0  0  0
   48.0820   29.0120   47.3810 N   0  0  0  0  0  0  0  0  0  0  0  0
   46.8400   29.5000   47.5670 C   0  0  0  0  0  0  0  0  0  0  0  0
   44.8720   26.3180   47.8250 N   0  0  0  0  0  0  0  0  0  0  0  0
   44.5340   26.3780   48.8110 H   0  0  0  0  0  0  0  0  0  0  0  0
   44.5240   25.7500   47.0040 H   0  0  0  0  0  0  0  0  0  0  0  0
   42.6480   33.3150   40.9620 C   0  0  0  0  0  0  0  0  0  0  0  0
   42.6720   34.6470   40.5960 C   0  0  0  0  0  0  0  0  0  0  0  0
   43.6360   35.4590   41.1970 C   0  0  0  0  0  0  0  0  0  0  0  0
   44.4960   34.9280   42.0990 N   0  0  0  0  0  0  0  0  0  0  0  0
   44.4430   33.6110   42.4340 C   0  0  0  0  0  0  0  0  0  0  0  0
   43.5250   32.8250   41.8650 N   0  0  0  0  0  0  0  0  0  0  0  0
   41.9690   32.5500   40.5940 H   0  0  0  0  0  0  0  0  0  0  0  0
   43.6420   36.5020   40.9000 H   0  0  0  0  0  0  0  0  0  0  0  0
   41.7230   35.0710   39.6460 N   0  0  0  0  0  0  0  0  0  0  0  0
   42.1910   35.4630   38.3540 C   0  0  0  0  0  0  0  0  0  0  0  0
   41.1310   35.9670   37.4470 C   0  0  0  0  0  0  0  0  0  0  0  0
   39.9710   35.1350   37.4220 N   0  0  0  0  0  0  0  0  0  0  0  0
   39.5660   34.5470   38.6350 C   0  0  0  0  0  0  0  0  0  0  0  0
   40.3020   35.1640   39.8220 C   0  0  0  0  0  0  0  0  0  0  0  0
   42.6270   34.5380   37.8760 H   0  0  0  0  0  0  0  0  0  0  0  0
   43.0110   36.1770   38.4720 H   0  0  0  0  0  0  0  0  0  0  0  0
   40.8420   36.9860   37.7210 H   0  0  0  0  0  0  0  0  0  0  0  0
   41.5450   35.9600   36.3990 H   0  0  0  0  0  0  0  0  0  0  0  0
   39.1620   35.7010   37.0360 H   0  0  0  0  0  0  0  0  0  0  0  0
   38.4820   34.6770   38.8750 H   0  0  0  0  0  0  0  0  0  0  0  0
   39.7650   33.4480   38.6940 H   0  0  0  0  0  0  0  0  0  0  0  0
   40.0230   34.5960   40.7340 H   0  0  0  0  0  0  0  0  0  0  0  0
   40.0010   36.2080   40.0040 H   0  0  0  0  0  0  0  0  0  0  0  0
  1  2  2  0  0  0  0
  1  6  1  0  0  0  0
  2  3  1  0  0  0  0
  3 11  1  0  0  0  0
  3  4  2  0  0  0  0
  4  9  1  0  0  0  0
  5  4  1  0  0  0  0
  5  7  1  0  0  0  0
  6  5  2  0  0  0  0
  7  8  1  0  0  0  0
  8 14  1  0  0  0  0
  8 13  1  1  0  0  0
  9  8  1  0  0  0  0
 10  1  1  0  0  0  0
 12  6  1  0  0  0  0
 14 15  1  0  0  0  0
 15 17  2  0  0  0  0
 15 16  1  0  0  0  0
 18 17  1  0  0  0  0
 19 18  1  0  0  0  0
 19 25  1  0  0  0  0
 20 19  2  0  0  0  0
 21 23  2  0  0  0  0
 21 20  1  0  0  0  0
 22 21  1  0  0  0  0
 23 24  1  0  0  0  0
 24 14  1  0  0  0  0
 24 18  2  0  0  0  0
 25 26  1  0  0  0  0
 27 25  1  0  0  0  0
 28 33  1  0  0  0  0
 29 28  2  0  0  0  0
 29 30  1  0  0  0  0
 30 31  2  0  0  0  0
 31 32  1  0  0  0  0
 32  2  1  0  0  0  0
 33 32  2  0  0  0  0
 34 28  1  0  0  0  0
 35 30  1  0  0  0  0
 36 41  1  0  0  0  0
 36 29  1  0  0  0  0
 37 43  1  0  0  0  0
 37 36  1  0  0  0  0
 38 44  1  0  0  0  0
 38 37  1  0  0  0  0
 39 38  1  0  0  0  0
 39 40  1  0  0  0  0
 40 48  1  0  0  0  0
 40 47  1  0  0  0  0
 40 41  1  0  0  0  0
 41 50  1  0  0  0  0
 41 49  1  0  0  0  0
 42 37  1  0  0  0  0
 45 38  1  0  0  0  0
 46 39  1  0  0  0  0
M  END
>  <minimizedAffinity>
-5.78622437

>  <minimizedRMSD>
2.21219277

$$$$
