
 OpenBabel03242518243D

 50 55  0  0  1  0  0  0  0  0999 V2000
   46.8800   31.3840   43.4170 C   0  0  0  0  0  0  0  0  0  0  0  0
   45.8760   32.1390   43.9070 C   0  0  0  0  0  0  0  0  0  0  0  0
   45.7220   32.2220   45.2870 C   0  0  0  0  0  0  0  0  0  0  0  0
   46.5790   31.5450   46.1270 C   0  0  0  0  0  0  0  0  0  0  0  0
   47.6140   30.7680   45.5940 C   0  0  0  0  0  0  0  0  0  0  0  0
   47.7690   30.6840   44.2120 C   0  0  0  0  0  0  0  0  0  0  0  0
   48.3080   30.2100   46.6630 O   0  0  0  0  0  0  0  0  0  0  0  0
   47.4760   30.3300   47.8180 C   0  0  1  0  0  0  0  0  0  0  0  0
   46.6730   31.4400   47.5170 O   0  0  0  0  0  0  0  0  0  0  0  0
   47.0500   31.2810   42.3510 H   0  0  0  0  0  0  0  0  0  0  0  0
   44.9370   32.8100   45.7600 H   0  0  0  0  0  0  0  0  0  0  0  0
   48.5620   30.0890   43.7970 H   0  0  0  0  0  0  0  0  0  0  0  0
   48.0330   30.3860   48.7570 H   0  0  0  0  0  0  0  0  0  0  0  0
   46.5770   29.1670   47.7900 N   0  0  0  0  0  0  0  0  0  0  0  0
   45.2200   29.1290   47.9260 C   0  0  0  0  0  0  0  0  0  0  0  0
   44.6270   30.0400   48.0830 H   0  0  0  0  0  0  0  0  0  0  0  0
   44.8040   27.8520   47.8350 N   0  0  0  0  0  0  0  0  0  0  0  0
   45.8700   27.0530   47.6410 C   0  0  0  0  0  0  0  0  0  0  0  0
   45.8840   25.6810   47.4960 C   0  0  0  0  0  0  0  0  0  0  0  0
   47.1020   25.1310   47.3120 N   0  0  0  0  0  0  0  0  0  0  0  0
   48.2070   25.9140   47.2800 C   0  0  0  0  0  0  0  0  0  0  0  0
   49.1550   25.4070   47.1280 H   0  0  0  0  0  0  0  0  0  0  0  0
   48.1630   27.2680   47.4260 N   0  0  0  0  0  0  0  0  0  0  0  0
   46.9760   27.8770   47.6120 C   0  0  0  0  0  0  0  0  0  0  0  0
   44.6590   24.9310   47.5430 N   0  0  0  0  0  0  0  0  0  0  0  0
   44.2890   24.9510   48.5200 H   0  0  0  0  0  0  0  0  0  0  0  0
   44.2830   24.4720   46.6680 H   0  0  0  0  0  0  0  0  0  0  0  0
   44.1860   34.8100   41.9860 C   0  0  0  0  0  0  0  0  0  0  0  0
   43.1530   34.1280   41.3710 C   0  0  0  0  0  0  0  0  0  0  0  0
   43.0520   32.7570   41.6240 C   0  0  0  0  0  0  0  0  0  0  0  0
   43.9490   32.1560   42.4430 N   0  0  0  0  0  0  0  0  0  0  0  0
   44.9510   32.8620   43.0310 C   0  0  0  0  0  0  0  0  0  0  0  0
   45.0570   34.1730   42.7980 N   0  0  0  0  0  0  0  0  0  0  0  0
   44.4060   35.8710   41.8990 H   0  0  0  0  0  0  0  0  0  0  0  0
   42.2390   32.2340   41.1340 H   0  0  0  0  0  0  0  0  0  0  0  0
   42.2910   34.8710   40.5440 N   0  0  0  0  0  0  0  0  0  0  0  0
   42.4680   34.7780   39.1290 C   0  0  0  0  0  0  0  0  0  0  0  0
   41.5660   35.6530   38.3410 C   0  0  0  0  0  0  0  0  0  0  0  0
   40.2040   35.5830   38.7650 N   0  0  0  0  0  0  0  0  0  0  0  0
   39.9590   35.4680   40.1470 C   0  0  0  0  0  0  0  0  0  0  0  0
   41.2240   35.7370   40.9580 C   0  0  0  0  0  0  0  0  0  0  0  0
   42.2320   33.7120   38.8440 H   0  0  0  0  0  0  0  0  0  0  0  0
   43.5220   34.9450   38.8890 H   0  0  0  0  0  0  0  0  0  0  0  0
   41.9060   36.6920   38.3790 H   0  0  0  0  0  0  0  0  0  0  0  0
   41.5810   35.2890   37.2740 H   0  0  0  0  0  0  0  0  0  0  0  0
   39.6980   36.4410   38.4040 H   0  0  0  0  0  0  0  0  0  0  0  0
   39.2080   36.1920   40.5470 H   0  0  0  0  0  0  0  0  0  0  0  0
   39.6090   34.4540   40.4620 H   0  0  0  0  0  0  0  0  0  0  0  0
   41.0000   35.5320   42.0250 H   0  0  0  0  0  0  0  0  0  0  0  0
   41.5390   36.7920   40.9050 H   0  0  0  0  0  0  0  0  0  0  0  0
  1  2  2  0  0  0  0
  1  6  1  0  0  0  0
  2  3  1  0  0  0  0
  3 11  1  0  0  0  0
  3  4  2  0  0  0  0
  4  9  1  0  0  0  0
  5  4  1  0  0  0  0
  5  7  1  0  0  0  0
  6  5  2  0  0  0  0
  7  8  1  0  0  0  0
  8 13  1  1  0  0  0
  9  8  1  0  0  0  0
 10  1  1  0  0  0  0
 12  6  1  0  0  0  0
 14  8  1  0  0  0  0
 14 15  1  0  0  0  0
 15 16  1  0  0  0  0
 17 15  2  0  0  0  0
 18 17  1  0  0  0  0
 19 25  1  0  0  0  0
 19 18  2  0  0  0  0
 20 19  1  0  0  0  0
 21 20  2  0  0  0  0
 21 23  1  0  0  0  0
 22 21  1  0  0  0  0
 23 24  2  0  0  0  0
 24 18  1  0  0  0  0
 24 14  1  0  0  0  0
 25 26  1  0  0  0  0
 27 25  1  0  0  0  0
 28 33  1  0  0  0  0
 29 30  1  0  0  0  0
 29 28  2  0  0  0  0
 30 31  2  0  0  0  0
 31 32  1  0  0  0  0
 32  2  1  0  0  0  0
 33 32  2  0  0  0  0
 34 28  1  0  0  0  0
 35 30  1  0  0  0  0
 36 41  1  0  0  0  0
 36 29  1  0  0  0  0
 37 36  1  0  0  0  0
 38 44  1  0  0  0  0
 38 39  1  0  0  0  0
 38 37  1  0  0  0  0
 39 40  1  0  0  0  0
 40 48  1  0  0  0  0
 40 47  1  0  0  0  0
 40 41  1  0  0  0  0
 41 49  1  0  0  0  0
 42 37  1  0  0  0  0
 43 37  1  0  0  0  0
 45 38  1  0  0  0  0
 46 39  1  0  0  0  0
 50 41  1  0  0  0  0
M  END
>  <minimizedAffinity>
-5.39659977

>  <minimizedRMSD>
2.3620255

$$$$
