
 OpenBabel03252502353D

 45 48  0  0  1  0  0  0  0  0999 V2000
   36.4340   28.9050   38.8430 C   0  0  2  0  0  0  0  0  0  0  0  0
   35.2490   28.0980   38.2890 C   0  0  0  0  0  0  0  0  0  0  0  0
   34.4920   29.1110   37.4100 C   0  0  0  0  0  0  0  0  0  0  0  0
   35.3930   29.2210   36.1830 C   0  0  0  0  0  0  0  0  0  0  0  0
   36.6950   29.8210   36.5460 C   0  0  0  0  0  0  0  0  0  0  0  0
   37.3750   29.2450   37.7490 C   0  0  1  0  0  0  0  0  0  0  0  0
   35.9920   29.8530   39.2520 H   0  0  0  0  0  0  0  0  0  0  0  0
   34.6210   27.7570   39.1210 H   0  0  0  0  0  0  0  0  0  0  0  0
   35.6930   27.3000   37.6700 H   0  0  0  0  0  0  0  0  0  0  0  0
   33.5460   28.6480   37.1260 H   0  0  0  0  0  0  0  0  0  0  0  0
   34.4090   30.0720   37.9380 H   0  0  0  0  0  0  0  0  0  0  0  0
   35.5290   28.1760   35.8310 H   0  0  0  0  0  0  0  0  0  0  0  0
   34.8810   29.8600   35.4640 H   0  0  0  0  0  0  0  0  0  0  0  0
   37.3960   29.6430   35.6810 H   0  0  0  0  0  0  0  0  0  0  0  0
   36.6040   30.9240   36.6070 H   0  0  0  0  0  0  0  0  0  0  0  0
   37.8930   28.2960   37.4240 H   0  0  0  0  0  0  0  0  0  0  0  0
   38.3980   30.1470   38.1540 N   0  0  0  0  0  0  0  0  0  0  0  0
   39.7260   29.8990   38.0280 C   0  0  0  0  0  0  0  0  0  0  0  0
   40.2600   29.0270   37.6210 H   0  0  0  0  0  0  0  0  0  0  0  0
   40.4510   30.9340   38.4970 N   0  0  0  0  0  0  0  0  0  0  0  0
   39.5990   31.8720   38.9360 C   0  0  0  0  0  0  0  0  0  0  0  0
   39.6460   33.1300   39.5140 C   0  0  0  0  0  0  0  0  0  0  0  0
   38.5490   33.8310   39.8470 N   0  0  0  0  0  0  0  0  0  0  0  0
   37.3310   33.3070   39.6180 C   0  0  0  0  0  0  0  0  0  0  0  0
   36.4270   33.8440   39.8740 H   0  0  0  0  0  0  0  0  0  0  0  0
   37.2370   32.0820   39.0550 N   0  0  0  0  0  0  0  0  0  0  0  0
   38.3310   31.3690   38.7170 C   0  0  0  0  0  0  0  0  0  0  0  0
   40.9350   33.6810   39.7550 N   0  0  0  0  0  0  0  0  0  0  0  0
   41.8110   34.0010   39.3220 H   0  0  0  0  0  0  0  0  0  0  0  0
   41.0210   33.8110   40.7940 H   0  0  0  0  0  0  0  0  0  0  0  0
   37.3230   26.1060   41.1760 C   0  0  0  0  0  0  0  0  0  0  0  0
   36.7360   26.7540   40.0720 C   0  0  0  0  0  0  0  0  0  0  0  0
   36.9880   28.1330   39.9310 C   0  0  0  0  0  0  0  0  0  0  0  0
   37.7820   28.7430   40.8710 N   0  0  0  0  0  0  0  0  0  0  0  0
   38.3140   28.0880   41.8960 C   0  0  0  0  0  0  0  0  0  0  0  0
   38.0880   26.7720   42.0540 N   0  0  0  0  0  0  0  0  0  0  0  0
   36.1120   26.2630   39.3390 H   0  0  0  0  0  0  0  0  0  0  0  0
   37.0480   24.6460   41.3150 C   0  0  0  0  0  0  0  0  0  0  0  0
   38.1900   23.8980   41.1400 F   0  0  0  0  0  0  0  0  0  0  0  0
   36.4650   24.4210   42.5620 F   0  0  0  0  0  0  0  0  0  0  0  0
   36.0700   24.2700   40.3750 F   0  0  0  0  0  0  0  0  0  0  0  0
   39.1700   28.7980   42.8950 C   0  0  0  0  0  0  0  0  0  0  0  0
   38.4410   29.6370   43.6800 F   0  0  0  0  0  0  0  0  0  0  0  0
   40.2000   29.4950   42.2230 F   0  0  0  0  0  0  0  0  0  0  0  0
   39.8610   27.9050   43.6800 F   0  0  0  0  0  0  0  0  0  0  0  0
  1  7  1  1  0  0  0
  1 33  1  0  0  0  0
  2  1  1  0  0  0  0
  2  8  1  0  0  0  0
  3 11  1  0  0  0  0
  3  2  1  0  0  0  0
  4  5  1  0  0  0  0
  4  3  1  0  0  0  0
  5 15  1  0  0  0  0
  5  6  1  0  0  0  0
  6 16  1  6  0  0  0
  6 17  1  0  0  0  0
  6  1  1  0  0  0  0
  9  2  1  0  0  0  0
 10  3  1  0  0  0  0
 12  4  1  0  0  0  0
 13  4  1  0  0  0  0
 14  5  1  0  0  0  0
 17 27  1  0  0  0  0
 18 17  1  0  0  0  0
 18 20  2  0  0  0  0
 19 18  1  0  0  0  0
 20 21  1  0  0  0  0
 21 22  1  0  0  0  0
 22 28  1  0  0  0  0
 22 23  2  0  0  0  0
 24 23  1  0  0  0  0
 24 25  1  0  0  0  0
 26 24  2  0  0  0  0
 27 21  2  0  0  0  0
 27 26  1  0  0  0  0
 28 30  1  0  0  0  0
 29 28  1  0  0  0  0
 31 38  1  0  0  0  0
 31 36  1  0  0  0  0
 32 31  2  0  0  0  0
 33 32  1  0  0  0  0
 33 34  2  0  0  0  0
 34 35  1  0  0  0  0
 35 36  2  0  0  0  0
 35 42  1  0  0  0  0
 37 32  1  0  0  0  0
 38 40  1  0  0  0  0
 39 38  1  0  0  0  0
 41 38  1  0  0  0  0
 42 43  1  0  0  0  0
 42 45  1  0  0  0  0
 44 42  1  0  0  0  0
M  END
>  <minimizedAffinity>
-6.7113905

$$$$

 OpenBabel03252502353D

 45 48  0  0  1  0  0  0  0  0999 V2000
   36.7750   28.2370   38.5880 C   0  0  2  0  0  0  0  0  0  0  0  0
   36.5950   27.1150   37.5520 C   0  0  0  0  0  0  0  0  0  0  0  0
   35.7180   27.7580   36.4610 C   0  0  0  0  0  0  0  0  0  0  0  0
   36.7030   28.6810   35.7500 C   0  0  0  0  0  0  0  0  0  0  0  0
   37.1560   29.7570   36.6570 C   0  0  0  0  0  0  0  0  0  0  0  0
   37.6040   29.3270   38.0200 C   0  0  1  0  0  0  0  0  0  0  0  0
   35.7440   28.6320   38.7920 H   0  0  0  0  0  0  0  0  0  0  0  0
   36.0780   26.2680   38.0200 H   0  0  0  0  0  0  0  0  0  0  0  0
   37.6050   26.9000   37.1650 H   0  0  0  0  0  0  0  0  0  0  0  0
   35.4120   26.9600   35.7830 H   0  0  0  0  0  0  0  0  0  0  0  0
   34.8990   28.3230   36.9290 H   0  0  0  0  0  0  0  0  0  0  0  0
   37.5540   28.0290   35.4620 H   0  0  0  0  0  0  0  0  0  0  0  0
   36.1790   29.1160   34.8980 H   0  0  0  0  0  0  0  0  0  0  0  0
   38.0530   30.2420   36.1770 H   0  0  0  0  0  0  0  0  0  0  0  0
   36.3970   30.5640   36.7040 H   0  0  0  0  0  0  0  0  0  0  0  0
   38.6640   28.9480   37.9240 H   0  0  0  0  0  0  0  0  0  0  0  0
   37.6590   30.4780   38.8540 N   0  0  0  0  0  0  0  0  0  0  0  0
   36.5710   31.0680   39.4090 C   0  0  0  0  0  0  0  0  0  0  0  0
   35.5020   30.8120   39.3480 H   0  0  0  0  0  0  0  0  0  0  0  0
   36.9330   32.1360   40.1470 N   0  0  0  0  0  0  0  0  0  0  0  0
   38.2670   32.2550   40.0780 C   0  0  0  0  0  0  0  0  0  0  0  0
   39.2620   33.0840   40.5670 C   0  0  0  0  0  0  0  0  0  0  0  0
   40.5670   32.9130   40.2920 N   0  0  0  0  0  0  0  0  0  0  0  0
   40.9510   31.8940   39.5030 C   0  0  0  0  0  0  0  0  0  0  0  0
   41.9920   31.7280   39.2610 H   0  0  0  0  0  0  0  0  0  0  0  0
   40.0130   31.0590   39.0040 N   0  0  0  0  0  0  0  0  0  0  0  0
   38.7020   31.2200   39.2730 C   0  0  0  0  0  0  0  0  0  0  0  0
   38.8530   34.1610   41.4010 N   0  0  0  0  0  0  0  0  0  0  0  0
   38.3990   34.4190   42.2870 H   0  0  0  0  0  0  0  0  0  0  0  0
   39.1280   35.0480   40.9090 H   0  0  0  0  0  0  0  0  0  0  0  0
   38.4700   27.6320   41.8790 C   0  0  0  0  0  0  0  0  0  0  0  0
   38.0100   28.3430   40.7540 C   0  0  0  0  0  0  0  0  0  0  0  0
   37.2890   27.6160   39.7860 C   0  0  0  0  0  0  0  0  0  0  0  0
   37.0880   26.2760   40.0060 N   0  0  0  0  0  0  0  0  0  0  0  0
   37.5410   25.6470   41.0840 C   0  0  0  0  0  0  0  0  0  0  0  0
   38.2330   26.3190   42.0230 N   0  0  0  0  0  0  0  0  0  0  0  0
   38.1760   29.4000   40.5920 H   0  0  0  0  0  0  0  0  0  0  0  0
   39.2320   28.4130   42.8960 C   0  0  0  0  0  0  0  0  0  0  0  0
   38.3980   29.2010   43.6570 F   0  0  0  0  0  0  0  0  0  0  0  0
   39.9660   27.5230   43.6800 F   0  0  0  0  0  0  0  0  0  0  0  0
   40.1910   29.2090   42.2410 F   0  0  0  0  0  0  0  0  0  0  0  0
   37.2980   24.1850   41.2760 C   0  0  0  0  0  0  0  0  0  0  0  0
   36.0910   23.8040   40.7740 F   0  0  0  0  0  0  0  0  0  0  0  0
   37.4010   23.8660   42.6490 F   0  0  0  0  0  0  0  0  0  0  0  0
   38.3000   23.4360   40.7070 F   0  0  0  0  0  0  0  0  0  0  0  0
  1  7  1  1  0  0  0
  1 33  1  0  0  0  0
  2  8  1  0  0  0  0
  2  1  1  0  0  0  0
  3 11  1  0  0  0  0
  3  2  1  0  0  0  0
  4  3  1  0  0  0  0
  4  5  1  0  0  0  0
  5 15  1  0  0  0  0
  5  6  1  0  0  0  0
  6 16  1  6  0  0  0
  6  1  1  0  0  0  0
  6 17  1  0  0  0  0
  9  2  1  0  0  0  0
 10  3  1  0  0  0  0
 12  4  1  0  0  0  0
 13  4  1  0  0  0  0
 14  5  1  0  0  0  0
 17 27  1  0  0  0  0
 17 18  1  0  0  0  0
 18 20  2  0  0  0  0
 19 18  1  0  0  0  0
 21 20  1  0  0  0  0
 21 22  1  0  0  0  0
 22 28  1  0  0  0  0
 23 22  2  0  0  0  0
 24 23  1  0  0  0  0
 25 24  1  0  0  0  0
 26 27  1  0  0  0  0
 26 24  2  0  0  0  0
 27 21  2  0  0  0  0
 28 29  1  0  0  0  0
 30 28  1  0  0  0  0
 31 36  1  0  0  0  0
 31 38  1  0  0  0  0
 32 31  2  0  0  0  0
 33 34  2  0  0  0  0
 33 32  1  0  0  0  0
 34 35  1  0  0  0  0
 35 42  1  0  0  0  0
 35 36  2  0  0  0  0
 37 32  1  0  0  0  0
 38 39  1  0  0  0  0
 38 40  1  0  0  0  0
 41 38  1  0  0  0  0
 42 44  1  0  0  0  0
 43 42  1  0  0  0  0
 45 42  1  0  0  0  0
M  END
>  <minimizedAffinity>
-6.52517462

$$$$

 OpenBabel03252502353D

 45 48  0  0  1  0  0  0  0  0999 V2000
   36.3420   28.8250   38.7740 C   0  0  2  0  0  0  0  0  0  0  0  0
   35.6380   27.8030   37.8670 C   0  0  0  0  0  0  0  0  0  0  0  0
   34.7720   28.6730   36.9360 C   0  0  0  0  0  0  0  0  0  0  0  0
   35.8070   29.2680   35.9860 C   0  0  0  0  0  0  0  0  0  0  0  0
   36.7280   30.1660   36.7160 C   0  0  0  0  0  0  0  0  0  0  0  0
   37.3100   29.6250   37.9850 C   0  0  1  0  0  0  0  0  0  0  0  0
   35.5330   29.5040   39.1560 H   0  0  0  0  0  0  0  0  0  0  0  0
   35.0110   27.1450   38.4810 H   0  0  0  0  0  0  0  0  0  0  0  0
   36.4390   27.3030   37.3000 H   0  0  0  0  0  0  0  0  0  0  0  0
   34.1160   27.9990   36.3840 H   0  0  0  0  0  0  0  0  0  0  0  0
   34.2650   29.4530   37.5220 H   0  0  0  0  0  0  0  0  0  0  0  0
   36.3570   28.3960   35.5740 H   0  0  0  0  0  0  0  0  0  0  0  0
   35.2620   29.8360   35.2310 H   0  0  0  0  0  0  0  0  0  0  0  0
   37.6040   30.3680   36.0360 H   0  0  0  0  0  0  0  0  0  0  0  0
   36.2580   31.1590   36.8640 H   0  0  0  0  0  0  0  0  0  0  0  0
   38.1730   28.9540   37.7030 H   0  0  0  0  0  0  0  0  0  0  0  0
   37.8630   30.7120   38.7180 N   0  0  0  0  0  0  0  0  0  0  0  0
   37.1400   31.7540   39.1980 C   0  0  0  0  0  0  0  0  0  0  0  0
   36.0630   31.9720   39.1370 H   0  0  0  0  0  0  0  0  0  0  0  0
   37.9350   32.6260   39.8490 N   0  0  0  0  0  0  0  0  0  0  0  0
   39.1910   32.1600   39.7980 C   0  0  0  0  0  0  0  0  0  0  0  0
   40.4530   32.5260   40.2350 C   0  0  0  0  0  0  0  0  0  0  0  0
   41.5560   31.7930   40.0020 N   0  0  0  0  0  0  0  0  0  0  0  0
   41.4560   30.6430   39.3120 C   0  0  0  0  0  0  0  0  0  0  0  0
   42.3240   30.0300   39.1060 H   0  0  0  0  0  0  0  0  0  0  0  0
   40.2440   30.2470   38.8660 N   0  0  0  0  0  0  0  0  0  0  0  0
   39.1310   30.9730   39.0940 C   0  0  0  0  0  0  0  0  0  0  0  0
   40.5560   33.7420   40.9640 N   0  0  0  0  0  0  0  0  0  0  0  0
   40.2700   34.2440   41.8150 H   0  0  0  0  0  0  0  0  0  0  0  0
   41.1730   34.3820   40.4040 H   0  0  0  0  0  0  0  0  0  0  0  0
   37.2430   26.0850   41.1720 C   0  0  0  0  0  0  0  0  0  0  0  0
   36.6560   26.7040   40.0520 C   0  0  0  0  0  0  0  0  0  0  0  0
   36.8980   28.0820   39.8810 C   0  0  0  0  0  0  0  0  0  0  0  0
   37.6820   28.7190   40.8110 N   0  0  0  0  0  0  0  0  0  0  0  0
   38.2160   28.0910   41.8530 C   0  0  0  0  0  0  0  0  0  0  0  0
   37.9990   26.7770   42.0390 N   0  0  0  0  0  0  0  0  0  0  0  0
   36.0390   26.1920   39.3270 H   0  0  0  0  0  0  0  0  0  0  0  0
   36.9800   24.6270   41.3430 C   0  0  0  0  0  0  0  0  0  0  0  0
   38.1270   23.8830   41.1770 F   0  0  0  0  0  0  0  0  0  0  0  0
   36.4040   24.4240   42.5970 F   0  0  0  0  0  0  0  0  0  0  0  0
   36.0000   24.2250   40.4150 F   0  0  0  0  0  0  0  0  0  0  0  0
   39.0610   28.8300   42.8390 C   0  0  0  0  0  0  0  0  0  0  0  0
   39.8430   27.9860   43.5660 F   0  0  0  0  0  0  0  0  0  0  0  0
   38.2340   29.6090   43.6790 F   0  0  0  0  0  0  0  0  0  0  0  0
   39.8440   29.7720   42.2140 F   0  0  0  0  0  0  0  0  0  0  0  0
  1  7  1  1  0  0  0
  1 33  1  0  0  0  0
  2  8  1  0  0  0  0
  2  1  1  0  0  0  0
  3 11  1  0  0  0  0
  3  2  1  0  0  0  0
  4  5  1  0  0  0  0
  4  3  1  0  0  0  0
  5 15  1  0  0  0  0
  5  6  1  0  0  0  0
  6 16  1  6  0  0  0
  6 17  1  0  0  0  0
  6  1  1  0  0  0  0
  9  2  1  0  0  0  0
 10  3  1  0  0  0  0
 12  4  1  0  0  0  0
 13  4  1  0  0  0  0
 14  5  1  0  0  0  0
 17 27  1  0  0  0  0
 17 18  1  0  0  0  0
 18 20  2  0  0  0  0
 19 18  1  0  0  0  0
 21 20  1  0  0  0  0
 21 22  1  0  0  0  0
 22 28  1  0  0  0  0
 23 22  2  0  0  0  0
 24 23  1  0  0  0  0
 25 24  1  0  0  0  0
 26 27  1  0  0  0  0
 26 24  2  0  0  0  0
 27 21  2  0  0  0  0
 28 29  1  0  0  0  0
 30 28  1  0  0  0  0
 31 38  1  0  0  0  0
 31 36  1  0  0  0  0
 32 31  2  0  0  0  0
 33 32  1  0  0  0  0
 33 34  2  0  0  0  0
 34 35  1  0  0  0  0
 35 36  2  0  0  0  0
 35 42  1  0  0  0  0
 37 32  1  0  0  0  0
 38 40  1  0  0  0  0
 39 38  1  0  0  0  0
 41 38  1  0  0  0  0
 42 43  1  0  0  0  0
 42 44  1  0  0  0  0
 45 42  1  0  0  0  0
M  END
>  <minimizedAffinity>
-6.51882124

$$$$

 OpenBabel03252502353D

 45 48  0  0  1  0  0  0  0  0999 V2000
   36.0120   28.6550   38.2290 C   0  0  2  0  0  0  0  0  0  0  0  0
   34.8080   27.9750   37.5550 C   0  0  0  0  0  0  0  0  0  0  0  0
   34.1960   29.0900   36.6860 C   0  0  0  0  0  0  0  0  0  0  0  0
   35.1850   29.1850   35.5280 C   0  0  0  0  0  0  0  0  0  0  0  0
   36.5020   29.6580   36.0070 C   0  0  0  0  0  0  0  0  0  0  0  0
   37.0500   28.9700   37.2190 C   0  0  1  0  0  0  0  0  0  0  0  0
   35.6190   29.6140   38.6600 H   0  0  0  0  0  0  0  0  0  0  0  0
   34.0990   27.6460   38.3250 H   0  0  0  0  0  0  0  0  0  0  0  0
   35.2300   27.1760   36.9240 H   0  0  0  0  0  0  0  0  0  0  0  0
   33.2370   28.7200   36.3170 H   0  0  0  0  0  0  0  0  0  0  0  0
   34.1520   30.0270   37.2590 H   0  0  0  0  0  0  0  0  0  0  0  0
   35.2630   28.1510   35.1290 H   0  0  0  0  0  0  0  0  0  0  0  0
   34.7760   29.8990   34.8130 H   0  0  0  0  0  0  0  0  0  0  0  0
   37.2440   29.4660   35.1810 H   0  0  0  0  0  0  0  0  0  0  0  0
   36.4940   30.7610   36.1220 H   0  0  0  0  0  0  0  0  0  0  0  0
   37.5130   27.9980   36.8760 H   0  0  0  0  0  0  0  0  0  0  0  0
   38.1100   29.7640   37.7380 N   0  0  0  0  0  0  0  0  0  0  0  0
   39.4210   29.4210   37.6720 C   0  0  0  0  0  0  0  0  0  0  0  0
   39.9130   28.5360   37.2410 H   0  0  0  0  0  0  0  0  0  0  0  0
   40.1910   30.3670   38.2460 N   0  0  0  0  0  0  0  0  0  0  0  0
   39.3850   31.3400   38.6950 C   0  0  0  0  0  0  0  0  0  0  0  0
   39.4900   32.5540   39.3530 C   0  0  0  0  0  0  0  0  0  0  0  0
   38.4290   33.3180   39.6680 N   0  0  0  0  0  0  0  0  0  0  0  0
   37.1930   32.9040   39.3370 C   0  0  0  0  0  0  0  0  0  0  0  0
   36.3170   33.4940   39.5750 H   0  0  0  0  0  0  0  0  0  0  0  0
   37.0430   31.7260   38.6930 N   0  0  0  0  0  0  0  0  0  0  0  0
   38.0990   30.9520   38.3730 C   0  0  0  0  0  0  0  0  0  0  0  0
   40.7990   32.9880   39.7020 N   0  0  0  0  0  0  0  0  0  0  0  0
   41.7210   33.2640   39.3410 H   0  0  0  0  0  0  0  0  0  0  0  0
   40.8310   33.0490   40.7500 H   0  0  0  0  0  0  0  0  0  0  0  0
   36.9240   27.3040   41.6070 C   0  0  0  0  0  0  0  0  0  0  0  0
   36.4990   28.2360   40.6400 C   0  0  0  0  0  0  0  0  0  0  0  0
   36.4270   27.7870   39.3070 C   0  0  0  0  0  0  0  0  0  0  0  0
   36.7730   26.4850   39.0450 N   0  0  0  0  0  0  0  0  0  0  0  0
   37.1680   25.6420   39.9920 C   0  0  0  0  0  0  0  0  0  0  0  0
   37.2460   26.0450   41.2730 N   0  0  0  0  0  0  0  0  0  0  0  0
   36.2300   29.2600   40.8590 H   0  0  0  0  0  0  0  0  0  0  0  0
   36.9980   27.7910   43.0160 C   0  0  0  0  0  0  0  0  0  0  0  0
   37.1920   29.1530   43.0700 F   0  0  0  0  0  0  0  0  0  0  0  0
   35.8340   27.4050   43.6800 F   0  0  0  0  0  0  0  0  0  0  0  0
   38.0430   27.1230   43.6800 F   0  0  0  0  0  0  0  0  0  0  0  0
   37.5360   24.2330   39.6560 C   0  0  0  0  0  0  0  0  0  0  0  0
   37.0200   23.3480   40.5530 F   0  0  0  0  0  0  0  0  0  0  0  0
   38.9430   24.1180   39.5790 F   0  0  0  0  0  0  0  0  0  0  0  0
   37.1280   23.9030   38.3850 F   0  0  0  0  0  0  0  0  0  0  0  0
  1  7  1  1  0  0  0
  1 33  1  0  0  0  0
  2  1  1  0  0  0  0
  2  8  1  0  0  0  0
  3 11  1  0  0  0  0
  3  2  1  0  0  0  0
  4  5  1  0  0  0  0
  4  3  1  0  0  0  0
  5 15  1  0  0  0  0
  5  6  1  0  0  0  0
  6 16  1  6  0  0  0
  6 17  1  0  0  0  0
  6  1  1  0  0  0  0
  9  2  1  0  0  0  0
 10  3  1  0  0  0  0
 12  4  1  0  0  0  0
 13  4  1  0  0  0  0
 14  5  1  0  0  0  0
 17 27  1  0  0  0  0
 18 17  1  0  0  0  0
 18 20  2  0  0  0  0
 19 18  1  0  0  0  0
 20 21  1  0  0  0  0
 21 22  1  0  0  0  0
 22 23  2  0  0  0  0
 22 28  1  0  0  0  0
 24 25  1  0  0  0  0
 24 23  1  0  0  0  0
 26 24  2  0  0  0  0
 27 26  1  0  0  0  0
 27 21  2  0  0  0  0
 28 30  1  0  0  0  0
 29 28  1  0  0  0  0
 31 38  1  0  0  0  0
 32 37  1  0  0  0  0
 32 31  2  0  0  0  0
 33 32  1  0  0  0  0
 34 33  2  0  0  0  0
 34 35  1  0  0  0  0
 35 36  2  0  0  0  0
 36 31  1  0  0  0  0
 38 39  1  0  0  0  0
 38 40  1  0  0  0  0
 38 41  1  0  0  0  0
 42 35  1  0  0  0  0
 42 43  1  0  0  0  0
 44 42  1  0  0  0  0
 45 42  1  0  0  0  0
M  END
>  <minimizedAffinity>
-6.33713198

$$$$

 OpenBabel03252502353D

 45 48  0  0  1  0  0  0  0  0999 V2000
   38.0440   27.8730   40.9520 C   0  0  2  0  0  0  0  0  0  0  0  0
   37.1270   26.6580   41.1650 C   0  0  0  0  0  0  0  0  0  0  0  0
   37.3400   26.2900   42.6460 C   0  0  0  0  0  0  0  0  0  0  0  0
   36.5710   27.3900   43.3720 C   0  0  0  0  0  0  0  0  0  0  0  0
   37.2010   28.7070   43.1380 C   0  0  0  0  0  0  0  0  0  0  0  0
   37.5340   29.0370   41.7150 C   0  0  1  0  0  0  0  0  0  0  0  0
   39.0450   27.5760   41.3660 H   0  0  0  0  0  0  0  0  0  0  0  0
   37.4490   25.8400   40.5090 H   0  0  0  0  0  0  0  0  0  0  0  0
   36.1010   27.0240   40.9980 H   0  0  0  0  0  0  0  0  0  0  0  0
   36.8490   25.3300   42.8130 H   0  0  0  0  0  0  0  0  0  0  0  0
   38.4130   26.3210   42.8850 H   0  0  0  0  0  0  0  0  0  0  0  0
   35.5490   27.3630   42.9370 H   0  0  0  0  0  0  0  0  0  0  0  0
   36.5990   27.1530   44.4360 H   0  0  0  0  0  0  0  0  0  0  0  0
   36.4650   29.4920   43.4720 H   0  0  0  0  0  0  0  0  0  0  0  0
   38.0730   28.8400   43.8100 H   0  0  0  0  0  0  0  0  0  0  0  0
   36.5840   29.3930   41.2190 H   0  0  0  0  0  0  0  0  0  0  0  0
   38.4310   30.1410   41.7140 N   0  0  0  0  0  0  0  0  0  0  0  0
   39.5980   30.1750   42.4050 C   0  0  0  0  0  0  0  0  0  0  0  0
   40.0700   29.4270   43.0590 H   0  0  0  0  0  0  0  0  0  0  0  0
   40.2320   31.3480   42.2100 N   0  0  0  0  0  0  0  0  0  0  0  0
   39.4810   32.0950   41.3870 C   0  0  0  0  0  0  0  0  0  0  0  0
   39.5200   33.3450   40.7940 C   0  0  0  0  0  0  0  0  0  0  0  0
   38.5540   33.8070   39.9810 N   0  0  0  0  0  0  0  0  0  0  0  0
   37.4850   33.0350   39.7150 C   0  0  0  0  0  0  0  0  0  0  0  0
   36.6900   33.3750   39.0650 H   0  0  0  0  0  0  0  0  0  0  0  0
   37.4060   31.8070   40.2720 N   0  0  0  0  0  0  0  0  0  0  0  0
   38.3680   31.3330   41.0890 C   0  0  0  0  0  0  0  0  0  0  0  0
   40.6510   34.1590   41.0770 N   0  0  0  0  0  0  0  0  0  0  0  0
   41.6720   34.2440   40.9950 H   0  0  0  0  0  0  0  0  0  0  0  0
   40.2940   35.0170   41.5680 H   0  0  0  0  0  0  0  0  0  0  0  0
   37.3000   28.6360   37.3560 C   0  0  0  0  0  0  0  0  0  0  0  0
   37.0740   28.4960   38.7390 C   0  0  0  0  0  0  0  0  0  0  0  0
   38.1590   28.0600   39.5240 C   0  0  0  0  0  0  0  0  0  0  0  0
   39.3500   27.8040   38.8920 N   0  0  0  0  0  0  0  0  0  0  0  0
   39.5160   27.9510   37.5830 C   0  0  0  0  0  0  0  0  0  0  0  0
   38.4950   28.3660   36.8100 N   0  0  0  0  0  0  0  0  0  0  0  0
   36.1300   28.7000   39.2250 H   0  0  0  0  0  0  0  0  0  0  0  0
   36.1430   29.0980   36.5350 C   0  0  0  0  0  0  0  0  0  0  0  0
   35.6100   28.0700   35.7890 F   0  0  0  0  0  0  0  0  0  0  0  0
   35.1960   29.6700   37.3840 F   0  0  0  0  0  0  0  0  0  0  0  0
   36.5650   30.1430   35.6910 F   0  0  0  0  0  0  0  0  0  0  0  0
   40.8330   27.6570   36.9410 C   0  0  0  0  0  0  0  0  0  0  0  0
   40.7800   26.5380   36.1670 F   0  0  0  0  0  0  0  0  0  0  0  0
   41.8280   27.5400   37.9370 F   0  0  0  0  0  0  0  0  0  0  0  0
   41.2690   28.7240   36.1910 F   0  0  0  0  0  0  0  0  0  0  0  0
  1  2  1  0  0  0  0
  1  7  1  1  0  0  0
  1  6  1  0  0  0  0
  2  3  1  0  0  0  0
  3 10  1  0  0  0  0
  3 11  1  0  0  0  0
  3  4  1  0  0  0  0
  4 13  1  0  0  0  0
  5  4  1  0  0  0  0
  5 14  1  0  0  0  0
  5 15  1  0  0  0  0
  6 16  1  6  0  0  0
  6  5  1  0  0  0  0
  8  2  1  0  0  0  0
  9  2  1  0  0  0  0
 12  4  1  0  0  0  0
 17  6  1  0  0  0  0
 17 18  1  0  0  0  0
 18 19  1  0  0  0  0
 20 18  2  0  0  0  0
 21 20  1  0  0  0  0
 22 28  1  0  0  0  0
 22 21  2  0  0  0  0
 23 22  1  0  0  0  0
 24 23  2  0  0  0  0
 24 26  1  0  0  0  0
 25 24  1  0  0  0  0
 26 27  2  0  0  0  0
 27 21  1  0  0  0  0
 27 17  1  0  0  0  0
 28 30  1  0  0  0  0
 29 28  1  0  0  0  0
 31 32  1  0  0  0  0
 32 37  1  0  0  0  0
 32 33  2  0  0  0  0
 33  1  1  0  0  0  0
 34 33  1  0  0  0  0
 35 34  2  0  0  0  0
 36 31  2  0  0  0  0
 36 35  1  0  0  0  0
 38 31  1  0  0  0  0
 38 40  1  0  0  0  0
 39 38  1  0  0  0  0
 41 38  1  0  0  0  0
 42 35  1  0  0  0  0
 42 44  1  0  0  0  0
 43 42  1  0  0  0  0
 45 42  1  0  0  0  0
M  END
>  <minimizedAffinity>
-6.29752541

$$$$

 OpenBabel03252502353D

 45 48  0  0  1  0  0  0  0  0999 V2000
   36.0400   28.4510   38.2460 C   0  0  2  0  0  0  0  0  0  0  0  0
   34.8660   27.7860   37.5110 C   0  0  0  0  0  0  0  0  0  0  0  0
   34.2450   28.9340   36.6920 C   0  0  0  0  0  0  0  0  0  0  0  0
   35.2540   29.1150   35.5630 C   0  0  0  0  0  0  0  0  0  0  0  0
   36.5500   29.5880   36.0940 C   0  0  0  0  0  0  0  0  0  0  0  0
   37.0910   28.8450   37.2760 C   0  0  1  0  0  0  0  0  0  0  0  0
   35.6180   29.3770   38.7210 H   0  0  0  0  0  0  0  0  0  0  0  0
   34.1500   27.3990   38.2460 H   0  0  0  0  0  0  0  0  0  0  0  0
   35.3170   27.0320   36.8450 H   0  0  0  0  0  0  0  0  0  0  0  0
   33.3030   28.5650   36.2840 H   0  0  0  0  0  0  0  0  0  0  0  0
   34.1700   29.8360   37.3170 H   0  0  0  0  0  0  0  0  0  0  0  0
   35.3630   28.1080   35.1080 H   0  0  0  0  0  0  0  0  0  0  0  0
   34.8430   29.8600   34.8800 H   0  0  0  0  0  0  0  0  0  0  0  0
   37.3130   29.4600   35.2740 H   0  0  0  0  0  0  0  0  0  0  0  0
   36.5160   30.6830   36.2700 H   0  0  0  0  0  0  0  0  0  0  0  0
   37.5820   27.9050   36.8900 H   0  0  0  0  0  0  0  0  0  0  0  0
   38.1230   29.6310   37.8610 N   0  0  0  0  0  0  0  0  0  0  0  0
   39.4430   29.3260   37.7930 C   0  0  0  0  0  0  0  0  0  0  0  0
   39.9640   28.4830   37.3150 H   0  0  0  0  0  0  0  0  0  0  0  0
   40.1790   30.2530   38.4380 N   0  0  0  0  0  0  0  0  0  0  0  0
   39.3430   31.1750   38.9350 C   0  0  0  0  0  0  0  0  0  0  0  0
   39.4060   32.3470   39.6700 C   0  0  0  0  0  0  0  0  0  0  0  0
   38.3220   33.0620   40.0160 N   0  0  0  0  0  0  0  0  0  0  0  0
   37.1010   32.6400   39.6410 C   0  0  0  0  0  0  0  0  0  0  0  0
   36.2070   33.1910   39.9020 H   0  0  0  0  0  0  0  0  0  0  0  0
   36.9910   31.5010   38.9220 N   0  0  0  0  0  0  0  0  0  0  0  0
   38.0710   30.7760   38.5690 C   0  0  0  0  0  0  0  0  0  0  0  0
   40.6980   32.7910   40.0660 N   0  0  0  0  0  0  0  0  0  0  0  0
   41.6180   33.1120   39.7370 H   0  0  0  0  0  0  0  0  0  0  0  0
   40.7140   32.7860   41.1160 H   0  0  0  0  0  0  0  0  0  0  0  0
   37.1540   25.3840   40.0950 C   0  0  0  0  0  0  0  0  0  0  0  0
   36.7690   26.1880   39.0050 C   0  0  0  0  0  0  0  0  0  0  0  0
   36.4540   27.5340   39.2820 C   0  0  0  0  0  0  0  0  0  0  0  0
   36.5430   27.9620   40.5830 N   0  0  0  0  0  0  0  0  0  0  0  0
   36.9120   27.1640   41.5790 C   0  0  0  0  0  0  0  0  0  0  0  0
   37.2170   25.8760   41.3410 N   0  0  0  0  0  0  0  0  0  0  0  0
   36.7030   25.8390   37.9830 H   0  0  0  0  0  0  0  0  0  0  0  0
   37.4850   23.9610   39.7890 C   0  0  0  0  0  0  0  0  0  0  0  0
   38.6050   23.8620   38.9940 F   0  0  0  0  0  0  0  0  0  0  0  0
   37.6380   23.2730   40.9930 F   0  0  0  0  0  0  0  0  0  0  0  0
   36.3820   23.3580   39.1550 F   0  0  0  0  0  0  0  0  0  0  0  0
   36.9910   27.6780   42.9800 C   0  0  0  0  0  0  0  0  0  0  0  0
   35.8500   27.4210   43.6770 F   0  0  0  0  0  0  0  0  0  0  0  0
   37.2750   29.0620   42.9600 F   0  0  0  0  0  0  0  0  0  0  0  0
   38.0730   27.1480   43.6420 F   0  0  0  0  0  0  0  0  0  0  0  0
  1  7  1  1  0  0  0
  1 33  1  0  0  0  0
  2  8  1  0  0  0  0
  2  1  1  0  0  0  0
  3 11  1  0  0  0  0
  3  2  1  0  0  0  0
  4  5  1  0  0  0  0
  4  3  1  0  0  0  0
  5 15  1  0  0  0  0
  5  6  1  0  0  0  0
  6 16  1  6  0  0  0
  6 17  1  0  0  0  0
  6  1  1  0  0  0  0
  9  2  1  0  0  0  0
 10  3  1  0  0  0  0
 12  4  1  0  0  0  0
 13  4  1  0  0  0  0
 14  5  1  0  0  0  0
 17 27  1  0  0  0  0
 18 17  1  0  0  0  0
 18 20  2  0  0  0  0
 19 18  1  0  0  0  0
 20 21  1  0  0  0  0
 21 22  1  0  0  0  0
 22 23  2  0  0  0  0
 22 28  1  0  0  0  0
 24 25  1  0  0  0  0
 24 23  1  0  0  0  0
 26 24  2  0  0  0  0
 27 26  1  0  0  0  0
 27 21  2  0  0  0  0
 28 30  1  0  0  0  0
 29 28  1  0  0  0  0
 31 36  1  0  0  0  0
 32 33  1  0  0  0  0
 32 31  2  0  0  0  0
 33 34  2  0  0  0  0
 34 35  1  0  0  0  0
 35 42  1  0  0  0  0
 36 35  2  0  0  0  0
 37 32  1  0  0  0  0
 38 31  1  0  0  0  0
 38 40  1  0  0  0  0
 39 38  1  0  0  0  0
 41 38  1  0  0  0  0
 42 45  1  0  0  0  0
 42 43  1  0  0  0  0
 44 42  1  0  0  0  0
M  END
>  <minimizedAffinity>
-6.2837081

$$$$

 OpenBabel03252502353D

 45 48  0  0  1  0  0  0  0  0999 V2000
   38.1020   27.8130   41.0800 C   0  0  2  0  0  0  0  0  0  0  0  0
   37.2050   26.5880   41.3180 C   0  0  0  0  0  0  0  0  0  0  0  0
   37.3960   26.2760   42.8140 C   0  0  0  0  0  0  0  0  0  0  0  0
   36.5900   27.3840   43.4860 C   0  0  0  0  0  0  0  0  0  0  0  0
   37.1980   28.7050   43.2180 C   0  0  0  0  0  0  0  0  0  0  0  0
   37.5530   28.9920   41.7920 C   0  0  1  0  0  0  0  0  0  0  0  0
   39.1000   27.5510   41.5240 H   0  0  0  0  0  0  0  0  0  0  0  0
   37.5570   25.7540   40.6980 H   0  0  0  0  0  0  0  0  0  0  0  0
   36.1750   26.9270   41.1190 H   0  0  0  0  0  0  0  0  0  0  0  0
   36.9200   25.3130   43.0060 H   0  0  0  0  0  0  0  0  0  0  0  0
   38.4630   26.3380   43.0730 H   0  0  0  0  0  0  0  0  0  0  0  0
   35.5780   27.3210   43.0330 H   0  0  0  0  0  0  0  0  0  0  0  0
   36.6010   27.1860   44.5580 H   0  0  0  0  0  0  0  0  0  0  0  0
   36.4400   29.4860   43.5110 H   0  0  0  0  0  0  0  0  0  0  0  0
   38.0530   28.8790   43.9030 H   0  0  0  0  0  0  0  0  0  0  0  0
   36.6060   29.3110   41.2650 H   0  0  0  0  0  0  0  0  0  0  0  0
   38.4270   30.1140   41.7690 N   0  0  0  0  0  0  0  0  0  0  0  0
   39.5900   30.1880   42.4650 C   0  0  0  0  0  0  0  0  0  0  0  0
   40.0730   29.4640   43.1380 H   0  0  0  0  0  0  0  0  0  0  0  0
   40.2020   31.3690   42.2460 N   0  0  0  0  0  0  0  0  0  0  0  0
   39.4400   32.0810   41.4020 C   0  0  0  0  0  0  0  0  0  0  0  0
   39.4560   33.3180   40.7800 C   0  0  0  0  0  0  0  0  0  0  0  0
   38.4850   33.7410   39.9520 N   0  0  0  0  0  0  0  0  0  0  0  0
   37.4340   32.9410   39.6990 C   0  0  0  0  0  0  0  0  0  0  0  0
   36.6350   33.2500   39.0380 H   0  0  0  0  0  0  0  0  0  0  0  0
   37.3760   31.7250   40.2840 N   0  0  0  0  0  0  0  0  0  0  0  0
   38.3440   31.2900   41.1160 C   0  0  0  0  0  0  0  0  0  0  0  0
   40.5690   34.1610   41.0500 N   0  0  0  0  0  0  0  0  0  0  0  0
   41.5890   34.2640   40.9710 H   0  0  0  0  0  0  0  0  0  0  0  0
   40.1930   35.0220   41.5190 H   0  0  0  0  0  0  0  0  0  0  0  0
   39.4570   27.7950   37.5830 C   0  0  0  0  0  0  0  0  0  0  0  0
   39.4330   27.6100   38.9790 C   0  0  0  0  0  0  0  0  0  0  0  0
   38.2420   27.9530   39.6490 C   0  0  0  0  0  0  0  0  0  0  0  0
   37.1980   28.4380   38.9020 N   0  0  0  0  0  0  0  0  0  0  0  0
   37.2680   28.5950   37.5850 C   0  0  0  0  0  0  0  0  0  0  0  0
   38.3940   28.2760   36.9210 N   0  0  0  0  0  0  0  0  0  0  0  0
   40.2620   27.2270   39.5570 H   0  0  0  0  0  0  0  0  0  0  0  0
   40.7240   27.4300   36.8840 C   0  0  0  0  0  0  0  0  0  0  0  0
   40.5610   26.3140   36.0930 F   0  0  0  0  0  0  0  0  0  0  0  0
   41.1580   28.5310   36.1480 F   0  0  0  0  0  0  0  0  0  0  0  0
   41.7300   27.2040   37.8420 F   0  0  0  0  0  0  0  0  0  0  0  0
   36.1040   29.1300   36.8150 C   0  0  0  0  0  0  0  0  0  0  0  0
   35.5170   28.1670   36.0530 F   0  0  0  0  0  0  0  0  0  0  0  0
   36.5230   30.2210   36.0230 F   0  0  0  0  0  0  0  0  0  0  0  0
   35.1730   29.6950   37.6540 F   0  0  0  0  0  0  0  0  0  0  0  0
  1  2  1  0  0  0  0
  1  7  1  1  0  0  0
  1  6  1  0  0  0  0
  2  3  1  0  0  0  0
  3 10  1  0  0  0  0
  3 11  1  0  0  0  0
  3  4  1  0  0  0  0
  4 13  1  0  0  0  0
  5  4  1  0  0  0  0
  5 14  1  0  0  0  0
  5 15  1  0  0  0  0
  6 16  1  6  0  0  0
  6  5  1  0  0  0  0
  8  2  1  0  0  0  0
  9  2  1  0  0  0  0
 12  4  1  0  0  0  0
 17  6  1  0  0  0  0
 17 18  1  0  0  0  0
 18 19  1  0  0  0  0
 20 18  2  0  0  0  0
 21 20  1  0  0  0  0
 22 28  1  0  0  0  0
 22 21  2  0  0  0  0
 23 22  1  0  0  0  0
 24 23  2  0  0  0  0
 24 26  1  0  0  0  0
 25 24  1  0  0  0  0
 26 27  2  0  0  0  0
 27 21  1  0  0  0  0
 27 17  1  0  0  0  0
 28 30  1  0  0  0  0
 29 28  1  0  0  0  0
 31 32  1  0  0  0  0
 32 37  1  0  0  0  0
 32 33  2  0  0  0  0
 33  1  1  0  0  0  0
 34 33  1  0  0  0  0
 35 34  2  0  0  0  0
 36 31  2  0  0  0  0
 36 35  1  0  0  0  0
 38 31  1  0  0  0  0
 38 41  1  0  0  0  0
 39 38  1  0  0  0  0
 40 38  1  0  0  0  0
 42 35  1  0  0  0  0
 42 45  1  0  0  0  0
 43 42  1  0  0  0  0
 44 42  1  0  0  0  0
M  END
>  <minimizedAffinity>
-6.25841379

$$$$

 OpenBabel03252502353D

 45 48  0  0  1  0  0  0  0  0999 V2000
   37.3390   27.7710   40.8420 C   0  0  2  0  0  0  0  0  0  0  0  0
   37.0120   26.9020   42.0680 C   0  0  0  0  0  0  0  0  0  0  0  0
   38.1040   27.2780   43.0880 C   0  0  0  0  0  0  0  0  0  0  0  0
   37.6540   28.6580   43.5570 C   0  0  0  0  0  0  0  0  0  0  0  0
   37.7180   29.6320   42.4470 C   0  0  0  0  0  0  0  0  0  0  0  0
   37.1000   29.2010   41.1520 C   0  0  1  0  0  0  0  0  0  0  0  0
   38.4340   27.6190   40.6440 H   0  0  0  0  0  0  0  0  0  0  0  0
   37.0840   25.8430   41.7920 H   0  0  0  0  0  0  0  0  0  0  0  0
   36.0210   27.2370   42.4160 H   0  0  0  0  0  0  0  0  0  0  0  0
   38.0300   26.5700   43.9140 H   0  0  0  0  0  0  0  0  0  0  0  0
   39.0820   27.3210   42.5860 H   0  0  0  0  0  0  0  0  0  0  0  0
   36.6050   28.5210   43.8950 H   0  0  0  0  0  0  0  0  0  0  0  0
   38.3320   28.9650   44.3540 H   0  0  0  0  0  0  0  0  0  0  0  0
   37.1450   30.5470   42.7720 H   0  0  0  0  0  0  0  0  0  0  0  0
   38.7580   29.9920   42.3120 H   0  0  0  0  0  0  0  0  0  0  0  0
   35.9860   29.3600   41.2400 H   0  0  0  0  0  0  0  0  0  0  0  0
   37.5560   30.0770   40.1290 N   0  0  0  0  0  0  0  0  0  0  0  0
   36.8200   31.0920   39.6120 C   0  0  0  0  0  0  0  0  0  0  0  0
   35.8010   31.4350   39.8470 H   0  0  0  0  0  0  0  0  0  0  0  0
   37.5140   31.7480   38.6600 N   0  0  0  0  0  0  0  0  0  0  0  0
   38.7150   31.1630   38.5460 C   0  0  0  0  0  0  0  0  0  0  0  0
   39.8750   31.3080   37.8030 C   0  0  0  0  0  0  0  0  0  0  0  0
   40.9480   30.5110   37.9460 N   0  0  0  0  0  0  0  0  0  0  0  0
   40.9190   29.5160   38.8500 C   0  0  0  0  0  0  0  0  0  0  0  0
   41.7660   28.8550   38.9900 H   0  0  0  0  0  0  0  0  0  0  0  0
   39.8090   29.3370   39.5970 N   0  0  0  0  0  0  0  0  0  0  0  0
   38.7260   30.1290   39.4630 C   0  0  0  0  0  0  0  0  0  0  0  0
   39.9020   32.3620   36.8490 N   0  0  0  0  0  0  0  0  0  0  0  0
   39.8550   33.3800   36.7130 H   0  0  0  0  0  0  0  0  0  0  0  0
   40.0140   31.9150   35.9050 H   0  0  0  0  0  0  0  0  0  0  0  0
   36.0240   25.5260   38.1400 C   0  0  0  0  0  0  0  0  0  0  0  0
   36.8220   25.9440   39.2230 C   0  0  0  0  0  0  0  0  0  0  0  0
   36.5790   27.2320   39.7380 C   0  0  0  0  0  0  0  0  0  0  0  0
   35.5900   27.9840   39.1550 N   0  0  0  0  0  0  0  0  0  0  0  0
   34.8620   27.5460   38.1340 C   0  0  0  0  0  0  0  0  0  0  0  0
   35.0740   26.3210   37.6230 N   0  0  0  0  0  0  0  0  0  0  0  0
   37.5990   25.3420   39.6740 H   0  0  0  0  0  0  0  0  0  0  0  0
   36.2910   24.1610   37.6020 C   0  0  0  0  0  0  0  0  0  0  0  0
   37.5550   24.0680   37.0630 F   0  0  0  0  0  0  0  0  0  0  0  0
   36.0930   23.2340   38.6250 F   0  0  0  0  0  0  0  0  0  0  0  0
   35.3230   23.8520   36.6280 F   0  0  0  0  0  0  0  0  0  0  0  0
   33.7970   28.4050   37.5310 C   0  0  0  0  0  0  0  0  0  0  0  0
   32.9240   27.6760   36.7830 F   0  0  0  0  0  0  0  0  0  0  0  0
   34.3940   29.4290   36.7620 F   0  0  0  0  0  0  0  0  0  0  0  0
   33.1140   29.1020   38.5000 F   0  0  0  0  0  0  0  0  0  0  0  0
  1  7  1  6  0  0  0
  1  6  1  0  0  0  0
  1  2  1  0  0  0  0
  2  9  1  0  0  0  0
  2  3  1  0  0  0  0
  3  4  1  0  0  0  0
  3 10  1  0  0  0  0
  4 12  1  0  0  0  0
  4 13  1  0  0  0  0
  5 14  1  0  0  0  0
  5  4  1  0  0  0  0
  6 16  1  1  0  0  0
  6  5  1  0  0  0  0
  8  2  1  0  0  0  0
 11  3  1  0  0  0  0
 15  5  1  0  0  0  0
 17  6  1  0  0  0  0
 18 19  1  0  0  0  0
 18 17  1  0  0  0  0
 20 18  2  0  0  0  0
 21 20  1  0  0  0  0
 21 27  1  0  0  0  0
 22 23  1  0  0  0  0
 22 21  2  0  0  0  0
 23 24  2  0  0  0  0
 24 25  1  0  0  0  0
 24 26  1  0  0  0  0
 27 26  2  0  0  0  0
 27 17  1  0  0  0  0
 28 22  1  0  0  0  0
 29 28  1  0  0  0  0
 30 28  1  0  0  0  0
 31 32  1  0  0  0  0
 32 37  1  0  0  0  0
 32 33  2  0  0  0  0
 33  1  1  0  0  0  0
 34 33  1  0  0  0  0
 35 34  2  0  0  0  0
 36 35  1  0  0  0  0
 36 31  2  0  0  0  0
 38 31  1  0  0  0  0
 38 40  1  0  0  0  0
 39 38  1  0  0  0  0
 41 38  1  0  0  0  0
 42 35  1  0  0  0  0
 42 45  1  0  0  0  0
 43 42  1  0  0  0  0
 44 42  1  0  0  0  0
M  END
>  <minimizedAffinity>
-6.22199011

$$$$

 OpenBabel03252502353D

 45 48  0  0  1  0  0  0  0  0999 V2000
   37.3360   27.8760   40.8150 C   0  0  2  0  0  0  0  0  0  0  0  0
   36.9910   26.9950   42.0260 C   0  0  0  0  0  0  0  0  0  0  0  0
   38.1200   27.2930   43.0310 C   0  0  0  0  0  0  0  0  0  0  0  0
   37.7480   28.6810   43.5420 C   0  0  0  0  0  0  0  0  0  0  0  0
   37.8370   29.6770   42.4540 C   0  0  0  0  0  0  0  0  0  0  0  0
   37.1730   29.3080   41.1630 C   0  0  1  0  0  0  0  0  0  0  0  0
   38.4180   27.6760   40.5890 H   0  0  0  0  0  0  0  0  0  0  0  0
   37.0050   25.9410   41.7240 H   0  0  0  0  0  0  0  0  0  0  0  0
   36.0250   27.3680   42.4030 H   0  0  0  0  0  0  0  0  0  0  0  0
   38.0280   26.5690   43.8420 H   0  0  0  0  0  0  0  0  0  0  0  0
   39.0890   27.3000   42.5100 H   0  0  0  0  0  0  0  0  0  0  0  0
   36.7000   28.5860   43.8990 H   0  0  0  0  0  0  0  0  0  0  0  0
   38.4560   28.9340   44.3310 H   0  0  0  0  0  0  0  0  0  0  0  0
   37.3160   30.6100   42.8130 H   0  0  0  0  0  0  0  0  0  0  0  0
   38.8910   29.9900   42.3060 H   0  0  0  0  0  0  0  0  0  0  0  0
   36.0700   29.5190   41.2780 H   0  0  0  0  0  0  0  0  0  0  0  0
   37.6510   30.1870   40.1510 N   0  0  0  0  0  0  0  0  0  0  0  0
   36.9690   31.2670   39.6970 C   0  0  0  0  0  0  0  0  0  0  0  0
   35.9860   31.6710   39.9830 H   0  0  0  0  0  0  0  0  0  0  0  0
   37.6710   31.9060   38.7400 N   0  0  0  0  0  0  0  0  0  0  0  0
   38.8230   31.2450   38.5590 C   0  0  0  0  0  0  0  0  0  0  0  0
   39.9620   31.3360   37.7770 C   0  0  0  0  0  0  0  0  0  0  0  0
   40.9810   30.4630   37.8510 N   0  0  0  0  0  0  0  0  0  0  0  0
   40.9170   29.4400   38.7220 C   0  0  0  0  0  0  0  0  0  0  0  0
   41.7190   28.7190   38.8080 H   0  0  0  0  0  0  0  0  0  0  0  0
   39.8250   29.3120   39.5070 N   0  0  0  0  0  0  0  0  0  0  0  0
   38.7960   30.1810   39.4410 C   0  0  0  0  0  0  0  0  0  0  0  0
   40.0270   32.4180   36.8560 N   0  0  0  0  0  0  0  0  0  0  0  0
   40.0460   33.4410   36.7550 H   0  0  0  0  0  0  0  0  0  0  0  0
   40.0730   31.9980   35.8940 H   0  0  0  0  0  0  0  0  0  0  0  0
   34.7990   27.6330   38.0620 C   0  0  0  0  0  0  0  0  0  0  0  0
   35.5290   28.2020   39.1240 C   0  0  0  0  0  0  0  0  0  0  0  0
   36.5280   27.4030   39.7150 C   0  0  0  0  0  0  0  0  0  0  0  0
   36.7180   26.1370   39.2190 N   0  0  0  0  0  0  0  0  0  0  0  0
   36.0030   25.6430   38.2140 C   0  0  0  0  0  0  0  0  0  0  0  0
   35.0430   26.3850   37.6330 N   0  0  0  0  0  0  0  0  0  0  0  0
   35.3700   29.2010   39.5050 H   0  0  0  0  0  0  0  0  0  0  0  0
   33.7440   28.4880   37.4450 C   0  0  0  0  0  0  0  0  0  0  0  0
   34.2860   29.4190   36.5860 F   0  0  0  0  0  0  0  0  0  0  0  0
   32.8230   27.6620   36.8020 F   0  0  0  0  0  0  0  0  0  0  0  0
   33.0180   29.1320   38.4650 F   0  0  0  0  0  0  0  0  0  0  0  0
   36.2460   24.2570   37.7120 C   0  0  0  0  0  0  0  0  0  0  0  0
   37.5720   23.9490   37.7010 F   0  0  0  0  0  0  0  0  0  0  0  0
   35.6790   24.1140   36.4260 F   0  0  0  0  0  0  0  0  0  0  0  0
   35.5560   23.3310   38.4590 F   0  0  0  0  0  0  0  0  0  0  0  0
  1  7  1  6  0  0  0
  1  6  1  0  0  0  0
  1  2  1  0  0  0  0
  2  9  1  0  0  0  0
  2  3  1  0  0  0  0
  3  4  1  0  0  0  0
  3 10  1  0  0  0  0
  4 12  1  0  0  0  0
  4 13  1  0  0  0  0
  5 14  1  0  0  0  0
  5  4  1  0  0  0  0
  6 16  1  1  0  0  0
  6  5  1  0  0  0  0
  8  2  1  0  0  0  0
 11  3  1  0  0  0  0
 15  5  1  0  0  0  0
 17  6  1  0  0  0  0
 18 19  1  0  0  0  0
 18 17  1  0  0  0  0
 20 18  2  0  0  0  0
 21 20  1  0  0  0  0
 21 27  1  0  0  0  0
 22 23  1  0  0  0  0
 22 21  2  0  0  0  0
 23 24  2  0  0  0  0
 24 25  1  0  0  0  0
 24 26  1  0  0  0  0
 27 26  2  0  0  0  0
 27 17  1  0  0  0  0
 28 22  1  0  0  0  0
 29 28  1  0  0  0  0
 30 28  1  0  0  0  0
 31 32  1  0  0  0  0
 32 37  1  0  0  0  0
 32 33  2  0  0  0  0
 33  1  1  0  0  0  0
 34 33  1  0  0  0  0
 35 34  2  0  0  0  0
 36 31  2  0  0  0  0
 36 35  1  0  0  0  0
 38 31  1  0  0  0  0
 38 41  1  0  0  0  0
 39 38  1  0  0  0  0
 40 38  1  0  0  0  0
 42 35  1  0  0  0  0
 42 45  1  0  0  0  0
 43 42  1  0  0  0  0
 44 42  1  0  0  0  0
M  END
>  <minimizedAffinity>
-6.22167826

$$$$
