
 OpenBabel03242523453D

 24 26  0  0  0  0  0  0  0  0999 V2000
   48.0380   33.8230   42.7460 N   0  0  0  0  0  0  0  0  0  0  0  0
   49.3520   34.1630   42.7680 C   0  0  0  0  0  0  0  0  0  0  0  0
   49.7780   34.7500   43.5650 H   0  0  0  0  0  0  0  0  0  0  0  0
   49.9310   33.6400   41.6650 N   0  0  0  0  0  0  0  0  0  0  0  0
   49.0210   32.9730   40.9380 C   0  0  0  0  0  0  0  0  0  0  0  0
   49.0210   32.2690   39.7720 C   0  0  0  0  0  0  0  0  0  0  0  0
   47.8980   31.6870   39.2710 N   0  0  0  0  0  0  0  0  0  0  0  0
   46.7510   31.8030   39.9350 C   0  0  0  0  0  0  0  0  0  0  0  0
   45.7660   31.4240   39.7150 H   0  0  0  0  0  0  0  0  0  0  0  0
   46.7240   32.4850   41.0760 N   0  0  0  0  0  0  0  0  0  0  0  0
   47.8200   33.0860   41.6190 C   0  0  0  0  0  0  0  0  0  0  0  0
   45.0230   35.4290   44.0960 C   0  0  0  0  0  0  0  0  0  0  0  0
   46.0980   35.1240   43.2450 C   0  0  0  0  0  0  0  0  0  0  0  0
   46.9640   34.0960   43.6400 C   0  0  0  0  0  0  0  0  0  0  0  0
   46.7270   33.4530   44.8100 N   0  0  0  0  0  0  0  0  0  0  0  0
   45.6900   33.7740   45.5940 C   0  0  0  0  0  0  0  0  0  0  0  0
   44.8460   34.7540   45.2390 N   0  0  0  0  0  0  0  0  0  0  0  0
   46.2410   35.6660   42.3260 H   0  0  0  0  0  0  0  0  0  0  0  0
   45.5080   33.2600   46.5220 H   0  0  0  0  0  0  0  0  0  0  0  0
   44.1720   36.4320   43.7180 O   0  0  0  0  0  0  0  0  0  0  0  0
   43.5820   36.2230   42.8970 H   0  0  0  0  0  0  0  0  0  0  0  0
   50.2300   32.1220   39.0320 N   0  0  0  0  0  0  0  0  0  0  0  0
   51.0180   31.4650   39.0500 H   0  0  0  0  0  0  0  0  0  0  0  0
   50.1570   32.9240   38.3680 H   0  0  0  0  0  0  0  0  0  0  0  0
  1  2  1  0  0  0  0
  1 14  1  0  0  0  0
  2  3  1  0  0  0  0
  4  2  2  0  0  0  0
  5 11  1  0  0  0  0
  5  4  1  0  0  0  0
  6  5  2  0  0  0  0
  7  6  1  0  0  0  0
  7  8  2  0  0  0  0
  8 10  1  0  0  0  0
  9  8  1  0  0  0  0
 10 11  2  0  0  0  0
 11  1  1  0  0  0  0
 12 17  1  0  0  0  0
 13 14  1  0  0  0  0
 13 12  2  0  0  0  0
 14 15  2  0  0  0  0
 15 16  1  0  0  0  0
 16 19  1  0  0  0  0
 17 16  2  0  0  0  0
 18 13  1  0  0  0  0
 20 12  1  0  0  0  0
 21 20  1  0  0  0  0
 22 23  1  0  0  0  0
 22  6  1  0  0  0  0
 24 22  1  0  0  0  0
M  END
>  <minimizedAffinity>
-4.78954029

>  <minimizedRMSD>
0.746928692

$$$$
