
 OpenBabel03242523453D

 24 26  0  0  0  0  0  0  0  0999 V2000
   47.7710   33.9410   42.8350 N   0  0  0  0  0  0  0  0  0  0  0  0
   48.9720   34.5420   42.6300 C   0  0  0  0  0  0  0  0  0  0  0  0
   49.3890   35.2420   43.3360 H   0  0  0  0  0  0  0  0  0  0  0  0
   49.4590   34.0950   41.4540 N   0  0  0  0  0  0  0  0  0  0  0  0
   48.6030   33.2230   40.8990 C   0  0  0  0  0  0  0  0  0  0  0  0
   48.5610   32.4760   39.7610 C   0  0  0  0  0  0  0  0  0  0  0  0
   47.5190   31.6550   39.4650 N   0  0  0  0  0  0  0  0  0  0  0  0
   46.4950   31.5680   40.3110 C   0  0  0  0  0  0  0  0  0  0  0  0
   45.5880   30.9870   40.2650 H   0  0  0  0  0  0  0  0  0  0  0  0
   46.5120   32.2860   41.4290 N   0  0  0  0  0  0  0  0  0  0  0  0
   47.5320   33.1230   41.7720 C   0  0  0  0  0  0  0  0  0  0  0  0
   44.8050   35.0530   44.6960 C   0  0  0  0  0  0  0  0  0  0  0  0
   45.7660   34.9280   43.6790 C   0  0  0  0  0  0  0  0  0  0  0  0
   46.8230   34.0340   43.8930 C   0  0  0  0  0  0  0  0  0  0  0  0
   46.8690   33.3420   45.0590 N   0  0  0  0  0  0  0  0  0  0  0  0
   45.9330   33.4900   46.0050 C   0  0  0  0  0  0  0  0  0  0  0  0
   44.9110   34.3380   45.8230 N   0  0  0  0  0  0  0  0  0  0  0  0
   45.6810   35.5020   42.7720 H   0  0  0  0  0  0  0  0  0  0  0  0
   45.9760   32.9380   46.9280 H   0  0  0  0  0  0  0  0  0  0  0  0
   43.7680   35.9230   44.4940 O   0  0  0  0  0  0  0  0  0  0  0  0
   43.0940   35.6430   43.7660 H   0  0  0  0  0  0  0  0  0  0  0  0
   49.6380   32.5420   38.8290 N   0  0  0  0  0  0  0  0  0  0  0  0
   50.5370   32.0610   38.7230 H   0  0  0  0  0  0  0  0  0  0  0  0
   49.2930   33.2790   38.1750 H   0  0  0  0  0  0  0  0  0  0  0  0
  1 14  1  0  0  0  0
  2  1  1  0  0  0  0
  2  3  1  0  0  0  0
  4  2  2  0  0  0  0
  5  4  1  0  0  0  0
  5 11  1  0  0  0  0
  6  5  2  0  0  0  0
  7  6  1  0  0  0  0
  7  8  2  0  0  0  0
  8 10  1  0  0  0  0
  9  8  1  0  0  0  0
 10 11  2  0  0  0  0
 11  1  1  0  0  0  0
 12 17  1  0  0  0  0
 13 14  1  0  0  0  0
 13 12  2  0  0  0  0
 14 15  2  0  0  0  0
 15 16  1  0  0  0  0
 16 19  1  0  0  0  0
 17 16  2  0  0  0  0
 18 13  1  0  0  0  0
 20 12  1  0  0  0  0
 21 20  1  0  0  0  0
 22  6  1  0  0  0  0
 23 22  1  0  0  0  0
 24 22  1  0  0  0  0
M  END
>  <minimizedAffinity>
-4.81326914

>  <minimizedRMSD>
1.22905004

$$$$
