
 OpenBabel03242510203D

 41 45  0  0  1  0  0  0  0  0999 V2000
   38.1530   29.9650   40.1110 C   0  0  2  0  0  0  0  0  0  0  0  0
   39.5630   29.6830   40.7270 C   0  0  0  0  0  0  0  0  0  0  0  0
   39.0350   31.0770   40.4280 C   0  0  1  0  0  0  0  0  0  0  0  0
   38.1400   29.5420   39.0710 H   0  0  0  0  0  0  0  0  0  0  0  0
   39.5370   29.2630   41.7310 H   0  0  0  0  0  0  0  0  0  0  0  0
   40.3220   29.2470   40.0750 H   0  0  0  0  0  0  0  0  0  0  0  0
   39.0900   31.6710   41.3170 H   0  0  0  0  0  0  0  0  0  0  0  0
   39.7390   31.7140   39.2980 N   0  0  0  0  0  0  0  0  0  0  0  0
   39.4120   31.5780   37.9920 C   0  0  0  0  0  0  0  0  0  0  0  0
   38.5850   30.9770   37.6340 H   0  0  0  0  0  0  0  0  0  0  0  0
   40.2720   32.3020   37.2350 N   0  0  0  0  0  0  0  0  0  0  0  0
   41.1310   32.8860   38.0570 C   0  0  0  0  0  0  0  0  0  0  0  0
   42.2180   33.7250   37.9570 C   0  0  0  0  0  0  0  0  0  0  0  0
   42.9050   34.1540   39.0530 N   0  0  0  0  0  0  0  0  0  0  0  0
   42.5310   33.7610   40.2880 C   0  0  0  0  0  0  0  0  0  0  0  0
   43.1130   34.1340   41.1170 H   0  0  0  0  0  0  0  0  0  0  0  0
   41.4730   32.9400   40.4400 N   0  0  0  0  0  0  0  0  0  0  0  0
   40.8110   32.5260   39.3700 C   0  0  0  0  0  0  0  0  0  0  0  0
   42.6420   34.1590   36.6950 N   0  0  0  0  0  0  0  0  0  0  0  0
   43.4350   33.4850   36.5050 H   0  0  0  0  0  0  0  0  0  0  0  0
   42.4480   34.8680   35.9460 H   0  0  0  0  0  0  0  0  0  0  0  0
   36.7270   28.2840   41.3100 N   0  0  0  0  0  0  0  0  0  0  0  0
   36.9570   29.6070   40.9770 C   0  0  0  0  0  0  0  0  0  0  0  0
   36.3200   30.6520   41.2820 O   0  0  0  0  0  0  0  0  0  0  0  0
   36.8270   27.5830   40.5190 H   0  0  0  0  0  0  0  0  0  0  0  0
   36.9020   26.5210   43.0400 C   0  0  1  0  0  0  0  0  0  0  0  0
   37.5790   27.6510   43.5660 C   0  0  0  0  0  0  0  0  0  0  0  0
   36.3760   27.8540   42.6260 C   0  0  1  0  0  0  0  0  0  0  0  0
   36.2020   25.9120   43.6560 H   0  0  0  0  0  0  0  0  0  0  0  0
   37.3870   27.9560   44.6310 H   0  0  0  0  0  0  0  0  0  0  0  0
   38.5390   28.0750   43.2160 H   0  0  0  0  0  0  0  0  0  0  0  0
   35.5720   28.4130   43.1240 H   0  0  0  0  0  0  0  0  0  0  0  0
   36.9290   24.8970   41.0150 C   0  0  0  0  0  0  0  0  0  0  0  0
   37.6190   25.7050   41.9600 C   0  0  0  0  0  0  0  0  0  0  0  0
   38.9930   25.7300   41.8990 C   0  0  0  0  0  0  0  0  0  0  0  0
   39.6250   24.9920   40.9570 N   0  0  0  0  0  0  0  0  0  0  0  0
   38.9620   24.2250   40.0620 C   0  0  0  0  0  0  0  0  0  0  0  0
   37.5650   24.1790   40.0970 N   0  0  0  0  0  0  0  0  0  0  0  0
   35.8710   24.8790   41.0590 H   0  0  0  0  0  0  0  0  0  0  0  0
   39.5550   26.3310   42.5970 H   0  0  0  0  0  0  0  0  0  0  0  0
   39.6150   23.7050   39.3840 H   0  0  0  0  0  0  0  0  0  0  0  0
  1  4  1  6  0  0  0
  1  3  1  0  0  0  0
  1  2  1  0  0  0  0
  1 23  1  0  0  0  0
  2  5  1  0  0  0  0
  3  2  1  0  0  0  0
  3  7  1  1  0  0  0
  6  2  1  0  0  0  0
  8 18  1  0  0  0  0
  8  3  1  0  0  0  0
  9  8  1  0  0  0  0
 10  9  1  0  0  0  0
 11  9  2  0  0  0  0
 11 12  1  0  0  0  0
 12 18  1  0  0  0  0
 13 12  2  0  0  0  0
 13 14  1  0  0  0  0
 14 15  2  0  0  0  0
 15 17  1  0  0  0  0
 15 16  1  0  0  0  0
 18 17  2  0  0  0  0
 19 13  1  0  0  0  0
 20 19  1  0  0  0  0
 21 19  1  0  0  0  0
 22 28  1  0  0  0  0
 23 24  2  0  0  0  0
 23 22  1  0  0  0  0
 25 22  1  0  0  0  0
 26 27  1  0  0  0  0
 26 29  1  1  0  0  0
 27 30  1  0  0  0  0
 28 26  1  0  0  0  0
 28 32  1  1  0  0  0
 28 27  1  0  0  0  0
 31 27  1  0  0  0  0
 33 39  1  0  0  0  0
 33 34  1  0  0  0  0
 34 26  1  0  0  0  0
 35 34  2  0  0  0  0
 35 40  1  0  0  0  0
 36 35  1  0  0  0  0
 37 38  1  0  0  0  0
 37 36  2  0  0  0  0
 38 33  2  0  0  0  0
 41 37  1  0  0  0  0
M  END
>  <minimizedAffinity>
-6.0173912

$$$$

 OpenBabel03242510203D

 41 45  0  0  1  0  0  0  0  0999 V2000
   38.5810   28.9680   38.3810 C   0  0  2  0  0  0  0  0  0  0  0  0
   39.6450   27.9470   37.8560 C   0  0  0  0  0  0  0  0  0  0  0  0
   39.9730   29.1110   38.7770 C   0  0  1  0  0  0  0  0  0  0  0  0
   38.1900   29.5410   37.4980 H   0  0  0  0  0  0  0  0  0  0  0  0
   39.5180   26.9340   38.2370 H   0  0  0  0  0  0  0  0  0  0  0  0
   39.9230   28.0030   36.8030 H   0  0  0  0  0  0  0  0  0  0  0  0
   40.4760   28.7410   39.6460 H   0  0  0  0  0  0  0  0  0  0  0  0
   40.7560   30.1620   38.0970 N   0  0  0  0  0  0  0  0  0  0  0  0
   41.5760   29.9680   37.0380 C   0  0  0  0  0  0  0  0  0  0  0  0
   41.7460   29.0060   36.5730 H   0  0  0  0  0  0  0  0  0  0  0  0
   42.1300   31.1510   36.6760 N   0  0  0  0  0  0  0  0  0  0  0  0
   41.6620   32.0790   37.4990 C   0  0  0  0  0  0  0  0  0  0  0  0
   41.8070   33.4350   37.6840 C   0  0  0  0  0  0  0  0  0  0  0  0
   41.1500   34.1060   38.6710 N   0  0  0  0  0  0  0  0  0  0  0  0
   40.3230   33.4460   39.5090 C   0  0  0  0  0  0  0  0  0  0  0  0
   39.8300   34.0310   40.2700 H   0  0  0  0  0  0  0  0  0  0  0  0
   40.1460   32.1180   39.3690 N   0  0  0  0  0  0  0  0  0  0  0  0
   40.7890   31.4720   38.4080 C   0  0  0  0  0  0  0  0  0  0  0  0
   42.6560   34.1610   36.8380 N   0  0  0  0  0  0  0  0  0  0  0  0
   43.5310   34.2180   37.4290 H   0  0  0  0  0  0  0  0  0  0  0  0
   42.7020   34.6230   35.8970 H   0  0  0  0  0  0  0  0  0  0  0  0
   37.8180   28.2620   40.6650 N   0  0  0  0  0  0  0  0  0  0  0  0
   37.5240   28.4140   39.3220 C   0  0  0  0  0  0  0  0  0  0  0  0
   36.4670   28.1680   38.6810 O   0  0  0  0  0  0  0  0  0  0  0  0
   38.7650   27.8330   40.8870 H   0  0  0  0  0  0  0  0  0  0  0  0
   37.0360   27.8690   42.9810 C   0  0  1  0  0  0  0  0  0  0  0  0
   37.6330   29.1560   42.9850 C   0  0  0  0  0  0  0  0  0  0  0  0
   36.9280   28.6470   41.7140 C   0  0  1  0  0  0  0  0  0  0  0  0
   36.0660   27.6660   43.4890 H   0  0  0  0  0  0  0  0  0  0  0  0
   37.1010   30.0030   43.4970 H   0  0  0  0  0  0  0  0  0  0  0  0
   38.7070   29.3920   42.8770 H   0  0  0  0  0  0  0  0  0  0  0  0
   36.0960   29.3060   41.4300 H   0  0  0  0  0  0  0  0  0  0  0  0
   39.2530   26.6550   43.5730 C   0  0  0  0  0  0  0  0  0  0  0  0
   37.9700   26.6550   42.9600 C   0  0  0  0  0  0  0  0  0  0  0  0
   37.5720   25.5130   42.3060 C   0  0  0  0  0  0  0  0  0  0  0  0
   38.4080   24.4480   42.2710 N   0  0  0  0  0  0  0  0  0  0  0  0
   39.6270   24.4560   42.8570 C   0  0  0  0  0  0  0  0  0  0  0  0
   40.0600   25.6010   43.5300 N   0  0  0  0  0  0  0  0  0  0  0  0
   39.5580   27.5340   44.0800 H   0  0  0  0  0  0  0  0  0  0  0  0
   36.6060   25.4700   41.8270 H   0  0  0  0  0  0  0  0  0  0  0  0
   40.1600   23.5300   42.7350 H   0  0  0  0  0  0  0  0  0  0  0  0
  1  4  1  6  0  0  0
  1  3  1  0  0  0  0
  1 23  1  0  0  0  0
  2  5  1  0  0  0  0
  2  1  1  0  0  0  0
  2  3  1  0  0  0  0
  3  7  1  1  0  0  0
  6  2  1  0  0  0  0
  8 18  1  0  0  0  0
  8  3  1  0  0  0  0
  9  8  1  0  0  0  0
 10  9  1  0  0  0  0
 11  9  2  0  0  0  0
 11 12  1  0  0  0  0
 12 13  2  0  0  0  0
 12 18  1  0  0  0  0
 13 14  1  0  0  0  0
 14 15  2  0  0  0  0
 15 16  1  0  0  0  0
 17 15  1  0  0  0  0
 18 17  2  0  0  0  0
 19 20  1  0  0  0  0
 19 13  1  0  0  0  0
 21 19  1  0  0  0  0
 22 25  1  0  0  0  0
 22 28  1  0  0  0  0
 23 22  1  0  0  0  0
 24 23  2  0  0  0  0
 26 27  1  0  0  0  0
 26 29  1  1  0  0  0
 27 30  1  0  0  0  0
 28 32  1  6  0  0  0
 28 26  1  0  0  0  0
 28 27  1  0  0  0  0
 31 27  1  0  0  0  0
 33 39  1  0  0  0  0
 34 26  1  0  0  0  0
 34 33  2  0  0  0  0
 35 34  1  0  0  0  0
 36 35  2  0  0  0  0
 36 37  1  0  0  0  0
 37 38  2  0  0  0  0
 38 33  1  0  0  0  0
 40 35  1  0  0  0  0
 41 37  1  0  0  0  0
M  END
>  <minimizedAffinity>
-5.91656494

$$$$

 OpenBabel03242510203D

 41 45  0  0  1  0  0  0  0  0999 V2000
   37.2860   28.1320   41.7770 C   0  0  2  0  0  0  0  0  0  0  0  0
   37.5650   28.7750   43.1760 C   0  0  0  0  0  0  0  0  0  0  0  0
   38.6470   28.4800   42.1500 C   0  0  1  0  0  0  0  0  0  0  0  0
   36.9090   27.0890   41.9470 H   0  0  0  0  0  0  0  0  0  0  0  0
   37.1510   29.7750   43.3000 H   0  0  0  0  0  0  0  0  0  0  0  0
   37.4710   28.1350   44.0540 H   0  0  0  0  0  0  0  0  0  0  0  0
   39.2010   29.3750   41.9550 H   0  0  0  0  0  0  0  0  0  0  0  0
   39.5290   27.3710   42.5670 N   0  0  0  0  0  0  0  0  0  0  0  0
   39.1140   26.1760   43.0470 C   0  0  0  0  0  0  0  0  0  0  0  0
   38.0740   25.9040   43.1760 H   0  0  0  0  0  0  0  0  0  0  0  0
   40.1920   25.4040   43.3270 N   0  0  0  0  0  0  0  0  0  0  0  0
   41.2740   26.1090   43.0270 C   0  0  0  0  0  0  0  0  0  0  0  0
   42.6390   25.9350   43.0660 C   0  0  0  0  0  0  0  0  0  0  0  0
   43.5050   26.9060   42.6650 N   0  0  0  0  0  0  0  0  0  0  0  0
   43.0400   28.0880   42.2100 C   0  0  0  0  0  0  0  0  0  0  0  0
   43.7730   28.8190   41.9050 H   0  0  0  0  0  0  0  0  0  0  0  0
   41.7120   28.3080   42.1510 N   0  0  0  0  0  0  0  0  0  0  0  0
   40.8760   27.3590   42.5430 C   0  0  0  0  0  0  0  0  0  0  0  0
   43.1680   24.7240   43.5320 N   0  0  0  0  0  0  0  0  0  0  0  0
   43.4020   24.9760   44.5320 H   0  0  0  0  0  0  0  0  0  0  0  0
   43.3870   23.7400   43.2390 H   0  0  0  0  0  0  0  0  0  0  0  0
   37.1280   29.7770   39.8880 N   0  0  0  0  0  0  0  0  0  0  0  0
   36.4740   28.9700   40.8020 C   0  0  0  0  0  0  0  0  0  0  0  0
   35.2430   28.7760   40.9940 O   0  0  0  0  0  0  0  0  0  0  0  0
   37.9400   30.3450   40.2680 H   0  0  0  0  0  0  0  0  0  0  0  0
   37.2590   31.0590   37.7740 C   0  0  1  0  0  0  0  0  0  0  0  0
   37.9500   29.8430   37.5350 C   0  0  0  0  0  0  0  0  0  0  0  0
   36.7580   29.8630   38.5110 C   0  0  1  0  0  0  0  0  0  0  0  0
   36.5440   31.4860   37.0350 H   0  0  0  0  0  0  0  0  0  0  0  0
   37.7540   29.2810   36.5810 H   0  0  0  0  0  0  0  0  0  0  0  0
   38.9190   29.5310   37.9670 H   0  0  0  0  0  0  0  0  0  0  0  0
   35.9590   29.1870   38.1760 H   0  0  0  0  0  0  0  0  0  0  0  0
   37.2770   33.1260   39.3420 C   0  0  0  0  0  0  0  0  0  0  0  0
   37.9720   32.1260   38.6090 C   0  0  0  0  0  0  0  0  0  0  0  0
   39.3470   32.1430   38.6470 C   0  0  0  0  0  0  0  0  0  0  0  0
   39.9740   33.1000   39.3690 N   0  0  0  0  0  0  0  0  0  0  0  0
   39.3070   34.0480   40.0640 C   0  0  0  0  0  0  0  0  0  0  0  0
   37.9090   34.0580   40.0460 N   0  0  0  0  0  0  0  0  0  0  0  0
   36.2180   33.1120   39.3160 H   0  0  0  0  0  0  0  0  0  0  0  0
   39.9130   31.4020   38.1050 H   0  0  0  0  0  0  0  0  0  0  0  0
   39.9570   34.7300   40.5830 H   0  0  0  0  0  0  0  0  0  0  0  0
  1  4  1  1  0  0  0
  1  3  1  0  0  0  0
  1  2  1  0  0  0  0
  2  5  1  0  0  0  0
  2  6  1  0  0  0  0
  3  7  1  6  0  0  0
  3  8  1  0  0  0  0
  3  2  1  0  0  0  0
  8  9  1  0  0  0  0
  9 10  1  0  0  0  0
  9 11  2  0  0  0  0
 12 13  1  0  0  0  0
 12 11  1  0  0  0  0
 13 19  1  0  0  0  0
 14 13  2  0  0  0  0
 15 14  1  0  0  0  0
 16 15  1  0  0  0  0
 17 15  2  0  0  0  0
 17 18  1  0  0  0  0
 18  8  1  0  0  0  0
 18 12  2  0  0  0  0
 19 20  1  0  0  0  0
 21 19  1  0  0  0  0
 22 25  1  0  0  0  0
 22 23  1  0  0  0  0
 23 24  2  0  0  0  0
 23  1  1  0  0  0  0
 26 29  1  6  0  0  0
 26 28  1  0  0  0  0
 26 34  1  0  0  0  0
 27 26  1  0  0  0  0
 27 31  1  0  0  0  0
 27 28  1  0  0  0  0
 28 32  1  6  0  0  0
 28 22  1  0  0  0  0
 30 27  1  0  0  0  0
 33 38  1  0  0  0  0
 34 35  1  0  0  0  0
 34 33  2  0  0  0  0
 35 36  2  0  0  0  0
 36 37  1  0  0  0  0
 37 41  1  0  0  0  0
 38 37  2  0  0  0  0
 39 33  1  0  0  0  0
 40 35  1  0  0  0  0
M  END
>  <minimizedAffinity>
-5.82246685

$$$$

 OpenBabel03242510203D

 41 45  0  0  1  0  0  0  0  0999 V2000
   36.8400   27.7360   39.2260 C   0  0  2  0  0  0  0  0  0  0  0  0
   37.3530   28.4120   37.9110 C   0  0  0  0  0  0  0  0  0  0  0  0
   38.0400   28.5570   39.2600 C   0  0  1  0  0  0  0  0  0  0  0  0
   35.8460   28.1900   39.4810 H   0  0  0  0  0  0  0  0  0  0  0  0
   37.7120   27.7110   37.1590 H   0  0  0  0  0  0  0  0  0  0  0  0
   36.7750   29.2460   37.5130 H   0  0  0  0  0  0  0  0  0  0  0  0
   39.0660   28.2690   39.1650 H   0  0  0  0  0  0  0  0  0  0  0  0
   37.9020   29.9180   39.8170 N   0  0  0  0  0  0  0  0  0  0  0  0
   36.7370   30.5030   40.1820 C   0  0  0  0  0  0  0  0  0  0  0  0
   35.7690   30.0250   40.1030 H   0  0  0  0  0  0  0  0  0  0  0  0
   36.9870   31.7500   40.6490 N   0  0  0  0  0  0  0  0  0  0  0  0
   38.2960   31.9470   40.5770 C   0  0  0  0  0  0  0  0  0  0  0  0
   39.1860   32.9540   40.8740 C   0  0  0  0  0  0  0  0  0  0  0  0
   40.5260   32.8210   40.6680 N   0  0  0  0  0  0  0  0  0  0  0  0
   41.0260   31.6770   40.1560 C   0  0  0  0  0  0  0  0  0  0  0  0
   42.0950   31.6290   40.0160 H   0  0  0  0  0  0  0  0  0  0  0  0
   40.1960   30.6600   39.8480 N   0  0  0  0  0  0  0  0  0  0  0  0
   38.8940   30.7980   40.0520 C   0  0  0  0  0  0  0  0  0  0  0  0
   38.7130   34.1610   41.4070 N   0  0  0  0  0  0  0  0  0  0  0  0
   38.6740   34.7640   40.5390 H   0  0  0  0  0  0  0  0  0  0  0  0
   38.4120   34.6170   42.3020 H   0  0  0  0  0  0  0  0  0  0  0  0
   38.0000   25.5910   39.8210 N   0  0  0  0  0  0  0  0  0  0  0  0
   36.8960   26.2180   39.2690 C   0  0  0  0  0  0  0  0  0  0  0  0
   35.8480   25.7370   38.7600 O   0  0  0  0  0  0  0  0  0  0  0  0
   38.9450   25.9830   39.5380 H   0  0  0  0  0  0  0  0  0  0  0  0
   37.8710   24.8220   42.1700 C   0  0  1  0  0  0  0  0  0  0  0  0
   36.6300   24.4730   41.5780 C   0  0  0  0  0  0  0  0  0  0  0  0
   37.9070   24.4840   40.7180 C   0  0  1  0  0  0  0  0  0  0  0  0
   38.4300   24.1180   42.8280 H   0  0  0  0  0  0  0  0  0  0  0  0
   36.2060   23.4480   41.7590 H   0  0  0  0  0  0  0  0  0  0  0  0
   35.8280   25.1630   41.2560 H   0  0  0  0  0  0  0  0  0  0  0  0
   38.1080   23.4910   40.2910 H   0  0  0  0  0  0  0  0  0  0  0  0
   39.3790   26.8990   42.5520 C   0  0  0  0  0  0  0  0  0  0  0  0
   38.0940   26.2920   42.5350 C   0  0  0  0  0  0  0  0  0  0  0  0
   37.0140   27.0700   42.8820 C   0  0  0  0  0  0  0  0  0  0  0  0
   37.2160   28.3640   43.2240 N   0  0  0  0  0  0  0  0  0  0  0  0
   38.4420   28.9340   43.2380 C   0  0  0  0  0  0  0  0  0  0  0  0
   39.5600   28.1700   42.8900 N   0  0  0  0  0  0  0  0  0  0  0  0
   40.2110   26.3010   42.2820 H   0  0  0  0  0  0  0  0  0  0  0  0
   36.0200   26.6490   42.8820 H   0  0  0  0  0  0  0  0  0  0  0  0
   38.4250   29.9680   43.5320 H   0  0  0  0  0  0  0  0  0  0  0  0
  1  3  1  0  0  0  0
  1 23  1  0  0  0  0
  1  4  1  1  0  0  0
  2  1  1  0  0  0  0
  2  3  1  0  0  0  0
  3  7  1  1  0  0  0
  3  8  1  0  0  0  0
  5  2  1  0  0  0  0
  6  2  1  0  0  0  0
  8 18  1  0  0  0  0
  8  9  1  0  0  0  0
  9 11  2  0  0  0  0
 10  9  1  0  0  0  0
 12 11  1  0  0  0  0
 12 13  1  0  0  0  0
 13 19  1  0  0  0  0
 14 13  2  0  0  0  0
 15 14  1  0  0  0  0
 16 15  1  0  0  0  0
 17 18  1  0  0  0  0
 17 15  2  0  0  0  0
 18 12  2  0  0  0  0
 19 21  1  0  0  0  0
 20 19  1  0  0  0  0
 22 28  1  0  0  0  0
 23 22  1  0  0  0  0
 24 23  2  0  0  0  0
 25 22  1  0  0  0  0
 26 34  1  0  0  0  0
 26 29  1  1  0  0  0
 27 30  1  0  0  0  0
 27 26  1  0  0  0  0
 28 32  1  6  0  0  0
 28 27  1  0  0  0  0
 28 26  1  0  0  0  0
 31 27  1  0  0  0  0
 33 38  1  0  0  0  0
 34 33  2  0  0  0  0
 34 35  1  0  0  0  0
 35 40  1  0  0  0  0
 35 36  2  0  0  0  0
 36 37  1  0  0  0  0
 37 41  1  0  0  0  0
 38 37  2  0  0  0  0
 39 33  1  0  0  0  0
M  END
>  <minimizedAffinity>
-5.78930187

$$$$

 OpenBabel03242510203D

 41 45  0  0  1  0  0  0  0  0999 V2000
   38.8410   28.9390   37.1690 C   0  0  2  0  0  0  0  0  0  0  0  0
   40.0370   27.9340   37.0850 C   0  0  0  0  0  0  0  0  0  0  0  0
   40.0190   29.1530   37.9940 C   0  0  1  0  0  0  0  0  0  0  0  0
   38.7540   29.4540   36.1760 H   0  0  0  0  0  0  0  0  0  0  0  0
   39.8110   26.9380   37.4600 H   0  0  0  0  0  0  0  0  0  0  0  0
   40.6480   27.9490   36.1810 H   0  0  0  0  0  0  0  0  0  0  0  0
   40.2130   28.8440   39.0000 H   0  0  0  0  0  0  0  0  0  0  0  0
   40.9640   30.1980   37.5500 N   0  0  0  0  0  0  0  0  0  0  0  0
   41.9800   30.0180   36.6750 C   0  0  0  0  0  0  0  0  0  0  0  0
   42.2100   29.0730   36.2010 H   0  0  0  0  0  0  0  0  0  0  0  0
   42.6380   31.1900   36.5030 N   0  0  0  0  0  0  0  0  0  0  0  0
   42.0420   32.0970   37.2630 C   0  0  0  0  0  0  0  0  0  0  0  0
   42.1930   33.4350   37.5510 C   0  0  0  0  0  0  0  0  0  0  0  0
   41.3680   34.0870   38.4170 N   0  0  0  0  0  0  0  0  0  0  0  0
   40.3620   33.4270   39.0270 C   0  0  0  0  0  0  0  0  0  0  0  0
   39.7410   33.9970   39.7010 H   0  0  0  0  0  0  0  0  0  0  0  0
   40.1720   32.1160   38.7790 N   0  0  0  0  0  0  0  0  0  0  0  0
   40.9780   31.4890   37.9350 C   0  0  0  0  0  0  0  0  0  0  0  0
   43.2240   34.1610   36.9410 N   0  0  0  0  0  0  0  0  0  0  0  0
   43.9580   34.1490   37.7020 H   0  0  0  0  0  0  0  0  0  0  0  0
   43.4820   34.6650   36.0570 H   0  0  0  0  0  0  0  0  0  0  0  0
   37.2510   28.5840   39.0780 N   0  0  0  0  0  0  0  0  0  0  0  0
   37.5420   28.3930   37.7390 C   0  0  0  0  0  0  0  0  0  0  0  0
   36.8870   27.8140   36.8300 O   0  0  0  0  0  0  0  0  0  0  0  0
   38.0490   28.4080   39.7560 H   0  0  0  0  0  0  0  0  0  0  0  0
   35.7920   29.0070   41.0330 C   0  0  1  0  0  0  0  0  0  0  0  0
   35.9890   30.2680   40.4140 C   0  0  0  0  0  0  0  0  0  0  0  0
   35.9670   28.9930   39.5520 C   0  0  1  0  0  0  0  0  0  0  0  0
   34.7910   28.6740   41.3890 H   0  0  0  0  0  0  0  0  0  0  0  0
   35.1050   30.9440   40.2580 H   0  0  0  0  0  0  0  0  0  0  0  0
   36.9260   30.8540   40.3810 H   0  0  0  0  0  0  0  0  0  0  0  0
   35.1600   29.0300   38.8070 H   0  0  0  0  0  0  0  0  0  0  0  0
   37.0700   27.0530   42.1670 C   0  0  0  0  0  0  0  0  0  0  0  0
   36.9460   28.4360   41.8620 C   0  0  0  0  0  0  0  0  0  0  0  0
   37.9040   29.2890   42.3580 C   0  0  0  0  0  0  0  0  0  0  0  0
   38.9120   28.7850   43.1080 N   0  0  0  0  0  0  0  0  0  0  0  0
   39.0230   27.4690   43.3930 C   0  0  0  0  0  0  0  0  0  0  0  0
   38.0660   26.5750   42.9040 N   0  0  0  0  0  0  0  0  0  0  0  0
   36.3350   26.3950   41.7830 H   0  0  0  0  0  0  0  0  0  0  0  0
   37.8480   30.3470   42.1500 H   0  0  0  0  0  0  0  0  0  0  0  0
   39.8820   27.2380   43.9990 H   0  0  0  0  0  0  0  0  0  0  0  0
  1  4  1  6  0  0  0
  1 23  1  0  0  0  0
  1  3  1  0  0  0  0
  2  1  1  0  0  0  0
  2  5  1  0  0  0  0
  2  3  1  0  0  0  0
  3  7  1  1  0  0  0
  6  2  1  0  0  0  0
  8 18  1  0  0  0  0
  8  3  1  0  0  0  0
  9  8  1  0  0  0  0
 10  9  1  0  0  0  0
 11  9  2  0  0  0  0
 11 12  1  0  0  0  0
 12 13  2  0  0  0  0
 12 18  1  0  0  0  0
 13 14  1  0  0  0  0
 14 15  2  0  0  0  0
 15 16  1  0  0  0  0
 17 15  1  0  0  0  0
 18 17  2  0  0  0  0
 19 13  1  0  0  0  0
 19 20  1  0  0  0  0
 21 19  1  0  0  0  0
 22 28  1  0  0  0  0
 22 25  1  0  0  0  0
 23 22  1  0  0  0  0
 24 23  2  0  0  0  0
 26 29  1  1  0  0  0
 26 34  1  0  0  0  0
 27 26  1  0  0  0  0
 28 32  1  6  0  0  0
 28 27  1  0  0  0  0
 28 26  1  0  0  0  0
 30 27  1  0  0  0  0
 31 27  1  0  0  0  0
 33 38  1  0  0  0  0
 34 33  2  0  0  0  0
 34 35  1  0  0  0  0
 35 36  2  0  0  0  0
 36 37  1  0  0  0  0
 37 41  1  0  0  0  0
 38 37  2  0  0  0  0
 39 33  1  0  0  0  0
 40 35  1  0  0  0  0
M  END
>  <minimizedAffinity>
-5.66146755

$$$$

 OpenBabel03242510203D

 41 45  0  0  1  0  0  0  0  0999 V2000
   39.0060   29.5120   41.9210 C   0  0  2  0  0  0  0  0  0  0  0  0
   37.6000   29.3000   42.5750 C   0  0  0  0  0  0  0  0  0  0  0  0
   38.8860   28.6990   43.1210 C   0  0  1  0  0  0  0  0  0  0  0  0
   38.9930   29.0220   40.9110 H   0  0  0  0  0  0  0  0  0  0  0  0
   37.1640   30.2020   43.0010 H   0  0  0  0  0  0  0  0  0  0  0  0
   36.8900   28.6590   42.0510 H   0  0  0  0  0  0  0  0  0  0  0  0
   38.9950   28.9790   44.1480 H   0  0  0  0  0  0  0  0  0  0  0  0
   38.9410   27.2340   42.9430 N   0  0  0  0  0  0  0  0  0  0  0  0
   39.6930   26.3820   43.6770 C   0  0  0  0  0  0  0  0  0  0  0  0
   40.3430   26.6910   44.4850 H   0  0  0  0  0  0  0  0  0  0  0  0
   39.4950   25.1150   43.2380 N   0  0  0  0  0  0  0  0  0  0  0  0
   38.6290   25.1720   42.2360 C   0  0  0  0  0  0  0  0  0  0  0  0
   38.0170   24.2880   41.3760 C   0  0  0  0  0  0  0  0  0  0  0  0
   37.1380   24.7000   40.4200 N   0  0  0  0  0  0  0  0  0  0  0  0
   36.8380   26.0090   40.2880 C   0  0  0  0  0  0  0  0  0  0  0  0
   36.1350   26.2750   39.5140 H   0  0  0  0  0  0  0  0  0  0  0  0
   37.4110   26.9140   41.1060 N   0  0  0  0  0  0  0  0  0  0  0  0
   38.2650   26.5060   42.0330 C   0  0  0  0  0  0  0  0  0  0  0  0
   38.2970   22.9190   41.4760 N   0  0  0  0  0  0  0  0  0  0  0  0
   39.0210   22.8050   40.7130 H   0  0  0  0  0  0  0  0  0  0  0  0
   38.0480   22.0520   42.0110 H   0  0  0  0  0  0  0  0  0  0  0  0
   39.3260   31.7750   40.8840 N   0  0  0  0  0  0  0  0  0  0  0  0
   39.5560   30.9280   41.9550 C   0  0  0  0  0  0  0  0  0  0  0  0
   40.1760   31.1210   43.0350 O   0  0  0  0  0  0  0  0  0  0  0  0
   39.4660   31.3520   39.9200 H   0  0  0  0  0  0  0  0  0  0  0  0
   39.6750   34.1320   40.2120 C   0  0  1  0  0  0  0  0  0  0  0  0
   38.3840   33.7800   39.7420 C   0  0  0  0  0  0  0  0  0  0  0  0
   38.9250   33.1380   41.0330 C   0  0  1  0  0  0  0  0  0  0  0  0
   39.8740   35.1030   40.7210 H   0  0  0  0  0  0  0  0  0  0  0  0
   37.5300   34.4920   39.9060 H   0  0  0  0  0  0  0  0  0  0  0  0
   38.1420   33.0800   38.9220 H   0  0  0  0  0  0  0  0  0  0  0  0
   38.2790   33.3660   41.8920 H   0  0  0  0  0  0  0  0  0  0  0  0
   42.2180   33.7130   39.9060 C   0  0  0  0  0  0  0  0  0  0  0  0
   40.8820   33.6030   39.4320 C   0  0  0  0  0  0  0  0  0  0  0  0
   40.6830   33.0070   38.2090 C   0  0  0  0  0  0  0  0  0  0  0  0
   41.7530   32.5580   37.5120 N   0  0  0  0  0  0  0  0  0  0  0  0
   43.0210   32.6670   37.9690 C   0  0  0  0  0  0  0  0  0  0  0  0
   43.2570   33.2660   39.2090 N   0  0  0  0  0  0  0  0  0  0  0  0
   42.3720   34.1680   40.8500 H   0  0  0  0  0  0  0  0  0  0  0  0
   39.6840   32.9030   37.8120 H   0  0  0  0  0  0  0  0  0  0  0  0
   43.7510   32.2590   37.2920 H   0  0  0  0  0  0  0  0  0  0  0  0
  1  4  1  6  0  0  0
  1 23  1  0  0  0  0
  1  2  1  0  0  0  0
  1  3  1  0  0  0  0
  2  5  1  0  0  0  0
  2  3  1  0  0  0  0
  3  7  1  1  0  0  0
  6  2  1  0  0  0  0
  8  3  1  0  0  0  0
  8  9  1  0  0  0  0
  9 10  1  0  0  0  0
 11  9  2  0  0  0  0
 12 11  1  0  0  0  0
 13 19  1  0  0  0  0
 13 12  2  0  0  0  0
 14 13  1  0  0  0  0
 15 14  2  0  0  0  0
 15 17  1  0  0  0  0
 16 15  1  0  0  0  0
 17 18  2  0  0  0  0
 18 12  1  0  0  0  0
 18  8  1  0  0  0  0
 19 21  1  0  0  0  0
 20 19  1  0  0  0  0
 22 28  1  0  0  0  0
 22 23  1  0  0  0  0
 23 24  2  0  0  0  0
 25 22  1  0  0  0  0
 26 29  1  1  0  0  0
 26 28  1  0  0  0  0
 27 30  1  0  0  0  0
 27 26  1  0  0  0  0
 27 28  1  0  0  0  0
 28 32  1  1  0  0  0
 31 27  1  0  0  0  0
 33 39  1  0  0  0  0
 34 33  1  0  0  0  0
 34 26  1  0  0  0  0
 35 34  2  0  0  0  0
 36 37  2  0  0  0  0
 36 35  1  0  0  0  0
 37 38  1  0  0  0  0
 38 33  2  0  0  0  0
 40 35  1  0  0  0  0
 41 37  1  0  0  0  0
M  END
>  <minimizedAffinity>
-5.56478262

$$$$

 OpenBabel03242510203D

 41 45  0  0  1  0  0  0  0  0999 V2000
   38.2570   29.5670   39.0260 C   0  0  2  0  0  0  0  0  0  0  0  0
   39.2430   28.8390   38.0540 C   0  0  0  0  0  0  0  0  0  0  0  0
   39.6910   29.7130   39.2150 C   0  0  1  0  0  0  0  0  0  0  0  0
   37.6910   30.3330   38.4320 H   0  0  0  0  0  0  0  0  0  0  0  0
   39.2250   27.7530   38.1290 H   0  0  0  0  0  0  0  0  0  0  0  0
   39.3220   29.2200   37.0350 H   0  0  0  0  0  0  0  0  0  0  0  0
   40.3570   29.1540   39.8390 H   0  0  0  0  0  0  0  0  0  0  0  0
   40.2980   30.9800   38.7610 N   0  0  0  0  0  0  0  0  0  0  0  0
   39.7510   32.2090   38.9070 C   0  0  0  0  0  0  0  0  0  0  0  0
   38.7950   32.3940   39.3800 H   0  0  0  0  0  0  0  0  0  0  0  0
   40.5830   33.1380   38.3760 N   0  0  0  0  0  0  0  0  0  0  0  0
   41.6410   32.4980   37.8990 C   0  0  0  0  0  0  0  0  0  0  0  0
   42.8150   32.8200   37.2570 C   0  0  0  0  0  0  0  0  0  0  0  0
   43.7250   31.8740   36.8920 N   0  0  0  0  0  0  0  0  0  0  0  0
   43.4950   30.5710   37.1550 C   0  0  0  0  0  0  0  0  0  0  0  0
   44.2510   29.8680   36.8430 H   0  0  0  0  0  0  0  0  0  0  0  0
   42.3600   30.2030   37.7820 N   0  0  0  0  0  0  0  0  0  0  0  0
   41.4800   31.1290   38.1340 C   0  0  0  0  0  0  0  0  0  0  0  0
   43.0970   34.1610   36.9630 N   0  0  0  0  0  0  0  0  0  0  0  0
   42.7960   34.2140   35.9510 H   0  0  0  0  0  0  0  0  0  0  0  0
   43.4730   35.0470   37.3810 H   0  0  0  0  0  0  0  0  0  0  0  0
   37.8500   28.3670   41.1930 N   0  0  0  0  0  0  0  0  0  0  0  0
   37.4090   28.6740   39.9180 C   0  0  0  0  0  0  0  0  0  0  0  0
   36.3580   28.3350   39.3090 O   0  0  0  0  0  0  0  0  0  0  0  0
   38.8750   28.1000   41.2770 H   0  0  0  0  0  0  0  0  0  0  0  0
   36.8810   27.1160   43.0970 C   0  0  1  0  0  0  0  0  0  0  0  0
   37.7340   28.0950   43.6680 C   0  0  0  0  0  0  0  0  0  0  0  0
   37.0070   28.3980   42.3450 C   0  0  1  0  0  0  0  0  0  0  0  0
   35.8650   26.9100   43.5030 H   0  0  0  0  0  0  0  0  0  0  0  0
   37.3660   28.6980   44.5430 H   0  0  0  0  0  0  0  0  0  0  0  0
   38.8390   28.1230   43.6260 H   0  0  0  0  0  0  0  0  0  0  0  0
   36.3480   29.2720   42.4440 H   0  0  0  0  0  0  0  0  0  0  0  0
   36.8220   24.9480   41.6720 C   0  0  0  0  0  0  0  0  0  0  0  0
   37.5380   25.8860   42.4650 C   0  0  0  0  0  0  0  0  0  0  0  0
   38.8770   25.6540   42.6780 C   0  0  0  0  0  0  0  0  0  0  0  0
   39.4510   24.5550   42.1350 N   0  0  0  0  0  0  0  0  0  0  0  0
   38.7630   23.6670   41.3830 C   0  0  0  0  0  0  0  0  0  0  0  0
   37.4010   23.8750   41.1460 N   0  0  0  0  0  0  0  0  0  0  0  0
   35.7920   25.1270   41.5040 H   0  0  0  0  0  0  0  0  0  0  0  0
   39.4580   26.3420   43.2740 H   0  0  0  0  0  0  0  0  0  0  0  0
   39.3700   22.8530   41.0280 H   0  0  0  0  0  0  0  0  0  0  0  0
  1  4  1  6  0  0  0
  1  3  1  0  0  0  0
  1 23  1  0  0  0  0
  2  5  1  0  0  0  0
  2  1  1  0  0  0  0
  2  3  1  0  0  0  0
  3  7  1  1  0  0  0
  6  2  1  0  0  0  0
  8  9  1  0  0  0  0
  8  3  1  0  0  0  0
  9 10  1  0  0  0  0
 11  9  2  0  0  0  0
 12 18  1  0  0  0  0
 12 11  1  0  0  0  0
 13 12  2  0  0  0  0
 14 15  2  0  0  0  0
 14 13  1  0  0  0  0
 15 17  1  0  0  0  0
 16 15  1  0  0  0  0
 17 18  2  0  0  0  0
 18  8  1  0  0  0  0
 19 13  1  0  0  0  0
 19 21  1  0  0  0  0
 20 19  1  0  0  0  0
 22 25  1  0  0  0  0
 22 28  1  0  0  0  0
 23 22  1  0  0  0  0
 24 23  2  0  0  0  0
 26 29  1  1  0  0  0
 26 27  1  0  0  0  0
 27 30  1  0  0  0  0
 28 32  1  1  0  0  0
 28 26  1  0  0  0  0
 28 27  1  0  0  0  0
 31 27  1  0  0  0  0
 33 34  1  0  0  0  0
 34 35  2  0  0  0  0
 34 26  1  0  0  0  0
 35 40  1  0  0  0  0
 36 35  1  0  0  0  0
 37 36  2  0  0  0  0
 38 37  1  0  0  0  0
 38 33  2  0  0  0  0
 39 33  1  0  0  0  0
 41 37  1  0  0  0  0
M  END
>  <minimizedAffinity>
-5.53276062

$$$$

 OpenBabel03242510203D

 41 45  0  0  1  0  0  0  0  0999 V2000
   39.6300   30.1240   39.7580 C   0  0  2  0  0  0  0  0  0  0  0  0
   40.5450   30.7030   40.8880 C   0  0  0  0  0  0  0  0  0  0  0  0
   40.0650   31.5090   39.6910 C   0  0  1  0  0  0  0  0  0  0  0  0
   40.2100   29.3290   39.2190 H   0  0  0  0  0  0  0  0  0  0  0  0
   40.0610   30.7790   41.8600 H   0  0  0  0  0  0  0  0  0  0  0  0
   41.5800   30.3630   40.9240 H   0  0  0  0  0  0  0  0  0  0  0  0
   39.5760   32.3960   40.0380 H   0  0  0  0  0  0  0  0  0  0  0  0
   41.1590   31.8200   38.7490 N   0  0  0  0  0  0  0  0  0  0  0  0
   41.2770   31.3290   37.4930 C   0  0  0  0  0  0  0  0  0  0  0  0
   40.5700   30.6470   37.0410 H   0  0  0  0  0  0  0  0  0  0  0  0
   42.4000   31.8270   36.9200 N   0  0  0  0  0  0  0  0  0  0  0  0
   42.9820   32.6210   37.8070 C   0  0  0  0  0  0  0  0  0  0  0  0
   44.1070   33.4110   37.8740 C   0  0  0  0  0  0  0  0  0  0  0  0
   44.4230   34.1290   38.9880 N   0  0  0  0  0  0  0  0  0  0  0  0
   43.6250   34.0850   40.0750 C   0  0  0  0  0  0  0  0  0  0  0  0
   43.9250   34.6750   40.9270 H   0  0  0  0  0  0  0  0  0  0  0  0
   42.5110   33.3270   40.0600 N   0  0  0  0  0  0  0  0  0  0  0  0
   42.2110   32.6310   38.9730 C   0  0  0  0  0  0  0  0  0  0  0  0
   44.9650   33.4880   36.7690 N   0  0  0  0  0  0  0  0  0  0  0  0
   45.7140   32.7940   37.0460 H   0  0  0  0  0  0  0  0  0  0  0  0
   45.0940   33.9640   35.8430 H   0  0  0  0  0  0  0  0  0  0  0  0
   38.0300   28.7520   41.1200 N   0  0  0  0  0  0  0  0  0  0  0  0
   38.2180   29.7380   40.1680 C   0  0  0  0  0  0  0  0  0  0  0  0
   37.3820   30.4330   39.5300 O   0  0  0  0  0  0  0  0  0  0  0  0
   38.6290   27.8820   41.0120 H   0  0  0  0  0  0  0  0  0  0  0  0
   36.9490   27.6620   43.0630 C   0  0  1  0  0  0  0  0  0  0  0  0
   37.7240   28.7250   43.5940 C   0  0  0  0  0  0  0  0  0  0  0  0
   37.0960   28.8660   42.1960 C   0  0  1  0  0  0  0  0  0  0  0  0
   35.9100   27.4590   43.4090 H   0  0  0  0  0  0  0  0  0  0  0  0
   37.2700   29.3970   44.3720 H   0  0  0  0  0  0  0  0  0  0  0  0
   38.8270   28.7890   43.6350 H   0  0  0  0  0  0  0  0  0  0  0  0
   36.4060   29.7200   42.1540 H   0  0  0  0  0  0  0  0  0  0  0  0
   37.0720   25.3680   41.8550 C   0  0  0  0  0  0  0  0  0  0  0  0
   37.6910   26.4010   42.6120 C   0  0  0  0  0  0  0  0  0  0  0  0
   39.0110   26.2350   42.9620 C   0  0  0  0  0  0  0  0  0  0  0  0
   39.6580   25.1100   42.5790 N   0  0  0  0  0  0  0  0  0  0  0  0
   39.0630   24.1320   41.8600 C   0  0  0  0  0  0  0  0  0  0  0  0
   37.7230   24.2700   41.4880 N   0  0  0  0  0  0  0  0  0  0  0  0
   36.0570   25.4960   41.5830 H   0  0  0  0  0  0  0  0  0  0  0  0
   39.5190   26.9950   43.5360 H   0  0  0  0  0  0  0  0  0  0  0  0
   39.7200   23.3090   41.6400 H   0  0  0  0  0  0  0  0  0  0  0  0
  1  4  1  6  0  0  0
  1 23  1  0  0  0  0
  1  2  1  0  0  0  0
  2  6  1  0  0  0  0
  2  5  1  0  0  0  0
  3  1  1  0  0  0  0
  3  7  1  1  0  0  0
  3  2  1  0  0  0  0
  8 18  1  0  0  0  0
  8  3  1  0  0  0  0
  9  8  1  0  0  0  0
 10  9  1  0  0  0  0
 11  9  2  0  0  0  0
 11 12  1  0  0  0  0
 12 13  2  0  0  0  0
 12 18  1  0  0  0  0
 13 14  1  0  0  0  0
 14 15  2  0  0  0  0
 15 16  1  0  0  0  0
 17 15  1  0  0  0  0
 18 17  2  0  0  0  0
 19 20  1  0  0  0  0
 19 13  1  0  0  0  0
 21 19  1  0  0  0  0
 22 28  1  0  0  0  0
 23 22  1  0  0  0  0
 24 23  2  0  0  0  0
 25 22  1  0  0  0  0
 26 29  1  1  0  0  0
 26 27  1  0  0  0  0
 27 31  1  0  0  0  0
 27 30  1  0  0  0  0
 28 32  1  6  0  0  0
 28 26  1  0  0  0  0
 28 27  1  0  0  0  0
 33 34  1  0  0  0  0
 34 35  2  0  0  0  0
 34 26  1  0  0  0  0
 35 40  1  0  0  0  0
 36 35  1  0  0  0  0
 37 36  2  0  0  0  0
 38 33  2  0  0  0  0
 38 37  1  0  0  0  0
 39 33  1  0  0  0  0
 41 37  1  0  0  0  0
M  END
>  <minimizedAffinity>
-5.51778889

$$$$

 OpenBabel03242510203D

 41 45  0  0  1  0  0  0  0  0999 V2000
   37.0860   29.5570   39.7750 C   0  0  2  0  0  0  0  0  0  0  0  0
   37.2310   29.0690   38.2960 C   0  0  0  0  0  0  0  0  0  0  0  0
   38.4100   29.3430   39.2160 C   0  0  1  0  0  0  0  0  0  0  0  0
   36.6300   30.5820   39.7570 H   0  0  0  0  0  0  0  0  0  0  0  0
   36.8650   28.0590   38.1200 H   0  0  0  0  0  0  0  0  0  0  0  0
   36.9940   29.7800   37.5030 H   0  0  0  0  0  0  0  0  0  0  0  0
   39.0350   28.4740   39.2540 H   0  0  0  0  0  0  0  0  0  0  0  0
   39.1680   30.5450   38.8150 N   0  0  0  0  0  0  0  0  0  0  0  0
   38.8650   31.8170   39.1650 C   0  0  0  0  0  0  0  0  0  0  0  0
   38.0220   32.0890   39.7870 H   0  0  0  0  0  0  0  0  0  0  0  0
   39.7730   32.6620   38.6200 N   0  0  0  0  0  0  0  0  0  0  0  0
   40.6370   31.9290   37.9320 C   0  0  0  0  0  0  0  0  0  0  0  0
   41.7600   32.1400   37.1650 C   0  0  0  0  0  0  0  0  0  0  0  0
   42.4390   31.1170   36.5770 N   0  0  0  0  0  0  0  0  0  0  0  0
   42.0200   29.8430   36.7320 C   0  0  0  0  0  0  0  0  0  0  0  0
   42.5990   29.0750   36.2430 H   0  0  0  0  0  0  0  0  0  0  0  0
   40.9260   29.5830   37.4740 N   0  0  0  0  0  0  0  0  0  0  0  0
   40.2710   30.5840   38.0430 C   0  0  0  0  0  0  0  0  0  0  0  0
   42.2320   33.4460   36.9760 N   0  0  0  0  0  0  0  0  0  0  0  0
   41.8210   33.6740   36.0280 H   0  0  0  0  0  0  0  0  0  0  0  0
   42.8050   34.2010   37.4260 H   0  0  0  0  0  0  0  0  0  0  0  0
   37.2320   27.6080   41.3510 N   0  0  0  0  0  0  0  0  0  0  0  0
   36.4490   28.5760   40.7470 C   0  0  0  0  0  0  0  0  0  0  0  0
   35.2180   28.8240   40.8600 O   0  0  0  0  0  0  0  0  0  0  0  0
   37.9140   27.1000   40.7140 H   0  0  0  0  0  0  0  0  0  0  0  0
   38.4050   27.4880   43.5280 C   0  0  1  0  0  0  0  0  0  0  0  0
   37.4050   28.4820   43.6780 C   0  0  0  0  0  0  0  0  0  0  0  0
   37.1540   27.2880   42.7400 C   0  0  1  0  0  0  0  0  0  0  0  0
   38.5940   26.7170   44.3090 H   0  0  0  0  0  0  0  0  0  0  0  0
   36.7680   28.4810   44.6050 H   0  0  0  0  0  0  0  0  0  0  0  0
   37.3810   29.4800   43.2030 H   0  0  0  0  0  0  0  0  0  0  0  0
   36.2760   26.7090   43.0590 H   0  0  0  0  0  0  0  0  0  0  0  0
   40.0620   29.2040   42.5050 C   0  0  0  0  0  0  0  0  0  0  0  0
   39.6600   27.8590   42.7330 C   0  0  0  0  0  0  0  0  0  0  0  0
   40.4340   26.8600   42.1920 C   0  0  0  0  0  0  0  0  0  0  0  0
   41.5320   27.1910   41.4730 N   0  0  0  0  0  0  0  0  0  0  0  0
   41.9070   28.4730   41.2610 C   0  0  0  0  0  0  0  0  0  0  0  0
   41.1420   29.5120   41.7970 N   0  0  0  0  0  0  0  0  0  0  0  0
   39.4680   29.9750   42.9240 H   0  0  0  0  0  0  0  0  0  0  0  0
   40.1650   25.8250   42.3410 H   0  0  0  0  0  0  0  0  0  0  0  0
   42.8020   28.5590   40.6700 H   0  0  0  0  0  0  0  0  0  0  0  0
  1  4  1  1  0  0  0
  1 23  1  0  0  0  0
  2  3  1  0  0  0  0
  2  1  1  0  0  0  0
  3  7  1  1  0  0  0
  3  1  1  0  0  0  0
  5  2  1  0  0  0  0
  6  2  1  0  0  0  0
  8  9  1  0  0  0  0
  8  3  1  0  0  0  0
  9 10  1  0  0  0  0
 11  9  2  0  0  0  0
 12 18  1  0  0  0  0
 12 11  1  0  0  0  0
 13 12  2  0  0  0  0
 14 15  2  0  0  0  0
 14 13  1  0  0  0  0
 15 17  1  0  0  0  0
 16 15  1  0  0  0  0
 17 18  2  0  0  0  0
 18  8  1  0  0  0  0
 19 13  1  0  0  0  0
 19 21  1  0  0  0  0
 20 19  1  0  0  0  0
 22 28  1  0  0  0  0
 23 24  2  0  0  0  0
 23 22  1  0  0  0  0
 25 22  1  0  0  0  0
 26 27  1  0  0  0  0
 26 29  1  1  0  0  0
 27 30  1  0  0  0  0
 28 32  1  1  0  0  0
 28 26  1  0  0  0  0
 28 27  1  0  0  0  0
 31 27  1  0  0  0  0
 33 34  1  0  0  0  0
 33 39  1  0  0  0  0
 34 26  1  0  0  0  0
 35 40  1  0  0  0  0
 35 34  2  0  0  0  0
 36 35  1  0  0  0  0
 37 36  2  0  0  0  0
 37 38  1  0  0  0  0
 38 33  2  0  0  0  0
 41 37  1  0  0  0  0
M  END
>  <minimizedAffinity>
-5.43077183

$$$$
