
 OpenBabel03242523453D

 24 26  0  0  0  0  0  0  0  0999 V2000
   47.2520   33.1640   43.1930 N   0  0  0  0  0  0  0  0  0  0  0  0
   47.9180   32.0680   43.6400 C   0  0  0  0  0  0  0  0  0  0  0  0
   47.8080   31.7020   44.6480 H   0  0  0  0  0  0  0  0  0  0  0  0
   48.6720   31.6010   42.6210 N   0  0  0  0  0  0  0  0  0  0  0  0
   48.5060   32.3700   41.5330 C   0  0  0  0  0  0  0  0  0  0  0  0
   48.9870   32.3860   40.2590 C   0  0  0  0  0  0  0  0  0  0  0  0
   48.6170   33.3280   39.3520 N   0  0  0  0  0  0  0  0  0  0  0  0
   47.7530   34.2740   39.7070 C   0  0  0  0  0  0  0  0  0  0  0  0
   47.3380   35.0980   39.1500 H   0  0  0  0  0  0  0  0  0  0  0  0
   47.2670   34.2810   40.9460 N   0  0  0  0  0  0  0  0  0  0  0  0
   47.6060   33.3610   41.8920 C   0  0  0  0  0  0  0  0  0  0  0  0
   45.0680   36.0800   43.6650 C   0  0  0  0  0  0  0  0  0  0  0  0
   45.9760   35.1800   43.0830 C   0  0  0  0  0  0  0  0  0  0  0  0
   46.3300   34.0450   43.8240 C   0  0  0  0  0  0  0  0  0  0  0  0
   45.7870   33.8720   45.0550 N   0  0  0  0  0  0  0  0  0  0  0  0
   44.9230   34.7550   45.5760 C   0  0  0  0  0  0  0  0  0  0  0  0
   44.5690   35.8480   44.8860 N   0  0  0  0  0  0  0  0  0  0  0  0
   46.3780   35.3650   42.1010 H   0  0  0  0  0  0  0  0  0  0  0  0
   44.4970   34.6110   46.5530 H   0  0  0  0  0  0  0  0  0  0  0  0
   44.7170   37.1900   42.9470 O   0  0  0  0  0  0  0  0  0  0  0  0
   44.1420   37.0090   42.1090 H   0  0  0  0  0  0  0  0  0  0  0  0
   49.9150   31.3890   39.8400 N   0  0  0  0  0  0  0  0  0  0  0  0
   49.8380   30.4420   39.4510 H   0  0  0  0  0  0  0  0  0  0  0  0
   50.8240   31.8680   40.0260 H   0  0  0  0  0  0  0  0  0  0  0  0
  1  2  1  0  0  0  0
  1 14  1  0  0  0  0
  2  3  1  0  0  0  0
  4  2  2  0  0  0  0
  5 11  1  0  0  0  0
  5  4  1  0  0  0  0
  6  5  2  0  0  0  0
  7  8  2  0  0  0  0
  7  6  1  0  0  0  0
  8 10  1  0  0  0  0
  9  8  1  0  0  0  0
 10 11  2  0  0  0  0
 11  1  1  0  0  0  0
 12 17  1  0  0  0  0
 13 12  2  0  0  0  0
 13 14  1  0  0  0  0
 14 15  2  0  0  0  0
 15 16  1  0  0  0  0
 16 19  1  0  0  0  0
 17 16  2  0  0  0  0
 18 13  1  0  0  0  0
 20 12  1  0  0  0  0
 21 20  1  0  0  0  0
 22 24  1  0  0  0  0
 22  6  1  0  0  0  0
 23 22  1  0  0  0  0
M  END
>  <minimizedAffinity>
-4.87016249

>  <minimizedRMSD>
1.02873909

$$$$
