
 OpenBabel03242523453D

 24 26  0  0  0  0  0  0  0  0999 V2000
   47.5820   33.9930   42.5000 N   0  0  0  0  0  0  0  0  0  0  0  0
   47.8340   34.8610   41.4860 C   0  0  0  0  0  0  0  0  0  0  0  0
   47.3670   35.8310   41.4350 H   0  0  0  0  0  0  0  0  0  0  0  0
   48.7160   34.2720   40.6510 N   0  0  0  0  0  0  0  0  0  0  0  0
   49.0360   33.0490   41.1020 C   0  0  0  0  0  0  0  0  0  0  0  0
   49.8450   32.0330   40.6930 C   0  0  0  0  0  0  0  0  0  0  0  0
   49.9630   30.8700   41.3890 N   0  0  0  0  0  0  0  0  0  0  0  0
   49.2700   30.7090   42.5130 C   0  0  0  0  0  0  0  0  0  0  0  0
   49.2230   29.8800   43.2020 H   0  0  0  0  0  0  0  0  0  0  0  0
   48.4740   31.6860   42.9350 N   0  0  0  0  0  0  0  0  0  0  0  0
   48.3200   32.8680   42.2740 C   0  0  0  0  0  0  0  0  0  0  0  0
   44.7910   35.0620   44.6360 C   0  0  0  0  0  0  0  0  0  0  0  0
   45.6470   34.9430   43.5290 C   0  0  0  0  0  0  0  0  0  0  0  0
   46.7440   34.0800   43.6470 C   0  0  0  0  0  0  0  0  0  0  0  0
   46.9250   33.4080   44.8110 N   0  0  0  0  0  0  0  0  0  0  0  0
   46.0850   33.5480   45.8450 C   0  0  0  0  0  0  0  0  0  0  0  0
   45.0280   34.3680   45.7560 N   0  0  0  0  0  0  0  0  0  0  0  0
   45.4570   35.5010   42.6270 H   0  0  0  0  0  0  0  0  0  0  0  0
   46.2360   33.0110   46.7660 H   0  0  0  0  0  0  0  0  0  0  0  0
   43.7170   35.9030   44.5280 O   0  0  0  0  0  0  0  0  0  0  0  0
   42.9800   35.5950   43.8760 H   0  0  0  0  0  0  0  0  0  0  0  0
   50.6030   32.1670   39.4940 N   0  0  0  0  0  0  0  0  0  0  0  0
   51.5220   32.5580   39.2560 H   0  0  0  0  0  0  0  0  0  0  0  0
   49.9600   31.7300   38.7980 H   0  0  0  0  0  0  0  0  0  0  0  0
  1 14  1  0  0  0  0
  2  1  1  0  0  0  0
  3  2  1  0  0  0  0
  4  5  1  0  0  0  0
  4  2  2  0  0  0  0
  5 11  1  0  0  0  0
  6  5  2  0  0  0  0
  6  7  1  0  0  0  0
  7  8  2  0  0  0  0
  8 10  1  0  0  0  0
  8  9  1  0  0  0  0
 11  1  1  0  0  0  0
 11 10  2  0  0  0  0
 12 17  1  0  0  0  0
 13 14  1  0  0  0  0
 13 12  2  0  0  0  0
 14 15  2  0  0  0  0
 15 16  1  0  0  0  0
 16 19  1  0  0  0  0
 17 16  2  0  0  0  0
 18 13  1  0  0  0  0
 20 12  1  0  0  0  0
 21 20  1  0  0  0  0
 22  6  1  0  0  0  0
 23 22  1  0  0  0  0
 24 22  1  0  0  0  0
M  END
>  <minimizedAffinity>
-5.04373646

>  <minimizedRMSD>
1.5132755

$$$$
