
 OpenBabel03252501363D

 40 43  0  0  0  0  0  0  0  0999 V2000
   42.8130   33.1580   38.3300 Cl  0  0  0  0  0  0  0  0  0  0  0  0
   41.7470   33.5700   39.6540 C   0  0  0  0  0  0  0  0  0  0  0  0
   42.0390   34.5890   40.5520 C   0  0  0  0  0  0  0  0  0  0  0  0
   41.1600   34.8620   41.5680 C   0  0  0  0  0  0  0  0  0  0  0  0
   39.9780   34.1770   41.7650 C   0  0  0  0  0  0  0  0  0  0  0  0
   39.6640   33.1550   40.8830 C   0  0  0  0  0  0  0  0  0  0  0  0
   38.1860   32.2250   41.0470 Cl  0  0  0  0  0  0  0  0  0  0  0  0
   40.5520   32.8930   39.8710 C   0  0  0  0  0  0  0  0  0  0  0  0
   41.4400   35.6730   42.2430 H   0  0  0  0  0  0  0  0  0  0  0  0
   39.2920   34.3960   42.5650 H   0  0  0  0  0  0  0  0  0  0  0  0
   40.2770   31.8400   38.9220 N   0  0  0  0  0  0  0  0  0  0  0  0
   39.6310   31.8100   37.7280 C   0  0  0  0  0  0  0  0  0  0  0  0
   39.2000   32.7150   37.3250 H   0  0  0  0  0  0  0  0  0  0  0  0
   39.6700   30.5480   37.2650 N   0  0  0  0  0  0  0  0  0  0  0  0
   40.3320   29.7780   38.1500 C   0  0  0  0  0  0  0  0  0  0  0  0
   40.6740   28.4410   38.2050 C   0  0  0  0  0  0  0  0  0  0  0  0
   41.3660   27.9310   39.2560 N   0  0  0  0  0  0  0  0  0  0  0  0
   41.7330   28.7250   40.2630 C   0  0  0  0  0  0  0  0  0  0  0  0
   42.2780   28.5040   41.1660 H   0  0  0  0  0  0  0  0  0  0  0  0
   41.4180   30.0170   40.2360 N   0  0  0  0  0  0  0  0  0  0  0  0
   40.7240   30.5980   39.2130 C   0  0  0  0  0  0  0  0  0  0  0  0
   40.2940   27.5680   37.1440 N   0  0  0  0  0  0  0  0  0  0  0  0
   41.1450   27.0410   36.7880 H   0  0  0  0  0  0  0  0  0  0  0  0
   39.2940   27.5370   36.8440 H   0  0  0  0  0  0  0  0  0  0  0  0
   43.2260   35.2700   40.3460 O   0  0  0  0  0  0  0  0  0  0  0  0
   44.3760   34.8240   41.0110 C   0  0  0  0  0  0  0  0  0  0  0  0
   45.1020   33.8250   40.6680 O   0  0  0  0  0  0  0  0  0  0  0  0
   44.8640   35.4750   42.1890 N   0  0  0  0  0  0  0  0  0  0  0  0
   44.3740   36.2880   42.5770 H   0  0  0  0  0  0  0  0  0  0  0  0
   46.0600   34.7920   42.6340 C   0  0  0  0  0  0  0  0  0  0  0  0
   46.0460   33.7140   43.5020 C   0  0  0  0  0  0  0  0  0  0  0  0
   47.2890   33.1790   43.8240 C   0  0  0  0  0  0  0  0  0  0  0  0
   48.3790   33.7340   43.2850 N   0  0  0  0  0  0  0  0  0  0  0  0
   48.3470   34.7830   42.4450 C   0  0  0  0  0  0  0  0  0  0  0  0
   47.1530   35.3350   42.1050 N   0  0  0  0  0  0  0  0  0  0  0  0
   47.2710   32.3390   44.5000 H   0  0  0  0  0  0  0  0  0  0  0  0
   49.2820   35.1660   42.0580 H   0  0  0  0  0  0  0  0  0  0  0  0
   44.7950   33.2570   43.9760 N   0  0  0  0  0  0  0  0  0  0  0  0
   43.9700   33.3080   43.3490 H   0  0  0  0  0  0  0  0  0  0  0  0
   44.6080   32.8540   44.9400 H   0  0  0  0  0  0  0  0  0  0  0  0
  1  2  1  0  0  0  0
  2  8  2  0  0  0  0
  2  3  1  0  0  0  0
  3  4  2  0  0  0  0
  4  5  1  0  0  0  0
  4  9  1  0  0  0  0
  5 10  1  0  0  0  0
  6  7  1  0  0  0  0
  6  5  2  0  0  0  0
  8  6  1  0  0  0  0
 11 21  1  0  0  0  0
 11  8  1  0  0  0  0
 12 11  1  0  0  0  0
 13 12  1  0  0  0  0
 14 12  2  0  0  0  0
 14 15  1  0  0  0  0
 15 16  2  0  0  0  0
 15 21  1  0  0  0  0
 16 17  1  0  0  0  0
 17 18  2  0  0  0  0
 18 19  1  0  0  0  0
 20 18  1  0  0  0  0
 21 20  2  0  0  0  0
 22 16  1  0  0  0  0
 23 22  1  0  0  0  0
 24 22  1  0  0  0  0
 25  3  1  0  0  0  0
 25 26  1  0  0  0  0
 26 28  1  0  0  0  0
 27 26  2  0  0  0  0
 28 29  1  0  0  0  0
 28 30  1  0  0  0  0
 30 31  1  0  0  0  0
 31 32  2  0  0  0  0
 31 38  1  0  0  0  0
 32 36  1  0  0  0  0
 33 32  1  0  0  0  0
 34 33  2  0  0  0  0
 35 34  1  0  0  0  0
 35 30  2  0  0  0  0
 37 34  1  0  0  0  0
 38 40  1  0  0  0  0
 39 38  1  0  0  0  0
M  END
>  <minimizedAffinity>
-5.43649769

>  <minimizedRMSD>
2.26196814

$$$$
