
 OpenBabel03252501363D

 40 43  0  0  0  0  0  0  0  0999 V2000
   43.2180   32.3700   39.4880 Cl  0  0  0  0  0  0  0  0  0  0  0  0
   42.1010   33.6270   39.9640 C   0  0  0  0  0  0  0  0  0  0  0  0
   42.5240   34.8040   40.5690 C   0  0  0  0  0  0  0  0  0  0  0  0
   41.5970   35.7520   40.9180 C   0  0  0  0  0  0  0  0  0  0  0  0
   40.2400   35.6130   40.7050 C   0  0  0  0  0  0  0  0  0  0  0  0
   39.7920   34.4470   40.1030 C   0  0  0  0  0  0  0  0  0  0  0  0
   38.0890   34.1740   39.7870 Cl  0  0  0  0  0  0  0  0  0  0  0  0
   40.7310   33.5080   39.7590 C   0  0  0  0  0  0  0  0  0  0  0  0
   41.9850   36.6570   41.3890 H   0  0  0  0  0  0  0  0  0  0  0  0
   39.5160   36.3600   40.9810 H   0  0  0  0  0  0  0  0  0  0  0  0
   40.3230   32.2740   39.1280 N   0  0  0  0  0  0  0  0  0  0  0  0
   40.2430   31.8750   37.8340 C   0  0  0  0  0  0  0  0  0  0  0  0
   40.5210   32.5520   37.0410 H   0  0  0  0  0  0  0  0  0  0  0  0
   39.7940   30.6080   37.8160 N   0  0  0  0  0  0  0  0  0  0  0  0
   39.5890   30.1980   39.0840 C   0  0  0  0  0  0  0  0  0  0  0  0
   39.1460   29.0260   39.6640 C   0  0  0  0  0  0  0  0  0  0  0  0
   39.0390   28.9010   41.0110 N   0  0  0  0  0  0  0  0  0  0  0  0
   39.3630   29.9210   41.8050 C   0  0  0  0  0  0  0  0  0  0  0  0
   39.3430   30.0070   42.8800 H   0  0  0  0  0  0  0  0  0  0  0  0
   39.7930   31.0630   41.2740 N   0  0  0  0  0  0  0  0  0  0  0  0
   39.9260   31.2600   39.9290 C   0  0  0  0  0  0  0  0  0  0  0  0
   38.7930   27.9180   38.8400 N   0  0  0  0  0  0  0  0  0  0  0  0
   39.3120   27.0500   39.1610 H   0  0  0  0  0  0  0  0  0  0  0  0
   38.1090   28.0600   38.0620 H   0  0  0  0  0  0  0  0  0  0  0  0
   43.8860   34.9350   40.7790 O   0  0  0  0  0  0  0  0  0  0  0  0
   44.4280   34.4430   41.9740 C   0  0  0  0  0  0  0  0  0  0  0  0
   44.0790   33.3630   42.5680 O   0  0  0  0  0  0  0  0  0  0  0  0
   45.4690   35.1380   42.6700 N   0  0  0  0  0  0  0  0  0  0  0  0
   45.8400   36.0220   42.3060 H   0  0  0  0  0  0  0  0  0  0  0  0
   45.8190   34.3820   43.8540 C   0  0  0  0  0  0  0  0  0  0  0  0
   45.1900   34.5430   45.0760 C   0  0  0  0  0  0  0  0  0  0  0  0
   45.6540   33.7340   46.1080 C   0  0  0  0  0  0  0  0  0  0  0  0
   46.6510   32.8810   45.8480 N   0  0  0  0  0  0  0  0  0  0  0  0
   47.2340   32.7570   44.6430 C   0  0  0  0  0  0  0  0  0  0  0  0
   46.8090   33.5300   43.6090 N   0  0  0  0  0  0  0  0  0  0  0  0
   45.1600   33.8650   47.0570 H   0  0  0  0  0  0  0  0  0  0  0  0
   48.0350   32.0390   44.5260 H   0  0  0  0  0  0  0  0  0  0  0  0
   44.1510   35.4970   45.1700 N   0  0  0  0  0  0  0  0  0  0  0  0
   43.5320   35.6490   44.3510 H   0  0  0  0  0  0  0  0  0  0  0  0
   43.9320   36.0920   46.0210 H   0  0  0  0  0  0  0  0  0  0  0  0
  1  2  1  0  0  0  0
  2  3  1  0  0  0  0
  3 25  1  0  0  0  0
  3  4  2  0  0  0  0
  4  9  1  0  0  0  0
  5  4  1  0  0  0  0
  5 10  1  0  0  0  0
  6  5  2  0  0  0  0
  7  6  1  0  0  0  0
  8  2  2  0  0  0  0
  8  6  1  0  0  0  0
 11  8  1  0  0  0  0
 11 21  1  0  0  0  0
 12 11  1  0  0  0  0
 13 12  1  0  0  0  0
 14 12  2  0  0  0  0
 14 15  1  0  0  0  0
 15 16  2  0  0  0  0
 15 21  1  0  0  0  0
 16 17  1  0  0  0  0
 17 18  2  0  0  0  0
 18 19  1  0  0  0  0
 20 18  1  0  0  0  0
 21 20  2  0  0  0  0
 22 23  1  0  0  0  0
 22 16  1  0  0  0  0
 24 22  1  0  0  0  0
 25 26  1  0  0  0  0
 26 27  2  0  0  0  0
 26 28  1  0  0  0  0
 28 30  1  0  0  0  0
 29 28  1  0  0  0  0
 30 31  1  0  0  0  0
 31 38  1  0  0  0  0
 31 32  2  0  0  0  0
 32 36  1  0  0  0  0
 33 32  1  0  0  0  0
 34 33  2  0  0  0  0
 35 30  2  0  0  0  0
 35 34  1  0  0  0  0
 37 34  1  0  0  0  0
 38 40  1  0  0  0  0
 39 38  1  0  0  0  0
M  END
>  <minimizedAffinity>
-6.44097424

>  <minimizedRMSD>
2.02828074

$$$$
