
 OpenBabel03242523453D

 24 26  0  0  0  0  0  0  0  0999 V2000
   47.5760   34.8960   41.9800 N   0  0  0  0  0  0  0  0  0  0  0  0
   48.6440   35.7110   41.7830 C   0  0  0  0  0  0  0  0  0  0  0  0
   49.0690   36.3000   42.5800 H   0  0  0  0  0  0  0  0  0  0  0  0
   49.0050   35.6100   40.4860 N   0  0  0  0  0  0  0  0  0  0  0  0
   48.1950   34.7540   39.8450 C   0  0  0  0  0  0  0  0  0  0  0  0
   48.0790   34.2730   38.5760 C   0  0  0  0  0  0  0  0  0  0  0  0
   47.1190   33.3790   38.2190 N   0  0  0  0  0  0  0  0  0  0  0  0
   46.2540   32.9500   39.1330 C   0  0  0  0  0  0  0  0  0  0  0  0
   45.4330   32.2550   39.0580 H   0  0  0  0  0  0  0  0  0  0  0  0
   46.3440   33.4030   40.3800 N   0  0  0  0  0  0  0  0  0  0  0  0
   47.2870   34.2990   40.7880 C   0  0  0  0  0  0  0  0  0  0  0  0
   44.8180   35.1140   44.3960 C   0  0  0  0  0  0  0  0  0  0  0  0
   45.6230   35.3640   43.2730 C   0  0  0  0  0  0  0  0  0  0  0  0
   46.7930   34.6070   43.1330 C   0  0  0  0  0  0  0  0  0  0  0  0
   47.0890   33.6790   44.0770 N   0  0  0  0  0  0  0  0  0  0  0  0
   46.2940   33.4700   45.1340 C   0  0  0  0  0  0  0  0  0  0  0  0
   45.1690   34.1820   45.2910 N   0  0  0  0  0  0  0  0  0  0  0  0
   45.3410   36.1140   42.5520 H   0  0  0  0  0  0  0  0  0  0  0  0
   46.5360   32.7320   45.8800 H   0  0  0  0  0  0  0  0  0  0  0  0
   43.6730   35.8500   44.5410 O   0  0  0  0  0  0  0  0  0  0  0  0
   42.9320   35.6510   43.8510 H   0  0  0  0  0  0  0  0  0  0  0  0
   48.9870   34.7090   37.5670 N   0  0  0  0  0  0  0  0  0  0  0  0
   49.9150   34.4110   37.2470 H   0  0  0  0  0  0  0  0  0  0  0  0
   48.4560   35.5050   37.1490 H   0  0  0  0  0  0  0  0  0  0  0  0
  1 14  1  0  0  0  0
  2  1  1  0  0  0  0
  2  3  1  0  0  0  0
  4  2  2  0  0  0  0
  5  4  1  0  0  0  0
  5 11  1  0  0  0  0
  6  5  2  0  0  0  0
  7  6  1  0  0  0  0
  7  8  2  0  0  0  0
  8 10  1  0  0  0  0
  9  8  1  0  0  0  0
 10 11  2  0  0  0  0
 11  1  1  0  0  0  0
 12 20  1  0  0  0  0
 12 17  1  0  0  0  0
 13 12  2  0  0  0  0
 14 13  1  0  0  0  0
 14 15  2  0  0  0  0
 15 16  1  0  0  0  0
 16 17  2  0  0  0  0
 16 19  1  0  0  0  0
 18 13  1  0  0  0  0
 21 20  1  0  0  0  0
 22  6  1  0  0  0  0
 23 22  1  0  0  0  0
 24 22  1  0  0  0  0
M  END
>  <minimizedAffinity>
-5.9337635

>  <minimizedRMSD>
3.70351982

$$$$
