
 OpenBabel03242523453D

 24 26  0  0  0  0  0  0  0  0999 V2000
   47.9490   33.8390   42.9000 N   0  0  0  0  0  0  0  0  0  0  0  0
   49.1880   34.3830   42.7890 C   0  0  0  0  0  0  0  0  0  0  0  0
   49.5680   35.0920   43.5060 H   0  0  0  0  0  0  0  0  0  0  0  0
   49.7630   33.8720   41.6790 N   0  0  0  0  0  0  0  0  0  0  0  0
   48.9250   33.0150   41.0760 C   0  0  0  0  0  0  0  0  0  0  0  0
   48.9550   32.2290   39.9640 C   0  0  0  0  0  0  0  0  0  0  0  0
   47.9110   31.4390   39.6000 N   0  0  0  0  0  0  0  0  0  0  0  0
   46.8110   31.4240   40.3490 C   0  0  0  0  0  0  0  0  0  0  0  0
   45.8880   30.8790   40.2380 H   0  0  0  0  0  0  0  0  0  0  0  0
   46.7550   32.1830   41.4390 N   0  0  0  0  0  0  0  0  0  0  0  0
   47.7740   32.9910   41.8470 C   0  0  0  0  0  0  0  0  0  0  0  0
   44.8590   35.1150   44.4220 C   0  0  0  0  0  0  0  0  0  0  0  0
   45.9030   34.9140   43.5050 C   0  0  0  0  0  0  0  0  0  0  0  0
   46.9130   34.0100   43.8610 C   0  0  0  0  0  0  0  0  0  0  0  0
   46.8340   33.3800   45.0590 N   0  0  0  0  0  0  0  0  0  0  0  0
   45.8200   33.5990   45.9070 C   0  0  0  0  0  0  0  0  0  0  0  0
   44.8420   34.4600   45.5890 N   0  0  0  0  0  0  0  0  0  0  0  0
   45.9170   35.4400   42.5650 H   0  0  0  0  0  0  0  0  0  0  0  0
   45.7660   33.0960   46.8570 H   0  0  0  0  0  0  0  0  0  0  0  0
   43.8680   35.9960   44.0820 O   0  0  0  0  0  0  0  0  0  0  0  0
   43.2550   35.6930   43.3090 H   0  0  0  0  0  0  0  0  0  0  0  0
   50.1150   32.2160   39.1360 N   0  0  0  0  0  0  0  0  0  0  0  0
   51.0000   31.6950   39.1330 H   0  0  0  0  0  0  0  0  0  0  0  0
   49.8650   32.9410   38.4290 H   0  0  0  0  0  0  0  0  0  0  0  0
  1 14  1  0  0  0  0
  2  1  1  0  0  0  0
  2  3  1  0  0  0  0
  4  2  2  0  0  0  0
  5  4  1  0  0  0  0
  5 11  1  0  0  0  0
  6  5  2  0  0  0  0
  7  6  1  0  0  0  0
  7  8  2  0  0  0  0
  8 10  1  0  0  0  0
  9  8  1  0  0  0  0
 10 11  2  0  0  0  0
 11  1  1  0  0  0  0
 12 17  1  0  0  0  0
 13 14  1  0  0  0  0
 13 12  2  0  0  0  0
 14 15  2  0  0  0  0
 15 16  1  0  0  0  0
 16 19  1  0  0  0  0
 17 16  2  0  0  0  0
 18 13  1  0  0  0  0
 20 12  1  0  0  0  0
 21 20  1  0  0  0  0
 22  6  1  0  0  0  0
 23 22  1  0  0  0  0
 24 22  1  0  0  0  0
M  END
>  <minimizedAffinity>
-4.77806854

>  <minimizedRMSD>
1.31369781

$$$$
