
 OpenBabel03252501363D

 40 43  0  0  0  0  0  0  0  0999 V2000
   43.2190   32.3700   39.4880 Cl  0  0  0  0  0  0  0  0  0  0  0  0
   42.1020   33.6270   39.9640 C   0  0  0  0  0  0  0  0  0  0  0  0
   42.5240   34.8040   40.5690 C   0  0  0  0  0  0  0  0  0  0  0  0
   41.5970   35.7520   40.9180 C   0  0  0  0  0  0  0  0  0  0  0  0
   40.2410   35.6130   40.7050 C   0  0  0  0  0  0  0  0  0  0  0  0
   39.7930   34.4470   40.1030 C   0  0  0  0  0  0  0  0  0  0  0  0
   38.0900   34.1740   39.7880 Cl  0  0  0  0  0  0  0  0  0  0  0  0
   40.7320   33.5080   39.7590 C   0  0  0  0  0  0  0  0  0  0  0  0
   41.9860   36.6560   41.3900 H   0  0  0  0  0  0  0  0  0  0  0  0
   39.5170   36.3600   40.9810 H   0  0  0  0  0  0  0  0  0  0  0  0
   40.3240   32.2750   39.1280 N   0  0  0  0  0  0  0  0  0  0  0  0
   40.2430   31.8750   37.8340 C   0  0  0  0  0  0  0  0  0  0  0  0
   40.5210   32.5530   37.0420 H   0  0  0  0  0  0  0  0  0  0  0  0
   39.7950   30.6080   37.8160 N   0  0  0  0  0  0  0  0  0  0  0  0
   39.5900   30.1980   39.0830 C   0  0  0  0  0  0  0  0  0  0  0  0
   39.1470   29.0260   39.6630 C   0  0  0  0  0  0  0  0  0  0  0  0
   39.0400   28.9010   41.0100 N   0  0  0  0  0  0  0  0  0  0  0  0
   39.3630   29.9200   41.8040 C   0  0  0  0  0  0  0  0  0  0  0  0
   39.3440   30.0050   42.8790 H   0  0  0  0  0  0  0  0  0  0  0  0
   39.7930   31.0630   41.2730 N   0  0  0  0  0  0  0  0  0  0  0  0
   39.9270   31.2610   39.9290 C   0  0  0  0  0  0  0  0  0  0  0  0
   38.7930   27.9180   38.8390 N   0  0  0  0  0  0  0  0  0  0  0  0
   39.3130   27.0490   39.1590 H   0  0  0  0  0  0  0  0  0  0  0  0
   38.1110   28.0600   38.0600 H   0  0  0  0  0  0  0  0  0  0  0  0
   43.8870   34.9350   40.7800 O   0  0  0  0  0  0  0  0  0  0  0  0
   44.4290   34.4430   41.9740 C   0  0  0  0  0  0  0  0  0  0  0  0
   44.0800   33.3620   42.5680 O   0  0  0  0  0  0  0  0  0  0  0  0
   45.4690   35.1380   42.6710 N   0  0  0  0  0  0  0  0  0  0  0  0
   45.8400   36.0230   42.3070 H   0  0  0  0  0  0  0  0  0  0  0  0
   45.8190   34.3820   43.8540 C   0  0  0  0  0  0  0  0  0  0  0  0
   45.1900   34.5430   45.0770 C   0  0  0  0  0  0  0  0  0  0  0  0
   45.6540   33.7340   46.1080 C   0  0  0  0  0  0  0  0  0  0  0  0
   46.6510   32.8810   45.8480 N   0  0  0  0  0  0  0  0  0  0  0  0
   47.2350   32.7570   44.6430 C   0  0  0  0  0  0  0  0  0  0  0  0
   46.8100   33.5300   43.6090 N   0  0  0  0  0  0  0  0  0  0  0  0
   45.1600   33.8640   47.0580 H   0  0  0  0  0  0  0  0  0  0  0  0
   48.0350   32.0390   44.5260 H   0  0  0  0  0  0  0  0  0  0  0  0
   44.1510   35.4960   45.1710 N   0  0  0  0  0  0  0  0  0  0  0  0
   43.5320   35.6480   44.3520 H   0  0  0  0  0  0  0  0  0  0  0  0
   43.9320   36.0910   46.0220 H   0  0  0  0  0  0  0  0  0  0  0  0
  1  2  1  0  0  0  0
  2  3  1  0  0  0  0
  3 25  1  0  0  0  0
  3  4  2  0  0  0  0
  4  9  1  0  0  0  0
  5  4  1  0  0  0  0
  5 10  1  0  0  0  0
  6  5  2  0  0  0  0
  7  6  1  0  0  0  0
  8  2  2  0  0  0  0
  8  6  1  0  0  0  0
 11  8  1  0  0  0  0
 11 21  1  0  0  0  0
 12 11  1  0  0  0  0
 13 12  1  0  0  0  0
 14 12  2  0  0  0  0
 14 15  1  0  0  0  0
 15 16  2  0  0  0  0
 15 21  1  0  0  0  0
 16 17  1  0  0  0  0
 17 18  2  0  0  0  0
 18 19  1  0  0  0  0
 20 18  1  0  0  0  0
 21 20  2  0  0  0  0
 22 23  1  0  0  0  0
 22 16  1  0  0  0  0
 24 22  1  0  0  0  0
 25 26  1  0  0  0  0
 26 27  2  0  0  0  0
 26 28  1  0  0  0  0
 28 30  1  0  0  0  0
 29 28  1  0  0  0  0
 30 31  1  0  0  0  0
 31 38  1  0  0  0  0
 31 32  2  0  0  0  0
 32 36  1  0  0  0  0
 33 32  1  0  0  0  0
 34 33  2  0  0  0  0
 35 30  2  0  0  0  0
 35 34  1  0  0  0  0
 37 34  1  0  0  0  0
 38 40  1  0  0  0  0
 39 38  1  0  0  0  0
M  END
>  <minimizedAffinity>
-6.44130564

>  <minimizedRMSD>
1.80152845

$$$$
