
 OpenBabel03242523453D

 24 26  0  0  0  0  0  0  0  0999 V2000
   48.2540   33.9340   42.6720 N   0  0  0  0  0  0  0  0  0  0  0  0
   49.5520   34.2940   42.8520 C   0  0  0  0  0  0  0  0  0  0  0  0
   49.8520   34.9880   43.6200 H   0  0  0  0  0  0  0  0  0  0  0  0
   50.2900   33.6380   41.9320 N   0  0  0  0  0  0  0  0  0  0  0  0
   49.5010   32.8680   41.1680 C   0  0  0  0  0  0  0  0  0  0  0  0
   49.6770   32.0150   40.1200 C   0  0  0  0  0  0  0  0  0  0  0  0
   48.6430   31.3560   39.5340 N   0  0  0  0  0  0  0  0  0  0  0  0
   47.4070   31.5410   39.9900 C   0  0  0  0  0  0  0  0  0  0  0  0
   46.4660   31.1230   39.6730 H   0  0  0  0  0  0  0  0  0  0  0  0
   47.2070   32.3680   41.0120 N   0  0  0  0  0  0  0  0  0  0  0  0
   48.2090   33.0530   41.6330 C   0  0  0  0  0  0  0  0  0  0  0  0
   45.1590   35.7740   43.3980 C   0  0  0  0  0  0  0  0  0  0  0  0
   46.3470   35.3700   42.7690 C   0  0  0  0  0  0  0  0  0  0  0  0
   47.0560   34.3070   43.3450 C   0  0  0  0  0  0  0  0  0  0  0  0
   46.5670   33.7270   44.4690 N   0  0  0  0  0  0  0  0  0  0  0  0
   45.4280   34.1420   45.0390 C   0  0  0  0  0  0  0  0  0  0  0  0
   44.7310   35.1570   44.5070 N   0  0  0  0  0  0  0  0  0  0  0  0
   46.6910   35.8650   41.8770 H   0  0  0  0  0  0  0  0  0  0  0  0
   45.0460   33.6770   45.9310 H   0  0  0  0  0  0  0  0  0  0  0  0
   44.4600   36.8110   42.8420 O   0  0  0  0  0  0  0  0  0  0  0  0
   44.0170   36.6060   41.9320 H   0  0  0  0  0  0  0  0  0  0  0  0
   50.9850   31.7890   39.6020 N   0  0  0  0  0  0  0  0  0  0  0  0
   51.7570   31.1520   39.8290 H   0  0  0  0  0  0  0  0  0  0  0  0
   51.0220   32.4950   38.8330 H   0  0  0  0  0  0  0  0  0  0  0  0
  1  2  1  0  0  0  0
  1 14  1  0  0  0  0
  2  3  1  0  0  0  0
  4  2  2  0  0  0  0
  5 11  1  0  0  0  0
  5  4  1  0  0  0  0
  6  5  2  0  0  0  0
  7  8  2  0  0  0  0
  7  6  1  0  0  0  0
  8 10  1  0  0  0  0
  9  8  1  0  0  0  0
 10 11  2  0  0  0  0
 11  1  1  0  0  0  0
 12 17  1  0  0  0  0
 13 14  1  0  0  0  0
 13 12  2  0  0  0  0
 14 15  2  0  0  0  0
 15 16  1  0  0  0  0
 16 19  1  0  0  0  0
 17 16  2  0  0  0  0
 18 13  1  0  0  0  0
 20 12  1  0  0  0  0
 21 20  1  0  0  0  0
 22 23  1  0  0  0  0
 22  6  1  0  0  0  0
 24 22  1  0  0  0  0
M  END
>  <minimizedAffinity>
-4.83866119

>  <minimizedRMSD>
1.60910058

$$$$
