
 OpenBabel03242523483D

 24 26  0  0  0  0  0  0  0  0999 V2000
   39.6980   32.4220   40.0980 N   0  0  0  0  0  0  0  0  0  0  0  0
   39.8840   33.7600   40.2330 C   0  0  0  0  0  0  0  0  0  0  0  0
   39.4120   34.3260   41.0200 H   0  0  0  0  0  0  0  0  0  0  0  0
   40.7160   34.1610   39.2490 N   0  0  0  0  0  0  0  0  0  0  0  0
   41.0680   33.1160   38.4850 C   0  0  0  0  0  0  0  0  0  0  0  0
   41.8540   32.9190   37.3910 C   0  0  0  0  0  0  0  0  0  0  0  0
   42.0210   31.6950   36.8220 N   0  0  0  0  0  0  0  0  0  0  0  0
   41.3980   30.6420   37.3450 C   0  0  0  0  0  0  0  0  0  0  0  0
   41.3960   29.6050   37.0510 H   0  0  0  0  0  0  0  0  0  0  0  0
   40.6240   30.8070   38.4130 N   0  0  0  0  0  0  0  0  0  0  0  0
   40.4250   32.0110   39.0190 C   0  0  0  0  0  0  0  0  0  0  0  0
   36.7510   30.6100   41.3340 C   0  0  0  0  0  0  0  0  0  0  0  0
   37.5500   31.5190   40.6200 C   0  0  0  0  0  0  0  0  0  0  0  0
   38.9320   31.4820   40.8440 C   0  0  0  0  0  0  0  0  0  0  0  0
   39.4280   30.5810   41.7280 N   0  0  0  0  0  0  0  0  0  0  0  0
   38.6330   29.7300   42.3890 C   0  0  0  0  0  0  0  0  0  0  0  0
   37.3070   29.7460   42.1930 N   0  0  0  0  0  0  0  0  0  0  0  0
   37.1040   32.2150   39.9290 H   0  0  0  0  0  0  0  0  0  0  0  0
   39.0340   29.0180   43.0900 H   0  0  0  0  0  0  0  0  0  0  0  0
   35.4000   30.6390   41.1210 O   0  0  0  0  0  0  0  0  0  0  0  0
   35.0940   30.3180   40.1900 H   0  0  0  0  0  0  0  0  0  0  0  0
   42.5380   34.0220   36.8010 N   0  0  0  0  0  0  0  0  0  0  0  0
   43.4380   34.4880   36.9600 H   0  0  0  0  0  0  0  0  0  0  0  0
   41.8550   34.3130   36.0670 H   0  0  0  0  0  0  0  0  0  0  0  0
  1  2  1  0  0  0  0
  1 14  1  0  0  0  0
  2  3  1  0  0  0  0
  4  2  2  0  0  0  0
  5 11  1  0  0  0  0
  5  4  1  0  0  0  0
  6  5  2  0  0  0  0
  7  8  2  0  0  0  0
  7  6  1  0  0  0  0
  8 10  1  0  0  0  0
  9  8  1  0  0  0  0
 10 11  2  0  0  0  0
 11  1  1  0  0  0  0
 12 17  1  0  0  0  0
 13 14  1  0  0  0  0
 13 12  2  0  0  0  0
 14 15  2  0  0  0  0
 15 16  1  0  0  0  0
 16 19  1  0  0  0  0
 17 16  2  0  0  0  0
 18 13  1  0  0  0  0
 20 12  1  0  0  0  0
 21 20  1  0  0  0  0
 22 23  1  0  0  0  0
 22  6  1  0  0  0  0
 24 22  1  0  0  0  0
M  END
>  <minimizedAffinity>
-5.73972511

$$$$

 OpenBabel03242523483D

 24 26  0  0  0  0  0  0  0  0999 V2000
   38.0470   31.1660   40.7740 N   0  0  0  0  0  0  0  0  0  0  0  0
   36.6900   31.1910   40.7290 C   0  0  0  0  0  0  0  0  0  0  0  0
   36.1510   31.9160   40.1400 H   0  0  0  0  0  0  0  0  0  0  0  0
   36.2340   30.1930   41.5150 N   0  0  0  0  0  0  0  0  0  0  0  0
   37.2630   29.5290   42.0640 C   0  0  0  0  0  0  0  0  0  0  0  0
   37.4110   28.4710   42.9090 C   0  0  0  0  0  0  0  0  0  0  0  0
   38.6300   28.0120   43.2980 N   0  0  0  0  0  0  0  0  0  0  0  0
   39.7280   28.6100   42.8430 C   0  0  0  0  0  0  0  0  0  0  0  0
   40.7710   28.4060   43.0250 H   0  0  0  0  0  0  0  0  0  0  0  0
   39.6120   29.6450   42.0160 N   0  0  0  0  0  0  0  0  0  0  0  0
   38.4140   30.1430   41.5980 C   0  0  0  0  0  0  0  0  0  0  0  0
   40.1410   32.5760   38.1060 C   0  0  0  0  0  0  0  0  0  0  0  0
   39.1730   31.8010   38.7660 C   0  0  0  0  0  0  0  0  0  0  0  0
   39.0400   31.9730   40.1500 C   0  0  0  0  0  0  0  0  0  0  0  0
   39.8420   32.8670   40.7790 N   0  0  0  0  0  0  0  0  0  0  0  0
   40.7530   33.5890   40.1130 C   0  0  0  0  0  0  0  0  0  0  0  0
   40.9000   33.4430   38.7880 N   0  0  0  0  0  0  0  0  0  0  0  0
   38.5620   31.1050   38.2170 H   0  0  0  0  0  0  0  0  0  0  0  0
   41.3870   34.2960   40.6190 H   0  0  0  0  0  0  0  0  0  0  0  0
   40.2780   32.4160   36.7530 O   0  0  0  0  0  0  0  0  0  0  0  0
   39.4850   32.7570   36.1870 H   0  0  0  0  0  0  0  0  0  0  0  0
   36.2580   27.8040   43.4190 N   0  0  0  0  0  0  0  0  0  0  0  0
   35.6570   27.0410   43.0920 H   0  0  0  0  0  0  0  0  0  0  0  0
   36.1180   28.3090   44.3220 H   0  0  0  0  0  0  0  0  0  0  0  0
  1 11  1  0  0  0  0
  2  1  1  0  0  0  0
  2  4  2  0  0  0  0
  3  2  1  0  0  0  0
  4  5  1  0  0  0  0
  5  6  1  0  0  0  0
  6  7  2  0  0  0  0
  6 22  1  0  0  0  0
  8  9  1  0  0  0  0
  8  7  1  0  0  0  0
 10  8  2  0  0  0  0
 11 10  1  0  0  0  0
 11  5  2  0  0  0  0
 12 13  2  0  0  0  0
 12 17  1  0  0  0  0
 13 14  1  0  0  0  0
 14  1  1  0  0  0  0
 14 15  2  0  0  0  0
 16 19  1  0  0  0  0
 16 15  1  0  0  0  0
 17 16  2  0  0  0  0
 18 13  1  0  0  0  0
 20 12  1  0  0  0  0
 21 20  1  0  0  0  0
 22 24  1  0  0  0  0
 23 22  1  0  0  0  0
M  END
>  <minimizedAffinity>
-5.36993694

$$$$

 OpenBabel03242523483D

 24 26  0  0  0  0  0  0  0  0999 V2000
   39.4550   32.9900   39.9510 N   0  0  0  0  0  0  0  0  0  0  0  0
   38.3100   33.7130   39.8530 C   0  0  0  0  0  0  0  0  0  0  0  0
   38.3030   34.7270   39.4860 H   0  0  0  0  0  0  0  0  0  0  0  0
   37.2940   32.9340   40.2810 N   0  0  0  0  0  0  0  0  0  0  0  0
   37.7580   31.7310   40.6520 C   0  0  0  0  0  0  0  0  0  0  0  0
   37.2220   30.5800   41.1460 C   0  0  0  0  0  0  0  0  0  0  0  0
   37.9770   29.4870   41.4340 N   0  0  0  0  0  0  0  0  0  0  0  0
   39.2910   29.5300   41.2310 C   0  0  0  0  0  0  0  0  0  0  0  0
   40.0550   28.7870   41.3900 H   0  0  0  0  0  0  0  0  0  0  0  0
   39.8400   30.6410   40.7490 N   0  0  0  0  0  0  0  0  0  0  0  0
   39.1270   31.7620   40.4450 C   0  0  0  0  0  0  0  0  0  0  0  0
   42.3990   33.8880   37.9460 C   0  0  0  0  0  0  0  0  0  0  0  0
   41.0750   33.5770   38.2970 C   0  0  0  0  0  0  0  0  0  0  0  0
   40.8100   33.2990   39.6440 C   0  0  0  0  0  0  0  0  0  0  0  0
   41.8320   33.3430   40.5350 N   0  0  0  0  0  0  0  0  0  0  0  0
   43.0820   33.6440   40.1600 C   0  0  0  0  0  0  0  0  0  0  0  0
   43.3610   33.9140   38.8770 N   0  0  0  0  0  0  0  0  0  0  0  0
   40.3000   33.5570   37.5490 H   0  0  0  0  0  0  0  0  0  0  0  0
   43.8880   33.6760   40.8730 H   0  0  0  0  0  0  0  0  0  0  0  0
   42.6670   34.1610   36.6320 O   0  0  0  0  0  0  0  0  0  0  0  0
   42.2680   35.0430   36.2760 H   0  0  0  0  0  0  0  0  0  0  0  0
   35.8180   30.4950   41.3790 N   0  0  0  0  0  0  0  0  0  0  0  0
   35.0010   30.2470   40.8100 H   0  0  0  0  0  0  0  0  0  0  0  0
   35.7630   30.7700   42.3840 H   0  0  0  0  0  0  0  0  0  0  0  0
  1 11  1  0  0  0  0
  2  1  1  0  0  0  0
  2  4  2  0  0  0  0
  3  2  1  0  0  0  0
  4  5  1  0  0  0  0
  5  6  1  0  0  0  0
  6 22  1  0  0  0  0
  6  7  2  0  0  0  0
  8  9  1  0  0  0  0
  8  7  1  0  0  0  0
 10  8  2  0  0  0  0
 11  5  2  0  0  0  0
 11 10  1  0  0  0  0
 12 13  2  0  0  0  0
 12 17  1  0  0  0  0
 13 14  1  0  0  0  0
 14  1  1  0  0  0  0
 14 15  2  0  0  0  0
 16 15  1  0  0  0  0
 16 19  1  0  0  0  0
 17 16  2  0  0  0  0
 18 13  1  0  0  0  0
 20 12  1  0  0  0  0
 21 20  1  0  0  0  0
 22 24  1  0  0  0  0
 23 22  1  0  0  0  0
M  END
>  <minimizedAffinity>
-5.24299145

$$$$

 OpenBabel03242523483D

 24 26  0  0  0  0  0  0  0  0999 V2000
   40.0520   31.6810   39.7270 N   0  0  0  0  0  0  0  0  0  0  0  0
   39.9610   32.0460   41.0310 C   0  0  0  0  0  0  0  0  0  0  0  0
   40.8050   32.4380   41.5750 H   0  0  0  0  0  0  0  0  0  0  0  0
   38.6920   31.8230   41.4330 N   0  0  0  0  0  0  0  0  0  0  0  0
   37.9670   31.3230   40.4210 C   0  0  0  0  0  0  0  0  0  0  0  0
   36.6790   30.9200   40.2400 C   0  0  0  0  0  0  0  0  0  0  0  0
   36.2230   30.4400   39.0520 N   0  0  0  0  0  0  0  0  0  0  0  0
   37.0580   30.3570   38.0190 C   0  0  0  0  0  0  0  0  0  0  0  0
   36.9000   30.0130   37.0090 H   0  0  0  0  0  0  0  0  0  0  0  0
   38.3210   30.7440   38.1680 N   0  0  0  0  0  0  0  0  0  0  0  0
   38.8250   31.2300   39.3370 C   0  0  0  0  0  0  0  0  0  0  0  0
   42.3950   32.9770   37.2110 C   0  0  0  0  0  0  0  0  0  0  0  0
   41.3380   32.9120   38.1340 C   0  0  0  0  0  0  0  0  0  0  0  0
   41.1350   31.6980   38.8020 C   0  0  0  0  0  0  0  0  0  0  0  0
   41.9580   30.6550   38.5290 N   0  0  0  0  0  0  0  0  0  0  0  0
   42.9560   30.7570   37.6420 C   0  0  0  0  0  0  0  0  0  0  0  0
   43.1710   31.9080   36.9900 N   0  0  0  0  0  0  0  0  0  0  0  0
   40.7140   33.7710   38.3130 H   0  0  0  0  0  0  0  0  0  0  0  0
   43.6050   29.9250   37.4300 H   0  0  0  0  0  0  0  0  0  0  0  0
   42.6010   34.1600   36.5540 O   0  0  0  0  0  0  0  0  0  0  0  0
   42.9440   34.9350   37.1420 H   0  0  0  0  0  0  0  0  0  0  0  0
   35.7540   30.9930   41.3230 N   0  0  0  0  0  0  0  0  0  0  0  0
   35.1320   31.7160   41.6990 H   0  0  0  0  0  0  0  0  0  0  0  0
   35.8370   30.0320   41.7220 H   0  0  0  0  0  0  0  0  0  0  0  0
  1  2  1  0  0  0  0
  2  4  2  0  0  0  0
  2  3  1  0  0  0  0
  5  4  1  0  0  0  0
  6  5  1  0  0  0  0
  6 22  1  0  0  0  0
  7  6  2  0  0  0  0
  8 10  2  0  0  0  0
  8  7  1  0  0  0  0
  9  8  1  0  0  0  0
 10 11  1  0  0  0  0
 11  1  1  0  0  0  0
 11  5  2  0  0  0  0
 12 13  1  0  0  0  0
 13 18  1  0  0  0  0
 13 14  2  0  0  0  0
 14  1  1  0  0  0  0
 15 14  1  0  0  0  0
 16 15  2  0  0  0  0
 17 12  2  0  0  0  0
 17 16  1  0  0  0  0
 19 16  1  0  0  0  0
 20 21  1  0  0  0  0
 20 12  1  0  0  0  0
 22 23  1  0  0  0  0
 22 24  1  0  0  0  0
M  END
>  <minimizedAffinity>
-5.23388338

$$$$

 OpenBabel03242523483D

 24 26  0  0  0  0  0  0  0  0999 V2000
   37.6490   26.9610   40.6960 N   0  0  0  0  0  0  0  0  0  0  0  0
   37.1590   25.7400   40.3600 C   0  0  0  0  0  0  0  0  0  0  0  0
   36.4210   25.6140   39.5850 H   0  0  0  0  0  0  0  0  0  0  0  0
   37.7610   24.8240   41.1490 N   0  0  0  0  0  0  0  0  0  0  0  0
   38.6220   25.4260   41.9830 C   0  0  0  0  0  0  0  0  0  0  0  0
   39.4790   25.0300   42.9650 C   0  0  0  0  0  0  0  0  0  0  0  0
   40.2510   25.9080   43.6590 N   0  0  0  0  0  0  0  0  0  0  0  0
   40.1760   27.2060   43.3780 C   0  0  0  0  0  0  0  0  0  0  0  0
   40.6930   28.0510   43.8020 H   0  0  0  0  0  0  0  0  0  0  0  0
   39.3490   27.6200   42.4230 N   0  0  0  0  0  0  0  0  0  0  0  0
   38.5550   26.7810   41.7000 C   0  0  0  0  0  0  0  0  0  0  0  0
   36.3180   30.3830   40.5990 C   0  0  0  0  0  0  0  0  0  0  0  0
   36.6100   29.0840   41.0440 C   0  0  0  0  0  0  0  0  0  0  0  0
   37.3790   28.2690   40.2030 C   0  0  0  0  0  0  0  0  0  0  0  0
   37.8010   28.7680   39.0150 N   0  0  0  0  0  0  0  0  0  0  0  0
   37.5010   30.0140   38.6260 C   0  0  0  0  0  0  0  0  0  0  0  0
   36.7660   30.8130   39.4130 N   0  0  0  0  0  0  0  0  0  0  0  0
   36.2500   28.7370   41.9980 H   0  0  0  0  0  0  0  0  0  0  0  0
   37.8390   30.4030   37.6810 H   0  0  0  0  0  0  0  0  0  0  0  0
   35.5670   31.1860   41.4140 O   0  0  0  0  0  0  0  0  0  0  0  0
   36.0320   31.4890   42.2840 H   0  0  0  0  0  0  0  0  0  0  0  0
   39.5860   23.6470   43.2960 N   0  0  0  0  0  0  0  0  0  0  0  0
   40.1390   22.8570   42.9460 H   0  0  0  0  0  0  0  0  0  0  0  0
   38.8990   23.5740   44.0790 H   0  0  0  0  0  0  0  0  0  0  0  0
  1 11  1  0  0  0  0
  2  1  1  0  0  0  0
  2  4  2  0  0  0  0
  3  2  1  0  0  0  0
  4  5  1  0  0  0  0
  5  6  1  0  0  0  0
  6 22  1  0  0  0  0
  6  7  2  0  0  0  0
  8  7  1  0  0  0  0
  8  9  1  0  0  0  0
 10  8  2  0  0  0  0
 11  5  2  0  0  0  0
 11 10  1  0  0  0  0
 12 13  1  0  0  0  0
 12 20  1  0  0  0  0
 13 18  1  0  0  0  0
 14  1  1  0  0  0  0
 14 13  2  0  0  0  0
 15 14  1  0  0  0  0
 16 15  2  0  0  0  0
 16 17  1  0  0  0  0
 17 12  2  0  0  0  0
 19 16  1  0  0  0  0
 20 21  1  0  0  0  0
 22 24  1  0  0  0  0
 23 22  1  0  0  0  0
M  END
>  <minimizedAffinity>
-5.1769619

$$$$

 OpenBabel03242523483D

 24 26  0  0  0  0  0  0  0  0999 V2000
   39.1870   31.5210   38.3580 N   0  0  0  0  0  0  0  0  0  0  0  0
   38.0000   31.8870   37.8100 C   0  0  0  0  0  0  0  0  0  0  0  0
   37.9310   32.2920   36.8140 H   0  0  0  0  0  0  0  0  0  0  0  0
   37.0340   31.6420   38.7210 N   0  0  0  0  0  0  0  0  0  0  0  0
   37.5710   31.1300   39.8390 C   0  0  0  0  0  0  0  0  0  0  0  0
   37.1070   30.7040   41.0460 C   0  0  0  0  0  0  0  0  0  0  0  0
   37.9280   30.2160   42.0140 N   0  0  0  0  0  0  0  0  0  0  0  0
   39.2360   30.1460   41.7850 C   0  0  0  0  0  0  0  0  0  0  0  0
   40.0440   29.7980   42.4070 H   0  0  0  0  0  0  0  0  0  0  0  0
   39.7160   30.5550   40.6140 N   0  0  0  0  0  0  0  0  0  0  0  0
   38.9360   31.0510   39.6140 C   0  0  0  0  0  0  0  0  0  0  0  0
   42.3680   32.9160   37.1620 C   0  0  0  0  0  0  0  0  0  0  0  0
   41.0540   32.8320   37.6520 C   0  0  0  0  0  0  0  0  0  0  0  0
   40.5210   31.5540   37.8610 C   0  0  0  0  0  0  0  0  0  0  0  0
   41.2880   30.4710   37.5840 N   0  0  0  0  0  0  0  0  0  0  0  0
   42.5380   30.5930   37.1170 C   0  0  0  0  0  0  0  0  0  0  0  0
   43.0720   31.8050   36.9090 N   0  0  0  0  0  0  0  0  0  0  0  0
   40.4880   33.7250   37.8560 H   0  0  0  0  0  0  0  0  0  0  0  0
   43.1410   29.7280   36.8990 H   0  0  0  0  0  0  0  0  0  0  0  0
   42.8970   34.1610   36.9550 O   0  0  0  0  0  0  0  0  0  0  0  0
   43.0830   34.7080   37.8100 H   0  0  0  0  0  0  0  0  0  0  0  0
   35.7110   30.7640   41.3300 N   0  0  0  0  0  0  0  0  0  0  0  0
   34.9100   30.1440   41.1700 H   0  0  0  0  0  0  0  0  0  0  0  0
   35.6410   31.6920   41.8030 H   0  0  0  0  0  0  0  0  0  0  0  0
  1 11  1  0  0  0  0
  2  1  1  0  0  0  0
  2  4  2  0  0  0  0
  3  2  1  0  0  0  0
  4  5  1  0  0  0  0
  5  6  1  0  0  0  0
  6 22  1  0  0  0  0
  6  7  2  0  0  0  0
  8  7  1  0  0  0  0
  8  9  1  0  0  0  0
 10  8  2  0  0  0  0
 11  5  2  0  0  0  0
 11 10  1  0  0  0  0
 12 13  1  0  0  0  0
 13 18  1  0  0  0  0
 13 14  2  0  0  0  0
 14  1  1  0  0  0  0
 15 14  1  0  0  0  0
 16 15  2  0  0  0  0
 17 16  1  0  0  0  0
 17 12  2  0  0  0  0
 19 16  1  0  0  0  0
 20 12  1  0  0  0  0
 20 21  1  0  0  0  0
 22 24  1  0  0  0  0
 23 22  1  0  0  0  0
M  END
>  <minimizedAffinity>
-5.15492725

$$$$

 OpenBabel03242523483D

 24 26  0  0  0  0  0  0  0  0999 V2000
   39.0950   28.0720   42.0270 N   0  0  0  0  0  0  0  0  0  0  0  0
   40.0010   27.9630   43.0320 C   0  0  0  0  0  0  0  0  0  0  0  0
   40.5060   28.8230   43.4420 H   0  0  0  0  0  0  0  0  0  0  0  0
   40.1000   26.6570   43.3570 N   0  0  0  0  0  0  0  0  0  0  0  0
   39.2830   25.9240   42.5850 C   0  0  0  0  0  0  0  0  0  0  0  0
   38.9690   24.6050   42.4620 C   0  0  0  0  0  0  0  0  0  0  0  0
   38.0660   24.1510   41.5520 N   0  0  0  0  0  0  0  0  0  0  0  0
   37.4590   25.0190   40.7470 C   0  0  0  0  0  0  0  0  0  0  0  0
   36.7250   24.8690   39.9720 H   0  0  0  0  0  0  0  0  0  0  0  0
   37.7460   26.3130   40.8470 N   0  0  0  0  0  0  0  0  0  0  0  0
   38.6430   26.8170   41.7400 C   0  0  0  0  0  0  0  0  0  0  0  0
   36.8020   30.7530   41.0030 C   0  0  0  0  0  0  0  0  0  0  0  0
   37.3330   29.6490   41.6900 C   0  0  0  0  0  0  0  0  0  0  0  0
   38.5990   29.1920   41.3030 C   0  0  0  0  0  0  0  0  0  0  0  0
   39.2450   29.8310   40.2960 N   0  0  0  0  0  0  0  0  0  0  0  0
   38.7050   30.8820   39.6650 C   0  0  0  0  0  0  0  0  0  0  0  0
   37.4940   31.3380   40.0170 N   0  0  0  0  0  0  0  0  0  0  0  0
   36.7770   29.1780   42.4830 H   0  0  0  0  0  0  0  0  0  0  0  0
   39.2240   31.3830   38.8660 H   0  0  0  0  0  0  0  0  0  0  0  0
   35.5650   31.2050   41.3750 O   0  0  0  0  0  0  0  0  0  0  0  0
   35.5200   31.6460   42.3070 H   0  0  0  0  0  0  0  0  0  0  0  0
   39.5990   23.6440   43.3060 N   0  0  0  0  0  0  0  0  0  0  0  0
   39.4120   23.2650   44.2410 H   0  0  0  0  0  0  0  0  0  0  0  0
   40.4040   23.3500   42.7100 H   0  0  0  0  0  0  0  0  0  0  0  0
  1  2  1  0  0  0  0
  2  4  2  0  0  0  0
  2  3  1  0  0  0  0
  5  4  1  0  0  0  0
  6  5  1  0  0  0  0
  6 22  1  0  0  0  0
  7  6  2  0  0  0  0
  8 10  2  0  0  0  0
  8  7  1  0  0  0  0
  9  8  1  0  0  0  0
 10 11  1  0  0  0  0
 11  1  1  0  0  0  0
 11  5  2  0  0  0  0
 12 20  1  0  0  0  0
 12 13  1  0  0  0  0
 13 18  1  0  0  0  0
 14 13  2  0  0  0  0
 14  1  1  0  0  0  0
 15 14  1  0  0  0  0
 16 17  1  0  0  0  0
 16 15  2  0  0  0  0
 17 12  2  0  0  0  0
 19 16  1  0  0  0  0
 20 21  1  0  0  0  0
 22 23  1  0  0  0  0
 24 22  1  0  0  0  0
M  END
>  <minimizedAffinity>
-5.1264267

$$$$

 OpenBabel03242523483D

 24 26  0  0  0  0  0  0  0  0999 V2000
   37.4490   29.3790   41.4190 N   0  0  0  0  0  0  0  0  0  0  0  0
   36.1650   29.5930   41.0350 C   0  0  0  0  0  0  0  0  0  0  0  0
   35.4070   28.8310   41.1230 H   0  0  0  0  0  0  0  0  0  0  0  0
   36.0800   30.8570   40.5680 N   0  0  0  0  0  0  0  0  0  0  0  0
   37.2770   31.4590   40.6420 C   0  0  0  0  0  0  0  0  0  0  0  0
   37.7820   32.6850   40.3300 C   0  0  0  0  0  0  0  0  0  0  0  0
   39.0870   33.0100   40.5290 N   0  0  0  0  0  0  0  0  0  0  0  0
   39.9130   32.1050   41.0470 C   0  0  0  0  0  0  0  0  0  0  0  0
   40.9640   32.1600   41.2810 H   0  0  0  0  0  0  0  0  0  0  0  0
   39.4460   30.9000   41.3610 N   0  0  0  0  0  0  0  0  0  0  0  0
   38.1490   30.5260   41.1810 C   0  0  0  0  0  0  0  0  0  0  0  0
   38.8550   25.9930   41.6380 C   0  0  0  0  0  0  0  0  0  0  0  0
   38.2160   27.1360   41.1310 C   0  0  0  0  0  0  0  0  0  0  0  0
   38.1040   28.2460   41.9780 C   0  0  0  0  0  0  0  0  0  0  0  0
   38.6130   28.1650   43.2330 N   0  0  0  0  0  0  0  0  0  0  0  0
   39.2160   27.0560   43.6800 C   0  0  0  0  0  0  0  0  0  0  0  0
   39.3350   25.9800   42.8880 N   0  0  0  0  0  0  0  0  0  0  0  0
   37.8290   27.1460   40.1250 H   0  0  0  0  0  0  0  0  0  0  0  0
   39.6170   26.9990   44.6770 H   0  0  0  0  0  0  0  0  0  0  0  0
   38.9680   24.9040   40.8170 O   0  0  0  0  0  0  0  0  0  0  0  0
   39.6100   25.0200   40.0180 H   0  0  0  0  0  0  0  0  0  0  0  0
   36.9290   33.6820   39.7720 N   0  0  0  0  0  0  0  0  0  0  0  0
   36.3010   34.3980   40.1540 H   0  0  0  0  0  0  0  0  0  0  0  0
   37.0820   33.5290   38.7510 H   0  0  0  0  0  0  0  0  0  0  0  0
  1 14  1  0  0  0  0
  2  3  1  0  0  0  0
  2  1  1  0  0  0  0
  4  5  1  0  0  0  0
  4  2  2  0  0  0  0
  5 11  1  0  0  0  0
  6  7  1  0  0  0  0
  6  5  2  0  0  0  0
  7  8  2  0  0  0  0
  8  9  1  0  0  0  0
  8 10  1  0  0  0  0
 11 10  2  0  0  0  0
 11  1  1  0  0  0  0
 12 17  1  0  0  0  0
 13 12  2  0  0  0  0
 13 14  1  0  0  0  0
 14 15  2  0  0  0  0
 15 16  1  0  0  0  0
 16 19  1  0  0  0  0
 17 16  2  0  0  0  0
 18 13  1  0  0  0  0
 20 12  1  0  0  0  0
 21 20  1  0  0  0  0
 22 23  1  0  0  0  0
 22  6  1  0  0  0  0
 24 22  1  0  0  0  0
M  END
>  <minimizedAffinity>
-4.98263788

$$$$

 OpenBabel03242523483D

 24 26  0  0  0  0  0  0  0  0999 V2000
   39.7510   30.7330   39.2580 N   0  0  0  0  0  0  0  0  0  0  0  0
   40.0090   30.2020   38.0360 C   0  0  0  0  0  0  0  0  0  0  0  0
   39.5800   29.2660   37.7170 H   0  0  0  0  0  0  0  0  0  0  0  0
   40.8400   31.0460   37.3880 N   0  0  0  0  0  0  0  0  0  0  0  0
   41.1240   32.1030   38.1640 C   0  0  0  0  0  0  0  0  0  0  0  0
   41.8770   33.2320   38.0510 C   0  0  0  0  0  0  0  0  0  0  0  0
   41.9700   34.1520   39.0470 N   0  0  0  0  0  0  0  0  0  0  0  0
   41.3040   33.9530   40.1820 C   0  0  0  0  0  0  0  0  0  0  0  0
   41.2430   34.5490   41.0780 H   0  0  0  0  0  0  0  0  0  0  0  0
   40.5600   32.8600   40.3190 N   0  0  0  0  0  0  0  0  0  0  0  0
   40.4360   31.9090   39.3510 C   0  0  0  0  0  0  0  0  0  0  0  0
   36.8260   30.3920   41.4540 C   0  0  0  0  0  0  0  0  0  0  0  0
   37.6530   30.8060   40.3970 C   0  0  0  0  0  0  0  0  0  0  0  0
   38.9510   30.2830   40.3470 C   0  0  0  0  0  0  0  0  0  0  0  0
   39.3430   29.4120   41.3090 N   0  0  0  0  0  0  0  0  0  0  0  0
   38.5240   29.0410   42.3020 C   0  0  0  0  0  0  0  0  0  0  0  0
   37.2770   29.5270   42.3720 N   0  0  0  0  0  0  0  0  0  0  0  0
   37.2900   31.5010   39.6580 H   0  0  0  0  0  0  0  0  0  0  0  0
   38.8430   28.3490   43.0620 H   0  0  0  0  0  0  0  0  0  0  0  0
   35.5550   30.8980   41.5100 O   0  0  0  0  0  0  0  0  0  0  0  0
   34.9190   30.5750   40.7640 H   0  0  0  0  0  0  0  0  0  0  0  0
   42.6060   33.4800   36.8510 N   0  0  0  0  0  0  0  0  0  0  0  0
   42.3930   33.9220   35.9500 H   0  0  0  0  0  0  0  0  0  0  0  0
   43.5350   33.0690   37.0910 H   0  0  0  0  0  0  0  0  0  0  0  0
  1 11  1  0  0  0  0
  1 14  1  0  0  0  0
  2  1  1  0  0  0  0
  3  2  1  0  0  0  0
  4  2  2  0  0  0  0
  4  5  1  0  0  0  0
  5 11  1  0  0  0  0
  6  5  2  0  0  0  0
  6  7  1  0  0  0  0
  7  8  2  0  0  0  0
  8 10  1  0  0  0  0
  8  9  1  0  0  0  0
 11 10  2  0  0  0  0
 12 20  1  0  0  0  0
 12 17  1  0  0  0  0
 13 12  2  0  0  0  0
 14 13  1  0  0  0  0
 14 15  2  0  0  0  0
 15 16  1  0  0  0  0
 16 17  2  0  0  0  0
 16 19  1  0  0  0  0
 18 13  1  0  0  0  0
 21 20  1  0  0  0  0
 22 24  1  0  0  0  0
 22  6  1  0  0  0  0
 23 22  1  0  0  0  0
M  END
>  <minimizedAffinity>
-4.96946573

$$$$
