
 OpenBabel03242519463D

 43 46  0  0  1  0  0  0  0  0999 V2000
   46.6210   32.6530   46.6110 C   0  0  2  0  0  0  0  0  0  0  0  0
   47.1400   32.6910   45.2280 C   0  0  1  0  0  0  0  0  0  0  0  0
   46.8120   31.3560   44.7080 O   0  0  0  0  0  0  0  0  0  0  0  0
   47.4610   30.6420   45.7400 C   0  0  0  0  0  0  0  0  0  0  0  0
   46.6630   31.1650   46.9400 C   0  0  2  0  0  0  0  0  0  0  0  0
   47.1860   33.2580   47.3370 H   0  0  0  0  0  0  0  0  0  0  0  0
   48.2580   32.6860   45.2170 H   0  0  0  0  0  0  0  0  0  0  0  0
   47.4130   29.6070   45.5360 H   0  0  0  0  0  0  0  0  0  0  0  0
   48.5160   31.0380   45.8510 H   0  0  0  0  0  0  0  0  0  0  0  0
   47.2440   30.9030   47.8510 H   0  0  0  0  0  0  0  0  0  0  0  0
   44.7680   35.2160   44.0780 C   0  0  0  0  0  0  0  0  0  0  0  0
   45.3240   35.6840   42.8860 C   0  0  0  0  0  0  0  0  0  0  0  0
   46.5470   35.1170   42.4520 C   0  0  0  0  0  0  0  0  0  0  0  0
   47.1320   34.1390   43.2170 N   0  0  0  0  0  0  0  0  0  0  0  0
   46.5590   33.7160   44.3650 C   0  0  0  0  0  0  0  0  0  0  0  0
   45.3820   34.2440   44.8030 N   0  0  0  0  0  0  0  0  0  0  0  0
   44.8180   36.4480   42.3360 H   0  0  0  0  0  0  0  0  0  0  0  0
   46.9940   35.4620   41.5380 H   0  0  0  0  0  0  0  0  0  0  0  0
   43.5610   35.7370   44.5570 O   0  0  0  0  0  0  0  0  0  0  0  0
   43.5890   36.3160   45.3820 H   0  0  0  0  0  0  0  0  0  0  0  0
   45.2440   33.0630   46.6160 O   0  0  0  0  0  0  0  0  0  0  0  0
   45.1720   33.9470   47.0920 H   0  0  0  0  0  0  0  0  0  0  0  0
   45.4250   30.6120   46.9210 O   0  0  0  0  0  0  0  0  0  0  0  0
   45.1740   29.6060   47.8110 C   0  0  0  0  0  0  0  0  0  0  0  0
   44.0200   29.5010   47.9200 H   0  0  0  0  0  0  0  0  0  0  0  0
   45.5900   29.7550   48.7670 H   0  0  0  0  0  0  0  0  0  0  0  0
   45.4540   28.2080   47.2900 C   0  0  0  0  0  0  0  0  0  0  0  0
   45.9830   27.6810   48.1010 H   0  0  0  0  0  0  0  0  0  0  0  0
   46.1540   28.1910   46.4430 H   0  0  0  0  0  0  0  0  0  0  0  0
   44.2420   27.5090   46.9530 N   0  0  0  0  0  0  0  0  0  0  0  0
   43.9790   26.3510   47.6530 C   0  0  0  0  0  0  0  0  0  0  0  0
   44.5300   25.8210   48.4450 H   0  0  0  0  0  0  0  0  0  0  0  0
   42.8180   25.7610   47.2870 N   0  0  0  0  0  0  0  0  0  0  0  0
   42.2770   26.5120   46.3330 C   0  0  0  0  0  0  0  0  0  0  0  0
   41.1560   26.5240   45.5300 C   0  0  0  0  0  0  0  0  0  0  0  0
   40.9550   27.5230   44.6220 N   0  0  0  0  0  0  0  0  0  0  0  0
   41.8560   28.5150   44.4970 C   0  0  0  0  0  0  0  0  0  0  0  0
   41.6500   29.2950   43.7540 H   0  0  0  0  0  0  0  0  0  0  0  0
   42.9500   28.5150   45.2710 N   0  0  0  0  0  0  0  0  0  0  0  0
   43.1620   27.5520   46.1600 C   0  0  0  0  0  0  0  0  0  0  0  0
   40.2480   25.4290   45.7280 N   0  0  0  0  0  0  0  0  0  0  0  0
   40.1510   24.5640   45.1460 H   0  0  0  0  0  0  0  0  0  0  0  0
   39.5320   25.2710   46.4570 H   0  0  0  0  0  0  0  0  0  0  0  0
  1 21  1  0  0  0  0
  1  5  1  0  0  0  0
  1  6  1  1  0  0  0
  2  7  1  1  0  0  0
  2  1  1  0  0  0  0
  3  2  1  0  0  0  0
  3  4  1  0  0  0  0
  4  9  1  0  0  0  0
  4  5  1  0  0  0  0
  5 10  1  1  0  0  0
  8  4  1  0  0  0  0
 11 19  1  0  0  0  0
 11 16  1  0  0  0  0
 12 11  2  0  0  0  0
 13 12  1  0  0  0  0
 13 14  2  0  0  0  0
 14 15  1  0  0  0  0
 15 16  2  0  0  0  0
 15  2  1  0  0  0  0
 17 12  1  0  0  0  0
 18 13  1  0  0  0  0
 19 20  1  0  0  0  0
 21 22  1  0  0  0  0
 23  5  1  0  0  0  0
 23 24  1  0  0  0  0
 24 25  1  0  0  0  0
 24 26  1  0  0  0  0
 27 24  1  0  0  0  0
 27 28  1  0  0  0  0
 29 27  1  0  0  0  0
 30 27  1  0  0  0  0
 30 31  1  0  0  0  0
 31 32  1  0  0  0  0
 33 31  2  0  0  0  0
 34 33  1  0  0  0  0
 35 41  1  0  0  0  0
 35 34  2  0  0  0  0
 36 35  1  0  0  0  0
 37 36  2  0  0  0  0
 37 39  1  0  0  0  0
 38 37  1  0  0  0  0
 39 40  2  0  0  0  0
 40 34  1  0  0  0  0
 40 30  1  0  0  0  0
 41 43  1  0  0  0  0
 42 41  1  0  0  0  0
M  END
>  <minimizedAffinity>
-5.94567776

>  <minimizedRMSD>
1.38417411

$$$$
