
 OpenBabel03242517293D

 45 48  0  0  1  0  0  0  0  0999 V2000
   38.1310   31.0250   38.3100 C   0  0  0  0  0  0  0  0  0  0  0  0
   37.5120   32.2370   38.7380 C   0  0  0  0  0  0  0  0  0  0  0  0
   36.9600   32.2620   40.0240 C   0  0  0  0  0  0  0  0  0  0  0  0
   37.0390   31.1510   40.7880 N   0  0  0  0  0  0  0  0  0  0  0  0
   37.6290   30.0110   40.3660 C   0  0  0  0  0  0  0  0  0  0  0  0
   38.1570   29.9840   39.1390 N   0  0  0  0  0  0  0  0  0  0  0  0
   37.6700   28.9090   41.2110 N   0  0  0  0  0  0  0  0  0  0  0  0
   36.4520   28.3360   41.7150 C   0  0  0  0  0  0  0  0  0  0  0  0
   36.6520   27.4310   42.8870 C   0  0  0  0  0  0  0  0  0  0  0  0
   37.8760   26.7060   42.9280 N   0  0  0  0  0  0  0  0  0  0  0  0
   38.6860   26.8750   41.7730 C   0  0  0  0  0  0  0  0  0  0  0  0
   38.9750   28.3360   41.5830 C   0  0  2  0  0  0  0  0  0  0  0  0
   38.5410   31.0590   37.3100 H   0  0  0  0  0  0  0  0  0  0  0  0
   37.4220   33.1420   38.1790 H   0  0  0  0  0  0  0  0  0  0  0  0
   36.4680   33.1320   40.4450 H   0  0  0  0  0  0  0  0  0  0  0  0
   35.6840   29.0900   41.9810 H   0  0  0  0  0  0  0  0  0  0  0  0
   36.0200   27.7150   40.9010 H   0  0  0  0  0  0  0  0  0  0  0  0
   36.5470   28.0540   43.8150 H   0  0  0  0  0  0  0  0  0  0  0  0
   35.7910   26.7120   42.9100 H   0  0  0  0  0  0  0  0  0  0  0  0
   37.7040   25.6720   43.0400 H   0  0  0  0  0  0  0  0  0  0  0  0
   39.6230   26.2720   41.9170 H   0  0  0  0  0  0  0  0  0  0  0  0
   38.2330   26.4830   40.8420 H   0  0  0  0  0  0  0  0  0  0  0  0
   39.6760   28.5290   40.7390 H   0  0  0  0  0  0  0  0  0  0  0  0
   39.5380   28.9830   42.8080 C   0  0  0  0  0  0  0  0  0  0  0  0
   38.8670   29.7660   43.1970 H   0  0  0  0  0  0  0  0  0  0  0  0
   39.7770   28.2530   43.6150 H   0  0  0  0  0  0  0  0  0  0  0  0
   40.7900   29.7200   42.3800 C   0  0  0  0  0  3  0  0  0  0  0  0
   40.9420   31.0090   42.5810 C   0  0  0  0  0  3  0  0  0  0  0  0
   42.1580   31.7900   42.1790 C   0  0  0  0  0  0  0  0  0  0  0  0
   42.3890   32.4950   43.0020 H   0  0  0  0  0  0  0  0  0  0  0  0
   43.0040   31.0450   42.1850 H   0  0  0  0  0  0  0  0  0  0  0  0
   42.0090   32.4310   40.9060 N   0  0  0  0  0  0  0  0  0  0  0  0
   40.8440   32.7980   40.3390 C   0  0  0  0  0  0  0  0  0  0  0  0
   39.8320   32.6720   40.7410 H   0  0  0  0  0  0  0  0  0  0  0  0
   41.0760   33.3810   39.1280 N   0  0  0  0  0  0  0  0  0  0  0  0
   42.3930   33.3840   38.9270 C   0  0  0  0  0  0  0  0  0  0  0  0
   43.2010   33.8330   37.9030 C   0  0  0  0  0  0  0  0  0  0  0  0
   44.5540   33.6970   37.9790 N   0  0  0  0  0  0  0  0  0  0  0  0
   45.1140   33.1210   39.0580 C   0  0  0  0  0  0  0  0  0  0  0  0
   46.2010   33.0140   39.1130 H   0  0  0  0  0  0  0  0  0  0  0  0
   44.3170   32.6830   40.0590 N   0  0  0  0  0  0  0  0  0  0  0  0
   42.9730   32.7870   40.0450 C   0  0  0  0  0  0  0  0  0  0  0  0
   42.6670   34.4470   36.7420 N   0  0  0  0  0  0  0  0  0  0  0  0
   43.0760   35.2810   36.2300 H   0  0  0  0  0  0  0  0  0  0  0  0
   41.8330   34.2780   36.1410 H   0  0  0  0  0  0  0  0  0  0  0  0
  1  2  2  0  0  0  0
  1  6  1  0  0  0  0
  2  3  1  0  0  0  0
  3 15  1  0  0  0  0
  3  4  2  0  0  0  0
  5  4  1  0  0  0  0
  5  7  1  0  0  0  0
  6  5  2  0  0  0  0
  7 12  1  0  0  0  0
  7  8  1  0  0  0  0
  8 16  1  0  0  0  0
  8  9  1  0  0  0  0
  9 19  1  0  0  0  0
  9 10  1  0  0  0  0
  9 18  1  0  0  0  0
 10 20  1  0  0  0  0
 11 21  1  0  0  0  0
 11 10  1  0  0  0  0
 12 23  1  6  0  0  0
 12 11  1  0  0  0  0
 12 24  1  0  0  0  0
 13  1  1  0  0  0  0
 14  2  1  0  0  0  0
 17  8  1  0  0  0  0
 22 11  1  0  0  0  0
 24 25  1  0  0  0  0
 24 26  1  0  0  0  0
 27 28  2  0  0  0  0
 27 24  1  0  0  0  0
 29 31  1  0  0  0  0
 29 28  1  0  0  0  0
 29 30  1  0  0  0  0
 32 29  1  0  0  0  0
 33 34  1  0  0  0  0
 33 32  1  0  0  0  0
 35 33  2  0  0  0  0
 36 35  1  0  0  0  0
 36 42  1  0  0  0  0
 37 38  1  0  0  0  0
 37 36  2  0  0  0  0
 38 39  2  0  0  0  0
 39 40  1  0  0  0  0
 39 41  1  0  0  0  0
 42 41  2  0  0  0  0
 42 32  1  0  0  0  0
 43 37  1  0  0  0  0
 44 43  1  0  0  0  0
 45 43  1  0  0  0  0
M  END
>  <minimizedAffinity>
-6.12915087

$$$$

 OpenBabel03242517293D

 45 48  0  0  1  0  0  0  0  0999 V2000
   39.0420   26.0170   38.6740 C   0  0  0  0  0  0  0  0  0  0  0  0
   38.0360   25.0710   38.3190 C   0  0  0  0  0  0  0  0  0  0  0  0
   36.9040   24.9930   39.1390 C   0  0  0  0  0  0  0  0  0  0  0  0
   36.8210   25.8060   40.2130 N   0  0  0  0  0  0  0  0  0  0  0  0
   37.7850   26.6970   40.5340 C   0  0  0  0  0  0  0  0  0  0  0  0
   38.8670   26.7750   39.7530 N   0  0  0  0  0  0  0  0  0  0  0  0
   37.6270   27.5000   41.6560 N   0  0  0  0  0  0  0  0  0  0  0  0
   37.4540   26.9070   42.9550 C   0  0  0  0  0  0  0  0  0  0  0  0
   36.9180   27.8510   43.9810 C   0  0  0  0  0  0  0  0  0  0  0  0
   37.2890   29.2180   43.8440 N   0  0  0  0  0  0  0  0  0  0  0  0
   38.2170   29.4610   42.7940 C   0  0  0  0  0  0  0  0  0  0  0  0
   37.6380   28.9650   41.5010 C   0  0  2  0  0  0  0  0  0  0  0  0
   39.8940   26.0370   38.0080 H   0  0  0  0  0  0  0  0  0  0  0  0
   38.0490   24.4050   37.4840 H   0  0  0  0  0  0  0  0  0  0  0  0
   36.0830   24.3080   38.9570 H   0  0  0  0  0  0  0  0  0  0  0  0
   36.8170   26.0000   42.9460 H   0  0  0  0  0  0  0  0  0  0  0  0
   38.4580   26.5880   43.3060 H   0  0  0  0  0  0  0  0  0  0  0  0
   35.8000   27.7580   43.9740 H   0  0  0  0  0  0  0  0  0  0  0  0
   37.2430   27.4760   44.9870 H   0  0  0  0  0  0  0  0  0  0  0  0
   37.7200   29.5890   44.7320 H   0  0  0  0  0  0  0  0  0  0  0  0
   38.4300   30.5640   42.7700 H   0  0  0  0  0  0  0  0  0  0  0  0
   39.2040   28.9820   42.9440 H   0  0  0  0  0  0  0  0  0  0  0  0
   38.2840   29.2010   40.6230 H   0  0  0  0  0  0  0  0  0  0  0  0
   36.2710   29.5070   41.2270 C   0  0  0  0  0  0  0  0  0  0  0  0
   35.7420   28.9060   40.4700 H   0  0  0  0  0  0  0  0  0  0  0  0
   35.6470   29.5960   42.1460 H   0  0  0  0  0  0  0  0  0  0  0  0
   36.4580   30.8660   40.5870 C   0  0  0  0  0  3  0  0  0  0  0  0
   37.0750   31.0140   39.4360 C   0  0  0  0  0  3  0  0  0  0  0  0
   37.2880   32.3330   38.7550 C   0  0  0  0  0  0  0  0  0  0  0  0
   37.4350   32.1310   37.6750 H   0  0  0  0  0  0  0  0  0  0  0  0
   36.2970   32.8650   38.8210 H   0  0  0  0  0  0  0  0  0  0  0  0
   38.3520   33.0940   39.3410 N   0  0  0  0  0  0  0  0  0  0  0  0
   38.2070   34.1240   40.1960 C   0  0  0  0  0  0  0  0  0  0  0  0
   37.2740   34.5500   40.5820 H   0  0  0  0  0  0  0  0  0  0  0  0
   39.4300   34.6120   40.5520 N   0  0  0  0  0  0  0  0  0  0  0  0
   40.3540   33.8890   39.9210 C   0  0  0  0  0  0  0  0  0  0  0  0
   41.7310   33.9170   39.8920 C   0  0  0  0  0  0  0  0  0  0  0  0
   42.4260   33.0250   39.1320 N   0  0  0  0  0  0  0  0  0  0  0  0
   41.7690   32.1070   38.4000 C   0  0  0  0  0  0  0  0  0  0  0  0
   42.3320   31.3940   37.7920 H   0  0  0  0  0  0  0  0  0  0  0  0
   40.4170   32.0850   38.4320 N   0  0  0  0  0  0  0  0  0  0  0  0
   39.6720   32.9380   39.1630 C   0  0  0  0  0  0  0  0  0  0  0  0
   42.4770   34.8610   40.6420 N   0  0  0  0  0  0  0  0  0  0  0  0
   43.3830   34.6740   41.1610 H   0  0  0  0  0  0  0  0  0  0  0  0
   42.3650   35.8720   40.8670 H   0  0  0  0  0  0  0  0  0  0  0  0
  1  6  1  0  0  0  0
  2  1  2  0  0  0  0
  2  3  1  0  0  0  0
  3  4  2  0  0  0  0
  4  5  1  0  0  0  0
  5  7  1  0  0  0  0
  6  5  2  0  0  0  0
  7  8  1  0  0  0  0
  8 17  1  0  0  0  0
  8  9  1  0  0  0  0
  9 19  1  0  0  0  0
 10  9  1  0  0  0  0
 10 20  1  0  0  0  0
 11 22  1  0  0  0  0
 11 10  1  0  0  0  0
 12 23  1  6  0  0  0
 12  7  1  0  0  0  0
 12 11  1  0  0  0  0
 13  1  1  0  0  0  0
 14  2  1  0  0  0  0
 15  3  1  0  0  0  0
 16  8  1  0  0  0  0
 18  9  1  0  0  0  0
 21 11  1  0  0  0  0
 24 12  1  0  0  0  0
 24 26  1  0  0  0  0
 25 24  1  0  0  0  0
 27 24  1  0  0  0  0
 28 27  2  0  0  0  0
 29 31  1  0  0  0  0
 29 32  1  0  0  0  0
 29 28  1  0  0  0  0
 30 29  1  0  0  0  0
 32 33  1  0  0  0  0
 33 35  2  0  0  0  0
 33 34  1  0  0  0  0
 36 35  1  0  0  0  0
 37 36  1  0  0  0  0
 37 43  1  0  0  0  0
 38 37  2  0  0  0  0
 39 41  2  0  0  0  0
 39 38  1  0  0  0  0
 40 39  1  0  0  0  0
 41 42  1  0  0  0  0
 42 32  1  0  0  0  0
 42 36  2  0  0  0  0
 43 45  1  0  0  0  0
 43 44  1  0  0  0  0
M  END
>  <minimizedAffinity>
-6.11855078

$$$$

 OpenBabel03242517293D

 45 48  0  0  1  0  0  0  0  0999 V2000
   37.8120   28.5600   38.1950 C   0  0  0  0  0  0  0  0  0  0  0  0
   36.4590   28.8730   37.8690 C   0  0  0  0  0  0  0  0  0  0  0  0
   35.4790   27.9290   38.1990 C   0  0  0  0  0  0  0  0  0  0  0  0
   35.8580   26.7820   38.8020 N   0  0  0  0  0  0  0  0  0  0  0  0
   37.1450   26.5020   39.1030 C   0  0  0  0  0  0  0  0  0  0  0  0
   38.0830   27.4010   38.7890 N   0  0  0  0  0  0  0  0  0  0  0  0
   37.4560   25.2980   39.7230 N   0  0  0  0  0  0  0  0  0  0  0  0
   37.1150   24.0500   39.0970 C   0  0  0  0  0  0  0  0  0  0  0  0
   37.1510   22.8810   40.0270 C   0  0  0  0  0  0  0  0  0  0  0  0
   38.1070   22.9360   41.0800 N   0  0  0  0  0  0  0  0  0  0  0  0
   38.9670   24.0660   41.0200 C   0  0  0  0  0  0  0  0  0  0  0  0
   38.1380   25.3170   41.0280 C   0  0  2  0  0  0  0  0  0  0  0  0
   38.5280   29.3220   37.9190 H   0  0  0  0  0  0  0  0  0  0  0  0
   36.1030   29.7620   37.3950 H   0  0  0  0  0  0  0  0  0  0  0  0
   34.4230   28.0700   37.9950 H   0  0  0  0  0  0  0  0  0  0  0  0
   36.1290   24.0640   38.5900 H   0  0  0  0  0  0  0  0  0  0  0  0
   37.8750   23.8580   38.3110 H   0  0  0  0  0  0  0  0  0  0  0  0
   36.1210   22.7570   40.4530 H   0  0  0  0  0  0  0  0  0  0  0  0
   37.3310   21.9630   39.4080 H   0  0  0  0  0  0  0  0  0  0  0  0
   38.7190   22.0770   41.0860 H   0  0  0  0  0  0  0  0  0  0  0  0
   39.6680   24.0130   41.8970 H   0  0  0  0  0  0  0  0  0  0  0  0
   39.6250   24.0860   40.1290 H   0  0  0  0  0  0  0  0  0  0  0  0
   38.7590   26.2420   41.0660 H   0  0  0  0  0  0  0  0  0  0  0  0
   37.1670   25.3660   42.1640 C   0  0  0  0  0  0  0  0  0  0  0  0
   36.1290   25.2480   41.8140 H   0  0  0  0  0  0  0  0  0  0  0  0
   37.3870   24.6150   42.9570 H   0  0  0  0  0  0  0  0  0  0  0  0
   37.2300   26.7660   42.7360 C   0  0  0  0  0  3  0  0  0  0  0  0
   38.1470   27.6300   42.3630 C   0  0  0  0  0  3  0  0  0  0  0  0
   38.2580   29.0280   42.8940 C   0  0  0  0  0  0  0  0  0  0  0  0
   37.7820   29.0440   43.8940 H   0  0  0  0  0  0  0  0  0  0  0  0
   39.3570   29.1850   43.0880 H   0  0  0  0  0  0  0  0  0  0  0  0
   37.7210   30.0060   41.9940 N   0  0  0  0  0  0  0  0  0  0  0  0
   36.4540   30.0510   41.5400 C   0  0  0  0  0  0  0  0  0  0  0  0
   35.6340   29.3630   41.7730 H   0  0  0  0  0  0  0  0  0  0  0  0
   36.2940   31.1150   40.7020 N   0  0  0  0  0  0  0  0  0  0  0  0
   37.4640   31.7480   40.6250 C   0  0  0  0  0  0  0  0  0  0  0  0
   37.9000   32.8660   39.9470 C   0  0  0  0  0  0  0  0  0  0  0  0
   39.1900   33.2880   40.0650 N   0  0  0  0  0  0  0  0  0  0  0  0
   40.0510   32.6140   40.8480 C   0  0  0  0  0  0  0  0  0  0  0  0
   41.0850   32.9570   40.9400 H   0  0  0  0  0  0  0  0  0  0  0  0
   39.6170   31.5170   41.5110 N   0  0  0  0  0  0  0  0  0  0  0  0
   38.3560   31.0490   41.4370 C   0  0  0  0  0  0  0  0  0  0  0  0
   37.0390   33.6170   39.1070 N   0  0  0  0  0  0  0  0  0  0  0  0
   37.0120   34.6730   39.0210 H   0  0  0  0  0  0  0  0  0  0  0  0
   36.2870   33.3770   38.4260 H   0  0  0  0  0  0  0  0  0  0  0  0
  1  6  1  0  0  0  0
  2  1  2  0  0  0  0
  2  3  1  0  0  0  0
  3  4  2  0  0  0  0
  4  5  1  0  0  0  0
  5  7  1  0  0  0  0
  6  5  2  0  0  0  0
  7 12  1  0  0  0  0
  8  7  1  0  0  0  0
  8  9  1  0  0  0  0
  9 18  1  0  0  0  0
  9 10  1  0  0  0  0
 10 20  1  0  0  0  0
 11 12  1  0  0  0  0
 11 10  1  0  0  0  0
 11 21  1  0  0  0  0
 12 23  1  1  0  0  0
 12 24  1  0  0  0  0
 13  1  1  0  0  0  0
 14  2  1  0  0  0  0
 15  3  1  0  0  0  0
 16  8  1  0  0  0  0
 17  8  1  0  0  0  0
 19  9  1  0  0  0  0
 22 11  1  0  0  0  0
 24 27  1  0  0  0  0
 24 26  1  0  0  0  0
 25 24  1  0  0  0  0
 28 27  2  0  0  0  0
 28 29  1  0  0  0  0
 29 31  1  0  0  0  0
 29 30  1  0  0  0  0
 32 29  1  0  0  0  0
 33 34  1  0  0  0  0
 33 32  1  0  0  0  0
 35 33  2  0  0  0  0
 36 35  1  0  0  0  0
 36 42  1  0  0  0  0
 37 38  1  0  0  0  0
 37 36  2  0  0  0  0
 38 39  2  0  0  0  0
 39 40  1  0  0  0  0
 39 41  1  0  0  0  0
 42 41  2  0  0  0  0
 42 32  1  0  0  0  0
 43 37  1  0  0  0  0
 44 43  1  0  0  0  0
 45 43  1  0  0  0  0
M  END
>  <minimizedAffinity>
-6.05845308

$$$$

 OpenBabel03242517293D

 45 48  0  0  1  0  0  0  0  0999 V2000
   38.0060   29.2160   37.7420 C   0  0  0  0  0  0  0  0  0  0  0  0
   39.0720   28.4510   37.1830 C   0  0  0  0  0  0  0  0  0  0  0  0
   40.3760   28.9250   37.3720 C   0  0  0  0  0  0  0  0  0  0  0  0
   40.5590   30.0700   38.0650 N   0  0  0  0  0  0  0  0  0  0  0  0
   39.5360   30.7810   38.5880 C   0  0  0  0  0  0  0  0  0  0  0  0
   38.2900   30.3310   38.4090 N   0  0  0  0  0  0  0  0  0  0  0  0
   39.8040   31.9500   39.2890 N   0  0  0  0  0  0  0  0  0  0  0  0
   40.5050   33.0330   38.6530 C   0  0  0  0  0  0  0  0  0  0  0  0
   41.0550   34.0390   39.6110 C   0  0  0  0  0  0  0  0  0  0  0  0
   40.3140   34.2480   40.8080 N   0  0  0  0  0  0  0  0  0  0  0  0
   39.0870   33.5320   40.8600 C   0  0  0  0  0  0  0  0  0  0  0  0
   39.3640   32.0670   40.6890 C   0  0  2  0  0  0  0  0  0  0  0  0
   37.0210   28.8060   37.5680 H   0  0  0  0  0  0  0  0  0  0  0  0
   38.9870   27.5420   36.6280 H   0  0  0  0  0  0  0  0  0  0  0  0
   41.2550   28.4190   36.9880 H   0  0  0  0  0  0  0  0  0  0  0  0
   41.3250   32.6990   37.9860 H   0  0  0  0  0  0  0  0  0  0  0  0
   39.7710   33.5670   38.0130 H   0  0  0  0  0  0  0  0  0  0  0  0
   42.1040   33.7280   39.8610 H   0  0  0  0  0  0  0  0  0  0  0  0
   41.1540   35.0110   39.0600 H   0  0  0  0  0  0  0  0  0  0  0  0
   40.0860   35.2680   40.9440 H   0  0  0  0  0  0  0  0  0  0  0  0
   38.5950   33.7610   41.8440 H   0  0  0  0  0  0  0  0  0  0  0  0
   38.3510   33.8420   40.0930 H   0  0  0  0  0  0  0  0  0  0  0  0
   38.4480   31.4410   40.8030 H   0  0  0  0  0  0  0  0  0  0  0  0
   40.3950   31.5530   41.6420 C   0  0  0  0  0  0  0  0  0  0  0  0
   41.1410   30.9240   41.1300 H   0  0  0  0  0  0  0  0  0  0  0  0
   40.9060   32.3650   42.2080 H   0  0  0  0  0  0  0  0  0  0  0  0
   39.6830   30.6170   42.5960 C   0  0  0  0  0  3  0  0  0  0  0  0
   38.5620   30.0140   42.2720 C   0  0  0  0  0  3  0  0  0  0  0  0
   37.8140   29.0770   43.1740 C   0  0  0  0  0  0  0  0  0  0  0  0
   38.3010   29.1120   44.1690 H   0  0  0  0  0  0  0  0  0  0  0  0
   36.8040   29.5530   43.3250 H   0  0  0  0  0  0  0  0  0  0  0  0
   37.7140   27.7520   42.6360 N   0  0  0  0  0  0  0  0  0  0  0  0
   36.7760   27.3200   41.7720 C   0  0  0  0  0  0  0  0  0  0  0  0
   35.9460   27.8910   41.3410 H   0  0  0  0  0  0  0  0  0  0  0  0
   36.9860   26.0060   41.4730 N   0  0  0  0  0  0  0  0  0  0  0  0
   38.0610   25.6030   42.1490 C   0  0  0  0  0  0  0  0  0  0  0  0
   38.7350   24.4050   42.2430 C   0  0  0  0  0  0  0  0  0  0  0  0
   39.8350   24.2900   43.0380 N   0  0  0  0  0  0  0  0  0  0  0  0
   40.2730   25.3500   43.7410 C   0  0  0  0  0  0  0  0  0  0  0  0
   41.1560   25.2520   44.3780 H   0  0  0  0  0  0  0  0  0  0  0  0
   39.6070   26.5230   43.6450 N   0  0  0  0  0  0  0  0  0  0  0  0
   38.5140   26.7030   42.8770 C   0  0  0  0  0  0  0  0  0  0  0  0
   38.3210   23.2540   41.5270 N   0  0  0  0  0  0  0  0  0  0  0  0
   38.9550   22.5490   41.0520 H   0  0  0  0  0  0  0  0  0  0  0  0
   37.3980   22.8280   41.2930 H   0  0  0  0  0  0  0  0  0  0  0  0
  1  6  1  0  0  0  0
  2  3  1  0  0  0  0
  2  1  2  0  0  0  0
  3  4  2  0  0  0  0
  4  5  1  0  0  0  0
  5  7  1  0  0  0  0
  6  5  2  0  0  0  0
  7 12  1  0  0  0  0
  8  7  1  0  0  0  0
  8  9  1  0  0  0  0
  9 18  1  0  0  0  0
  9 10  1  0  0  0  0
 10 11  1  0  0  0  0
 10 20  1  0  0  0  0
 11 21  1  0  0  0  0
 12 23  1  1  0  0  0
 12 11  1  0  0  0  0
 12 24  1  0  0  0  0
 13  1  1  0  0  0  0
 14  2  1  0  0  0  0
 15  3  1  0  0  0  0
 16  8  1  0  0  0  0
 17  8  1  0  0  0  0
 19  9  1  0  0  0  0
 22 11  1  0  0  0  0
 24 26  1  0  0  0  0
 24 27  1  0  0  0  0
 25 24  1  0  0  0  0
 28 27  2  0  0  0  0
 28 29  1  0  0  0  0
 29 31  1  0  0  0  0
 29 30  1  0  0  0  0
 32 42  1  0  0  0  0
 32 29  1  0  0  0  0
 33 32  1  0  0  0  0
 34 33  1  0  0  0  0
 35 33  2  0  0  0  0
 35 36  1  0  0  0  0
 36 37  2  0  0  0  0
 36 42  1  0  0  0  0
 37 38  1  0  0  0  0
 38 39  2  0  0  0  0
 39 40  1  0  0  0  0
 41 39  1  0  0  0  0
 42 41  2  0  0  0  0
 43 37  1  0  0  0  0
 44 43  1  0  0  0  0
 45 43  1  0  0  0  0
M  END
>  <minimizedAffinity>
-6.00047302

$$$$

 OpenBabel03242517293D

 45 48  0  0  1  0  0  0  0  0999 V2000
   39.4050   23.2890   38.3370 C   0  0  0  0  0  0  0  0  0  0  0  0
   38.7080   22.0870   38.6570 C   0  0  0  0  0  0  0  0  0  0  0  0
   38.2370   21.9430   39.9670 C   0  0  0  0  0  0  0  0  0  0  0  0
   38.4630   22.9350   40.8540 N   0  0  0  0  0  0  0  0  0  0  0  0
   39.1270   24.0680   40.5330 C   0  0  0  0  0  0  0  0  0  0  0  0
   39.5780   24.2100   39.2830 N   0  0  0  0  0  0  0  0  0  0  0  0
   39.3200   25.0450   41.5010 N   0  0  0  0  0  0  0  0  0  0  0  0
   40.0220   24.7330   42.7170 C   0  0  0  0  0  0  0  0  0  0  0  0
   39.8200   25.7370   43.8040 C   0  0  0  0  0  0  0  0  0  0  0  0
   39.6270   27.0860   43.3950 N   0  0  0  0  0  0  0  0  0  0  0  0
   39.7670   27.2910   41.9950 C   0  0  0  0  0  0  0  0  0  0  0  0
   38.7980   26.4020   41.2690 C   0  0  2  0  0  0  0  0  0  0  0  0
   39.7470   23.3510   37.3130 H   0  0  0  0  0  0  0  0  0  0  0  0
   38.5000   21.2720   37.9990 H   0  0  0  0  0  0  0  0  0  0  0  0
   37.6950   21.0690   40.3120 H   0  0  0  0  0  0  0  0  0  0  0  0
   39.7850   23.7270   43.1190 H   0  0  0  0  0  0  0  0  0  0  0  0
   41.1070   24.7320   42.4780 H   0  0  0  0  0  0  0  0  0  0  0  0
   38.9450   25.3960   44.4180 H   0  0  0  0  0  0  0  0  0  0  0  0
   40.7070   25.6780   44.4880 H   0  0  0  0  0  0  0  0  0  0  0  0
   40.3090   27.7320   43.8730 H   0  0  0  0  0  0  0  0  0  0  0  0
   39.5850   28.3790   41.7850 H   0  0  0  0  0  0  0  0  0  0  0  0
   40.7840   27.0900   41.6090 H   0  0  0  0  0  0  0  0  0  0  0  0
   38.8000   26.5760   40.1680 H   0  0  0  0  0  0  0  0  0  0  0  0
   37.3920   26.5500   41.7570 C   0  0  0  0  0  0  0  0  0  0  0  0
   36.8350   25.6030   41.6750 H   0  0  0  0  0  0  0  0  0  0  0  0
   37.3330   26.9370   42.7990 H   0  0  0  0  0  0  0  0  0  0  0  0
   36.6950   27.4980   40.8050 C   0  0  0  0  0  3  0  0  0  0  0  0
   36.1760   28.6350   41.2110 C   0  0  0  0  0  3  0  0  0  0  0  0
   35.4750   29.6120   40.3150 C   0  0  0  0  0  0  0  0  0  0  0  0
   34.5610   29.1170   39.9310 H   0  0  0  0  0  0  0  0  0  0  0  0
   35.1030   30.4270   40.9980 H   0  0  0  0  0  0  0  0  0  0  0  0
   36.3240   30.1200   39.2770 N   0  0  0  0  0  0  0  0  0  0  0  0
   36.1960   29.8730   37.9600 C   0  0  0  0  0  0  0  0  0  0  0  0
   35.4390   29.2530   37.4640 H   0  0  0  0  0  0  0  0  0  0  0  0
   37.1750   30.5180   37.2650 N   0  0  0  0  0  0  0  0  0  0  0  0
   37.9280   31.1780   38.1440 C   0  0  0  0  0  0  0  0  0  0  0  0
   39.0370   31.9880   38.0320 C   0  0  0  0  0  0  0  0  0  0  0  0
   39.6070   32.5400   39.1400 N   0  0  0  0  0  0  0  0  0  0  0  0
   39.0880   32.2970   40.3560 C   0  0  0  0  0  0  0  0  0  0  0  0
   39.5490   32.7420   41.2420 H   0  0  0  0  0  0  0  0  0  0  0  0
   37.9990   31.5000   40.4600 N   0  0  0  0  0  0  0  0  0  0  0  0
   37.3890   30.9250   39.4050 C   0  0  0  0  0  0  0  0  0  0  0  0
   39.6280   32.2800   36.7760 N   0  0  0  0  0  0  0  0  0  0  0  0
   40.0190   33.2170   36.4710 H   0  0  0  0  0  0  0  0  0  0  0  0
   39.8200   31.7310   35.9110 H   0  0  0  0  0  0  0  0  0  0  0  0
  1  2  2  0  0  0  0
  1  6  1  0  0  0  0
  2  3  1  0  0  0  0
  3 15  1  0  0  0  0
  3  4  2  0  0  0  0
  5  4  1  0  0  0  0
  5  7  1  0  0  0  0
  6  5  2  0  0  0  0
  7  8  1  0  0  0  0
  8 16  1  0  0  0  0
  8  9  1  0  0  0  0
  9 18  1  0  0  0  0
  9 19  1  0  0  0  0
 10  9  1  0  0  0  0
 10 20  1  0  0  0  0
 11 10  1  0  0  0  0
 12 23  1  6  0  0  0
 12  7  1  0  0  0  0
 12 24  1  0  0  0  0
 12 11  1  0  0  0  0
 13  1  1  0  0  0  0
 14  2  1  0  0  0  0
 17  8  1  0  0  0  0
 21 11  1  0  0  0  0
 22 11  1  0  0  0  0
 24 26  1  0  0  0  0
 25 24  1  0  0  0  0
 27 28  2  0  0  0  0
 27 24  1  0  0  0  0
 29 31  1  0  0  0  0
 29 28  1  0  0  0  0
 30 29  1  0  0  0  0
 32 42  1  0  0  0  0
 32 29  1  0  0  0  0
 33 32  1  0  0  0  0
 34 33  1  0  0  0  0
 35 33  2  0  0  0  0
 35 36  1  0  0  0  0
 36 42  1  0  0  0  0
 37 36  2  0  0  0  0
 37 38  1  0  0  0  0
 38 39  2  0  0  0  0
 39 41  1  0  0  0  0
 39 40  1  0  0  0  0
 42 41  2  0  0  0  0
 43 37  1  0  0  0  0
 44 43  1  0  0  0  0
 45 43  1  0  0  0  0
M  END
>  <minimizedAffinity>
-5.8968215

$$$$

 OpenBabel03242517293D

 45 48  0  0  1  0  0  0  0  0999 V2000
   37.3160   29.0760   38.7350 C   0  0  0  0  0  0  0  0  0  0  0  0
   36.1860   29.7360   39.3010 C   0  0  0  0  0  0  0  0  0  0  0  0
   35.6470   29.2030   40.4780 C   0  0  0  0  0  0  0  0  0  0  0  0
   36.2160   28.1010   41.0140 N   0  0  0  0  0  0  0  0  0  0  0  0
   37.2870   27.4880   40.4630 C   0  0  0  0  0  0  0  0  0  0  0  0
   37.8040   27.9950   39.3400 N   0  0  0  0  0  0  0  0  0  0  0  0
   37.8170   26.3580   41.0740 N   0  0  0  0  0  0  0  0  0  0  0  0
   36.9980   25.1950   41.2820 C   0  0  0  0  0  0  0  0  0  0  0  0
   37.5640   24.2290   42.2710 C   0  0  0  0  0  0  0  0  0  0  0  0
   38.9830   24.1480   42.3390 N   0  0  0  0  0  0  0  0  0  0  0  0
   39.6540   24.9350   41.3630 C   0  0  0  0  0  0  0  0  0  0  0  0
   39.2250   26.3660   41.5050 C   0  0  2  0  0  0  0  0  0  0  0  0
   37.6930   29.5280   37.8280 H   0  0  0  0  0  0  0  0  0  0  0  0
   35.6960   30.6070   38.9230 H   0  0  0  0  0  0  0  0  0  0  0  0
   34.7900   29.6290   40.9880 H   0  0  0  0  0  0  0  0  0  0  0  0
   35.9570   25.4340   41.5810 H   0  0  0  0  0  0  0  0  0  0  0  0
   36.9350   24.6600   40.3100 H   0  0  0  0  0  0  0  0  0  0  0  0
   37.1490   24.4960   43.2780 H   0  0  0  0  0  0  0  0  0  0  0  0
   37.1440   23.2170   42.0330 H   0  0  0  0  0  0  0  0  0  0  0  0
   39.3160   23.1550   42.2210 H   0  0  0  0  0  0  0  0  0  0  0  0
   40.7600   24.8050   41.5150 H   0  0  0  0  0  0  0  0  0  0  0  0
   39.4680   24.6140   40.3200 H   0  0  0  0  0  0  0  0  0  0  0  0
   39.7790   27.0500   40.8200 H   0  0  0  0  0  0  0  0  0  0  0  0
   39.3780   26.8860   42.8980 C   0  0  0  0  0  0  0  0  0  0  0  0
   38.4000   27.0290   43.3860 H   0  0  0  0  0  0  0  0  0  0  0  0
   40.0290   26.2430   43.5330 H   0  0  0  0  0  0  0  0  0  0  0  0
   39.9650   28.2770   42.7860 C   0  0  0  0  0  3  0  0  0  0  0  0
   39.2080   29.3490   42.7160 C   0  0  0  0  0  3  0  0  0  0  0  0
   39.7320   30.7490   42.6050 C   0  0  0  0  0  0  0  0  0  0  0  0
   39.2540   31.3490   43.4050 H   0  0  0  0  0  0  0  0  0  0  0  0
   40.8190   30.6830   42.8980 H   0  0  0  0  0  0  0  0  0  0  0  0
   39.5570   31.3040   41.2950 N   0  0  0  0  0  0  0  0  0  0  0  0
   38.6630   32.2510   40.9530 C   0  0  0  0  0  0  0  0  0  0  0  0
   37.9310   32.7480   41.5990 H   0  0  0  0  0  0  0  0  0  0  0  0
   38.7740   32.5410   39.6250 N   0  0  0  0  0  0  0  0  0  0  0  0
   39.7420   31.7760   39.1230 C   0  0  0  0  0  0  0  0  0  0  0  0
   40.2910   31.6320   37.8670 C   0  0  0  0  0  0  0  0  0  0  0  0
   41.3000   30.7440   37.6490 N   0  0  0  0  0  0  0  0  0  0  0  0
   41.7710   29.9970   38.6640 C   0  0  0  0  0  0  0  0  0  0  0  0
   42.5820   29.2860   38.4830 H   0  0  0  0  0  0  0  0  0  0  0  0
   41.2290   30.1420   39.8950 N   0  0  0  0  0  0  0  0  0  0  0  0
   40.2300   31.0020   40.1760 C   0  0  0  0  0  0  0  0  0  0  0  0
   39.8350   32.3920   36.7590 N   0  0  0  0  0  0  0  0  0  0  0  0
   40.4400   32.8140   35.9980 H   0  0  0  0  0  0  0  0  0  0  0  0
   38.9020   32.7090   36.4220 H   0  0  0  0  0  0  0  0  0  0  0  0
  1  2  2  0  0  0  0
  1  6  1  0  0  0  0
  2  3  1  0  0  0  0
  3 15  1  0  0  0  0
  3  4  2  0  0  0  0
  5  4  1  0  0  0  0
  5  7  1  0  0  0  0
  6  5  2  0  0  0  0
  7  8  1  0  0  0  0
  7 12  1  0  0  0  0
  8 16  1  0  0  0  0
  8  9  1  0  0  0  0
  9 10  1  0  0  0  0
  9 18  1  0  0  0  0
 11 12  1  0  0  0  0
 11 21  1  0  0  0  0
 11 10  1  0  0  0  0
 12 23  1  6  0  0  0
 12 24  1  0  0  0  0
 13  1  1  0  0  0  0
 14  2  1  0  0  0  0
 17  8  1  0  0  0  0
 19  9  1  0  0  0  0
 20 10  1  0  0  0  0
 22 11  1  0  0  0  0
 24 25  1  0  0  0  0
 24 26  1  0  0  0  0
 27 24  1  0  0  0  0
 28 27  2  0  0  0  0
 29 28  1  0  0  0  0
 29 31  1  0  0  0  0
 29 30  1  0  0  0  0
 32 29  1  0  0  0  0
 33 32  1  0  0  0  0
 33 34  1  0  0  0  0
 35 33  2  0  0  0  0
 36 35  1  0  0  0  0
 36 42  1  0  0  0  0
 37 36  2  0  0  0  0
 38 37  1  0  0  0  0
 38 39  2  0  0  0  0
 39 41  1  0  0  0  0
 40 39  1  0  0  0  0
 41 42  2  0  0  0  0
 42 32  1  0  0  0  0
 43 37  1  0  0  0  0
 44 43  1  0  0  0  0
 45 43  1  0  0  0  0
M  END
>  <minimizedAffinity>
-5.82195997

$$$$

 OpenBabel03242517293D

 45 48  0  0  1  0  0  0  0  0999 V2000
   39.0780   27.9000   38.3910 C   0  0  0  0  0  0  0  0  0  0  0  0
   37.8300   27.4170   37.8990 C   0  0  0  0  0  0  0  0  0  0  0  0
   37.1170   26.5260   38.7100 C   0  0  0  0  0  0  0  0  0  0  0  0
   37.6390   26.1720   39.9040 N   0  0  0  0  0  0  0  0  0  0  0  0
   38.8240   26.6400   40.3540 C   0  0  0  0  0  0  0  0  0  0  0  0
   39.5070   27.4910   39.5820 N   0  0  0  0  0  0  0  0  0  0  0  0
   39.2950   26.2280   41.5940 N   0  0  0  0  0  0  0  0  0  0  0  0
   39.5110   24.8320   41.8610 C   0  0  0  0  0  0  0  0  0  0  0  0
   39.6380   24.5100   43.3140 C   0  0  0  0  0  0  0  0  0  0  0  0
   40.2220   25.5120   44.1390 N   0  0  0  0  0  0  0  0  0  0  0  0
   40.7000   26.6430   43.4220 C   0  0  0  0  0  0  0  0  0  0  0  0
   39.5710   27.2380   42.6300 C   0  0  2  0  0  0  0  0  0  0  0  0
   39.5880   28.5850   37.7270 H   0  0  0  0  0  0  0  0  0  0  0  0
   37.3700   27.6630   36.9670 H   0  0  0  0  0  0  0  0  0  0  0  0
   36.1590   26.1010   38.4290 H   0  0  0  0  0  0  0  0  0  0  0  0
   38.7350   24.1720   41.4220 H   0  0  0  0  0  0  0  0  0  0  0  0
   40.4740   24.5510   41.3840 H   0  0  0  0  0  0  0  0  0  0  0  0
   38.6140   24.2530   43.6930 H   0  0  0  0  0  0  0  0  0  0  0  0
   40.2350   23.5630   43.3990 H   0  0  0  0  0  0  0  0  0  0  0  0
   41.0330   25.1280   44.6920 H   0  0  0  0  0  0  0  0  0  0  0  0
   41.1270   27.3690   44.1660 H   0  0  0  0  0  0  0  0  0  0  0  0
   41.5340   26.4190   42.7300 H   0  0  0  0  0  0  0  0  0  0  0  0
   39.8620   28.1790   42.1090 H   0  0  0  0  0  0  0  0  0  0  0  0
   38.3630   27.5260   43.4630 C   0  0  0  0  0  0  0  0  0  0  0  0
   37.5420   26.8250   43.2410 H   0  0  0  0  0  0  0  0  0  0  0  0
   38.5780   27.5240   44.5560 H   0  0  0  0  0  0  0  0  0  0  0  0
   37.8460   28.8810   43.0320 C   0  0  0  0  0  3  0  0  0  0  0  0
   37.1130   29.0360   41.9520 C   0  0  0  0  0  3  0  0  0  0  0  0
   36.5730   30.3520   41.4780 C   0  0  0  0  0  0  0  0  0  0  0  0
   35.4680   30.2710   41.4540 H   0  0  0  0  0  0  0  0  0  0  0  0
   36.7970   31.0810   42.3070 H   0  0  0  0  0  0  0  0  0  0  0  0
   37.1400   30.7650   40.2270 N   0  0  0  0  0  0  0  0  0  0  0  0
   36.5220   30.7290   39.0310 C   0  0  0  0  0  0  0  0  0  0  0  0
   35.5040   30.3870   38.8110 H   0  0  0  0  0  0  0  0  0  0  0  0
   37.3570   31.1970   38.0590 N   0  0  0  0  0  0  0  0  0  0  0  0
   38.5080   31.5300   38.6410 C   0  0  0  0  0  0  0  0  0  0  0  0
   39.6980   32.0470   38.1750 C   0  0  0  0  0  0  0  0  0  0  0  0
   40.7290   32.2920   39.0310 N   0  0  0  0  0  0  0  0  0  0  0  0
   40.5930   32.0290   40.3430 C   0  0  0  0  0  0  0  0  0  0  0  0
   41.4240   32.2270   41.0250 H   0  0  0  0  0  0  0  0  0  0  0  0
   39.4230   31.5210   40.7940 N   0  0  0  0  0  0  0  0  0  0  0  0
   38.3660   31.2570   40.0010 C   0  0  0  0  0  0  0  0  0  0  0  0
   39.8990   32.3440   36.8030 N   0  0  0  0  0  0  0  0  0  0  0  0
   40.4120   33.1870   36.4130 H   0  0  0  0  0  0  0  0  0  0  0  0
   39.6360   31.8830   35.9070 H   0  0  0  0  0  0  0  0  0  0  0  0
  1  6  1  0  0  0  0
  2  1  2  0  0  0  0
  2  3  1  0  0  0  0
  3  4  2  0  0  0  0
  4  5  1  0  0  0  0
  5  7  1  0  0  0  0
  6  5  2  0  0  0  0
  7  8  1  0  0  0  0
  7 12  1  0  0  0  0
  8  9  1  0  0  0  0
  9 19  1  0  0  0  0
  9 18  1  0  0  0  0
  9 10  1  0  0  0  0
 10 20  1  0  0  0  0
 11 10  1  0  0  0  0
 11 21  1  0  0  0  0
 12 23  1  6  0  0  0
 12 11  1  0  0  0  0
 12 24  1  0  0  0  0
 13  1  1  0  0  0  0
 14  2  1  0  0  0  0
 15  3  1  0  0  0  0
 16  8  1  0  0  0  0
 17  8  1  0  0  0  0
 22 11  1  0  0  0  0
 24 26  1  0  0  0  0
 25 24  1  0  0  0  0
 27 24  1  0  0  0  0
 28 27  2  0  0  0  0
 29 28  1  0  0  0  0
 29 31  1  0  0  0  0
 30 29  1  0  0  0  0
 32 29  1  0  0  0  0
 33 32  1  0  0  0  0
 34 33  1  0  0  0  0
 35 36  1  0  0  0  0
 35 33  2  0  0  0  0
 36 42  1  0  0  0  0
 37 36  2  0  0  0  0
 37 38  1  0  0  0  0
 38 39  2  0  0  0  0
 39 41  1  0  0  0  0
 39 40  1  0  0  0  0
 42 32  1  0  0  0  0
 42 41  2  0  0  0  0
 43 37  1  0  0  0  0
 44 43  1  0  0  0  0
 45 43  1  0  0  0  0
M  END
>  <minimizedAffinity>
-5.77474308

$$$$

 OpenBabel03242517293D

 45 48  0  0  1  0  0  0  0  0999 V2000
   38.4850   28.1700   36.7120 C   0  0  0  0  0  0  0  0  0  0  0  0
   39.8270   27.6890   36.7260 C   0  0  0  0  0  0  0  0  0  0  0  0
   40.7520   28.3760   37.5210 C   0  0  0  0  0  0  0  0  0  0  0  0
   40.3340   29.4500   38.2250 N   0  0  0  0  0  0  0  0  0  0  0  0
   39.0580   29.8920   38.1990 C   0  0  0  0  0  0  0  0  0  0  0  0
   38.1720   29.2380   37.4420 N   0  0  0  0  0  0  0  0  0  0  0  0
   38.7040   31.0050   38.9520 N   0  0  0  0  0  0  0  0  0  0  0  0
   39.3630   32.2650   38.7390 C   0  0  0  0  0  0  0  0  0  0  0  0
   39.1670   33.2430   39.8500 C   0  0  0  0  0  0  0  0  0  0  0  0
   37.9280   33.1720   40.5480 N   0  0  0  0  0  0  0  0  0  0  0  0
   37.0090   32.2360   39.9990 C   0  0  0  0  0  0  0  0  0  0  0  0
   37.6480   30.8780   39.9710 C   0  0  2  0  0  0  0  0  0  0  0  0
   37.8110   27.6030   36.0840 H   0  0  0  0  0  0  0  0  0  0  0  0
   40.2130   26.8480   36.1920 H   0  0  0  0  0  0  0  0  0  0  0  0
   41.7960   28.0920   37.6020 H   0  0  0  0  0  0  0  0  0  0  0  0
   40.4500   32.1680   38.5440 H   0  0  0  0  0  0  0  0  0  0  0  0
   38.9160   32.7190   37.8290 H   0  0  0  0  0  0  0  0  0  0  0  0
   40.0170   33.1100   40.5700 H   0  0  0  0  0  0  0  0  0  0  0  0
   39.2950   34.2720   39.4220 H   0  0  0  0  0  0  0  0  0  0  0  0
   37.4450   34.1090   40.5660 H   0  0  0  0  0  0  0  0  0  0  0  0
   36.0790   32.2560   40.6290 H   0  0  0  0  0  0  0  0  0  0  0  0
   36.6680   32.4860   38.9760 H   0  0  0  0  0  0  0  0  0  0  0  0
   36.9470   30.0820   39.6270 H   0  0  0  0  0  0  0  0  0  0  0  0
   38.2000   30.4650   41.2980 C   0  0  0  0  0  0  0  0  0  0  0  0
   39.2980   30.5540   41.3240 H   0  0  0  0  0  0  0  0  0  0  0  0
   37.7530   31.0280   42.1490 H   0  0  0  0  0  0  0  0  0  0  0  0
   37.9240   28.9840   41.4460 C   0  0  0  0  0  3  0  0  0  0  0  0
   37.9750   28.3800   42.6120 C   0  0  0  0  0  3  0  0  0  0  0  0
   37.7110   26.9190   42.8200 C   0  0  0  0  0  0  0  0  0  0  0  0
   37.0510   26.8210   43.7050 H   0  0  0  0  0  0  0  0  0  0  0  0
   37.0750   26.6040   41.9440 H   0  0  0  0  0  0  0  0  0  0  0  0
   38.9150   26.1470   42.9200 N   0  0  0  0  0  0  0  0  0  0  0  0
   39.0170   24.8160   42.7410 C   0  0  0  0  0  0  0  0  0  0  0  0
   38.2160   24.1090   42.4940 H   0  0  0  0  0  0  0  0  0  0  0  0
   40.3100   24.4180   42.9120 N   0  0  0  0  0  0  0  0  0  0  0  0
   41.0310   25.5010   43.2000 C   0  0  0  0  0  0  0  0  0  0  0  0
   42.3660   25.7140   43.4690 C   0  0  0  0  0  0  0  0  0  0  0  0
   42.8280   26.9670   43.7360 N   0  0  0  0  0  0  0  0  0  0  0  0
   41.9790   28.0110   43.7400 C   0  0  0  0  0  0  0  0  0  0  0  0
   42.3550   29.0150   43.9550 H   0  0  0  0  0  0  0  0  0  0  0  0
   40.6700   27.7960   43.4760 N   0  0  0  0  0  0  0  0  0  0  0  0
   40.1510   26.5820   43.2040 C   0  0  0  0  0  0  0  0  0  0  0  0
   43.3070   24.6520   43.4790 N   0  0  0  0  0  0  0  0  0  0  0  0
   44.2960   24.6890   43.1000 H   0  0  0  0  0  0  0  0  0  0  0  0
   43.2960   23.6660   43.8160 H   0  0  0  0  0  0  0  0  0  0  0  0
  1  2  2  0  0  0  0
  1  6  1  0  0  0  0
  2  3  1  0  0  0  0
  3 15  1  0  0  0  0
  3  4  2  0  0  0  0
  5  4  1  0  0  0  0
  5  7  1  0  0  0  0
  6  5  2  0  0  0  0
  7 12  1  0  0  0  0
  8  7  1  0  0  0  0
  8  9  1  0  0  0  0
  9 10  1  0  0  0  0
  9 18  1  0  0  0  0
 10 20  1  0  0  0  0
 11 10  1  0  0  0  0
 11 21  1  0  0  0  0
 12 23  1  6  0  0  0
 12 11  1  0  0  0  0
 12 24  1  0  0  0  0
 13  1  1  0  0  0  0
 14  2  1  0  0  0  0
 16  8  1  0  0  0  0
 17  8  1  0  0  0  0
 19  9  1  0  0  0  0
 22 11  1  0  0  0  0
 24 25  1  0  0  0  0
 24 27  1  0  0  0  0
 24 26  1  0  0  0  0
 27 28  2  0  0  0  0
 28 29  1  0  0  0  0
 29 32  1  0  0  0  0
 29 30  1  0  0  0  0
 31 29  1  0  0  0  0
 32 42  1  0  0  0  0
 33 35  2  0  0  0  0
 33 32  1  0  0  0  0
 34 33  1  0  0  0  0
 35 36  1  0  0  0  0
 36 42  2  0  0  0  0
 36 37  1  0  0  0  0
 37 43  1  0  0  0  0
 37 38  2  0  0  0  0
 38 39  1  0  0  0  0
 39 40  1  0  0  0  0
 41 39  2  0  0  0  0
 42 41  1  0  0  0  0
 43 45  1  0  0  0  0
 44 43  1  0  0  0  0
M  END
>  <minimizedAffinity>
-5.76575613

$$$$

 OpenBabel03242517293D

 45 48  0  0  1  0  0  0  0  0999 V2000
   36.7460   27.6480   43.5290 C   0  0  0  0  0  0  0  0  0  0  0  0
   38.0510   27.8240   44.0760 C   0  0  0  0  0  0  0  0  0  0  0  0
   39.0870   27.0500   43.5380 C   0  0  0  0  0  0  0  0  0  0  0  0
   38.8030   26.1850   42.5410 N   0  0  0  0  0  0  0  0  0  0  0  0
   37.5600   26.0310   42.0360 C   0  0  0  0  0  0  0  0  0  0  0  0
   36.5690   26.7690   42.5460 N   0  0  0  0  0  0  0  0  0  0  0  0
   37.3470   25.1200   41.0090 N   0  0  0  0  0  0  0  0  0  0  0  0
   37.6670   23.7300   41.1950 C   0  0  0  0  0  0  0  0  0  0  0  0
   37.7550   22.9570   39.9200 C   0  0  0  0  0  0  0  0  0  0  0  0
   36.9020   23.3780   38.8610 N   0  0  0  0  0  0  0  0  0  0  0  0
   36.0040   24.4200   39.2220 C   0  0  0  0  0  0  0  0  0  0  0  0
   36.7910   25.5930   39.7300 C   0  0  2  0  0  0  0  0  0  0  0  0
   35.9840   28.2690   43.9790 H   0  0  0  0  0  0  0  0  0  0  0  0
   38.3330   28.4910   44.8610 H   0  0  0  0  0  0  0  0  0  0  0  0
   40.1140   27.1080   43.8830 H   0  0  0  0  0  0  0  0  0  0  0  0
   38.5990   23.5640   41.7710 H   0  0  0  0  0  0  0  0  0  0  0  0
   36.8420   23.2800   41.7870 H   0  0  0  0  0  0  0  0  0  0  0  0
   38.8250   22.9860   39.5810 H   0  0  0  0  0  0  0  0  0  0  0  0
   37.5470   21.8820   40.1610 H   0  0  0  0  0  0  0  0  0  0  0  0
   36.3200   22.5780   38.4970 H   0  0  0  0  0  0  0  0  0  0  0  0
   35.3920   24.6780   38.3160 H   0  0  0  0  0  0  0  0  0  0  0  0
   35.2660   24.1310   39.9950 H   0  0  0  0  0  0  0  0  0  0  0  0
   36.1480   26.4760   39.9530 H   0  0  0  0  0  0  0  0  0  0  0  0
   37.8630   26.0310   38.7840 C   0  0  0  0  0  0  0  0  0  0  0  0
   38.8000   26.2640   39.3150 H   0  0  0  0  0  0  0  0  0  0  0  0
   38.0590   25.2890   37.9760 H   0  0  0  0  0  0  0  0  0  0  0  0
   37.4130   27.3480   38.1890 C   0  0  0  0  0  3  0  0  0  0  0  0
   38.1470   28.4350   38.2710 C   0  0  0  0  0  3  0  0  0  0  0  0
   37.7530   29.7650   37.7010 C   0  0  0  0  0  0  0  0  0  0  0  0
   38.4230   29.9720   36.8430 H   0  0  0  0  0  0  0  0  0  0  0  0
   36.7350   29.6040   37.2460 H   0  0  0  0  0  0  0  0  0  0  0  0
   37.7490   30.8100   38.6830 N   0  0  0  0  0  0  0  0  0  0  0  0
   36.7790   31.0370   39.5890 C   0  0  0  0  0  0  0  0  0  0  0  0
   35.8470   30.4780   39.7290 H   0  0  0  0  0  0  0  0  0  0  0  0
   37.1050   32.1110   40.3640 N   0  0  0  0  0  0  0  0  0  0  0  0
   38.2870   32.5660   39.9480 C   0  0  0  0  0  0  0  0  0  0  0  0
   39.1010   33.6060   40.3430 C   0  0  0  0  0  0  0  0  0  0  0  0
   40.2870   33.8340   39.7130 N   0  0  0  0  0  0  0  0  0  0  0  0
   40.6730   33.0430   38.6950 C   0  0  0  0  0  0  0  0  0  0  0  0
   41.6250   33.2320   38.1930 H   0  0  0  0  0  0  0  0  0  0  0  0
   39.8690   32.0250   38.3120 N   0  0  0  0  0  0  0  0  0  0  0  0
   38.6860   31.7460   38.8940 C   0  0  0  0  0  0  0  0  0  0  0  0
   38.7470   34.4720   41.4080 N   0  0  0  0  0  0  0  0  0  0  0  0
   39.4030   34.8580   42.1460 H   0  0  0  0  0  0  0  0  0  0  0  0
   37.8600   34.9160   41.7270 H   0  0  0  0  0  0  0  0  0  0  0  0
  1 13  1  0  0  0  0
  1  2  1  0  0  0  0
  2 14  1  0  0  0  0
  3 15  1  0  0  0  0
  3  2  2  0  0  0  0
  4  3  1  0  0  0  0
  5  4  2  0  0  0  0
  5  6  1  0  0  0  0
  6  1  2  0  0  0  0
  7  8  1  0  0  0  0
  7  5  1  0  0  0  0
  8 16  1  0  0  0  0
  8 17  1  0  0  0  0
  9 19  1  0  0  0  0
  9  8  1  0  0  0  0
 10 11  1  0  0  0  0
 10  9  1  0  0  0  0
 11 12  1  0  0  0  0
 11 22  1  0  0  0  0
 12 23  1  1  0  0  0
 12  7  1  0  0  0  0
 18  9  1  0  0  0  0
 20 10  1  0  0  0  0
 21 11  1  0  0  0  0
 24 25  1  0  0  0  0
 24 12  1  0  0  0  0
 26 24  1  0  0  0  0
 27 28  2  0  0  0  0
 27 24  1  0  0  0  0
 29 28  1  0  0  0  0
 29 32  1  0  0  0  0
 30 29  1  0  0  0  0
 31 29  1  0  0  0  0
 32 42  1  0  0  0  0
 32 33  1  0  0  0  0
 33 34  1  0  0  0  0
 33 35  2  0  0  0  0
 36 37  1  0  0  0  0
 36 35  1  0  0  0  0
 37 43  1  0  0  0  0
 38 37  2  0  0  0  0
 39 38  1  0  0  0  0
 40 39  1  0  0  0  0
 41 39  2  0  0  0  0
 41 42  1  0  0  0  0
 42 36  2  0  0  0  0
 43 45  1  0  0  0  0
 43 44  1  0  0  0  0
M  END
>  <minimizedAffinity>
-5.75263786

$$$$
