
 OpenBabel03242513153D

 42 46  0  0  0  0  0  0  0  0999 V2000
   44.8550   34.9440   44.8490 C   0  0  0  0  0  0  0  0  0  0  0  0
   45.4550   35.2470   43.6170 C   0  0  0  0  0  0  0  0  0  0  0  0
   46.5920   34.5170   43.3390 C   0  0  0  0  0  0  0  0  0  0  0  0
   47.0420   33.5890   44.2360 N   0  0  0  0  0  0  0  0  0  0  0  0
   46.4340   33.3420   45.3900 C   0  0  0  0  0  0  0  0  0  0  0  0
   45.3220   34.0350   45.6950 N   0  0  0  0  0  0  0  0  0  0  0  0
   43.9590   35.4960   45.1060 H   0  0  0  0  0  0  0  0  0  0  0  0
   45.0850   35.9800   42.9240 H   0  0  0  0  0  0  0  0  0  0  0  0
   47.3110   34.7130   42.1240 N   0  0  0  0  0  0  0  0  0  0  0  0
   48.3760   35.5240   41.9960 C   0  0  0  0  0  0  0  0  0  0  0  0
   48.8120   36.1220   42.7850 H   0  0  0  0  0  0  0  0  0  0  0  0
   48.7910   35.4510   40.7020 N   0  0  0  0  0  0  0  0  0  0  0  0
   47.9840   34.5990   40.0470 C   0  0  0  0  0  0  0  0  0  0  0  0
   47.8940   34.1220   38.7540 C   0  0  0  0  0  0  0  0  0  0  0  0
   46.9440   33.2350   38.3520 N   0  0  0  0  0  0  0  0  0  0  0  0
   46.0320   32.7910   39.2640 C   0  0  0  0  0  0  0  0  0  0  0  0
   45.2250   32.0970   39.1150 H   0  0  0  0  0  0  0  0  0  0  0  0
   46.1090   33.2460   40.5190 N   0  0  0  0  0  0  0  0  0  0  0  0
   47.0410   34.1270   40.9480 C   0  0  0  0  0  0  0  0  0  0  0  0
   48.8200   34.5600   37.7880 N   0  0  0  0  0  0  0  0  0  0  0  0
   49.7550   34.2180   37.4210 H   0  0  0  0  0  0  0  0  0  0  0  0
   48.4350   35.4330   37.3700 H   0  0  0  0  0  0  0  0  0  0  0  0
   46.9050   32.3590   46.3520 C   0  0  0  0  0  0  0  0  0  0  0  0
   47.2940   32.6770   47.4960 O   0  0  0  0  0  0  0  0  0  0  0  0
   44.8840   30.7170   47.7810 Cl  0  0  0  0  0  0  0  0  0  0  0  0
   46.0330   30.0970   46.5890 C   0  0  0  0  0  0  0  0  0  0  0  0
   46.9320   30.9420   45.9940 C   0  0  0  0  0  0  0  0  0  0  0  0
   47.8050   30.4160   45.0880 C   0  0  0  0  0  0  0  0  0  0  0  0
   47.7800   29.0750   44.7830 C   0  0  0  0  0  0  0  0  0  0  0  0
   46.8690   28.2230   45.3880 C   0  0  0  0  0  0  0  0  0  0  0  0
   45.9860   28.7570   46.3050 C   0  0  0  0  0  0  0  0  0  0  0  0
   48.5060   31.1150   44.6330 H   0  0  0  0  0  0  0  0  0  0  0  0
   48.5150   28.7660   44.0530 H   0  0  0  0  0  0  0  0  0  0  0  0
   46.9000   27.1930   45.1080 H   0  0  0  0  0  0  0  0  0  0  0  0
   45.0720   27.7760   46.8720 C   0  0  0  0  0  0  0  0  0  0  0  0
   43.9120   27.2320   46.3440 C   0  0  0  0  0  0  0  0  0  0  0  0
   43.3260   26.3290   47.2000 C   0  0  0  0  0  0  0  0  0  0  0  0
   44.1970   26.3580   48.2770 C   0  0  0  0  0  0  0  0  0  0  0  0
   45.1610   27.1920   48.0330 O   0  0  0  0  0  0  0  0  0  0  0  0
   43.5270   27.5090   45.3480 H   0  0  0  0  0  0  0  0  0  0  0  0
   42.4460   25.7460   47.1010 H   0  0  0  0  0  0  0  0  0  0  0  0
   44.1040   25.7720   49.2040 H   0  0  0  0  0  0  0  0  0  0  0  0
  1  7  1  0  0  0  0
  1  6  1  0  0  0  0
  2  1  2  0  0  0  0
  3  2  1  0  0  0  0
  3  4  2  0  0  0  0
  4  5  1  0  0  0  0
  5  6  2  0  0  0  0
  5 23  1  0  0  0  0
  8  2  1  0  0  0  0
  9  3  1  0  0  0  0
 10  9  1  0  0  0  0
 10 11  1  0  0  0  0
 12 10  2  0  0  0  0
 13 12  1  0  0  0  0
 13 19  1  0  0  0  0
 14 13  2  0  0  0  0
 15 14  1  0  0  0  0
 15 16  2  0  0  0  0
 16 18  1  0  0  0  0
 17 16  1  0  0  0  0
 18 19  2  0  0  0  0
 19  9  1  0  0  0  0
 20 14  1  0  0  0  0
 21 20  1  0  0  0  0
 22 20  1  0  0  0  0
 23 24  2  0  0  0  0
 26 25  1  0  0  0  0
 27 23  1  0  0  0  0
 27 26  2  0  0  0  0
 28 27  1  0  0  0  0
 29 28  2  0  0  0  0
 29 30  1  0  0  0  0
 30 31  2  0  0  0  0
 31 26  1  0  0  0  0
 31 35  1  0  0  0  0
 32 28  1  0  0  0  0
 33 29  1  0  0  0  0
 34 30  1  0  0  0  0
 35 39  1  0  0  0  0
 36 35  2  0  0  0  0
 36 37  1  0  0  0  0
 37 38  2  0  0  0  0
 38 42  1  0  0  0  0
 39 38  1  0  0  0  0
 40 36  1  0  0  0  0
 41 37  1  0  0  0  0
M  END
>  <minimizedAffinity>
-6.84394741

>  <minimizedRMSD>
0.735009313

$$$$
