
 OpenBabel03242513193D

 42 46  0  0  0  0  0  0  0  0999 V2000
   36.2640   31.1610   40.5620 C   0  0  0  0  0  0  0  0  0  0  0  0
   37.1680   31.6960   39.6310 C   0  0  0  0  0  0  0  0  0  0  0  0
   38.4700   31.2690   39.7870 C   0  0  0  0  0  0  0  0  0  0  0  0
   38.7850   30.3940   40.7890 N   0  0  0  0  0  0  0  0  0  0  0  0
   37.8870   29.9180   41.6440 C   0  0  0  0  0  0  0  0  0  0  0  0
   36.6070   30.3120   41.5220 N   0  0  0  0  0  0  0  0  0  0  0  0
   35.2290   31.4710   40.4740 H   0  0  0  0  0  0  0  0  0  0  0  0
   36.9000   32.3840   38.8490 H   0  0  0  0  0  0  0  0  0  0  0  0
   39.5010   31.7260   38.9160 N   0  0  0  0  0  0  0  0  0  0  0  0
   39.9740   31.0290   37.8680 C   0  0  0  0  0  0  0  0  0  0  0  0
   39.6360   30.0480   37.5590 H   0  0  0  0  0  0  0  0  0  0  0  0
   40.9430   31.7810   37.2810 N   0  0  0  0  0  0  0  0  0  0  0  0
   41.0600   32.9310   37.9670 C   0  0  0  0  0  0  0  0  0  0  0  0
   41.8430   34.0630   37.8680 C   0  0  0  0  0  0  0  0  0  0  0  0
   41.7470   35.1120   38.7290 N   0  0  0  0  0  0  0  0  0  0  0  0
   40.8360   35.0500   39.7420 C   0  0  0  0  0  0  0  0  0  0  0  0
   40.6330   35.7820   40.5020 H   0  0  0  0  0  0  0  0  0  0  0  0
   40.0730   33.9580   39.8480 N   0  0  0  0  0  0  0  0  0  0  0  0
   40.1450   32.9000   39.0090 C   0  0  0  0  0  0  0  0  0  0  0  0
   42.7940   34.1610   36.8340 N   0  0  0  0  0  0  0  0  0  0  0  0
   42.8070   34.5540   35.8480 H   0  0  0  0  0  0  0  0  0  0  0  0
   43.6720   33.7240   37.1840 H   0  0  0  0  0  0  0  0  0  0  0  0
   38.2110   28.9880   42.7130 C   0  0  0  0  0  0  0  0  0  0  0  0
   37.7330   29.0990   43.8620 O   0  0  0  0  0  0  0  0  0  0  0  0
   36.9480   26.6820   41.3320 Cl  0  0  0  0  0  0  0  0  0  0  0  0
   38.6460   26.7640   41.8200 C   0  0  0  0  0  0  0  0  0  0  0  0
   39.1250   27.8750   42.4620 C   0  0  0  0  0  0  0  0  0  0  0  0
   40.4390   27.8890   42.8270 C   0  0  0  0  0  0  0  0  0  0  0  0
   41.2560   26.8160   42.5580 C   0  0  0  0  0  0  0  0  0  0  0  0
   40.7670   25.6920   41.9080 C   0  0  0  0  0  0  0  0  0  0  0  0
   39.4370   25.6810   41.5390 C   0  0  0  0  0  0  0  0  0  0  0  0
   40.7880   28.7870   43.3360 H   0  0  0  0  0  0  0  0  0  0  0  0
   42.2770   26.9330   42.8910 H   0  0  0  0  0  0  0  0  0  0  0  0
   41.4520   24.8930   41.7280 H   0  0  0  0  0  0  0  0  0  0  0  0
   39.0320   24.4580   40.8590 C   0  0  0  0  0  0  0  0  0  0  0  0
   39.3460   24.0020   39.5890 C   0  0  0  0  0  0  0  0  0  0  0  0
   38.7600   22.7880   39.3150 C   0  0  0  0  0  0  0  0  0  0  0  0
   38.0740   22.5360   40.4920 C   0  0  0  0  0  0  0  0  0  0  0  0
   38.2660   23.5120   41.3240 O   0  0  0  0  0  0  0  0  0  0  0  0
   39.9920   24.5680   38.8980 H   0  0  0  0  0  0  0  0  0  0  0  0
   38.7980   22.1770   38.4500 H   0  0  0  0  0  0  0  0  0  0  0  0
   37.4580   21.6500   40.7070 H   0  0  0  0  0  0  0  0  0  0  0  0
  1  6  1  0  0  0  0
  2  3  1  0  0  0  0
  2  1  2  0  0  0  0
  3  4  2  0  0  0  0
  4  5  1  0  0  0  0
  5 23  1  0  0  0  0
  6  5  2  0  0  0  0
  7  1  1  0  0  0  0
  8  2  1  0  0  0  0
  9 19  1  0  0  0  0
  9  3  1  0  0  0  0
 10  9  1  0  0  0  0
 11 10  1  0  0  0  0
 12 10  2  0  0  0  0
 12 13  1  0  0  0  0
 13 19  1  0  0  0  0
 14 13  2  0  0  0  0
 14 15  1  0  0  0  0
 15 16  2  0  0  0  0
 16 18  1  0  0  0  0
 16 17  1  0  0  0  0
 19 18  2  0  0  0  0
 20 22  1  0  0  0  0
 20 14  1  0  0  0  0
 21 20  1  0  0  0  0
 23 24  2  0  0  0  0
 25 26  1  0  0  0  0
 26 27  1  0  0  0  0
 27 23  1  0  0  0  0
 27 28  2  0  0  0  0
 28 32  1  0  0  0  0
 29 28  1  0  0  0  0
 29 33  1  0  0  0  0
 30 29  2  0  0  0  0
 31 26  2  0  0  0  0
 31 30  1  0  0  0  0
 34 30  1  0  0  0  0
 35 39  1  0  0  0  0
 35 31  1  0  0  0  0
 36 35  2  0  0  0  0
 37 36  1  0  0  0  0
 37 38  2  0  0  0  0
 38 42  1  0  0  0  0
 38 39  1  0  0  0  0
 40 36  1  0  0  0  0
 41 37  1  0  0  0  0
M  END
>  <minimizedAffinity>
-7.2740593

$$$$

 OpenBabel03242513193D

 42 46  0  0  0  0  0  0  0  0999 V2000
   35.6470   29.6270   40.2030 C   0  0  0  0  0  0  0  0  0  0  0  0
   36.3350   30.8090   39.8900 C   0  0  0  0  0  0  0  0  0  0  0  0
   37.4210   31.0720   40.6980 C   0  0  0  0  0  0  0  0  0  0  0  0
   37.7450   30.2080   41.7070 N   0  0  0  0  0  0  0  0  0  0  0  0
   37.0570   29.1010   41.9610 C   0  0  0  0  0  0  0  0  0  0  0  0
   35.9930   28.8110   41.1920 N   0  0  0  0  0  0  0  0  0  0  0  0
   34.7880   29.3830   39.5910 H   0  0  0  0  0  0  0  0  0  0  0  0
   36.0650   31.4760   39.0910 H   0  0  0  0  0  0  0  0  0  0  0  0
   38.2180   32.2370   40.5010 N   0  0  0  0  0  0  0  0  0  0  0  0
   37.7440   33.4150   40.0550 C   0  0  0  0  0  0  0  0  0  0  0  0
   36.7150   33.6210   39.7930 H   0  0  0  0  0  0  0  0  0  0  0  0
   38.7920   34.2800   39.9960 N   0  0  0  0  0  0  0  0  0  0  0  0
   39.8970   33.6340   40.4050 C   0  0  0  0  0  0  0  0  0  0  0  0
   41.2290   33.9610   40.5640 C   0  0  0  0  0  0  0  0  0  0  0  0
   42.1650   33.0800   41.0110 N   0  0  0  0  0  0  0  0  0  0  0  0
   41.7760   31.8090   41.3180 C   0  0  0  0  0  0  0  0  0  0  0  0
   42.3790   30.9970   41.6800 H   0  0  0  0  0  0  0  0  0  0  0  0
   40.4890   31.4810   41.1680 N   0  0  0  0  0  0  0  0  0  0  0  0
   39.5370   32.3340   40.7270 C   0  0  0  0  0  0  0  0  0  0  0  0
   41.6650   35.2640   40.2560 N   0  0  0  0  0  0  0  0  0  0  0  0
   41.7930   36.1700   40.7940 H   0  0  0  0  0  0  0  0  0  0  0  0
   41.9020   35.2750   39.2410 H   0  0  0  0  0  0  0  0  0  0  0  0
   37.3920   28.1750   43.0310 C   0  0  0  0  0  0  0  0  0  0  0  0
   37.0870   28.3950   44.2230 O   0  0  0  0  0  0  0  0  0  0  0  0
   40.3460   28.4230   43.2030 Cl  0  0  0  0  0  0  0  0  0  0  0  0
   39.4770   26.9390   42.7900 C   0  0  0  0  0  0  0  0  0  0  0  0
   38.1080   26.9380   42.7290 C   0  0  0  0  0  0  0  0  0  0  0  0
   37.4820   25.7730   42.3970 C   0  0  0  0  0  0  0  0  0  0  0  0
   38.2070   24.6340   42.1300 C   0  0  0  0  0  0  0  0  0  0  0  0
   39.5930   24.6410   42.1920 C   0  0  0  0  0  0  0  0  0  0  0  0
   40.2240   25.8200   42.5290 C   0  0  0  0  0  0  0  0  0  0  0  0
   36.3930   25.8050   42.3580 H   0  0  0  0  0  0  0  0  0  0  0  0
   37.6100   23.7700   41.8780 H   0  0  0  0  0  0  0  0  0  0  0  0
   40.0970   23.7250   41.9750 H   0  0  0  0  0  0  0  0  0  0  0  0
   41.6760   25.7120   42.5700 C   0  0  0  0  0  0  0  0  0  0  0  0
   42.5990   25.7480   41.5370 C   0  0  0  0  0  0  0  0  0  0  0  0
   43.8900   25.6100   41.9920 C   0  0  0  0  0  0  0  0  0  0  0  0
   43.6950   25.4880   43.3570 C   0  0  0  0  0  0  0  0  0  0  0  0
   42.4270   25.5540   43.6230 O   0  0  0  0  0  0  0  0  0  0  0  0
   42.3050   25.8740   40.4820 H   0  0  0  0  0  0  0  0  0  0  0  0
   44.8130   25.5960   41.4700 H   0  0  0  0  0  0  0  0  0  0  0  0
   44.4810   25.3570   44.1160 H   0  0  0  0  0  0  0  0  0  0  0  0
  1  6  1  0  0  0  0
  2  1  2  0  0  0  0
  2  3  1  0  0  0  0
  3  4  2  0  0  0  0
  4  5  1  0  0  0  0
  5 23  1  0  0  0  0
  6  5  2  0  0  0  0
  7  1  1  0  0  0  0
  8  2  1  0  0  0  0
  9  3  1  0  0  0  0
  9 19  1  0  0  0  0
 10  9  1  0  0  0  0
 11 10  1  0  0  0  0
 12 10  2  0  0  0  0
 12 13  1  0  0  0  0
 13 14  2  0  0  0  0
 13 19  1  0  0  0  0
 14 15  1  0  0  0  0
 15 16  2  0  0  0  0
 16 17  1  0  0  0  0
 18 16  1  0  0  0  0
 19 18  2  0  0  0  0
 20 14  1  0  0  0  0
 20 21  1  0  0  0  0
 22 20  1  0  0  0  0
 23 24  2  0  0  0  0
 26 25  1  0  0  0  0
 27 26  1  0  0  0  0
 27 23  1  0  0  0  0
 28 27  2  0  0  0  0
 29 30  2  0  0  0  0
 29 28  1  0  0  0  0
 30 31  1  0  0  0  0
 31 35  1  0  0  0  0
 31 26  2  0  0  0  0
 32 28  1  0  0  0  0
 33 29  1  0  0  0  0
 34 30  1  0  0  0  0
 35 39  1  0  0  0  0
 36 37  1  0  0  0  0
 36 35  2  0  0  0  0
 37 38  2  0  0  0  0
 38 39  1  0  0  0  0
 38 42  1  0  0  0  0
 40 36  1  0  0  0  0
 41 37  1  0  0  0  0
M  END
>  <minimizedAffinity>
-7.03400183

$$$$

 OpenBabel03242513193D

 42 46  0  0  0  0  0  0  0  0999 V2000
   37.1180   30.6370   36.9380 C   0  0  0  0  0  0  0  0  0  0  0  0
   37.9120   31.6720   37.4570 C   0  0  0  0  0  0  0  0  0  0  0  0
   37.8670   31.7960   38.8290 C   0  0  0  0  0  0  0  0  0  0  0  0
   37.0900   30.9440   39.5650 N   0  0  0  0  0  0  0  0  0  0  0  0
   36.3570   29.9800   39.0220 C   0  0  0  0  0  0  0  0  0  0  0  0
   36.3760   29.8290   37.6860 N   0  0  0  0  0  0  0  0  0  0  0  0
   37.1250   30.5050   35.8630 H   0  0  0  0  0  0  0  0  0  0  0  0
   38.5170   32.3310   36.8610 H   0  0  0  0  0  0  0  0  0  0  0  0
   38.6210   32.8010   39.5010 N   0  0  0  0  0  0  0  0  0  0  0  0
   38.0980   33.9380   39.9970 C   0  0  0  0  0  0  0  0  0  0  0  0
   37.0560   34.2260   39.9480 H   0  0  0  0  0  0  0  0  0  0  0  0
   39.1150   34.6420   40.5610 N   0  0  0  0  0  0  0  0  0  0  0  0
   40.2510   33.9400   40.4110 C   0  0  0  0  0  0  0  0  0  0  0  0
   41.5750   34.1190   40.7590 C   0  0  0  0  0  0  0  0  0  0  0  0
   42.5490   33.2130   40.4720 N   0  0  0  0  0  0  0  0  0  0  0  0
   42.2100   32.0710   39.8080 C   0  0  0  0  0  0  0  0  0  0  0  0
   42.8480   31.2610   39.5060 H   0  0  0  0  0  0  0  0  0  0  0  0
   40.9310   31.8870   39.4660 N   0  0  0  0  0  0  0  0  0  0  0  0
   39.9410   32.7680   39.7370 C   0  0  0  0  0  0  0  0  0  0  0  0
   41.9600   35.2860   41.4450 N   0  0  0  0  0  0  0  0  0  0  0  0
   42.0720   35.5680   42.4630 H   0  0  0  0  0  0  0  0  0  0  0  0
   42.1710   36.0080   40.7250 H   0  0  0  0  0  0  0  0  0  0  0  0
   35.5260   29.0700   39.7950 C   0  0  0  0  0  0  0  0  0  0  0  0
   34.2790   29.0820   39.7240 O   0  0  0  0  0  0  0  0  0  0  0  0
   36.1970   26.4880   38.4910 Cl  0  0  0  0  0  0  0  0  0  0  0  0
   36.5070   26.8760   40.1880 C   0  0  0  0  0  0  0  0  0  0  0  0
   36.1480   28.0980   40.6920 C   0  0  0  0  0  0  0  0  0  0  0  0
   36.3980   28.3470   42.0080 C   0  0  0  0  0  0  0  0  0  0  0  0
   36.9930   27.3970   42.8050 C   0  0  0  0  0  0  0  0  0  0  0  0
   37.3550   26.1610   42.2910 C   0  0  0  0  0  0  0  0  0  0  0  0
   37.1010   25.9100   40.9580 C   0  0  0  0  0  0  0  0  0  0  0  0
   36.1010   29.3290   42.3780 H   0  0  0  0  0  0  0  0  0  0  0  0
   37.1440   27.7000   43.8310 H   0  0  0  0  0  0  0  0  0  0  0  0
   37.8130   25.4670   42.9610 H   0  0  0  0  0  0  0  0  0  0  0  0
   37.5250   24.5860   40.5230 C   0  0  0  0  0  0  0  0  0  0  0  0
   36.8000   23.4100   40.4200 C   0  0  0  0  0  0  0  0  0  0  0  0
   37.5710   22.3650   39.9660 C   0  0  0  0  0  0  0  0  0  0  0  0
   38.8030   22.9760   39.8010 C   0  0  0  0  0  0  0  0  0  0  0  0
   38.7150   24.2280   40.1310 O   0  0  0  0  0  0  0  0  0  0  0  0
   35.7300   23.3480   40.6790 H   0  0  0  0  0  0  0  0  0  0  0  0
   37.3260   21.3510   39.7790 H   0  0  0  0  0  0  0  0  0  0  0  0
   39.7250   22.4920   39.4450 H   0  0  0  0  0  0  0  0  0  0  0  0
  1  2  2  0  0  0  0
  1  6  1  0  0  0  0
  2  3  1  0  0  0  0
  3  9  1  0  0  0  0
  3  4  2  0  0  0  0
  5  4  1  0  0  0  0
  5 23  1  0  0  0  0
  6  5  2  0  0  0  0
  7  1  1  0  0  0  0
  8  2  1  0  0  0  0
  9 19  1  0  0  0  0
  9 10  1  0  0  0  0
 10 12  2  0  0  0  0
 11 10  1  0  0  0  0
 13 12  1  0  0  0  0
 13 14  1  0  0  0  0
 14 20  1  0  0  0  0
 15 14  2  0  0  0  0
 16 15  1  0  0  0  0
 17 16  1  0  0  0  0
 18 19  1  0  0  0  0
 18 16  2  0  0  0  0
 19 13  2  0  0  0  0
 20 21  1  0  0  0  0
 22 20  1  0  0  0  0
 23 27  1  0  0  0  0
 24 23  2  0  0  0  0
 25 26  1  0  0  0  0
 26 27  2  0  0  0  0
 26 31  1  0  0  0  0
 27 28  1  0  0  0  0
 28 32  1  0  0  0  0
 28 29  2  0  0  0  0
 29 33  1  0  0  0  0
 30 29  1  0  0  0  0
 30 34  1  0  0  0  0
 31 30  2  0  0  0  0
 35 31  1  0  0  0  0
 36 35  2  0  0  0  0
 36 40  1  0  0  0  0
 37 36  1  0  0  0  0
 38 37  2  0  0  0  0
 38 39  1  0  0  0  0
 39 35  1  0  0  0  0
 41 37  1  0  0  0  0
 42 38  1  0  0  0  0
M  END
>  <minimizedAffinity>
-7.0282011

$$$$

 OpenBabel03242513193D

 42 46  0  0  0  0  0  0  0  0999 V2000
   36.6570   29.6990   37.0610 C   0  0  0  0  0  0  0  0  0  0  0  0
   37.1990   30.9250   37.4760 C   0  0  0  0  0  0  0  0  0  0  0  0
   37.6230   30.9490   38.7880 C   0  0  0  0  0  0  0  0  0  0  0  0
   37.4950   29.8320   39.5660 N   0  0  0  0  0  0  0  0  0  0  0  0
   36.9730   28.6950   39.1220 C   0  0  0  0  0  0  0  0  0  0  0  0
   36.5490   28.6340   37.8470 N   0  0  0  0  0  0  0  0  0  0  0  0
   36.3120   29.6370   36.0360 H   0  0  0  0  0  0  0  0  0  0  0  0
   37.2920   31.7920   36.8480 H   0  0  0  0  0  0  0  0  0  0  0  0
   38.1960   32.1250   39.3530 N   0  0  0  0  0  0  0  0  0  0  0  0
   37.4940   33.2160   39.7090 C   0  0  0  0  0  0  0  0  0  0  0  0
   36.4240   33.3360   39.6110 H   0  0  0  0  0  0  0  0  0  0  0  0
   38.3770   34.1250   40.2050 N   0  0  0  0  0  0  0  0  0  0  0  0
   39.6080   33.5900   40.1530 C   0  0  0  0  0  0  0  0  0  0  0  0
   40.8790   34.0050   40.4980 C   0  0  0  0  0  0  0  0  0  0  0  0
   41.9860   33.2320   40.3300 N   0  0  0  0  0  0  0  0  0  0  0  0
   41.8420   31.9860   39.7950 C   0  0  0  0  0  0  0  0  0  0  0  0
   42.6040   31.2540   39.5960 H   0  0  0  0  0  0  0  0  0  0  0  0
   40.6170   31.5740   39.4560 N   0  0  0  0  0  0  0  0  0  0  0  0
   39.4990   32.3180   39.6110 C   0  0  0  0  0  0  0  0  0  0  0  0
   41.0640   35.2860   41.0540 N   0  0  0  0  0  0  0  0  0  0  0  0
   41.1000   35.6910   42.0340 H   0  0  0  0  0  0  0  0  0  0  0  0
   41.1880   35.9480   40.2590 H   0  0  0  0  0  0  0  0  0  0  0  0
   36.8310   27.5020   39.9410 C   0  0  0  0  0  0  0  0  0  0  0  0
   36.3770   26.4310   39.4860 O   0  0  0  0  0  0  0  0  0  0  0  0
   39.7310   27.0470   40.3860 Cl  0  0  0  0  0  0  0  0  0  0  0  0
   38.5450   27.3420   41.6630 C   0  0  0  0  0  0  0  0  0  0  0  0
   37.2250   27.5310   41.3470 C   0  0  0  0  0  0  0  0  0  0  0  0
   36.3460   27.7450   42.3670 C   0  0  0  0  0  0  0  0  0  0  0  0
   36.7750   27.7700   43.6740 C   0  0  0  0  0  0  0  0  0  0  0  0
   38.1120   27.5770   43.9890 C   0  0  0  0  0  0  0  0  0  0  0  0
   39.0000   27.3610   42.9560 C   0  0  0  0  0  0  0  0  0  0  0  0
   35.3040   27.8920   42.0820 H   0  0  0  0  0  0  0  0  0  0  0  0
   35.9950   27.9470   44.4000 H   0  0  0  0  0  0  0  0  0  0  0  0
   38.3810   27.6090   45.0220 H   0  0  0  0  0  0  0  0  0  0  0  0
   40.3760   27.1780   43.3990 C   0  0  0  0  0  0  0  0  0  0  0  0
   41.0220   26.0350   43.8420 C   0  0  0  0  0  0  0  0  0  0  0  0
   42.3340   26.2770   44.1730 C   0  0  0  0  0  0  0  0  0  0  0  0
   42.4460   27.6310   43.9060 C   0  0  0  0  0  0  0  0  0  0  0  0
   41.3090   28.0830   43.4720 O   0  0  0  0  0  0  0  0  0  0  0  0
   40.5170   25.0570   43.9110 H   0  0  0  0  0  0  0  0  0  0  0  0
   43.0900   25.6300   44.5380 H   0  0  0  0  0  0  0  0  0  0  0  0
   43.3490   28.2470   44.0340 H   0  0  0  0  0  0  0  0  0  0  0  0
  1  2  2  0  0  0  0
  1  6  1  0  0  0  0
  2  3  1  0  0  0  0
  3  9  1  0  0  0  0
  3  4  2  0  0  0  0
  5  4  1  0  0  0  0
  5 23  1  0  0  0  0
  6  5  2  0  0  0  0
  7  1  1  0  0  0  0
  8  2  1  0  0  0  0
  9 19  1  0  0  0  0
  9 10  1  0  0  0  0
 10 12  2  0  0  0  0
 11 10  1  0  0  0  0
 13 12  1  0  0  0  0
 13 14  1  0  0  0  0
 14 20  1  0  0  0  0
 15 14  2  0  0  0  0
 16 15  1  0  0  0  0
 17 16  1  0  0  0  0
 18 19  1  0  0  0  0
 18 16  2  0  0  0  0
 19 13  2  0  0  0  0
 20 21  1  0  0  0  0
 22 20  1  0  0  0  0
 23 27  1  0  0  0  0
 24 23  2  0  0  0  0
 25 26  1  0  0  0  0
 26 31  1  0  0  0  0
 27 26  2  0  0  0  0
 27 28  1  0  0  0  0
 28 29  2  0  0  0  0
 29 30  1  0  0  0  0
 29 33  1  0  0  0  0
 30 34  1  0  0  0  0
 31 35  1  0  0  0  0
 31 30  2  0  0  0  0
 32 28  1  0  0  0  0
 35 39  1  0  0  0  0
 35 36  2  0  0  0  0
 36 40  1  0  0  0  0
 36 37  1  0  0  0  0
 37 41  1  0  0  0  0
 38 42  1  0  0  0  0
 38 37  2  0  0  0  0
 39 38  1  0  0  0  0
M  END
>  <minimizedAffinity>
-7.00773478

$$$$

 OpenBabel03242513193D

 42 46  0  0  0  0  0  0  0  0999 V2000
   36.2740   30.9660   40.7840 C   0  0  0  0  0  0  0  0  0  0  0  0
   37.0450   32.0320   40.2960 C   0  0  0  0  0  0  0  0  0  0  0  0
   38.4010   31.9040   40.5080 C   0  0  0  0  0  0  0  0  0  0  0  0
   38.8890   30.8000   41.1500 N   0  0  0  0  0  0  0  0  0  0  0  0
   38.1130   29.8170   41.5930 C   0  0  0  0  0  0  0  0  0  0  0  0
   36.7850   29.9080   41.4040 N   0  0  0  0  0  0  0  0  0  0  0  0
   35.2030   31.0270   40.6380 H   0  0  0  0  0  0  0  0  0  0  0  0
   36.6420   32.8920   39.7920 H   0  0  0  0  0  0  0  0  0  0  0  0
   39.3110   32.9080   40.0670 N   0  0  0  0  0  0  0  0  0  0  0  0
   39.4030   34.1380   40.6040 C   0  0  0  0  0  0  0  0  0  0  0  0
   38.8050   34.5140   41.4240 H   0  0  0  0  0  0  0  0  0  0  0  0
   40.3740   34.8070   39.9260 N   0  0  0  0  0  0  0  0  0  0  0  0
   40.8730   33.9900   38.9840 C   0  0  0  0  0  0  0  0  0  0  0  0
   41.8470   34.0850   38.0100 C   0  0  0  0  0  0  0  0  0  0  0  0
   42.1550   33.0660   37.1620 N   0  0  0  0  0  0  0  0  0  0  0  0
   41.4730   31.8900   37.2740 C   0  0  0  0  0  0  0  0  0  0  0  0
   41.5900   30.9940   36.6920 H   0  0  0  0  0  0  0  0  0  0  0  0
   40.5280   31.7860   38.2140 N   0  0  0  0  0  0  0  0  0  0  0  0
   40.1990   32.7800   39.0690 C   0  0  0  0  0  0  0  0  0  0  0  0
   42.5690   35.2850   37.8670 N   0  0  0  0  0  0  0  0  0  0  0  0
   43.4810   35.6730   38.2480 H   0  0  0  0  0  0  0  0  0  0  0  0
   42.0250   35.8940   37.2200 H   0  0  0  0  0  0  0  0  0  0  0  0
   38.6210   28.6400   42.2780 C   0  0  0  0  0  0  0  0  0  0  0  0
   39.5520   28.7000   43.1090 O   0  0  0  0  0  0  0  0  0  0  0  0
   39.7160   27.3210   39.8530 Cl  0  0  0  0  0  0  0  0  0  0  0  0
   38.4820   26.6280   40.9120 C   0  0  0  0  0  0  0  0  0  0  0  0
   38.0390   27.3280   42.0030 C   0  0  0  0  0  0  0  0  0  0  0  0
   37.0790   26.7560   42.7850 C   0  0  0  0  0  0  0  0  0  0  0  0
   36.5720   25.5140   42.4840 C   0  0  0  0  0  0  0  0  0  0  0  0
   37.0230   24.8090   41.3780 C   0  0  0  0  0  0  0  0  0  0  0  0
   37.9940   25.3890   40.5870 C   0  0  0  0  0  0  0  0  0  0  0  0
   36.7490   27.3390   43.6450 H   0  0  0  0  0  0  0  0  0  0  0  0
   35.8170   25.1580   43.1690 H   0  0  0  0  0  0  0  0  0  0  0  0
   36.5900   23.8500   41.1980 H   0  0  0  0  0  0  0  0  0  0  0  0
   38.3970   24.5610   39.4590 C   0  0  0  0  0  0  0  0  0  0  0  0
   39.2050   23.4350   39.4270 C   0  0  0  0  0  0  0  0  0  0  0  0
   39.3470   22.9360   38.1530 C   0  0  0  0  0  0  0  0  0  0  0  0
   38.5790   23.8230   37.4170 C   0  0  0  0  0  0  0  0  0  0  0  0
   38.0700   24.7170   38.2080 O   0  0  0  0  0  0  0  0  0  0  0  0
   39.6680   23.0100   40.3330 H   0  0  0  0  0  0  0  0  0  0  0  0
   39.8870   22.1000   37.7900 H   0  0  0  0  0  0  0  0  0  0  0  0
   38.4150   23.7920   36.3290 H   0  0  0  0  0  0  0  0  0  0  0  0
  1  6  1  0  0  0  0
  2  3  1  0  0  0  0
  2  1  2  0  0  0  0
  3  4  2  0  0  0  0
  4  5  1  0  0  0  0
  5 23  1  0  0  0  0
  6  5  2  0  0  0  0
  7  1  1  0  0  0  0
  8  2  1  0  0  0  0
  9  3  1  0  0  0  0
  9 10  1  0  0  0  0
 10 11  1  0  0  0  0
 12 10  2  0  0  0  0
 13 19  1  0  0  0  0
 13 12  1  0  0  0  0
 14 13  2  0  0  0  0
 15 16  2  0  0  0  0
 15 14  1  0  0  0  0
 16 18  1  0  0  0  0
 17 16  1  0  0  0  0
 18 19  2  0  0  0  0
 19  9  1  0  0  0  0
 20 14  1  0  0  0  0
 20 21  1  0  0  0  0
 22 20  1  0  0  0  0
 23 24  2  0  0  0  0
 25 26  1  0  0  0  0
 26 27  1  0  0  0  0
 27 23  1  0  0  0  0
 27 28  2  0  0  0  0
 28 32  1  0  0  0  0
 29 28  1  0  0  0  0
 29 33  1  0  0  0  0
 30 29  2  0  0  0  0
 31 26  2  0  0  0  0
 31 30  1  0  0  0  0
 34 30  1  0  0  0  0
 35 31  1  0  0  0  0
 36 35  2  0  0  0  0
 36 40  1  0  0  0  0
 37 36  1  0  0  0  0
 38 37  2  0  0  0  0
 38 39  1  0  0  0  0
 39 35  1  0  0  0  0
 41 37  1  0  0  0  0
 42 38  1  0  0  0  0
M  END
>  <minimizedAffinity>
-6.9393115

$$$$

 OpenBabel03242513193D

 42 46  0  0  0  0  0  0  0  0999 V2000
   36.4400   29.7870   37.1220 C   0  0  0  0  0  0  0  0  0  0  0  0
   37.4540   30.7480   37.2530 C   0  0  0  0  0  0  0  0  0  0  0  0
   38.3160   30.5310   38.3070 C   0  0  0  0  0  0  0  0  0  0  0  0
   38.1400   29.4460   39.1190 N   0  0  0  0  0  0  0  0  0  0  0  0
   37.1610   28.5650   38.9500 C   0  0  0  0  0  0  0  0  0  0  0  0
   36.3010   28.7440   37.9320 N   0  0  0  0  0  0  0  0  0  0  0  0
   35.7410   29.9200   36.3050 H   0  0  0  0  0  0  0  0  0  0  0  0
   37.5770   31.5950   36.6030 H   0  0  0  0  0  0  0  0  0  0  0  0
   39.3970   31.4230   38.5670 N   0  0  0  0  0  0  0  0  0  0  0  0
   40.6720   31.1980   38.2000 C   0  0  0  0  0  0  0  0  0  0  0  0
   41.0300   30.3260   37.6710 H   0  0  0  0  0  0  0  0  0  0  0  0
   41.4090   32.2620   38.6180 N   0  0  0  0  0  0  0  0  0  0  0  0
   40.5890   33.1300   39.2340 C   0  0  0  0  0  0  0  0  0  0  0  0
   40.7350   34.3560   39.8530 C   0  0  0  0  0  0  0  0  0  0  0  0
   39.6970   35.0360   40.4130 N   0  0  0  0  0  0  0  0  0  0  0  0
   38.4500   34.4860   40.3650 C   0  0  0  0  0  0  0  0  0  0  0  0
   37.5310   34.8850   40.7540 H   0  0  0  0  0  0  0  0  0  0  0  0
   38.2970   33.2990   39.7690 N   0  0  0  0  0  0  0  0  0  0  0  0
   39.3080   32.6000   39.2050 C   0  0  0  0  0  0  0  0  0  0  0  0
   42.0090   34.9520   39.9190 N   0  0  0  0  0  0  0  0  0  0  0  0
   42.5590   35.6380   39.3240 H   0  0  0  0  0  0  0  0  0  0  0  0
   42.4700   34.5920   40.7810 H   0  0  0  0  0  0  0  0  0  0  0  0
   36.9630   27.4080   39.8080 C   0  0  0  0  0  0  0  0  0  0  0  0
   36.4610   26.3440   39.3890 O   0  0  0  0  0  0  0  0  0  0  0  0
   39.7580   26.5390   40.3110 Cl  0  0  0  0  0  0  0  0  0  0  0  0
   38.6310   27.0960   41.5550 C   0  0  0  0  0  0  0  0  0  0  0  0
   37.3570   27.4660   41.2140 C   0  0  0  0  0  0  0  0  0  0  0  0
   36.5220   27.8800   42.2090 C   0  0  0  0  0  0  0  0  0  0  0  0
   36.9490   27.9230   43.5160 C   0  0  0  0  0  0  0  0  0  0  0  0
   38.2400   27.5460   43.8570 C   0  0  0  0  0  0  0  0  0  0  0  0
   39.0840   27.1280   42.8490 C   0  0  0  0  0  0  0  0  0  0  0  0
   35.5160   28.1680   41.9050 H   0  0  0  0  0  0  0  0  0  0  0  0
   36.2060   28.2650   44.2220 H   0  0  0  0  0  0  0  0  0  0  0  0
   38.5100   27.6020   44.8880 H   0  0  0  0  0  0  0  0  0  0  0  0
   40.4140   26.7630   43.3160 C   0  0  0  0  0  0  0  0  0  0  0  0
   41.0590   25.5370   43.2910 C   0  0  0  0  0  0  0  0  0  0  0  0
   42.3210   25.6050   43.8350 C   0  0  0  0  0  0  0  0  0  0  0  0
   42.4010   26.9400   44.1910 C   0  0  0  0  0  0  0  0  0  0  0  0
   41.2970   27.5420   43.8730 O   0  0  0  0  0  0  0  0  0  0  0  0
   40.5910   24.6280   42.8770 H   0  0  0  0  0  0  0  0  0  0  0  0
   43.0620   24.8590   43.9660 H   0  0  0  0  0  0  0  0  0  0  0  0
   43.2610   27.4340   44.6700 H   0  0  0  0  0  0  0  0  0  0  0  0
  1  2  2  0  0  0  0
  1  6  1  0  0  0  0
  2  3  1  0  0  0  0
  3  9  1  0  0  0  0
  3  4  2  0  0  0  0
  5  4  1  0  0  0  0
  5 23  1  0  0  0  0
  6  5  2  0  0  0  0
  7  1  1  0  0  0  0
  8  2  1  0  0  0  0
  9 19  1  0  0  0  0
 10  9  1  0  0  0  0
 10 12  2  0  0  0  0
 11 10  1  0  0  0  0
 12 13  1  0  0  0  0
 13 14  1  0  0  0  0
 14 20  1  0  0  0  0
 14 15  2  0  0  0  0
 16 15  1  0  0  0  0
 16 17  1  0  0  0  0
 18 16  2  0  0  0  0
 19 13  2  0  0  0  0
 19 18  1  0  0  0  0
 20 22  1  0  0  0  0
 21 20  1  0  0  0  0
 23 27  1  0  0  0  0
 24 23  2  0  0  0  0
 25 26  1  0  0  0  0
 26 31  1  0  0  0  0
 27 26  2  0  0  0  0
 27 28  1  0  0  0  0
 28 29  2  0  0  0  0
 29 30  1  0  0  0  0
 29 33  1  0  0  0  0
 30 34  1  0  0  0  0
 31 35  1  0  0  0  0
 31 30  2  0  0  0  0
 32 28  1  0  0  0  0
 35 39  1  0  0  0  0
 36 35  2  0  0  0  0
 36 37  1  0  0  0  0
 37 41  1  0  0  0  0
 37 38  2  0  0  0  0
 38 42  1  0  0  0  0
 39 38  1  0  0  0  0
 40 36  1  0  0  0  0
M  END
>  <minimizedAffinity>
-6.83523321

$$$$

 OpenBabel03242513193D

 42 46  0  0  0  0  0  0  0  0999 V2000
   37.8970   31.9500   40.2110 C   0  0  0  0  0  0  0  0  0  0  0  0
   38.8690   32.6650   39.4950 C   0  0  0  0  0  0  0  0  0  0  0  0
   40.1680   32.2880   39.7590 C   0  0  0  0  0  0  0  0  0  0  0  0
   40.4180   31.2890   40.6590 N   0  0  0  0  0  0  0  0  0  0  0  0
   39.4580   30.6440   41.3110 C   0  0  0  0  0  0  0  0  0  0  0  0
   38.1780   30.9850   41.0780 N   0  0  0  0  0  0  0  0  0  0  0  0
   36.8620   32.2160   40.0330 H   0  0  0  0  0  0  0  0  0  0  0  0
   38.6520   33.4480   38.7900 H   0  0  0  0  0  0  0  0  0  0  0  0
   41.2650   32.9230   39.1070 N   0  0  0  0  0  0  0  0  0  0  0  0
   41.4220   34.2560   39.0130 C   0  0  0  0  0  0  0  0  0  0  0  0
   40.7470   35.0010   39.4130 H   0  0  0  0  0  0  0  0  0  0  0  0
   42.5750   34.4830   38.3280 N   0  0  0  0  0  0  0  0  0  0  0  0
   43.1170   33.2960   38.0080 C   0  0  0  0  0  0  0  0  0  0  0  0
   44.2490   32.8770   37.3360 C   0  0  0  0  0  0  0  0  0  0  0  0
   44.5620   31.5660   37.1510 N   0  0  0  0  0  0  0  0  0  0  0  0
   43.7240   30.6130   37.6500 C   0  0  0  0  0  0  0  0  0  0  0  0
   43.8210   29.5440   37.5940 H   0  0  0  0  0  0  0  0  0  0  0  0
   42.6250   31.0070   38.3020 N   0  0  0  0  0  0  0  0  0  0  0  0
   42.2870   32.3010   38.5010 C   0  0  0  0  0  0  0  0  0  0  0  0
   45.1370   33.8340   36.8080 N   0  0  0  0  0  0  0  0  0  0  0  0
   46.0110   34.3300   37.1500 H   0  0  0  0  0  0  0  0  0  0  0  0
   44.7970   34.0710   35.8530 H   0  0  0  0  0  0  0  0  0  0  0  0
   39.7130   29.5820   42.2700 C   0  0  0  0  0  0  0  0  0  0  0  0
   40.8190   29.4420   42.8340 O   0  0  0  0  0  0  0  0  0  0  0  0
   39.6150   27.2110   40.4840 Cl  0  0  0  0  0  0  0  0  0  0  0  0
   38.5270   27.4960   41.8490 C   0  0  0  0  0  0  0  0  0  0  0  0
   38.6540   28.6310   42.6050 C   0  0  0  0  0  0  0  0  0  0  0  0
   37.7860   28.8110   43.6410 C   0  0  0  0  0  0  0  0  0  0  0  0
   36.8130   27.8790   43.9160 C   0  0  0  0  0  0  0  0  0  0  0  0
   36.6880   26.7310   43.1470 C   0  0  0  0  0  0  0  0  0  0  0  0
   37.5670   26.5500   42.0990 C   0  0  0  0  0  0  0  0  0  0  0  0
   37.9140   29.7250   44.2230 H   0  0  0  0  0  0  0  0  0  0  0  0
   36.1810   28.1230   44.7580 H   0  0  0  0  0  0  0  0  0  0  0  0
   35.9130   26.0460   43.4120 H   0  0  0  0  0  0  0  0  0  0  0  0
   37.3500   25.3120   41.3650 C   0  0  0  0  0  0  0  0  0  0  0  0
   37.9460   24.0700   41.5210 C   0  0  0  0  0  0  0  0  0  0  0  0
   37.4640   23.1480   40.6220 C   0  0  0  0  0  0  0  0  0  0  0  0
   36.5440   23.9020   39.9120 C   0  0  0  0  0  0  0  0  0  0  0  0
   36.5240   25.1130   40.3770 O   0  0  0  0  0  0  0  0  0  0  0  0
   38.7150   23.8730   42.2860 H   0  0  0  0  0  0  0  0  0  0  0  0
   37.7050   22.1260   40.4770 H   0  0  0  0  0  0  0  0  0  0  0  0
   35.9160   23.5470   39.0810 H   0  0  0  0  0  0  0  0  0  0  0  0
  1  6  1  0  0  0  0
  2  3  1  0  0  0  0
  2  1  2  0  0  0  0
  3  4  2  0  0  0  0
  4  5  1  0  0  0  0
  5 23  1  0  0  0  0
  6  5  2  0  0  0  0
  7  1  1  0  0  0  0
  8  2  1  0  0  0  0
  9  3  1  0  0  0  0
 10  9  1  0  0  0  0
 10 11  1  0  0  0  0
 12 10  2  0  0  0  0
 13 12  1  0  0  0  0
 13 19  1  0  0  0  0
 14 13  2  0  0  0  0
 15 14  1  0  0  0  0
 15 16  2  0  0  0  0
 16 18  1  0  0  0  0
 17 16  1  0  0  0  0
 18 19  2  0  0  0  0
 19  9  1  0  0  0  0
 20 21  1  0  0  0  0
 20 14  1  0  0  0  0
 22 20  1  0  0  0  0
 23 27  1  0  0  0  0
 23 24  2  0  0  0  0
 25 26  1  0  0  0  0
 26 31  2  0  0  0  0
 26 27  1  0  0  0  0
 27 28  2  0  0  0  0
 28 29  1  0  0  0  0
 28 32  1  0  0  0  0
 29 33  1  0  0  0  0
 30 34  1  0  0  0  0
 30 29  2  0  0  0  0
 31 30  1  0  0  0  0
 35 36  2  0  0  0  0
 35 31  1  0  0  0  0
 36 40  1  0  0  0  0
 37 36  1  0  0  0  0
 38 39  1  0  0  0  0
 38 37  2  0  0  0  0
 39 35  1  0  0  0  0
 41 37  1  0  0  0  0
 42 38  1  0  0  0  0
M  END
>  <minimizedAffinity>
-6.74022436

$$$$

 OpenBabel03242513193D

 42 46  0  0  0  0  0  0  0  0999 V2000
   36.2320   30.9430   41.0270 C   0  0  0  0  0  0  0  0  0  0  0  0
   36.3850   29.6140   41.4510 C   0  0  0  0  0  0  0  0  0  0  0  0
   37.5640   29.0190   41.0540 C   0  0  0  0  0  0  0  0  0  0  0  0
   38.4660   29.7240   40.3070 N   0  0  0  0  0  0  0  0  0  0  0  0
   38.2700   30.9830   39.9320 C   0  0  0  0  0  0  0  0  0  0  0  0
   37.1320   31.5970   40.3010 N   0  0  0  0  0  0  0  0  0  0  0  0
   35.3190   31.4490   41.3180 H   0  0  0  0  0  0  0  0  0  0  0  0
   35.6640   29.0760   42.0390 H   0  0  0  0  0  0  0  0  0  0  0  0
   37.8610   27.6710   41.4090 N   0  0  0  0  0  0  0  0  0  0  0  0
   37.1900   26.5990   40.9500 C   0  0  0  0  0  0  0  0  0  0  0  0
   36.3520   26.6260   40.2660 H   0  0  0  0  0  0  0  0  0  0  0  0
   37.7570   25.4950   41.5050 N   0  0  0  0  0  0  0  0  0  0  0  0
   38.7690   25.8910   42.2960 C   0  0  0  0  0  0  0  0  0  0  0  0
   39.6950   25.2610   43.1030 C   0  0  0  0  0  0  0  0  0  0  0  0
   40.6400   25.9320   43.8170 N   0  0  0  0  0  0  0  0  0  0  0  0
   40.6810   27.2920   43.7360 C   0  0  0  0  0  0  0  0  0  0  0  0
   41.3550   27.9690   44.2290 H   0  0  0  0  0  0  0  0  0  0  0  0
   39.7890   27.9130   42.9580 N   0  0  0  0  0  0  0  0  0  0  0  0
   38.8390   27.2750   42.2380 C   0  0  0  0  0  0  0  0  0  0  0  0
   39.6820   23.8570   43.2090 N   0  0  0  0  0  0  0  0  0  0  0  0
   40.1650   23.0520   42.7120 H   0  0  0  0  0  0  0  0  0  0  0  0
   39.0200   23.6150   43.9760 H   0  0  0  0  0  0  0  0  0  0  0  0
   39.2210   31.7420   39.1370 C   0  0  0  0  0  0  0  0  0  0  0  0
   39.5640   31.3890   37.9880 O   0  0  0  0  0  0  0  0  0  0  0  0
   41.9820   31.3890   40.1720 Cl  0  0  0  0  0  0  0  0  0  0  0  0
   41.0890   32.9140   40.1720 C   0  0  0  0  0  0  0  0  0  0  0  0
   39.8120   32.9650   39.6770 C   0  0  0  0  0  0  0  0  0  0  0  0
   39.1600   34.1620   39.7070 C   0  0  0  0  0  0  0  0  0  0  0  0
   39.7680   35.2830   40.2200 C   0  0  0  0  0  0  0  0  0  0  0  0
   41.0600   35.2280   40.7210 C   0  0  0  0  0  0  0  0  0  0  0  0
   41.7190   34.0160   40.6890 C   0  0  0  0  0  0  0  0  0  0  0  0
   38.1460   34.1680   39.3060 H   0  0  0  0  0  0  0  0  0  0  0  0
   39.1600   36.1760   40.1950 H   0  0  0  0  0  0  0  0  0  0  0  0
   41.4760   36.1330   41.1040 H   0  0  0  0  0  0  0  0  0  0  0  0
   43.0690   34.0730   41.2330 C   0  0  0  0  0  0  0  0  0  0  0  0
   44.2900   34.1250   40.5780 C   0  0  0  0  0  0  0  0  0  0  0  0
   45.3470   34.1690   41.4560 C   0  0  0  0  0  0  0  0  0  0  0  0
   44.6980   34.1400   42.6790 C   0  0  0  0  0  0  0  0  0  0  0  0
   43.4150   34.0870   42.4890 O   0  0  0  0  0  0  0  0  0  0  0  0
   44.3730   34.1290   39.4790 H   0  0  0  0  0  0  0  0  0  0  0  0
   46.3920   34.2140   41.2850 H   0  0  0  0  0  0  0  0  0  0  0  0
   45.1770   34.1600   43.6700 H   0  0  0  0  0  0  0  0  0  0  0  0
  1  7  1  0  0  0  0
  1  2  1  0  0  0  0
  2  8  1  0  0  0  0
  3  9  1  0  0  0  0
  3  2  2  0  0  0  0
  4  3  1  0  0  0  0
  5  6  1  0  0  0  0
  5  4  2  0  0  0  0
  6  1  2  0  0  0  0
  9 19  1  0  0  0  0
 10  9  1  0  0  0  0
 10 12  2  0  0  0  0
 11 10  1  0  0  0  0
 12 13  1  0  0  0  0
 13 14  1  0  0  0  0
 14 20  1  0  0  0  0
 14 15  2  0  0  0  0
 16 15  1  0  0  0  0
 16 17  1  0  0  0  0
 18 16  2  0  0  0  0
 19 13  2  0  0  0  0
 19 18  1  0  0  0  0
 20 22  1  0  0  0  0
 21 20  1  0  0  0  0
 23 27  1  0  0  0  0
 23  5  1  0  0  0  0
 24 23  2  0  0  0  0
 26 25  1  0  0  0  0
 26 31  1  0  0  0  0
 27 28  1  0  0  0  0
 27 26  2  0  0  0  0
 28 29  2  0  0  0  0
 29 30  1  0  0  0  0
 30 34  1  0  0  0  0
 31 30  2  0  0  0  0
 31 35  1  0  0  0  0
 32 28  1  0  0  0  0
 33 29  1  0  0  0  0
 35 39  1  0  0  0  0
 36 35  2  0  0  0  0
 36 37  1  0  0  0  0
 37 38  2  0  0  0  0
 38 42  1  0  0  0  0
 39 38  1  0  0  0  0
 40 36  1  0  0  0  0
 41 37  1  0  0  0  0
M  END
>  <minimizedAffinity>
-6.72471189

$$$$

 OpenBabel03242513193D

 42 46  0  0  0  0  0  0  0  0999 V2000
   39.5170   30.2800   43.0250 C   0  0  0  0  0  0  0  0  0  0  0  0
   40.1150   31.3060   42.2770 C   0  0  0  0  0  0  0  0  0  0  0  0
   39.8610   31.2500   40.9230 C   0  0  0  0  0  0  0  0  0  0  0  0
   39.0810   30.2470   40.4170 N   0  0  0  0  0  0  0  0  0  0  0  0
   38.5390   29.3000   41.1720 C   0  0  0  0  0  0  0  0  0  0  0  0
   38.7640   29.3230   42.4980 N   0  0  0  0  0  0  0  0  0  0  0  0
   39.6910   30.2880   44.0950 H   0  0  0  0  0  0  0  0  0  0  0  0
   40.7250   32.0870   42.6940 H   0  0  0  0  0  0  0  0  0  0  0  0
   40.4000   32.2240   40.0340 N   0  0  0  0  0  0  0  0  0  0  0  0
   40.1320   33.5410   40.0980 C   0  0  0  0  0  0  0  0  0  0  0  0
   39.4830   34.0180   40.8210 H   0  0  0  0  0  0  0  0  0  0  0  0
   40.8220   34.1470   39.0950 N   0  0  0  0  0  0  0  0  0  0  0  0
   41.5070   33.2060   38.4240 C   0  0  0  0  0  0  0  0  0  0  0  0
   42.3630   33.1920   37.3400 C   0  0  0  0  0  0  0  0  0  0  0  0
   42.9330   32.0560   36.8560 N   0  0  0  0  0  0  0  0  0  0  0  0
   42.6510   30.8680   37.4640 C   0  0  0  0  0  0  0  0  0  0  0  0
   43.0120   29.8880   37.2120 H   0  0  0  0  0  0  0  0  0  0  0  0
   41.8230   30.8690   38.5140 N   0  0  0  0  0  0  0  0  0  0  0  0
   41.2410   31.9810   39.0170 C   0  0  0  0  0  0  0  0  0  0  0  0
   42.6760   34.4010   36.6890 N   0  0  0  0  0  0  0  0  0  0  0  0
   43.4400   35.1340   36.7730 H   0  0  0  0  0  0  0  0  0  0  0  0
   41.9450   34.5550   35.9640 H   0  0  0  0  0  0  0  0  0  0  0  0
   37.7090   28.2290   40.6450 C   0  0  0  0  0  0  0  0  0  0  0  0
   37.9230   27.0260   40.9080 O   0  0  0  0  0  0  0  0  0  0  0  0
   38.3440   28.0880   37.7470 Cl  0  0  0  0  0  0  0  0  0  0  0  0
   36.7600   28.4970   38.4180 C   0  0  0  0  0  0  0  0  0  0  0  0
   36.5770   28.5430   39.7740 C   0  0  0  0  0  0  0  0  0  0  0  0
   35.3400   28.8720   40.2440 C   0  0  0  0  0  0  0  0  0  0  0  0
   34.3090   29.1510   39.3780 C   0  0  0  0  0  0  0  0  0  0  0  0
   34.4980   29.1030   38.0050 C   0  0  0  0  0  0  0  0  0  0  0  0
   35.7510   28.7700   37.5310 C   0  0  0  0  0  0  0  0  0  0  0  0
   35.2290   28.8990   41.3280 H   0  0  0  0  0  0  0  0  0  0  0  0
   33.3730   29.4000   39.8580 H   0  0  0  0  0  0  0  0  0  0  0  0
   33.6580   29.3300   37.3860 H   0  0  0  0  0  0  0  0  0  0  0  0
   35.8360   28.7440   36.0780 C   0  0  0  0  0  0  0  0  0  0  0  0
   36.3670   29.6780   35.2020 C   0  0  0  0  0  0  0  0  0  0  0  0
   36.2540   29.2810   33.8900 C   0  0  0  0  0  0  0  0  0  0  0  0
   35.6230   28.0550   34.0220 C   0  0  0  0  0  0  0  0  0  0  0  0
   35.4140   27.8070   35.2780 O   0  0  0  0  0  0  0  0  0  0  0  0
   36.8230   30.6220   35.5460 H   0  0  0  0  0  0  0  0  0  0  0  0
   36.5550   29.7560   32.9920 H   0  0  0  0  0  0  0  0  0  0  0  0
   35.3360   27.3810   33.2000 H   0  0  0  0  0  0  0  0  0  0  0  0
  1  7  1  0  0  0  0
  2  8  1  0  0  0  0
  2  1  2  0  0  0  0
  3  2  1  0  0  0  0
  4  3  2  0  0  0  0
  4  5  1  0  0  0  0
  5  6  2  0  0  0  0
  6  1  1  0  0  0  0
  9 10  1  0  0  0  0
  9  3  1  0  0  0  0
 10 11  1  0  0  0  0
 12 10  2  0  0  0  0
 13 19  1  0  0  0  0
 13 12  1  0  0  0  0
 14 13  2  0  0  0  0
 15 14  1  0  0  0  0
 15 16  2  0  0  0  0
 16 18  1  0  0  0  0
 17 16  1  0  0  0  0
 18 19  2  0  0  0  0
 19  9  1  0  0  0  0
 20 21  1  0  0  0  0
 20 14  1  0  0  0  0
 22 20  1  0  0  0  0
 23 24  2  0  0  0  0
 23  5  1  0  0  0  0
 25 26  1  0  0  0  0
 26 27  1  0  0  0  0
 27 28  2  0  0  0  0
 27 23  1  0  0  0  0
 28 32  1  0  0  0  0
 29 33  1  0  0  0  0
 29 28  1  0  0  0  0
 30 29  2  0  0  0  0
 31 30  1  0  0  0  0
 31 26  2  0  0  0  0
 34 30  1  0  0  0  0
 35 31  1  0  0  0  0
 36 40  1  0  0  0  0
 36 35  2  0  0  0  0
 37 38  2  0  0  0  0
 37 36  1  0  0  0  0
 38 39  1  0  0  0  0
 39 35  1  0  0  0  0
 41 37  1  0  0  0  0
 42 38  1  0  0  0  0
M  END
>  <minimizedAffinity>
-6.53833294

$$$$
