
 OpenBabel03252502363D

 29 31  0  0  1  0  0  0  0  0999 V2000
   46.0940   35.2540   42.2600 C   0  0  1  0  0  0  0  0  0  0  0  0
   45.8720   36.3630   42.2870 H   0  0  0  0  0  0  0  0  0  0  0  0
   45.3790   34.5950   41.2170 N   0  0  0  0  0  0  0  0  0  0  0  0
   45.9100   33.6710   40.3630 C   0  0  0  0  0  0  0  0  0  0  0  0
   46.9250   33.2910   40.3260 H   0  0  0  0  0  0  0  0  0  0  0  0
   44.9260   33.2670   39.5060 N   0  0  0  0  0  0  0  0  0  0  0  0
   43.8130   33.9310   39.8310 C   0  0  0  0  0  0  0  0  0  0  0  0
   42.5130   33.9800   39.3730 C   0  0  0  0  0  0  0  0  0  0  0  0
   41.5510   34.7760   39.9110 N   0  0  0  0  0  0  0  0  0  0  0  0
   41.8580   35.5780   40.9570 C   0  0  0  0  0  0  0  0  0  0  0  0
   41.1180   36.2060   41.3880 H   0  0  0  0  0  0  0  0  0  0  0  0
   43.1100   35.5360   41.4040 N   0  0  0  0  0  0  0  0  0  0  0  0
   44.0670   34.7690   40.8980 C   0  0  0  0  0  0  0  0  0  0  0  0
   42.1250   33.1670   38.2820 N   0  0  0  0  0  0  0  0  0  0  0  0
   41.7420   32.2840   37.8810 H   0  0  0  0  0  0  0  0  0  0  0  0
   42.3450   33.8020   37.4660 H   0  0  0  0  0  0  0  0  0  0  0  0
   44.9520   35.4080   44.4480 C   0  0  0  0  0  0  0  0  0  0  0  0
   45.8760   34.7270   43.6160 C   0  0  0  0  0  0  0  0  0  0  0  0
   46.5490   33.5820   44.1270 C   0  0  0  0  0  0  0  0  0  0  0  0
   46.2570   33.2130   45.4000 N   0  0  0  0  0  0  0  0  0  0  0  0
   45.3770   33.8940   46.1390 C   0  0  0  0  0  0  0  0  0  0  0  0
   44.7270   34.9750   45.6850 N   0  0  0  0  0  0  0  0  0  0  0  0
   44.4300   36.2790   44.0800 H   0  0  0  0  0  0  0  0  0  0  0  0
   47.2480   33.0780   43.4730 H   0  0  0  0  0  0  0  0  0  0  0  0
   45.1850   33.5510   47.1510 H   0  0  0  0  0  0  0  0  0  0  0  0
   47.5730   35.1830   41.9770 C   0  0  0  0  0  0  0  0  0  0  0  0
   48.1800   35.6410   42.7950 H   0  0  0  0  0  0  0  0  0  0  0  0
   47.7540   35.7490   41.0250 H   0  0  0  0  0  0  0  0  0  0  0  0
   47.8910   34.1410   41.9160 H   0  0  0  0  0  0  0  0  0  0  0  0
  1  2  1  6  0  0  0
  1 18  1  0  0  0  0
  3  1  1  0  0  0  0
  4  3  1  0  0  0  0
  5  4  1  0  0  0  0
  6  7  1  0  0  0  0
  6  4  2  0  0  0  0
  7 13  1  0  0  0  0
  8  7  2  0  0  0  0
  8  9  1  0  0  0  0
  9 10  2  0  0  0  0
 10 11  1  0  0  0  0
 10 12  1  0  0  0  0
 13  3  1  0  0  0  0
 13 12  2  0  0  0  0
 14  8  1  0  0  0  0
 15 14  1  0  0  0  0
 16 14  1  0  0  0  0
 17 22  1  0  0  0  0
 18 19  1  0  0  0  0
 18 17  2  0  0  0  0
 19 20  2  0  0  0  0
 20 21  1  0  0  0  0
 21 25  1  0  0  0  0
 22 21  2  0  0  0  0
 23 17  1  0  0  0  0
 24 19  1  0  0  0  0
 26  1  1  0  0  0  0
 26 27  1  0  0  0  0
 28 26  1  0  0  0  0
 29 26  1  0  0  0  0
M  END
>  <minimizedAffinity>
-5.10226154

>  <minimizedRMSD>
2.86252785

$$$$
