
 OpenBabel03242515193D

 42 45  0  0  0  0  0  0  0  0999 V2000
   38.2460   29.8590   42.2000 C   0  0  0  0  0  0  0  0  0  0  0  0
   39.2580   30.6700   41.7920 C   0  0  0  0  0  0  0  0  0  0  0  0
   38.8920   31.1830   40.5670 C   0  0  0  0  0  0  0  0  0  0  0  0
   37.6970   30.6930   40.2550 N   0  0  0  0  0  0  0  0  0  0  0  0
   37.3220   29.8970   41.2480 N   0  0  0  0  0  0  0  0  0  0  0  0
   40.1840   30.8760   42.3270 H   0  0  0  0  0  0  0  0  0  0  0  0
   39.6880   32.0810   39.8020 N   0  0  0  0  0  0  0  0  0  0  0  0
   39.7590   33.4230   39.9260 C   0  0  0  0  0  0  0  0  0  0  0  0
   39.2260   34.0520   40.6250 H   0  0  0  0  0  0  0  0  0  0  0  0
   40.6180   33.9500   39.0360 N   0  0  0  0  0  0  0  0  0  0  0  0
   41.1360   32.9310   38.2940 C   0  0  0  0  0  0  0  0  0  0  0  0
   42.0440   32.9230   37.2650 C   0  0  0  0  0  0  0  0  0  0  0  0
   42.3430   31.7140   36.7420 N   0  0  0  0  0  0  0  0  0  0  0  0
   41.7870   30.5770   37.1990 C   0  0  0  0  0  0  0  0  0  0  0  0
   42.1020   29.6490   36.7010 H   0  0  0  0  0  0  0  0  0  0  0  0
   40.8840   30.5830   38.2210 N   0  0  0  0  0  0  0  0  0  0  0  0
   40.5390   31.7710   38.7920 C   0  0  0  0  0  0  0  0  0  0  0  0
   42.5780   34.1610   36.8500 N   0  0  0  0  0  0  0  0  0  0  0  0
   42.3240   34.5990   35.9300 H   0  0  0  0  0  0  0  0  0  0  0  0
   43.2630   34.7980   37.3540 H   0  0  0  0  0  0  0  0  0  0  0  0
   36.9080   30.9620   39.0420 C   0  0  0  0  0  0  0  0  0  0  0  0
   36.7470   32.3410   38.8850 F   0  0  0  0  0  0  0  0  0  0  0  0
   35.7080   30.3020   39.1140 F   0  0  0  0  0  0  0  0  0  0  0  0
   37.6110   30.5170   37.9530 F   0  0  0  0  0  0  0  0  0  0  0  0
   38.1210   29.0660   43.4270 C   0  0  0  0  0  0  0  0  0  0  0  0
   39.1520   28.6800   43.6700 H   0  0  0  0  0  0  0  0  0  0  0  0
   37.8230   29.6750   44.3050 H   0  0  0  0  0  0  0  0  0  0  0  0
   37.2400   27.8560   43.2320 C   0  0  0  0  0  0  0  0  0  0  0  0
   36.5220   28.1210   42.4660 H   0  0  0  0  0  0  0  0  0  0  0  0
   36.7410   27.6660   44.2210 H   0  0  0  0  0  0  0  0  0  0  0  0
   39.7750   25.1310   43.0610 C   0  0  0  0  0  0  0  0  0  0  0  0
   39.1350   24.2360   42.1690 C   0  0  0  0  0  0  0  0  0  0  0  0
   37.8940   24.6070   41.6830 C   0  0  0  0  0  0  0  0  0  0  0  0
   37.4100   25.7830   42.1030 N   0  0  0  0  0  0  0  0  0  0  0  0
   38.0100   26.6240   42.9400 C   0  0  0  0  0  0  0  0  0  0  0  0
   39.1940   26.2860   43.4140 N   0  0  0  0  0  0  0  0  0  0  0  0
   40.7520   24.8820   43.4690 H   0  0  0  0  0  0  0  0  0  0  0  0
   39.6790   23.3300   41.9430 H   0  0  0  0  0  0  0  0  0  0  0  0
   37.2310   23.6850   40.7630 C   0  0  0  0  0  0  0  0  0  0  0  0
   37.3560   24.1530   39.4560 F   0  0  0  0  0  0  0  0  0  0  0  0
   35.8650   23.7840   41.0390 F   0  0  0  0  0  0  0  0  0  0  0  0
   37.7000   22.4100   40.8560 F   0  0  0  0  0  0  0  0  0  0  0  0
  1 25  1  0  0  0  0
  2  1  1  0  0  0  0
  2  6  1  0  0  0  0
  3  2  2  0  0  0  0
  4  3  1  0  0  0  0
  4  5  1  0  0  0  0
  5  1  2  0  0  0  0
  7  8  1  0  0  0  0
  7  3  1  0  0  0  0
  8  9  1  0  0  0  0
 10  8  2  0  0  0  0
 11 17  1  0  0  0  0
 11 10  1  0  0  0  0
 12 11  2  0  0  0  0
 13 14  2  0  0  0  0
 13 12  1  0  0  0  0
 14 16  1  0  0  0  0
 15 14  1  0  0  0  0
 16 17  2  0  0  0  0
 17  7  1  0  0  0  0
 18 12  1  0  0  0  0
 18 20  1  0  0  0  0
 19 18  1  0  0  0  0
 21 23  1  0  0  0  0
 21  4  1  0  0  0  0
 22 21  1  0  0  0  0
 24 21  1  0  0  0  0
 25 26  1  0  0  0  0
 25 27  1  0  0  0  0
 28 25  1  0  0  0  0
 28 30  1  0  0  0  0
 29 28  1  0  0  0  0
 31 36  1  0  0  0  0
 31 37  1  0  0  0  0
 32 31  2  0  0  0  0
 33 34  2  0  0  0  0
 33 32  1  0  0  0  0
 34 35  1  0  0  0  0
 35 28  1  0  0  0  0
 35 36  2  0  0  0  0
 38 32  1  0  0  0  0
 39 42  1  0  0  0  0
 39 41  1  0  0  0  0
 39 33  1  0  0  0  0
 40 39  1  0  0  0  0
M  END
>  <minimizedAffinity>
-7.1242547

$$$$

 OpenBabel03242515193D

 42 45  0  0  0  0  0  0  0  0999 V2000
   36.5880   27.4890   39.4600 C   0  0  0  0  0  0  0  0  0  0  0  0
   37.6780   26.6980   39.6530 C   0  0  0  0  0  0  0  0  0  0  0  0
   37.9930   26.7690   40.9910 C   0  0  0  0  0  0  0  0  0  0  0  0
   37.1190   27.5780   41.5790 N   0  0  0  0  0  0  0  0  0  0  0  0
   36.2800   28.0030   40.6440 N   0  0  0  0  0  0  0  0  0  0  0  0
   38.2030   26.1180   38.8960 H   0  0  0  0  0  0  0  0  0  0  0  0
   39.0790   26.0770   41.5980 N   0  0  0  0  0  0  0  0  0  0  0  0
   39.0770   24.8230   42.0970 C   0  0  0  0  0  0  0  0  0  0  0  0
   38.2530   24.1230   42.1240 H   0  0  0  0  0  0  0  0  0  0  0  0
   40.2820   24.4940   42.5940 N   0  0  0  0  0  0  0  0  0  0  0  0
   41.1150   25.5590   42.4230 C   0  0  0  0  0  0  0  0  0  0  0  0
   42.4350   25.7460   42.7510 C   0  0  0  0  0  0  0  0  0  0  0  0
   42.9640   26.9470   42.4350 N   0  0  0  0  0  0  0  0  0  0  0  0
   42.2450   27.9120   41.8320 C   0  0  0  0  0  0  0  0  0  0  0  0
   42.7760   28.8510   41.6190 H   0  0  0  0  0  0  0  0  0  0  0  0
   40.9340   27.7290   41.5050 N   0  0  0  0  0  0  0  0  0  0  0  0
   40.3400   26.5380   41.7980 C   0  0  0  0  0  0  0  0  0  0  0  0
   43.1120   24.6810   43.3820 N   0  0  0  0  0  0  0  0  0  0  0  0
   43.3950   24.7180   44.3920 H   0  0  0  0  0  0  0  0  0  0  0  0
   43.4200   23.7490   42.9750 H   0  0  0  0  0  0  0  0  0  0  0  0
   37.0610   27.9530   43.0010 C   0  0  0  0  0  0  0  0  0  0  0  0
   37.0620   29.3460   43.1180 F   0  0  0  0  0  0  0  0  0  0  0  0
   38.1040   27.3740   43.6760 F   0  0  0  0  0  0  0  0  0  0  0  0
   35.8740   27.5120   43.5250 F   0  0  0  0  0  0  0  0  0  0  0  0
   35.8450   27.7720   38.2280 C   0  0  0  0  0  0  0  0  0  0  0  0
   36.4680   27.3770   37.3760 H   0  0  0  0  0  0  0  0  0  0  0  0
   34.8850   27.2210   38.1680 H   0  0  0  0  0  0  0  0  0  0  0  0
   35.6810   29.2540   37.9950 C   0  0  0  0  0  0  0  0  0  0  0  0
   34.9520   29.5990   38.7170 H   0  0  0  0  0  0  0  0  0  0  0  0
   35.3090   29.3690   36.9400 H   0  0  0  0  0  0  0  0  0  0  0  0
   39.2000   30.4120   37.5900 C   0  0  0  0  0  0  0  0  0  0  0  0
   39.1620   31.6200   38.3300 C   0  0  0  0  0  0  0  0  0  0  0  0
   37.9590   31.9650   38.9160 C   0  0  0  0  0  0  0  0  0  0  0  0
   36.9340   31.1230   38.7300 N   0  0  0  0  0  0  0  0  0  0  0  0
   36.9670   29.9890   38.0350 C   0  0  0  0  0  0  0  0  0  0  0  0
   38.1080   29.6450   37.4680 N   0  0  0  0  0  0  0  0  0  0  0  0
   40.1240   30.1000   37.1110 H   0  0  0  0  0  0  0  0  0  0  0  0
   40.0910   32.1730   38.3720 H   0  0  0  0  0  0  0  0  0  0  0  0
   37.9180   33.2110   39.6810 C   0  0  0  0  0  0  0  0  0  0  0  0
   39.1070   33.9150   39.4990 F   0  0  0  0  0  0  0  0  0  0  0  0
   37.9380   32.8350   41.0270 F   0  0  0  0  0  0  0  0  0  0  0  0
   36.8500   33.9950   39.3650 F   0  0  0  0  0  0  0  0  0  0  0  0
  1  2  1  0  0  0  0
  1  5  2  0  0  0  0
  2  3  2  0  0  0  0
  3  4  1  0  0  0  0
  3  7  1  0  0  0  0
  4 21  1  0  0  0  0
  5  4  1  0  0  0  0
  6  2  1  0  0  0  0
  7 17  1  0  0  0  0
  7  8  1  0  0  0  0
  8  9  1  0  0  0  0
  8 10  2  0  0  0  0
 11 10  1  0  0  0  0
 11 12  1  0  0  0  0
 12 18  1  0  0  0  0
 13 12  2  0  0  0  0
 14 13  1  0  0  0  0
 15 14  1  0  0  0  0
 16 17  1  0  0  0  0
 16 14  2  0  0  0  0
 17 11  2  0  0  0  0
 18 19  1  0  0  0  0
 20 18  1  0  0  0  0
 21 22  1  0  0  0  0
 21 24  1  0  0  0  0
 21 23  1  0  0  0  0
 25  1  1  0  0  0  0
 26 25  1  0  0  0  0
 27 25  1  0  0  0  0
 28 35  1  0  0  0  0
 28 25  1  0  0  0  0
 28 29  1  0  0  0  0
 30 28  1  0  0  0  0
 31 32  1  0  0  0  0
 32 38  1  0  0  0  0
 32 33  2  0  0  0  0
 33 39  1  0  0  0  0
 34 33  1  0  0  0  0
 35 34  2  0  0  0  0
 36 31  2  0  0  0  0
 36 35  1  0  0  0  0
 37 31  1  0  0  0  0
 39 41  1  0  0  0  0
 40 39  1  0  0  0  0
 42 39  1  0  0  0  0
M  END
>  <minimizedAffinity>
-6.49266481

$$$$

 OpenBabel03242515193D

 42 45  0  0  0  0  0  0  0  0999 V2000
   38.5470   29.1050   41.6930 C   0  0  0  0  0  0  0  0  0  0  0  0
   39.5400   29.9660   41.3410 C   0  0  0  0  0  0  0  0  0  0  0  0
   39.0970   30.6580   40.2360 C   0  0  0  0  0  0  0  0  0  0  0  0
   37.8770   30.2240   39.9380 N   0  0  0  0  0  0  0  0  0  0  0  0
   37.5600   29.2900   40.8240 N   0  0  0  0  0  0  0  0  0  0  0  0
   40.5020   30.0860   41.8340 H   0  0  0  0  0  0  0  0  0  0  0  0
   39.8510   31.6590   39.5600 N   0  0  0  0  0  0  0  0  0  0  0  0
   39.8180   32.9920   39.7690 C   0  0  0  0  0  0  0  0  0  0  0  0
   39.2150   33.5340   40.4850 H   0  0  0  0  0  0  0  0  0  0  0  0
   40.6650   33.6350   38.9490 N   0  0  0  0  0  0  0  0  0  0  0  0
   41.2840   32.7060   38.1660 C   0  0  0  0  0  0  0  0  0  0  0  0
   42.2260   32.8300   37.1750 C   0  0  0  0  0  0  0  0  0  0  0  0
   42.6320   31.6820   36.5910 N   0  0  0  0  0  0  0  0  0  0  0  0
   42.1460   30.4810   36.9540 C   0  0  0  0  0  0  0  0  0  0  0  0
   42.5460   29.6120   36.4130 H   0  0  0  0  0  0  0  0  0  0  0  0
   41.2090   30.3560   37.9380 N   0  0  0  0  0  0  0  0  0  0  0  0
   40.7580   31.4770   38.5670 C   0  0  0  0  0  0  0  0  0  0  0  0
   42.6800   34.1270   36.8590 N   0  0  0  0  0  0  0  0  0  0  0  0
   42.4270   34.6050   35.9590 H   0  0  0  0  0  0  0  0  0  0  0  0
   43.2980   34.7780   37.4290 H   0  0  0  0  0  0  0  0  0  0  0  0
   37.0100   30.6750   38.8370 C   0  0  0  0  0  0  0  0  0  0  0  0
   35.7700   30.0350   38.9260 F   0  0  0  0  0  0  0  0  0  0  0  0
   37.6290   30.4470   37.6360 F   0  0  0  0  0  0  0  0  0  0  0  0
   36.7750   32.0170   38.9850 F   0  0  0  0  0  0  0  0  0  0  0  0
   38.4960   28.1370   42.7930 C   0  0  0  0  0  0  0  0  0  0  0  0
   39.4020   27.4760   42.6850 H   0  0  0  0  0  0  0  0  0  0  0  0
   38.5990   28.6130   43.7900 H   0  0  0  0  0  0  0  0  0  0  0  0
   37.2880   27.2370   42.6990 C   0  0  0  0  0  0  0  0  0  0  0  0
   36.5370   27.7890   42.1490 H   0  0  0  0  0  0  0  0  0  0  0  0
   36.9630   27.0330   43.7550 H   0  0  0  0  0  0  0  0  0  0  0  0
   38.7380   23.9050   41.8760 C   0  0  0  0  0  0  0  0  0  0  0  0
   37.8850   23.5050   40.8180 C   0  0  0  0  0  0  0  0  0  0  0  0
   36.8800   24.3800   40.4500 C   0  0  0  0  0  0  0  0  0  0  0  0
   36.8050   25.5320   41.1320 N   0  0  0  0  0  0  0  0  0  0  0  0
   37.6040   25.9080   42.1250 C   0  0  0  0  0  0  0  0  0  0  0  0
   38.5690   25.0840   42.4890 N   0  0  0  0  0  0  0  0  0  0  0  0
   39.5430   23.2490   42.2000 H   0  0  0  0  0  0  0  0  0  0  0  0
   38.0980   22.5370   40.3850 H   0  0  0  0  0  0  0  0  0  0  0  0
   35.9990   23.9700   39.3580 C   0  0  0  0  0  0  0  0  0  0  0  0
   36.7150   23.2110   38.4340 F   0  0  0  0  0  0  0  0  0  0  0  0
   35.6730   25.1410   38.6680 F   0  0  0  0  0  0  0  0  0  0  0  0
   34.9040   23.2840   39.7870 F   0  0  0  0  0  0  0  0  0  0  0  0
  1 25  1  0  0  0  0
  2  1  1  0  0  0  0
  2  6  1  0  0  0  0
  3  2  2  0  0  0  0
  4  3  1  0  0  0  0
  4  5  1  0  0  0  0
  5  1  2  0  0  0  0
  7  8  1  0  0  0  0
  7  3  1  0  0  0  0
  8  9  1  0  0  0  0
 10  8  2  0  0  0  0
 11 17  1  0  0  0  0
 11 10  1  0  0  0  0
 12 11  2  0  0  0  0
 13 14  2  0  0  0  0
 13 12  1  0  0  0  0
 14 16  1  0  0  0  0
 15 14  1  0  0  0  0
 16 17  2  0  0  0  0
 17  7  1  0  0  0  0
 18 12  1  0  0  0  0
 18 20  1  0  0  0  0
 19 18  1  0  0  0  0
 21 22  1  0  0  0  0
 21 24  1  0  0  0  0
 21  4  1  0  0  0  0
 23 21  1  0  0  0  0
 25 27  1  0  0  0  0
 26 25  1  0  0  0  0
 28 25  1  0  0  0  0
 28 30  1  0  0  0  0
 29 28  1  0  0  0  0
 31 37  1  0  0  0  0
 31 36  1  0  0  0  0
 32 31  2  0  0  0  0
 33 32  1  0  0  0  0
 33 34  2  0  0  0  0
 34 35  1  0  0  0  0
 35 36  2  0  0  0  0
 35 28  1  0  0  0  0
 38 32  1  0  0  0  0
 39 42  1  0  0  0  0
 39 33  1  0  0  0  0
 40 39  1  0  0  0  0
 41 39  1  0  0  0  0
M  END
>  <minimizedAffinity>
-6.36645794

$$$$

 OpenBabel03242515193D

 42 45  0  0  0  0  0  0  0  0999 V2000
   35.8110   29.3310   37.2070 C   0  0  0  0  0  0  0  0  0  0  0  0
   36.6670   30.3830   37.3130 C   0  0  0  0  0  0  0  0  0  0  0  0
   36.8850   30.5900   38.6570 C   0  0  0  0  0  0  0  0  0  0  0  0
   36.1810   29.6880   39.3320 N   0  0  0  0  0  0  0  0  0  0  0  0
   35.5400   28.9380   38.4450 N   0  0  0  0  0  0  0  0  0  0  0  0
   37.0980   30.9570   36.4940 H   0  0  0  0  0  0  0  0  0  0  0  0
   37.7280   31.6070   39.1870 N   0  0  0  0  0  0  0  0  0  0  0  0
   37.4330   32.9130   39.3540 C   0  0  0  0  0  0  0  0  0  0  0  0
   36.5060   33.4170   39.1150 H   0  0  0  0  0  0  0  0  0  0  0  0
   38.4700   33.5830   39.8840 N   0  0  0  0  0  0  0  0  0  0  0  0
   39.4900   32.7000   40.0780 C   0  0  0  0  0  0  0  0  0  0  0  0
   40.7550   32.8650   40.5850 C   0  0  0  0  0  0  0  0  0  0  0  0
   41.5260   31.7580   40.6370 N   0  0  0  0  0  0  0  0  0  0  0  0
   41.0860   30.5570   40.2180 C   0  0  0  0  0  0  0  0  0  0  0  0
   41.7970   29.7230   40.3070 H   0  0  0  0  0  0  0  0  0  0  0  0
   39.8300   30.3900   39.7140 N   0  0  0  0  0  0  0  0  0  0  0  0
   39.0020   31.4700   39.6330 C   0  0  0  0  0  0  0  0  0  0  0  0
   41.1320   34.1590   41.0000 N   0  0  0  0  0  0  0  0  0  0  0  0
   41.8330   34.7350   40.4710 H   0  0  0  0  0  0  0  0  0  0  0  0
   40.8000   34.7150   41.8430 H   0  0  0  0  0  0  0  0  0  0  0  0
   36.1040   29.5220   40.7930 C   0  0  0  0  0  0  0  0  0  0  0  0
   35.8280   30.7550   41.3900 F   0  0  0  0  0  0  0  0  0  0  0  0
   37.2690   28.9660   41.2580 F   0  0  0  0  0  0  0  0  0  0  0  0
   35.0520   28.6940   41.0860 F   0  0  0  0  0  0  0  0  0  0  0  0
   35.2520   28.6990   36.0080 C   0  0  0  0  0  0  0  0  0  0  0  0
   35.1930   29.4990   35.2170 H   0  0  0  0  0  0  0  0  0  0  0  0
   35.9160   27.9180   35.5840 H   0  0  0  0  0  0  0  0  0  0  0  0
   33.8440   28.2060   36.2340 C   0  0  0  0  0  0  0  0  0  0  0  0
   33.8060   27.8420   37.2530 H   0  0  0  0  0  0  0  0  0  0  0  0
   33.6760   27.3790   35.4910 H   0  0  0  0  0  0  0  0  0  0  0  0
   31.6510   30.7510   34.6230 C   0  0  0  0  0  0  0  0  0  0  0  0
   30.7980   31.0810   35.7050 C   0  0  0  0  0  0  0  0  0  0  0  0
   31.0150   30.4280   36.9040 C   0  0  0  0  0  0  0  0  0  0  0  0
   32.0170   29.5380   36.9320 N   0  0  0  0  0  0  0  0  0  0  0  0
   32.8190   29.2280   35.9180 C   0  0  0  0  0  0  0  0  0  0  0  0
   32.6240   29.8420   34.7660 N   0  0  0  0  0  0  0  0  0  0  0  0
   31.5180   31.2390   33.6600 H   0  0  0  0  0  0  0  0  0  0  0  0
   30.0410   31.8250   35.4960 H   0  0  0  0  0  0  0  0  0  0  0  0
   30.1360   30.7660   38.0220 C   0  0  0  0  0  0  0  0  0  0  0  0
   30.5560   30.0960   39.1710 F   0  0  0  0  0  0  0  0  0  0  0  0
   28.8960   30.1960   37.7200 F   0  0  0  0  0  0  0  0  0  0  0  0
   30.0630   32.1050   38.2550 F   0  0  0  0  0  0  0  0  0  0  0  0
  1  2  1  0  0  0  0
  1  5  2  0  0  0  0
  2  3  2  0  0  0  0
  3  7  1  0  0  0  0
  3  4  1  0  0  0  0
  4 21  1  0  0  0  0
  5  4  1  0  0  0  0
  6  2  1  0  0  0  0
  7  8  1  0  0  0  0
  7 17  1  0  0  0  0
  8 10  2  0  0  0  0
  9  8  1  0  0  0  0
 10 11  1  0  0  0  0
 11 12  1  0  0  0  0
 12 13  2  0  0  0  0
 12 18  1  0  0  0  0
 14 15  1  0  0  0  0
 14 13  1  0  0  0  0
 16 14  2  0  0  0  0
 17 16  1  0  0  0  0
 17 11  2  0  0  0  0
 18 20  1  0  0  0  0
 19 18  1  0  0  0  0
 21 24  1  0  0  0  0
 21 23  1  0  0  0  0
 21 22  1  0  0  0  0
 25 28  1  0  0  0  0
 25  1  1  0  0  0  0
 26 25  1  0  0  0  0
 27 25  1  0  0  0  0
 28 29  1  0  0  0  0
 30 28  1  0  0  0  0
 31 36  2  0  0  0  0
 31 32  1  0  0  0  0
 32 33  2  0  0  0  0
 33 34  1  0  0  0  0
 33 39  1  0  0  0  0
 35 28  1  0  0  0  0
 35 34  2  0  0  0  0
 36 35  1  0  0  0  0
 37 31  1  0  0  0  0
 38 32  1  0  0  0  0
 39 42  1  0  0  0  0
 39 40  1  0  0  0  0
 41 39  1  0  0  0  0
M  END
>  <minimizedAffinity>
-6.23378086

$$$$

 OpenBabel03242515193D

 42 45  0  0  0  0  0  0  0  0999 V2000
   38.7120   28.4910   42.0120 C   0  0  0  0  0  0  0  0  0  0  0  0
   39.6210   28.9080   41.0910 C   0  0  0  0  0  0  0  0  0  0  0  0
   39.0860   30.0160   40.4730 C   0  0  0  0  0  0  0  0  0  0  0  0
   37.8940   30.2530   41.0100 N   0  0  0  0  0  0  0  0  0  0  0  0
   37.6830   29.3260   41.9350 N   0  0  0  0  0  0  0  0  0  0  0  0
   40.5870   28.4540   40.8780 H   0  0  0  0  0  0  0  0  0  0  0  0
   39.7340   30.7510   39.4400 N   0  0  0  0  0  0  0  0  0  0  0  0
   39.7700   30.4580   38.1230 C   0  0  0  0  0  0  0  0  0  0  0  0
   39.3160   29.6160   37.6200 H   0  0  0  0  0  0  0  0  0  0  0  0
   40.4740   31.3760   37.4400 N   0  0  0  0  0  0  0  0  0  0  0  0
   40.9230   32.3110   38.3240 C   0  0  0  0  0  0  0  0  0  0  0  0
   41.6790   33.4430   38.1490 C   0  0  0  0  0  0  0  0  0  0  0  0
   41.9480   34.1590   39.2620 N   0  0  0  0  0  0  0  0  0  0  0  0
   41.5040   33.7900   40.4770 C   0  0  0  0  0  0  0  0  0  0  0  0
   41.7820   34.4460   41.3140 H   0  0  0  0  0  0  0  0  0  0  0  0
   40.7530   32.6650   40.6540 N   0  0  0  0  0  0  0  0  0  0  0  0
   40.4470   31.8980   39.5700 C   0  0  0  0  0  0  0  0  0  0  0  0
   42.1020   33.7540   36.8400 N   0  0  0  0  0  0  0  0  0  0  0  0
   43.1050   33.6680   36.5400 H   0  0  0  0  0  0  0  0  0  0  0  0
   41.5270   34.0970   36.0140 H   0  0  0  0  0  0  0  0  0  0  0  0
   36.9560   31.3350   40.6670 C   0  0  0  0  0  0  0  0  0  0  0  0
   36.5940   31.2310   39.3200 F   0  0  0  0  0  0  0  0  0  0  0  0
   37.5190   32.5490   40.9630 F   0  0  0  0  0  0  0  0  0  0  0  0
   35.8090   31.1700   41.3990 F   0  0  0  0  0  0  0  0  0  0  0  0
   38.7750   27.3580   42.9420 C   0  0  0  0  0  0  0  0  0  0  0  0
   39.6210   26.7010   42.5930 H   0  0  0  0  0  0  0  0  0  0  0  0
   39.0480   27.6630   43.9730 H   0  0  0  0  0  0  0  0  0  0  0  0
   37.5230   26.5170   42.8940 C   0  0  0  0  0  0  0  0  0  0  0  0
   36.6980   27.2040   42.7610 H   0  0  0  0  0  0  0  0  0  0  0  0
   37.4650   25.9830   43.8820 H   0  0  0  0  0  0  0  0  0  0  0  0
   38.2410   23.4330   40.9300 C   0  0  0  0  0  0  0  0  0  0  0  0
   37.4640   23.6780   39.7710 C   0  0  0  0  0  0  0  0  0  0  0  0
   36.7510   24.8610   39.7250 C   0  0  0  0  0  0  0  0  0  0  0  0
   36.8610   25.6720   40.7860 N   0  0  0  0  0  0  0  0  0  0  0  0
   37.5890   25.4440   41.8740 C   0  0  0  0  0  0  0  0  0  0  0  0
   38.2760   24.3180   41.9350 N   0  0  0  0  0  0  0  0  0  0  0  0
   38.8180   22.5150   41.0110 H   0  0  0  0  0  0  0  0  0  0  0  0
   37.4970   22.9060   39.0130 H   0  0  0  0  0  0  0  0  0  0  0  0
   35.9480   25.1150   38.5290 C   0  0  0  0  0  0  0  0  0  0  0  0
   34.9230   24.1740   38.4410 F   0  0  0  0  0  0  0  0  0  0  0  0
   36.7790   24.8280   37.4420 F   0  0  0  0  0  0  0  0  0  0  0  0
   35.4380   26.3770   38.4890 F   0  0  0  0  0  0  0  0  0  0  0  0
  1 25  1  0  0  0  0
  2  1  1  0  0  0  0
  3  4  1  0  0  0  0
  3  2  2  0  0  0  0
  4  5  1  0  0  0  0
  5  1  2  0  0  0  0
  6  2  1  0  0  0  0
  7 17  1  0  0  0  0
  7  3  1  0  0  0  0
  8  7  1  0  0  0  0
  9  8  1  0  0  0  0
 10  8  2  0  0  0  0
 10 11  1  0  0  0  0
 11 17  1  0  0  0  0
 12 11  2  0  0  0  0
 12 13  1  0  0  0  0
 13 14  2  0  0  0  0
 14 16  1  0  0  0  0
 14 15  1  0  0  0  0
 17 16  2  0  0  0  0
 18 12  1  0  0  0  0
 19 18  1  0  0  0  0
 20 18  1  0  0  0  0
 21 23  1  0  0  0  0
 21  4  1  0  0  0  0
 21 24  1  0  0  0  0
 22 21  1  0  0  0  0
 25 27  1  0  0  0  0
 26 25  1  0  0  0  0
 28 25  1  0  0  0  0
 28 30  1  0  0  0  0
 29 28  1  0  0  0  0
 31 37  1  0  0  0  0
 31 36  1  0  0  0  0
 32 31  2  0  0  0  0
 33 32  1  0  0  0  0
 33 34  2  0  0  0  0
 34 35  1  0  0  0  0
 35 36  2  0  0  0  0
 35 28  1  0  0  0  0
 38 32  1  0  0  0  0
 39 33  1  0  0  0  0
 40 39  1  0  0  0  0
 41 39  1  0  0  0  0
 42 39  1  0  0  0  0
M  END
>  <minimizedAffinity>
-6.22745419

$$$$

 OpenBabel03242515193D

 42 45  0  0  0  0  0  0  0  0999 V2000
   38.2640   29.6140   42.0160 C   0  0  0  0  0  0  0  0  0  0  0  0
   39.2760   30.4410   41.6390 C   0  0  0  0  0  0  0  0  0  0  0  0
   38.9030   31.0130   40.4430 C   0  0  0  0  0  0  0  0  0  0  0  0
   37.7040   30.5420   40.1160 N   0  0  0  0  0  0  0  0  0  0  0  0
   37.3330   29.7010   41.0730 N   0  0  0  0  0  0  0  0  0  0  0  0
   40.2060   30.6180   42.1760 H   0  0  0  0  0  0  0  0  0  0  0  0
   39.6960   31.9440   39.7160 N   0  0  0  0  0  0  0  0  0  0  0  0
   39.7740   33.2780   39.9040 C   0  0  0  0  0  0  0  0  0  0  0  0
   39.2480   33.8750   40.6370 H   0  0  0  0  0  0  0  0  0  0  0  0
   40.6270   33.8440   39.0330 N   0  0  0  0  0  0  0  0  0  0  0  0
   41.1360   32.8610   38.2390 C   0  0  0  0  0  0  0  0  0  0  0  0
   42.0360   32.8990   37.2040 C   0  0  0  0  0  0  0  0  0  0  0  0
   42.3260   31.7160   36.6210 N   0  0  0  0  0  0  0  0  0  0  0  0
   41.7690   30.5600   37.0270 C   0  0  0  0  0  0  0  0  0  0  0  0
   42.0770   29.6560   36.4820 H   0  0  0  0  0  0  0  0  0  0  0  0
   40.8740   30.5190   38.0550 N   0  0  0  0  0  0  0  0  0  0  0  0
   40.5390   31.6800   38.6850 C   0  0  0  0  0  0  0  0  0  0  0  0
   42.5710   34.1540   36.8440 N   0  0  0  0  0  0  0  0  0  0  0  0
   42.3120   34.6370   35.9490 H   0  0  0  0  0  0  0  0  0  0  0  0
   43.2630   34.7630   37.3730 H   0  0  0  0  0  0  0  0  0  0  0  0
   36.9060   30.8710   38.9240 C   0  0  0  0  0  0  0  0  0  0  0  0
   37.5760   30.4320   37.7770 F   0  0  0  0  0  0  0  0  0  0  0  0
   36.6510   32.2180   38.8940 F   0  0  0  0  0  0  0  0  0  0  0  0
   35.7240   30.1810   38.9820 F   0  0  0  0  0  0  0  0  0  0  0  0
   38.1450   28.7640   43.2040 C   0  0  0  0  0  0  0  0  0  0  0  0
   39.1860   28.6330   43.6140 H   0  0  0  0  0  0  0  0  0  0  0  0
   37.5670   29.2430   44.0200 H   0  0  0  0  0  0  0  0  0  0  0  0
   37.6370   27.3840   42.8640 C   0  0  0  0  0  0  0  0  0  0  0  0
   36.6950   27.5230   42.3480 H   0  0  0  0  0  0  0  0  0  0  0  0
   37.4990   26.8480   43.8420 H   0  0  0  0  0  0  0  0  0  0  0  0
   39.4090   25.1600   40.4570 C   0  0  0  0  0  0  0  0  0  0  0  0
   40.7230   25.2030   40.9840 C   0  0  0  0  0  0  0  0  0  0  0  0
   40.9280   25.9750   42.1120 C   0  0  0  0  0  0  0  0  0  0  0  0
   39.8590   26.6150   42.6060 N   0  0  0  0  0  0  0  0  0  0  0  0
   38.6250   26.5760   42.1120 C   0  0  0  0  0  0  0  0  0  0  0  0
   38.4120   25.8440   41.0350 N   0  0  0  0  0  0  0  0  0  0  0  0
   39.2000   24.5650   39.5700 H   0  0  0  0  0  0  0  0  0  0  0  0
   41.4610   24.6200   40.4500 H   0  0  0  0  0  0  0  0  0  0  0  0
   42.2840   26.0210   42.6570 C   0  0  0  0  0  0  0  0  0  0  0  0
   42.4420   25.0150   43.6100 F   0  0  0  0  0  0  0  0  0  0  0  0
   42.3620   27.2090   43.3890 F   0  0  0  0  0  0  0  0  0  0  0  0
   43.2460   25.9220   41.7000 F   0  0  0  0  0  0  0  0  0  0  0  0
  1 25  1  0  0  0  0
  2  1  1  0  0  0  0
  2  6  1  0  0  0  0
  3  2  2  0  0  0  0
  4  3  1  0  0  0  0
  4  5  1  0  0  0  0
  5  1  2  0  0  0  0
  7  8  1  0  0  0  0
  7  3  1  0  0  0  0
  8  9  1  0  0  0  0
 10  8  2  0  0  0  0
 11 17  1  0  0  0  0
 11 10  1  0  0  0  0
 12 11  2  0  0  0  0
 13 14  2  0  0  0  0
 13 12  1  0  0  0  0
 14 16  1  0  0  0  0
 15 14  1  0  0  0  0
 16 17  2  0  0  0  0
 17  7  1  0  0  0  0
 18 12  1  0  0  0  0
 18 20  1  0  0  0  0
 19 18  1  0  0  0  0
 21 24  1  0  0  0  0
 21  4  1  0  0  0  0
 22 21  1  0  0  0  0
 23 21  1  0  0  0  0
 25 26  1  0  0  0  0
 25 27  1  0  0  0  0
 28 25  1  0  0  0  0
 28 30  1  0  0  0  0
 29 28  1  0  0  0  0
 31 32  2  0  0  0  0
 31 36  1  0  0  0  0
 32 33  1  0  0  0  0
 33 34  2  0  0  0  0
 33 39  1  0  0  0  0
 35 34  1  0  0  0  0
 35 28  1  0  0  0  0
 36 35  2  0  0  0  0
 37 31  1  0  0  0  0
 38 32  1  0  0  0  0
 39 41  1  0  0  0  0
 39 40  1  0  0  0  0
 42 39  1  0  0  0  0
M  END
>  <minimizedAffinity>
-6.20313978

$$$$

 OpenBabel03242515193D

 42 45  0  0  0  0  0  0  0  0999 V2000
   38.8840   30.2470   42.1030 C   0  0  0  0  0  0  0  0  0  0  0  0
   40.1130   30.6820   41.7140 C   0  0  0  0  0  0  0  0  0  0  0  0
   39.9120   31.6220   40.7280 C   0  0  0  0  0  0  0  0  0  0  0  0
   38.6040   31.7450   40.5340 N   0  0  0  0  0  0  0  0  0  0  0  0
   37.9980   30.9100   41.3690 N   0  0  0  0  0  0  0  0  0  0  0  0
   41.0730   30.3510   42.1050 H   0  0  0  0  0  0  0  0  0  0  0  0
   40.9570   32.3180   40.0580 N   0  0  0  0  0  0  0  0  0  0  0  0
   41.5330   33.4830   40.4240 C   0  0  0  0  0  0  0  0  0  0  0  0
   41.3030   34.0920   41.2880 H   0  0  0  0  0  0  0  0  0  0  0  0
   42.4910   33.8470   39.5550 N   0  0  0  0  0  0  0  0  0  0  0  0
   42.5590   32.9000   38.5780 C   0  0  0  0  0  0  0  0  0  0  0  0
   43.3560   32.7920   37.4660 C   0  0  0  0  0  0  0  0  0  0  0  0
   43.1580   31.7030   36.6930 N   0  0  0  0  0  0  0  0  0  0  0  0
   42.2330   30.7710   36.9890 C   0  0  0  0  0  0  0  0  0  0  0  0
   42.1560   29.9250   36.2910 H   0  0  0  0  0  0  0  0  0  0  0  0
   41.4390   30.8760   38.0930 N   0  0  0  0  0  0  0  0  0  0  0  0
   41.5890   31.9530   38.9140 C   0  0  0  0  0  0  0  0  0  0  0  0
   44.3000   33.8140   37.2330 N   0  0  0  0  0  0  0  0  0  0  0  0
   44.1940   34.5050   36.4490 H   0  0  0  0  0  0  0  0  0  0  0  0
   45.1930   34.0350   37.7640 H   0  0  0  0  0  0  0  0  0  0  0  0
   37.9180   32.6320   39.5800 C   0  0  0  0  0  0  0  0  0  0  0  0
   38.3280   32.3260   38.2790 F   0  0  0  0  0  0  0  0  0  0  0  0
   38.1610   33.9410   39.9080 F   0  0  0  0  0  0  0  0  0  0  0  0
   36.5720   32.3860   39.6410 F   0  0  0  0  0  0  0  0  0  0  0  0
   38.5220   29.2510   43.1160 C   0  0  0  0  0  0  0  0  0  0  0  0
   39.2390   28.3900   42.9940 H   0  0  0  0  0  0  0  0  0  0  0  0
   38.6770   29.6160   44.1520 H   0  0  0  0  0  0  0  0  0  0  0  0
   37.1360   28.6970   42.8950 C   0  0  0  0  0  0  0  0  0  0  0  0
   36.4900   29.5480   42.7230 H   0  0  0  0  0  0  0  0  0  0  0  0
   36.8610   28.1500   43.8380 H   0  0  0  0  0  0  0  0  0  0  0  0
   36.5130   26.7460   39.7820 C   0  0  0  0  0  0  0  0  0  0  0  0
   37.2280   25.5580   40.0730 C   0  0  0  0  0  0  0  0  0  0  0  0
   37.8720   25.4900   41.2950 C   0  0  0  0  0  0  0  0  0  0  0  0
   37.7600   26.5590   42.0950 N   0  0  0  0  0  0  0  0  0  0  0  0
   37.0890   27.6750   41.8230 C   0  0  0  0  0  0  0  0  0  0  0  0
   36.4690   27.7560   40.6610 N   0  0  0  0  0  0  0  0  0  0  0  0
   35.9910   26.8450   38.8330 H   0  0  0  0  0  0  0  0  0  0  0  0
   37.2080   24.7990   39.3040 H   0  0  0  0  0  0  0  0  0  0  0  0
   38.6110   24.2650   41.5970 C   0  0  0  0  0  0  0  0  0  0  0  0
   38.3020   23.2850   40.6560 F   0  0  0  0  0  0  0  0  0  0  0  0
   38.0740   23.7800   42.7930 F   0  0  0  0  0  0  0  0  0  0  0  0
   39.9570   24.4570   41.6580 F   0  0  0  0  0  0  0  0  0  0  0  0
  1 25  1  0  0  0  0
  2  1  1  0  0  0  0
  2  6  1  0  0  0  0
  3  2  2  0  0  0  0
  4  3  1  0  0  0  0
  4  5  1  0  0  0  0
  5  1  2  0  0  0  0
  7  8  1  0  0  0  0
  7  3  1  0  0  0  0
  8  9  1  0  0  0  0
 10  8  2  0  0  0  0
 11 17  1  0  0  0  0
 11 10  1  0  0  0  0
 12 11  2  0  0  0  0
 13 14  2  0  0  0  0
 13 12  1  0  0  0  0
 14 16  1  0  0  0  0
 15 14  1  0  0  0  0
 16 17  2  0  0  0  0
 17  7  1  0  0  0  0
 18 12  1  0  0  0  0
 18 20  1  0  0  0  0
 19 18  1  0  0  0  0
 21 24  1  0  0  0  0
 21 23  1  0  0  0  0
 21  4  1  0  0  0  0
 22 21  1  0  0  0  0
 25 27  1  0  0  0  0
 26 25  1  0  0  0  0
 28 25  1  0  0  0  0
 28 30  1  0  0  0  0
 29 28  1  0  0  0  0
 31 32  2  0  0  0  0
 31 36  1  0  0  0  0
 32 33  1  0  0  0  0
 33 39  1  0  0  0  0
 33 34  2  0  0  0  0
 35 34  1  0  0  0  0
 35 28  1  0  0  0  0
 36 35  2  0  0  0  0
 37 31  1  0  0  0  0
 38 32  1  0  0  0  0
 39 42  1  0  0  0  0
 39 41  1  0  0  0  0
 40 39  1  0  0  0  0
M  END
>  <minimizedAffinity>
-6.17932558

$$$$

 OpenBabel03242515193D

 42 45  0  0  0  0  0  0  0  0999 V2000
   37.1350   30.4850   37.9890 C   0  0  0  0  0  0  0  0  0  0  0  0
   38.4630   30.4440   37.7010 C   0  0  0  0  0  0  0  0  0  0  0  0
   39.0540   31.4840   38.3830 C   0  0  0  0  0  0  0  0  0  0  0  0
   38.1070   32.1270   39.0580 N   0  0  0  0  0  0  0  0  0  0  0  0
   36.9570   31.5130   38.8100 N   0  0  0  0  0  0  0  0  0  0  0  0
   38.9670   29.7280   37.0540 H   0  0  0  0  0  0  0  0  0  0  0  0
   40.4460   31.7830   38.3430 N   0  0  0  0  0  0  0  0  0  0  0  0
   41.1450   32.2990   37.3100 C   0  0  0  0  0  0  0  0  0  0  0  0
   40.7740   32.5750   36.3330 H   0  0  0  0  0  0  0  0  0  0  0  0
   42.4410   32.4510   37.6270 N   0  0  0  0  0  0  0  0  0  0  0  0
   42.6170   32.0250   38.9100 C   0  0  0  0  0  0  0  0  0  0  0  0
   43.7320   31.9660   39.7070 C   0  0  0  0  0  0  0  0  0  0  0  0
   43.5500   31.4790   40.9530 N   0  0  0  0  0  0  0  0  0  0  0  0
   42.3470   31.0730   41.3970 C   0  0  0  0  0  0  0  0  0  0  0  0
   42.3120   30.6940   42.4280 H   0  0  0  0  0  0  0  0  0  0  0  0
   41.2360   31.1300   40.6060 N   0  0  0  0  0  0  0  0  0  0  0  0
   41.3530   31.6110   39.3370 C   0  0  0  0  0  0  0  0  0  0  0  0
   44.9540   32.4130   39.1610 N   0  0  0  0  0  0  0  0  0  0  0  0
   45.7330   31.7520   38.9160 H   0  0  0  0  0  0  0  0  0  0  0  0
   45.2610   33.4040   38.9280 H   0  0  0  0  0  0  0  0  0  0  0  0
   38.2680   33.3030   39.9280 C   0  0  0  0  0  0  0  0  0  0  0  0
   39.2770   34.1270   39.4200 F   0  0  0  0  0  0  0  0  0  0  0  0
   38.5240   32.8970   41.2130 F   0  0  0  0  0  0  0  0  0  0  0  0
   37.1080   34.0320   39.9000 F   0  0  0  0  0  0  0  0  0  0  0  0
   36.0510   29.6120   37.5280 C   0  0  0  0  0  0  0  0  0  0  0  0
   35.3390   30.2610   36.9440 H   0  0  0  0  0  0  0  0  0  0  0  0
   36.3960   28.8390   36.8120 H   0  0  0  0  0  0  0  0  0  0  0  0
   35.2650   29.0310   38.6780 C   0  0  0  0  0  0  0  0  0  0  0  0
   34.3360   28.6660   38.2610 H   0  0  0  0  0  0  0  0  0  0  0  0
   35.0940   29.8740   39.4010 H   0  0  0  0  0  0  0  0  0  0  0  0
   37.2180   26.0600   39.7930 C   0  0  0  0  0  0  0  0  0  0  0  0
   37.3870   26.3610   41.1670 C   0  0  0  0  0  0  0  0  0  0  0  0
   36.8350   27.5410   41.6280 C   0  0  0  0  0  0  0  0  0  0  0  0
   36.1870   28.2950   40.7290 N   0  0  0  0  0  0  0  0  0  0  0  0
   36.0270   28.0140   39.4400 C   0  0  0  0  0  0  0  0  0  0  0  0
   36.5490   26.8910   38.9820 N   0  0  0  0  0  0  0  0  0  0  0  0
   37.6350   25.1420   39.3840 H   0  0  0  0  0  0  0  0  0  0  0  0
   37.9420   25.6320   41.7410 H   0  0  0  0  0  0  0  0  0  0  0  0
   37.0080   27.8550   43.0460 C   0  0  0  0  0  0  0  0  0  0  0  0
   38.0130   27.0530   43.5860 F   0  0  0  0  0  0  0  0  0  0  0  0
   35.8400   27.4220   43.6790 F   0  0  0  0  0  0  0  0  0  0  0  0
   37.2790   29.1700   43.2710 F   0  0  0  0  0  0  0  0  0  0  0  0
  1  5  2  0  0  0  0
  2  1  1  0  0  0  0
  2  3  2  0  0  0  0
  3  4  1  0  0  0  0
  4 21  1  0  0  0  0
  5  4  1  0  0  0  0
  6  2  1  0  0  0  0
  7  3  1  0  0  0  0
  7 17  1  0  0  0  0
  8 10  2  0  0  0  0
  8  7  1  0  0  0  0
  9  8  1  0  0  0  0
 10 11  1  0  0  0  0
 11 17  2  0  0  0  0
 11 12  1  0  0  0  0
 12 13  2  0  0  0  0
 13 14  1  0  0  0  0
 14 15  1  0  0  0  0
 16 14  2  0  0  0  0
 17 16  1  0  0  0  0
 18 12  1  0  0  0  0
 19 18  1  0  0  0  0
 20 18  1  0  0  0  0
 21 23  1  0  0  0  0
 22 21  1  0  0  0  0
 24 21  1  0  0  0  0
 25  1  1  0  0  0  0
 25 28  1  0  0  0  0
 26 25  1  0  0  0  0
 27 25  1  0  0  0  0
 28 30  1  0  0  0  0
 28 35  1  0  0  0  0
 29 28  1  0  0  0  0
 31 32  1  0  0  0  0
 32 33  2  0  0  0  0
 32 38  1  0  0  0  0
 33 39  1  0  0  0  0
 34 33  1  0  0  0  0
 35 34  2  0  0  0  0
 36 35  1  0  0  0  0
 36 31  2  0  0  0  0
 37 31  1  0  0  0  0
 39 42  1  0  0  0  0
 39 40  1  0  0  0  0
 39 41  1  0  0  0  0
M  END
>  <minimizedAffinity>
-6.17763758

$$$$

 OpenBabel03242515193D

 42 45  0  0  0  0  0  0  0  0999 V2000
   36.1400   28.9460   37.9190 C   0  0  0  0  0  0  0  0  0  0  0  0
   37.0750   28.0270   38.2800 C   0  0  0  0  0  0  0  0  0  0  0  0
   37.4760   28.3440   39.5590 C   0  0  0  0  0  0  0  0  0  0  0  0
   36.8010   29.4190   39.9490 N   0  0  0  0  0  0  0  0  0  0  0  0
   36.0010   29.7700   38.9500 N   0  0  0  0  0  0  0  0  0  0  0  0
   37.4390   27.1970   37.6770 H   0  0  0  0  0  0  0  0  0  0  0  0
   38.4500   27.6150   40.2980 N   0  0  0  0  0  0  0  0  0  0  0  0
   39.7610   27.9050   40.4360 C   0  0  0  0  0  0  0  0  0  0  0  0
   40.3030   28.7390   40.0110 H   0  0  0  0  0  0  0  0  0  0  0  0
   40.3820   26.9980   41.2090 N   0  0  0  0  0  0  0  0  0  0  0  0
   39.4610   26.0730   41.6000 C   0  0  0  0  0  0  0  0  0  0  0  0
   39.5700   24.9530   42.3850 C   0  0  0  0  0  0  0  0  0  0  0  0
   38.4360   24.2440   42.5750 N   0  0  0  0  0  0  0  0  0  0  0  0
   37.2620   24.6090   42.0290 C   0  0  0  0  0  0  0  0  0  0  0  0
   36.4020   23.9610   42.2490 H   0  0  0  0  0  0  0  0  0  0  0  0
   37.1510   25.7220   41.2480 N   0  0  0  0  0  0  0  0  0  0  0  0
   38.2590   26.4800   41.0170 C   0  0  0  0  0  0  0  0  0  0  0  0
   40.8390   24.6440   42.9170 N   0  0  0  0  0  0  0  0  0  0  0  0
   41.4040   23.8260   42.5780 H   0  0  0  0  0  0  0  0  0  0  0  0
   41.3850   25.1440   43.6790 H   0  0  0  0  0  0  0  0  0  0  0  0
   36.8970   30.1180   41.2410 C   0  0  0  0  0  0  0  0  0  0  0  0
   38.1440   30.7410   41.3440 F   0  0  0  0  0  0  0  0  0  0  0  0
   36.6710   29.2340   42.2640 F   0  0  0  0  0  0  0  0  0  0  0  0
   35.9530   31.1110   41.2750 F   0  0  0  0  0  0  0  0  0  0  0  0
   35.3910   29.0740   36.6650 C   0  0  0  0  0  0  0  0  0  0  0  0
   35.1560   30.1690   36.5390 H   0  0  0  0  0  0  0  0  0  0  0  0
   35.9920   28.8000   35.7740 H   0  0  0  0  0  0  0  0  0  0  0  0
   34.0680   28.3500   36.7200 C   0  0  0  0  0  0  0  0  0  0  0  0
   33.9760   27.9570   37.7240 H   0  0  0  0  0  0  0  0  0  0  0  0
   34.1270   27.5270   35.9560 H   0  0  0  0  0  0  0  0  0  0  0  0
   31.6120   30.4330   34.8460 C   0  0  0  0  0  0  0  0  0  0  0  0
   30.6950   30.7450   35.8790 C   0  0  0  0  0  0  0  0  0  0  0  0
   30.9620   30.2370   37.1370 C   0  0  0  0  0  0  0  0  0  0  0  0
   32.0680   29.4910   37.2630 N   0  0  0  0  0  0  0  0  0  0  0  0
   32.9300   29.1970   36.2940 C   0  0  0  0  0  0  0  0  0  0  0  0
   32.6900   29.6740   35.0870 N   0  0  0  0  0  0  0  0  0  0  0  0
   31.4440   30.8100   33.8400 H   0  0  0  0  0  0  0  0  0  0  0  0
   29.8560   31.3630   35.5900 H   0  0  0  0  0  0  0  0  0  0  0  0
   30.0170   30.5580   38.2050 C   0  0  0  0  0  0  0  0  0  0  0  0
   28.7190   30.2610   37.7910 F   0  0  0  0  0  0  0  0  0  0  0  0
   30.0330   31.9510   38.3250 F   0  0  0  0  0  0  0  0  0  0  0  0
   30.2980   29.9210   39.3750 F   0  0  0  0  0  0  0  0  0  0  0  0
  1  2  1  0  0  0  0
  1  5  2  0  0  0  0
  2  3  2  0  0  0  0
  3  4  1  0  0  0  0
  3  7  1  0  0  0  0
  4 21  1  0  0  0  0
  5  4  1  0  0  0  0
  6  2  1  0  0  0  0
  7  8  1  0  0  0  0
  7 17  1  0  0  0  0
  8 10  2  0  0  0  0
  9  8  1  0  0  0  0
 10 11  1  0  0  0  0
 11 12  1  0  0  0  0
 12 13  2  0  0  0  0
 12 18  1  0  0  0  0
 14 15  1  0  0  0  0
 14 13  1  0  0  0  0
 16 14  2  0  0  0  0
 17 16  1  0  0  0  0
 17 11  2  0  0  0  0
 18 20  1  0  0  0  0
 19 18  1  0  0  0  0
 21 24  1  0  0  0  0
 21 22  1  0  0  0  0
 21 23  1  0  0  0  0
 25 28  1  0  0  0  0
 25  1  1  0  0  0  0
 26 25  1  0  0  0  0
 27 25  1  0  0  0  0
 28 29  1  0  0  0  0
 30 28  1  0  0  0  0
 31 36  2  0  0  0  0
 31 32  1  0  0  0  0
 32 33  2  0  0  0  0
 33 34  1  0  0  0  0
 33 39  1  0  0  0  0
 35 28  1  0  0  0  0
 35 34  2  0  0  0  0
 36 35  1  0  0  0  0
 37 31  1  0  0  0  0
 38 32  1  0  0  0  0
 39 41  1  0  0  0  0
 39 42  1  0  0  0  0
 40 39  1  0  0  0  0
M  END
>  <minimizedAffinity>
-6.00579309

$$$$
