
 OpenBabel03252509023D

 53 56  0  0  1  0  0  0  0  0999 V2000
   47.0440   34.3250   43.2360 N   0  0  0  0  0  0  0  0  0  0  0  0
   46.6940   34.8800   41.9790 C   0  0  0  0  0  0  0  0  0  0  0  0
   45.2680   34.6190   41.5620 C   0  0  0  0  0  0  0  0  0  0  0  0
   44.2790   34.5940   42.7130 C   0  0  0  0  0  0  0  0  0  0  0  0
   44.9600   34.9480   44.0250 C   0  0  0  0  0  0  0  0  0  0  0  0
   46.1070   33.8620   44.1270 C   0  0  2  0  0  0  0  0  0  0  0  0
   46.8320   35.9950   42.0820 H   0  0  0  0  0  0  0  0  0  0  0  0
   47.3310   34.5860   41.1340 H   0  0  0  0  0  0  0  0  0  0  0  0
   44.9570   35.4760   40.9050 H   0  0  0  0  0  0  0  0  0  0  0  0
   45.1940   33.7240   40.9130 H   0  0  0  0  0  0  0  0  0  0  0  0
   43.9310   33.5410   42.8020 H   0  0  0  0  0  0  0  0  0  0  0  0
   43.3920   35.2250   42.5200 H   0  0  0  0  0  0  0  0  0  0  0  0
   45.4250   35.9320   43.9570 H   0  0  0  0  0  0  0  0  0  0  0  0
   44.2560   34.7930   44.8430 H   0  0  0  0  0  0  0  0  0  0  0  0
   45.6310   32.8820   43.9220 H   0  0  0  0  0  0  0  0  0  0  0  0
   48.3820   33.7900   43.2970 C   0  0  0  0  0  0  0  0  0  0  0  0
   48.7330   33.9390   44.3540 H   0  0  0  0  0  0  0  0  0  0  0  0
   49.0230   34.4330   42.6570 H   0  0  0  0  0  0  0  0  0  0  0  0
   48.3270   32.3610   42.8950 C   0  0  0  0  0  0  0  0  0  0  0  0
   48.5430   31.7080   43.7530 H   0  0  0  0  0  0  0  0  0  0  0  0
   47.3190   32.0860   42.4690 H   0  0  0  0  0  0  0  0  0  0  0  0
   51.5480   31.8860   41.0330 C   0  0  0  0  0  0  0  0  0  0  0  0
   50.6200   32.1210   42.0660 C   0  0  0  0  0  0  0  0  0  0  0  0
   49.2840   32.1110   41.7930 C   0  0  0  0  0  0  0  0  0  0  0  0
   48.9170   31.8750   40.5360 N   0  0  0  0  0  0  0  0  0  0  0  0
   49.7860   31.6490   39.5410 C   0  0  0  0  0  0  0  0  0  0  0  0
   51.1100   31.6520   39.7750 N   0  0  0  0  0  0  0  0  0  0  0  0
   52.6050   31.8950   41.2590 H   0  0  0  0  0  0  0  0  0  0  0  0
   51.0490   32.3010   43.0510 H   0  0  0  0  0  0  0  0  0  0  0  0
   49.2830   31.4800   38.6000 H   0  0  0  0  0  0  0  0  0  0  0  0
   46.4820   34.0140   45.4490 O   0  0  0  0  0  0  0  0  0  0  0  0
   45.8830   31.4210   45.4710 O   0  0  0  0  0  0  0  0  0  0  0  0
   46.2620   32.6090   46.3510 P   0  0  2  0  0  0  0  0  0  0  0  0
   44.8730   32.8850   47.3090 O   0  0  0  0  0  0  0  0  0  0  0  0
   45.1360   33.3520   48.1440 H   0  0  0  0  0  0  0  0  0  0  0  0
   47.5330   32.2720   47.3650 O   0  0  0  0  0  0  0  0  0  0  0  0
   47.8450   30.9250   47.2860 C   0  0  0  0  0  0  0  0  0  0  0  0
   48.3000   30.6260   46.3390 H   0  0  0  0  0  0  0  0  0  0  0  0
   46.9040   30.3410   47.4130 H   0  0  0  0  0  0  0  0  0  0  0  0
   48.6810   30.6050   48.4350 N   0  0  0  0  0  0  0  0  0  0  0  0
   49.0540   31.5920   49.2910 C   0  0  0  0  0  0  0  0  0  0  0  0
   48.8080   32.6610   49.2490 H   0  0  0  0  0  0  0  0  0  0  0  0
   49.8240   31.0690   50.2790 N   0  0  0  0  0  0  0  0  0  0  0  0
   49.9350   29.7330   50.0390 C   0  0  0  0  0  0  0  0  0  0  0  0
   50.5570   28.6460   50.6350 C   0  0  0  0  0  0  0  0  0  0  0  0
   50.4290   27.4300   50.0750 N   0  0  0  0  0  0  0  0  0  0  0  0
   49.7270   27.2160   48.9630 C   0  0  0  0  0  0  0  0  0  0  0  0
   49.7200   26.1930   48.6420 H   0  0  0  0  0  0  0  0  0  0  0  0
   49.1080   28.2330   48.3500 N   0  0  0  0  0  0  0  0  0  0  0  0
   49.2110   29.4590   48.8780 C   0  0  0  0  0  0  0  0  0  0  0  0
   51.2970   28.9030   51.8150 N   0  0  0  0  0  0  0  0  0  0  0  0
   51.0190   29.0110   52.8280 H   0  0  0  0  0  0  0  0  0  0  0  0
   52.2790   29.0650   52.1040 H   0  0  0  0  0  0  0  0  0  0  0  0
  1 16  1  0  0  0  0
  1  6  1  0  0  0  0
  2  7  1  0  0  0  0
  2  1  1  0  0  0  0
  3  2  1  0  0  0  0
  3  4  1  0  0  0  0
  4 11  1  0  0  0  0
  4  5  1  0  0  0  0
  5  6  1  0  0  0  0
  5 14  1  0  0  0  0
  6 15  1  6  0  0  0
  6 31  1  0  0  0  0
  8  2  1  0  0  0  0
  9  3  1  0  0  0  0
 10  3  1  0  0  0  0
 12  4  1  0  0  0  0
 13  5  1  0  0  0  0
 16 17  1  0  0  0  0
 18 16  1  0  0  0  0
 19 16  1  0  0  0  0
 19 20  1  0  0  0  0
 21 19  1  0  0  0  0
 22 28  1  0  0  0  0
 22 23  1  0  0  0  0
 23 29  1  0  0  0  0
 24 23  2  0  0  0  0
 24 19  1  0  0  0  0
 25 24  1  0  0  0  0
 26 27  1  0  0  0  0
 26 25  2  0  0  0  0
 27 22  2  0  0  0  0
 30 26  1  0  0  0  0
 31 33  1  0  0  0  0
 33 32  2  6  0  0  0
 33 34  1  0  0  0  0
 33 36  1  0  0  0  0
 34 35  1  0  0  0  0
 37 36  1  0  0  0  0
 37 39  1  0  0  0  0
 37 40  1  0  0  0  0
 38 37  1  0  0  0  0
 40 50  1  0  0  0  0
 40 41  1  0  0  0  0
 41 43  2  0  0  0  0
 42 41  1  0  0  0  0
 44 43  1  0  0  0  0
 44 45  1  0  0  0  0
 45 51  1  0  0  0  0
 46 45  2  0  0  0  0
 47 46  1  0  0  0  0
 48 47  1  0  0  0  0
 49 50  1  0  0  0  0
 49 47  2  0  0  0  0
 50 44  2  0  0  0  0
 51 53  1  0  0  0  0
 51 52  1  0  0  0  0
M  END
>  <minimizedAffinity>
-5.41230679

>  <minimizedRMSD>
3.40130925

$$$$
