
 OpenBabel03252509033D

 53 56  0  0  1  0  0  0  0  0999 V2000
   46.6450   34.4830   43.6250 N   0  0  0  0  0  0  0  0  0  0  0  0
   46.1790   35.4540   42.7030 C   0  0  0  0  0  0  0  0  0  0  0  0
   44.6780   35.5800   42.6410 C   0  0  0  0  0  0  0  0  0  0  0  0
   43.9800   35.3620   43.9710 C   0  0  0  0  0  0  0  0  0  0  0  0
   44.9900   35.1670   45.0910 C   0  0  0  0  0  0  0  0  0  0  0  0
   45.8360   33.9270   44.5860 C   0  0  2  0  0  0  0  0  0  0  0  0
   46.6010   36.4410   43.0520 H   0  0  0  0  0  0  0  0  0  0  0  0
   46.5320   35.3380   41.6690 H   0  0  0  0  0  0  0  0  0  0  0  0
   44.4500   36.6400   42.3430 H   0  0  0  0  0  0  0  0  0  0  0  0
   44.2540   34.9600   41.8280 H   0  0  0  0  0  0  0  0  0  0  0  0
   43.4160   34.4080   43.8740 H   0  0  0  0  0  0  0  0  0  0  0  0
   43.2520   36.1610   44.2020 H   0  0  0  0  0  0  0  0  0  0  0  0
   45.6540   36.0300   45.1580 H   0  0  0  0  0  0  0  0  0  0  0  0
   44.4610   34.8830   46.0000 H   0  0  0  0  0  0  0  0  0  0  0  0
   45.1050   33.1560   44.2720 H   0  0  0  0  0  0  0  0  0  0  0  0
   47.7950   33.7390   43.1730 C   0  0  0  0  0  0  0  0  0  0  0  0
   48.3460   33.4180   44.0990 H   0  0  0  0  0  0  0  0  0  0  0  0
   48.4600   34.4520   42.6410 H   0  0  0  0  0  0  0  0  0  0  0  0
   47.3150   32.5970   42.3540 C   0  0  0  0  0  0  0  0  0  0  0  0
   47.6170   31.6410   42.8050 H   0  0  0  0  0  0  0  0  0  0  0  0
   46.1930   32.6090   42.2390 H   0  0  0  0  0  0  0  0  0  0  0  0
   49.4020   32.0210   39.2910 C   0  0  0  0  0  0  0  0  0  0  0  0
   48.8870   31.9280   40.5980 C   0  0  0  0  0  0  0  0  0  0  0  0
   47.8380   32.7130   40.9730 C   0  0  0  0  0  0  0  0  0  0  0  0
   47.3420   33.5490   40.0630 N   0  0  0  0  0  0  0  0  0  0  0  0
   47.8180   33.6520   38.8150 C   0  0  0  0  0  0  0  0  0  0  0  0
   48.8520   32.8910   38.4120 N   0  0  0  0  0  0  0  0  0  0  0  0
   50.2330   31.3940   39.0030 H   0  0  0  0  0  0  0  0  0  0  0  0
   49.3820   31.2050   41.2460 H   0  0  0  0  0  0  0  0  0  0  0  0
   47.2770   34.3860   38.2390 H   0  0  0  0  0  0  0  0  0  0  0  0
   46.5090   33.5910   45.7460 O   0  0  0  0  0  0  0  0  0  0  0  0
   45.6660   31.1570   45.0820 O   0  0  0  0  0  0  0  0  0  0  0  0
   46.2270   32.0010   46.2220 P   0  0  2  0  0  0  0  0  0  0  0  0
   44.9510   32.0770   47.3590 O   0  0  0  0  0  0  0  0  0  0  0  0
   45.3240   32.2560   48.2610 H   0  0  0  0  0  0  0  0  0  0  0  0
   47.5360   31.2920   46.9580 O   0  0  0  0  0  0  0  0  0  0  0  0
   47.5810   29.9470   46.6280 C   0  0  0  0  0  0  0  0  0  0  0  0
   47.8330   29.7520   45.5840 H   0  0  0  0  0  0  0  0  0  0  0  0
   46.5770   29.5060   46.8270 H   0  0  0  0  0  0  0  0  0  0  0  0
   48.5010   29.3040   47.5560 N   0  0  0  0  0  0  0  0  0  0  0  0
   49.4860   30.0340   48.1410 C   0  0  0  0  0  0  0  0  0  0  0  0
   49.7110   31.1010   48.0150 H   0  0  0  0  0  0  0  0  0  0  0  0
   50.2160   29.2350   48.9600 N   0  0  0  0  0  0  0  0  0  0  0  0
   49.6810   27.9850   48.8880 C   0  0  0  0  0  0  0  0  0  0  0  0
   49.9320   26.7420   49.4490 C   0  0  0  0  0  0  0  0  0  0  0  0
   49.1480   25.7030   49.1150 N   0  0  0  0  0  0  0  0  0  0  0  0
   48.1290   25.8080   48.2640 C   0  0  0  0  0  0  0  0  0  0  0  0
   47.5990   24.8910   48.1010 H   0  0  0  0  0  0  0  0  0  0  0  0
   47.8460   26.9870   47.6960 N   0  0  0  0  0  0  0  0  0  0  0  0
   48.6050   28.0460   48.0020 C   0  0  0  0  0  0  0  0  0  0  0  0
   51.0210   26.6590   50.3520 N   0  0  0  0  0  0  0  0  0  0  0  0
   51.1240   26.8900   51.3760 H   0  0  0  0  0  0  0  0  0  0  0  0
   52.0170   26.3720   50.3530 H   0  0  0  0  0  0  0  0  0  0  0  0
  1  6  1  0  0  0  0
  2  7  1  0  0  0  0
  2  1  1  0  0  0  0
  3  2  1  0  0  0  0
  3  4  1  0  0  0  0
  4 12  1  0  0  0  0
  4  5  1  0  0  0  0
  5 13  1  0  0  0  0
  5 14  1  0  0  0  0
  6 15  1  6  0  0  0
  6  5  1  0  0  0  0
  6 31  1  0  0  0  0
  8  2  1  0  0  0  0
  9  3  1  0  0  0  0
 10  3  1  0  0  0  0
 11  4  1  0  0  0  0
 16  1  1  0  0  0  0
 16 17  1  0  0  0  0
 18 16  1  0  0  0  0
 19 20  1  0  0  0  0
 19 16  1  0  0  0  0
 21 19  1  0  0  0  0
 22 23  1  0  0  0  0
 23 24  2  0  0  0  0
 23 29  1  0  0  0  0
 24 19  1  0  0  0  0
 25 24  1  0  0  0  0
 26 25  2  0  0  0  0
 27 26  1  0  0  0  0
 27 22  2  0  0  0  0
 28 22  1  0  0  0  0
 30 26  1  0  0  0  0
 31 33  1  0  0  0  0
 33 32  2  6  0  0  0
 33 36  1  0  0  0  0
 33 34  1  0  0  0  0
 34 35  1  0  0  0  0
 37 39  1  0  0  0  0
 37 36  1  0  0  0  0
 37 40  1  0  0  0  0
 38 37  1  0  0  0  0
 40 50  1  0  0  0  0
 40 41  1  0  0  0  0
 41 43  2  0  0  0  0
 42 41  1  0  0  0  0
 44 43  1  0  0  0  0
 44 45  1  0  0  0  0
 45 51  1  0  0  0  0
 46 45  2  0  0  0  0
 47 46  1  0  0  0  0
 48 47  1  0  0  0  0
 49 50  1  0  0  0  0
 49 47  2  0  0  0  0
 50 44  2  0  0  0  0
 51 53  1  0  0  0  0
 51 52  1  0  0  0  0
M  END
>  <minimizedAffinity>
-4.78968859

>  <minimizedRMSD>
1.90933955

$$$$
