
 OpenBabel03252509033D

 53 56  0  0  1  0  0  0  0  0999 V2000
   46.7020   34.3670   43.4820 N   0  0  0  0  0  0  0  0  0  0  0  0
   46.4610   34.9570   42.2160 C   0  0  0  0  0  0  0  0  0  0  0  0
   45.0080   34.9780   41.8090 C   0  0  0  0  0  0  0  0  0  0  0  0
   44.0420   35.1720   42.9630 C   0  0  0  0  0  0  0  0  0  0  0  0
   44.7900   35.4070   44.2660 C   0  0  0  0  0  0  0  0  0  0  0  0
   45.6990   34.1160   44.3850 C   0  0  2  0  0  0  0  0  0  0  0  0
   46.8190   36.0250   42.2960 H   0  0  0  0  0  0  0  0  0  0  0  0
   47.0200   34.5270   41.3740 H   0  0  0  0  0  0  0  0  0  0  0  0
   44.8690   35.8680   41.1370 H   0  0  0  0  0  0  0  0  0  0  0  0
   44.7530   34.1040   41.1780 H   0  0  0  0  0  0  0  0  0  0  0  0
   43.4920   34.2110   43.0740 H   0  0  0  0  0  0  0  0  0  0  0  0
   43.2980   35.9640   42.7620 H   0  0  0  0  0  0  0  0  0  0  0  0
   45.4420   36.2780   44.1780 H   0  0  0  0  0  0  0  0  0  0  0  0
   44.0750   35.4100   45.0890 H   0  0  0  0  0  0  0  0  0  0  0  0
   45.0350   33.2480   44.2010 H   0  0  0  0  0  0  0  0  0  0  0  0
   47.9070   33.5770   43.5480 C   0  0  0  0  0  0  0  0  0  0  0  0
   48.0930   33.3770   44.6390 H   0  0  0  0  0  0  0  0  0  0  0  0
   48.7430   34.2210   43.1980 H   0  0  0  0  0  0  0  0  0  0  0  0
   47.6930   32.3400   42.7550 C   0  0  0  0  0  0  0  0  0  0  0  0
   47.5530   31.4740   43.4170 H   0  0  0  0  0  0  0  0  0  0  0  0
   46.7980   32.4300   42.0750 H   0  0  0  0  0  0  0  0  0  0  0  0
   51.2090   31.9510   41.5080 C   0  0  0  0  0  0  0  0  0  0  0  0
   50.1030   32.1560   42.3550 C   0  0  0  0  0  0  0  0  0  0  0  0
   48.8410   32.1210   41.8440 C   0  0  0  0  0  0  0  0  0  0  0  0
   48.7140   31.8920   40.5390 N   0  0  0  0  0  0  0  0  0  0  0  0
   49.7530   31.6940   39.7180 C   0  0  0  0  0  0  0  0  0  0  0  0
   51.0130   31.7220   40.1890 N   0  0  0  0  0  0  0  0  0  0  0  0
   52.2070   31.9790   41.9220 H   0  0  0  0  0  0  0  0  0  0  0  0
   50.3430   32.3340   43.4030 H   0  0  0  0  0  0  0  0  0  0  0  0
   49.4340   31.5260   38.7000 H   0  0  0  0  0  0  0  0  0  0  0  0
   46.1060   34.2140   45.7030 O   0  0  0  0  0  0  0  0  0  0  0  0
   45.6330   31.5990   45.5870 O   0  0  0  0  0  0  0  0  0  0  0  0
   46.0380   32.7410   46.5140 P   0  0  2  0  0  0  0  0  0  0  0  0
   44.7340   32.8750   47.6130 O   0  0  0  0  0  0  0  0  0  0  0  0
   45.0540   33.2960   48.4530 H   0  0  0  0  0  0  0  0  0  0  0  0
   47.4140   32.4030   47.3800 O   0  0  0  0  0  0  0  0  0  0  0  0
   47.7400   31.0640   47.2290 C   0  0  0  0  0  0  0  0  0  0  0  0
   48.1860   30.8200   46.2630 H   0  0  0  0  0  0  0  0  0  0  0  0
   46.8070   30.4640   47.3380 H   0  0  0  0  0  0  0  0  0  0  0  0
   48.5940   30.6970   48.3510 N   0  0  0  0  0  0  0  0  0  0  0  0
   48.9980   31.6510   49.2300 C   0  0  0  0  0  0  0  0  0  0  0  0
   48.7660   32.7230   49.2260 H   0  0  0  0  0  0  0  0  0  0  0  0
   49.7790   31.0860   50.1840 N   0  0  0  0  0  0  0  0  0  0  0  0
   49.8670   29.7570   49.9000 C   0  0  0  0  0  0  0  0  0  0  0  0
   50.4850   28.6430   50.4470 C   0  0  0  0  0  0  0  0  0  0  0  0
   50.3280   27.4470   49.8520 N   0  0  0  0  0  0  0  0  0  0  0  0
   49.6020   27.2790   48.7490 C   0  0  0  0  0  0  0  0  0  0  0  0
   49.5730   26.2670   48.3960 H   0  0  0  0  0  0  0  0  0  0  0  0
   48.9850   28.3230   48.1820 N   0  0  0  0  0  0  0  0  0  0  0  0
   49.1170   29.5290   48.7450 C   0  0  0  0  0  0  0  0  0  0  0  0
   51.2510   28.8520   51.6210 N   0  0  0  0  0  0  0  0  0  0  0  0
   50.9970   28.9310   52.6410 H   0  0  0  0  0  0  0  0  0  0  0  0
   52.2420   28.9920   51.8940 H   0  0  0  0  0  0  0  0  0  0  0  0
  1 16  1  0  0  0  0
  1  6  1  0  0  0  0
  2  7  1  0  0  0  0
  2  1  1  0  0  0  0
  3  2  1  0  0  0  0
  3  4  1  0  0  0  0
  4 11  1  0  0  0  0
  4  5  1  0  0  0  0
  5  6  1  0  0  0  0
  5 14  1  0  0  0  0
  6 15  1  6  0  0  0
  6 31  1  0  0  0  0
  8  2  1  0  0  0  0
  9  3  1  0  0  0  0
 10  3  1  0  0  0  0
 12  4  1  0  0  0  0
 13  5  1  0  0  0  0
 16 17  1  0  0  0  0
 18 16  1  0  0  0  0
 19 20  1  0  0  0  0
 19 16  1  0  0  0  0
 21 19  1  0  0  0  0
 22 28  1  0  0  0  0
 22 23  1  0  0  0  0
 23 29  1  0  0  0  0
 24 23  2  0  0  0  0
 24 19  1  0  0  0  0
 25 24  1  0  0  0  0
 26 27  1  0  0  0  0
 26 25  2  0  0  0  0
 27 22  2  0  0  0  0
 30 26  1  0  0  0  0
 31 33  1  0  0  0  0
 33 32  2  6  0  0  0
 33 36  1  0  0  0  0
 33 34  1  0  0  0  0
 34 35  1  0  0  0  0
 37 39  1  0  0  0  0
 37 36  1  0  0  0  0
 37 40  1  0  0  0  0
 38 37  1  0  0  0  0
 40 50  1  0  0  0  0
 40 41  1  0  0  0  0
 41 43  2  0  0  0  0
 42 41  1  0  0  0  0
 44 43  1  0  0  0  0
 44 45  1  0  0  0  0
 45 51  1  0  0  0  0
 46 45  2  0  0  0  0
 47 46  1  0  0  0  0
 48 47  1  0  0  0  0
 49 50  1  0  0  0  0
 49 47  2  0  0  0  0
 50 44  2  0  0  0  0
 51 53  1  0  0  0  0
 51 52  1  0  0  0  0
M  END
>  <minimizedAffinity>
-5.51630783

>  <minimizedRMSD>
2.96454477

$$$$
