
 OpenBabel03242518423D

 24 26  0  0  0  0  0  0  0  0999 V2000
   44.8790   35.9840   43.8430 C   0  0  0  0  0  0  0  0  0  0  0  0
   44.6230   35.4040   42.5910 C   0  0  0  0  0  0  0  0  0  0  0  0
   44.7000   33.9910   42.5220 C   0  0  0  0  0  0  0  0  0  0  0  0
   45.0080   33.2910   43.6310 N   0  0  0  0  0  0  0  0  0  0  0  0
   45.2450   33.9000   44.8120 C   0  0  0  0  0  0  0  0  0  0  0  0
   45.1800   35.2450   44.9140 N   0  0  0  0  0  0  0  0  0  0  0  0
   44.3750   35.9520   41.6910 H   0  0  0  0  0  0  0  0  0  0  0  0
   44.5280   33.4370   41.6340 H   0  0  0  0  0  0  0  0  0  0  0  0
   45.5750   33.2350   46.0270 N   0  0  0  0  0  0  0  0  0  0  0  0
   45.0590   33.5840   47.2240 C   0  0  0  0  0  0  0  0  0  0  0  0
   44.3570   34.3600   47.5120 H   0  0  0  0  0  0  0  0  0  0  0  0
   45.5370   32.7900   48.2190 N   0  0  0  0  0  0  0  0  0  0  0  0
   46.3830   31.9060   47.6450 C   0  0  0  0  0  0  0  0  0  0  0  0
   47.1550   30.8770   48.1190 C   0  0  0  0  0  0  0  0  0  0  0  0
   47.8920   30.1910   47.2410 N   0  0  0  0  0  0  0  0  0  0  0  0
   47.8860   30.4910   45.9280 C   0  0  0  0  0  0  0  0  0  0  0  0
   48.5170   29.8820   45.2760 H   0  0  0  0  0  0  0  0  0  0  0  0
   47.1460   31.4920   45.4160 N   0  0  0  0  0  0  0  0  0  0  0  0
   46.4000   32.1910   46.2800 C   0  0  0  0  0  0  0  0  0  0  0  0
   47.1270   30.6030   49.4930 N   0  0  0  0  0  0  0  0  0  0  0  0
   47.7990   30.0790   50.0910 H   0  0  0  0  0  0  0  0  0  0  0  0
   46.3670   30.9210   50.1150 H   0  0  0  0  0  0  0  0  0  0  0  0
   44.8070   37.3530   43.9240 O   0  0  0  0  0  0  0  0  0  0  0  0
   45.0690   37.8960   44.7240 H   0  0  0  0  0  0  0  0  0  0  0  0
  1 23  1  0  0  0  0
  1  6  1  0  0  0  0
  2  1  2  0  0  0  0
  3  2  1  0  0  0  0
  3  4  2  0  0  0  0
  4  5  1  0  0  0  0
  5  6  2  0  0  0  0
  5  9  1  0  0  0  0
  7  2  1  0  0  0  0
  8  3  1  0  0  0  0
  9 19  1  0  0  0  0
  9 10  1  0  0  0  0
 10 11  1  0  0  0  0
 10 12  2  0  0  0  0
 13 14  1  0  0  0  0
 13 12  1  0  0  0  0
 14 20  1  0  0  0  0
 15 14  2  0  0  0  0
 16 15  1  0  0  0  0
 17 16  1  0  0  0  0
 18 16  2  0  0  0  0
 18 19  1  0  0  0  0
 19 13  2  0  0  0  0
 20 21  1  0  0  0  0
 20 22  1  0  0  0  0
 23 24  1  0  0  0  0
M  END
>  <minimizedAffinity>
-5.47623968

>  <minimizedRMSD>
2.39141607

$$$$
