
 OpenBabel03252504093D

 30 32  0  0  0  0  0  0  0  0999 V2000
   46.6690   34.1860   42.6710 C   0  0  0  0  0  0  0  0  0  0  0  0
   45.5140   33.6260   42.1180 C   0  0  0  0  0  0  0  0  0  0  0  0
   44.8200   32.6670   42.8600 C   0  0  0  0  0  0  0  0  0  0  0  0
   45.2990   32.3230   44.0810 N   0  0  0  0  0  0  0  0  0  0  0  0
   46.4240   32.8880   44.5840 C   0  0  0  0  0  0  0  0  0  0  0  0
   47.1140   33.8190   43.8890 N   0  0  0  0  0  0  0  0  0  0  0  0
   43.9250   32.2230   42.4460 H   0  0  0  0  0  0  0  0  0  0  0  0
   46.7980   32.4240   45.8760 N   0  0  0  0  0  0  0  0  0  0  0  0
   46.4960   33.1210   47.0090 C   0  0  0  0  0  0  0  0  0  0  0  0
   45.9650   34.0590   47.0720 H   0  0  0  0  0  0  0  0  0  0  0  0
   46.9490   32.4850   48.1010 N   0  0  0  0  0  0  0  0  0  0  0  0
   47.5550   31.3600   47.6810 C   0  0  0  0  0  0  0  0  0  0  0  0
   48.2000   30.3280   48.3420 C   0  0  0  0  0  0  0  0  0  0  0  0
   48.7180   29.3110   47.6030 N   0  0  0  0  0  0  0  0  0  0  0  0
   48.5940   29.3270   46.2460 C   0  0  0  0  0  0  0  0  0  0  0  0
   49.0460   28.4650   45.7750 H   0  0  0  0  0  0  0  0  0  0  0  0
   47.9660   30.3290   45.5660 N   0  0  0  0  0  0  0  0  0  0  0  0
   47.4560   31.3320   46.3060 C   0  0  0  0  0  0  0  0  0  0  0  0
   45.0650   34.0690   40.7650 C   0  0  0  0  0  0  0  0  0  0  0  0
   44.6280   35.3870   40.8270 F   0  0  0  0  0  0  0  0  0  0  0  0
   46.1640   34.0590   39.9250 F   0  0  0  0  0  0  0  0  0  0  0  0
   44.0570   33.3370   40.2340 F   0  0  0  0  0  0  0  0  0  0  0  0
   48.2670   30.4200   49.7570 N   0  0  0  0  0  0  0  0  0  0  0  0
   47.5160   29.7940   50.1760 H   0  0  0  0  0  0  0  0  0  0  0  0
   48.8910   30.9660   50.3890 H   0  0  0  0  0  0  0  0  0  0  0  0
   47.3290   35.1080   41.9480 O   0  0  0  0  0  0  0  0  0  0  0  0
   48.6570   35.0750   41.4960 C   0  0  0  0  0  0  0  0  0  0  0  0
   49.4360   35.6310   42.5250 F   0  0  0  0  0  0  0  0  0  0  0  0
   49.0140   33.7810   41.2010 F   0  0  0  0  0  0  0  0  0  0  0  0
   48.8240   35.9210   40.4150 F   0  0  0  0  0  0  0  0  0  0  0  0
  1  6  1  0  0  0  0
  2  1  2  0  0  0  0
  2  3  1  0  0  0  0
  3  4  2  0  0  0  0
  4  5  1  0  0  0  0
  5  8  1  0  0  0  0
  6  5  2  0  0  0  0
  7  3  1  0  0  0  0
  8 18  1  0  0  0  0
  8  9  1  0  0  0  0
  9 10  1  0  0  0  0
  9 11  2  0  0  0  0
 12 11  1  0  0  0  0
 12 13  1  0  0  0  0
 13 23  1  0  0  0  0
 14 13  2  0  0  0  0
 15 14  1  0  0  0  0
 16 15  1  0  0  0  0
 17 15  2  0  0  0  0
 17 18  1  0  0  0  0
 18 12  2  0  0  0  0
 19 20  1  0  0  0  0
 19  2  1  0  0  0  0
 21 19  1  0  0  0  0
 22 19  1  0  0  0  0
 23 24  1  0  0  0  0
 23 25  1  0  0  0  0
 26  1  1  0  0  0  0
 27 26  1  0  0  0  0
 27 28  1  0  0  0  0
 29 27  1  0  0  0  0
 30 27  1  0  0  0  0
M  END
>  <minimizedAffinity>
-6.13704634

>  <minimizedRMSD>
2.28188252

$$$$
