
 OpenBabel03252508563D

 29 31  0  0  0  0  0  0  0  0999 V2000
   46.4140   33.4050   41.2100 C   0  0  0  0  0  0  0  0  0  0  0  0
   47.1600   33.1870   41.9810 H   0  0  0  0  0  0  0  0  0  0  0  0
   45.7040   32.5750   41.0130 H   0  0  0  0  0  0  0  0  0  0  0  0
   47.0600   33.6250   39.9080 N   0  0  0  0  0  0  0  0  0  0  0  0
   48.0860   34.4510   39.5790 C   0  0  0  0  0  0  0  0  0  0  0  0
   48.5720   35.0880   40.3250 H   0  0  0  0  0  0  0  0  0  0  0  0
   48.3470   34.3260   38.2640 N   0  0  0  0  0  0  0  0  0  0  0  0
   47.4860   33.4300   37.7990 C   0  0  0  0  0  0  0  0  0  0  0  0
   47.3340   32.9460   36.5230 C   0  0  0  0  0  0  0  0  0  0  0  0
   46.3660   32.0170   36.2830 N   0  0  0  0  0  0  0  0  0  0  0  0
   45.5720   31.5890   37.3070 C   0  0  0  0  0  0  0  0  0  0  0  0
   44.7930   30.8440   37.1270 H   0  0  0  0  0  0  0  0  0  0  0  0
   45.7200   32.0620   38.5600 N   0  0  0  0  0  0  0  0  0  0  0  0
   46.6600   32.9660   38.8000 C   0  0  0  0  0  0  0  0  0  0  0  0
   48.1240   33.3460   35.4050 N   0  0  0  0  0  0  0  0  0  0  0  0
   48.5040   32.6940   34.6850 H   0  0  0  0  0  0  0  0  0  0  0  0
   48.4180   34.3300   35.1670 H   0  0  0  0  0  0  0  0  0  0  0  0
   45.6210   34.6720   41.5130 C   0  0  0  0  0  0  0  0  0  0  0  0
   44.6650   34.6120   40.9630 H   0  0  0  0  0  0  0  0  0  0  0  0
   46.1750   35.5720   41.1960 H   0  0  0  0  0  0  0  0  0  0  0  0
   44.5010   35.8900   44.8860 C   0  0  0  0  0  0  0  0  0  0  0  0
   44.7230   35.8510   43.4990 C   0  0  0  0  0  0  0  0  0  0  0  0
   45.3710   34.7430   42.9750 C   0  0  0  0  0  0  0  0  0  0  0  0
   45.7520   33.7630   43.8260 N   0  0  0  0  0  0  0  0  0  0  0  0
   45.5300   33.8150   45.1580 C   0  0  0  0  0  0  0  0  0  0  0  0
   44.9050   34.8780   45.6890 N   0  0  0  0  0  0  0  0  0  0  0  0
   43.9910   36.7900   45.2020 H   0  0  0  0  0  0  0  0  0  0  0  0
   44.4150   36.6410   42.8270 H   0  0  0  0  0  0  0  0  0  0  0  0
   45.8630   32.9930   45.7770 H   0  0  0  0  0  0  0  0  0  0  0  0
  1 18  1  0  0  0  0
  1  2  1  0  0  0  0
  3  1  1  0  0  0  0
  4  1  1  0  0  0  0
  5  4  1  0  0  0  0
  5  6  1  0  0  0  0
  7  5  2  0  0  0  0
  8  7  1  0  0  0  0
  8 14  1  0  0  0  0
  9  8  2  0  0  0  0
 10  9  1  0  0  0  0
 10 11  2  0  0  0  0
 11 13  1  0  0  0  0
 12 11  1  0  0  0  0
 13 14  2  0  0  0  0
 14  4  1  0  0  0  0
 15  9  1  0  0  0  0
 16 15  1  0  0  0  0
 17 15  1  0  0  0  0
 18 23  1  0  0  0  0
 19 18  1  0  0  0  0
 20 18  1  0  0  0  0
 21 27  1  0  0  0  0
 21 26  1  0  0  0  0
 22 21  2  0  0  0  0
 23 22  1  0  0  0  0
 23 24  2  0  0  0  0
 24 25  1  0  0  0  0
 25 26  2  0  0  0  0
 25 29  1  0  0  0  0
 28 22  1  0  0  0  0
M  END
>  <minimizedAffinity>
-4.53052664

>  <minimizedRMSD>
2.08718657

$$$$
