
 OpenBabel03252508563D

 29 31  0  0  0  0  0  0  0  0999 V2000
   47.4560   33.6050   41.2340 C   0  0  0  0  0  0  0  0  0  0  0  0
   48.4710   33.2840   41.4890 H   0  0  0  0  0  0  0  0  0  0  0  0
   46.6550   32.9320   41.6060 H   0  0  0  0  0  0  0  0  0  0  0  0
   47.2590   33.6060   39.7770 N   0  0  0  0  0  0  0  0  0  0  0  0
   48.0940   34.0220   38.7920 C   0  0  0  0  0  0  0  0  0  0  0  0
   49.0840   34.4340   39.0140 H   0  0  0  0  0  0  0  0  0  0  0  0
   47.4970   33.8350   37.6000 N   0  0  0  0  0  0  0  0  0  0  0  0
   46.3070   33.3080   37.8610 C   0  0  0  0  0  0  0  0  0  0  0  0
   45.3110   32.9320   36.9950 C   0  0  0  0  0  0  0  0  0  0  0  0
   44.1590   32.4080   37.5050 N   0  0  0  0  0  0  0  0  0  0  0  0
   44.0210   32.2700   38.8540 C   0  0  0  0  0  0  0  0  0  0  0  0
   43.1030   31.8510   39.2760 H   0  0  0  0  0  0  0  0  0  0  0  0
   44.9980   32.6390   39.7060 N   0  0  0  0  0  0  0  0  0  0  0  0
   46.1190   33.1490   39.2180 C   0  0  0  0  0  0  0  0  0  0  0  0
   45.3830   33.0460   35.5760 N   0  0  0  0  0  0  0  0  0  0  0  0
   45.0630   32.3150   34.9050 H   0  0  0  0  0  0  0  0  0  0  0  0
   45.7620   33.8660   35.0340 H   0  0  0  0  0  0  0  0  0  0  0  0
   47.1620   35.0270   41.7050 C   0  0  0  0  0  0  0  0  0  0  0  0
   46.5970   35.5370   40.9060 H   0  0  0  0  0  0  0  0  0  0  0  0
   48.0970   35.5770   41.9080 H   0  0  0  0  0  0  0  0  0  0  0  0
   44.6040   35.8120   44.3420 C   0  0  0  0  0  0  0  0  0  0  0  0
   45.3530   35.8980   43.1550 C   0  0  0  0  0  0  0  0  0  0  0  0
   46.3550   34.9620   42.9490 C   0  0  0  0  0  0  0  0  0  0  0  0
   46.5540   34.0190   43.8980 N   0  0  0  0  0  0  0  0  0  0  0  0
   45.8250   33.9500   45.0330 C   0  0  0  0  0  0  0  0  0  0  0  0
   44.8500   34.8450   45.2560 N   0  0  0  0  0  0  0  0  0  0  0  0
   43.8480   36.5820   44.4150 H   0  0  0  0  0  0  0  0  0  0  0  0
   45.1850   36.6580   42.4030 H   0  0  0  0  0  0  0  0  0  0  0  0
   46.0420   33.1670   45.7480 H   0  0  0  0  0  0  0  0  0  0  0  0
  1  2  1  0  0  0  0
  1  3  1  0  0  0  0
  1 18  1  0  0  0  0
  4  1  1  0  0  0  0
  5  6  1  0  0  0  0
  5  4  1  0  0  0  0
  7  8  1  0  0  0  0
  7  5  2  0  0  0  0
  8 14  1  0  0  0  0
  9 10  1  0  0  0  0
  9  8  2  0  0  0  0
 10 11  2  0  0  0  0
 11 12  1  0  0  0  0
 11 13  1  0  0  0  0
 14 13  2  0  0  0  0
 14  4  1  0  0  0  0
 15  9  1  0  0  0  0
 16 15  1  0  0  0  0
 17 15  1  0  0  0  0
 18 20  1  0  0  0  0
 18 23  1  0  0  0  0
 19 18  1  0  0  0  0
 21 27  1  0  0  0  0
 21 26  1  0  0  0  0
 22 21  2  0  0  0  0
 23 22  1  0  0  0  0
 23 24  2  0  0  0  0
 24 25  1  0  0  0  0
 25 26  2  0  0  0  0
 25 29  1  0  0  0  0
 28 22  1  0  0  0  0
M  END
>  <minimizedAffinity>
-4.74831152

>  <minimizedRMSD>
3.0707128

$$$$
