
 OpenBabel03252504103D

 30 32  0  0  0  0  0  0  0  0999 V2000
   46.9110   33.9600   43.2430 C   0  0  0  0  0  0  0  0  0  0  0  0
   45.6430   33.7530   42.6950 C   0  0  0  0  0  0  0  0  0  0  0  0
   44.8800   32.6840   43.1720 C   0  0  0  0  0  0  0  0  0  0  0  0
   45.4050   31.8980   44.1430 N   0  0  0  0  0  0  0  0  0  0  0  0
   46.6400   32.1300   44.6500 C   0  0  0  0  0  0  0  0  0  0  0  0
   47.3990   33.1560   44.2080 N   0  0  0  0  0  0  0  0  0  0  0  0
   43.8960   32.5100   42.7570 H   0  0  0  0  0  0  0  0  0  0  0  0
   47.0500   31.2190   45.6630 N   0  0  0  0  0  0  0  0  0  0  0  0
   46.4610   31.1940   46.8930 C   0  0  0  0  0  0  0  0  0  0  0  0
   45.6560   31.8250   47.2400 H   0  0  0  0  0  0  0  0  0  0  0  0
   47.0150   30.2530   47.6750 N   0  0  0  0  0  0  0  0  0  0  0  0
   47.9770   29.6530   46.9500 C   0  0  0  0  0  0  0  0  0  0  0  0
   48.8690   28.6290   47.2220 C   0  0  0  0  0  0  0  0  0  0  0  0
   49.7350   28.2510   46.2450 N   0  0  0  0  0  0  0  0  0  0  0  0
   49.7100   28.8760   45.0350 C   0  0  0  0  0  0  0  0  0  0  0  0
   50.4460   28.4840   44.3450 H   0  0  0  0  0  0  0  0  0  0  0  0
   48.8440   29.8880   44.7370 N   0  0  0  0  0  0  0  0  0  0  0  0
   47.9900   30.2570   45.7090 C   0  0  0  0  0  0  0  0  0  0  0  0
   45.1500   34.6730   41.6270 C   0  0  0  0  0  0  0  0  0  0  0  0
   45.2060   35.9860   42.0820 F   0  0  0  0  0  0  0  0  0  0  0  0
   46.0220   34.5910   40.5560 F   0  0  0  0  0  0  0  0  0  0  0  0
   43.8800   34.4430   41.2210 F   0  0  0  0  0  0  0  0  0  0  0  0
   48.8010   28.0520   48.5170 N   0  0  0  0  0  0  0  0  0  0  0  0
   48.2620   27.1380   48.4570 H   0  0  0  0  0  0  0  0  0  0  0  0
   49.1720   28.3680   49.4380 H   0  0  0  0  0  0  0  0  0  0  0  0
   47.6370   34.9920   42.7760 O   0  0  0  0  0  0  0  0  0  0  0  0
   48.8430   34.9550   42.0580 C   0  0  0  0  0  0  0  0  0  0  0  0
   49.8670   35.1490   43.0000 F   0  0  0  0  0  0  0  0  0  0  0  0
   48.9520   33.7560   41.3960 F   0  0  0  0  0  0  0  0  0  0  0  0
   48.9290   36.0350   41.2000 F   0  0  0  0  0  0  0  0  0  0  0  0
  1  6  1  0  0  0  0
  2  3  1  0  0  0  0
  2  1  2  0  0  0  0
  3  4  2  0  0  0  0
  4  5  1  0  0  0  0
  5  8  1  0  0  0  0
  6  5  2  0  0  0  0
  7  3  1  0  0  0  0
  8 18  1  0  0  0  0
  8  9  1  0  0  0  0
  9 10  1  0  0  0  0
  9 11  2  0  0  0  0
 12 13  1  0  0  0  0
 12 11  1  0  0  0  0
 13 23  1  0  0  0  0
 14 13  2  0  0  0  0
 15 14  1  0  0  0  0
 16 15  1  0  0  0  0
 17 15  2  0  0  0  0
 17 18  1  0  0  0  0
 18 12  2  0  0  0  0
 19 20  1  0  0  0  0
 19  2  1  0  0  0  0
 21 19  1  0  0  0  0
 22 19  1  0  0  0  0
 23 25  1  0  0  0  0
 24 23  1  0  0  0  0
 26  1  1  0  0  0  0
 27 26  1  0  0  0  0
 27 28  1  0  0  0  0
 29 27  1  0  0  0  0
 30 27  1  0  0  0  0
M  END
>  <minimizedAffinity>
-5.45024681

>  <minimizedRMSD>
1.47057843

$$$$
