
 OpenBabel03242521433D

 39 42  0  0  1  0  0  0  0  0999 V2000
   37.6750   29.9900   40.9190 C   0  0  0  0  0  0  0  0  0  0  0  0
   38.7150   30.8900   40.6100 C   0  0  0  0  0  0  0  0  0  0  0  0
   38.8430   31.2890   39.2680 C   0  0  0  0  0  0  0  0  0  0  0  0
   37.9800   30.7990   38.3630 N   0  0  0  0  0  0  0  0  0  0  0  0
   36.9920   29.9320   38.7140 C   0  0  0  0  0  0  0  0  0  0  0  0
   36.8440   29.5310   39.9890 N   0  0  0  0  0  0  0  0  0  0  0  0
   39.3410   31.2150   41.4000 H   0  0  0  0  0  0  0  0  0  0  0  0
   36.3560   29.6000   37.9150 H   0  0  0  0  0  0  0  0  0  0  0  0
   40.4800   32.0820   37.5670 C   0  0  2  0  0  0  0  0  0  0  0  0
   39.9250   32.2230   38.9590 C   0  0  2  0  0  0  0  0  0  0  0  0
   41.0950   32.0200   39.7190 O   0  0  0  0  0  0  0  0  0  0  0  0
   42.0160   32.8680   39.1360 C   0  0  0  0  0  0  0  0  0  0  0  0
   41.6420   33.0780   37.6880 C   0  0  1  0  0  0  0  0  0  0  0  0
   40.9700   31.1080   37.3990 H   0  0  0  0  0  0  0  0  0  0  0  0
   39.5710   33.2440   39.1340 H   0  0  0  0  0  0  0  0  0  0  0  0
   43.0680   32.5160   39.2350 H   0  0  0  0  0  0  0  0  0  0  0  0
   41.9620   33.8530   39.6490 H   0  0  0  0  0  0  0  0  0  0  0  0
   41.3300   34.1130   37.4580 H   0  0  0  0  0  0  0  0  0  0  0  0
   39.5840   32.4230   36.5850 O   0  0  0  0  0  0  0  0  0  0  0  0
   38.7490   31.9280   36.7640 H   0  0  0  0  0  0  0  0  0  0  0  0
   42.6450   32.7200   36.8080 O   0  0  0  0  0  0  0  0  0  0  0  0
   42.7790   33.3480   36.0560 H   0  0  0  0  0  0  0  0  0  0  0  0
   37.5490   29.5560   42.3660 C   0  0  0  0  0  0  0  0  0  0  0  0
   38.3180   30.1560   42.9100 H   0  0  0  0  0  0  0  0  0  0  0  0
   36.5840   29.8600   42.7970 H   0  0  0  0  0  0  0  0  0  0  0  0
   37.8280   28.1560   42.4920 N   0  0  0  0  0  0  0  0  0  0  0  0
   36.9310   27.1820   42.2080 C   0  0  0  0  0  0  0  0  0  0  0  0
   35.9090   27.2550   41.8600 H   0  0  0  0  0  0  0  0  0  0  0  0
   37.4600   25.9700   42.4140 N   0  0  0  0  0  0  0  0  0  0  0  0
   38.7130   26.1640   42.8350 C   0  0  0  0  0  0  0  0  0  0  0  0
   39.7700   25.3590   43.2100 C   0  0  0  0  0  0  0  0  0  0  0  0
   40.9670   25.8490   43.6050 N   0  0  0  0  0  0  0  0  0  0  0  0
   41.1480   27.2020   43.6380 C   0  0  0  0  0  0  0  0  0  0  0  0
   42.1230   27.5750   43.9600 H   0  0  0  0  0  0  0  0  0  0  0  0
   40.1400   28.0110   43.2770 N   0  0  0  0  0  0  0  0  0  0  0  0
   38.9380   27.5430   42.8810 C   0  0  0  0  0  0  0  0  0  0  0  0
   39.5210   23.9670   43.1560 N   0  0  0  0  0  0  0  0  0  0  0  0
   38.9640   23.2290   43.6430 H   0  0  0  0  0  0  0  0  0  0  0  0
   39.7290   23.0800   42.6780 H   0  0  0  0  0  0  0  0  0  0  0  0
  1 23  1  0  0  0  0
  2  1  1  0  0  0  0
  2  7  1  0  0  0  0
  3  2  2  0  0  0  0
  4  5  2  0  0  0  0
  4  3  1  0  0  0  0
  5  6  1  0  0  0  0
  6  1  2  0  0  0  0
  8  5  1  0  0  0  0
  9 14  1  6  0  0  0
  9 13  1  0  0  0  0
  9 10  1  0  0  0  0
 10 15  1  1  0  0  0
 10  3  1  0  0  0  0
 10 11  1  0  0  0  0
 12 16  1  0  0  0  0
 12 17  1  0  0  0  0
 12 11  1  0  0  0  0
 13 18  1  6  0  0  0
 13 12  1  0  0  0  0
 19 20  1  0  0  0  0
 19  9  1  0  0  0  0
 21 13  1  0  0  0  0
 22 21  1  0  0  0  0
 23 26  1  0  0  0  0
 23 25  1  0  0  0  0
 23 24  1  0  0  0  0
 26 36  1  0  0  0  0
 27 29  2  0  0  0  0
 27 26  1  0  0  0  0
 28 27  1  0  0  0  0
 29 30  1  0  0  0  0
 30 36  2  0  0  0  0
 30 31  1  0  0  0  0
 31 32  2  0  0  0  0
 32 33  1  0  0  0  0
 33 34  1  0  0  0  0
 35 33  2  0  0  0  0
 36 35  1  0  0  0  0
 37 31  1  0  0  0  0
 37 38  1  0  0  0  0
 39 37  1  0  0  0  0
M  END
>  <minimizedAffinity>
-6.38239527

$$$$

 OpenBabel03242521433D

 39 42  0  0  1  0  0  0  0  0999 V2000
   36.9410   28.9800   41.7740 C   0  0  0  0  0  0  0  0  0  0  0  0
   36.6690   27.6760   41.3140 C   0  0  0  0  0  0  0  0  0  0  0  0
   37.3290   26.6160   41.9610 C   0  0  0  0  0  0  0  0  0  0  0  0
   38.1710   26.8960   42.9670 N   0  0  0  0  0  0  0  0  0  0  0  0
   38.3990   28.1740   43.3740 C   0  0  0  0  0  0  0  0  0  0  0  0
   37.7840   29.2100   42.7760 N   0  0  0  0  0  0  0  0  0  0  0  0
   35.9870   27.5640   40.5120 H   0  0  0  0  0  0  0  0  0  0  0  0
   39.0900   28.2900   44.1870 H   0  0  0  0  0  0  0  0  0  0  0  0
   38.2270   24.3440   41.4770 C   0  0  2  0  0  0  0  0  0  0  0  0
   37.0380   25.2660   41.4760 C   0  0  2  0  0  0  0  0  0  0  0  0
   36.6770   25.2100   40.1140 O   0  0  0  0  0  0  0  0  0  0  0  0
   36.6390   23.8570   39.8410 C   0  0  0  0  0  0  0  0  0  0  0  0
   37.5770   23.1390   40.7830 C   0  0  1  0  0  0  0  0  0  0  0  0
   39.0200   24.6660   40.7800 H   0  0  0  0  0  0  0  0  0  0  0  0
   36.2210   24.8460   42.0690 H   0  0  0  0  0  0  0  0  0  0  0  0
   36.8670   23.6120   38.7790 H   0  0  0  0  0  0  0  0  0  0  0  0
   35.6090   23.4860   40.0380 H   0  0  0  0  0  0  0  0  0  0  0  0
   37.0610   22.4740   41.4980 H   0  0  0  0  0  0  0  0  0  0  0  0
   38.6890   24.0500   42.7360 O   0  0  0  0  0  0  0  0  0  0  0  0
   38.8130   24.9060   43.2110 H   0  0  0  0  0  0  0  0  0  0  0  0
   38.5500   22.4060   40.1300 O   0  0  0  0  0  0  0  0  0  0  0  0
   38.7260   21.5140   40.5190 H   0  0  0  0  0  0  0  0  0  0  0  0
   36.2340   30.1190   41.0670 C   0  0  0  0  0  0  0  0  0  0  0  0
   35.2520   29.6920   40.7530 H   0  0  0  0  0  0  0  0  0  0  0  0
   35.9880   30.9360   41.7610 H   0  0  0  0  0  0  0  0  0  0  0  0
   36.9860   30.5350   39.9200 N   0  0  0  0  0  0  0  0  0  0  0  0
   36.6730   30.1860   38.6480 C   0  0  0  0  0  0  0  0  0  0  0  0
   35.8630   29.5760   38.2730 H   0  0  0  0  0  0  0  0  0  0  0  0
   37.5440   30.7140   37.7800 N   0  0  0  0  0  0  0  0  0  0  0  0
   38.4290   31.4110   38.4980 C   0  0  0  0  0  0  0  0  0  0  0  0
   39.5470   32.1740   38.2270 C   0  0  0  0  0  0  0  0  0  0  0  0
   40.2740   32.7860   39.1890 N   0  0  0  0  0  0  0  0  0  0  0  0
   39.8940   32.6480   40.4930 C   0  0  0  0  0  0  0  0  0  0  0  0
   40.4960   33.1500   41.2530 H   0  0  0  0  0  0  0  0  0  0  0  0
   38.8100   31.9130   40.7890 N   0  0  0  0  0  0  0  0  0  0  0  0
   38.0710   31.2940   39.8450 C   0  0  0  0  0  0  0  0  0  0  0  0
   39.8910   32.2800   36.8580 N   0  0  0  0  0  0  0  0  0  0  0  0
   40.2660   31.6980   36.0750 H   0  0  0  0  0  0  0  0  0  0  0  0
   39.9460   32.8960   36.0360 H   0  0  0  0  0  0  0  0  0  0  0  0
  1  6  1  0  0  0  0
  2  1  2  0  0  0  0
  2  3  1  0  0  0  0
  3  4  2  0  0  0  0
  4  5  1  0  0  0  0
  5  8  1  0  0  0  0
  6  5  2  0  0  0  0
  7  2  1  0  0  0  0
  9 14  1  6  0  0  0
  9 19  1  0  0  0  0
 10  9  1  0  0  0  0
 10  3  1  0  0  0  0
 10 15  1  1  0  0  0
 11 10  1  0  0  0  0
 12 17  1  0  0  0  0
 12 11  1  0  0  0  0
 12 13  1  0  0  0  0
 13  9  1  0  0  0  0
 13 18  1  1  0  0  0
 16 12  1  0  0  0  0
 19 20  1  0  0  0  0
 21 22  1  0  0  0  0
 21 13  1  0  0  0  0
 23 25  1  0  0  0  0
 23  1  1  0  0  0  0
 24 23  1  0  0  0  0
 26 23  1  0  0  0  0
 27 26  1  0  0  0  0
 28 27  1  0  0  0  0
 29 30  1  0  0  0  0
 29 27  2  0  0  0  0
 30 36  1  0  0  0  0
 31 30  2  0  0  0  0
 31 32  1  0  0  0  0
 32 33  2  0  0  0  0
 33 35  1  0  0  0  0
 33 34  1  0  0  0  0
 36 26  1  0  0  0  0
 36 35  2  0  0  0  0
 37 31  1  0  0  0  0
 38 37  1  0  0  0  0
 39 37  1  0  0  0  0
M  END
>  <minimizedAffinity>
-6.26770353

$$$$

 OpenBabel03242521433D

 39 42  0  0  1  0  0  0  0  0999 V2000
   37.0870   29.1410   41.9640 C   0  0  0  0  0  0  0  0  0  0  0  0
   36.7120   27.8420   41.5680 C   0  0  0  0  0  0  0  0  0  0  0  0
   37.5010   26.7750   42.0320 C   0  0  0  0  0  0  0  0  0  0  0  0
   38.5560   27.0450   42.8160 N   0  0  0  0  0  0  0  0  0  0  0  0
   38.8760   28.3190   43.1710 C   0  0  0  0  0  0  0  0  0  0  0  0
   38.1410   29.3610   42.7430 N   0  0  0  0  0  0  0  0  0  0  0  0
   35.8610   27.7390   40.9460 H   0  0  0  0  0  0  0  0  0  0  0  0
   39.7390   28.4270   43.8020 H   0  0  0  0  0  0  0  0  0  0  0  0
   38.2460   24.4620   41.4890 C   0  0  2  0  0  0  0  0  0  0  0  0
   37.1020   25.4310   41.6150 C   0  0  2  0  0  0  0  0  0  0  0  0
   36.5720   25.3670   40.3100 O   0  0  0  0  0  0  0  0  0  0  0  0
   36.4490   24.0120   40.0720 C   0  0  0  0  0  0  0  0  0  0  0  0
   37.4690   23.2730   40.9050 C   0  0  1  0  0  0  0  0  0  0  0  0
   38.9580   24.7410   40.6920 H   0  0  0  0  0  0  0  0  0  0  0  0
   36.3490   25.0530   42.3130 H   0  0  0  0  0  0  0  0  0  0  0  0
   36.5340   23.7420   38.9950 H   0  0  0  0  0  0  0  0  0  0  0  0
   35.4390   23.6870   40.4020 H   0  0  0  0  0  0  0  0  0  0  0  0
   37.0210   22.6410   41.6930 H   0  0  0  0  0  0  0  0  0  0  0  0
   38.8500   24.1700   42.6860 O   0  0  0  0  0  0  0  0  0  0  0  0
   39.0630   25.0280   43.1240 H   0  0  0  0  0  0  0  0  0  0  0  0
   38.3250   22.4910   40.1530 O   0  0  0  0  0  0  0  0  0  0  0  0
   38.5140   21.5990   40.5350 H   0  0  0  0  0  0  0  0  0  0  0  0
   36.2380   30.2880   41.4530 C   0  0  0  0  0  0  0  0  0  0  0  0
   35.2750   29.8130   41.1450 H   0  0  0  0  0  0  0  0  0  0  0  0
   35.9730   30.9870   42.2600 H   0  0  0  0  0  0  0  0  0  0  0  0
   36.8680   30.9100   40.3260 N   0  0  0  0  0  0  0  0  0  0  0  0
   37.6980   31.9770   40.4220 C   0  0  0  0  0  0  0  0  0  0  0  0
   38.0230   32.5300   41.2930 H   0  0  0  0  0  0  0  0  0  0  0  0
   38.1410   32.3480   39.2150 N   0  0  0  0  0  0  0  0  0  0  0  0
   37.5920   31.5120   38.3300 C   0  0  0  0  0  0  0  0  0  0  0  0
   37.6360   31.3480   36.9600 C   0  0  0  0  0  0  0  0  0  0  0  0
   36.9530   30.3770   36.3110 N   0  0  0  0  0  0  0  0  0  0  0  0
   36.1810   29.5140   37.0350 C   0  0  0  0  0  0  0  0  0  0  0  0
   35.6390   28.7390   36.4900 H   0  0  0  0  0  0  0  0  0  0  0  0
   36.1200   29.6470   38.3690 N   0  0  0  0  0  0  0  0  0  0  0  0
   36.7920   30.6080   39.0360 C   0  0  0  0  0  0  0  0  0  0  0  0
   38.4510   32.2720   36.2640 N   0  0  0  0  0  0  0  0  0  0  0  0
   38.4810   33.2840   36.0070 H   0  0  0  0  0  0  0  0  0  0  0  0
   39.3160   32.4110   35.7240 H   0  0  0  0  0  0  0  0  0  0  0  0
  1  6  1  0  0  0  0
  2  1  2  0  0  0  0
  2  3  1  0  0  0  0
  3  4  2  0  0  0  0
  4  5  1  0  0  0  0
  5  8  1  0  0  0  0
  6  5  2  0  0  0  0
  7  2  1  0  0  0  0
  9 14  1  6  0  0  0
  9 10  1  0  0  0  0
  9 19  1  0  0  0  0
 10  3  1  0  0  0  0
 10 15  1  1  0  0  0
 11 10  1  0  0  0  0
 12 11  1  0  0  0  0
 12 17  1  0  0  0  0
 12 13  1  0  0  0  0
 13  9  1  0  0  0  0
 13 18  1  1  0  0  0
 16 12  1  0  0  0  0
 19 20  1  0  0  0  0
 21 22  1  0  0  0  0
 21 13  1  0  0  0  0
 23  1  1  0  0  0  0
 23 25  1  0  0  0  0
 24 23  1  0  0  0  0
 26 27  1  0  0  0  0
 26 23  1  0  0  0  0
 27 28  1  0  0  0  0
 29 27  2  0  0  0  0
 30 36  1  0  0  0  0
 30 29  1  0  0  0  0
 31 30  2  0  0  0  0
 32 31  1  0  0  0  0
 32 33  2  0  0  0  0
 33 35  1  0  0  0  0
 34 33  1  0  0  0  0
 35 36  2  0  0  0  0
 36 26  1  0  0  0  0
 37 31  1  0  0  0  0
 38 37  1  0  0  0  0
 39 37  1  0  0  0  0
M  END
>  <minimizedAffinity>
-6.21083164

$$$$

 OpenBabel03242521433D

 39 42  0  0  1  0  0  0  0  0999 V2000
   37.0710   28.2750   42.1160 C   0  0  0  0  0  0  0  0  0  0  0  0
   37.9510   29.3750   42.0830 C   0  0  0  0  0  0  0  0  0  0  0  0
   37.5780   30.4720   41.2860 C   0  0  0  0  0  0  0  0  0  0  0  0
   36.4210   30.4160   40.6080 N   0  0  0  0  0  0  0  0  0  0  0  0
   35.6060   29.3280   40.6750 C   0  0  0  0  0  0  0  0  0  0  0  0
   35.9350   28.2630   41.4270 N   0  0  0  0  0  0  0  0  0  0  0  0
   38.8390   29.3180   42.6560 H   0  0  0  0  0  0  0  0  0  0  0  0
   34.7040   29.3830   40.0950 H   0  0  0  0  0  0  0  0  0  0  0  0
   38.2160   32.6030   40.1650 C   0  0  2  0  0  0  0  0  0  0  0  0
   38.4970   31.6090   41.2600 C   0  0  2  0  0  0  0  0  0  0  0  0
   39.8290   31.2650   40.9520 O   0  0  0  0  0  0  0  0  0  0  0  0
   40.4570   32.4860   40.7980 C   0  0  0  0  0  0  0  0  0  0  0  0
   39.4360   33.5120   40.3680 C   0  0  1  0  0  0  0  0  0  0  0  0
   38.3560   32.1780   39.1560 H   0  0  0  0  0  0  0  0  0  0  0  0
   38.4840   32.0980   42.2390 H   0  0  0  0  0  0  0  0  0  0  0  0
   41.3210   32.4560   40.0970 H   0  0  0  0  0  0  0  0  0  0  0  0
   40.8610   32.8010   41.7850 H   0  0  0  0  0  0  0  0  0  0  0  0
   39.2510   34.2950   41.1250 H   0  0  0  0  0  0  0  0  0  0  0  0
   37.0240   33.2640   40.3210 O   0  0  0  0  0  0  0  0  0  0  0  0
   36.3260   32.5820   40.4690 H   0  0  0  0  0  0  0  0  0  0  0  0
   39.7520   34.1280   39.1720 O   0  0  0  0  0  0  0  0  0  0  0  0
   39.5940   35.1040   39.1540 H   0  0  0  0  0  0  0  0  0  0  0  0
   37.4830   27.0910   42.9690 C   0  0  0  0  0  0  0  0  0  0  0  0
   38.4450   27.4040   43.4430 H   0  0  0  0  0  0  0  0  0  0  0  0
   36.7860   26.9310   43.8040 H   0  0  0  0  0  0  0  0  0  0  0  0
   37.6860   25.9340   42.1480 N   0  0  0  0  0  0  0  0  0  0  0  0
   36.8610   24.8580   42.1480 C   0  0  0  0  0  0  0  0  0  0  0  0
   35.9620   24.6700   42.7180 H   0  0  0  0  0  0  0  0  0  0  0  0
   37.2900   23.9280   41.2880 N   0  0  0  0  0  0  0  0  0  0  0  0
   38.4040   24.4070   40.7260 C   0  0  0  0  0  0  0  0  0  0  0  0
   39.3110   23.9630   39.7850 C   0  0  0  0  0  0  0  0  0  0  0  0
   40.3840   24.6890   39.3950 N   0  0  0  0  0  0  0  0  0  0  0  0
   40.5880   25.9190   39.9520 C   0  0  0  0  0  0  0  0  0  0  0  0
   41.4600   26.4860   39.6220 H   0  0  0  0  0  0  0  0  0  0  0  0
   39.7220   26.3780   40.8690 N   0  0  0  0  0  0  0  0  0  0  0  0
   38.6470   25.6710   41.2730 C   0  0  0  0  0  0  0  0  0  0  0  0
   39.0470   22.6820   39.2440 N   0  0  0  0  0  0  0  0  0  0  0  0
   39.0500   21.6750   39.5230 H   0  0  0  0  0  0  0  0  0  0  0  0
   38.7570   22.1490   38.4140 H   0  0  0  0  0  0  0  0  0  0  0  0
  1 23  1  0  0  0  0
  2  1  1  0  0  0  0
  2  7  1  0  0  0  0
  3  2  2  0  0  0  0
  4  5  2  0  0  0  0
  4  3  1  0  0  0  0
  5  6  1  0  0  0  0
  6  1  2  0  0  0  0
  8  5  1  0  0  0  0
  9 14  1  6  0  0  0
  9 19  1  0  0  0  0
  9 13  1  0  0  0  0
  9 10  1  0  0  0  0
 10  3  1  0  0  0  0
 10 15  1  1  0  0  0
 11 10  1  0  0  0  0
 12 11  1  0  0  0  0
 12 17  1  0  0  0  0
 13 12  1  0  0  0  0
 13 18  1  1  0  0  0
 16 12  1  0  0  0  0
 19 20  1  0  0  0  0
 21 13  1  0  0  0  0
 22 21  1  0  0  0  0
 23 24  1  0  0  0  0
 23 25  1  0  0  0  0
 26 23  1  0  0  0  0
 27 26  1  0  0  0  0
 27 28  1  0  0  0  0
 29 27  2  0  0  0  0
 30 36  1  0  0  0  0
 30 29  1  0  0  0  0
 31 30  2  0  0  0  0
 32 31  1  0  0  0  0
 32 33  2  0  0  0  0
 33 35  1  0  0  0  0
 34 33  1  0  0  0  0
 35 36  2  0  0  0  0
 36 26  1  0  0  0  0
 37 38  1  0  0  0  0
 37 31  1  0  0  0  0
 39 37  1  0  0  0  0
M  END
>  <minimizedAffinity>
-5.85747194

$$$$

 OpenBabel03242521433D

 39 42  0  0  1  0  0  0  0  0999 V2000
   37.1050   26.9830   40.9470 C   0  0  0  0  0  0  0  0  0  0  0  0
   37.3250   28.3330   40.6110 C   0  0  0  0  0  0  0  0  0  0  0  0
   37.1940   28.6880   39.2570 C   0  0  0  0  0  0  0  0  0  0  0  0
   36.8720   27.7360   38.3670 N   0  0  0  0  0  0  0  0  0  0  0  0
   36.6690   26.4450   38.7440 C   0  0  0  0  0  0  0  0  0  0  0  0
   36.7860   26.0740   40.0310 N   0  0  0  0  0  0  0  0  0  0  0  0
   37.5750   29.0040   41.3910 H   0  0  0  0  0  0  0  0  0  0  0  0
   36.4150   25.7620   37.9550 H   0  0  0  0  0  0  0  0  0  0  0  0
   37.7990   30.3260   37.4810 C   0  0  2  0  0  0  0  0  0  0  0  0
   37.4240   30.0930   38.9200 C   0  0  2  0  0  0  0  0  0  0  0  0
   38.5390   30.6640   39.5670 O   0  0  0  0  0  0  0  0  0  0  0  0
   38.6700   31.9010   38.9640 C   0  0  0  0  0  0  0  0  0  0  0  0
   38.0980   31.8290   37.5680 C   0  0  1  0  0  0  0  0  0  0  0  0
   38.7680   29.8690   37.2120 H   0  0  0  0  0  0  0  0  0  0  0  0
   36.5350   30.6710   39.1870 H   0  0  0  0  0  0  0  0  0  0  0  0
   39.7160   32.2810   38.9540 H   0  0  0  0  0  0  0  0  0  0  0  0
   38.0690   32.6380   39.5400 H   0  0  0  0  0  0  0  0  0  0  0  0
   37.1910   32.4430   37.4300 H   0  0  0  0  0  0  0  0  0  0  0  0
   36.7900   30.0320   36.5990 O   0  0  0  0  0  0  0  0  0  0  0  0
   36.4660   29.1240   36.8140 H   0  0  0  0  0  0  0  0  0  0  0  0
   39.0100   32.1720   36.5870 O   0  0  0  0  0  0  0  0  0  0  0  0
   38.6470   32.7450   35.8680 H   0  0  0  0  0  0  0  0  0  0  0  0
   37.2560   26.6040   42.4080 C   0  0  0  0  0  0  0  0  0  0  0  0
   37.2110   27.5740   42.9580 H   0  0  0  0  0  0  0  0  0  0  0  0
   36.3930   26.0250   42.7670 H   0  0  0  0  0  0  0  0  0  0  0  0
   38.5200   25.9650   42.6270 N   0  0  0  0  0  0  0  0  0  0  0  0
   38.6970   24.6220   42.6080 C   0  0  0  0  0  0  0  0  0  0  0  0
   37.9830   23.8280   42.4400 H   0  0  0  0  0  0  0  0  0  0  0  0
   39.9750   24.3050   42.8430 N   0  0  0  0  0  0  0  0  0  0  0  0
   40.6320   25.4560   43.0150 C   0  0  0  0  0  0  0  0  0  0  0  0
   41.9350   25.8260   43.2800 C   0  0  0  0  0  0  0  0  0  0  0  0
   42.3260   27.1140   43.4050 N   0  0  0  0  0  0  0  0  0  0  0  0
   41.3950   28.1040   43.2650 C   0  0  0  0  0  0  0  0  0  0  0  0
   41.7330   29.1360   43.3700 H   0  0  0  0  0  0  0  0  0  0  0  0
   40.1200   27.7760   43.0050 N   0  0  0  0  0  0  0  0  0  0  0  0
   39.7090   26.4980   42.8770 C   0  0  0  0  0  0  0  0  0  0  0  0
   42.8530   24.7570   43.4150 N   0  0  0  0  0  0  0  0  0  0  0  0
   43.0860   23.9740   44.0670 H   0  0  0  0  0  0  0  0  0  0  0  0
   43.6560   24.2630   43.0030 H   0  0  0  0  0  0  0  0  0  0  0  0
  1 23  1  0  0  0  0
  2  1  1  0  0  0  0
  2  7  1  0  0  0  0
  3  2  2  0  0  0  0
  4  5  2  0  0  0  0
  4  3  1  0  0  0  0
  5  6  1  0  0  0  0
  6  1  2  0  0  0  0
  8  5  1  0  0  0  0
  9 14  1  6  0  0  0
  9 13  1  0  0  0  0
  9 10  1  0  0  0  0
 10 15  1  1  0  0  0
 10  3  1  0  0  0  0
 10 11  1  0  0  0  0
 12 17  1  0  0  0  0
 12 11  1  0  0  0  0
 13 18  1  6  0  0  0
 13 12  1  0  0  0  0
 16 12  1  0  0  0  0
 19 20  1  0  0  0  0
 19  9  1  0  0  0  0
 21 13  1  0  0  0  0
 22 21  1  0  0  0  0
 23 26  1  0  0  0  0
 23 25  1  0  0  0  0
 23 24  1  0  0  0  0
 26 36  1  0  0  0  0
 27 26  1  0  0  0  0
 27 29  2  0  0  0  0
 28 27  1  0  0  0  0
 29 30  1  0  0  0  0
 30 31  1  0  0  0  0
 31 32  2  0  0  0  0
 31 37  1  0  0  0  0
 33 34  1  0  0  0  0
 33 32  1  0  0  0  0
 35 33  2  0  0  0  0
 36 35  1  0  0  0  0
 36 30  2  0  0  0  0
 37 38  1  0  0  0  0
 39 37  1  0  0  0  0
M  END
>  <minimizedAffinity>
-5.84891796

$$$$

 OpenBabel03242521433D

 39 42  0  0  1  0  0  0  0  0999 V2000
   36.8800   29.1130   40.1750 C   0  0  0  0  0  0  0  0  0  0  0  0
   37.4380   30.3920   40.3720 C   0  0  0  0  0  0  0  0  0  0  0  0
   38.0280   31.0140   39.2580 C   0  0  0  0  0  0  0  0  0  0  0  0
   38.0290   30.3680   38.0820 N   0  0  0  0  0  0  0  0  0  0  0  0
   37.4760   29.1320   37.9440 C   0  0  0  0  0  0  0  0  0  0  0  0
   36.9040   28.5110   38.9910 N   0  0  0  0  0  0  0  0  0  0  0  0
   37.3840   30.8130   41.3420 H   0  0  0  0  0  0  0  0  0  0  0  0
   37.5290   28.7030   36.9610 H   0  0  0  0  0  0  0  0  0  0  0  0
   40.0490   32.3230   39.8960 C   0  0  2  0  0  0  0  0  0  0  0  0
   38.6040   32.3410   39.4740 C   0  0  2  0  0  0  0  0  0  0  0  0
   38.0340   33.0460   40.5540 O   0  0  0  0  0  0  0  0  0  0  0  0
   38.8440   34.1590   40.6820 C   0  0  0  0  0  0  0  0  0  0  0  0
   40.2220   33.8250   40.1630 C   0  0  1  0  0  0  0  0  0  0  0  0
   40.2010   31.8500   40.8810 H   0  0  0  0  0  0  0  0  0  0  0  0
   38.4730   32.9360   38.5640 H   0  0  0  0  0  0  0  0  0  0  0  0
   38.8880   34.5570   41.7210 H   0  0  0  0  0  0  0  0  0  0  0  0
   38.4280   34.9720   40.0480 H   0  0  0  0  0  0  0  0  0  0  0  0
   40.4960   34.3820   39.2490 H   0  0  0  0  0  0  0  0  0  0  0  0
   40.8950   31.8520   38.9240 O   0  0  0  0  0  0  0  0  0  0  0  0
   40.5310   30.9900   38.6100 H   0  0  0  0  0  0  0  0  0  0  0  0
   41.2190   34.0110   41.1020 O   0  0  0  0  0  0  0  0  0  0  0  0
   42.0400   34.4370   40.7550 H   0  0  0  0  0  0  0  0  0  0  0  0
   36.2540   28.4430   41.3830 C   0  0  0  0  0  0  0  0  0  0  0  0
   36.0670   29.2740   42.1040 H   0  0  0  0  0  0  0  0  0  0  0  0
   35.2610   28.0320   41.1480 H   0  0  0  0  0  0  0  0  0  0  0  0
   37.1610   27.4880   41.9480 N   0  0  0  0  0  0  0  0  0  0  0  0
   38.0330   27.7770   42.9440 C   0  0  0  0  0  0  0  0  0  0  0  0
   38.2070   28.7060   43.4700 H   0  0  0  0  0  0  0  0  0  0  0  0
   38.7550   26.7000   43.2740 N   0  0  0  0  0  0  0  0  0  0  0  0
   38.3460   25.7050   42.4830 C   0  0  0  0  0  0  0  0  0  0  0  0
   38.6700   24.3740   42.3130 C   0  0  0  0  0  0  0  0  0  0  0  0
   38.0670   23.5780   41.4010 N   0  0  0  0  0  0  0  0  0  0  0  0
   37.0920   24.1060   40.6050 C   0  0  0  0  0  0  0  0  0  0  0  0
   36.6190   23.4450   39.8760 H   0  0  0  0  0  0  0  0  0  0  0  0
   36.7530   25.3970   40.7470 N   0  0  0  0  0  0  0  0  0  0  0  0
   37.3410   26.2080   41.6500 C   0  0  0  0  0  0  0  0  0  0  0  0
   39.6880   23.8840   43.1660 N   0  0  0  0  0  0  0  0  0  0  0  0
   40.7170   23.9740   43.3250 H   0  0  0  0  0  0  0  0  0  0  0  0
   39.9160   23.2720   43.9610 H   0  0  0  0  0  0  0  0  0  0  0  0
  1  2  1  0  0  0  0
  1 23  1  0  0  0  0
  2  7  1  0  0  0  0
  3 10  1  0  0  0  0
  3  2  2  0  0  0  0
  4  3  1  0  0  0  0
  5  4  2  0  0  0  0
  5  6  1  0  0  0  0
  6  1  2  0  0  0  0
  8  5  1  0  0  0  0
  9 13  1  0  0  0  0
  9 14  1  1  0  0  0
 10 15  1  6  0  0  0
 10  9  1  0  0  0  0
 10 11  1  0  0  0  0
 11 12  1  0  0  0  0
 12 16  1  0  0  0  0
 13 18  1  6  0  0  0
 13 12  1  0  0  0  0
 13 21  1  0  0  0  0
 17 12  1  0  0  0  0
 19  9  1  0  0  0  0
 20 19  1  0  0  0  0
 22 21  1  0  0  0  0
 23 26  1  0  0  0  0
 23 24  1  0  0  0  0
 25 23  1  0  0  0  0
 26 27  1  0  0  0  0
 27 29  2  0  0  0  0
 27 28  1  0  0  0  0
 30 29  1  0  0  0  0
 31 30  1  0  0  0  0
 31 37  1  0  0  0  0
 32 31  2  0  0  0  0
 33 35  2  0  0  0  0
 33 32  1  0  0  0  0
 34 33  1  0  0  0  0
 35 36  1  0  0  0  0
 36 26  1  0  0  0  0
 36 30  2  0  0  0  0
 37 38  1  0  0  0  0
 37 39  1  0  0  0  0
M  END
>  <minimizedAffinity>
-5.79108238

$$$$

 OpenBabel03242521433D

 39 42  0  0  1  0  0  0  0  0999 V2000
   36.3710   27.8050   40.3680 C   0  0  0  0  0  0  0  0  0  0  0  0
   36.0040   28.2100   39.0690 C   0  0  0  0  0  0  0  0  0  0  0  0
   36.1740   27.2750   38.0330 C   0  0  0  0  0  0  0  0  0  0  0  0
   36.6710   26.0640   38.3300 N   0  0  0  0  0  0  0  0  0  0  0  0
   37.0100   25.7230   39.6030 C   0  0  0  0  0  0  0  0  0  0  0  0
   36.8580   26.5940   40.6150 N   0  0  0  0  0  0  0  0  0  0  0  0
   35.6220   29.1890   38.9440 H   0  0  0  0  0  0  0  0  0  0  0  0
   37.3980   24.7300   39.7330 H   0  0  0  0  0  0  0  0  0  0  0  0
   36.9450   27.8450   35.7340 C   0  0  2  0  0  0  0  0  0  0  0  0
   35.7900   27.7050   36.6890 C   0  0  2  0  0  0  0  0  0  0  0  0
   35.2570   29.0090   36.6330 O   0  0  0  0  0  0  0  0  0  0  0  0
   35.1490   29.2620   35.2790 C   0  0  0  0  0  0  0  0  0  0  0  0
   36.1800   28.4390   34.5430 C   0  0  1  0  0  0  0  0  0  0  0  0
   37.6510   28.6400   36.0300 H   0  0  0  0  0  0  0  0  0  0  0  0
   35.0440   27.0090   36.2950 H   0  0  0  0  0  0  0  0  0  0  0  0
   35.2340   30.3410   35.0210 H   0  0  0  0  0  0  0  0  0  0  0  0
   34.1440   28.9320   34.9380 H   0  0  0  0  0  0  0  0  0  0  0  0
   35.7420   27.6570   33.8970 H   0  0  0  0  0  0  0  0  0  0  0  0
   37.5550   26.6530   35.4370 O   0  0  0  0  0  0  0  0  0  0  0  0
   37.7600   26.2060   36.2930 H   0  0  0  0  0  0  0  0  0  0  0  0
   37.0430   29.2020   33.7790 O   0  0  0  0  0  0  0  0  0  0  0  0
   37.2440   28.8300   32.8850 H   0  0  0  0  0  0  0  0  0  0  0  0
   36.1930   28.8210   41.4800 C   0  0  0  0  0  0  0  0  0  0  0  0
   35.3010   29.4200   41.1770 H   0  0  0  0  0  0  0  0  0  0  0  0
   35.9120   28.3390   42.4280 H   0  0  0  0  0  0  0  0  0  0  0  0
   37.3490   29.6620   41.5740 N   0  0  0  0  0  0  0  0  0  0  0  0
   38.4440   29.3560   42.3110 C   0  0  0  0  0  0  0  0  0  0  0  0
   38.6510   28.4910   42.9250 H   0  0  0  0  0  0  0  0  0  0  0  0
   39.3690   30.3190   42.2150 N   0  0  0  0  0  0  0  0  0  0  0  0
   38.8650   31.2570   41.4080 C   0  0  0  0  0  0  0  0  0  0  0  0
   39.2930   32.4720   40.9100 C   0  0  0  0  0  0  0  0  0  0  0  0
   38.5440   33.2340   40.0810 N   0  0  0  0  0  0  0  0  0  0  0  0
   37.3060   32.7900   39.7130 C   0  0  0  0  0  0  0  0  0  0  0  0
   36.7190   33.4220   39.0430 H   0  0  0  0  0  0  0  0  0  0  0  0
   36.8630   31.6120   40.1800 N   0  0  0  0  0  0  0  0  0  0  0  0
   37.5930   30.8370   41.0080 C   0  0  0  0  0  0  0  0  0  0  0  0
   40.5830   32.8790   41.3270 N   0  0  0  0  0  0  0  0  0  0  0  0
   41.0860   33.2060   42.1830 H   0  0  0  0  0  0  0  0  0  0  0  0
   41.5590   33.0420   41.0470 H   0  0  0  0  0  0  0  0  0  0  0  0
  1  6  1  0  0  0  0
  1 23  1  0  0  0  0
  2  1  2  0  0  0  0
  3  4  2  0  0  0  0
  3  2  1  0  0  0  0
  4  5  1  0  0  0  0
  5  8  1  0  0  0  0
  5  6  2  0  0  0  0
  7  2  1  0  0  0  0
  9 14  1  1  0  0  0
  9 10  1  0  0  0  0
 10 15  1  6  0  0  0
 10  3  1  0  0  0  0
 11 10  1  0  0  0  0
 12 11  1  0  0  0  0
 13 18  1  6  0  0  0
 13 12  1  0  0  0  0
 13  9  1  0  0  0  0
 16 12  1  0  0  0  0
 17 12  1  0  0  0  0
 19  9  1  0  0  0  0
 19 20  1  0  0  0  0
 21 13  1  0  0  0  0
 22 21  1  0  0  0  0
 23 26  1  0  0  0  0
 23 25  1  0  0  0  0
 24 23  1  0  0  0  0
 26 27  1  0  0  0  0
 27 28  1  0  0  0  0
 29 27  2  0  0  0  0
 30 29  1  0  0  0  0
 31 37  1  0  0  0  0
 31 30  2  0  0  0  0
 32 31  1  0  0  0  0
 33 32  2  0  0  0  0
 33 35  1  0  0  0  0
 34 33  1  0  0  0  0
 35 36  2  0  0  0  0
 36 30  1  0  0  0  0
 36 26  1  0  0  0  0
 37 38  1  0  0  0  0
 39 37  1  0  0  0  0
M  END
>  <minimizedAffinity>
-5.52007198

$$$$

 OpenBabel03242521433D

 39 42  0  0  1  0  0  0  0  0999 V2000
   36.8990   30.8610   39.4140 C   0  0  0  0  0  0  0  0  0  0  0  0
   37.9880   31.6510   39.8320 C   0  0  0  0  0  0  0  0  0  0  0  0
   38.7940   32.2180   38.8280 C   0  0  0  0  0  0  0  0  0  0  0  0
   38.4880   31.9790   37.5430 N   0  0  0  0  0  0  0  0  0  0  0  0
   37.4240   31.2080   37.1930 C   0  0  0  0  0  0  0  0  0  0  0  0
   36.6350   30.6520   38.1280 N   0  0  0  0  0  0  0  0  0  0  0  0
   38.1410   31.7760   40.8720 H   0  0  0  0  0  0  0  0  0  0  0  0
   37.2660   31.0790   36.1380 H   0  0  0  0  0  0  0  0  0  0  0  0
   41.1900   32.8110   38.4950 C   0  0  2  0  0  0  0  0  0  0  0  0
   39.9210   33.0370   39.2730 C   0  0  2  0  0  0  0  0  0  0  0  0
   40.3680   32.7400   40.5770 O   0  0  0  0  0  0  0  0  0  0  0  0
   41.5260   33.4830   40.7030 C   0  0  0  0  0  0  0  0  0  0  0  0
   42.1260   33.6940   39.3320 C   0  0  1  0  0  0  0  0  0  0  0  0
   41.5920   31.7910   38.6190 H   0  0  0  0  0  0  0  0  0  0  0  0
   39.6280   34.0910   39.2380 H   0  0  0  0  0  0  0  0  0  0  0  0
   42.2670   33.0340   41.4030 H   0  0  0  0  0  0  0  0  0  0  0  0
   41.2620   34.4810   41.1160 H   0  0  0  0  0  0  0  0  0  0  0  0
   42.1110   34.7480   39.0020 H   0  0  0  0  0  0  0  0  0  0  0  0
   41.1060   33.2120   37.1860 O   0  0  0  0  0  0  0  0  0  0  0  0
   40.2930   32.8030   36.8040 H   0  0  0  0  0  0  0  0  0  0  0  0
   43.4200   33.2210   39.2240 O   0  0  0  0  0  0  0  0  0  0  0  0
   44.0370   33.8150   38.7320 H   0  0  0  0  0  0  0  0  0  0  0  0
   36.0400   30.2450   40.5010 C   0  0  0  0  0  0  0  0  0  0  0  0
   36.2510   30.8580   41.4110 H   0  0  0  0  0  0  0  0  0  0  0  0
   34.9680   30.3850   40.2980 H   0  0  0  0  0  0  0  0  0  0  0  0
   36.4190   28.8800   40.7210 N   0  0  0  0  0  0  0  0  0  0  0  0
   36.0750   27.8620   39.8960 C   0  0  0  0  0  0  0  0  0  0  0  0
   35.4950   27.8700   38.9840 H   0  0  0  0  0  0  0  0  0  0  0  0
   36.5630   26.6990   40.3430 N   0  0  0  0  0  0  0  0  0  0  0  0
   37.2290   26.9690   41.4700 C   0  0  0  0  0  0  0  0  0  0  0  0
   37.9470   26.2410   42.3980 C   0  0  0  0  0  0  0  0  0  0  0  0
   38.5350   26.8010   43.4800 N   0  0  0  0  0  0  0  0  0  0  0  0
   38.4200   28.1480   43.6720 C   0  0  0  0  0  0  0  0  0  0  0  0
   38.9020   28.5770   44.5520 H   0  0  0  0  0  0  0  0  0  0  0  0
   37.7290   28.8830   42.7860 N   0  0  0  0  0  0  0  0  0  0  0  0
   37.1350   28.3450   41.7010 C   0  0  0  0  0  0  0  0  0  0  0  0
   38.0310   24.8510   42.1450 N   0  0  0  0  0  0  0  0  0  0  0  0
   37.4300   23.9970   42.1400 H   0  0  0  0  0  0  0  0  0  0  0  0
   38.6390   24.0670   41.8730 H   0  0  0  0  0  0  0  0  0  0  0  0
  1  2  1  0  0  0  0
  1 23  1  0  0  0  0
  2  7  1  0  0  0  0
  3 10  1  0  0  0  0
  3  2  2  0  0  0  0
  4  3  1  0  0  0  0
  5  4  2  0  0  0  0
  5  6  1  0  0  0  0
  6  1  2  0  0  0  0
  8  5  1  0  0  0  0
  9 14  1  1  0  0  0
  9 10  1  0  0  0  0
  9 13  1  0  0  0  0
 10 15  1  6  0  0  0
 10 11  1  0  0  0  0
 11 12  1  0  0  0  0
 12 17  1  0  0  0  0
 12 16  1  0  0  0  0
 13 18  1  6  0  0  0
 13 12  1  0  0  0  0
 19  9  1  0  0  0  0
 20 19  1  0  0  0  0
 21 13  1  0  0  0  0
 22 21  1  0  0  0  0
 23 26  1  0  0  0  0
 23 24  1  0  0  0  0
 25 23  1  0  0  0  0
 26 36  1  0  0  0  0
 27 29  2  0  0  0  0
 27 26  1  0  0  0  0
 28 27  1  0  0  0  0
 29 30  1  0  0  0  0
 30 36  2  0  0  0  0
 30 31  1  0  0  0  0
 31 32  2  0  0  0  0
 32 33  1  0  0  0  0
 33 34  1  0  0  0  0
 35 33  2  0  0  0  0
 36 35  1  0  0  0  0
 37 31  1  0  0  0  0
 38 37  1  0  0  0  0
 39 37  1  0  0  0  0
M  END
>  <minimizedAffinity>
-5.50750351

$$$$

 OpenBabel03242521433D

 39 42  0  0  1  0  0  0  0  0999 V2000
   37.3790   29.8680   39.5970 C   0  0  0  0  0  0  0  0  0  0  0  0
   38.6460   30.1310   39.0380 C   0  0  0  0  0  0  0  0  0  0  0  0
   39.2060   31.3970   39.2810 C   0  0  0  0  0  0  0  0  0  0  0  0
   38.5140   32.2780   40.0210 N   0  0  0  0  0  0  0  0  0  0  0  0
   37.2930   31.9750   40.5380 C   0  0  0  0  0  0  0  0  0  0  0  0
   36.7310   30.7720   40.3240 N   0  0  0  0  0  0  0  0  0  0  0  0
   39.1060   29.3650   38.4690 H   0  0  0  0  0  0  0  0  0  0  0  0
   36.8240   32.7490   41.1160 H   0  0  0  0  0  0  0  0  0  0  0  0
   40.7710   33.1060   38.3690 C   0  0  2  0  0  0  0  0  0  0  0  0
   40.5210   31.6590   38.6970 C   0  0  2  0  0  0  0  0  0  0  0  0
   40.7130   31.0760   37.4280 O   0  0  0  0  0  0  0  0  0  0  0  0
   41.9170   31.6030   37.0040 C   0  0  0  0  0  0  0  0  0  0  0  0
   42.1260   32.9450   37.6650 C   0  0  1  0  0  0  0  0  0  0  0  0
   40.0970   33.4900   37.5840 H   0  0  0  0  0  0  0  0  0  0  0  0
   41.2910   31.2760   39.3740 H   0  0  0  0  0  0  0  0  0  0  0  0
   42.0020   31.6800   35.8960 H   0  0  0  0  0  0  0  0  0  0  0  0
   42.7350   30.9280   37.3390 H   0  0  0  0  0  0  0  0  0  0  0  0
   42.9700   32.9610   38.3760 H   0  0  0  0  0  0  0  0  0  0  0  0
   40.8380   33.9130   39.4770 O   0  0  0  0  0  0  0  0  0  0  0  0
   40.0360   33.7320   40.0220 H   0  0  0  0  0  0  0  0  0  0  0  0
   42.2970   33.9770   36.7610 O   0  0  0  0  0  0  0  0  0  0  0  0
   43.0080   34.6220   37.0000 H   0  0  0  0  0  0  0  0  0  0  0  0
   36.7770   28.5040   39.3230 C   0  0  0  0  0  0  0  0  0  0  0  0
   35.6740   28.6590   39.4020 H   0  0  0  0  0  0  0  0  0  0  0  0
   36.9530   28.1840   38.2860 H   0  0  0  0  0  0  0  0  0  0  0  0
   37.2180   27.5600   40.3080 N   0  0  0  0  0  0  0  0  0  0  0  0
   36.8440   27.6010   41.6090 C   0  0  0  0  0  0  0  0  0  0  0  0
   36.1950   28.2940   42.1260 H   0  0  0  0  0  0  0  0  0  0  0  0
   37.4050   26.6010   42.2990 N   0  0  0  0  0  0  0  0  0  0  0  0
   38.1490   25.9060   41.4330 C   0  0  0  0  0  0  0  0  0  0  0  0
   38.9600   24.7900   41.4930 C   0  0  0  0  0  0  0  0  0  0  0  0
   39.6110   24.2930   40.4170 N   0  0  0  0  0  0  0  0  0  0  0  0
   39.4670   24.9170   39.2110 C   0  0  0  0  0  0  0  0  0  0  0  0
   40.0020   24.4980   38.3570 H   0  0  0  0  0  0  0  0  0  0  0  0
   38.6840   26.0030   39.1210 N   0  0  0  0  0  0  0  0  0  0  0  0
   38.0260   26.5160   40.1810 C   0  0  0  0  0  0  0  0  0  0  0  0
   39.0700   24.1880   42.7690 N   0  0  0  0  0  0  0  0  0  0  0  0
   39.4820   24.3710   43.7120 H   0  0  0  0  0  0  0  0  0  0  0  0
   38.8370   23.3740   43.3530 H   0  0  0  0  0  0  0  0  0  0  0  0
  1  6  1  0  0  0  0
  2  3  1  0  0  0  0
  2  1  2  0  0  0  0
  3  4  2  0  0  0  0
  4  5  1  0  0  0  0
  5  8  1  0  0  0  0
  6  5  2  0  0  0  0
  7  2  1  0  0  0  0
  9 14  1  6  0  0  0
  9 10  1  0  0  0  0
  9 19  1  0  0  0  0
 10  3  1  0  0  0  0
 10 15  1  1  0  0  0
 11 10  1  0  0  0  0
 12 17  1  0  0  0  0
 12 11  1  0  0  0  0
 12 13  1  0  0  0  0
 13  9  1  0  0  0  0
 13 18  1  1  0  0  0
 16 12  1  0  0  0  0
 19 20  1  0  0  0  0
 21 22  1  0  0  0  0
 21 13  1  0  0  0  0
 23 24  1  0  0  0  0
 23  1  1  0  0  0  0
 23 26  1  0  0  0  0
 25 23  1  0  0  0  0
 26 27  1  0  0  0  0
 27 28  1  0  0  0  0
 27 29  2  0  0  0  0
 30 31  1  0  0  0  0
 30 29  1  0  0  0  0
 31 37  1  0  0  0  0
 32 31  2  0  0  0  0
 33 32  1  0  0  0  0
 34 33  1  0  0  0  0
 35 33  2  0  0  0  0
 35 36  1  0  0  0  0
 36 26  1  0  0  0  0
 36 30  2  0  0  0  0
 37 39  1  0  0  0  0
 37 38  1  0  0  0  0
M  END
>  <minimizedAffinity>
-5.43998766

$$$$
