
 OpenBabel03242514483D

 49 53  0  0  1  0  0  0  0  0999 V2000
   46.0500   35.2000   42.1510 C   0  0  0  0  0  0  0  0  0  0  0  0
   45.9860   36.2760   42.5060 H   0  0  0  0  0  0  0  0  0  0  0  0
   46.9030   35.1850   41.5000 H   0  0  0  0  0  0  0  0  0  0  0  0
   45.7500   33.0580   40.2620 F   0  0  0  0  0  0  0  0  0  0  0  0
   44.7360   33.8750   40.5160 C   0  0  0  0  0  0  0  0  0  0  0  0
   44.8070   34.9100   41.4130 C   0  0  0  0  0  0  0  0  0  0  0  0
   43.7020   35.7080   41.6450 C   0  0  0  0  0  0  0  0  0  0  0  0
   42.5560   35.4120   40.9380 C   0  0  0  0  0  0  0  0  0  0  0  0
   42.4160   34.3840   40.0170 C   0  0  0  0  0  0  0  0  0  0  0  0
   43.5530   33.5950   39.8060 C   0  0  0  0  0  0  0  0  0  0  0  0
   43.7220   36.5240   42.3400 H   0  0  0  0  0  0  0  0  0  0  0  0
   41.6920   36.0390   41.1210 H   0  0  0  0  0  0  0  0  0  0  0  0
   41.5070   34.1960   39.4940 H   0  0  0  0  0  0  0  0  0  0  0  0
   43.4640   32.5260   38.8700 N   0  0  0  0  0  0  0  0  0  0  0  0
   42.6430   31.4440   38.9830 C   0  0  0  0  0  0  0  0  0  0  0  0
   41.9390   31.2110   39.7720 H   0  0  0  0  0  0  0  0  0  0  0  0
   42.7780   30.6030   37.9500 N   0  0  0  0  0  0  0  0  0  0  0  0
   43.6980   31.1250   37.1340 C   0  0  0  0  0  0  0  0  0  0  0  0
   44.2860   30.7650   35.9210 C   0  0  0  0  0  0  0  0  0  0  0  0
   45.2290   31.5450   35.3300 N   0  0  0  0  0  0  0  0  0  0  0  0
   45.6080   32.6960   35.9260 C   0  0  0  0  0  0  0  0  0  0  0  0
   46.3690   33.2570   35.3820 H   0  0  0  0  0  0  0  0  0  0  0  0
   45.0550   33.0730   37.1040 N   0  0  0  0  0  0  0  0  0  0  0  0
   44.1230   32.3220   37.7090 C   0  0  0  0  0  0  0  0  0  0  0  0
   43.8440   29.5430   35.3450 N   0  0  0  0  0  0  0  0  0  0  0  0
   44.2950   28.6530   35.6860 H   0  0  0  0  0  0  0  0  0  0  0  0
   43.1670   29.1910   34.6410 H   0  0  0  0  0  0  0  0  0  0  0  0
   46.1660   34.4360   43.4200 C   0  0  0  0  0  0  0  0  0  0  0  0
   47.1330   33.4460   43.4800 C   0  0  0  0  0  0  0  0  0  0  0  0
   47.2400   32.7420   44.6950 C   0  0  0  0  0  0  0  0  0  0  0  0
   46.4110   33.0580   45.7220 N   0  0  0  0  0  0  0  0  0  0  0  0
   45.4920   34.0270   45.6070 C   0  0  0  0  0  0  0  0  0  0  0  0
   45.3810   34.6950   44.4750 N   0  0  0  0  0  0  0  0  0  0  0  0
   47.9730   31.9560   44.8110 H   0  0  0  0  0  0  0  0  0  0  0  0
   44.8030   34.3290   46.3840 H   0  0  0  0  0  0  0  0  0  0  0  0
   49.2200   34.0240   42.2420 C   0  0  2  0  0  0  0  0  0  0  0  0
   48.0000   33.0620   42.3330 C   0  0  1  0  0  0  0  0  0  0  0  0
   48.4420   31.7980   42.3210 O   0  0  0  0  0  0  0  0  0  0  0  0
   49.7960   31.7540   42.5270 C   0  0  0  0  0  0  0  0  0  0  0  0
   50.3020   32.9920   41.8470 C   0  0  1  0  0  0  0  0  0  0  0  0
   49.2120   34.7250   41.4230 H   0  0  0  0  0  0  0  0  0  0  0  0
   47.6890   33.3000   41.3590 H   0  0  0  0  0  0  0  0  0  0  0  0
   50.1270   31.7380   43.5700 H   0  0  0  0  0  0  0  0  0  0  0  0
   50.1870   30.8360   42.0180 H   0  0  0  0  0  0  0  0  0  0  0  0
   51.2790   33.3430   42.2370 H   0  0  0  0  0  0  0  0  0  0  0  0
   49.5460   34.6400   43.3810 O   0  0  0  0  0  0  0  0  0  0  0  0
   49.9120   35.5310   43.2280 H   0  0  0  0  0  0  0  0  0  0  0  0
   50.2810   32.7360   40.4940 O   0  0  0  0  0  0  0  0  0  0  0  0
   49.8780   33.5020   39.9820 H   0  0  0  0  0  0  0  0  0  0  0  0
  1  2  1  0  0  0  0
  1 28  1  0  0  0  0
  3  1  1  0  0  0  0
  4  5  1  0  0  0  0
  5  6  1  0  0  0  0
  6  7  2  0  0  0  0
  6  1  1  0  0  0  0
  7 11  1  0  0  0  0
  8 12  1  0  0  0  0
  8  7  1  0  0  0  0
  9  8  2  0  0  0  0
 10  9  1  0  0  0  0
 10  5  2  0  0  0  0
 13  9  1  0  0  0  0
 14 15  1  0  0  0  0
 14 10  1  0  0  0  0
 15 16  1  0  0  0  0
 17 15  2  0  0  0  0
 18 24  1  0  0  0  0
 18 17  1  0  0  0  0
 19 18  2  0  0  0  0
 20 19  1  0  0  0  0
 20 21  2  0  0  0  0
 21 23  1  0  0  0  0
 22 21  1  0  0  0  0
 23 24  2  0  0  0  0
 24 14  1  0  0  0  0
 25 26  1  0  0  0  0
 25 19  1  0  0  0  0
 27 25  1  0  0  0  0
 28 29  2  0  0  0  0
 28 33  1  0  0  0  0
 29 30  1  0  0  0  0
 30 34  1  0  0  0  0
 30 31  2  0  0  0  0
 32 31  1  0  0  0  0
 32 35  1  0  0  0  0
 33 32  2  0  0  0  0
 36 41  1  6  0  0  0
 36 37  1  0  0  0  0
 36 46  1  0  0  0  0
 37 42  1  6  0  0  0
 37 29  1  0  0  0  0
 38 37  1  0  0  0  0
 38 39  1  0  0  0  0
 39 43  1  0  0  0  0
 40 45  1  1  0  0  0
 40 36  1  0  0  0  0
 40 39  1  0  0  0  0
 44 39  1  0  0  0  0
 47 46  1  0  0  0  0
 48 40  1  0  0  0  0
 49 48  1  0  0  0  0
M  END
>  <minimizedAffinity>
-6.48750591

>  <minimizedRMSD>
0.193392649

$$$$
