
 OpenBabel03242523393D

 24 26  0  0  0  0  0  0  0  0999 V2000
   39.8980   27.4120   43.3910 C   0  0  0  0  0  0  0  0  0  0  0  0
   39.3640   26.1060   43.2070 C   0  0  0  0  0  0  0  0  0  0  0  0
   38.2310   25.9960   42.3900 C   0  0  0  0  0  0  0  0  0  0  0  0
   37.7030   27.1010   41.8240 N   0  0  0  0  0  0  0  0  0  0  0  0
   38.2440   28.3300   42.0260 C   0  0  0  0  0  0  0  0  0  0  0  0
   39.3320   28.4890   42.8010 N   0  0  0  0  0  0  0  0  0  0  0  0
   40.7630   27.4150   44.0290 H   0  0  0  0  0  0  0  0  0  0  0  0
   39.7790   25.2350   43.6510 H   0  0  0  0  0  0  0  0  0  0  0  0
   37.7350   29.5310   41.4580 N   0  0  0  0  0  0  0  0  0  0  0  0
   36.4470   29.6780   41.0580 C   0  0  0  0  0  0  0  0  0  0  0  0
   35.6230   28.9570   41.0930 H   0  0  0  0  0  0  0  0  0  0  0  0
   36.2500   30.9130   40.5620 N   0  0  0  0  0  0  0  0  0  0  0  0
   37.4140   31.5900   40.6350 C   0  0  0  0  0  0  0  0  0  0  0  0
   37.8430   32.8750   40.2910 C   0  0  0  0  0  0  0  0  0  0  0  0
   39.1450   33.1930   40.5290 N   0  0  0  0  0  0  0  0  0  0  0  0
   39.9970   32.3100   41.0760 C   0  0  0  0  0  0  0  0  0  0  0  0
   41.0340   32.6440   41.2370 H   0  0  0  0  0  0  0  0  0  0  0  0
   39.6060   31.0650   41.4160 N   0  0  0  0  0  0  0  0  0  0  0  0
   38.3280   30.7120   41.1960 C   0  0  0  0  0  0  0  0  0  0  0  0
   36.9260   33.7680   39.7230 N   0  0  0  0  0  0  0  0  0  0  0  0
   36.5180   34.7070   39.9840 H   0  0  0  0  0  0  0  0  0  0  0  0
   36.5330   33.4480   38.8140 H   0  0  0  0  0  0  0  0  0  0  0  0
   37.4950   24.3860   42.1050 S   0  0  0  0  0  0  0  0  0  0  0  0
   37.2550   24.2590   40.7310 H   0  0  0  0  0  0  0  0  0  0  0  0
  1  7  1  0  0  0  0
  2  1  1  0  0  0  0
  2  8  1  0  0  0  0
  3  2  2  0  0  0  0
  4  5  2  0  0  0  0
  4  3  1  0  0  0  0
  5  6  1  0  0  0  0
  6  1  2  0  0  0  0
  9  5  1  0  0  0  0
 10 11  1  0  0  0  0
 10  9  1  0  0  0  0
 12 13  1  0  0  0  0
 12 10  2  0  0  0  0
 13 19  1  0  0  0  0
 14 15  1  0  0  0  0
 14 13  2  0  0  0  0
 15 16  2  0  0  0  0
 16 17  1  0  0  0  0
 16 18  1  0  0  0  0
 19 18  2  0  0  0  0
 19  9  1  0  0  0  0
 20 21  1  0  0  0  0
 20 14  1  0  0  0  0
 22 20  1  0  0  0  0
 23  3  1  0  0  0  0
 24 23  1  0  0  0  0
M  END
>  <minimizedAffinity>
-5.50675917

$$$$

 OpenBabel03242523393D

 24 26  0  0  0  0  0  0  0  0999 V2000
   37.3800   28.6260   43.2750 C   0  0  0  0  0  0  0  0  0  0  0  0
   37.1660   27.2200   43.3040 C   0  0  0  0  0  0  0  0  0  0  0  0
   37.3660   26.5250   42.1040 C   0  0  0  0  0  0  0  0  0  0  0  0
   37.7450   27.1960   40.9970 N   0  0  0  0  0  0  0  0  0  0  0  0
   37.9390   28.5390   41.0110 C   0  0  0  0  0  0  0  0  0  0  0  0
   37.7600   29.2520   42.1380 N   0  0  0  0  0  0  0  0  0  0  0  0
   37.2070   29.0870   44.2290 H   0  0  0  0  0  0  0  0  0  0  0  0
   36.8680   26.6900   44.1750 H   0  0  0  0  0  0  0  0  0  0  0  0
   38.3380   29.3020   39.8790 N   0  0  0  0  0  0  0  0  0  0  0  0
   38.1260   28.9030   38.6000 C   0  0  0  0  0  0  0  0  0  0  0  0
   37.6470   27.9910   38.2280 H   0  0  0  0  0  0  0  0  0  0  0  0
   38.6060   29.8200   37.7390 N   0  0  0  0  0  0  0  0  0  0  0  0
   39.1380   30.8330   38.4510 C   0  0  0  0  0  0  0  0  0  0  0  0
   39.7710   32.0410   38.1460 C   0  0  0  0  0  0  0  0  0  0  0  0
   40.1810   32.8210   39.1840 N   0  0  0  0  0  0  0  0  0  0  0  0
   39.9890   32.4520   40.4620 C   0  0  0  0  0  0  0  0  0  0  0  0
   40.3500   33.1380   41.2440 H   0  0  0  0  0  0  0  0  0  0  0  0
   39.3810   31.2920   40.7800 N   0  0  0  0  0  0  0  0  0  0  0  0
   38.9610   30.4930   39.7830 C   0  0  0  0  0  0  0  0  0  0  0  0
   39.9530   32.3920   36.8030 N   0  0  0  0  0  0  0  0  0  0  0  0
   39.6360   33.1780   36.1730 H   0  0  0  0  0  0  0  0  0  0  0  0
   40.5480   31.7240   36.2700 H   0  0  0  0  0  0  0  0  0  0  0  0
   37.1180   24.7500   42.0540 S   0  0  0  0  0  0  0  0  0  0  0  0
   38.2130   24.1790   41.3930 H   0  0  0  0  0  0  0  0  0  0  0  0
  1  2  1  0  0  0  0
  1  7  1  0  0  0  0
  2  8  1  0  0  0  0
  3  2  2  0  0  0  0
  4  5  2  0  0  0  0
  4  3  1  0  0  0  0
  5  6  1  0  0  0  0
  6  1  2  0  0  0  0
  9  5  1  0  0  0  0
 10  9  1  0  0  0  0
 11 10  1  0  0  0  0
 12 13  1  0  0  0  0
 12 10  2  0  0  0  0
 13 19  1  0  0  0  0
 14 13  2  0  0  0  0
 14 15  1  0  0  0  0
 15 16  2  0  0  0  0
 16 18  1  0  0  0  0
 16 17  1  0  0  0  0
 19  9  1  0  0  0  0
 19 18  2  0  0  0  0
 20 14  1  0  0  0  0
 21 20  1  0  0  0  0
 22 20  1  0  0  0  0
 23  3  1  0  0  0  0
 24 23  1  0  0  0  0
M  END
>  <minimizedAffinity>
-5.23328018

$$$$

 OpenBabel03242523393D

 24 26  0  0  0  0  0  0  0  0999 V2000
   36.1890   30.4270   40.7310 C   0  0  0  0  0  0  0  0  0  0  0  0
   36.9060   31.6420   40.5420 C   0  0  0  0  0  0  0  0  0  0  0  0
   38.2630   31.6350   40.8880 C   0  0  0  0  0  0  0  0  0  0  0  0
   38.8250   30.5090   41.3730 N   0  0  0  0  0  0  0  0  0  0  0  0
   38.1050   29.3700   41.5380 C   0  0  0  0  0  0  0  0  0  0  0  0
   36.7990   29.3250   41.2200 N   0  0  0  0  0  0  0  0  0  0  0  0
   35.1570   30.5120   40.4440 H   0  0  0  0  0  0  0  0  0  0  0  0
   36.4650   32.5290   40.1590 H   0  0  0  0  0  0  0  0  0  0  0  0
   38.6390   28.1520   42.0440 N   0  0  0  0  0  0  0  0  0  0  0  0
   39.7410   28.0930   42.8320 C   0  0  0  0  0  0  0  0  0  0  0  0
   40.3770   28.9060   43.1980 H   0  0  0  0  0  0  0  0  0  0  0  0
   40.0140   26.8160   43.1590 N   0  0  0  0  0  0  0  0  0  0  0  0
   39.0870   26.0240   42.5850 C   0  0  0  0  0  0  0  0  0  0  0  0
   38.8340   24.6510   42.5490 C   0  0  0  0  0  0  0  0  0  0  0  0
   37.7580   24.2230   41.8320 N   0  0  0  0  0  0  0  0  0  0  0  0
   36.9610   25.0830   41.1770 C   0  0  0  0  0  0  0  0  0  0  0  0
   36.1120   24.6580   40.6190 H   0  0  0  0  0  0  0  0  0  0  0  0
   37.1850   26.4120   41.1970 N   0  0  0  0  0  0  0  0  0  0  0  0
   38.2380   26.8750   41.8940 C   0  0  0  0  0  0  0  0  0  0  0  0
   39.6860   23.7840   43.2450 N   0  0  0  0  0  0  0  0  0  0  0  0
   39.5870   23.0970   44.0410 H   0  0  0  0  0  0  0  0  0  0  0  0
   40.6720   23.8060   42.9110 H   0  0  0  0  0  0  0  0  0  0  0  0
   39.2400   33.1240   40.6800 S   0  0  0  0  0  0  0  0  0  0  0  0
   40.4370   32.7710   40.0460 H   0  0  0  0  0  0  0  0  0  0  0  0
  1  6  1  0  0  0  0
  2  1  2  0  0  0  0
  2  3  1  0  0  0  0
  3  4  2  0  0  0  0
  4  5  1  0  0  0  0
  5  9  1  0  0  0  0
  6  5  2  0  0  0  0
  7  1  1  0  0  0  0
  8  2  1  0  0  0  0
  9 10  1  0  0  0  0
 10 12  2  0  0  0  0
 10 11  1  0  0  0  0
 13 12  1  0  0  0  0
 14 13  1  0  0  0  0
 14 20  1  0  0  0  0
 15 14  2  0  0  0  0
 16 18  2  0  0  0  0
 16 15  1  0  0  0  0
 17 16  1  0  0  0  0
 18 19  1  0  0  0  0
 19  9  1  0  0  0  0
 19 13  2  0  0  0  0
 20 21  1  0  0  0  0
 22 20  1  0  0  0  0
 23  3  1  0  0  0  0
 24 23  1  0  0  0  0
M  END
>  <minimizedAffinity>
-5.1919384

$$$$

 OpenBabel03242523393D

 24 26  0  0  0  0  0  0  0  0999 V2000
   38.7790   25.7580   42.0350 C   0  0  0  0  0  0  0  0  0  0  0  0
   38.0620   24.6560   41.4900 C   0  0  0  0  0  0  0  0  0  0  0  0
   36.9730   24.9590   40.6620 C   0  0  0  0  0  0  0  0  0  0  0  0
   36.6530   26.2460   40.4190 N   0  0  0  0  0  0  0  0  0  0  0  0
   37.3640   27.2690   40.9590 C   0  0  0  0  0  0  0  0  0  0  0  0
   38.4190   27.0310   41.7600 N   0  0  0  0  0  0  0  0  0  0  0  0
   39.5970   25.4460   42.6570 H   0  0  0  0  0  0  0  0  0  0  0  0
   38.3120   23.6420   41.6800 H   0  0  0  0  0  0  0  0  0  0  0  0
   37.0780   28.6450   40.7410 N   0  0  0  0  0  0  0  0  0  0  0  0
   35.8520   29.1030   40.3830 C   0  0  0  0  0  0  0  0  0  0  0  0
   34.9270   28.5450   40.2080 H   0  0  0  0  0  0  0  0  0  0  0  0
   35.8750   30.4420   40.2470 N   0  0  0  0  0  0  0  0  0  0  0  0
   37.1230   30.8740   40.5170 C   0  0  0  0  0  0  0  0  0  0  0  0
   37.7630   32.1160   40.5470 C   0  0  0  0  0  0  0  0  0  0  0  0
   39.0830   32.1410   40.8790 N   0  0  0  0  0  0  0  0  0  0  0  0
   39.7580   31.0160   41.1690 C   0  0  0  0  0  0  0  0  0  0  0  0
   40.8230   31.1200   41.4270 H   0  0  0  0  0  0  0  0  0  0  0  0
   39.1620   29.8070   41.1460 N   0  0  0  0  0  0  0  0  0  0  0  0
   37.8580   29.7400   40.8230 C   0  0  0  0  0  0  0  0  0  0  0  0
   37.0270   33.2670   40.2390 N   0  0  0  0  0  0  0  0  0  0  0  0
   36.7540   34.1530   40.7460 H   0  0  0  0  0  0  0  0  0  0  0  0
   36.6410   33.2750   39.2730 H   0  0  0  0  0  0  0  0  0  0  0  0
   36.0150   23.6290   39.9330 S   0  0  0  0  0  0  0  0  0  0  0  0
   35.8340   23.9210   38.5760 H   0  0  0  0  0  0  0  0  0  0  0  0
  1  7  1  0  0  0  0
  2  8  1  0  0  0  0
  2  1  2  0  0  0  0
  3  2  1  0  0  0  0
  4  3  2  0  0  0  0
  4  5  1  0  0  0  0
  5  6  2  0  0  0  0
  6  1  1  0  0  0  0
  9 19  1  0  0  0  0
  9  5  1  0  0  0  0
 10  9  1  0  0  0  0
 11 10  1  0  0  0  0
 12 10  2  0  0  0  0
 12 13  1  0  0  0  0
 13 14  2  0  0  0  0
 13 19  1  0  0  0  0
 14 15  1  0  0  0  0
 15 16  2  0  0  0  0
 16 17  1  0  0  0  0
 18 16  1  0  0  0  0
 19 18  2  0  0  0  0
 20 14  1  0  0  0  0
 20 21  1  0  0  0  0
 22 20  1  0  0  0  0
 23  3  1  0  0  0  0
 24 23  1  0  0  0  0
M  END
>  <minimizedAffinity>
-4.78974199

$$$$

 OpenBabel03242523393D

 24 26  0  0  0  0  0  0  0  0999 V2000
   35.7960   28.8890   41.0360 C   0  0  0  0  0  0  0  0  0  0  0  0
   35.8560   30.0370   40.1980 C   0  0  0  0  0  0  0  0  0  0  0  0
   37.1310   30.4710   39.8100 C   0  0  0  0  0  0  0  0  0  0  0  0
   38.2230   29.8020   40.2330 N   0  0  0  0  0  0  0  0  0  0  0  0
   38.1220   28.7090   41.0330 C   0  0  0  0  0  0  0  0  0  0  0  0
   36.9210   28.2530   41.4320 N   0  0  0  0  0  0  0  0  0  0  0  0
   34.7880   28.6200   41.2910 H   0  0  0  0  0  0  0  0  0  0  0  0
   34.9970   30.5650   39.8640 H   0  0  0  0  0  0  0  0  0  0  0  0
   39.2340   27.9620   41.5100 N   0  0  0  0  0  0  0  0  0  0  0  0
   40.4830   28.4790   41.6280 C   0  0  0  0  0  0  0  0  0  0  0  0
   40.8420   29.4870   41.3960 H   0  0  0  0  0  0  0  0  0  0  0  0
   41.3310   27.5480   42.1040 N   0  0  0  0  0  0  0  0  0  0  0  0
   40.6400   26.4080   42.3040 C   0  0  0  0  0  0  0  0  0  0  0  0
   40.9450   25.1260   42.7690 C   0  0  0  0  0  0  0  0  0  0  0  0
   39.9340   24.2160   42.8270 N   0  0  0  0  0  0  0  0  0  0  0  0
   38.6820   24.5280   42.4530 C   0  0  0  0  0  0  0  0  0  0  0  0
   37.9210   23.7360   42.5290 H   0  0  0  0  0  0  0  0  0  0  0  0
   38.3640   25.7580   42.0010 N   0  0  0  0  0  0  0  0  0  0  0  0
   39.3350   26.6860   41.9290 C   0  0  0  0  0  0  0  0  0  0  0  0
   42.2610   24.8370   43.1510 N   0  0  0  0  0  0  0  0  0  0  0  0
   42.7470   24.5420   44.0410 H   0  0  0  0  0  0  0  0  0  0  0  0
   42.9540   24.9310   42.3790 H   0  0  0  0  0  0  0  0  0  0  0  0
   37.2960   31.9100   38.7540 S   0  0  0  0  0  0  0  0  0  0  0  0
   38.1970   31.5940   37.7300 H   0  0  0  0  0  0  0  0  0  0  0  0
  1  7  1  0  0  0  0
  1  6  1  0  0  0  0
  2  1  2  0  0  0  0
  3  2  1  0  0  0  0
  3  4  2  0  0  0  0
  4  5  1  0  0  0  0
  5  6  2  0  0  0  0
  5  9  1  0  0  0  0
  8  2  1  0  0  0  0
  9 10  1  0  0  0  0
  9 19  1  0  0  0  0
 10 12  2  0  0  0  0
 11 10  1  0  0  0  0
 12 13  1  0  0  0  0
 13 14  1  0  0  0  0
 14 15  2  0  0  0  0
 14 20  1  0  0  0  0
 16 17  1  0  0  0  0
 16 15  1  0  0  0  0
 18 16  2  0  0  0  0
 19 18  1  0  0  0  0
 19 13  2  0  0  0  0
 20 21  1  0  0  0  0
 22 20  1  0  0  0  0
 23  3  1  0  0  0  0
 24 23  1  0  0  0  0
M  END
>  <minimizedAffinity>
-4.73979855

$$$$

 OpenBabel03242523393D

 24 26  0  0  0  0  0  0  0  0999 V2000
   40.1720   33.9940   39.6100 C   0  0  0  0  0  0  0  0  0  0  0  0
   41.5760   34.1610   39.7700 C   0  0  0  0  0  0  0  0  0  0  0  0
   42.2330   33.2350   40.5910 C   0  0  0  0  0  0  0  0  0  0  0  0
   41.5300   32.2470   41.1820 N   0  0  0  0  0  0  0  0  0  0  0  0
   40.1900   32.1230   41.0030 C   0  0  0  0  0  0  0  0  0  0  0  0
   39.5140   32.9860   40.2240 N   0  0  0  0  0  0  0  0  0  0  0  0
   39.7420   34.7410   38.9680 H   0  0  0  0  0  0  0  0  0  0  0  0
   42.1310   34.9380   39.3050 H   0  0  0  0  0  0  0  0  0  0  0  0
   39.3950   31.1040   41.5970 N   0  0  0  0  0  0  0  0  0  0  0  0
   39.7490   30.4500   42.7310 C   0  0  0  0  0  0  0  0  0  0  0  0
   40.6420   30.5710   43.3530 H   0  0  0  0  0  0  0  0  0  0  0  0
   38.8100   29.5430   43.0590 N   0  0  0  0  0  0  0  0  0  0  0  0
   37.8270   29.5980   42.1380 C   0  0  0  0  0  0  0  0  0  0  0  0
   36.6170   28.9300   41.9310 C   0  0  0  0  0  0  0  0  0  0  0  0
   35.8770   29.2830   40.8440 N   0  0  0  0  0  0  0  0  0  0  0  0
   36.2860   30.2390   39.9930 C   0  0  0  0  0  0  0  0  0  0  0  0
   35.6300   30.4660   39.1380 H   0  0  0  0  0  0  0  0  0  0  0  0
   37.4490   30.8970   40.1730 N   0  0  0  0  0  0  0  0  0  0  0  0
   38.2090   30.5770   41.2350 C   0  0  0  0  0  0  0  0  0  0  0  0
   36.2230   27.9400   42.8400 N   0  0  0  0  0  0  0  0  0  0  0  0
   35.4130   27.7930   43.5010 H   0  0  0  0  0  0  0  0  0  0  0  0
   36.8800   27.1330   42.8950 H   0  0  0  0  0  0  0  0  0  0  0  0
   44.0030   33.3730   40.8460 S   0  0  0  0  0  0  0  0  0  0  0  0
   44.5640   32.1010   40.6780 H   0  0  0  0  0  0  0  0  0  0  0  0
  1  2  2  0  0  0  0
  1  6  1  0  0  0  0
  2  3  1  0  0  0  0
  3 23  1  0  0  0  0
  3  4  2  0  0  0  0
  5  4  1  0  0  0  0
  5  9  1  0  0  0  0
  6  5  2  0  0  0  0
  7  1  1  0  0  0  0
  8  2  1  0  0  0  0
  9 10  1  0  0  0  0
 10 12  2  0  0  0  0
 10 11  1  0  0  0  0
 13 12  1  0  0  0  0
 14 13  1  0  0  0  0
 14 20  1  0  0  0  0
 15 14  2  0  0  0  0
 16 18  2  0  0  0  0
 16 15  1  0  0  0  0
 17 16  1  0  0  0  0
 18 19  1  0  0  0  0
 19  9  1  0  0  0  0
 19 13  2  0  0  0  0
 20 22  1  0  0  0  0
 20 21  1  0  0  0  0
 24 23  1  0  0  0  0
M  END
>  <minimizedAffinity>
-4.64585209

$$$$

 OpenBabel03242523393D

 24 26  0  0  0  0  0  0  0  0999 V2000
   37.7130   26.7200   38.9710 C   0  0  0  0  0  0  0  0  0  0  0  0
   37.8460   25.6050   39.8450 C   0  0  0  0  0  0  0  0  0  0  0  0
   38.2830   25.8730   41.1490 C   0  0  0  0  0  0  0  0  0  0  0  0
   38.5530   27.1430   41.5170 N   0  0  0  0  0  0  0  0  0  0  0  0
   38.4120   28.1790   40.6510 C   0  0  0  0  0  0  0  0  0  0  0  0
   37.9960   27.9740   39.3890 N   0  0  0  0  0  0  0  0  0  0  0  0
   37.3750   26.4340   37.9920 H   0  0  0  0  0  0  0  0  0  0  0  0
   37.6340   24.6050   39.5570 H   0  0  0  0  0  0  0  0  0  0  0  0
   38.6800   29.5370   40.9790 N   0  0  0  0  0  0  0  0  0  0  0  0
   39.5170   29.9110   41.9790 C   0  0  0  0  0  0  0  0  0  0  0  0
   40.0970   29.2870   42.6680 H   0  0  0  0  0  0  0  0  0  0  0  0
   39.5780   31.2530   42.0600 N   0  0  0  0  0  0  0  0  0  0  0  0
   38.7780   31.7720   41.1070 C   0  0  0  0  0  0  0  0  0  0  0  0
   38.4260   33.0600   40.6950 C   0  0  0  0  0  0  0  0  0  0  0  0
   37.5550   33.1750   39.6550 N   0  0  0  0  0  0  0  0  0  0  0  0
   37.0440   32.0960   39.0390 C   0  0  0  0  0  0  0  0  0  0  0  0
   36.3460   32.2740   38.2070 H   0  0  0  0  0  0  0  0  0  0  0  0
   37.3690   30.8440   39.4200 N   0  0  0  0  0  0  0  0  0  0  0  0
   38.2270   30.6870   40.4440 C   0  0  0  0  0  0  0  0  0  0  0  0
   38.9790   34.1610   41.3600 N   0  0  0  0  0  0  0  0  0  0  0  0
   39.5970   34.9770   41.0970 H   0  0  0  0  0  0  0  0  0  0  0  0
   38.7330   34.2100   42.3700 H   0  0  0  0  0  0  0  0  0  0  0  0
   38.4780   24.5250   42.3160 S   0  0  0  0  0  0  0  0  0  0  0  0
   37.8740   24.9060   43.5200 H   0  0  0  0  0  0  0  0  0  0  0  0
  1  6  2  0  0  0  0
  1  2  1  0  0  0  0
  2  3  2  0  0  0  0
  3  4  1  0  0  0  0
  3 23  1  0  0  0  0
  5  9  1  0  0  0  0
  5  4  2  0  0  0  0
  6  5  1  0  0  0  0
  7  1  1  0  0  0  0
  8  2  1  0  0  0  0
  9 10  1  0  0  0  0
 10 12  2  0  0  0  0
 10 11  1  0  0  0  0
 13 12  1  0  0  0  0
 14 13  1  0  0  0  0
 14 20  1  0  0  0  0
 15 14  2  0  0  0  0
 16 18  2  0  0  0  0
 16 15  1  0  0  0  0
 17 16  1  0  0  0  0
 18 19  1  0  0  0  0
 19  9  1  0  0  0  0
 19 13  2  0  0  0  0
 20 22  1  0  0  0  0
 21 20  1  0  0  0  0
 23 24  1  0  0  0  0
M  END
>  <minimizedAffinity>
-4.59802723

$$$$

 OpenBabel03242523393D

 24 26  0  0  0  0  0  0  0  0999 V2000
   37.4720   27.2380   42.4820 C   0  0  0  0  0  0  0  0  0  0  0  0
   38.4610   26.3280   42.9490 C   0  0  0  0  0  0  0  0  0  0  0  0
   39.6760   26.3030   42.2520 C   0  0  0  0  0  0  0  0  0  0  0  0
   39.8590   27.1210   41.1940 N   0  0  0  0  0  0  0  0  0  0  0  0
   38.8880   27.9760   40.7810 C   0  0  0  0  0  0  0  0  0  0  0  0
   37.7050   28.0370   41.4170 N   0  0  0  0  0  0  0  0  0  0  0  0
   36.5710   27.1990   43.0660 H   0  0  0  0  0  0  0  0  0  0  0  0
   38.3200   25.6840   43.7810 H   0  0  0  0  0  0  0  0  0  0  0  0
   39.0200   28.8610   39.6750 N   0  0  0  0  0  0  0  0  0  0  0  0
   39.8850   28.6510   38.6520 C   0  0  0  0  0  0  0  0  0  0  0  0
   40.5890   27.8260   38.4970 H   0  0  0  0  0  0  0  0  0  0  0  0
   39.7940   29.6460   37.7510 N   0  0  0  0  0  0  0  0  0  0  0  0
   38.8620   30.5210   38.1790 C   0  0  0  0  0  0  0  0  0  0  0  0
   38.3280   31.7210   37.7020 C   0  0  0  0  0  0  0  0  0  0  0  0
   37.3660   32.3280   38.4510 N   0  0  0  0  0  0  0  0  0  0  0  0
   36.9380   31.8020   39.6100 C   0  0  0  0  0  0  0  0  0  0  0  0
   36.1580   32.3540   40.1570 H   0  0  0  0  0  0  0  0  0  0  0  0
   37.4390   30.6450   40.0900 N   0  0  0  0  0  0  0  0  0  0  0  0
   38.3910   30.0150   39.3800 C   0  0  0  0  0  0  0  0  0  0  0  0
   38.7980   32.2400   36.4890 N   0  0  0  0  0  0  0  0  0  0  0  0
   38.3810   32.4630   35.5450 H   0  0  0  0  0  0  0  0  0  0  0  0
   39.8130   32.4720   36.4960 H   0  0  0  0  0  0  0  0  0  0  0  0
   40.9770   25.1850   42.7740 S   0  0  0  0  0  0  0  0  0  0  0  0
   42.1760   25.9070   42.8170 H   0  0  0  0  0  0  0  0  0  0  0  0
  1  2  1  0  0  0  0
  1  7  1  0  0  0  0
  2  8  1  0  0  0  0
  3 23  1  0  0  0  0
  3  2  2  0  0  0  0
  4  3  1  0  0  0  0
  5  4  2  0  0  0  0
  5  6  1  0  0  0  0
  6  1  2  0  0  0  0
  9  5  1  0  0  0  0
 10  9  1  0  0  0  0
 11 10  1  0  0  0  0
 12 13  1  0  0  0  0
 12 10  2  0  0  0  0
 13 19  1  0  0  0  0
 14 13  2  0  0  0  0
 14 15  1  0  0  0  0
 15 16  2  0  0  0  0
 16 18  1  0  0  0  0
 16 17  1  0  0  0  0
 19  9  1  0  0  0  0
 19 18  2  0  0  0  0
 20 22  1  0  0  0  0
 20 14  1  0  0  0  0
 21 20  1  0  0  0  0
 23 24  1  0  0  0  0
M  END
>  <minimizedAffinity>
-4.59551525

$$$$

 OpenBabel03242523393D

 24 26  0  0  0  0  0  0  0  0999 V2000
   37.6340   23.2710   40.8770 C   0  0  0  0  0  0  0  0  0  0  0  0
   37.6750   22.5480   39.6520 C   0  0  0  0  0  0  0  0  0  0  0  0
   37.3180   23.2480   38.4930 C   0  0  0  0  0  0  0  0  0  0  0  0
   36.9590   24.5460   38.5780 N   0  0  0  0  0  0  0  0  0  0  0  0
   36.9340   25.2000   39.7670 C   0  0  0  0  0  0  0  0  0  0  0  0
   37.2680   24.5720   40.9090 N   0  0  0  0  0  0  0  0  0  0  0  0
   37.9210   22.6680   41.7190 H   0  0  0  0  0  0  0  0  0  0  0  0
   37.9580   21.5270   39.5830 H   0  0  0  0  0  0  0  0  0  0  0  0
   36.5650   26.5650   39.9220 N   0  0  0  0  0  0  0  0  0  0  0  0
   35.7770   27.2280   39.0400 C   0  0  0  0  0  0  0  0  0  0  0  0
   35.3140   26.8670   38.1150 H   0  0  0  0  0  0  0  0  0  0  0  0
   35.5960   28.5010   39.4390 N   0  0  0  0  0  0  0  0  0  0  0  0
   36.2670   28.6820   40.5940 C   0  0  0  0  0  0  0  0  0  0  0  0
   36.4630   29.7470   41.4760 C   0  0  0  0  0  0  0  0  0  0  0  0
   37.2370   29.5260   42.5750 N   0  0  0  0  0  0  0  0  0  0  0  0
   37.7970   28.3290   42.8130 C   0  0  0  0  0  0  0  0  0  0  0  0
   38.4090   28.2310   43.7240 H   0  0  0  0  0  0  0  0  0  0  0  0
   37.6220   27.2860   41.9770 N   0  0  0  0  0  0  0  0  0  0  0  0
   36.8650   27.4640   40.8790 C   0  0  0  0  0  0  0  0  0  0  0  0
   35.8630   30.9810   41.1960 N   0  0  0  0  0  0  0  0  0  0  0  0
   35.1520   31.6050   41.6660 H   0  0  0  0  0  0  0  0  0  0  0  0
   36.1810   31.4110   40.3030 H   0  0  0  0  0  0  0  0  0  0  0  0
   37.3420   22.4120   36.9070 S   0  0  0  0  0  0  0  0  0  0  0  0
   38.0000   23.2420   35.9910 H   0  0  0  0  0  0  0  0  0  0  0  0
  1  6  1  0  0  0  0
  1  7  1  0  0  0  0
  2  1  2  0  0  0  0
  3  4  2  0  0  0  0
  3  2  1  0  0  0  0
  4  5  1  0  0  0  0
  5  9  1  0  0  0  0
  5  6  2  0  0  0  0
  8  2  1  0  0  0  0
  9 19  1  0  0  0  0
 10 12  2  0  0  0  0
 10  9  1  0  0  0  0
 11 10  1  0  0  0  0
 12 13  1  0  0  0  0
 13 19  2  0  0  0  0
 13 14  1  0  0  0  0
 14 15  2  0  0  0  0
 15 16  1  0  0  0  0
 16 17  1  0  0  0  0
 18 16  2  0  0  0  0
 19 18  1  0  0  0  0
 20 14  1  0  0  0  0
 20 21  1  0  0  0  0
 22 20  1  0  0  0  0
 23  3  1  0  0  0  0
 24 23  1  0  0  0  0
M  END
>  <minimizedAffinity>
-4.57033539

$$$$
