
 OpenBabel03252504123D

 30 32  0  0  0  0  0  0  0  0999 V2000
   37.8210   29.2220   40.9110 C   0  0  0  0  0  0  0  0  0  0  0  0
   38.5120   28.6060   41.9570 C   0  0  0  0  0  0  0  0  0  0  0  0
   39.8350   28.9870   42.1940 C   0  0  0  0  0  0  0  0  0  0  0  0
   40.3880   29.9350   41.3990 N   0  0  0  0  0  0  0  0  0  0  0  0
   39.6850   30.5100   40.3930 C   0  0  0  0  0  0  0  0  0  0  0  0
   38.4050   30.1620   40.1410 N   0  0  0  0  0  0  0  0  0  0  0  0
   40.3840   28.5190   43.0010 H   0  0  0  0  0  0  0  0  0  0  0  0
   40.4030   31.4880   39.6480 N   0  0  0  0  0  0  0  0  0  0  0  0
   40.2640   32.8240   39.8880 C   0  0  0  0  0  0  0  0  0  0  0  0
   39.6310   33.2880   40.6290 H   0  0  0  0  0  0  0  0  0  0  0  0
   41.0400   33.5450   39.0630 N   0  0  0  0  0  0  0  0  0  0  0  0
   41.6950   32.6740   38.2740 C   0  0  0  0  0  0  0  0  0  0  0  0
   42.6140   32.8310   37.2500 C   0  0  0  0  0  0  0  0  0  0  0  0
   43.0960   31.7160   36.6390 N   0  0  0  0  0  0  0  0  0  0  0  0
   42.6710   30.4840   37.0390 C   0  0  0  0  0  0  0  0  0  0  0  0
   43.1270   29.6810   36.4770 H   0  0  0  0  0  0  0  0  0  0  0  0
   41.7660   30.2980   38.0430 N   0  0  0  0  0  0  0  0  0  0  0  0
   41.2940   31.4070   38.6430 C   0  0  0  0  0  0  0  0  0  0  0  0
   37.8180   27.5710   42.7790 C   0  0  0  0  0  0  0  0  0  0  0  0
   38.7190   27.0120   43.6800 F   0  0  0  0  0  0  0  0  0  0  0  0
   36.8490   28.2040   43.5370 F   0  0  0  0  0  0  0  0  0  0  0  0
   37.2750   26.5530   42.0710 F   0  0  0  0  0  0  0  0  0  0  0  0
   42.9830   34.1610   36.9200 N   0  0  0  0  0  0  0  0  0  0  0  0
   43.9220   34.3770   37.3690 H   0  0  0  0  0  0  0  0  0  0  0  0
   42.5050   34.8930   36.3530 H   0  0  0  0  0  0  0  0  0  0  0  0
   36.5480   28.8480   40.6910 O   0  0  0  0  0  0  0  0  0  0  0  0
   35.4530   29.6490   40.3310 C   0  0  0  0  0  0  0  0  0  0  0  0
   34.3030   28.9070   40.6480 F   0  0  0  0  0  0  0  0  0  0  0  0
   35.5140   30.8450   41.0040 F   0  0  0  0  0  0  0  0  0  0  0  0
   35.4090   29.8240   38.9610 F   0  0  0  0  0  0  0  0  0  0  0  0
  1  2  1  0  0  0  0
  2  3  2  0  0  0  0
  2 19  1  0  0  0  0
  3  7  1  0  0  0  0
  4  3  1  0  0  0  0
  5  4  2  0  0  0  0
  6  5  1  0  0  0  0
  6  1  2  0  0  0  0
  8  9  1  0  0  0  0
  8  5  1  0  0  0  0
  9 10  1  0  0  0  0
 11  9  2  0  0  0  0
 12 18  1  0  0  0  0
 12 11  1  0  0  0  0
 13 12  2  0  0  0  0
 14 15  2  0  0  0  0
 14 13  1  0  0  0  0
 15 17  1  0  0  0  0
 16 15  1  0  0  0  0
 17 18  2  0  0  0  0
 18  8  1  0  0  0  0
 19 21  1  0  0  0  0
 19 20  1  0  0  0  0
 22 19  1  0  0  0  0
 23 13  1  0  0  0  0
 23 24  1  0  0  0  0
 25 23  1  0  0  0  0
 26  1  1  0  0  0  0
 27 28  1  0  0  0  0
 27 26  1  0  0  0  0
 27 29  1  0  0  0  0
 30 27  1  0  0  0  0
M  END
>  <minimizedAffinity>
-6.03379154

$$$$

 OpenBabel03252504123D

 30 32  0  0  0  0  0  0  0  0999 V2000
   38.9110   27.7450   40.8300 C   0  0  0  0  0  0  0  0  0  0  0  0
   37.9640   28.2170   41.7410 C   0  0  0  0  0  0  0  0  0  0  0  0
   37.6820   29.5850   41.7590 C   0  0  0  0  0  0  0  0  0  0  0  0
   38.3400   30.3920   40.8900 N   0  0  0  0  0  0  0  0  0  0  0  0
   39.2540   29.8970   40.0200 C   0  0  0  0  0  0  0  0  0  0  0  0
   39.5450   28.5780   39.9820 N   0  0  0  0  0  0  0  0  0  0  0  0
   36.9510   29.9660   42.4590 H   0  0  0  0  0  0  0  0  0  0  0  0
   39.8580   30.8680   39.1740 N   0  0  0  0  0  0  0  0  0  0  0  0
   39.4350   31.0760   37.8940 C   0  0  0  0  0  0  0  0  0  0  0  0
   38.6330   30.5620   37.3850 H   0  0  0  0  0  0  0  0  0  0  0  0
   40.1550   32.0390   37.2980 N   0  0  0  0  0  0  0  0  0  0  0  0
   41.0610   32.4690   38.1960 C   0  0  0  0  0  0  0  0  0  0  0  0
   42.0570   33.4300   38.1500 C   0  0  0  0  0  0  0  0  0  0  0  0
   42.8190   33.6230   39.2580 N   0  0  0  0  0  0  0  0  0  0  0  0
   42.5920   32.8780   40.3770 C   0  0  0  0  0  0  0  0  0  0  0  0
   43.2630   33.1260   41.1880 H   0  0  0  0  0  0  0  0  0  0  0  0
   41.6200   31.9230   40.4520 N   0  0  0  0  0  0  0  0  0  0  0  0
   40.8690   31.7400   39.3500 C   0  0  0  0  0  0  0  0  0  0  0  0
   37.2900   27.2500   42.6600 C   0  0  0  0  0  0  0  0  0  0  0  0
   38.1650   26.8900   43.6790 F   0  0  0  0  0  0  0  0  0  0  0  0
   36.2310   27.9030   43.2650 F   0  0  0  0  0  0  0  0  0  0  0  0
   36.8670   26.1070   42.0710 F   0  0  0  0  0  0  0  0  0  0  0  0
   42.2000   34.1430   36.9310 N   0  0  0  0  0  0  0  0  0  0  0  0
   41.7310   35.0920   37.0330 H   0  0  0  0  0  0  0  0  0  0  0  0
   42.6580   33.8920   36.0290 H   0  0  0  0  0  0  0  0  0  0  0  0
   39.1750   26.4260   40.8220 O   0  0  0  0  0  0  0  0  0  0  0  0
   40.2520   25.7490   41.4150 C   0  0  0  0  0  0  0  0  0  0  0  0
   39.6940   24.6890   42.1490 F   0  0  0  0  0  0  0  0  0  0  0  0
   41.1210   25.3190   40.4410 F   0  0  0  0  0  0  0  0  0  0  0  0
   40.8750   26.5530   42.3510 F   0  0  0  0  0  0  0  0  0  0  0  0
  1  2  1  0  0  0  0
  2  3  2  0  0  0  0
  2 19  1  0  0  0  0
  3  7  1  0  0  0  0
  4  3  1  0  0  0  0
  5  4  2  0  0  0  0
  6  5  1  0  0  0  0
  6  1  2  0  0  0  0
  8 18  1  0  0  0  0
  8  5  1  0  0  0  0
  9  8  1  0  0  0  0
 10  9  1  0  0  0  0
 11  9  2  0  0  0  0
 11 12  1  0  0  0  0
 12 18  1  0  0  0  0
 13 12  2  0  0  0  0
 13 14  1  0  0  0  0
 14 15  2  0  0  0  0
 15 17  1  0  0  0  0
 15 16  1  0  0  0  0
 18 17  2  0  0  0  0
 19 21  1  0  0  0  0
 19 20  1  0  0  0  0
 22 19  1  0  0  0  0
 23 24  1  0  0  0  0
 23 13  1  0  0  0  0
 25 23  1  0  0  0  0
 26  1  1  0  0  0  0
 26 27  1  0  0  0  0
 27 28  1  0  0  0  0
 27 30  1  0  0  0  0
 29 27  1  0  0  0  0
M  END
>  <minimizedAffinity>
-5.67067766

$$$$

 OpenBabel03252504123D

 30 32  0  0  0  0  0  0  0  0999 V2000
   38.8710   25.7390   40.8770 C   0  0  0  0  0  0  0  0  0  0  0  0
   37.5240   25.4530   40.6390 C   0  0  0  0  0  0  0  0  0  0  0  0
   36.7890   26.3340   39.8420 C   0  0  0  0  0  0  0  0  0  0  0  0
   37.4140   27.4250   39.3370 N   0  0  0  0  0  0  0  0  0  0  0  0
   38.7230   27.6700   39.5910 C   0  0  0  0  0  0  0  0  0  0  0  0
   39.4580   26.8350   40.3570 N   0  0  0  0  0  0  0  0  0  0  0  0
   35.7450   26.1270   39.6490 H   0  0  0  0  0  0  0  0  0  0  0  0
   39.2350   28.8530   38.9910 N   0  0  0  0  0  0  0  0  0  0  0  0
   39.9440   28.8240   37.8250 C   0  0  0  0  0  0  0  0  0  0  0  0
   40.1940   27.9520   37.2390 H   0  0  0  0  0  0  0  0  0  0  0  0
   40.3190   30.0600   37.4580 N   0  0  0  0  0  0  0  0  0  0  0  0
   39.8520   30.9090   38.3910 C   0  0  0  0  0  0  0  0  0  0  0  0
   39.9290   32.2830   38.5440 C   0  0  0  0  0  0  0  0  0  0  0  0
   39.3350   32.8460   39.6290 N   0  0  0  0  0  0  0  0  0  0  0  0
   38.6860   32.0590   40.5330 C   0  0  0  0  0  0  0  0  0  0  0  0
   38.2570   32.6250   41.3490 H   0  0  0  0  0  0  0  0  0  0  0  0
   38.5950   30.7030   40.4110 N   0  0  0  0  0  0  0  0  0  0  0  0
   39.1850   30.1540   39.3330 C   0  0  0  0  0  0  0  0  0  0  0  0
   36.9220   24.2250   41.2390 C   0  0  0  0  0  0  0  0  0  0  0  0
   36.6540   24.4490   42.5850 F   0  0  0  0  0  0  0  0  0  0  0  0
   35.7010   24.0050   40.6270 F   0  0  0  0  0  0  0  0  0  0  0  0
   37.6960   23.1170   41.1630 F   0  0  0  0  0  0  0  0  0  0  0  0
   40.6300   32.9990   37.5390 N   0  0  0  0  0  0  0  0  0  0  0  0
   39.9240   33.4320   36.8710 H   0  0  0  0  0  0  0  0  0  0  0  0
   41.6480   33.1480   37.3750 H   0  0  0  0  0  0  0  0  0  0  0  0
   39.5690   24.8840   41.6460 O   0  0  0  0  0  0  0  0  0  0  0  0
   40.0020   25.0560   42.9700 C   0  0  0  0  0  0  0  0  0  0  0  0
   39.5570   23.9280   43.6780 F   0  0  0  0  0  0  0  0  0  0  0  0
   41.3690   25.1940   42.9960 F   0  0  0  0  0  0  0  0  0  0  0  0
   39.3580   26.1300   43.5550 F   0  0  0  0  0  0  0  0  0  0  0  0
  1 26  1  0  0  0  0
  2  1  1  0  0  0  0
  2 19  1  0  0  0  0
  3  2  2  0  0  0  0
  4  5  2  0  0  0  0
  4  3  1  0  0  0  0
  5  6  1  0  0  0  0
  6  1  2  0  0  0  0
  7  3  1  0  0  0  0
  8 18  1  0  0  0  0
  8  5  1  0  0  0  0
  9  8  1  0  0  0  0
 10  9  1  0  0  0  0
 11  9  2  0  0  0  0
 11 12  1  0  0  0  0
 12 13  2  0  0  0  0
 12 18  1  0  0  0  0
 13 14  1  0  0  0  0
 14 15  2  0  0  0  0
 15 16  1  0  0  0  0
 17 15  1  0  0  0  0
 18 17  2  0  0  0  0
 19 20  1  0  0  0  0
 21 19  1  0  0  0  0
 22 19  1  0  0  0  0
 23 13  1  0  0  0  0
 24 23  1  0  0  0  0
 25 23  1  0  0  0  0
 26 27  1  0  0  0  0
 27 29  1  0  0  0  0
 27 30  1  0  0  0  0
 27 28  1  0  0  0  0
M  END
>  <minimizedAffinity>
-5.6589098

$$$$

 OpenBabel03252504123D

 30 32  0  0  0  0  0  0  0  0999 V2000
   37.9860   28.9030   40.2230 C   0  0  0  0  0  0  0  0  0  0  0  0
   36.8720   29.4330   39.5690 C   0  0  0  0  0  0  0  0  0  0  0  0
   37.0180   29.8580   38.2450 C   0  0  0  0  0  0  0  0  0  0  0  0
   38.2330   29.7360   37.6580 N   0  0  0  0  0  0  0  0  0  0  0  0
   39.2920   29.2170   38.3260 C   0  0  0  0  0  0  0  0  0  0  0  0
   39.1790   28.7980   39.6050 N   0  0  0  0  0  0  0  0  0  0  0  0
   36.1640   30.2710   37.7250 H   0  0  0  0  0  0  0  0  0  0  0  0
   40.4990   29.1560   37.5740 N   0  0  0  0  0  0  0  0  0  0  0  0
   40.9110   28.0080   36.9620 C   0  0  0  0  0  0  0  0  0  0  0  0
   40.4070   27.0530   36.9670 H   0  0  0  0  0  0  0  0  0  0  0  0
   42.0720   28.1960   36.3160 N   0  0  0  0  0  0  0  0  0  0  0  0
   42.4260   29.4810   36.5040 C   0  0  0  0  0  0  0  0  0  0  0  0
   43.5090   30.2360   36.0850 C   0  0  0  0  0  0  0  0  0  0  0  0
   43.5690   31.5410   36.4590 N   0  0  0  0  0  0  0  0  0  0  0  0
   42.5780   32.0740   37.2280 C   0  0  0  0  0  0  0  0  0  0  0  0
   42.7410   33.1180   37.4580 H   0  0  0  0  0  0  0  0  0  0  0  0
   41.5000   31.3550   37.6580 N   0  0  0  0  0  0  0  0  0  0  0  0
   41.4480   30.0640   37.2820 C   0  0  0  0  0  0  0  0  0  0  0  0
   35.5730   29.5270   40.2990 C   0  0  0  0  0  0  0  0  0  0  0  0
   35.4470   28.4450   41.1640 F   0  0  0  0  0  0  0  0  0  0  0  0
   35.6090   30.6600   41.0920 F   0  0  0  0  0  0  0  0  0  0  0  0
   34.4750   29.5390   39.5080 F   0  0  0  0  0  0  0  0  0  0  0  0
   44.4780   29.5740   35.2870 N   0  0  0  0  0  0  0  0  0  0  0  0
   44.3130   29.8270   34.2680 H   0  0  0  0  0  0  0  0  0  0  0  0
   45.2600   28.9310   35.5360 H   0  0  0  0  0  0  0  0  0  0  0  0
   37.8350   28.4980   41.4970 O   0  0  0  0  0  0  0  0  0  0  0  0
   38.4330   29.0190   42.6540 C   0  0  0  0  0  0  0  0  0  0  0  0
   37.4810   28.8910   43.6800 F   0  0  0  0  0  0  0  0  0  0  0  0
   39.5950   28.3380   42.9220 F   0  0  0  0  0  0  0  0  0  0  0  0
   38.6440   30.3780   42.5220 F   0  0  0  0  0  0  0  0  0  0  0  0
  1 26  1  0  0  0  0
  2  1  2  0  0  0  0
  2 19  1  0  0  0  0
  3  2  1  0  0  0  0
  4  3  2  0  0  0  0
  4  5  1  0  0  0  0
  5  6  2  0  0  0  0
  6  1  1  0  0  0  0
  7  3  1  0  0  0  0
  8  5  1  0  0  0  0
  9 10  1  0  0  0  0
  9  8  1  0  0  0  0
 11 12  1  0  0  0  0
 11  9  2  0  0  0  0
 12 18  1  0  0  0  0
 13 14  1  0  0  0  0
 13 12  2  0  0  0  0
 14 15  2  0  0  0  0
 15 16  1  0  0  0  0
 15 17  1  0  0  0  0
 18  8  1  0  0  0  0
 18 17  2  0  0  0  0
 19 21  1  0  0  0  0
 19 20  1  0  0  0  0
 22 19  1  0  0  0  0
 23 25  1  0  0  0  0
 23 13  1  0  0  0  0
 24 23  1  0  0  0  0
 26 27  1  0  0  0  0
 27 29  1  0  0  0  0
 27 28  1  0  0  0  0
 30 27  1  0  0  0  0
M  END
>  <minimizedAffinity>
-5.44914579

$$$$

 OpenBabel03252504123D

 30 32  0  0  0  0  0  0  0  0999 V2000
   36.9390   30.0010   39.1590 C   0  0  0  0  0  0  0  0  0  0  0  0
   37.1790   29.2770   40.3280 C   0  0  0  0  0  0  0  0  0  0  0  0
   38.4070   29.4430   40.9730 C   0  0  0  0  0  0  0  0  0  0  0  0
   39.3090   30.2990   40.4340 N   0  0  0  0  0  0  0  0  0  0  0  0
   39.0400   30.9850   39.2960 C   0  0  0  0  0  0  0  0  0  0  0  0
   37.8610   30.8440   38.6530 N   0  0  0  0  0  0  0  0  0  0  0  0
   38.6080   28.8880   41.8790 H   0  0  0  0  0  0  0  0  0  0  0  0
   40.0860   31.8440   38.8570 N   0  0  0  0  0  0  0  0  0  0  0  0
   40.0790   33.1830   39.1180 C   0  0  0  0  0  0  0  0  0  0  0  0
   39.3250   33.7350   39.6590 H   0  0  0  0  0  0  0  0  0  0  0  0
   41.1660   33.7800   38.6050 N   0  0  0  0  0  0  0  0  0  0  0  0
   41.8960   32.8230   38.0020 C   0  0  0  0  0  0  0  0  0  0  0  0
   43.0960   32.8420   37.3120 C   0  0  0  0  0  0  0  0  0  0  0  0
   43.5720   31.6710   36.8130 N   0  0  0  0  0  0  0  0  0  0  0  0
   42.8690   30.5170   36.9980 C   0  0  0  0  0  0  0  0  0  0  0  0
   43.3520   29.6570   36.5560 H   0  0  0  0  0  0  0  0  0  0  0  0
   41.6830   30.4680   37.6720 N   0  0  0  0  0  0  0  0  0  0  0  0
   41.2200   31.6330   38.1630 C   0  0  0  0  0  0  0  0  0  0  0  0
   36.1230   28.3560   40.8460 C   0  0  0  0  0  0  0  0  0  0  0  0
   36.4190   27.9980   42.1560 F   0  0  0  0  0  0  0  0  0  0  0  0
   34.9300   29.0560   40.8910 F   0  0  0  0  0  0  0  0  0  0  0  0
   35.9730   27.2100   40.1410 F   0  0  0  0  0  0  0  0  0  0  0  0
   43.7390   34.1010   37.1820 N   0  0  0  0  0  0  0  0  0  0  0  0
   44.5180   34.1630   37.9030 H   0  0  0  0  0  0  0  0  0  0  0  0
   43.5710   34.9030   36.5390 H   0  0  0  0  0  0  0  0  0  0  0  0
   35.7530   29.8330   38.5460 O   0  0  0  0  0  0  0  0  0  0  0  0
   35.4810   29.1660   37.3420 C   0  0  0  0  0  0  0  0  0  0  0  0
   34.0970   28.9250   37.3300 F   0  0  0  0  0  0  0  0  0  0  0  0
   35.8930   29.9360   36.2820 F   0  0  0  0  0  0  0  0  0  0  0  0
   36.0680   27.9150   37.3370 F   0  0  0  0  0  0  0  0  0  0  0  0
  1  2  1  0  0  0  0
  2 19  1  0  0  0  0
  2  3  2  0  0  0  0
  3  7  1  0  0  0  0
  4  3  1  0  0  0  0
  5  4  2  0  0  0  0
  6  1  2  0  0  0  0
  6  5  1  0  0  0  0
  8  9  1  0  0  0  0
  8  5  1  0  0  0  0
  9 10  1  0  0  0  0
 11  9  2  0  0  0  0
 12 18  1  0  0  0  0
 12 11  1  0  0  0  0
 13 12  2  0  0  0  0
 14 15  2  0  0  0  0
 14 13  1  0  0  0  0
 15 17  1  0  0  0  0
 16 15  1  0  0  0  0
 17 18  2  0  0  0  0
 18  8  1  0  0  0  0
 19 21  1  0  0  0  0
 19 20  1  0  0  0  0
 22 19  1  0  0  0  0
 23 13  1  0  0  0  0
 23 24  1  0  0  0  0
 25 23  1  0  0  0  0
 26  1  1  0  0  0  0
 27 26  1  0  0  0  0
 28 27  1  0  0  0  0
 29 27  1  0  0  0  0
 30 27  1  0  0  0  0
M  END
>  <minimizedAffinity>
-5.43000555

$$$$

 OpenBabel03252504123D

 30 32  0  0  0  0  0  0  0  0999 V2000
   38.6700   28.5960   40.6310 C   0  0  0  0  0  0  0  0  0  0  0  0
   37.3960   28.9900   40.2150 C   0  0  0  0  0  0  0  0  0  0  0  0
   37.2940   29.9680   39.2220 C   0  0  0  0  0  0  0  0  0  0  0  0
   38.4350   30.4880   38.7070 N   0  0  0  0  0  0  0  0  0  0  0  0
   39.6540   30.0800   39.1370 C   0  0  0  0  0  0  0  0  0  0  0  0
   39.7820   29.1370   40.0950 N   0  0  0  0  0  0  0  0  0  0  0  0
   36.3140   30.2840   38.8900 H   0  0  0  0  0  0  0  0  0  0  0  0
   40.7540   30.7200   38.5010 N   0  0  0  0  0  0  0  0  0  0  0  0
   41.4330   30.1360   37.4710 C   0  0  0  0  0  0  0  0  0  0  0  0
   41.2370   29.1700   37.0300 H   0  0  0  0  0  0  0  0  0  0  0  0
   42.4260   30.9280   37.0370 N   0  0  0  0  0  0  0  0  0  0  0  0
   42.3980   32.0440   37.7880 C   0  0  0  0  0  0  0  0  0  0  0  0
   43.1680   33.1960   37.8010 C   0  0  0  0  0  0  0  0  0  0  0  0
   42.8710   34.1600   38.7110 N   0  0  0  0  0  0  0  0  0  0  0  0
   41.8370   33.9780   39.5810 C   0  0  0  0  0  0  0  0  0  0  0  0
   41.7030   34.8150   40.2530 H   0  0  0  0  0  0  0  0  0  0  0  0
   41.0620   32.8550   39.5930 N   0  0  0  0  0  0  0  0  0  0  0  0
   41.3630   31.9060   38.6880 C   0  0  0  0  0  0  0  0  0  0  0  0
   36.1960   28.3590   40.8420 C   0  0  0  0  0  0  0  0  0  0  0  0
   35.0430   28.8840   40.2700 F   0  0  0  0  0  0  0  0  0  0  0  0
   36.2100   27.0110   40.5300 F   0  0  0  0  0  0  0  0  0  0  0  0
   36.0960   28.5340   42.1800 F   0  0  0  0  0  0  0  0  0  0  0  0
   44.2170   33.2730   36.8480 N   0  0  0  0  0  0  0  0  0  0  0  0
   43.8960   33.8790   36.0350 H   0  0  0  0  0  0  0  0  0  0  0  0
   45.1730   32.8580   36.8320 H   0  0  0  0  0  0  0  0  0  0  0  0
   38.7570   27.6550   41.5880 O   0  0  0  0  0  0  0  0  0  0  0  0
   39.0990   27.8150   42.9400 C   0  0  0  0  0  0  0  0  0  0  0  0
   38.1850   27.0380   43.6710 F   0  0  0  0  0  0  0  0  0  0  0  0
   40.4020   27.4270   43.1370 F   0  0  0  0  0  0  0  0  0  0  0  0
   38.8760   29.1180   43.3460 F   0  0  0  0  0  0  0  0  0  0  0  0
  1 26  1  0  0  0  0
  2  1  1  0  0  0  0
  2 19  1  0  0  0  0
  3  2  2  0  0  0  0
  4  5  2  0  0  0  0
  4  3  1  0  0  0  0
  5  6  1  0  0  0  0
  6  1  2  0  0  0  0
  7  3  1  0  0  0  0
  8 18  1  0  0  0  0
  8  5  1  0  0  0  0
  9  8  1  0  0  0  0
 10  9  1  0  0  0  0
 11  9  2  0  0  0  0
 11 12  1  0  0  0  0
 12 13  2  0  0  0  0
 12 18  1  0  0  0  0
 13 14  1  0  0  0  0
 14 15  2  0  0  0  0
 15 17  1  0  0  0  0
 15 16  1  0  0  0  0
 18 17  2  0  0  0  0
 19 22  1  0  0  0  0
 20 19  1  0  0  0  0
 21 19  1  0  0  0  0
 23 13  1  0  0  0  0
 24 23  1  0  0  0  0
 25 23  1  0  0  0  0
 26 27  1  0  0  0  0
 27 29  1  0  0  0  0
 27 30  1  0  0  0  0
 27 28  1  0  0  0  0
M  END
>  <minimizedAffinity>
-5.37599373

$$$$

 OpenBabel03252504123D

 30 32  0  0  0  0  0  0  0  0999 V2000
   36.0860   29.7680   35.8140 C   0  0  0  0  0  0  0  0  0  0  0  0
   34.9380   29.0410   36.1370 C   0  0  0  0  0  0  0  0  0  0  0  0
   34.6300   28.8510   37.4870 C   0  0  0  0  0  0  0  0  0  0  0  0
   35.4580   29.3800   38.4200 N   0  0  0  0  0  0  0  0  0  0  0  0
   36.5650   30.0790   38.0670 C   0  0  0  0  0  0  0  0  0  0  0  0
   36.8870   30.2780   36.7710 N   0  0  0  0  0  0  0  0  0  0  0  0
   33.7440   28.2910   37.7540 H   0  0  0  0  0  0  0  0  0  0  0  0
   37.3330   30.5710   39.1600 N   0  0  0  0  0  0  0  0  0  0  0  0
   37.2240   31.8580   39.5990 C   0  0  0  0  0  0  0  0  0  0  0  0
   36.5800   32.6270   39.2000 H   0  0  0  0  0  0  0  0  0  0  0  0
   38.0440   32.0840   40.6370 N   0  0  0  0  0  0  0  0  0  0  0  0
   38.6990   30.9340   40.8820 C   0  0  0  0  0  0  0  0  0  0  0  0
   39.6550   30.5700   41.8150 C   0  0  0  0  0  0  0  0  0  0  0  0
   40.1250   29.2950   41.7940 N   0  0  0  0  0  0  0  0  0  0  0  0
   39.6530   28.4120   40.8680 C   0  0  0  0  0  0  0  0  0  0  0  0
   40.1040   27.4330   40.9550 H   0  0  0  0  0  0  0  0  0  0  0  0
   38.7120   28.7420   39.9360 N   0  0  0  0  0  0  0  0  0  0  0  0
   38.2520   30.0070   39.9650 C   0  0  0  0  0  0  0  0  0  0  0  0
   34.0860   28.4970   35.0390 C   0  0  0  0  0  0  0  0  0  0  0  0
   33.2420   27.5150   35.5480 F   0  0  0  0  0  0  0  0  0  0  0  0
   33.2700   29.5170   34.5840 F   0  0  0  0  0  0  0  0  0  0  0  0
   34.7700   27.9440   34.0100 F   0  0  0  0  0  0  0  0  0  0  0  0
   40.0710   31.5730   42.7290 N   0  0  0  0  0  0  0  0  0  0  0  0
   39.5690   31.4210   43.6550 H   0  0  0  0  0  0  0  0  0  0  0  0
   40.7370   32.3690   42.6320 H   0  0  0  0  0  0  0  0  0  0  0  0
   36.3740   29.9440   34.5120 O   0  0  0  0  0  0  0  0  0  0  0  0
   36.3410   31.1310   33.7640 C   0  0  0  0  0  0  0  0  0  0  0  0
   37.0780   30.8800   32.5950 F   0  0  0  0  0  0  0  0  0  0  0  0
   35.0380   31.4800   33.5050 F   0  0  0  0  0  0  0  0  0  0  0  0
   37.0290   32.1350   34.4190 F   0  0  0  0  0  0  0  0  0  0  0  0
  1  2  2  0  0  0  0
  1  6  1  0  0  0  0
  2  3  1  0  0  0  0
  3  7  1  0  0  0  0
  3  4  2  0  0  0  0
  5  4  1  0  0  0  0
  5  8  1  0  0  0  0
  6  5  2  0  0  0  0
  8  9  1  0  0  0  0
  8 18  1  0  0  0  0
  9 11  2  0  0  0  0
 10  9  1  0  0  0  0
 11 12  1  0  0  0  0
 12 13  1  0  0  0  0
 13 23  1  0  0  0  0
 14 13  2  0  0  0  0
 15 16  1  0  0  0  0
 15 14  1  0  0  0  0
 17 18  1  0  0  0  0
 17 15  2  0  0  0  0
 18 12  2  0  0  0  0
 19 20  1  0  0  0  0
 19  2  1  0  0  0  0
 21 19  1  0  0  0  0
 22 19  1  0  0  0  0
 23 24  1  0  0  0  0
 25 23  1  0  0  0  0
 26  1  1  0  0  0  0
 27 30  1  0  0  0  0
 27 26  1  0  0  0  0
 28 27  1  0  0  0  0
 29 27  1  0  0  0  0
M  END
>  <minimizedAffinity>
-5.33473921

$$$$

 OpenBabel03252504123D

 30 32  0  0  0  0  0  0  0  0999 V2000
   37.6350   26.0110   39.9640 C   0  0  0  0  0  0  0  0  0  0  0  0
   37.6570   25.4720   41.2520 C   0  0  0  0  0  0  0  0  0  0  0  0
   37.6490   26.3490   42.3400 C   0  0  0  0  0  0  0  0  0  0  0  0
   37.6190   27.6820   42.0960 N   0  0  0  0  0  0  0  0  0  0  0  0
   37.5990   28.1680   40.8310 C   0  0  0  0  0  0  0  0  0  0  0  0
   37.6060   27.3440   39.7610 N   0  0  0  0  0  0  0  0  0  0  0  0
   37.6660   25.9470   43.3440 H   0  0  0  0  0  0  0  0  0  0  0  0
   37.5690   29.5880   40.7380 N   0  0  0  0  0  0  0  0  0  0  0  0
   36.4080   30.2740   40.5270 C   0  0  0  0  0  0  0  0  0  0  0  0
   35.4200   29.8560   40.4090 H   0  0  0  0  0  0  0  0  0  0  0  0
   36.6320   31.5960   40.4780 N   0  0  0  0  0  0  0  0  0  0  0  0
   37.9520   31.7810   40.6590 C   0  0  0  0  0  0  0  0  0  0  0  0
   38.7530   32.9110   40.7050 C   0  0  0  0  0  0  0  0  0  0  0  0
   40.0870   32.7490   40.9090 N   0  0  0  0  0  0  0  0  0  0  0  0
   40.6040   31.4970   41.0620 C   0  0  0  0  0  0  0  0  0  0  0  0
   41.6740   31.5020   41.2170 H   0  0  0  0  0  0  0  0  0  0  0  0
   39.8410   30.3660   41.0200 N   0  0  0  0  0  0  0  0  0  0  0  0
   38.5210   30.5350   40.8190 C   0  0  0  0  0  0  0  0  0  0  0  0
   37.6900   23.9890   41.4220 C   0  0  0  0  0  0  0  0  0  0  0  0
   37.8600   23.6780   42.7670 F   0  0  0  0  0  0  0  0  0  0  0  0
   36.4510   23.4900   41.0590 F   0  0  0  0  0  0  0  0  0  0  0  0
   38.6730   23.3600   40.7360 F   0  0  0  0  0  0  0  0  0  0  0  0
   38.1030   34.1610   40.5330 N   0  0  0  0  0  0  0  0  0  0  0  0
   37.9650   34.6090   41.4880 H   0  0  0  0  0  0  0  0  0  0  0  0
   37.7700   34.6590   39.6810 H   0  0  0  0  0  0  0  0  0  0  0  0
   37.6440   25.1580   38.9240 O   0  0  0  0  0  0  0  0  0  0  0  0
   36.6030   24.8600   38.0310 C   0  0  0  0  0  0  0  0  0  0  0  0
   35.4080   25.0380   38.7480 F   0  0  0  0  0  0  0  0  0  0  0  0
   36.6880   25.6790   36.9310 F   0  0  0  0  0  0  0  0  0  0  0  0
   36.6260   23.5220   37.6890 F   0  0  0  0  0  0  0  0  0  0  0  0
  1  2  1  0  0  0  0
  2 19  1  0  0  0  0
  2  3  2  0  0  0  0
  3  7  1  0  0  0  0
  4  3  1  0  0  0  0
  5  4  2  0  0  0  0
  6  1  2  0  0  0  0
  6  5  1  0  0  0  0
  8 18  1  0  0  0  0
  8  5  1  0  0  0  0
  9  8  1  0  0  0  0
 10  9  1  0  0  0  0
 11  9  2  0  0  0  0
 11 12  1  0  0  0  0
 12 13  2  0  0  0  0
 12 18  1  0  0  0  0
 13 14  1  0  0  0  0
 14 15  2  0  0  0  0
 15 16  1  0  0  0  0
 17 15  1  0  0  0  0
 18 17  2  0  0  0  0
 19 20  1  0  0  0  0
 21 19  1  0  0  0  0
 22 19  1  0  0  0  0
 23 13  1  0  0  0  0
 23 24  1  0  0  0  0
 25 23  1  0  0  0  0
 26  1  1  0  0  0  0
 27 28  1  0  0  0  0
 27 26  1  0  0  0  0
 29 27  1  0  0  0  0
 30 27  1  0  0  0  0
M  END
>  <minimizedAffinity>
-5.29827738

$$$$

 OpenBabel03252504123D

 30 32  0  0  0  0  0  0  0  0999 V2000
   39.2770   31.0250   40.1970 C   0  0  0  0  0  0  0  0  0  0  0  0
   40.6060   31.2770   39.8500 C   0  0  0  0  0  0  0  0  0  0  0  0
   41.4690   30.1890   39.6920 C   0  0  0  0  0  0  0  0  0  0  0  0
   40.9760   28.9400   39.8810 N   0  0  0  0  0  0  0  0  0  0  0  0
   39.6790   28.7360   40.2170 C   0  0  0  0  0  0  0  0  0  0  0  0
   38.8230   29.7690   40.3760 N   0  0  0  0  0  0  0  0  0  0  0  0
   42.5020   30.3670   39.4250 H   0  0  0  0  0  0  0  0  0  0  0  0
   39.3140   27.3710   40.3800 N   0  0  0  0  0  0  0  0  0  0  0  0
   38.6880   26.6670   39.3930 C   0  0  0  0  0  0  0  0  0  0  0  0
   38.4040   27.0310   38.4170 H   0  0  0  0  0  0  0  0  0  0  0  0
   38.4470   25.4040   39.7790 N   0  0  0  0  0  0  0  0  0  0  0  0
   38.9200   25.2760   41.0320 C   0  0  0  0  0  0  0  0  0  0  0  0
   38.9530   24.2210   41.9290 C   0  0  0  0  0  0  0  0  0  0  0  0
   39.5170   24.4280   43.1480 N   0  0  0  0  0  0  0  0  0  0  0  0
   40.0310   25.6510   43.4610 C   0  0  0  0  0  0  0  0  0  0  0  0
   40.4500   25.6870   44.4570 H   0  0  0  0  0  0  0  0  0  0  0  0
   40.0130   26.7090   42.5990 N   0  0  0  0  0  0  0  0  0  0  0  0
   39.4530   26.4960   41.3940 C   0  0  0  0  0  0  0  0  0  0  0  0
   41.0570   32.6880   39.6640 C   0  0  0  0  0  0  0  0  0  0  0  0
   40.8590   33.3990   40.8420 F   0  0  0  0  0  0  0  0  0  0  0  0
   42.4220   32.6750   39.4380 F   0  0  0  0  0  0  0  0  0  0  0  0
   40.4220   33.3610   38.6760 F   0  0  0  0  0  0  0  0  0  0  0  0
   38.3870   22.9950   41.4930 N   0  0  0  0  0  0  0  0  0  0  0  0
   39.1720   22.3450   41.1900 H   0  0  0  0  0  0  0  0  0  0  0  0
   37.3990   22.6690   41.4320 H   0  0  0  0  0  0  0  0  0  0  0  0
   38.4550   32.0800   40.3470 O   0  0  0  0  0  0  0  0  0  0  0  0
   37.3560   32.4490   39.5560 C   0  0  0  0  0  0  0  0  0  0  0  0
   36.2900   31.6280   39.9580 F   0  0  0  0  0  0  0  0  0  0  0  0
   37.0900   33.7860   39.7280 F   0  0  0  0  0  0  0  0  0  0  0  0
   37.5840   32.1290   38.2310 F   0  0  0  0  0  0  0  0  0  0  0  0
  1 26  1  0  0  0  0
  1  6  1  0  0  0  0
  2  1  2  0  0  0  0
  3  2  1  0  0  0  0
  3  4  2  0  0  0  0
  4  5  1  0  0  0  0
  5  6  2  0  0  0  0
  5  8  1  0  0  0  0
  7  3  1  0  0  0  0
  8 18  1  0  0  0  0
  9 11  2  0  0  0  0
  9  8  1  0  0  0  0
 10  9  1  0  0  0  0
 11 12  1  0  0  0  0
 12 18  2  0  0  0  0
 12 13  1  0  0  0  0
 13 14  2  0  0  0  0
 14 15  1  0  0  0  0
 15 16  1  0  0  0  0
 17 15  2  0  0  0  0
 18 17  1  0  0  0  0
 19  2  1  0  0  0  0
 19 20  1  0  0  0  0
 21 19  1  0  0  0  0
 22 19  1  0  0  0  0
 23 13  1  0  0  0  0
 24 23  1  0  0  0  0
 25 23  1  0  0  0  0
 27 29  1  0  0  0  0
 27 28  1  0  0  0  0
 27 26  1  0  0  0  0
 30 27  1  0  0  0  0
M  END
>  <minimizedAffinity>
-5.25076532

$$$$
