
 OpenBabel03252504403D

 50 54  0  0  0  0  0  0  0  0999 V2000
   45.5410   33.0100   46.9470 C   0  0  0  0  0  0  0  0  0  0  0  0
   44.5610   32.5350   46.7380 H   0  0  0  0  0  0  0  0  0  0  0  0
   45.4400   34.0200   47.3950 H   0  0  0  0  0  0  0  0  0  0  0  0
   46.3130   32.1840   47.9200 C   0  0  0  0  0  0  0  0  0  0  0  0
   45.8590   31.6690   49.1000 C   0  0  0  0  0  0  0  0  0  0  0  0
   46.8820   31.0040   49.6380 N   0  0  0  0  0  0  0  0  0  0  0  0
   47.9690   31.0650   48.8630 C   0  0  0  0  0  0  0  0  0  0  0  0
   47.6000   31.8100   47.7830 N   0  0  0  0  0  0  0  0  0  0  0  0
   49.2670   30.5250   49.0110 N   0  0  0  0  0  0  0  0  0  0  0  0
   50.2860   31.3410   49.7050 C   0  0  0  0  0  0  0  0  0  0  0  0
   50.4090   30.7050   51.0880 C   0  0  0  0  0  0  0  0  0  0  0  0
   50.5570   29.2070   50.9590 C   0  0  0  0  0  0  0  0  0  0  0  0
   50.9490   28.8560   49.5330 C   0  0  0  0  0  0  0  0  0  0  0  0
   49.8390   29.2780   48.6060 C   0  0  0  0  0  0  0  0  0  0  0  0
   44.8680   31.7630   49.5450 H   0  0  0  0  0  0  0  0  0  0  0  0
   46.8970   30.4830   50.5420 H   0  0  0  0  0  0  0  0  0  0  0  0
   51.2350   31.3500   49.1560 H   0  0  0  0  0  0  0  0  0  0  0  0
   49.9330   32.3780   49.8460 H   0  0  0  0  0  0  0  0  0  0  0  0
   51.3130   31.1570   51.5850 H   0  0  0  0  0  0  0  0  0  0  0  0
   49.5350   30.9970   51.6920 H   0  0  0  0  0  0  0  0  0  0  0  0
   49.5160   28.7870   51.0720 H   0  0  0  0  0  0  0  0  0  0  0  0
   51.2230   28.7500   51.6920 H   0  0  0  0  0  0  0  0  0  0  0  0
   51.1650   27.7800   49.4890 H   0  0  0  0  0  0  0  0  0  0  0  0
   51.9020   29.4130   49.3240 H   0  0  0  0  0  0  0  0  0  0  0  0
   49.0790   28.4480   48.6120 H   0  0  0  0  0  0  0  0  0  0  0  0
   50.2320   29.3250   47.5640 H   0  0  0  0  0  0  0  0  0  0  0  0
   45.9190   34.0130   44.7280 C   0  0  0  0  0  3  0  0  0  0  0  0
   46.2990   33.1870   45.6860 C   0  0  0  0  0  3  0  0  0  0  0  0
   46.7550   34.0990   43.5280 C   0  0  0  0  0  0  0  0  0  0  0  0
   46.5710   35.1090   42.5530 C   0  0  0  0  0  0  0  0  0  0  0  0
   47.4230   35.0930   41.4550 C   0  0  0  0  0  0  0  0  0  0  0  0
   48.3670   34.1500   41.3500 N   0  0  0  0  0  0  0  0  0  0  0  0
   48.5270   33.1900   42.2940 C   0  0  0  0  0  0  0  0  0  0  0  0
   47.7350   33.1760   43.3510 N   0  0  0  0  0  0  0  0  0  0  0  0
   45.7840   35.8380   42.7070 H   0  0  0  0  0  0  0  0  0  0  0  0
   47.3040   35.8440   40.7060 H   0  0  0  0  0  0  0  0  0  0  0  0
   49.5710   32.2620   42.0430 N   0  0  0  0  0  0  0  0  0  0  0  0
   50.9010   32.5140   41.9060 C   0  0  0  0  0  0  0  0  0  0  0  0
   51.3630   33.5080   41.9730 H   0  0  0  0  0  0  0  0  0  0  0  0
   51.5560   31.3530   41.6740 N   0  0  0  0  0  0  0  0  0  0  0  0
   50.6460   30.3490   41.6620 C   0  0  0  0  0  0  0  0  0  0  0  0
   50.7430   28.9750   41.4760 C   0  0  0  0  0  0  0  0  0  0  0  0
   49.6040   28.2340   41.5260 N   0  0  0  0  0  0  0  0  0  0  0  0
   48.4100   28.7850   41.7490 C   0  0  0  0  0  0  0  0  0  0  0  0
   47.5460   28.1420   41.7770 H   0  0  0  0  0  0  0  0  0  0  0  0
   48.3250   30.1240   41.9300 N   0  0  0  0  0  0  0  0  0  0  0  0
   49.3990   30.9220   41.8940 C   0  0  0  0  0  0  0  0  0  0  0  0
   52.0080   28.3680   41.2370 N   0  0  0  0  0  0  0  0  0  0  0  0
   52.6300   28.1810   40.4200 H   0  0  0  0  0  0  0  0  0  0  0  0
   52.2990   28.0700   42.1890 H   0  0  0  0  0  0  0  0  0  0  0  0
  1  3  1  0  0  0  0
  1  4  1  0  0  0  0
  2  1  1  0  0  0  0
  4  5  2  0  0  0  0
  5 15  1  0  0  0  0
  5  6  1  0  0  0  0
  6 16  1  0  0  0  0
  7  9  1  0  0  0  0
  7  6  1  0  0  0  0
  8  4  1  0  0  0  0
  8  7  2  0  0  0  0
  9 10  1  0  0  0  0
 10 18  1  0  0  0  0
 10 11  1  0  0  0  0
 11 19  1  0  0  0  0
 11 20  1  0  0  0  0
 12 21  1  0  0  0  0
 12 11  1  0  0  0  0
 12 22  1  0  0  0  0
 13 12  1  0  0  0  0
 14 25  1  0  0  0  0
 14  9  1  0  0  0  0
 14 13  1  0  0  0  0
 17 10  1  0  0  0  0
 23 13  1  0  0  0  0
 24 13  1  0  0  0  0
 26 14  1  0  0  0  0
 27 28  2  0  0  0  0
 28  1  1  0  0  0  0
 29 27  1  0  0  0  0
 30 35  1  0  0  0  0
 30 29  2  0  0  0  0
 31 30  1  0  0  0  0
 32 31  2  0  0  0  0
 32 33  1  0  0  0  0
 33 34  2  0  0  0  0
 34 29  1  0  0  0  0
 36 31  1  0  0  0  0
 37 33  1  0  0  0  0
 38 39  1  0  0  0  0
 38 37  1  0  0  0  0
 40 38  2  0  0  0  0
 41 40  1  0  0  0  0
 41 47  1  0  0  0  0
 42 43  1  0  0  0  0
 42 41  2  0  0  0  0
 43 44  2  0  0  0  0
 44 45  1  0  0  0  0
 44 46  1  0  0  0  0
 47 46  2  0  0  0  0
 47 37  1  0  0  0  0
 48 42  1  0  0  0  0
 48 50  1  0  0  0  0
 49 48  1  0  0  0  0
M  END
>  <minimizedAffinity>
-6.33298826

>  <minimizedRMSD>
0.634279191

$$$$
