
 OpenBabel03252505293D

 32 34  0  0  0  0  0  0  0  0999 V2000
   45.2280   29.7580   47.5760 C   0  0  0  0  0  0  0  0  0  0  0  0
   44.6160   30.2060   48.3840 H   0  0  0  0  0  0  0  0  0  0  0  0
   46.2000   29.5060   48.0430 H   0  0  0  0  0  0  0  0  0  0  0  0
   44.5840   28.5950   46.9900 N   0  0  0  0  0  0  0  0  0  0  0  0
   43.7650   28.6770   45.9050 C   0  0  0  0  0  0  0  0  0  0  0  0
   43.4870   29.5660   45.3480 H   0  0  0  0  0  0  0  0  0  0  0  0
   43.3050   27.4590   45.5720 N   0  0  0  0  0  0  0  0  0  0  0  0
   43.8310   26.5940   46.4450 C   0  0  0  0  0  0  0  0  0  0  0  0
   43.7590   25.2250   46.6500 C   0  0  0  0  0  0  0  0  0  0  0  0
   44.4050   24.6100   47.6280 N   0  0  0  0  0  0  0  0  0  0  0  0
   45.1800   25.3440   48.4770 C   0  0  0  0  0  0  0  0  0  0  0  0
   45.6720   24.7490   49.2490 H   0  0  0  0  0  0  0  0  0  0  0  0
   45.3070   26.6970   48.3470 N   0  0  0  0  0  0  0  0  0  0  0  0
   44.6370   27.2990   47.3430 C   0  0  0  0  0  0  0  0  0  0  0  0
   42.9170   24.5450   45.7020 N   0  0  0  0  0  0  0  0  0  0  0  0
   41.8790   24.6830   45.5210 H   0  0  0  0  0  0  0  0  0  0  0  0
   43.3440   23.7990   45.0780 H   0  0  0  0  0  0  0  0  0  0  0  0
   45.4690   30.6640   46.5800 O   0  0  0  0  0  0  0  0  0  0  0  0
   46.9000   31.7790   48.4100 O   0  0  0  0  0  0  0  0  0  0  0  0
   45.9260   32.1230   47.2860 P   0  0  2  0  0  0  0  0  0  0  0  0
   44.5550   32.8760   47.8850 O   0  0  0  0  0  0  0  0  0  0  0  0
   43.7160   32.3900   47.6940 H   0  0  0  0  0  0  0  0  0  0  0  0
   46.7460   33.1200   46.1860 O   0  0  0  0  0  0  0  0  0  0  0  0
   44.4830   35.5130   44.8390 C   0  0  0  0  0  0  0  0  0  0  0  0
   44.8880   35.6790   43.4960 C   0  0  0  0  0  0  0  0  0  0  0  0
   45.9970   34.9010   43.1010 C   0  0  0  0  0  0  0  0  0  0  0  0
   46.5970   34.0650   43.9960 N   0  0  0  0  0  0  0  0  0  0  0  0
   46.1450   33.9670   45.2650 C   0  0  0  0  0  0  0  0  0  0  0  0
   45.1040   34.6810   45.6760 N   0  0  0  0  0  0  0  0  0  0  0  0
   43.6280   36.1150   45.1370 H   0  0  0  0  0  0  0  0  0  0  0  0
   44.4030   36.3400   42.8140 H   0  0  0  0  0  0  0  0  0  0  0  0
   46.3650   34.9790   42.0750 H   0  0  0  0  0  0  0  0  0  0  0  0
  1  3  1  0  0  0  0
  1  2  1  0  0  0  0
  4 14  1  0  0  0  0
  4  1  1  0  0  0  0
  5  4  1  0  0  0  0
  6  5  1  0  0  0  0
  7  5  2  0  0  0  0
  7  8  1  0  0  0  0
  8  9  2  0  0  0  0
  8 14  1  0  0  0  0
  9 10  1  0  0  0  0
 10 11  2  0  0  0  0
 11 12  1  0  0  0  0
 13 11  1  0  0  0  0
 14 13  2  0  0  0  0
 15  9  1  0  0  0  0
 16 15  1  0  0  0  0
 17 15  1  0  0  0  0
 18 20  1  0  0  0  0
 18  1  1  0  0  0  0
 20 21  1  0  0  0  0
 20 19  2  1  0  0  0
 22 21  1  0  0  0  0
 23 20  1  0  0  0  0
 24 30  1  0  0  0  0
 24 29  1  0  0  0  0
 25 24  2  0  0  0  0
 26 25  1  0  0  0  0
 26 27  2  0  0  0  0
 27 28  1  0  0  0  0
 28 29  2  0  0  0  0
 28 23  1  0  0  0  0
 31 25  1  0  0  0  0
 32 26  1  0  0  0  0
M  END
>  <minimizedAffinity>
-4.93088722

>  <minimizedRMSD>
1.27928329

$$$$
