
 OpenBabel03242512473D

 35 38  0  0  1  0  0  0  0  0999 V2000
   46.6410   34.0750   42.3750 N   0  0  0  0  0  0  0  0  0  0  0  0
   48.0330   34.2810   41.9740 C   0  0  0  0  0  0  0  0  0  0  0  0
   47.8050   34.7110   40.5510 C   0  0  0  0  0  0  0  0  0  0  0  0
   46.9110   33.5650   40.0880 C   0  0  0  0  0  0  0  0  0  0  0  0
   46.0570   33.3020   41.2940 C   0  0  2  0  0  0  0  0  0  0  0  0
   48.5600   33.3080   42.0450 H   0  0  0  0  0  0  0  0  0  0  0  0
   48.5440   35.0440   42.5950 H   0  0  0  0  0  0  0  0  0  0  0  0
   48.7450   34.7620   39.9750 H   0  0  0  0  0  0  0  0  0  0  0  0
   47.2760   35.6600   40.5370 H   0  0  0  0  0  0  0  0  0  0  0  0
   47.5200   32.6960   39.7620 H   0  0  0  0  0  0  0  0  0  0  0  0
   46.2610   33.9400   39.2750 H   0  0  0  0  0  0  0  0  0  0  0  0
   46.2930   32.2280   41.5800 H   0  0  0  0  0  0  0  0  0  0  0  0
   44.6600   33.4370   41.1190 N   0  0  0  0  0  0  0  0  0  0  0  0
   44.1120   34.4940   40.4500 C   0  0  0  0  0  0  0  0  0  0  0  0
   44.5630   35.3590   39.9580 H   0  0  0  0  0  0  0  0  0  0  0  0
   42.7740   34.3860   40.4280 N   0  0  0  0  0  0  0  0  0  0  0  0
   42.4000   33.2690   41.0750 C   0  0  0  0  0  0  0  0  0  0  0  0
   41.1770   32.6880   41.3430 C   0  0  0  0  0  0  0  0  0  0  0  0
   41.1910   31.5220   42.0440 N   0  0  0  0  0  0  0  0  0  0  0  0
   42.3600   30.9730   42.4490 C   0  0  0  0  0  0  0  0  0  0  0  0
   42.2720   30.0440   43.0000 H   0  0  0  0  0  0  0  0  0  0  0  0
   43.5330   31.5670   42.1680 N   0  0  0  0  0  0  0  0  0  0  0  0
   43.5910   32.7090   41.4880 C   0  0  0  0  0  0  0  0  0  0  0  0
   39.9910   33.3280   40.8840 N   0  0  0  0  0  0  0  0  0  0  0  0
   39.6120   33.5580   39.9250 H   0  0  0  0  0  0  0  0  0  0  0  0
   39.4600   33.5800   41.7570 H   0  0  0  0  0  0  0  0  0  0  0  0
   44.5550   35.9670   44.7950 C   0  0  0  0  0  0  0  0  0  0  0  0
   45.2090   35.6620   43.5990 C   0  0  0  0  0  0  0  0  0  0  0  0
   45.9500   34.4860   43.5150 C   0  0  0  0  0  0  0  0  0  0  0  0
   45.9910   33.6840   44.6330 N   0  0  0  0  0  0  0  0  0  0  0  0
   45.3560   33.9920   45.7770 C   0  0  0  0  0  0  0  0  0  0  0  0
   44.6390   35.1250   45.8650 N   0  0  0  0  0  0  0  0  0  0  0  0
   44.0020   36.9000   44.7740 H   0  0  0  0  0  0  0  0  0  0  0  0
   45.1520   36.3230   42.7460 H   0  0  0  0  0  0  0  0  0  0  0  0
   45.3980   33.3530   46.6420 H   0  0  0  0  0  0  0  0  0  0  0  0
  1 29  1  0  0  0  0
  2  6  1  0  0  0  0
  2  1  1  0  0  0  0
  2  7  1  0  0  0  0
  3  2  1  0  0  0  0
  4  3  1  0  0  0  0
  4  5  1  0  0  0  0
  5 12  1  1  0  0  0
  5  1  1  0  0  0  0
  8  3  1  0  0  0  0
  9  3  1  0  0  0  0
 10  4  1  0  0  0  0
 11  4  1  0  0  0  0
 13  5  1  0  0  0  0
 13 23  1  0  0  0  0
 14 13  1  0  0  0  0
 15 14  1  0  0  0  0
 16 14  2  0  0  0  0
 16 17  1  0  0  0  0
 17 18  2  0  0  0  0
 17 23  1  0  0  0  0
 18 19  1  0  0  0  0
 19 20  2  0  0  0  0
 20 21  1  0  0  0  0
 22 20  1  0  0  0  0
 23 22  2  0  0  0  0
 24 18  1  0  0  0  0
 24 26  1  0  0  0  0
 25 24  1  0  0  0  0
 27 32  1  0  0  0  0
 28 27  2  0  0  0  0
 29 28  1  0  0  0  0
 29 30  2  0  0  0  0
 30 31  1  0  0  0  0
 31 32  2  0  0  0  0
 31 35  1  0  0  0  0
 33 27  1  0  0  0  0
 34 28  1  0  0  0  0
M  END
>  <minimizedAffinity>
-5.41078091

>  <minimizedRMSD>
2.11254287

$$$$
