
 OpenBabel03252500563D

 43 46  0  0  0  0  0  0  0  0999 V2000
   40.6790   34.7570   41.3740 C   0  0  0  0  0  0  0  0  0  0  0  0
   39.8480   35.4480   40.4990 C   0  0  0  0  0  0  0  0  0  0  0  0
   38.7660   34.8420   39.8750 C   0  0  0  0  0  0  0  0  0  0  0  0
   38.5360   33.5190   40.1500 N   0  0  0  0  0  0  0  0  0  0  0  0
   39.3380   32.8720   40.9880 C   0  0  0  0  0  0  0  0  0  0  0  0
   40.3740   33.4550   41.5860 N   0  0  0  0  0  0  0  0  0  0  0  0
   40.0530   36.5030   40.2960 H   0  0  0  0  0  0  0  0  0  0  0  0
   38.1450   35.3970   39.2060 H   0  0  0  0  0  0  0  0  0  0  0  0
   39.0310   31.5020   41.2210 N   0  0  0  0  0  0  0  0  0  0  0  0
   37.7540   31.1010   41.0030 C   0  0  0  0  0  0  0  0  0  0  0  0
   36.8440   31.6220   40.6680 H   0  0  0  0  0  0  0  0  0  0  0  0
   37.6790   29.7680   41.2830 N   0  0  0  0  0  0  0  0  0  0  0  0
   38.8880   29.3470   41.6680 C   0  0  0  0  0  0  0  0  0  0  0  0
   39.4370   28.1330   42.0710 C   0  0  0  0  0  0  0  0  0  0  0  0
   40.7550   28.0680   42.4040 N   0  0  0  0  0  0  0  0  0  0  0  0
   41.5170   29.1910   42.3360 C   0  0  0  0  0  0  0  0  0  0  0  0
   42.5700   29.0560   42.6190 H   0  0  0  0  0  0  0  0  0  0  0  0
   41.0310   30.4040   41.9480 N   0  0  0  0  0  0  0  0  0  0  0  0
   39.7280   30.4370   41.6270 C   0  0  0  0  0  0  0  0  0  0  0  0
   38.5560   27.0090   42.1120 N   0  0  0  0  0  0  0  0  0  0  0  0
   38.4200   26.5400   43.0550 H   0  0  0  0  0  0  0  0  0  0  0  0
   38.0380   26.6100   41.3060 H   0  0  0  0  0  0  0  0  0  0  0  0
   41.7350   35.4530   41.9490 O   0  0  0  0  0  0  0  0  0  0  0  0
   43.7440   35.2030   40.2380 O   0  0  0  0  0  0  0  0  0  0  0  0
   43.3030   34.9010   41.6690 P   0  0  2  0  0  0  0  0  0  0  0  0
   43.2930   33.2190   41.8860 O   0  0  0  0  0  0  0  0  0  0  0  0
   42.9530   33.0330   42.8060 H   0  0  0  0  0  0  0  0  0  0  0  0
   44.4430   35.5430   42.7560 O   0  0  0  0  0  0  0  0  0  0  0  0
   46.4330   34.3700   43.1690 C   0  0  0  0  0  0  0  0  0  0  0  0
   45.2270   34.8360   43.6460 C   0  0  0  0  0  0  0  0  0  0  0  0
   44.8990   34.5560   44.9850 C   0  0  0  0  0  0  0  0  0  0  0  0
   45.7940   33.8470   45.7130 N   0  0  0  0  0  0  0  0  0  0  0  0
   46.9470   33.4110   45.2280 C   0  0  0  0  0  0  0  0  0  0  0  0
   47.2740   33.6710   43.9490 N   0  0  0  0  0  0  0  0  0  0  0  0
   43.9640   34.9290   45.3230 H   0  0  0  0  0  0  0  0  0  0  0  0
   47.6660   32.8420   45.8090 H   0  0  0  0  0  0  0  0  0  0  0  0
   46.8460   34.6220   41.7820 C   0  0  0  0  0  0  0  0  0  0  0  0
   46.9680   33.6210   41.3060 H   0  0  0  0  0  0  0  0  0  0  0  0
   46.1380   35.2670   41.2190 H   0  0  0  0  0  0  0  0  0  0  0  0
   48.1850   35.3010   41.7730 C   0  0  0  0  0  0  0  0  0  0  0  0
   48.6410   35.3960   42.7910 H   0  0  0  0  0  0  0  0  0  0  0  0
   48.8780   34.7910   41.0510 H   0  0  0  0  0  0  0  0  0  0  0  0
   48.1200   36.3550   41.4030 H   0  0  0  0  0  0  0  0  0  0  0  0
  1  6  1  0  0  0  0
  1 23  1  0  0  0  0
  2  1  2  0  0  0  0
  3  4  2  0  0  0  0
  3  2  1  0  0  0  0
  4  5  1  0  0  0  0
  5  9  1  0  0  0  0
  5  6  2  0  0  0  0
  7  2  1  0  0  0  0
  8  3  1  0  0  0  0
  9 19  1  0  0  0  0
 10  9  1  0  0  0  0
 10 12  2  0  0  0  0
 11 10  1  0  0  0  0
 12 13  1  0  0  0  0
 13 14  1  0  0  0  0
 14 20  1  0  0  0  0
 14 15  2  0  0  0  0
 16 15  1  0  0  0  0
 16 17  1  0  0  0  0
 18 16  2  0  0  0  0
 19 13  2  0  0  0  0
 19 18  1  0  0  0  0
 20 21  1  0  0  0  0
 22 20  1  0  0  0  0
 25 24  2  6  0  0  0
 25 26  1  0  0  0  0
 25 23  1  0  0  0  0
 25 28  1  0  0  0  0
 26 27  1  0  0  0  0
 28 30  1  0  0  0  0
 29 30  2  0  0  0  0
 29 34  1  0  0  0  0
 30 31  1  0  0  0  0
 31 35  1  0  0  0  0
 31 32  2  0  0  0  0
 33 32  1  0  0  0  0
 33 36  1  0  0  0  0
 34 33  2  0  0  0  0
 37 29  1  0  0  0  0
 38 37  1  0  0  0  0
 39 37  1  0  0  0  0
 40 37  1  0  0  0  0
 40 41  1  0  0  0  0
 42 40  1  0  0  0  0
 43 40  1  0  0  0  0
M  END
>  <minimizedAffinity>
-6.48963881

>  <minimizedRMSD>
0.842707753

$$$$
