
 OpenBabel03252500133D

 43 47  0  0  0  0  0  0  0  0999 V2000
   45.5580   32.5110   39.9290 Cl  0  0  0  0  0  0  0  0  0  0  0  0
   46.8870   33.6250   39.8040 C   0  0  0  0  0  0  0  0  0  0  0  0
   47.3830   34.2620   40.9180 C   0  0  0  0  0  0  0  0  0  0  0  0
   48.4440   35.1540   40.8460 C   0  0  0  0  0  0  0  0  0  0  0  0
   48.9760   35.3700   39.5940 C   0  0  0  0  0  0  0  0  0  0  0  0
   48.4810   34.7330   38.4710 C   0  0  0  0  0  0  0  0  0  0  0  0
   47.4560   33.8740   38.5640 C   0  0  0  0  0  0  0  0  0  0  0  0
   48.8360   35.6540   41.7150 H   0  0  0  0  0  0  0  0  0  0  0  0
   49.8090   36.0560   39.4610 H   0  0  0  0  0  0  0  0  0  0  0  0
   48.9310   34.9330   37.5060 H   0  0  0  0  0  0  0  0  0  0  0  0
   46.4360   32.5660   44.0540 C   0  0  0  0  0  0  0  0  0  0  0  0
   45.6080   33.5250   44.6800 C   0  0  0  0  0  0  0  0  0  0  0  0
   45.3890   34.7340   44.0150 C   0  0  0  0  0  0  0  0  0  0  0  0
   45.9810   34.9330   42.8010 N   0  0  0  0  0  0  0  0  0  0  0  0
   46.7730   33.9890   42.2280 C   0  0  0  0  0  0  0  0  0  0  0  0
   46.9880   32.8320   42.8540 N   0  0  0  0  0  0  0  0  0  0  0  0
   46.5780   31.6480   44.6010 H   0  0  0  0  0  0  0  0  0  0  0  0
   45.1380   33.3940   45.6180 H   0  0  0  0  0  0  0  0  0  0  0  0
   44.5330   35.8130   44.5850 C   0  0  0  0  0  0  0  0  0  0  0  0
   45.0640   37.0520   44.3150 F   0  0  0  0  0  0  0  0  0  0  0  0
   43.2730   35.7330   43.9990 F   0  0  0  0  0  0  0  0  0  0  0  0
   44.4140   35.5810   45.9270 F   0  0  0  0  0  0  0  0  0  0  0  0
   46.9170   33.1910   37.3970 C   0  0  0  0  0  0  0  0  0  0  0  0
   45.5760   33.2090   37.0130 C   0  0  0  0  0  0  0  0  0  0  0  0
   45.4340   32.4580   35.8690 C   0  0  0  0  0  0  0  0  0  0  0  0
   46.7090   32.0130   35.6040 C   0  0  0  0  0  0  0  0  0  0  0  0
   47.5620   32.4570   36.5150 O   0  0  0  0  0  0  0  0  0  0  0  0
   44.7200   33.7090   37.4890 H   0  0  0  0  0  0  0  0  0  0  0  0
   44.5890   32.2080   35.2450 H   0  0  0  0  0  0  0  0  0  0  0  0
   47.2470   31.1950   34.5680 N   0  0  0  0  0  0  0  0  0  0  0  0
   47.1830   29.8540   34.3820 C   0  0  0  0  0  0  0  0  0  0  0  0
   46.6510   29.2360   35.1000 H   0  0  0  0  0  0  0  0  0  0  0  0
   47.8490   29.5560   33.2510 N   0  0  0  0  0  0  0  0  0  0  0  0
   48.3150   30.6920   32.7490 C   0  0  0  0  0  0  0  0  0  0  0  0
   49.0620   30.9130   31.5990 C   0  0  0  0  0  0  0  0  0  0  0  0
   49.4100   32.1890   31.3170 N   0  0  0  0  0  0  0  0  0  0  0  0
   49.0460   33.2240   32.1220 C   0  0  0  0  0  0  0  0  0  0  0  0
   49.3410   34.2540   31.8700 H   0  0  0  0  0  0  0  0  0  0  0  0
   48.3220   33.0320   33.2400 N   0  0  0  0  0  0  0  0  0  0  0  0
   47.9560   31.7720   33.5550 C   0  0  0  0  0  0  0  0  0  0  0  0
   49.4650   29.8560   30.7280 N   0  0  0  0  0  0  0  0  0  0  0  0
   48.6100   29.7140   30.1140 H   0  0  0  0  0  0  0  0  0  0  0  0
   50.3810   29.3200   30.6750 H   0  0  0  0  0  0  0  0  0  0  0  0
  2  1  1  0  0  0  0
  2  3  1  0  0  0  0
  3 15  1  0  0  0  0
  4  3  2  0  0  0  0
  4  8  1  0  0  0  0
  5  4  1  0  0  0  0
  6  7  1  0  0  0  0
  6  5  2  0  0  0  0
  7  2  2  0  0  0  0
  9  5  1  0  0  0  0
 10  6  1  0  0  0  0
 11 17  1  0  0  0  0
 11 12  1  0  0  0  0
 12 18  1  0  0  0  0
 13 19  1  0  0  0  0
 13 12  2  0  0  0  0
 14 13  1  0  0  0  0
 15 14  2  0  0  0  0
 15 16  1  0  0  0  0
 16 11  2  0  0  0  0
 19 22  1  0  0  0  0
 20 19  1  0  0  0  0
 21 19  1  0  0  0  0
 23  7  1  0  0  0  0
 24 23  2  0  0  0  0
 24 28  1  0  0  0  0
 25 24  1  0  0  0  0
 26 25  2  0  0  0  0
 26 27  1  0  0  0  0
 27 23  1  0  0  0  0
 29 25  1  0  0  0  0
 30 26  1  0  0  0  0
 31 30  1  0  0  0  0
 31 32  1  0  0  0  0
 33 31  2  0  0  0  0
 34 33  1  0  0  0  0
 34 40  1  0  0  0  0
 35 34  2  0  0  0  0
 36 35  1  0  0  0  0
 36 37  2  0  0  0  0
 37 39  1  0  0  0  0
 38 37  1  0  0  0  0
 39 40  2  0  0  0  0
 40 30  1  0  0  0  0
 41 35  1  0  0  0  0
 42 41  1  0  0  0  0
 43 41  1  0  0  0  0
M  END
>  <minimizedAffinity>
-7.13388968

>  <minimizedRMSD>
3.1481061

$$$$
