
 OpenBabel03242523053D

 50 55  0  0  1  0  0  0  0  0999 V2000
   46.8030   32.8990   46.8030 C   0  0  0  0  0  0  0  0  0  0  0  0
   46.6770   32.6670   45.4170 C   0  0  0  0  0  0  0  0  0  0  0  0
   47.1250   31.4000   45.0890 C   0  0  0  0  0  0  0  0  0  0  0  0
   47.6300   30.4750   45.9560 C   0  0  0  0  0  0  0  0  0  0  0  0
   47.7220   30.7920   47.2980 C   0  0  0  0  0  0  0  0  0  0  0  0
   47.3030   32.0150   47.7360 C   0  0  0  0  0  0  0  0  0  0  0  0
   48.2720   29.6710   47.8880 O   0  0  0  0  0  0  0  0  0  0  0  0
   48.4250   28.6410   46.9390 C   0  0  2  0  0  0  0  0  0  0  0  0
   48.0830   29.1990   45.6710 O   0  0  0  0  0  0  0  0  0  0  0  0
   46.5260   33.7950   47.3970 H   0  0  0  0  0  0  0  0  0  0  0  0
   47.0390   31.2240   44.0660 H   0  0  0  0  0  0  0  0  0  0  0  0
   47.4140   32.1500   48.7750 H   0  0  0  0  0  0  0  0  0  0  0  0
   49.4400   28.2270   46.9530 H   0  0  0  0  0  0  0  0  0  0  0  0
   47.4300   27.6250   47.3180 N   0  0  0  0  0  0  0  0  0  0  0  0
   46.1330   27.5940   46.9970 C   0  0  0  0  0  0  0  0  0  0  0  0
   45.6690   28.3690   46.3860 H   0  0  0  0  0  0  0  0  0  0  0  0
   45.5890   26.4780   47.5580 N   0  0  0  0  0  0  0  0  0  0  0  0
   46.5500   25.8290   48.2200 C   0  0  0  0  0  0  0  0  0  0  0  0
   46.5850   24.6660   48.9630 C   0  0  0  0  0  0  0  0  0  0  0  0
   47.7480   24.2810   49.5120 N   0  0  0  0  0  0  0  0  0  0  0  0
   48.8920   24.9650   49.3810 C   0  0  0  0  0  0  0  0  0  0  0  0
   49.8190   24.6320   49.8350 H   0  0  0  0  0  0  0  0  0  0  0  0
   48.8470   26.0990   48.6540 N   0  0  0  0  0  0  0  0  0  0  0  0
   47.7190   26.5470   48.0740 C   0  0  0  0  0  0  0  0  0  0  0  0
   45.3970   23.8900   49.1410 N   0  0  0  0  0  0  0  0  0  0  0  0
   45.4250   23.2250   48.3270 H   0  0  0  0  0  0  0  0  0  0  0  0
   44.6030   23.8250   49.7980 H   0  0  0  0  0  0  0  0  0  0  0  0
   45.8690   35.4710   43.0830 C   0  0  0  0  0  0  0  0  0  0  0  0
   46.5550   34.3420   43.5060 C   0  0  0  0  0  0  0  0  0  0  0  0
   46.1980   33.7860   44.7090 C   0  0  0  0  0  0  0  0  0  0  0  0
   45.1890   34.3670   45.4330 N   0  0  0  0  0  0  0  0  0  0  0  0
   44.5440   35.4620   44.9920 C   0  0  0  0  0  0  0  0  0  0  0  0
   44.8820   36.0020   43.8340 N   0  0  0  0  0  0  0  0  0  0  0  0
   46.1330   35.9240   42.1400 H   0  0  0  0  0  0  0  0  0  0  0  0
   43.7410   35.9740   45.5050 H   0  0  0  0  0  0  0  0  0  0  0  0
   47.5730   33.8460   42.6960 N   0  0  0  0  0  0  0  0  0  0  0  0
   48.9270   34.2130   42.8540 C   0  0  0  0  0  0  0  0  0  0  0  0
   49.9000   33.4460   41.9870 C   0  0  0  0  0  0  0  0  0  0  0  0
   49.6390   32.0860   41.8270 N   0  0  0  0  0  0  0  0  0  0  0  0
   48.2960   31.7230   41.6700 C   0  0  0  0  0  0  0  0  0  0  0  0
   47.3830   32.9310   41.6230 C   0  0  0  0  0  0  0  0  0  0  0  0
   49.0370   35.2830   42.5690 H   0  0  0  0  0  0  0  0  0  0  0  0
   49.2840   34.1870   43.9190 H   0  0  0  0  0  0  0  0  0  0  0  0
   50.0300   33.9660   40.9950 H   0  0  0  0  0  0  0  0  0  0  0  0
   50.9060   33.5530   42.4870 H   0  0  0  0  0  0  0  0  0  0  0  0
   50.2150   31.7090   41.0450 H   0  0  0  0  0  0  0  0  0  0  0  0
   48.1370   31.2200   40.6670 H   0  0  0  0  0  0  0  0  0  0  0  0
   47.8820   30.9840   42.3850 H   0  0  0  0  0  0  0  0  0  0  0  0
   47.5330   33.5110   40.6730 H   0  0  0  0  0  0  0  0  0  0  0  0
   46.3390   32.5410   41.6710 H   0  0  0  0  0  0  0  0  0  0  0  0
  1 10  1  0  0  0  0
  1  6  1  0  0  0  0
  2  1  2  0  0  0  0
  3  2  1  0  0  0  0
  3  4  2  0  0  0  0
  4  5  1  0  0  0  0
  5  6  2  0  0  0  0
  5  7  1  0  0  0  0
  6 12  1  0  0  0  0
  8 13  1  1  0  0  0
  8 14  1  0  0  0  0
  8  7  1  0  0  0  0
  9  4  1  0  0  0  0
  9  8  1  0  0  0  0
 11  3  1  0  0  0  0
 14 24  1  0  0  0  0
 15 14  1  0  0  0  0
 15 17  2  0  0  0  0
 16 15  1  0  0  0  0
 17 18  1  0  0  0  0
 18 19  1  0  0  0  0
 19 25  1  0  0  0  0
 19 20  2  0  0  0  0
 21 20  1  0  0  0  0
 21 22  1  0  0  0  0
 23 21  2  0  0  0  0
 24 18  2  0  0  0  0
 24 23  1  0  0  0  0
 25 27  1  0  0  0  0
 26 25  1  0  0  0  0
 28 29  2  0  0  0  0
 28 33  1  0  0  0  0
 29 30  1  0  0  0  0
 30  2  1  0  0  0  0
 30 31  2  0  0  0  0
 32 31  1  0  0  0  0
 32 35  1  0  0  0  0
 33 32  2  0  0  0  0
 34 28  1  0  0  0  0
 36 37  1  0  0  0  0
 36 29  1  0  0  0  0
 37 43  1  0  0  0  0
 38 45  1  0  0  0  0
 38 37  1  0  0  0  0
 39 38  1  0  0  0  0
 40 39  1  0  0  0  0
 40 48  1  0  0  0  0
 41 40  1  0  0  0  0
 41 50  1  0  0  0  0
 41 36  1  0  0  0  0
 42 37  1  0  0  0  0
 44 38  1  0  0  0  0
 46 39  1  0  0  0  0
 47 40  1  0  0  0  0
 49 41  1  0  0  0  0
M  END
>  <minimizedAffinity>
-6.57980108

>  <minimizedRMSD>
3.80553102

$$$$
