
 OpenBabel03252506593D

 29 31  0  0  0  0  0  0  0  0999 V2000
   48.0300   34.7840   40.8250 C   0  0  0  0  0  0  0  0  0  0  0  0
   48.1910   35.1220   39.7820 H   0  0  0  0  0  0  0  0  0  0  0  0
   47.8880   35.6920   41.4420 H   0  0  0  0  0  0  0  0  0  0  0  0
   49.1570   33.9650   41.2830 N   0  0  0  0  0  0  0  0  0  0  0  0
   49.8730   34.3210   42.3740 C   0  0  0  0  0  0  0  0  0  0  0  0
   49.7330   35.1840   43.0120 H   0  0  0  0  0  0  0  0  0  0  0  0
   50.8310   33.3720   42.5330 N   0  0  0  0  0  0  0  0  0  0  0  0
   50.6900   32.4630   41.5510 C   0  0  0  0  0  0  0  0  0  0  0  0
   51.3440   31.2940   41.1820 C   0  0  0  0  0  0  0  0  0  0  0  0
   50.9330   30.5970   40.1050 N   0  0  0  0  0  0  0  0  0  0  0  0
   49.8760   31.0010   39.3440 C   0  0  0  0  0  0  0  0  0  0  0  0
   49.7060   30.3090   38.5290 H   0  0  0  0  0  0  0  0  0  0  0  0
   49.1970   32.1400   39.6570 N   0  0  0  0  0  0  0  0  0  0  0  0
   49.6160   32.8250   40.7320 C   0  0  0  0  0  0  0  0  0  0  0  0
   52.4520   30.8710   41.9800 N   0  0  0  0  0  0  0  0  0  0  0  0
   52.4750   31.0400   43.0260 H   0  0  0  0  0  0  0  0  0  0  0  0
   53.3300   30.3800   41.7240 H   0  0  0  0  0  0  0  0  0  0  0  0
   46.7500   33.9520   40.8180 C   0  0  0  0  0  0  0  0  0  0  0  0
   46.3560   33.8410   39.7870 H   0  0  0  0  0  0  0  0  0  0  0  0
   47.0710   32.9510   41.1280 H   0  0  0  0  0  0  0  0  0  0  0  0
   45.7920   34.5590   41.7430 C   0  0  0  0  0  0  0  0  0  0  0  0
   46.1460   34.8830   43.0440 C   0  0  0  0  0  0  0  0  0  0  0  0
   45.1790   35.4670   43.8950 C   0  0  0  0  0  0  0  0  0  0  0  0
   43.9520   35.6750   43.3690 N   0  0  0  0  0  0  0  0  0  0  0  0
   43.6370   35.3450   42.0880 C   0  0  0  0  0  0  0  0  0  0  0  0
   44.5640   34.7880   41.2810 N   0  0  0  0  0  0  0  0  0  0  0  0
   47.1110   34.7200   43.4530 H   0  0  0  0  0  0  0  0  0  0  0  0
   45.3690   35.7470   44.9130 H   0  0  0  0  0  0  0  0  0  0  0  0
   42.6320   35.5270   41.6890 H   0  0  0  0  0  0  0  0  0  0  0  0
  1  4  1  0  0  0  0
  1  3  1  0  0  0  0
  2  1  1  0  0  0  0
  4  5  1  0  0  0  0
  5  7  2  0  0  0  0
  5  6  1  0  0  0  0
  8  7  1  0  0  0  0
  9  8  1  0  0  0  0
  9 15  1  0  0  0  0
 10  9  2  0  0  0  0
 11 13  2  0  0  0  0
 11 10  1  0  0  0  0
 12 11  1  0  0  0  0
 13 14  1  0  0  0  0
 14  4  1  0  0  0  0
 14  8  2  0  0  0  0
 15 16  1  0  0  0  0
 17 15  1  0  0  0  0
 18  1  1  0  0  0  0
 18 20  1  0  0  0  0
 18 21  1  0  0  0  0
 19 18  1  0  0  0  0
 21 22  1  0  0  0  0
 22 27  1  0  0  0  0
 22 23  2  0  0  0  0
 23 28  1  0  0  0  0
 24 23  1  0  0  0  0
 25 24  2  0  0  0  0
 26 21  2  0  0  0  0
 26 25  1  0  0  0  0
 29 25  1  0  0  0  0
M  END
>  <minimizedAffinity>
-4.28823519

>  <minimizedRMSD>
2.4066844

$$$$
