
 OpenBabel03252505303D

 32 34  0  0  0  0  0  0  0  0999 V2000
   45.2390   29.7500   47.5790 C   0  0  0  0  0  0  0  0  0  0  0  0
   44.6330   30.1930   48.3950 H   0  0  0  0  0  0  0  0  0  0  0  0
   46.2160   29.4980   48.0360 H   0  0  0  0  0  0  0  0  0  0  0  0
   44.5920   28.5890   46.9950 N   0  0  0  0  0  0  0  0  0  0  0  0
   43.7690   28.6720   45.9130 C   0  0  0  0  0  0  0  0  0  0  0  0
   43.4890   29.5610   45.3580 H   0  0  0  0  0  0  0  0  0  0  0  0
   43.3070   27.4550   45.5800 N   0  0  0  0  0  0  0  0  0  0  0  0
   43.8360   26.5880   46.4510 C   0  0  0  0  0  0  0  0  0  0  0  0
   43.7640   25.2190   46.6550 C   0  0  0  0  0  0  0  0  0  0  0  0
   44.4140   24.6030   47.6280 N   0  0  0  0  0  0  0  0  0  0  0  0
   45.1920   25.3340   48.4760 C   0  0  0  0  0  0  0  0  0  0  0  0
   45.6880   24.7390   49.2450 H   0  0  0  0  0  0  0  0  0  0  0  0
   45.3190   26.6880   48.3470 N   0  0  0  0  0  0  0  0  0  0  0  0
   44.6460   27.2910   47.3460 C   0  0  0  0  0  0  0  0  0  0  0  0
   42.9180   24.5410   45.7090 N   0  0  0  0  0  0  0  0  0  0  0  0
   41.8790   24.6790   45.5320 H   0  0  0  0  0  0  0  0  0  0  0  0
   43.3420   23.7960   45.0820 H   0  0  0  0  0  0  0  0  0  0  0  0
   45.4690   30.6610   46.5840 O   0  0  0  0  0  0  0  0  0  0  0  0
   46.8960   31.7750   48.4170 O   0  0  0  0  0  0  0  0  0  0  0  0
   45.9240   32.1200   47.2920 P   0  0  2  0  0  0  0  0  0  0  0  0
   44.5510   32.8710   47.8900 O   0  0  0  0  0  0  0  0  0  0  0  0
   43.7130   32.3840   47.6980 H   0  0  0  0  0  0  0  0  0  0  0  0
   46.7450   33.1170   46.1940 O   0  0  0  0  0  0  0  0  0  0  0  0
   44.4830   35.5100   44.8430 C   0  0  0  0  0  0  0  0  0  0  0  0
   44.8890   35.6730   43.4990 C   0  0  0  0  0  0  0  0  0  0  0  0
   45.9980   34.8940   43.1060 C   0  0  0  0  0  0  0  0  0  0  0  0
   46.5970   34.0590   44.0020 N   0  0  0  0  0  0  0  0  0  0  0  0
   46.1440   33.9640   45.2720 C   0  0  0  0  0  0  0  0  0  0  0  0
   45.1040   34.6780   45.6810 N   0  0  0  0  0  0  0  0  0  0  0  0
   43.6290   36.1120   45.1400 H   0  0  0  0  0  0  0  0  0  0  0  0
   44.4050   36.3330   42.8160 H   0  0  0  0  0  0  0  0  0  0  0  0
   46.3660   34.9700   42.0800 H   0  0  0  0  0  0  0  0  0  0  0  0
  1  3  1  0  0  0  0
  1  2  1  0  0  0  0
  4 14  1  0  0  0  0
  4  1  1  0  0  0  0
  5  4  1  0  0  0  0
  6  5  1  0  0  0  0
  7  5  2  0  0  0  0
  7  8  1  0  0  0  0
  8  9  2  0  0  0  0
  8 14  1  0  0  0  0
  9 10  1  0  0  0  0
 10 11  2  0  0  0  0
 11 12  1  0  0  0  0
 13 11  1  0  0  0  0
 14 13  2  0  0  0  0
 15  9  1  0  0  0  0
 16 15  1  0  0  0  0
 17 15  1  0  0  0  0
 18 20  1  0  0  0  0
 18  1  1  0  0  0  0
 20 21  1  0  0  0  0
 20 19  2  1  0  0  0
 22 21  1  0  0  0  0
 23 20  1  0  0  0  0
 24 30  1  0  0  0  0
 24 29  1  0  0  0  0
 25 24  2  0  0  0  0
 26 25  1  0  0  0  0
 26 27  2  0  0  0  0
 27 28  1  0  0  0  0
 28 29  2  0  0  0  0
 28 23  1  0  0  0  0
 31 25  1  0  0  0  0
 32 26  1  0  0  0  0
M  END
>  <minimizedAffinity>
-4.93484497

>  <minimizedRMSD>
1.19632161

$$$$
