
 OpenBabel03252504403D

 50 54  0  0  0  0  0  0  0  0999 V2000
   45.5500   33.0340   46.8510 C   0  0  0  0  0  0  0  0  0  0  0  0
   44.5670   32.5640   46.6510 H   0  0  0  0  0  0  0  0  0  0  0  0
   45.4570   34.0620   47.2620 H   0  0  0  0  0  0  0  0  0  0  0  0
   46.3050   32.2360   47.8600 C   0  0  0  0  0  0  0  0  0  0  0  0
   45.8510   31.8110   49.0750 C   0  0  0  0  0  0  0  0  0  0  0  0
   46.8550   31.1370   49.6370 N   0  0  0  0  0  0  0  0  0  0  0  0
   47.9290   31.1060   48.8420 C   0  0  0  0  0  0  0  0  0  0  0  0
   47.5730   31.8010   47.7260 N   0  0  0  0  0  0  0  0  0  0  0  0
   49.2070   30.5210   49.0020 N   0  0  0  0  0  0  0  0  0  0  0  0
   50.2700   31.3330   49.6310 C   0  0  0  0  0  0  0  0  0  0  0  0
   50.3920   30.7750   51.0480 C   0  0  0  0  0  0  0  0  0  0  0  0
   50.4760   29.2670   51.0060 C   0  0  0  0  0  0  0  0  0  0  0  0
   50.8270   28.8170   49.5970 C   0  0  0  0  0  0  0  0  0  0  0  0
   49.7190   29.2290   48.6640 C   0  0  0  0  0  0  0  0  0  0  0  0
   44.8730   31.9730   49.5290 H   0  0  0  0  0  0  0  0  0  0  0  0
   46.8650   30.6700   50.5700 H   0  0  0  0  0  0  0  0  0  0  0  0
   51.2090   31.2700   49.0680 H   0  0  0  0  0  0  0  0  0  0  0  0
   49.9630   32.3900   49.7160 H   0  0  0  0  0  0  0  0  0  0  0  0
   51.3220   31.2170   51.5030 H   0  0  0  0  0  0  0  0  0  0  0  0
   49.5420   31.1390   51.6460 H   0  0  0  0  0  0  0  0  0  0  0  0
   49.4210   28.8990   51.1600 H   0  0  0  0  0  0  0  0  0  0  0  0
   51.1350   28.8270   51.7550 H   0  0  0  0  0  0  0  0  0  0  0  0
   50.9980   27.7320   49.6140 H   0  0  0  0  0  0  0  0  0  0  0  0
   51.7990   29.3190   49.3410 H   0  0  0  0  0  0  0  0  0  0  0  0
   48.9260   28.4340   48.7320 H   0  0  0  0  0  0  0  0  0  0  0  0
   50.0950   29.1980   47.6160 H   0  0  0  0  0  0  0  0  0  0  0  0
   46.0540   34.0680   44.6720 C   0  0  0  0  0  3  0  0  0  0  0  0
   46.3200   33.1580   45.5920 C   0  0  0  0  0  3  0  0  0  0  0  0
   46.8890   34.0870   43.4680 C   0  0  0  0  0  0  0  0  0  0  0  0
   46.6920   35.0300   42.4310 C   0  0  0  0  0  0  0  0  0  0  0  0
   47.5450   34.9540   41.3350 C   0  0  0  0  0  0  0  0  0  0  0  0
   48.5010   34.0190   41.2900 N   0  0  0  0  0  0  0  0  0  0  0  0
   48.6730   33.1240   42.2940 C   0  0  0  0  0  0  0  0  0  0  0  0
   47.8810   33.1680   43.3500 N   0  0  0  0  0  0  0  0  0  0  0  0
   45.8960   35.7580   42.5380 H   0  0  0  0  0  0  0  0  0  0  0  0
   47.4160   35.6550   40.5400 H   0  0  0  0  0  0  0  0  0  0  0  0
   49.7280   32.1950   42.1020 N   0  0  0  0  0  0  0  0  0  0  0  0
   50.9970   32.4440   41.6730 C   0  0  0  0  0  0  0  0  0  0  0  0
   51.3880   33.4350   41.4090 H   0  0  0  0  0  0  0  0  0  0  0  0
   51.6900   31.2840   41.6270 N   0  0  0  0  0  0  0  0  0  0  0  0
   50.8670   30.2830   42.0260 C   0  0  0  0  0  0  0  0  0  0  0  0
   51.0350   28.9100   42.1730 C   0  0  0  0  0  0  0  0  0  0  0  0
   49.9780   28.1730   42.6060 N   0  0  0  0  0  0  0  0  0  0  0  0
   48.7990   28.7260   42.8900 C   0  0  0  0  0  0  0  0  0  0  0  0
   48.0020   28.0850   43.2300 H   0  0  0  0  0  0  0  0  0  0  0  0
   48.6440   30.0630   42.7450 N   0  0  0  0  0  0  0  0  0  0  0  0
   49.6360   30.8580   42.3240 C   0  0  0  0  0  0  0  0  0  0  0  0
   52.2870   28.3020   41.8740 N   0  0  0  0  0  0  0  0  0  0  0  0
   52.7800   27.9290   41.0320 H   0  0  0  0  0  0  0  0  0  0  0  0
   52.7500   28.2690   42.8030 H   0  0  0  0  0  0  0  0  0  0  0  0
  1  3  1  0  0  0  0
  1  4  1  0  0  0  0
  2  1  1  0  0  0  0
  4  5  2  0  0  0  0
  5 15  1  0  0  0  0
  5  6  1  0  0  0  0
  6 16  1  0  0  0  0
  7  9  1  0  0  0  0
  7  6  1  0  0  0  0
  8  4  1  0  0  0  0
  8  7  2  0  0  0  0
  9 10  1  0  0  0  0
 10 18  1  0  0  0  0
 10 11  1  0  0  0  0
 11 19  1  0  0  0  0
 11 20  1  0  0  0  0
 12 11  1  0  0  0  0
 12 21  1  0  0  0  0
 12 22  1  0  0  0  0
 13 23  1  0  0  0  0
 13 12  1  0  0  0  0
 14 25  1  0  0  0  0
 14  9  1  0  0  0  0
 14 13  1  0  0  0  0
 17 10  1  0  0  0  0
 24 13  1  0  0  0  0
 26 14  1  0  0  0  0
 27 28  2  0  0  0  0
 28  1  1  0  0  0  0
 29 27  1  0  0  0  0
 30 35  1  0  0  0  0
 30 29  2  0  0  0  0
 31 30  1  0  0  0  0
 32 31  2  0  0  0  0
 32 33  1  0  0  0  0
 33 34  2  0  0  0  0
 34 29  1  0  0  0  0
 36 31  1  0  0  0  0
 37 33  1  0  0  0  0
 37 47  1  0  0  0  0
 38 37  1  0  0  0  0
 39 38  1  0  0  0  0
 40 38  2  0  0  0  0
 40 41  1  0  0  0  0
 41 42  2  0  0  0  0
 41 47  1  0  0  0  0
 42 43  1  0  0  0  0
 43 44  2  0  0  0  0
 44 45  1  0  0  0  0
 46 44  1  0  0  0  0
 47 46  2  0  0  0  0
 48 42  1  0  0  0  0
 48 50  1  0  0  0  0
 49 48  1  0  0  0  0
M  END
>  <minimizedAffinity>
-6.37742138

>  <minimizedRMSD>
0.493939549

$$$$
