
 OpenBabel03252504403D

 50 54  0  0  0  0  0  0  0  0999 V2000
   45.6530   32.9740   46.7640 C   0  0  0  0  0  0  0  0  0  0  0  0
   44.6950   32.4780   46.5110 H   0  0  0  0  0  0  0  0  0  0  0  0
   45.5110   33.9960   47.1740 H   0  0  0  0  0  0  0  0  0  0  0  0
   46.3760   32.1890   47.8070 C   0  0  0  0  0  0  0  0  0  0  0  0
   45.9100   31.8430   49.0420 C   0  0  0  0  0  0  0  0  0  0  0  0
   46.8860   31.1500   49.6310 N   0  0  0  0  0  0  0  0  0  0  0  0
   47.9530   31.0340   48.8360 C   0  0  0  0  0  0  0  0  0  0  0  0
   47.6230   31.6910   47.6900 N   0  0  0  0  0  0  0  0  0  0  0  0
   49.2040   30.4000   49.0190 N   0  0  0  0  0  0  0  0  0  0  0  0
   50.3060   31.1900   49.6060 C   0  0  0  0  0  0  0  0  0  0  0  0
   50.4090   30.6940   51.0470 C   0  0  0  0  0  0  0  0  0  0  0  0
   50.4250   29.1840   51.0750 C   0  0  0  0  0  0  0  0  0  0  0  0
   50.7480   28.6530   49.6880 C   0  0  0  0  0  0  0  0  0  0  0  0
   49.6550   29.0710   48.7400 C   0  0  0  0  0  0  0  0  0  0  0  0
   44.9430   32.0700   49.4910 H   0  0  0  0  0  0  0  0  0  0  0  0
   46.8790   30.7280   50.5850 H   0  0  0  0  0  0  0  0  0  0  0  0
   51.2380   31.0580   49.0440 H   0  0  0  0  0  0  0  0  0  0  0  0
   50.0480   32.2640   49.6420 H   0  0  0  0  0  0  0  0  0  0  0  0
   51.3610   31.1140   51.4780 H   0  0  0  0  0  0  0  0  0  0  0  0
   49.5800   31.1240   51.6300 H   0  0  0  0  0  0  0  0  0  0  0  0
   49.3550   28.8720   51.2500 H   0  0  0  0  0  0  0  0  0  0  0  0
   51.0670   28.7490   51.8420 H   0  0  0  0  0  0  0  0  0  0  0  0
   50.8700   27.5630   49.7560 H   0  0  0  0  0  0  0  0  0  0  0  0
   51.7400   29.0980   49.4060 H   0  0  0  0  0  0  0  0  0  0  0  0
   48.8270   28.3170   48.8480 H   0  0  0  0  0  0  0  0  0  0  0  0
   50.0240   28.9740   47.6930 H   0  0  0  0  0  0  0  0  0  0  0  0
   46.1620   33.9320   44.5520 C   0  0  0  0  0  3  0  0  0  0  0  0
   46.4840   33.1250   45.5470 C   0  0  0  0  0  3  0  0  0  0  0  0
   47.0670   33.9930   43.4010 C   0  0  0  0  0  0  0  0  0  0  0  0
   46.9520   34.9940   42.4060 C   0  0  0  0  0  0  0  0  0  0  0  0
   47.8660   34.9530   41.3580 C   0  0  0  0  0  0  0  0  0  0  0  0
   48.8020   33.9980   41.3190 N   0  0  0  0  0  0  0  0  0  0  0  0
   48.8960   33.0490   42.2830 C   0  0  0  0  0  0  0  0  0  0  0  0
   48.0440   33.0570   43.2920 N   0  0  0  0  0  0  0  0  0  0  0  0
   46.1670   35.7340   42.5050 H   0  0  0  0  0  0  0  0  0  0  0  0
   47.7990   35.6970   40.5950 H   0  0  0  0  0  0  0  0  0  0  0  0
   49.9400   32.1050   42.1020 N   0  0  0  0  0  0  0  0  0  0  0  0
   51.0170   32.1940   41.2740 C   0  0  0  0  0  0  0  0  0  0  0  0
   51.2290   33.0410   40.6090 H   0  0  0  0  0  0  0  0  0  0  0  0
   51.7740   31.0810   41.4020 N   0  0  0  0  0  0  0  0  0  0  0  0
   51.1860   30.2720   42.3160 C   0  0  0  0  0  0  0  0  0  0  0  0
   51.5120   29.0240   42.8360 C   0  0  0  0  0  0  0  0  0  0  0  0
   50.6840   28.4750   43.7640 N   0  0  0  0  0  0  0  0  0  0  0  0
   49.5800   29.0940   44.1820 C   0  0  0  0  0  0  0  0  0  0  0  0
   48.9660   28.6040   44.9210 H   0  0  0  0  0  0  0  0  0  0  0  0
   49.2700   30.3090   43.6710 N   0  0  0  0  0  0  0  0  0  0  0  0
   50.0340   30.9160   42.7540 C   0  0  0  0  0  0  0  0  0  0  0  0
   52.6860   28.3470   42.4010 N   0  0  0  0  0  0  0  0  0  0  0  0
   52.9640   27.7170   41.6180 H   0  0  0  0  0  0  0  0  0  0  0  0
   53.3850   28.6210   43.1200 H   0  0  0  0  0  0  0  0  0  0  0  0
  1  3  1  0  0  0  0
  1  4  1  0  0  0  0
  2  1  1  0  0  0  0
  4  5  2  0  0  0  0
  5 15  1  0  0  0  0
  5  6  1  0  0  0  0
  6 16  1  0  0  0  0
  7  9  1  0  0  0  0
  7  6  1  0  0  0  0
  8  4  1  0  0  0  0
  8  7  2  0  0  0  0
  9 10  1  0  0  0  0
 10 18  1  0  0  0  0
 10 11  1  0  0  0  0
 11 12  1  0  0  0  0
 11 19  1  0  0  0  0
 11 20  1  0  0  0  0
 12 21  1  0  0  0  0
 12 22  1  0  0  0  0
 13 23  1  0  0  0  0
 13 12  1  0  0  0  0
 14 25  1  0  0  0  0
 14  9  1  0  0  0  0
 14 13  1  0  0  0  0
 17 10  1  0  0  0  0
 24 13  1  0  0  0  0
 26 14  1  0  0  0  0
 27 28  2  0  0  0  0
 28  1  1  0  0  0  0
 29 27  1  0  0  0  0
 30 35  1  0  0  0  0
 30 29  2  0  0  0  0
 31 30  1  0  0  0  0
 32 31  2  0  0  0  0
 32 33  1  0  0  0  0
 33 34  2  0  0  0  0
 34 29  1  0  0  0  0
 36 31  1  0  0  0  0
 37 33  1  0  0  0  0
 37 47  1  0  0  0  0
 38 40  2  0  0  0  0
 38 37  1  0  0  0  0
 39 38  1  0  0  0  0
 40 41  1  0  0  0  0
 41 47  2  0  0  0  0
 41 42  1  0  0  0  0
 42 43  2  0  0  0  0
 43 44  1  0  0  0  0
 44 45  1  0  0  0  0
 46 44  2  0  0  0  0
 47 46  1  0  0  0  0
 48 42  1  0  0  0  0
 48 50  1  0  0  0  0
 49 48  1  0  0  0  0
M  END
>  <minimizedAffinity>
-6.51378489

>  <minimizedRMSD>
0.425717711

$$$$
