
 OpenBabel03252506593D

 29 31  0  0  0  0  0  0  0  0999 V2000
   44.2420   31.2700   41.5690 C   0  0  0  0  0  0  0  0  0  0  0  0
   45.3370   31.4360   41.5560 H   0  0  0  0  0  0  0  0  0  0  0  0
   44.0320   30.5550   42.3880 H   0  0  0  0  0  0  0  0  0  0  0  0
   43.7780   30.7840   40.2660 N   0  0  0  0  0  0  0  0  0  0  0  0
   44.4980   31.0190   39.1440 C   0  0  0  0  0  0  0  0  0  0  0  0
   45.4360   31.5510   39.0510 H   0  0  0  0  0  0  0  0  0  0  0  0
   43.8110   30.4510   38.1200 N   0  0  0  0  0  0  0  0  0  0  0  0
   42.6980   29.8840   38.6220 C   0  0  0  0  0  0  0  0  0  0  0  0
   41.6260   29.1740   38.0990 C   0  0  0  0  0  0  0  0  0  0  0  0
   40.6420   28.7330   38.9080 N   0  0  0  0  0  0  0  0  0  0  0  0
   40.6570   28.9620   40.2510 C   0  0  0  0  0  0  0  0  0  0  0  0
   39.7830   28.5310   40.7210 H   0  0  0  0  0  0  0  0  0  0  0  0
   41.6830   29.6550   40.8220 N   0  0  0  0  0  0  0  0  0  0  0  0
   42.6570   30.0870   40.0050 C   0  0  0  0  0  0  0  0  0  0  0  0
   41.6120   28.9320   36.6890 N   0  0  0  0  0  0  0  0  0  0  0  0
   42.5080   28.7790   36.1450 H   0  0  0  0  0  0  0  0  0  0  0  0
   40.8240   28.8690   36.0160 H   0  0  0  0  0  0  0  0  0  0  0  0
   43.6020   32.6210   41.8790 C   0  0  0  0  0  0  0  0  0  0  0  0
   42.8950   32.9160   41.0770 H   0  0  0  0  0  0  0  0  0  0  0  0
   42.9900   32.4380   42.7690 H   0  0  0  0  0  0  0  0  0  0  0  0
   44.6650   33.6020   42.1040 C   0  0  0  0  0  0  0  0  0  0  0  0
   45.7600   33.6910   41.2580 C   0  0  0  0  0  0  0  0  0  0  0  0
   46.7580   34.6570   41.5240 C   0  0  0  0  0  0  0  0  0  0  0  0
   46.5700   35.4430   42.6080 N   0  0  0  0  0  0  0  0  0  0  0  0
   45.4840   35.3290   43.4180 C   0  0  0  0  0  0  0  0  0  0  0  0
   44.5360   34.4060   43.1580 N   0  0  0  0  0  0  0  0  0  0  0  0
   45.9020   33.0740   40.4080 H   0  0  0  0  0  0  0  0  0  0  0  0
   47.6350   34.7930   40.9220 H   0  0  0  0  0  0  0  0  0  0  0  0
   45.3600   35.9820   44.2900 H   0  0  0  0  0  0  0  0  0  0  0  0
  1 18  1  0  0  0  0
  1  3  1  0  0  0  0
  2  1  1  0  0  0  0
  4  1  1  0  0  0  0
  5  4  1  0  0  0  0
  6  5  1  0  0  0  0
  7  8  1  0  0  0  0
  7  5  2  0  0  0  0
  8 14  1  0  0  0  0
  9  8  2  0  0  0  0
  9 10  1  0  0  0  0
 10 11  2  0  0  0  0
 11 12  1  0  0  0  0
 11 13  1  0  0  0  0
 14  4  1  0  0  0  0
 14 13  2  0  0  0  0
 15  9  1  0  0  0  0
 16 15  1  0  0  0  0
 17 15  1  0  0  0  0
 18 21  1  0  0  0  0
 18 20  1  0  0  0  0
 19 18  1  0  0  0  0
 21 26  1  0  0  0  0
 22 23  1  0  0  0  0
 22 21  2  0  0  0  0
 23 24  2  0  0  0  0
 24 25  1  0  0  0  0
 25 29  1  0  0  0  0
 26 25  2  0  0  0  0
 27 22  1  0  0  0  0
 28 23  1  0  0  0  0
M  END
>  <minimizedAffinity>
-2.20153546

>  <minimizedRMSD>
8.47843266

$$$$
