
 OpenBabel03252505303D

 32 34  0  0  0  0  0  0  0  0999 V2000
   45.2270   29.7580   47.5750 C   0  0  0  0  0  0  0  0  0  0  0  0
   44.6140   30.2060   48.3830 H   0  0  0  0  0  0  0  0  0  0  0  0
   46.1980   29.5050   48.0430 H   0  0  0  0  0  0  0  0  0  0  0  0
   44.5830   28.5960   46.9880 N   0  0  0  0  0  0  0  0  0  0  0  0
   43.7640   28.6780   45.9040 C   0  0  0  0  0  0  0  0  0  0  0  0
   43.4860   29.5660   45.3470 H   0  0  0  0  0  0  0  0  0  0  0  0
   43.3050   27.4600   45.5700 N   0  0  0  0  0  0  0  0  0  0  0  0
   43.8300   26.5950   46.4440 C   0  0  0  0  0  0  0  0  0  0  0  0
   43.7580   25.2250   46.6500 C   0  0  0  0  0  0  0  0  0  0  0  0
   44.4040   24.6110   47.6260 N   0  0  0  0  0  0  0  0  0  0  0  0
   45.1790   25.3450   48.4760 C   0  0  0  0  0  0  0  0  0  0  0  0
   45.6710   24.7500   49.2480 H   0  0  0  0  0  0  0  0  0  0  0  0
   45.3060   26.6970   48.3460 N   0  0  0  0  0  0  0  0  0  0  0  0
   44.6360   27.2990   47.3410 C   0  0  0  0  0  0  0  0  0  0  0  0
   42.9170   24.5450   45.7010 N   0  0  0  0  0  0  0  0  0  0  0  0
   41.8790   24.6830   45.5200 H   0  0  0  0  0  0  0  0  0  0  0  0
   43.3440   23.8000   45.0770 H   0  0  0  0  0  0  0  0  0  0  0  0
   45.4700   30.6650   46.5790 O   0  0  0  0  0  0  0  0  0  0  0  0
   46.8990   31.7780   48.4110 O   0  0  0  0  0  0  0  0  0  0  0  0
   45.9260   32.1230   47.2860 P   0  0  2  0  0  0  0  0  0  0  0  0
   44.5540   32.8750   47.8850 O   0  0  0  0  0  0  0  0  0  0  0  0
   43.7160   32.3890   47.6940 H   0  0  0  0  0  0  0  0  0  0  0  0
   46.7450   33.1210   46.1870 O   0  0  0  0  0  0  0  0  0  0  0  0
   44.4820   35.5130   44.8390 C   0  0  0  0  0  0  0  0  0  0  0  0
   44.8880   35.6770   43.4950 C   0  0  0  0  0  0  0  0  0  0  0  0
   45.9970   34.8990   43.1010 C   0  0  0  0  0  0  0  0  0  0  0  0
   46.5970   34.0640   43.9960 N   0  0  0  0  0  0  0  0  0  0  0  0
   46.1450   33.9670   45.2660 C   0  0  0  0  0  0  0  0  0  0  0  0
   45.1040   34.6810   45.6760 N   0  0  0  0  0  0  0  0  0  0  0  0
   43.6280   36.1150   45.1360 H   0  0  0  0  0  0  0  0  0  0  0  0
   44.4030   36.3380   42.8120 H   0  0  0  0  0  0  0  0  0  0  0  0
   46.3650   34.9760   42.0750 H   0  0  0  0  0  0  0  0  0  0  0  0
  1  3  1  0  0  0  0
  1  2  1  0  0  0  0
  4 14  1  0  0  0  0
  4  1  1  0  0  0  0
  5  4  1  0  0  0  0
  6  5  1  0  0  0  0
  7  5  2  0  0  0  0
  7  8  1  0  0  0  0
  8  9  2  0  0  0  0
  8 14  1  0  0  0  0
  9 10  1  0  0  0  0
 10 11  2  0  0  0  0
 11 12  1  0  0  0  0
 13 11  1  0  0  0  0
 14 13  2  0  0  0  0
 15  9  1  0  0  0  0
 16 15  1  0  0  0  0
 17 15  1  0  0  0  0
 18 20  1  0  0  0  0
 18  1  1  0  0  0  0
 20 21  1  0  0  0  0
 20 19  2  1  0  0  0
 22 21  1  0  0  0  0
 23 20  1  0  0  0  0
 24 30  1  0  0  0  0
 24 29  1  0  0  0  0
 25 24  2  0  0  0  0
 26 25  1  0  0  0  0
 26 27  2  0  0  0  0
 27 28  1  0  0  0  0
 28 29  2  0  0  0  0
 28 23  1  0  0  0  0
 31 25  1  0  0  0  0
 32 26  1  0  0  0  0
M  END
>  <minimizedAffinity>
-4.93296623

>  <minimizedRMSD>
2.04506302

$$$$
