
 OpenBabel03252500593D

 43 46  0  0  0  0  0  0  0  0999 V2000
   38.5600   33.0500   39.8900 C   0  0  0  0  0  0  0  0  0  0  0  0
   38.9920   34.1620   40.6040 C   0  0  0  0  0  0  0  0  0  0  0  0
   40.2680   34.6870   40.4540 C   0  0  0  0  0  0  0  0  0  0  0  0
   41.1070   34.0650   39.5650 N   0  0  0  0  0  0  0  0  0  0  0  0
   40.6810   33.0030   38.8900 C   0  0  0  0  0  0  0  0  0  0  0  0
   39.4570   32.5030   39.0360 N   0  0  0  0  0  0  0  0  0  0  0  0
   38.3030   34.6410   41.3070 H   0  0  0  0  0  0  0  0  0  0  0  0
   40.5730   35.5420   41.0160 H   0  0  0  0  0  0  0  0  0  0  0  0
   41.6120   32.4170   37.9880 N   0  0  0  0  0  0  0  0  0  0  0  0
   42.6120   33.2030   37.5210 C   0  0  0  0  0  0  0  0  0  0  0  0
   42.8880   34.2560   37.6880 H   0  0  0  0  0  0  0  0  0  0  0  0
   43.3810   32.4520   36.6810 N   0  0  0  0  0  0  0  0  0  0  0  0
   42.8680   31.2190   36.6270 C   0  0  0  0  0  0  0  0  0  0  0  0
   43.1900   30.0350   35.9680 C   0  0  0  0  0  0  0  0  0  0  0  0
   42.4170   28.9310   36.1530 N   0  0  0  0  0  0  0  0  0  0  0  0
   41.3400   29.0000   36.9800 C   0  0  0  0  0  0  0  0  0  0  0  0
   40.7690   28.0670   37.0760 H   0  0  0  0  0  0  0  0  0  0  0  0
   40.9810   30.1320   37.6480 N   0  0  0  0  0  0  0  0  0  0  0  0
   41.7620   31.2040   37.4460 C   0  0  0  0  0  0  0  0  0  0  0  0
   44.3390   30.0620   35.1200 N   0  0  0  0  0  0  0  0  0  0  0  0
   44.1810   29.8520   34.0910 H   0  0  0  0  0  0  0  0  0  0  0  0
   45.3120   30.2670   35.4160 H   0  0  0  0  0  0  0  0  0  0  0  0
   37.2630   32.6020   40.1110 O   0  0  0  0  0  0  0  0  0  0  0  0
   37.0170   30.0380   39.4900 O   0  0  0  0  0  0  0  0  0  0  0  0
   37.0450   31.0220   40.6580 P   0  0  2  0  0  0  0  0  0  0  0  0
   35.5470   30.9640   41.4490 O   0  0  0  0  0  0  0  0  0  0  0  0
   35.5590   31.6480   42.1750 H   0  0  0  0  0  0  0  0  0  0  0  0
   38.2270   30.5310   41.7780 O   0  0  0  0  0  0  0  0  0  0  0  0
   38.6090   28.3820   42.6380 C   0  0  0  0  0  0  0  0  0  0  0  0
   38.9680   29.3670   41.7430 C   0  0  0  0  0  0  0  0  0  0  0  0
   40.0460   29.1060   40.8780 C   0  0  0  0  0  0  0  0  0  0  0  0
   40.6570   27.9030   40.9860 N   0  0  0  0  0  0  0  0  0  0  0  0
   40.2910   26.9740   41.8570 C   0  0  0  0  0  0  0  0  0  0  0  0
   39.2620   27.2090   42.6910 N   0  0  0  0  0  0  0  0  0  0  0  0
   40.2970   29.8830   40.2000 H   0  0  0  0  0  0  0  0  0  0  0  0
   40.7790   26.0090   41.9460 H   0  0  0  0  0  0  0  0  0  0  0  0
   37.4940   28.5800   43.5740 C   0  0  0  0  0  0  0  0  0  0  0  0
   37.9390   28.5700   44.5960 H   0  0  0  0  0  0  0  0  0  0  0  0
   36.9140   29.5080   43.3810 H   0  0  0  0  0  0  0  0  0  0  0  0
   36.5440   27.4220   43.4740 C   0  0  0  0  0  0  0  0  0  0  0  0
   36.9070   26.6080   42.7960 H   0  0  0  0  0  0  0  0  0  0  0  0
   36.2940   27.0320   44.4970 H   0  0  0  0  0  0  0  0  0  0  0  0
   35.5580   27.7220   43.0380 H   0  0  0  0  0  0  0  0  0  0  0  0
  1 23  1  0  0  0  0
  1  2  1  0  0  0  0
  2  7  1  0  0  0  0
  3  2  2  0  0  0  0
  3  8  1  0  0  0  0
  4  3  1  0  0  0  0
  5  6  1  0  0  0  0
  5  4  2  0  0  0  0
  6  1  2  0  0  0  0
  9  5  1  0  0  0  0
 10 11  1  0  0  0  0
 10  9  1  0  0  0  0
 12 10  2  0  0  0  0
 13 12  1  0  0  0  0
 13 19  1  0  0  0  0
 14 15  1  0  0  0  0
 14 13  2  0  0  0  0
 15 16  2  0  0  0  0
 16 17  1  0  0  0  0
 16 18  1  0  0  0  0
 19 18  2  0  0  0  0
 19  9  1  0  0  0  0
 20 22  1  0  0  0  0
 20 14  1  0  0  0  0
 21 20  1  0  0  0  0
 23 25  1  0  0  0  0
 25 24  2  6  0  0  0
 25 26  1  0  0  0  0
 25 28  1  0  0  0  0
 26 27  1  0  0  0  0
 29 34  1  0  0  0  0
 29 37  1  0  0  0  0
 30 28  1  0  0  0  0
 30 29  2  0  0  0  0
 31 32  2  0  0  0  0
 31 30  1  0  0  0  0
 32 33  1  0  0  0  0
 33 36  1  0  0  0  0
 33 34  2  0  0  0  0
 35 31  1  0  0  0  0
 37 38  1  0  0  0  0
 39 37  1  0  0  0  0
 40 37  1  0  0  0  0
 40 42  1  0  0  0  0
 41 40  1  0  0  0  0
 43 40  1  0  0  0  0
M  END
>  <minimizedAffinity>
-6.79902506

$$$$

 OpenBabel03252500593D

 43 46  0  0  0  0  0  0  0  0999 V2000
   37.6670   32.2350   39.1220 C   0  0  0  0  0  0  0  0  0  0  0  0
   37.6400   33.2720   40.0480 C   0  0  0  0  0  0  0  0  0  0  0  0
   38.7540   34.0560   40.3120 C   0  0  0  0  0  0  0  0  0  0  0  0
   39.9040   33.7750   39.6220 N   0  0  0  0  0  0  0  0  0  0  0  0
   39.9160   32.7820   38.7400 C   0  0  0  0  0  0  0  0  0  0  0  0
   38.8470   32.0320   38.4880 N   0  0  0  0  0  0  0  0  0  0  0  0
   36.7090   33.4760   40.5870 H   0  0  0  0  0  0  0  0  0  0  0  0
   38.7040   34.8460   41.0300 H   0  0  0  0  0  0  0  0  0  0  0  0
   41.1480   32.5550   38.0650 N   0  0  0  0  0  0  0  0  0  0  0  0
   42.0170   33.5930   37.9810 C   0  0  0  0  0  0  0  0  0  0  0  0
   41.9870   34.6350   38.3360 H   0  0  0  0  0  0  0  0  0  0  0  0
   43.1200   33.1640   37.3030 N   0  0  0  0  0  0  0  0  0  0  0  0
   42.9410   31.8820   36.9710 C   0  0  0  0  0  0  0  0  0  0  0  0
   43.6820   30.9170   36.2950 C   0  0  0  0  0  0  0  0  0  0  0  0
   43.1710   29.6660   36.1340 N   0  0  0  0  0  0  0  0  0  0  0  0
   41.9420   29.3770   36.6380 C   0  0  0  0  0  0  0  0  0  0  0  0
   41.6010   28.3470   36.4680 H   0  0  0  0  0  0  0  0  0  0  0  0
   41.1750   30.2840   37.3080 N   0  0  0  0  0  0  0  0  0  0  0  0
   41.7060   31.5080   37.4500 C   0  0  0  0  0  0  0  0  0  0  0  0
   44.9620   31.3150   35.8010 N   0  0  0  0  0  0  0  0  0  0  0  0
   45.1100   31.2580   34.7510 H   0  0  0  0  0  0  0  0  0  0  0  0
   45.7590   31.6550   36.3730 H   0  0  0  0  0  0  0  0  0  0  0  0
   36.4990   31.5080   38.9280 O   0  0  0  0  0  0  0  0  0  0  0  0
   35.0350   29.3570   39.4280 O   0  0  0  0  0  0  0  0  0  0  0  0
   36.1840   30.2120   39.9590 P   0  0  2  0  0  0  0  0  0  0  0  0
   35.7260   30.8590   41.4580 O   0  0  0  0  0  0  0  0  0  0  0  0
   36.4620   31.4570   41.7690 H   0  0  0  0  0  0  0  0  0  0  0  0
   37.5420   29.2250   40.2290 O   0  0  0  0  0  0  0  0  0  0  0  0
   39.0150   28.8570   42.0190 C   0  0  0  0  0  0  0  0  0  0  0  0
   37.8390   28.5230   41.3810 C   0  0  0  0  0  0  0  0  0  0  0  0
   37.0490   27.5080   41.9490 C   0  0  0  0  0  0  0  0  0  0  0  0
   37.5010   26.9280   43.0860 N   0  0  0  0  0  0  0  0  0  0  0  0
   38.6360   27.2680   43.6790 C   0  0  0  0  0  0  0  0  0  0  0  0
   39.4020   28.2380   43.1460 N   0  0  0  0  0  0  0  0  0  0  0  0
   36.1500   27.2740   41.4360 H   0  0  0  0  0  0  0  0  0  0  0  0
   39.0010   26.8060   44.5900 H   0  0  0  0  0  0  0  0  0  0  0  0
   39.8930   29.9070   41.4860 C   0  0  0  0  0  0  0  0  0  0  0  0
   40.9300   29.5000   41.5340 H   0  0  0  0  0  0  0  0  0  0  0  0
   39.6210   30.2330   40.4590 H   0  0  0  0  0  0  0  0  0  0  0  0
   39.8300   31.1140   42.3770 C   0  0  0  0  0  0  0  0  0  0  0  0
   39.2170   30.9510   43.3000 H   0  0  0  0  0  0  0  0  0  0  0  0
   40.8640   31.4750   42.6200 H   0  0  0  0  0  0  0  0  0  0  0  0
   39.3380   31.9840   41.8720 H   0  0  0  0  0  0  0  0  0  0  0  0
  1  2  1  0  0  0  0
  2  3  2  0  0  0  0
  2  7  1  0  0  0  0
  3  8  1  0  0  0  0
  4  3  1  0  0  0  0
  5  4  2  0  0  0  0
  6  5  1  0  0  0  0
  6  1  2  0  0  0  0
  9  5  1  0  0  0  0
 10  9  1  0  0  0  0
 10 11  1  0  0  0  0
 12 10  2  0  0  0  0
 13 12  1  0  0  0  0
 13 19  1  0  0  0  0
 14 13  2  0  0  0  0
 15 14  1  0  0  0  0
 15 16  2  0  0  0  0
 16 18  1  0  0  0  0
 17 16  1  0  0  0  0
 18 19  2  0  0  0  0
 19  9  1  0  0  0  0
 20 14  1  0  0  0  0
 20 22  1  0  0  0  0
 21 20  1  0  0  0  0
 23  1  1  0  0  0  0
 23 25  1  0  0  0  0
 25 24  2  6  0  0  0
 25 28  1  0  0  0  0
 25 26  1  0  0  0  0
 26 27  1  0  0  0  0
 28 30  1  0  0  0  0
 29 34  1  0  0  0  0
 30 31  1  0  0  0  0
 30 29  2  0  0  0  0
 31 32  2  0  0  0  0
 32 33  1  0  0  0  0
 33 36  1  0  0  0  0
 34 33  2  0  0  0  0
 35 31  1  0  0  0  0
 37 38  1  0  0  0  0
 37 29  1  0  0  0  0
 37 40  1  0  0  0  0
 39 37  1  0  0  0  0
 40 42  1  0  0  0  0
 40 41  1  0  0  0  0
 43 40  1  0  0  0  0
M  END
>  <minimizedAffinity>
-6.62649202

$$$$

 OpenBabel03252500593D

 43 46  0  0  0  0  0  0  0  0999 V2000
   38.1540   32.1260   39.8210 C   0  0  0  0  0  0  0  0  0  0  0  0
   37.4370   33.2980   39.6040 C   0  0  0  0  0  0  0  0  0  0  0  0
   37.9870   34.5520   39.8270 C   0  0  0  0  0  0  0  0  0  0  0  0
   39.2810   34.6060   40.2770 N   0  0  0  0  0  0  0  0  0  0  0  0
   39.9540   33.4790   40.4800 C   0  0  0  0  0  0  0  0  0  0  0  0
   39.4250   32.2770   40.2640 N   0  0  0  0  0  0  0  0  0  0  0  0
   36.4060   33.2280   39.2450 H   0  0  0  0  0  0  0  0  0  0  0  0
   37.4120   35.4360   39.6520 H   0  0  0  0  0  0  0  0  0  0  0  0
   41.2910   33.6200   40.9460 N   0  0  0  0  0  0  0  0  0  0  0  0
   41.9230   34.7910   40.6880 C   0  0  0  0  0  0  0  0  0  0  0  0
   41.6240   35.7150   40.1690 H   0  0  0  0  0  0  0  0  0  0  0  0
   43.1790   34.7160   41.2160 N   0  0  0  0  0  0  0  0  0  0  0  0
   43.3250   33.5190   41.7920 C   0  0  0  0  0  0  0  0  0  0  0  0
   44.3430   32.8630   42.4790 C   0  0  0  0  0  0  0  0  0  0  0  0
   44.1370   31.6020   42.9440 N   0  0  0  0  0  0  0  0  0  0  0  0
   42.9370   30.9990   42.7320 C   0  0  0  0  0  0  0  0  0  0  0  0
   42.8490   29.9820   43.1380 H   0  0  0  0  0  0  0  0  0  0  0  0
   41.9070   31.5960   42.0660 N   0  0  0  0  0  0  0  0  0  0  0  0
   42.1410   32.8390   41.6200 C   0  0  0  0  0  0  0  0  0  0  0  0
   45.5680   33.5780   42.6520 N   0  0  0  0  0  0  0  0  0  0  0  0
   46.4390   33.1470   42.2240 H   0  0  0  0  0  0  0  0  0  0  0  0
   45.6850   34.4770   43.1570 H   0  0  0  0  0  0  0  0  0  0  0  0
   37.5150   30.9190   39.5680 O   0  0  0  0  0  0  0  0  0  0  0  0
   36.3560   28.6980   40.4340 O   0  0  0  0  0  0  0  0  0  0  0  0
   36.8520   30.0760   40.8690 P   0  0  2  0  0  0  0  0  0  0  0  0
   35.5280   30.9740   41.4300 O   0  0  0  0  0  0  0  0  0  0  0  0
   35.8550   31.8880   41.6600 H   0  0  0  0  0  0  0  0  0  0  0  0
   37.9310   29.9000   42.1720 O   0  0  0  0  0  0  0  0  0  0  0  0
   38.4890   27.9730   43.3900 C   0  0  0  0  0  0  0  0  0  0  0  0
   38.8120   28.8580   42.3830 C   0  0  0  0  0  0  0  0  0  0  0  0
   39.9970   28.6270   41.6620 C   0  0  0  0  0  0  0  0  0  0  0  0
   40.7390   27.5500   42.0090 N   0  0  0  0  0  0  0  0  0  0  0  0
   40.4060   26.7150   42.9820 C   0  0  0  0  0  0  0  0  0  0  0  0
   39.2740   26.9230   43.6810 N   0  0  0  0  0  0  0  0  0  0  0  0
   40.2180   29.3250   40.8930 H   0  0  0  0  0  0  0  0  0  0  0  0
   40.9990   25.8510   43.2630 H   0  0  0  0  0  0  0  0  0  0  0  0
   37.2670   28.1480   44.1870 C   0  0  0  0  0  0  0  0  0  0  0  0
   37.5250   27.8330   45.2250 H   0  0  0  0  0  0  0  0  0  0  0  0
   36.8610   29.1810   44.1540 H   0  0  0  0  0  0  0  0  0  0  0  0
   36.2000   27.2230   43.6770 C   0  0  0  0  0  0  0  0  0  0  0  0
   36.5590   26.5320   42.8730 H   0  0  0  0  0  0  0  0  0  0  0  0
   35.7270   26.6650   44.5280 H   0  0  0  0  0  0  0  0  0  0  0  0
   35.3530   27.7800   43.2010 H   0  0  0  0  0  0  0  0  0  0  0  0
  1  6  1  0  0  0  0
  2  1  2  0  0  0  0
  2  3  1  0  0  0  0
  3  4  2  0  0  0  0
  4  5  1  0  0  0  0
  5  9  1  0  0  0  0
  6  5  2  0  0  0  0
  7  2  1  0  0  0  0
  8  3  1  0  0  0  0
  9 19  1  0  0  0  0
 10  9  1  0  0  0  0
 10 12  2  0  0  0  0
 11 10  1  0  0  0  0
 12 13  1  0  0  0  0
 13 14  1  0  0  0  0
 14 20  1  0  0  0  0
 14 15  2  0  0  0  0
 16 15  1  0  0  0  0
 16 17  1  0  0  0  0
 18 16  2  0  0  0  0
 19 13  2  0  0  0  0
 19 18  1  0  0  0  0
 20 22  1  0  0  0  0
 21 20  1  0  0  0  0
 23  1  1  0  0  0  0
 23 25  1  0  0  0  0
 25 24  2  6  0  0  0
 25 26  1  0  0  0  0
 25 28  1  0  0  0  0
 26 27  1  0  0  0  0
 28 30  1  0  0  0  0
 29 34  1  0  0  0  0
 29 37  1  0  0  0  0
 30 29  2  0  0  0  0
 31 32  2  0  0  0  0
 31 30  1  0  0  0  0
 32 33  1  0  0  0  0
 33 36  1  0  0  0  0
 33 34  2  0  0  0  0
 35 31  1  0  0  0  0
 37 38  1  0  0  0  0
 39 37  1  0  0  0  0
 40 37  1  0  0  0  0
 40 42  1  0  0  0  0
 41 40  1  0  0  0  0
 43 40  1  0  0  0  0
M  END
>  <minimizedAffinity>
-6.56531239

$$$$

 OpenBabel03252500593D

 43 46  0  0  0  0  0  0  0  0999 V2000
   37.1260   30.2680   40.5700 C   0  0  0  0  0  0  0  0  0  0  0  0
   36.4260   29.6320   39.5500 C   0  0  0  0  0  0  0  0  0  0  0  0
   36.7730   29.7770   38.2140 C   0  0  0  0  0  0  0  0  0  0  0  0
   37.8460   30.5800   37.9220 N   0  0  0  0  0  0  0  0  0  0  0  0
   38.5050   31.1800   38.9060 C   0  0  0  0  0  0  0  0  0  0  0  0
   38.1710   31.0400   40.1860 N   0  0  0  0  0  0  0  0  0  0  0  0
   35.5740   28.9970   39.8090 H   0  0  0  0  0  0  0  0  0  0  0  0
   36.2170   29.2760   37.4510 H   0  0  0  0  0  0  0  0  0  0  0  0
   39.6060   31.9950   38.5190 N   0  0  0  0  0  0  0  0  0  0  0  0
   40.1920   31.7310   37.3260 C   0  0  0  0  0  0  0  0  0  0  0  0
   40.0030   30.9850   36.5390 H   0  0  0  0  0  0  0  0  0  0  0  0
   41.2130   32.6190   37.1530 N   0  0  0  0  0  0  0  0  0  0  0  0
   41.2600   33.4220   38.2200 C   0  0  0  0  0  0  0  0  0  0  0  0
   42.0530   34.4930   38.6240 C   0  0  0  0  0  0  0  0  0  0  0  0
   41.8090   35.0980   39.8180 N   0  0  0  0  0  0  0  0  0  0  0  0
   40.7930   34.6460   40.6000 C   0  0  0  0  0  0  0  0  0  0  0  0
   40.6600   35.1860   41.5480 H   0  0  0  0  0  0  0  0  0  0  0  0
   39.9880   33.6020   40.2530 N   0  0  0  0  0  0  0  0  0  0  0  0
   40.2530   33.0270   39.0700 C   0  0  0  0  0  0  0  0  0  0  0  0
   43.0960   34.8950   37.7350 N   0  0  0  0  0  0  0  0  0  0  0  0
   44.0900   34.8380   38.1040 H   0  0  0  0  0  0  0  0  0  0  0  0
   42.9730   35.2370   36.7630 H   0  0  0  0  0  0  0  0  0  0  0  0
   36.7010   30.0600   41.8750 O   0  0  0  0  0  0  0  0  0  0  0  0
   36.7470   27.4320   42.2150 O   0  0  0  0  0  0  0  0  0  0  0  0
   37.3340   28.7470   42.7240 P   0  0  2  0  0  0  0  0  0  0  0  0
   36.8960   28.9390   44.3500 O   0  0  0  0  0  0  0  0  0  0  0  0
   37.2390   29.8250   44.6550 H   0  0  0  0  0  0  0  0  0  0  0  0
   39.0310   28.6670   42.6630 O   0  0  0  0  0  0  0  0  0  0  0  0
   40.4580   27.1740   41.5500 C   0  0  0  0  0  0  0  0  0  0  0  0
   39.8080   27.5260   42.7130 C   0  0  0  0  0  0  0  0  0  0  0  0
   39.9880   26.7050   43.8410 C   0  0  0  0  0  0  0  0  0  0  0  0
   40.7900   25.6230   43.7030 N   0  0  0  0  0  0  0  0  0  0  0  0
   41.4030   25.3070   42.5720 C   0  0  0  0  0  0  0  0  0  0  0  0
   41.2400   26.0830   41.4850 N   0  0  0  0  0  0  0  0  0  0  0  0
   39.4760   27.0030   44.7210 H   0  0  0  0  0  0  0  0  0  0  0  0
   42.0460   24.4400   42.4590 H   0  0  0  0  0  0  0  0  0  0  0  0
   40.3190   27.9820   40.3310 C   0  0  0  0  0  0  0  0  0  0  0  0
   39.8710   28.9510   40.6490 H   0  0  0  0  0  0  0  0  0  0  0  0
   41.2750   28.1250   39.7830 H   0  0  0  0  0  0  0  0  0  0  0  0
   39.3550   27.3130   39.3940 C   0  0  0  0  0  0  0  0  0  0  0  0
   38.8690   26.4040   39.8320 H   0  0  0  0  0  0  0  0  0  0  0  0
   38.5980   28.0520   39.0200 H   0  0  0  0  0  0  0  0  0  0  0  0
   39.8600   26.9350   38.4690 H   0  0  0  0  0  0  0  0  0  0  0  0
  1 23  1  0  0  0  0
  2  7  1  0  0  0  0
  2  1  2  0  0  0  0
  3  2  1  0  0  0  0
  4  3  2  0  0  0  0
  4  5  1  0  0  0  0
  5  6  2  0  0  0  0
  6  1  1  0  0  0  0
  8  3  1  0  0  0  0
  9  5  1  0  0  0  0
  9 19  1  0  0  0  0
 10  9  1  0  0  0  0
 11 10  1  0  0  0  0
 12 10  2  0  0  0  0
 12 13  1  0  0  0  0
 13 14  2  0  0  0  0
 13 19  1  0  0  0  0
 14 15  1  0  0  0  0
 15 16  2  0  0  0  0
 16 17  1  0  0  0  0
 18 16  1  0  0  0  0
 19 18  2  0  0  0  0
 20 21  1  0  0  0  0
 20 14  1  0  0  0  0
 22 20  1  0  0  0  0
 23 25  1  0  0  0  0
 25 24  2  6  0  0  0
 25 26  1  0  0  0  0
 26 27  1  0  0  0  0
 28 30  1  0  0  0  0
 28 25  1  0  0  0  0
 29 30  1  0  0  0  0
 30 31  2  0  0  0  0
 31 35  1  0  0  0  0
 32 31  1  0  0  0  0
 33 32  2  0  0  0  0
 34 29  2  0  0  0  0
 34 33  1  0  0  0  0
 36 33  1  0  0  0  0
 37 38  1  0  0  0  0
 37 29  1  0  0  0  0
 39 37  1  0  0  0  0
 40 41  1  0  0  0  0
 40 37  1  0  0  0  0
 42 40  1  0  0  0  0
 43 40  1  0  0  0  0
M  END
>  <minimizedAffinity>
-6.40322924

$$$$

 OpenBabel03252500593D

 43 46  0  0  0  0  0  0  0  0999 V2000
   38.0240   30.6080   40.0200 C   0  0  0  0  0  0  0  0  0  0  0  0
   36.9570   31.3650   39.5470 C   0  0  0  0  0  0  0  0  0  0  0  0
   37.0700   32.7260   39.3000 C   0  0  0  0  0  0  0  0  0  0  0  0
   38.2850   33.3150   39.5410 N   0  0  0  0  0  0  0  0  0  0  0  0
   39.2940   32.5790   39.9920 C   0  0  0  0  0  0  0  0  0  0  0  0
   39.1840   31.2750   40.2270 N   0  0  0  0  0  0  0  0  0  0  0  0
   35.9980   30.8720   39.3630 H   0  0  0  0  0  0  0  0  0  0  0  0
   36.2340   33.2830   38.9370 H   0  0  0  0  0  0  0  0  0  0  0  0
   40.5210   33.2650   40.2160 N   0  0  0  0  0  0  0  0  0  0  0  0
   40.7290   34.4160   39.5300 C   0  0  0  0  0  0  0  0  0  0  0  0
   40.1320   34.9780   38.7950 H   0  0  0  0  0  0  0  0  0  0  0  0
   41.9510   34.9050   39.8890 N   0  0  0  0  0  0  0  0  0  0  0  0
   42.4940   34.0720   40.7830 C   0  0  0  0  0  0  0  0  0  0  0  0
   43.6850   34.0230   41.5010 C   0  0  0  0  0  0  0  0  0  0  0  0
   43.9140   32.9880   42.3540 N   0  0  0  0  0  0  0  0  0  0  0  0
   42.9740   32.0170   42.4940 C   0  0  0  0  0  0  0  0  0  0  0  0
   43.2330   31.2180   43.2020 H   0  0  0  0  0  0  0  0  0  0  0  0
   41.7910   32.0170   41.8160 N   0  0  0  0  0  0  0  0  0  0  0  0
   41.5950   33.0490   40.9820 C   0  0  0  0  0  0  0  0  0  0  0  0
   44.6120   35.0880   41.2860 N   0  0  0  0  0  0  0  0  0  0  0  0
   45.5670   34.8250   40.9030 H   0  0  0  0  0  0  0  0  0  0  0  0
   44.4390   36.0950   41.4700 H   0  0  0  0  0  0  0  0  0  0  0  0
   37.8100   29.2530   40.2350 O   0  0  0  0  0  0  0  0  0  0  0  0
   35.2600   28.7310   40.7350 O   0  0  0  0  0  0  0  0  0  0  0  0
   36.6490   28.7960   41.3690 P   0  0  2  0  0  0  0  0  0  0  0  0
   36.6330   29.9800   42.5810 O   0  0  0  0  0  0  0  0  0  0  0  0
   37.5580   30.0500   42.9510 H   0  0  0  0  0  0  0  0  0  0  0  0
   36.9940   27.3090   42.1200 O   0  0  0  0  0  0  0  0  0  0  0  0
   38.1890   25.2940   41.9930 C   0  0  0  0  0  0  0  0  0  0  0  0
   38.2140   26.6630   42.1530 C   0  0  0  0  0  0  0  0  0  0  0  0
   39.4650   27.2800   42.3350 C   0  0  0  0  0  0  0  0  0  0  0  0
   40.5590   26.4830   42.3400 N   0  0  0  0  0  0  0  0  0  0  0  0
   40.5070   25.1680   42.1840 C   0  0  0  0  0  0  0  0  0  0  0  0
   39.3170   24.5640   42.0090 N   0  0  0  0  0  0  0  0  0  0  0  0
   39.4510   28.3340   42.4550 H   0  0  0  0  0  0  0  0  0  0  0  0
   41.3820   24.5270   42.1870 H   0  0  0  0  0  0  0  0  0  0  0  0
   36.9210   24.5780   41.7980 C   0  0  0  0  0  0  0  0  0  0  0  0
   36.9210   23.7390   42.5320 H   0  0  0  0  0  0  0  0  0  0  0  0
   36.0250   25.2260   41.9060 H   0  0  0  0  0  0  0  0  0  0  0  0
   36.8880   23.9830   40.4200 C   0  0  0  0  0  0  0  0  0  0  0  0
   37.8470   24.1150   39.8570 H   0  0  0  0  0  0  0  0  0  0  0  0
   36.5750   22.9070   40.4660 H   0  0  0  0  0  0  0  0  0  0  0  0
   36.1190   24.4720   39.7690 H   0  0  0  0  0  0  0  0  0  0  0  0
  1  6  1  0  0  0  0
  1 23  1  0  0  0  0
  2  1  2  0  0  0  0
  3  4  2  0  0  0  0
  3  2  1  0  0  0  0
  4  5  1  0  0  0  0
  5  9  1  0  0  0  0
  5  6  2  0  0  0  0
  7  2  1  0  0  0  0
  8  3  1  0  0  0  0
  9 19  1  0  0  0  0
 10 12  2  0  0  0  0
 10  9  1  0  0  0  0
 11 10  1  0  0  0  0
 12 13  1  0  0  0  0
 13 19  2  0  0  0  0
 13 14  1  0  0  0  0
 14 15  2  0  0  0  0
 15 16  1  0  0  0  0
 16 17  1  0  0  0  0
 18 16  2  0  0  0  0
 19 18  1  0  0  0  0
 20 22  1  0  0  0  0
 20 14  1  0  0  0  0
 21 20  1  0  0  0  0
 23 25  1  0  0  0  0
 25 24  2  6  0  0  0
 25 28  1  0  0  0  0
 25 26  1  0  0  0  0
 26 27  1  0  0  0  0
 28 30  1  0  0  0  0
 29 34  2  0  0  0  0
 29 30  1  0  0  0  0
 30 31  2  0  0  0  0
 31 32  1  0  0  0  0
 31 35  1  0  0  0  0
 33 36  1  0  0  0  0
 33 32  2  0  0  0  0
 34 33  1  0  0  0  0
 37 39  1  0  0  0  0
 37 29  1  0  0  0  0
 37 38  1  0  0  0  0
 40 42  1  0  0  0  0
 40 37  1  0  0  0  0
 41 40  1  0  0  0  0
 43 40  1  0  0  0  0
M  END
>  <minimizedAffinity>
-6.36350346

$$$$

 OpenBabel03252500593D

 43 46  0  0  0  0  0  0  0  0999 V2000
   39.5160   27.6480   43.2680 C   0  0  0  0  0  0  0  0  0  0  0  0
   38.2270   27.3600   43.7020 C   0  0  0  0  0  0  0  0  0  0  0  0
   37.1590   28.2130   43.4620 C   0  0  0  0  0  0  0  0  0  0  0  0
   37.4160   29.3710   42.7730 N   0  0  0  0  0  0  0  0  0  0  0  0
   38.6520   29.6320   42.3640 C   0  0  0  0  0  0  0  0  0  0  0  0
   39.6740   28.8120   42.5940 N   0  0  0  0  0  0  0  0  0  0  0  0
   38.0480   26.4300   44.2510 H   0  0  0  0  0  0  0  0  0  0  0  0
   36.1790   27.9670   43.8080 H   0  0  0  0  0  0  0  0  0  0  0  0
   38.8340   30.8520   41.6550 N   0  0  0  0  0  0  0  0  0  0  0  0
   37.7520   31.3850   41.0370 C   0  0  0  0  0  0  0  0  0  0  0  0
   36.7000   31.0740   40.9520 H   0  0  0  0  0  0  0  0  0  0  0  0
   38.1430   32.5400   40.4240 N   0  0  0  0  0  0  0  0  0  0  0  0
   39.4470   32.7210   40.6570 C   0  0  0  0  0  0  0  0  0  0  0  0
   40.3950   33.6810   40.3130 C   0  0  0  0  0  0  0  0  0  0  0  0
   41.6790   33.5420   40.7390 N   0  0  0  0  0  0  0  0  0  0  0  0
   42.0190   32.4660   41.4970 C   0  0  0  0  0  0  0  0  0  0  0  0
   43.0730   32.4260   41.8010 H   0  0  0  0  0  0  0  0  0  0  0  0
   41.1310   31.4970   41.8620 N   0  0  0  0  0  0  0  0  0  0  0  0
   39.8730   31.6620   41.4260 C   0  0  0  0  0  0  0  0  0  0  0  0
   39.9430   34.7750   39.5130 N   0  0  0  0  0  0  0  0  0  0  0  0
   40.3990   34.8950   38.5620 H   0  0  0  0  0  0  0  0  0  0  0  0
   39.2110   35.4630   39.7760 H   0  0  0  0  0  0  0  0  0  0  0  0
   40.5170   26.7290   43.5580 O   0  0  0  0  0  0  0  0  0  0  0  0
   39.6000   24.2440   43.6260 O   0  0  0  0  0  0  0  0  0  0  0  0
   40.4550   25.2170   42.8160 P   0  0  2  0  0  0  0  0  0  0  0  0
   42.0400   24.6190   42.7540 O   0  0  0  0  0  0  0  0  0  0  0  0
   42.5990   25.2880   42.2680 H   0  0  0  0  0  0  0  0  0  0  0  0
   39.8760   25.2780   41.2180 O   0  0  0  0  0  0  0  0  0  0  0  0
   37.8190   25.3970   40.0940 C   0  0  0  0  0  0  0  0  0  0  0  0
   38.7750   24.6170   40.7110 C   0  0  0  0  0  0  0  0  0  0  0  0
   38.5510   23.2300   40.7710 C   0  0  0  0  0  0  0  0  0  0  0  0
   37.4100   22.7570   40.2170 N   0  0  0  0  0  0  0  0  0  0  0  0
   36.5070   23.5290   39.6300 C   0  0  0  0  0  0  0  0  0  0  0  0
   36.7080   24.8590   39.5660 N   0  0  0  0  0  0  0  0  0  0  0  0
   39.3040   22.6570   41.2500 H   0  0  0  0  0  0  0  0  0  0  0  0
   35.5920   23.1530   39.1860 H   0  0  0  0  0  0  0  0  0  0  0  0
   37.9820   26.8530   39.9920 C   0  0  0  0  0  0  0  0  0  0  0  0
   38.3930   27.1900   40.9720 H   0  0  0  0  0  0  0  0  0  0  0  0
   38.6220   27.1690   39.1410 H   0  0  0  0  0  0  0  0  0  0  0  0
   36.6370   27.4960   39.8120 C   0  0  0  0  0  0  0  0  0  0  0  0
   35.7860   26.7720   39.8830 H   0  0  0  0  0  0  0  0  0  0  0  0
   36.5150   28.3550   40.5240 H   0  0  0  0  0  0  0  0  0  0  0  0
   36.5230   27.9540   38.7960 H   0  0  0  0  0  0  0  0  0  0  0  0
  1 23  1  0  0  0  0
  1  2  1  0  0  0  0
  2  7  1  0  0  0  0
  3  2  2  0  0  0  0
  3  8  1  0  0  0  0
  4  3  1  0  0  0  0
  5  6  1  0  0  0  0
  5  4  2  0  0  0  0
  6  1  2  0  0  0  0
  9  5  1  0  0  0  0
 10  9  1  0  0  0  0
 11 10  1  0  0  0  0
 12 13  1  0  0  0  0
 12 10  2  0  0  0  0
 13 19  1  0  0  0  0
 14 13  2  0  0  0  0
 14 15  1  0  0  0  0
 15 16  2  0  0  0  0
 16 17  1  0  0  0  0
 16 18  1  0  0  0  0
 19  9  1  0  0  0  0
 19 18  2  0  0  0  0
 20 22  1  0  0  0  0
 20 14  1  0  0  0  0
 21 20  1  0  0  0  0
 25 23  1  0  0  0  0
 25 24  2  1  0  0  0
 26 25  1  0  0  0  0
 27 26  1  0  0  0  0
 28 25  1  0  0  0  0
 29 30  1  0  0  0  0
 30 31  2  0  0  0  0
 30 28  1  0  0  0  0
 31 35  1  0  0  0  0
 32 31  1  0  0  0  0
 33 32  2  0  0  0  0
 34 33  1  0  0  0  0
 34 29  2  0  0  0  0
 36 33  1  0  0  0  0
 37 29  1  0  0  0  0
 37 38  1  0  0  0  0
 39 37  1  0  0  0  0
 40 41  1  0  0  0  0
 40 37  1  0  0  0  0
 40 42  1  0  0  0  0
 43 40  1  0  0  0  0
M  END
>  <minimizedAffinity>
-6.33204174

$$$$

 OpenBabel03252500593D

 43 46  0  0  0  0  0  0  0  0999 V2000
   38.2780   31.0300   41.0070 C   0  0  0  0  0  0  0  0  0  0  0  0
   38.4700   30.3030   42.1770 C   0  0  0  0  0  0  0  0  0  0  0  0
   39.6860   30.2880   42.8460 C   0  0  0  0  0  0  0  0  0  0  0  0
   40.7120   31.0230   42.3100 N   0  0  0  0  0  0  0  0  0  0  0  0
   40.5140   31.7130   41.1930 C   0  0  0  0  0  0  0  0  0  0  0  0
   39.3480   31.7260   40.5540 N   0  0  0  0  0  0  0  0  0  0  0  0
   37.6350   29.7250   42.5840 H   0  0  0  0  0  0  0  0  0  0  0  0
   39.8050   29.7200   43.7430 H   0  0  0  0  0  0  0  0  0  0  0  0
   41.6290   32.4490   40.7030 N   0  0  0  0  0  0  0  0  0  0  0  0
   42.5900   32.7960   41.5930 C   0  0  0  0  0  0  0  0  0  0  0  0
   42.7160   32.6310   42.6740 H   0  0  0  0  0  0  0  0  0  0  0  0
   43.5560   33.4890   40.9220 N   0  0  0  0  0  0  0  0  0  0  0  0
   43.2000   33.5700   39.6360 C   0  0  0  0  0  0  0  0  0  0  0  0
   43.7490   34.1320   38.4860 C   0  0  0  0  0  0  0  0  0  0  0  0
   43.0890   34.0200   37.3020 N   0  0  0  0  0  0  0  0  0  0  0  0
   41.9020   33.3590   37.2580 C   0  0  0  0  0  0  0  0  0  0  0  0
   41.4330   33.3120   36.2660 H   0  0  0  0  0  0  0  0  0  0  0  0
   41.3210   32.7910   38.3530 N   0  0  0  0  0  0  0  0  0  0  0  0
   41.9950   32.9190   39.5060 C   0  0  0  0  0  0  0  0  0  0  0  0
   44.9990   34.8060   38.6320 N   0  0  0  0  0  0  0  0  0  0  0  0
   45.0200   35.8390   38.3850 H   0  0  0  0  0  0  0  0  0  0  0  0
   45.8890   34.3810   38.9570 H   0  0  0  0  0  0  0  0  0  0  0  0
   37.0230   30.9810   40.4130 O   0  0  0  0  0  0  0  0  0  0  0  0
   35.9840   29.4030   38.5550 O   0  0  0  0  0  0  0  0  0  0  0  0
   36.3780   29.4720   40.0290 P   0  0  2  0  0  0  0  0  0  0  0  0
   34.9830   29.2650   40.9700 O   0  0  0  0  0  0  0  0  0  0  0  0
   35.2440   29.3650   41.9280 H   0  0  0  0  0  0  0  0  0  0  0  0
   37.4270   28.1830   40.3920 O   0  0  0  0  0  0  0  0  0  0  0  0
   37.2220   26.2160   41.6540 C   0  0  0  0  0  0  0  0  0  0  0  0
   37.1060   26.8410   40.4310 C   0  0  0  0  0  0  0  0  0  0  0  0
   36.6750   26.0680   39.3370 C   0  0  0  0  0  0  0  0  0  0  0  0
   36.4040   24.7620   39.5640 N   0  0  0  0  0  0  0  0  0  0  0  0
   36.5240   24.1860   40.7520 C   0  0  0  0  0  0  0  0  0  0  0  0
   36.9350   24.9130   41.8070 N   0  0  0  0  0  0  0  0  0  0  0  0
   36.5950   26.5780   38.4100 H   0  0  0  0  0  0  0  0  0  0  0  0
   36.3080   23.1390   40.9370 H   0  0  0  0  0  0  0  0  0  0  0  0
   37.6660   26.9560   42.8430 C   0  0  0  0  0  0  0  0  0  0  0  0
   38.2330   26.2290   43.4690 H   0  0  0  0  0  0  0  0  0  0  0  0
   38.2680   27.8590   42.6030 H   0  0  0  0  0  0  0  0  0  0  0  0
   36.4680   27.4060   43.6300 C   0  0  0  0  0  0  0  0  0  0  0  0
   35.4990   27.0190   43.2220 H   0  0  0  0  0  0  0  0  0  0  0  0
   36.5950   27.1510   44.7150 H   0  0  0  0  0  0  0  0  0  0  0  0
   36.3480   28.5180   43.6140 H   0  0  0  0  0  0  0  0  0  0  0  0
  1  2  1  0  0  0  0
  2  7  1  0  0  0  0
  2  3  2  0  0  0  0
  3  8  1  0  0  0  0
  4  3  1  0  0  0  0
  5  4  2  0  0  0  0
  6  1  2  0  0  0  0
  6  5  1  0  0  0  0
  9  5  1  0  0  0  0
  9 10  1  0  0  0  0
 10 11  1  0  0  0  0
 12 10  2  0  0  0  0
 13 12  1  0  0  0  0
 14 20  1  0  0  0  0
 14 13  2  0  0  0  0
 15 14  1  0  0  0  0
 16 15  2  0  0  0  0
 16 18  1  0  0  0  0
 17 16  1  0  0  0  0
 18 19  2  0  0  0  0
 19 13  1  0  0  0  0
 19  9  1  0  0  0  0
 20 22  1  0  0  0  0
 21 20  1  0  0  0  0
 23  1  1  0  0  0  0
 25 24  2  6  0  0  0
 25 28  1  0  0  0  0
 25 23  1  0  0  0  0
 25 26  1  0  0  0  0
 26 27  1  0  0  0  0
 28 30  1  0  0  0  0
 29 34  1  0  0  0  0
 29 37  1  0  0  0  0
 30 29  2  0  0  0  0
 31 32  2  0  0  0  0
 31 30  1  0  0  0  0
 32 33  1  0  0  0  0
 33 36  1  0  0  0  0
 33 34  2  0  0  0  0
 35 31  1  0  0  0  0
 37 38  1  0  0  0  0
 37 40  1  0  0  0  0
 39 37  1  0  0  0  0
 40 42  1  0  0  0  0
 41 40  1  0  0  0  0
 43 40  1  0  0  0  0
M  END
>  <minimizedAffinity>
-6.28248215

$$$$

 OpenBabel03252500593D

 43 46  0  0  0  0  0  0  0  0999 V2000
   37.3920   30.8310   40.2650 C   0  0  0  0  0  0  0  0  0  0  0  0
   36.8890   30.7230   38.9720 C   0  0  0  0  0  0  0  0  0  0  0  0
   36.7580   29.5000   38.3300 C   0  0  0  0  0  0  0  0  0  0  0  0
   37.1460   28.3790   39.0180 N   0  0  0  0  0  0  0  0  0  0  0  0
   37.6240   28.4970   40.2520 C   0  0  0  0  0  0  0  0  0  0  0  0
   37.7490   29.6700   40.8650 N   0  0  0  0  0  0  0  0  0  0  0  0
   36.5860   31.6330   38.4450 H   0  0  0  0  0  0  0  0  0  0  0  0
   36.3680   29.4470   37.3370 H   0  0  0  0  0  0  0  0  0  0  0  0
   38.0040   27.2870   40.8970 N   0  0  0  0  0  0  0  0  0  0  0  0
   37.4300   26.1380   40.4620 C   0  0  0  0  0  0  0  0  0  0  0  0
   36.6910   25.9110   39.6770 H   0  0  0  0  0  0  0  0  0  0  0  0
   37.9280   25.1100   41.2070 N   0  0  0  0  0  0  0  0  0  0  0  0
   38.7980   25.6100   42.0900 C   0  0  0  0  0  0  0  0  0  0  0  0
   39.6100   25.0870   43.0930 C   0  0  0  0  0  0  0  0  0  0  0  0
   40.3970   25.9210   43.8240 N   0  0  0  0  0  0  0  0  0  0  0  0
   40.3810   27.2550   43.5640 C   0  0  0  0  0  0  0  0  0  0  0  0
   41.0450   27.8600   44.1970 H   0  0  0  0  0  0  0  0  0  0  0  0
   39.6070   27.8190   42.5940 N   0  0  0  0  0  0  0  0  0  0  0  0
   38.8400   26.9720   41.8910 C   0  0  0  0  0  0  0  0  0  0  0  0
   39.5580   23.6740   43.2920 N   0  0  0  0  0  0  0  0  0  0  0  0
   39.2380   23.3350   44.2470 H   0  0  0  0  0  0  0  0  0  0  0  0
   39.8020   22.9480   42.5920 H   0  0  0  0  0  0  0  0  0  0  0  0
   37.4840   32.1010   40.8200 O   0  0  0  0  0  0  0  0  0  0  0  0
   40.0600   32.1210   41.4390 O   0  0  0  0  0  0  0  0  0  0  0  0
   38.9600   32.9090   40.7300 P   0  0  2  0  0  0  0  0  0  0  0  0
   38.7700   34.3970   41.5190 O   0  0  0  0  0  0  0  0  0  0  0  0
   38.0140   34.8800   41.0810 H   0  0  0  0  0  0  0  0  0  0  0  0
   39.4450   33.2420   39.1350 O   0  0  0  0  0  0  0  0  0  0  0  0
   41.2060   32.2420   37.9480 C   0  0  0  0  0  0  0  0  0  0  0  0
   40.7410   33.3250   38.6640 C   0  0  0  0  0  0  0  0  0  0  0  0
   41.6140   34.4110   38.8510 C   0  0  0  0  0  0  0  0  0  0  0  0
   42.8530   34.3160   38.3150 N   0  0  0  0  0  0  0  0  0  0  0  0
   43.2750   33.2620   37.6310 C   0  0  0  0  0  0  0  0  0  0  0  0
   42.4500   32.2160   37.4430 N   0  0  0  0  0  0  0  0  0  0  0  0
   41.2270   35.2300   39.4050 H   0  0  0  0  0  0  0  0  0  0  0  0
   44.2670   33.1830   37.2000 H   0  0  0  0  0  0  0  0  0  0  0  0
   40.3530   31.0700   37.7100 C   0  0  0  0  0  0  0  0  0  0  0  0
   39.3170   31.3760   37.9890 H   0  0  0  0  0  0  0  0  0  0  0  0
   40.4070   30.6860   36.6690 H   0  0  0  0  0  0  0  0  0  0  0  0
   40.7650   29.9550   38.6270 C   0  0  0  0  0  0  0  0  0  0  0  0
   41.5580   30.2540   39.3600 H   0  0  0  0  0  0  0  0  0  0  0  0
   39.8680   29.5160   39.1380 H   0  0  0  0  0  0  0  0  0  0  0  0
   41.2190   29.0970   38.0690 H   0  0  0  0  0  0  0  0  0  0  0  0
  1 23  1  0  0  0  0
  1  6  1  0  0  0  0
  2  1  2  0  0  0  0
  3  2  1  0  0  0  0
  3  4  2  0  0  0  0
  4  5  1  0  0  0  0
  5  6  2  0  0  0  0
  5  9  1  0  0  0  0
  7  2  1  0  0  0  0
  8  3  1  0  0  0  0
  9 19  1  0  0  0  0
 10  9  1  0  0  0  0
 10 12  2  0  0  0  0
 11 10  1  0  0  0  0
 12 13  1  0  0  0  0
 13 14  1  0  0  0  0
 14 20  1  0  0  0  0
 14 15  2  0  0  0  0
 16 15  1  0  0  0  0
 16 17  1  0  0  0  0
 18 16  2  0  0  0  0
 19 13  2  0  0  0  0
 19 18  1  0  0  0  0
 20 21  1  0  0  0  0
 22 20  1  0  0  0  0
 25 23  1  0  0  0  0
 25 24  2  1  0  0  0
 25 26  1  0  0  0  0
 27 26  1  0  0  0  0
 28 25  1  0  0  0  0
 29 30  1  0  0  0  0
 30 31  2  0  0  0  0
 30 28  1  0  0  0  0
 31 35  1  0  0  0  0
 32 31  1  0  0  0  0
 33 32  2  0  0  0  0
 34 33  1  0  0  0  0
 34 29  2  0  0  0  0
 36 33  1  0  0  0  0
 37 29  1  0  0  0  0
 37 38  1  0  0  0  0
 37 40  1  0  0  0  0
 39 37  1  0  0  0  0
 40 42  1  0  0  0  0
 40 41  1  0  0  0  0
 43 40  1  0  0  0  0
M  END
>  <minimizedAffinity>
-6.23941517

$$$$

 OpenBabel03252500593D

 43 46  0  0  0  0  0  0  0  0999 V2000
   37.9770   30.1080   41.7790 C   0  0  0  0  0  0  0  0  0  0  0  0
   36.7140   29.9680   41.2150 C   0  0  0  0  0  0  0  0  0  0  0  0
   36.4120   30.4500   39.9490 C   0  0  0  0  0  0  0  0  0  0  0  0
   37.4140   31.0830   39.2580 N   0  0  0  0  0  0  0  0  0  0  0  0
   38.6150   31.2100   39.8090 C   0  0  0  0  0  0  0  0  0  0  0  0
   38.9020   30.7460   41.0220 N   0  0  0  0  0  0  0  0  0  0  0  0
   35.9320   29.4590   41.7870 H   0  0  0  0  0  0  0  0  0  0  0  0
   35.4330   30.3280   39.5410 H   0  0  0  0  0  0  0  0  0  0  0  0
   39.5980   31.8780   39.0270 N   0  0  0  0  0  0  0  0  0  0  0  0
   39.4260   31.8890   37.6820 C   0  0  0  0  0  0  0  0  0  0  0  0
   38.6550   31.4760   37.0140 H   0  0  0  0  0  0  0  0  0  0  0  0
   40.4700   32.5740   37.1300 N   0  0  0  0  0  0  0  0  0  0  0  0
   41.2760   32.9810   38.1160 C   0  0  0  0  0  0  0  0  0  0  0  0
   42.4660   33.7010   38.1940 C   0  0  0  0  0  0  0  0  0  0  0  0
   43.0290   33.9390   39.4090 N   0  0  0  0  0  0  0  0  0  0  0  0
   42.4210   33.4710   40.5310 C   0  0  0  0  0  0  0  0  0  0  0  0
   42.9380   33.7050   41.4720 H   0  0  0  0  0  0  0  0  0  0  0  0
   41.2570   32.7610   40.5110 N   0  0  0  0  0  0  0  0  0  0  0  0
   40.7260   32.5420   39.2980 C   0  0  0  0  0  0  0  0  0  0  0  0
   43.0290   34.1510   36.9610 N   0  0  0  0  0  0  0  0  0  0  0  0
   43.9990   33.7920   36.7170 H   0  0  0  0  0  0  0  0  0  0  0  0
   42.5800   34.7950   36.2830 H   0  0  0  0  0  0  0  0  0  0  0  0
   38.1790   29.5900   43.0520 O   0  0  0  0  0  0  0  0  0  0  0  0
   36.6660   27.9060   44.4300 O   0  0  0  0  0  0  0  0  0  0  0  0
   37.7370   27.9900   43.3440 P   0  0  2  0  0  0  0  0  0  0  0  0
   39.1210   27.1750   43.8890 O   0  0  0  0  0  0  0  0  0  0  0  0
   39.8300   27.2820   43.1950 H   0  0  0  0  0  0  0  0  0  0  0  0
   37.1910   27.1810   41.9510 O   0  0  0  0  0  0  0  0  0  0  0  0
   38.4340   25.9200   40.4120 C   0  0  0  0  0  0  0  0  0  0  0  0
   37.5940   25.9380   41.5050 C   0  0  0  0  0  0  0  0  0  0  0  0
   37.2220   24.7040   42.0670 C   0  0  0  0  0  0  0  0  0  0  0  0
   37.7170   23.5820   41.4940 N   0  0  0  0  0  0  0  0  0  0  0  0
   38.5230   23.5930   40.4420 C   0  0  0  0  0  0  0  0  0  0  0  0
   38.8880   24.7670   39.8940 N   0  0  0  0  0  0  0  0  0  0  0  0
   36.5750   24.7510   42.9070 H   0  0  0  0  0  0  0  0  0  0  0  0
   38.9220   22.6950   39.9810 H   0  0  0  0  0  0  0  0  0  0  0  0
   38.8670   27.1680   39.7690 C   0  0  0  0  0  0  0  0  0  0  0  0
   38.7060   27.0280   38.6750 H   0  0  0  0  0  0  0  0  0  0  0  0
   38.3440   28.0690   40.1550 H   0  0  0  0  0  0  0  0  0  0  0  0
   40.3380   27.3650   39.9970 C   0  0  0  0  0  0  0  0  0  0  0  0
   40.8260   26.5000   40.5150 H   0  0  0  0  0  0  0  0  0  0  0  0
   40.8530   27.6180   39.0320 H   0  0  0  0  0  0  0  0  0  0  0  0
   40.5480   28.2380   40.6650 H   0  0  0  0  0  0  0  0  0  0  0  0
  1 23  1  0  0  0  0
  2  1  1  0  0  0  0
  2  7  1  0  0  0  0
  3  2  2  0  0  0  0
  4  5  2  0  0  0  0
  4  3  1  0  0  0  0
  5  6  1  0  0  0  0
  6  1  2  0  0  0  0
  8  3  1  0  0  0  0
  9 19  1  0  0  0  0
  9  5  1  0  0  0  0
 10  9  1  0  0  0  0
 11 10  1  0  0  0  0
 12 10  2  0  0  0  0
 12 13  1  0  0  0  0
 13 14  2  0  0  0  0
 13 19  1  0  0  0  0
 14 15  1  0  0  0  0
 15 16  2  0  0  0  0
 16 17  1  0  0  0  0
 18 16  1  0  0  0  0
 19 18  2  0  0  0  0
 20 14  1  0  0  0  0
 21 20  1  0  0  0  0
 22 20  1  0  0  0  0
 23 25  1  0  0  0  0
 25 26  1  0  0  0  0
 25 24  2  1  0  0  0
 27 26  1  0  0  0  0
 28 25  1  0  0  0  0
 29 30  1  0  0  0  0
 30 28  1  0  0  0  0
 30 31  2  0  0  0  0
 31 35  1  0  0  0  0
 32 31  1  0  0  0  0
 33 32  2  0  0  0  0
 34 29  2  0  0  0  0
 34 33  1  0  0  0  0
 36 33  1  0  0  0  0
 37 40  1  0  0  0  0
 37 39  1  0  0  0  0
 37 29  1  0  0  0  0
 38 37  1  0  0  0  0
 40 41  1  0  0  0  0
 40 43  1  0  0  0  0
 42 40  1  0  0  0  0
M  END
>  <minimizedAffinity>
-6.17442608

$$$$
