
 OpenBabel03252501123D

 21 22  0  0  0  0  0  0  0  0999 V2000
   36.9460   27.2710   42.5790 C   0  0  0  0  0  0  0  0  0  0  0  0
   36.2330   27.4080   43.6240 O   0  0  0  0  0  0  0  0  0  0  0  0
   39.3980   29.0580   42.9300 Cl  0  0  0  0  0  0  0  0  0  0  0  0
   37.9890   29.4330   41.9500 C   0  0  0  0  0  0  0  0  0  0  0  0
   36.9260   28.5470   41.8600 C   0  0  0  0  0  0  0  0  0  0  0  0
   35.8830   28.9700   41.0540 C   0  0  0  0  0  0  0  0  0  0  0  0
   35.0200   28.3090   40.9470 H   0  0  0  0  0  0  0  0  0  0  0  0
   35.9120   30.1830   40.3960 C   0  0  0  0  0  3  0  0  0  0  0  0
   36.9820   31.0270   40.5140 C   0  0  0  0  0  0  0  0  0  0  0  0
   36.9490   32.5550   39.6480 Cl  0  0  0  0  0  0  0  0  0  0  0  0
   38.0350   30.6490   41.3000 C   0  0  0  0  0  0  0  0  0  0  0  0
   38.8730   31.3290   41.3820 H   0  0  0  0  0  0  0  0  0  0  0  0
   37.5500   24.0060   40.9550 C   0  0  0  0  0  0  0  0  0  0  0  0
   36.9490   25.2250   41.3180 C   0  0  0  0  0  0  0  0  0  0  0  0
   37.6110   26.0410   42.2510 C   0  0  0  0  0  0  0  0  0  0  0  0
   38.7910   25.5850   42.7330 N   0  0  0  0  0  0  0  0  0  0  0  0
   39.3460   24.4190   42.3740 C   0  0  0  0  0  0  0  0  0  0  0  0
   38.7170   23.6120   41.4680 N   0  0  0  0  0  0  0  0  0  0  0  0
   37.0310   23.3900   40.2390 H   0  0  0  0  0  0  0  0  0  0  0  0
   36.0060   25.4740   40.8610 H   0  0  0  0  0  0  0  0  0  0  0  0
   40.3020   24.1440   42.8240 H   0  0  0  0  0  0  0  0  0  0  0  0
  1  2  2  0  0  0  0
  4  3  1  0  0  0  0
  5  4  1  0  0  0  0
  5  1  1  0  0  0  0
  6  5  2  0  0  0  0
  7  6  1  0  0  0  0
  8  9  2  0  0  0  0
  8  6  1  0  0  0  0
  9 11  1  0  0  0  0
 10  9  1  0  0  0  0
 11 12  1  0  0  0  0
 11  4  2  0  0  0  0
 13 14  2  0  0  0  0
 13 18  1  0  0  0  0
 14 15  1  0  0  0  0
 15  1  1  0  0  0  0
 15 16  2  0  0  0  0
 17 16  1  0  0  0  0
 17 21  1  0  0  0  0
 18 17  2  0  0  0  0
 19 13  1  0  0  0  0
 20 14  1  0  0  0  0
M  END
>  <minimizedAffinity>
-4.8500371

$$$$

 OpenBabel03252501123D

 21 22  0  0  0  0  0  0  0  0999 V2000
   36.3920   29.0370   40.8980 C   0  0  0  0  0  0  0  0  0  0  0  0
   35.1270   29.1530   40.8120 O   0  0  0  0  0  0  0  0  0  0  0  0
   36.8400   27.7740   43.6420 Cl  0  0  0  0  0  0  0  0  0  0  0  0
   36.9260   26.9350   42.1020 C   0  0  0  0  0  0  0  0  0  0  0  0
   36.7040   27.6060   40.9100 C   0  0  0  0  0  0  0  0  0  0  0  0
   36.8040   26.8220   39.7730 C   0  0  0  0  0  0  0  0  0  0  0  0
   36.6380   27.3020   38.8060 H   0  0  0  0  0  0  0  0  0  0  0  0
   37.1010   25.4760   39.8360 C   0  0  0  0  0  3  0  0  0  0  0  0
   37.3130   24.8530   41.0370 C   0  0  0  0  0  0  0  0  0  0  0  0
   37.6860   23.1370   41.0400 Cl  0  0  0  0  0  0  0  0  0  0  0  0
   37.2250   25.5900   42.1840 C   0  0  0  0  0  0  0  0  0  0  0  0
   37.3940   25.0810   43.1250 H   0  0  0  0  0  0  0  0  0  0  0  0
   37.6110   32.4880   40.3830 C   0  0  0  0  0  0  0  0  0  0  0  0
   36.7970   31.3420   40.3510 C   0  0  0  0  0  0  0  0  0  0  0  0
   37.2710   30.1710   40.9660 C   0  0  0  0  0  0  0  0  0  0  0  0
   38.4900   30.2380   41.5490 N   0  0  0  0  0  0  0  0  0  0  0  0
   39.2510   31.3410   41.5670 C   0  0  0  0  0  0  0  0  0  0  0  0
   38.8070   32.4890   40.9760 N   0  0  0  0  0  0  0  0  0  0  0  0
   37.2350   33.3790   39.9080 H   0  0  0  0  0  0  0  0  0  0  0  0
   35.8440   31.4180   39.8540 H   0  0  0  0  0  0  0  0  0  0  0  0
   40.2220   31.2880   42.0660 H   0  0  0  0  0  0  0  0  0  0  0  0
  1  5  1  0  0  0  0
  1 15  1  0  0  0  0
  2  1  2  0  0  0  0
  4 11  1  0  0  0  0
  4  3  1  0  0  0  0
  5  4  2  0  0  0  0
  6  8  2  0  0  0  0
  6  5  1  0  0  0  0
  7  6  1  0  0  0  0
  8  9  1  0  0  0  0
  9 10  1  0  0  0  0
  9 11  2  0  0  0  0
 11 12  1  0  0  0  0
 13 18  1  0  0  0  0
 14 13  2  0  0  0  0
 14 15  1  0  0  0  0
 15 16  2  0  0  0  0
 16 17  1  0  0  0  0
 17 21  1  0  0  0  0
 18 17  2  0  0  0  0
 19 13  1  0  0  0  0
 20 14  1  0  0  0  0
M  END
>  <minimizedAffinity>
-4.80192423

$$$$

 OpenBabel03252501123D

 21 22  0  0  0  0  0  0  0  0999 V2000
   35.7380   29.2930   40.2010 C   0  0  0  0  0  0  0  0  0  0  0  0
   34.4680   29.2100   40.2260 O   0  0  0  0  0  0  0  0  0  0  0  0
   36.2100   27.0350   38.2000 Cl  0  0  0  0  0  0  0  0  0  0  0  0
   36.5240   26.9550   39.9250 C   0  0  0  0  0  0  0  0  0  0  0  0
   36.2730   28.0430   40.7470 C   0  0  0  0  0  0  0  0  0  0  0  0
   36.5650   27.8410   42.0850 C   0  0  0  0  0  0  0  0  0  0  0  0
   36.3860   28.6670   42.7770 H   0  0  0  0  0  0  0  0  0  0  0  0
   37.0680   26.6430   42.5520 C   0  0  0  0  0  3  0  0  0  0  0  0
   37.3000   25.5950   41.7040 C   0  0  0  0  0  0  0  0  0  0  0  0
   37.9410   24.1000   42.3690 Cl  0  0  0  0  0  0  0  0  0  0  0  0
   37.0250   25.7510   40.3740 C   0  0  0  0  0  0  0  0  0  0  0  0
   37.2160   24.9120   39.7180 H   0  0  0  0  0  0  0  0  0  0  0  0
   37.4720   32.5570   40.2550 C   0  0  0  0  0  0  0  0  0  0  0  0
   36.7910   31.4010   40.6760 C   0  0  0  0  0  0  0  0  0  0  0  0
   36.4300   30.4490   39.7060 C   0  0  0  0  0  0  0  0  0  0  0  0
   36.7710   30.7240   38.4260 N   0  0  0  0  0  0  0  0  0  0  0  0
   37.4200   31.8330   38.0450 C   0  0  0  0  0  0  0  0  0  0  0  0
   37.7790   32.7690   38.9730 N   0  0  0  0  0  0  0  0  0  0  0  0
   37.7410   33.2780   41.0080 H   0  0  0  0  0  0  0  0  0  0  0  0
   36.5780   31.3000   41.7270 H   0  0  0  0  0  0  0  0  0  0  0  0
   37.6470   31.9580   36.9840 H   0  0  0  0  0  0  0  0  0  0  0  0
  1  2  2  0  0  0  0
  1  5  1  0  0  0  0
  3  4  1  0  0  0  0
  4 11  2  0  0  0  0
  4  5  1  0  0  0  0
  5  6  2  0  0  0  0
  6  8  1  0  0  0  0
  6  7  1  0  0  0  0
  9 10  1  0  0  0  0
  9  8  2  0  0  0  0
 11  9  1  0  0  0  0
 12 11  1  0  0  0  0
 13 14  1  0  0  0  0
 13 19  1  0  0  0  0
 14 20  1  0  0  0  0
 15  1  1  0  0  0  0
 15 14  2  0  0  0  0
 16 15  1  0  0  0  0
 17 16  2  0  0  0  0
 17 18  1  0  0  0  0
 18 13  2  0  0  0  0
 21 17  1  0  0  0  0
M  END
>  <minimizedAffinity>
-4.73986053

$$$$

 OpenBabel03252501123D

 21 22  0  0  0  0  0  0  0  0999 V2000
   36.3640   29.9210   40.9340 C   0  0  0  0  0  0  0  0  0  0  0  0
   36.0750   31.1300   41.2070 O   0  0  0  0  0  0  0  0  0  0  0  0
   38.0820   30.3110   38.4390 Cl  0  0  0  0  0  0  0  0  0  0  0  0
   36.4240   29.7350   38.4610 C   0  0  0  0  0  0  0  0  0  0  0  0
   35.7320   29.5940   39.6540 C   0  0  0  0  0  0  0  0  0  0  0  0
   34.4340   29.1320   39.5230 C   0  0  0  0  0  0  0  0  0  0  0  0
   33.8440   29.0010   40.4330 H   0  0  0  0  0  0  0  0  0  0  0  0
   33.8820   28.8360   38.2920 C   0  0  0  0  0  3  0  0  0  0  0  0
   34.6020   28.9910   37.1390 C   0  0  0  0  0  0  0  0  0  0  0  0
   33.8350   28.5950   35.6090 Cl  0  0  0  0  0  0  0  0  0  0  0  0
   35.8880   29.4460   37.2220 C   0  0  0  0  0  0  0  0  0  0  0  0
   36.4430   29.5610   36.3000 H   0  0  0  0  0  0  0  0  0  0  0  0
   37.3260   27.0600   43.0670 C   0  0  0  0  0  0  0  0  0  0  0  0
   36.5830   27.9040   42.2220 C   0  0  0  0  0  0  0  0  0  0  0  0
   37.1740   29.1050   41.7940 C   0  0  0  0  0  0  0  0  0  0  0  0
   38.4290   29.3590   42.2340 N   0  0  0  0  0  0  0  0  0  0  0  0
   39.1190   28.5400   43.0400 C   0  0  0  0  0  0  0  0  0  0  0  0
   38.5620   27.3680   43.4660 N   0  0  0  0  0  0  0  0  0  0  0  0
   36.8610   26.1420   43.3870 H   0  0  0  0  0  0  0  0  0  0  0  0
   35.5920   27.5870   41.9420 H   0  0  0  0  0  0  0  0  0  0  0  0
   40.1270   28.8400   43.3370 H   0  0  0  0  0  0  0  0  0  0  0  0
  1  2  2  0  0  0  0
  1 15  1  0  0  0  0
  3  4  1  0  0  0  0
  4  5  1  0  0  0  0
  5  1  1  0  0  0  0
  6  5  2  0  0  0  0
  6  7  1  0  0  0  0
  8  6  1  0  0  0  0
  9 11  1  0  0  0  0
  9  8  2  0  0  0  0
 10  9  1  0  0  0  0
 11  4  2  0  0  0  0
 12 11  1  0  0  0  0
 13 19  1  0  0  0  0
 13 18  1  0  0  0  0
 14 13  2  0  0  0  0
 15 14  1  0  0  0  0
 15 16  2  0  0  0  0
 16 17  1  0  0  0  0
 17 21  1  0  0  0  0
 17 18  2  0  0  0  0
 20 14  1  0  0  0  0
M  END
>  <minimizedAffinity>
-4.62291193

$$$$

 OpenBabel03252501123D

 21 22  0  0  0  0  0  0  0  0999 V2000
   37.1260   30.4270   41.1790 C   0  0  0  0  0  0  0  0  0  0  0  0
   35.9160   30.8170   41.1130 O   0  0  0  0  0  0  0  0  0  0  0  0
   37.1450   28.6010   38.7310 Cl  0  0  0  0  0  0  0  0  0  0  0  0
   37.1200   28.0700   40.4040 C   0  0  0  0  0  0  0  0  0  0  0  0
   37.1130   28.9870   41.4450 C   0  0  0  0  0  0  0  0  0  0  0  0
   37.0920   28.4290   42.7120 C   0  0  0  0  0  0  0  0  0  0  0  0
   37.0870   29.1070   43.5680 H   0  0  0  0  0  0  0  0  0  0  0  0
   37.0800   27.0630   42.9100 C   0  0  0  0  0  3  0  0  0  0  0  0
   37.0880   26.1940   41.8530 C   0  0  0  0  0  0  0  0  0  0  0  0
   37.0720   24.4690   42.1820 Cl  0  0  0  0  0  0  0  0  0  0  0  0
   37.1080   26.7020   40.5840 C   0  0  0  0  0  0  0  0  0  0  0  0
   37.1140   26.0000   39.7600 H   0  0  0  0  0  0  0  0  0  0  0  0
   38.9770   33.4880   40.2490 C   0  0  0  0  0  0  0  0  0  0  0  0
   37.9310   32.5680   40.4400 C   0  0  0  0  0  0  0  0  0  0  0  0
   38.2380   31.3200   41.0100 C   0  0  0  0  0  0  0  0  0  0  0  0
   39.5330   31.1000   41.3350 N   0  0  0  0  0  0  0  0  0  0  0  0
   40.5160   31.9910   41.1430 C   0  0  0  0  0  0  0  0  0  0  0  0
   40.2370   33.2090   40.5910 N   0  0  0  0  0  0  0  0  0  0  0  0
   38.7280   34.4400   39.8100 H   0  0  0  0  0  0  0  0  0  0  0  0
   36.9410   32.8650   40.1390 H   0  0  0  0  0  0  0  0  0  0  0  0
   41.5290   31.7120   41.4410 H   0  0  0  0  0  0  0  0  0  0  0  0
  1  5  1  0  0  0  0
  2  1  2  0  0  0  0
  3  4  1  0  0  0  0
  4 11  2  0  0  0  0
  4  5  1  0  0  0  0
  5  6  2  0  0  0  0
  6  8  1  0  0  0  0
  6  7  1  0  0  0  0
  9 10  1  0  0  0  0
  9  8  2  0  0  0  0
 11  9  1  0  0  0  0
 12 11  1  0  0  0  0
 13 14  2  0  0  0  0
 13 18  1  0  0  0  0
 14 15  1  0  0  0  0
 15  1  1  0  0  0  0
 15 16  2  0  0  0  0
 17 16  1  0  0  0  0
 17 21  1  0  0  0  0
 18 17  2  0  0  0  0
 19 13  1  0  0  0  0
 20 14  1  0  0  0  0
M  END
>  <minimizedAffinity>
-4.61199141

$$$$

 OpenBabel03252501123D

 21 22  0  0  0  0  0  0  0  0999 V2000
   37.6070   28.2540   42.5200 C   0  0  0  0  0  0  0  0  0  0  0  0
   37.0970   28.4350   43.6720 O   0  0  0  0  0  0  0  0  0  0  0  0
   35.1820   28.9550   40.8010 Cl  0  0  0  0  0  0  0  0  0  0  0  0
   36.5950   29.9690   41.0400 C   0  0  0  0  0  0  0  0  0  0  0  0
   37.6450   29.5530   41.8440 C   0  0  0  0  0  0  0  0  0  0  0  0
   38.6940   30.4500   41.9430 C   0  0  0  0  0  0  0  0  0  0  0  0
   39.5470   30.1720   42.5650 H   0  0  0  0  0  0  0  0  0  0  0  0
   38.6830   31.6640   41.2860 C   0  0  0  0  0  3  0  0  0  0  0  0
   37.6250   32.0340   40.5010 C   0  0  0  0  0  0  0  0  0  0  0  0
   37.6810   33.5950   39.6950 Cl  0  0  0  0  0  0  0  0  0  0  0  0
   36.5680   31.1780   40.3750 C   0  0  0  0  0  0  0  0  0  0  0  0
   35.7390   31.4870   39.7510 H   0  0  0  0  0  0  0  0  0  0  0  0
   37.5430   24.6040   41.9380 C   0  0  0  0  0  0  0  0  0  0  0  0
   37.1780   25.8940   42.3640 C   0  0  0  0  0  0  0  0  0  0  0  0
   38.0370   26.9640   42.0580 C   0  0  0  0  0  0  0  0  0  0  0  0
   39.1620   26.6650   41.3680 N   0  0  0  0  0  0  0  0  0  0  0  0
   39.4920   25.4280   40.9720 C   0  0  0  0  0  0  0  0  0  0  0  0
   38.6700   24.3760   41.2600 N   0  0  0  0  0  0  0  0  0  0  0  0
   36.8760   23.7930   42.1800 H   0  0  0  0  0  0  0  0  0  0  0  0
   36.2540   26.0000   42.9070 H   0  0  0  0  0  0  0  0  0  0  0  0
   40.4250   25.2960   40.4200 H   0  0  0  0  0  0  0  0  0  0  0  0
  1  2  2  0  0  0  0
  3  4  1  0  0  0  0
  4  5  1  0  0  0  0
  5  6  2  0  0  0  0
  5  1  1  0  0  0  0
  6  7  1  0  0  0  0
  8  6  1  0  0  0  0
  9  8  2  0  0  0  0
 10  9  1  0  0  0  0
 11  9  1  0  0  0  0
 11  4  2  0  0  0  0
 12 11  1  0  0  0  0
 13 19  1  0  0  0  0
 13 14  1  0  0  0  0
 14 20  1  0  0  0  0
 15 14  2  0  0  0  0
 15  1  1  0  0  0  0
 16 15  1  0  0  0  0
 17 18  1  0  0  0  0
 17 16  2  0  0  0  0
 18 13  2  0  0  0  0
 21 17  1  0  0  0  0
M  END
>  <minimizedAffinity>
-4.6103816

$$$$

 OpenBabel03252501123D

 21 22  0  0  0  0  0  0  0  0999 V2000
   38.8940   30.3650   42.0090 C   0  0  0  0  0  0  0  0  0  0  0  0
   39.8610   30.4520   42.8320 O   0  0  0  0  0  0  0  0  0  0  0  0
   40.0550   28.3230   40.0580 Cl  0  0  0  0  0  0  0  0  0  0  0  0
   38.8160   28.0010   41.2600 C   0  0  0  0  0  0  0  0  0  0  0  0
   38.3580   29.0050   42.0990 C   0  0  0  0  0  0  0  0  0  0  0  0
   37.3810   28.6110   42.9980 C   0  0  0  0  0  0  0  0  0  0  0  0
   36.9860   29.3630   43.6840 H   0  0  0  0  0  0  0  0  0  0  0  0
   36.9080   27.3150   43.0440 C   0  0  0  0  0  3  0  0  0  0  0  0
   37.3890   26.3560   42.1950 C   0  0  0  0  0  0  0  0  0  0  0  0
   36.7400   24.7270   42.3110 Cl  0  0  0  0  0  0  0  0  0  0  0  0
   38.3550   26.7010   41.2910 C   0  0  0  0  0  0  0  0  0  0  0  0
   38.7240   25.9290   40.6280 H   0  0  0  0  0  0  0  0  0  0  0  0
   36.9670   32.2260   39.4640 C   0  0  0  0  0  0  0  0  0  0  0  0
   37.4210   31.1910   40.2990 C   0  0  0  0  0  0  0  0  0  0  0  0
   38.4780   31.4640   41.1840 C   0  0  0  0  0  0  0  0  0  0  0  0
   38.9830   32.7190   41.1620 N   0  0  0  0  0  0  0  0  0  0  0  0
   38.5360   33.6920   40.3560 C   0  0  0  0  0  0  0  0  0  0  0  0
   37.5090   33.4460   39.4900 N   0  0  0  0  0  0  0  0  0  0  0  0
   36.1560   32.0030   38.7900 H   0  0  0  0  0  0  0  0  0  0  0  0
   36.9330   30.2330   40.2210 H   0  0  0  0  0  0  0  0  0  0  0  0
   39.0150   34.6720   40.4180 H   0  0  0  0  0  0  0  0  0  0  0  0
  1  5  1  0  0  0  0
  1  2  2  0  0  0  0
  3  4  1  0  0  0  0
  4 11  2  0  0  0  0
  4  5  1  0  0  0  0
  5  6  2  0  0  0  0
  6  8  1  0  0  0  0
  6  7  1  0  0  0  0
  9 10  1  0  0  0  0
  9  8  2  0  0  0  0
 11  9  1  0  0  0  0
 12 11  1  0  0  0  0
 13 18  2  0  0  0  0
 13 14  1  0  0  0  0
 14 15  2  0  0  0  0
 15  1  1  0  0  0  0
 16 15  1  0  0  0  0
 17 21  1  0  0  0  0
 17 16  2  0  0  0  0
 18 17  1  0  0  0  0
 19 13  1  0  0  0  0
 20 14  1  0  0  0  0
M  END
>  <minimizedAffinity>
-4.59008694

$$$$

 OpenBabel03252501123D

 21 22  0  0  0  0  0  0  0  0999 V2000
   38.6560   28.5980   42.2450 C   0  0  0  0  0  0  0  0  0  0  0  0
   39.3890   28.5840   43.2850 O   0  0  0  0  0  0  0  0  0  0  0  0
   36.3270   27.1890   43.6300 Cl  0  0  0  0  0  0  0  0  0  0  0  0
   37.3830   26.4760   42.4220 C   0  0  0  0  0  0  0  0  0  0  0  0
   38.4150   27.2070   41.8540 C   0  0  0  0  0  0  0  0  0  0  0  0
   39.1680   26.5210   40.9170 C   0  0  0  0  0  0  0  0  0  0  0  0
   39.9940   27.0510   40.4380 H   0  0  0  0  0  0  0  0  0  0  0  0
   38.9010   25.2090   40.5830 C   0  0  0  0  0  3  0  0  0  0  0  0
   37.8710   24.5240   41.1690 C   0  0  0  0  0  0  0  0  0  0  0  0
   37.5910   22.8560   40.6940 Cl  0  0  0  0  0  0  0  0  0  0  0  0
   37.1020   25.1640   42.1000 C   0  0  0  0  0  0  0  0  0  0  0  0
   36.2920   24.6080   42.5530 H   0  0  0  0  0  0  0  0  0  0  0  0
   36.3090   31.0460   40.7740 C   0  0  0  0  0  0  0  0  0  0  0  0
   36.8200   29.8790   41.3690 C   0  0  0  0  0  0  0  0  0  0  0  0
   38.1980   29.8160   41.6370 C   0  0  0  0  0  0  0  0  0  0  0  0
   38.9360   30.8990   41.2970 N   0  0  0  0  0  0  0  0  0  0  0  0
   38.4290   32.0020   40.7290 C   0  0  0  0  0  0  0  0  0  0  0  0
   37.0920   32.0820   40.4620 N   0  0  0  0  0  0  0  0  0  0  0  0
   35.2510   31.0810   40.5740 H   0  0  0  0  0  0  0  0  0  0  0  0
   36.1270   29.0850   41.5920 H   0  0  0  0  0  0  0  0  0  0  0  0
   39.1130   32.8210   40.4940 H   0  0  0  0  0  0  0  0  0  0  0  0
  1  2  2  0  0  0  0
  4  3  1  0  0  0  0
  5  1  1  0  0  0  0
  5  4  2  0  0  0  0
  6  5  1  0  0  0  0
  7  6  1  0  0  0  0
  8  6  2  0  0  0  0
  8  9  1  0  0  0  0
  9 11  2  0  0  0  0
 10  9  1  0  0  0  0
 11  4  1  0  0  0  0
 11 12  1  0  0  0  0
 13 14  1  0  0  0  0
 14 20  1  0  0  0  0
 14 15  2  0  0  0  0
 15  1  1  0  0  0  0
 16 15  1  0  0  0  0
 17 16  2  0  0  0  0
 18 17  1  0  0  0  0
 18 13  2  0  0  0  0
 19 13  1  0  0  0  0
 21 17  1  0  0  0  0
M  END
>  <minimizedAffinity>
-4.57689953

$$$$

 OpenBabel03252501123D

 21 22  0  0  0  0  0  0  0  0999 V2000
   37.0860   27.6330   42.5580 C   0  0  0  0  0  0  0  0  0  0  0  0
   36.4840   27.4580   43.6660 O   0  0  0  0  0  0  0  0  0  0  0  0
   39.5690   26.2550   43.6800 Cl  0  0  0  0  0  0  0  0  0  0  0  0
   38.5020   25.5990   42.4500 C   0  0  0  0  0  0  0  0  0  0  0  0
   37.3970   26.3110   42.0100 C   0  0  0  0  0  0  0  0  0  0  0  0
   36.6440   25.6750   41.0380 C   0  0  0  0  0  0  0  0  0  0  0  0
   35.7610   26.1920   40.6560 H   0  0  0  0  0  0  0  0  0  0  0  0
   36.9780   24.4260   40.5530 C   0  0  0  0  0  3  0  0  0  0  0  0
   38.0800   23.7590   41.0160 C   0  0  0  0  0  0  0  0  0  0  0  0
   38.4440   22.1730   40.3530 Cl  0  0  0  0  0  0  0  0  0  0  0  0
   38.8520   24.3510   41.9760 C   0  0  0  0  0  0  0  0  0  0  0  0
   39.7180   23.8090   42.3320 H   0  0  0  0  0  0  0  0  0  0  0  0
   38.9870   30.7060   41.7840 C   0  0  0  0  0  0  0  0  0  0  0  0
   38.6530   29.4340   42.2800 C   0  0  0  0  0  0  0  0  0  0  0  0
   37.3630   28.9370   42.0250 C   0  0  0  0  0  0  0  0  0  0  0  0
   36.5330   29.7340   41.3120 N   0  0  0  0  0  0  0  0  0  0  0  0
   36.8710   30.9450   40.8490 C   0  0  0  0  0  0  0  0  0  0  0  0
   38.1200   31.4440   41.0870 N   0  0  0  0  0  0  0  0  0  0  0  0
   39.9790   31.0750   41.9870 H   0  0  0  0  0  0  0  0  0  0  0  0
   39.4060   28.8980   42.8340 H   0  0  0  0  0  0  0  0  0  0  0  0
   36.1240   31.5070   40.2840 H   0  0  0  0  0  0  0  0  0  0  0  0
  1  2  2  0  0  0  0
  4  3  1  0  0  0  0
  5  4  1  0  0  0  0
  5  1  1  0  0  0  0
  6  5  2  0  0  0  0
  7  6  1  0  0  0  0
  8  9  2  0  0  0  0
  8  6  1  0  0  0  0
  9 11  1  0  0  0  0
 10  9  1  0  0  0  0
 11 12  1  0  0  0  0
 11  4  2  0  0  0  0
 13 19  1  0  0  0  0
 13 14  1  0  0  0  0
 14 20  1  0  0  0  0
 15 14  2  0  0  0  0
 15  1  1  0  0  0  0
 16 15  1  0  0  0  0
 17 18  1  0  0  0  0
 17 16  2  0  0  0  0
 18 13  2  0  0  0  0
 21 17  1  0  0  0  0
M  END
>  <minimizedAffinity>
-4.5716238

$$$$
