
 OpenBabel03242515113D

 37 39  0  0  0  0  0  0  0  0999 V2000
   36.6160   30.4860   39.2780 C   0  0  0  0  0  0  0  0  0  0  0  0
   36.3930   30.3480   37.9350 C   0  0  0  0  0  0  0  0  0  0  0  0
   35.5960   29.3840   37.3580 C   0  0  0  0  0  0  0  0  0  0  0  0
   34.9660   28.4840   38.1770 C   0  0  0  0  0  0  0  0  0  0  0  0
   35.1570   28.5820   39.5260 C   0  0  0  0  0  0  0  0  0  0  0  0
   35.9740   29.5720   40.0780 C   0  0  0  0  0  0  0  0  0  0  0  0
   36.8870   31.0560   37.2620 H   0  0  0  0  0  0  0  0  0  0  0  0
   35.4370   29.2970   36.2900 H   0  0  0  0  0  0  0  0  0  0  0  0
   34.3360   27.7190   37.7420 H   0  0  0  0  0  0  0  0  0  0  0  0
   34.6380   27.8480   40.1320 H   0  0  0  0  0  0  0  0  0  0  0  0
   37.9890   33.8050   39.9410 C   0  0  0  0  0  0  0  0  0  0  0  0
   39.0360   33.5480   40.8340 C   0  0  0  0  0  0  0  0  0  0  0  0
   39.2580   32.2300   41.1990 C   0  0  0  0  0  0  0  0  0  0  0  0
   38.4810   31.2340   40.7010 N   0  0  0  0  0  0  0  0  0  0  0  0
   37.4670   31.5220   39.8300 C   0  0  0  0  0  0  0  0  0  0  0  0
   37.2510   32.8040   39.4750 N   0  0  0  0  0  0  0  0  0  0  0  0
   37.7510   34.8150   39.6050 H   0  0  0  0  0  0  0  0  0  0  0  0
   39.6000   34.4070   41.1760 H   0  0  0  0  0  0  0  0  0  0  0  0
   40.0690   32.0400   41.8880 H   0  0  0  0  0  0  0  0  0  0  0  0
   36.0610   29.5310   41.4890 N   0  0  0  0  0  0  0  0  0  0  0  0
   35.3820   30.2070   41.9190 H   0  0  0  0  0  0  0  0  0  0  0  0
   37.0270   28.6220   42.5710 S   0  0  0  0  0  0  0  0  0  0  0  0
   37.7840   29.5970   43.4590 O   0  0  0  0  0  0  0  0  0  0  0  0
   38.5740   29.3760   43.9930 H   0  0  0  0  0  0  0  0  0  0  0  0
   36.2600   27.6810   43.4330 O   0  0  0  0  0  0  0  0  0  0  0  0
   35.7120   26.9670   43.0290 H   0  0  0  0  0  0  0  0  0  0  0  0
   38.1960   27.8560   41.6260 O   0  0  0  0  0  0  0  0  0  0  0  0
   39.6100   26.1430   43.6800 Cl  0  0  0  0  0  0  0  0  0  0  0  0
   38.7710   25.5220   42.2830 C   0  0  0  0  0  0  0  0  0  0  0  0
   38.2000   26.4750   41.4830 C   0  0  0  0  0  0  0  0  0  0  0  0
   37.5090   26.0730   40.3440 C   0  0  0  0  0  0  0  0  0  0  0  0
   37.0170   26.7320   39.6360 H   0  0  0  0  0  0  0  0  0  0  0  0
   37.3980   24.7300   40.0200 C   0  0  0  0  0  3  0  0  0  0  0  0
   37.9740   23.7620   40.8270 C   0  0  0  0  0  0  0  0  0  0  0  0
   37.8550   22.0520   40.4520 Cl  0  0  0  0  0  0  0  0  0  0  0  0
   38.6520   24.1870   41.9470 C   0  0  0  0  0  0  0  0  0  0  0  0
   39.1190   23.4780   42.6100 H   0  0  0  0  0  0  0  0  0  0  0  0
  1 15  1  0  0  0  0
  1  6  1  0  0  0  0
  2  1  2  0  0  0  0
  3  2  1  0  0  0  0
  3  4  2  0  0  0  0
  4  5  1  0  0  0  0
  5  6  2  0  0  0  0
  5 10  1  0  0  0  0
  6 20  1  0  0  0  0
  7  2  1  0  0  0  0
  8  3  1  0  0  0  0
  9  4  1  0  0  0  0
 11 12  1  0  0  0  0
 12 18  1  0  0  0  0
 12 13  2  0  0  0  0
 13 19  1  0  0  0  0
 14 13  1  0  0  0  0
 15 14  2  0  0  0  0
 16 15  1  0  0  0  0
 16 11  2  0  0  0  0
 17 11  1  0  0  0  0
 20 21  1  0  0  0  0
 20 22  1  0  0  0  0
 22 25  1  0  0  0  0
 22 23  1  0  0  0  0
 23 24  1  0  0  0  0
 26 25  1  0  0  0  0
 27 22  1  0  0  0  0
 29 28  1  0  0  0  0
 30 27  1  0  0  0  0
 30 29  2  0  0  0  0
 31 30  1  0  0  0  0
 32 31  1  0  0  0  0
 33 31  2  0  0  0  0
 33 34  1  0  0  0  0
 34 36  2  0  0  0  0
 35 34  1  0  0  0  0
 36 29  1  0  0  0  0
 36 37  1  0  0  0  0
M  END
>  <minimizedAffinity>
-6.34333277

$$$$

 OpenBabel03242515113D

 37 39  0  0  0  0  0  0  0  0999 V2000
   37.6630   30.8730   38.1060 C   0  0  0  0  0  0  0  0  0  0  0  0
   37.3300   30.9480   36.7810 C   0  0  0  0  0  0  0  0  0  0  0  0
   36.6690   29.9690   36.0720 C   0  0  0  0  0  0  0  0  0  0  0  0
   36.3070   28.8220   36.7280 C   0  0  0  0  0  0  0  0  0  0  0  0
   36.6170   28.7000   38.0530 C   0  0  0  0  0  0  0  0  0  0  0  0
   37.2890   29.7130   38.7410 C   0  0  0  0  0  0  0  0  0  0  0  0
   37.6100   31.8550   36.2370 H   0  0  0  0  0  0  0  0  0  0  0  0
   36.4170   30.0540   35.0220 H   0  0  0  0  0  0  0  0  0  0  0  0
   35.7870   28.0410   36.1870 H   0  0  0  0  0  0  0  0  0  0  0  0
   36.3100   27.7760   38.5270 H   0  0  0  0  0  0  0  0  0  0  0  0
   40.3450   33.1530   39.0780 C   0  0  0  0  0  0  0  0  0  0  0  0
   39.7540   33.9390   40.0750 C   0  0  0  0  0  0  0  0  0  0  0  0
   38.4340   33.6750   40.4010 C   0  0  0  0  0  0  0  0  0  0  0  0
   37.7500   32.6860   39.7700 N   0  0  0  0  0  0  0  0  0  0  0  0
   38.3600   31.9360   38.8010 C   0  0  0  0  0  0  0  0  0  0  0  0
   39.6440   32.1940   38.4840 N   0  0  0  0  0  0  0  0  0  0  0  0
   41.3790   33.2990   38.7650 H   0  0  0  0  0  0  0  0  0  0  0  0
   40.3790   34.7030   40.5190 H   0  0  0  0  0  0  0  0  0  0  0  0
   37.9850   34.2860   41.1720 H   0  0  0  0  0  0  0  0  0  0  0  0
   37.5310   29.4250   40.1040 N   0  0  0  0  0  0  0  0  0  0  0  0
   38.5000   29.0400   40.2330 H   0  0  0  0  0  0  0  0  0  0  0  0
   36.5740   29.5790   41.5160 S   0  0  0  0  0  0  0  0  0  0  0  0
   35.8120   30.8920   41.4260 O   0  0  0  0  0  0  0  0  0  0  0  0
   35.3850   31.3480   42.1810 H   0  0  0  0  0  0  0  0  0  0  0  0
   35.6010   28.4710   41.7190 O   0  0  0  0  0  0  0  0  0  0  0  0
   35.9170   27.5400   41.8090 H   0  0  0  0  0  0  0  0  0  0  0  0
   37.6550   29.7590   42.7980 O   0  0  0  0  0  0  0  0  0  0  0  0
   40.3600   30.7420   41.8660 Cl  0  0  0  0  0  0  0  0  0  0  0  0
   40.0640   29.1700   42.5610 C   0  0  0  0  0  0  0  0  0  0  0  0
   38.7640   28.9310   42.9150 C   0  0  0  0  0  0  0  0  0  0  0  0
   38.4320   27.7030   43.4780 C   0  0  0  0  0  0  0  0  0  0  0  0
   37.4400   27.3990   43.7960 H   0  0  0  0  0  0  0  0  0  0  0  0
   39.4010   26.7320   43.6790 C   0  0  0  0  0  3  0  0  0  0  0  0
   40.7190   26.9690   43.3230 C   0  0  0  0  0  0  0  0  0  0  0  0
   41.9740   25.7660   43.5640 Cl  0  0  0  0  0  0  0  0  0  0  0  0
   41.0180   28.1930   42.7690 C   0  0  0  0  0  0  0  0  0  0  0  0
   42.0260   28.4310   42.4740 H   0  0  0  0  0  0  0  0  0  0  0  0
  1  6  1  0  0  0  0
  1 15  1  0  0  0  0
  2  1  2  0  0  0  0
  3  4  2  0  0  0  0
  3  2  1  0  0  0  0
  4  5  1  0  0  0  0
  5 10  1  0  0  0  0
  5  6  2  0  0  0  0
  6 20  1  0  0  0  0
  7  2  1  0  0  0  0
  8  3  1  0  0  0  0
  9  4  1  0  0  0  0
 11 12  1  0  0  0  0
 12 13  2  0  0  0  0
 12 18  1  0  0  0  0
 13 19  1  0  0  0  0
 14 13  1  0  0  0  0
 15 14  2  0  0  0  0
 16 15  1  0  0  0  0
 16 11  2  0  0  0  0
 17 11  1  0  0  0  0
 20 21  1  0  0  0  0
 20 22  1  0  0  0  0
 22 25  1  0  0  0  0
 22 27  1  0  0  0  0
 23 22  1  0  0  0  0
 23 24  1  0  0  0  0
 25 26  1  0  0  0  0
 27 30  1  0  0  0  0
 28 29  1  0  0  0  0
 29 36  2  0  0  0  0
 29 30  1  0  0  0  0
 30 31  2  0  0  0  0
 31 33  1  0  0  0  0
 31 32  1  0  0  0  0
 34 35  1  0  0  0  0
 34 33  2  0  0  0  0
 36 34  1  0  0  0  0
 37 36  1  0  0  0  0
M  END
>  <minimizedAffinity>
-6.11517096

$$$$

 OpenBabel03242515113D

 37 39  0  0  0  0  0  0  0  0999 V2000
   38.9400   31.0000   38.4680 C   0  0  0  0  0  0  0  0  0  0  0  0
   39.7540   32.0350   38.0940 C   0  0  0  0  0  0  0  0  0  0  0  0
   40.2450   33.0040   38.9400 C   0  0  0  0  0  0  0  0  0  0  0  0
   39.9050   32.9450   40.2660 C   0  0  0  0  0  0  0  0  0  0  0  0
   39.0940   31.9300   40.6890 C   0  0  0  0  0  0  0  0  0  0  0  0
   38.6120   30.9630   39.8020 C   0  0  0  0  0  0  0  0  0  0  0  0
   40.0380   32.1010   37.0390 H   0  0  0  0  0  0  0  0  0  0  0  0
   40.8890   33.8130   38.6170 H   0  0  0  0  0  0  0  0  0  0  0  0
   40.2810   33.6980   40.9460 H   0  0  0  0  0  0  0  0  0  0  0  0
   38.8530   31.9250   41.7450 H   0  0  0  0  0  0  0  0  0  0  0  0
   36.7340   29.3180   36.0920 C   0  0  0  0  0  0  0  0  0  0  0  0
   37.4530   28.1680   35.7430 C   0  0  0  0  0  0  0  0  0  0  0  0
   38.6930   27.9840   36.3330 C   0  0  0  0  0  0  0  0  0  0  0  0
   39.1820   28.8940   37.2150 N   0  0  0  0  0  0  0  0  0  0  0  0
   38.4520   30.0070   37.5320 C   0  0  0  0  0  0  0  0  0  0  0  0
   37.2460   30.1850   36.9590 N   0  0  0  0  0  0  0  0  0  0  0  0
   35.7520   29.5350   35.6710 H   0  0  0  0  0  0  0  0  0  0  0  0
   36.9810   27.5020   35.0320 H   0  0  0  0  0  0  0  0  0  0  0  0
   39.2420   27.0930   36.0600 H   0  0  0  0  0  0  0  0  0  0  0  0
   37.7880   29.9850   40.4050 N   0  0  0  0  0  0  0  0  0  0  0  0
   38.3710   29.2080   40.8050 H   0  0  0  0  0  0  0  0  0  0  0  0
   36.0920   29.8430   40.5900 S   0  0  0  0  0  0  0  0  0  0  0  0
   35.5940   31.0740   41.3300 O   0  0  0  0  0  0  0  0  0  0  0  0
   34.7270   31.1500   41.7790 H   0  0  0  0  0  0  0  0  0  0  0  0
   35.3450   29.7180   39.3070 O   0  0  0  0  0  0  0  0  0  0  0  0
   35.5290   28.9670   38.6940 H   0  0  0  0  0  0  0  0  0  0  0  0
   35.8410   28.5430   41.6340 O   0  0  0  0  0  0  0  0  0  0  0  0
   36.5690   26.3520   39.6800 Cl  0  0  0  0  0  0  0  0  0  0  0  0
   37.3630   26.6160   41.2100 C   0  0  0  0  0  0  0  0  0  0  0  0
   36.8740   27.6660   41.9400 C   0  0  0  0  0  0  0  0  0  0  0  0
   37.4450   27.9530   43.1750 C   0  0  0  0  0  0  0  0  0  0  0  0
   37.1440   28.7550   43.8410 H   0  0  0  0  0  0  0  0  0  0  0  0
   38.4950   27.1910   43.6630 C   0  0  0  0  0  3  0  0  0  0  0  0
   38.9940   26.1280   42.9290 C   0  0  0  0  0  0  0  0  0  0  0  0
   40.3210   25.1400   43.5120 Cl  0  0  0  0  0  0  0  0  0  0  0  0
   38.4100   25.8660   41.7100 C   0  0  0  0  0  0  0  0  0  0  0  0
   38.7570   25.0520   41.0960 H   0  0  0  0  0  0  0  0  0  0  0  0
  1  6  1  0  0  0  0
  2  1  2  0  0  0  0
  2  3  1  0  0  0  0
  3  4  2  0  0  0  0
  4  5  1  0  0  0  0
  4  9  1  0  0  0  0
  5 10  1  0  0  0  0
  6 20  1  0  0  0  0
  6  5  2  0  0  0  0
  7  2  1  0  0  0  0
  8  3  1  0  0  0  0
 11 16  1  0  0  0  0
 12 11  2  0  0  0  0
 12 13  1  0  0  0  0
 13 14  2  0  0  0  0
 14 15  1  0  0  0  0
 15  1  1  0  0  0  0
 16 15  2  0  0  0  0
 17 11  1  0  0  0  0
 18 12  1  0  0  0  0
 19 13  1  0  0  0  0
 20 22  1  0  0  0  0
 20 21  1  0  0  0  0
 22 23  1  0  0  0  0
 22 27  1  0  0  0  0
 23 24  1  0  0  0  0
 25 22  1  0  0  0  0
 26 25  1  0  0  0  0
 27 30  1  0  0  0  0
 28 29  1  0  0  0  0
 29 36  2  0  0  0  0
 29 30  1  0  0  0  0
 30 31  2  0  0  0  0
 31 33  1  0  0  0  0
 31 32  1  0  0  0  0
 34 35  1  0  0  0  0
 34 33  2  0  0  0  0
 36 34  1  0  0  0  0
 37 36  1  0  0  0  0
M  END
>  <minimizedAffinity>
-5.92812157

$$$$

 OpenBabel03242515113D

 37 39  0  0  0  0  0  0  0  0999 V2000
   37.3520   31.6690   39.4810 C   0  0  0  0  0  0  0  0  0  0  0  0
   37.2040   32.9980   39.1910 C   0  0  0  0  0  0  0  0  0  0  0  0
   37.8690   34.0270   39.8220 C   0  0  0  0  0  0  0  0  0  0  0  0
   38.7520   33.7150   40.8220 C   0  0  0  0  0  0  0  0  0  0  0  0
   38.9350   32.4020   41.1480 C   0  0  0  0  0  0  0  0  0  0  0  0
   38.2430   31.3830   40.4870 C   0  0  0  0  0  0  0  0  0  0  0  0
   36.5030   33.2700   38.3960 H   0  0  0  0  0  0  0  0  0  0  0  0
   37.7320   35.0720   39.5720 H   0  0  0  0  0  0  0  0  0  0  0  0
   39.2830   34.5100   41.3300 H   0  0  0  0  0  0  0  0  0  0  0  0
   39.6430   32.2050   41.9440 H   0  0  0  0  0  0  0  0  0  0  0  0
   35.0060   28.9350   38.8810 C   0  0  0  0  0  0  0  0  0  0  0  0
   35.2030   28.6320   37.5280 C   0  0  0  0  0  0  0  0  0  0  0  0
   36.1450   29.3760   36.8360 C   0  0  0  0  0  0  0  0  0  0  0  0
   36.8450   30.3590   37.4580 N   0  0  0  0  0  0  0  0  0  0  0  0
   36.6260   30.6280   38.7820 C   0  0  0  0  0  0  0  0  0  0  0  0
   35.7100   29.9040   39.4550 N   0  0  0  0  0  0  0  0  0  0  0  0
   34.2830   28.3960   39.4940 H   0  0  0  0  0  0  0  0  0  0  0  0
   34.5990   27.8320   37.1210 H   0  0  0  0  0  0  0  0  0  0  0  0
   36.2920   29.1350   35.7920 H   0  0  0  0  0  0  0  0  0  0  0  0
   38.5510   30.0810   40.9480 N   0  0  0  0  0  0  0  0  0  0  0  0
   39.3690   29.6890   40.4200 H   0  0  0  0  0  0  0  0  0  0  0  0
   37.8620   29.0780   42.1520 S   0  0  0  0  0  0  0  0  0  0  0  0
   38.3310   29.5800   43.5080 O   0  0  0  0  0  0  0  0  0  0  0  0
   38.2940   29.0670   44.3420 H   0  0  0  0  0  0  0  0  0  0  0  0
   36.3730   29.0430   42.1400 O   0  0  0  0  0  0  0  0  0  0  0  0
   35.8870   28.7330   41.3380 H   0  0  0  0  0  0  0  0  0  0  0  0
   38.5640   27.5570   41.9540 O   0  0  0  0  0  0  0  0  0  0  0  0
   38.5370   27.5530   38.9280 Cl  0  0  0  0  0  0  0  0  0  0  0  0
   37.7560   26.3540   39.9260 C   0  0  0  0  0  0  0  0  0  0  0  0
   37.8940   26.5480   41.2740 C   0  0  0  0  0  0  0  0  0  0  0  0
   37.3040   25.6410   42.1500 C   0  0  0  0  0  0  0  0  0  0  0  0
   37.3440   25.6900   43.2330 H   0  0  0  0  0  0  0  0  0  0  0  0
   36.5870   24.5580   41.6680 C   0  0  0  0  0  3  0  0  0  0  0  0
   36.4440   24.3570   40.3050 C   0  0  0  0  0  0  0  0  0  0  0  0
   35.5440   22.9970   39.6580 Cl  0  0  0  0  0  0  0  0  0  0  0  0
   37.0380   25.2690   39.4620 C   0  0  0  0  0  0  0  0  0  0  0  0
   36.9600   25.1620   38.3940 H   0  0  0  0  0  0  0  0  0  0  0  0
  1  6  1  0  0  0  0
  2  1  2  0  0  0  0
  2  3  1  0  0  0  0
  3  4  2  0  0  0  0
  4  5  1  0  0  0  0
  4  9  1  0  0  0  0
  5 10  1  0  0  0  0
  6 20  1  0  0  0  0
  6  5  2  0  0  0  0
  7  2  1  0  0  0  0
  8  3  1  0  0  0  0
 11 16  1  0  0  0  0
 11 17  1  0  0  0  0
 12 11  2  0  0  0  0
 13 14  2  0  0  0  0
 13 12  1  0  0  0  0
 14 15  1  0  0  0  0
 15 16  2  0  0  0  0
 15  1  1  0  0  0  0
 18 12  1  0  0  0  0
 19 13  1  0  0  0  0
 20 22  1  0  0  0  0
 21 20  1  0  0  0  0
 22 23  1  0  0  0  0
 23 24  1  0  0  0  0
 25 22  1  0  0  0  0
 26 25  1  0  0  0  0
 27 22  1  0  0  0  0
 28 29  1  0  0  0  0
 29 30  1  0  0  0  0
 30 27  1  0  0  0  0
 30 31  2  0  0  0  0
 31 32  1  0  0  0  0
 33 31  1  0  0  0  0
 34 33  2  0  0  0  0
 35 34  1  0  0  0  0
 36 29  2  0  0  0  0
 36 34  1  0  0  0  0
 37 36  1  0  0  0  0
M  END
>  <minimizedAffinity>
-5.92643356

$$$$

 OpenBabel03242515113D

 37 39  0  0  0  0  0  0  0  0999 V2000
   36.7730   29.1650   37.5510 C   0  0  0  0  0  0  0  0  0  0  0  0
   36.0030   29.1030   36.4210 C   0  0  0  0  0  0  0  0  0  0  0  0
   34.6330   28.9600   36.4010 C   0  0  0  0  0  0  0  0  0  0  0  0
   33.9700   28.8700   37.5970 C   0  0  0  0  0  0  0  0  0  0  0  0
   34.6950   28.9270   38.7530 C   0  0  0  0  0  0  0  0  0  0  0  0
   36.0850   29.0730   38.7360 C   0  0  0  0  0  0  0  0  0  0  0  0
   36.5120   29.1730   35.4550 H   0  0  0  0  0  0  0  0  0  0  0  0
   34.0470   28.9140   35.4910 H   0  0  0  0  0  0  0  0  0  0  0  0
   32.8940   28.7570   37.6010 H   0  0  0  0  0  0  0  0  0  0  0  0
   34.1270   28.8520   39.6720 H   0  0  0  0  0  0  0  0  0  0  0  0
   40.2860   28.4010   36.9070 C   0  0  0  0  0  0  0  0  0  0  0  0
   40.9560   29.5290   37.3980 C   0  0  0  0  0  0  0  0  0  0  0  0
   40.1880   30.5430   37.9460 C   0  0  0  0  0  0  0  0  0  0  0  0
   38.8350   30.4340   38.0000 N   0  0  0  0  0  0  0  0  0  0  0  0
   38.2140   29.3170   37.5110 C   0  0  0  0  0  0  0  0  0  0  0  0
   38.9610   28.3310   36.9780 N   0  0  0  0  0  0  0  0  0  0  0  0
   40.8200   27.5620   36.4600 H   0  0  0  0  0  0  0  0  0  0  0  0
   42.0350   29.5240   37.3100 H   0  0  0  0  0  0  0  0  0  0  0  0
   40.7120   31.4100   38.3240 H   0  0  0  0  0  0  0  0  0  0  0  0
   36.6780   29.1140   40.0200 N   0  0  0  0  0  0  0  0  0  0  0  0
   37.1260   28.1910   40.2480 H   0  0  0  0  0  0  0  0  0  0  0  0
   36.7900   30.3360   41.2130 S   0  0  0  0  0  0  0  0  0  0  0  0
   37.9570   31.2410   40.8520 O   0  0  0  0  0  0  0  0  0  0  0  0
   38.3980   31.8640   41.4660 H   0  0  0  0  0  0  0  0  0  0  0  0
   35.5620   31.1670   41.3550 O   0  0  0  0  0  0  0  0  0  0  0  0
   34.7020   30.7480   41.5980 H   0  0  0  0  0  0  0  0  0  0  0  0
   37.2350   29.5580   42.6420 O   0  0  0  0  0  0  0  0  0  0  0  0
   40.2590   29.4880   42.6170 Cl  0  0  0  0  0  0  0  0  0  0  0  0
   39.2370   28.0750   42.5940 C   0  0  0  0  0  0  0  0  0  0  0  0
   37.8930   28.3350   42.6100 C   0  0  0  0  0  0  0  0  0  0  0  0
   36.9990   27.2690   42.5940 C   0  0  0  0  0  0  0  0  0  0  0  0
   35.9170   27.3490   42.6040 H   0  0  0  0  0  0  0  0  0  0  0  0
   37.4580   25.9610   42.5610 C   0  0  0  0  0  3  0  0  0  0  0  0
   38.8170   25.6930   42.5450 C   0  0  0  0  0  0  0  0  0  0  0  0
   39.4370   24.0510   42.5050 Cl  0  0  0  0  0  0  0  0  0  0  0  0
   39.6790   26.7660   42.5620 C   0  0  0  0  0  0  0  0  0  0  0  0
   40.7450   26.6160   42.5500 H   0  0  0  0  0  0  0  0  0  0  0  0
  1  6  1  0  0  0  0
  2  1  2  0  0  0  0
  3  2  1  0  0  0  0
  3  4  2  0  0  0  0
  4  9  1  0  0  0  0
  4  5  1  0  0  0  0
  5 10  1  0  0  0  0
  6  5  2  0  0  0  0
  6 20  1  0  0  0  0
  7  2  1  0  0  0  0
  8  3  1  0  0  0  0
 11 16  2  0  0  0  0
 11 12  1  0  0  0  0
 12 13  2  0  0  0  0
 13 14  1  0  0  0  0
 13 19  1  0  0  0  0
 15  1  1  0  0  0  0
 15 14  2  0  0  0  0
 16 15  1  0  0  0  0
 17 11  1  0  0  0  0
 18 12  1  0  0  0  0
 20 21  1  0  0  0  0
 20 22  1  0  0  0  0
 22 25  1  0  0  0  0
 22 27  1  0  0  0  0
 23 22  1  0  0  0  0
 23 24  1  0  0  0  0
 25 26  1  0  0  0  0
 29 30  1  0  0  0  0
 29 28  1  0  0  0  0
 30 27  1  0  0  0  0
 31 32  1  0  0  0  0
 31 30  2  0  0  0  0
 33 31  1  0  0  0  0
 34 33  2  0  0  0  0
 34 36  1  0  0  0  0
 35 34  1  0  0  0  0
 36 29  2  0  0  0  0
 37 36  1  0  0  0  0
M  END
>  <minimizedAffinity>
-5.92104435

$$$$

 OpenBabel03242515113D

 37 39  0  0  0  0  0  0  0  0999 V2000
   36.5930   28.1810   41.2180 C   0  0  0  0  0  0  0  0  0  0  0  0
   36.9360   26.9810   41.7790 C   0  0  0  0  0  0  0  0  0  0  0  0
   37.7130   26.8250   42.9060 C   0  0  0  0  0  0  0  0  0  0  0  0
   38.1890   27.9480   43.5290 C   0  0  0  0  0  0  0  0  0  0  0  0
   37.8740   29.1700   43.0060 C   0  0  0  0  0  0  0  0  0  0  0  0
   37.0830   29.2920   41.8600 C   0  0  0  0  0  0  0  0  0  0  0  0
   36.5660   26.0710   41.2970 H   0  0  0  0  0  0  0  0  0  0  0  0
   37.9680   25.8620   43.3300 H   0  0  0  0  0  0  0  0  0  0  0  0
   38.8010   27.8460   44.4160 H   0  0  0  0  0  0  0  0  0  0  0  0
   38.2730   30.0280   43.5340 H   0  0  0  0  0  0  0  0  0  0  0  0
   33.8630   29.1970   39.0140 C   0  0  0  0  0  0  0  0  0  0  0  0
   34.1550   28.5360   37.8140 C   0  0  0  0  0  0  0  0  0  0  0  0
   35.2920   27.7460   37.7770 C   0  0  0  0  0  0  0  0  0  0  0  0
   36.0860   27.6250   38.8730 N   0  0  0  0  0  0  0  0  0  0  0  0
   35.7700   28.2850   40.0290 C   0  0  0  0  0  0  0  0  0  0  0  0
   34.6640   29.0530   40.0640 N   0  0  0  0  0  0  0  0  0  0  0  0
   32.9870   29.8370   39.1220 H   0  0  0  0  0  0  0  0  0  0  0  0
   33.4630   28.6950   36.9970 H   0  0  0  0  0  0  0  0  0  0  0  0
   35.5100   27.2380   36.8480 H   0  0  0  0  0  0  0  0  0  0  0  0
   36.8530   30.6270   41.4550 N   0  0  0  0  0  0  0  0  0  0  0  0
   35.9110   30.9540   41.7860 H   0  0  0  0  0  0  0  0  0  0  0  0
   37.7860   31.7520   40.5640 S   0  0  0  0  0  0  0  0  0  0  0  0
   36.9180   32.9700   40.2900 O   0  0  0  0  0  0  0  0  0  0  0  0
   37.1020   33.6510   39.6100 H   0  0  0  0  0  0  0  0  0  0  0  0
   39.0320   32.1930   41.2500 O   0  0  0  0  0  0  0  0  0  0  0  0
   39.7230   31.5340   41.5000 H   0  0  0  0  0  0  0  0  0  0  0  0
   38.0700   31.0400   39.0620 O   0  0  0  0  0  0  0  0  0  0  0  0
   39.7370   28.5820   39.6360 Cl  0  0  0  0  0  0  0  0  0  0  0  0
   40.2750   29.9420   38.6850 C   0  0  0  0  0  0  0  0  0  0  0  0
   39.3580   30.9490   38.5500 C   0  0  0  0  0  0  0  0  0  0  0  0
   39.6980   32.0760   37.8070 C   0  0  0  0  0  0  0  0  0  0  0  0
   39.0590   32.9350   37.6310 H   0  0  0  0  0  0  0  0  0  0  0  0
   40.9450   32.1800   37.2110 C   0  0  0  0  0  3  0  0  0  0  0  0
   41.8760   31.1630   37.3440 C   0  0  0  0  0  0  0  0  0  0  0  0
   43.4640   31.2580   36.6040 Cl  0  0  0  0  0  0  0  0  0  0  0  0
   41.5130   30.0600   38.0840 C   0  0  0  0  0  0  0  0  0  0  0  0
   42.1970   29.2400   38.2210 H   0  0  0  0  0  0  0  0  0  0  0  0
  1  2  2  0  0  0  0
  1  6  1  0  0  0  0
  2  3  1  0  0  0  0
  3  8  1  0  0  0  0
  3  4  2  0  0  0  0
  4  9  1  0  0  0  0
  5  4  1  0  0  0  0
  5 10  1  0  0  0  0
  6  5  2  0  0  0  0
  7  2  1  0  0  0  0
 11 17  1  0  0  0  0
 11 16  1  0  0  0  0
 12 11  2  0  0  0  0
 13 12  1  0  0  0  0
 13 14  2  0  0  0  0
 14 15  1  0  0  0  0
 15 16  2  0  0  0  0
 15  1  1  0  0  0  0
 18 12  1  0  0  0  0
 19 13  1  0  0  0  0
 20 21  1  0  0  0  0
 20  6  1  0  0  0  0
 22 25  1  0  0  0  0
 22 20  1  0  0  0  0
 23 22  1  0  0  0  0
 24 23  1  0  0  0  0
 25 26  1  0  0  0  0
 27 22  1  0  0  0  0
 29 28  1  0  0  0  0
 30 29  1  0  0  0  0
 30 27  1  0  0  0  0
 31 30  2  0  0  0  0
 32 31  1  0  0  0  0
 33 34  2  0  0  0  0
 33 31  1  0  0  0  0
 34 36  1  0  0  0  0
 35 34  1  0  0  0  0
 36 37  1  0  0  0  0
 36 29  2  0  0  0  0
M  END
>  <minimizedAffinity>
-5.84021664

$$$$

 OpenBabel03242515113D

 37 39  0  0  0  0  0  0  0  0999 V2000
   36.9480   29.5040   39.1430 C   0  0  0  0  0  0  0  0  0  0  0  0
   37.3070   30.5600   38.3510 C   0  0  0  0  0  0  0  0  0  0  0  0
   37.2960   31.8820   38.7380 C   0  0  0  0  0  0  0  0  0  0  0  0
   36.8990   32.1840   40.0140 C   0  0  0  0  0  0  0  0  0  0  0  0
   36.5310   31.1630   40.8440 C   0  0  0  0  0  0  0  0  0  0  0  0
   36.5540   29.8320   40.4170 C   0  0  0  0  0  0  0  0  0  0  0  0
   37.6270   30.3420   37.3270 H   0  0  0  0  0  0  0  0  0  0  0  0
   37.5850   32.7000   38.0900 H   0  0  0  0  0  0  0  0  0  0  0  0
   36.8830   33.2170   40.3370 H   0  0  0  0  0  0  0  0  0  0  0  0
   36.2250   31.4510   41.8420 H   0  0  0  0  0  0  0  0  0  0  0  0
   35.8880   26.0590   38.5520 C   0  0  0  0  0  0  0  0  0  0  0  0
   36.9610   25.5100   37.8390 C   0  0  0  0  0  0  0  0  0  0  0  0
   38.0400   26.3350   37.5680 C   0  0  0  0  0  0  0  0  0  0  0  0
   38.0450   27.6270   37.9850 N   0  0  0  0  0  0  0  0  0  0  0  0
   36.9800   28.1300   38.6810 C   0  0  0  0  0  0  0  0  0  0  0  0
   35.9300   27.3270   38.9450 N   0  0  0  0  0  0  0  0  0  0  0  0
   35.0030   25.4740   38.8050 H   0  0  0  0  0  0  0  0  0  0  0  0
   36.8650   24.4710   37.5490 H   0  0  0  0  0  0  0  0  0  0  0  0
   38.8650   25.9030   37.0170 H   0  0  0  0  0  0  0  0  0  0  0  0
   36.1440   28.9020   41.4010 N   0  0  0  0  0  0  0  0  0  0  0  0
   35.1760   28.5520   41.1960 H   0  0  0  0  0  0  0  0  0  0  0  0
   36.9050   28.2750   42.8010 S   0  0  0  0  0  0  0  0  0  0  0  0
   37.3150   29.4470   43.6780 O   0  0  0  0  0  0  0  0  0  0  0  0
   37.9690   29.4040   44.4060 H   0  0  0  0  0  0  0  0  0  0  0  0
   36.0510   27.3530   43.6000 O   0  0  0  0  0  0  0  0  0  0  0  0
   35.6960   26.5260   43.1950 H   0  0  0  0  0  0  0  0  0  0  0  0
   38.3410   27.5650   42.2770 O   0  0  0  0  0  0  0  0  0  0  0  0
   40.6980   26.6450   40.6180 Cl  0  0  0  0  0  0  0  0  0  0  0  0
   39.2990   25.6680   40.9760 C   0  0  0  0  0  0  0  0  0  0  0  0
   38.3480   26.2820   41.7450 C   0  0  0  0  0  0  0  0  0  0  0  0
   37.1950   25.5790   42.0820 C   0  0  0  0  0  0  0  0  0  0  0  0
   36.3750   25.9580   42.6830 H   0  0  0  0  0  0  0  0  0  0  0  0
   37.0090   24.2760   41.6470 C   0  0  0  0  0  3  0  0  0  0  0  0
   37.9680   23.6500   40.8680 C   0  0  0  0  0  0  0  0  0  0  0  0
   37.7690   22.0020   40.2990 Cl  0  0  0  0  0  0  0  0  0  0  0  0
   39.0980   24.3690   40.5500 C   0  0  0  0  0  0  0  0  0  0  0  0
   39.8770   23.9320   39.9480 H   0  0  0  0  0  0  0  0  0  0  0  0
  1  6  1  0  0  0  0
  2  3  1  0  0  0  0
  2  1  2  0  0  0  0
  3  4  2  0  0  0  0
  4  9  1  0  0  0  0
  4  5  1  0  0  0  0
  5 10  1  0  0  0  0
  6  5  2  0  0  0  0
  6 20  1  0  0  0  0
  7  2  1  0  0  0  0
  8  3  1  0  0  0  0
 11 17  1  0  0  0  0
 11 16  1  0  0  0  0
 12 11  2  0  0  0  0
 13 12  1  0  0  0  0
 13 14  2  0  0  0  0
 14 15  1  0  0  0  0
 15 16  2  0  0  0  0
 15  1  1  0  0  0  0
 18 12  1  0  0  0  0
 19 13  1  0  0  0  0
 20 22  1  0  0  0  0
 21 20  1  0  0  0  0
 22 25  1  0  0  0  0
 22 23  1  0  0  0  0
 23 24  1  0  0  0  0
 26 25  1  0  0  0  0
 27 22  1  0  0  0  0
 28 29  1  0  0  0  0
 29 30  1  0  0  0  0
 30 31  2  0  0  0  0
 30 27  1  0  0  0  0
 31 32  1  0  0  0  0
 33 31  1  0  0  0  0
 34 33  2  0  0  0  0
 35 34  1  0  0  0  0
 36 34  1  0  0  0  0
 36 29  2  0  0  0  0
 37 36  1  0  0  0  0
M  END
>  <minimizedAffinity>
-5.81748152

$$$$

 OpenBabel03242515113D

 37 39  0  0  0  0  0  0  0  0999 V2000
   36.7640   26.3240   39.8230 C   0  0  0  0  0  0  0  0  0  0  0  0
   36.7100   25.0430   40.3000 C   0  0  0  0  0  0  0  0  0  0  0  0
   36.8260   24.6840   41.6250 C   0  0  0  0  0  0  0  0  0  0  0  0
   37.0090   25.6740   42.5540 C   0  0  0  0  0  0  0  0  0  0  0  0
   37.0690   26.9700   42.1280 C   0  0  0  0  0  0  0  0  0  0  0  0
   36.9480   27.2980   40.7740 C   0  0  0  0  0  0  0  0  0  0  0  0
   36.5650   24.2370   39.5750 H   0  0  0  0  0  0  0  0  0  0  0  0
   36.7800   23.6600   41.9750 H   0  0  0  0  0  0  0  0  0  0  0  0
   37.1030   25.4110   43.6000 H   0  0  0  0  0  0  0  0  0  0  0  0
   37.2150   27.7160   42.8990 H   0  0  0  0  0  0  0  0  0  0  0  0
   37.5270   26.4630   36.2540 C   0  0  0  0  0  0  0  0  0  0  0  0
   36.4650   27.2070   35.7260 C   0  0  0  0  0  0  0  0  0  0  0  0
   35.4940   27.6550   36.6080 C   0  0  0  0  0  0  0  0  0  0  0  0
   35.5830   27.3750   37.9340 N   0  0  0  0  0  0  0  0  0  0  0  0
   36.6350   26.6440   38.4150 C   0  0  0  0  0  0  0  0  0  0  0  0
   37.5790   26.2100   37.5570 N   0  0  0  0  0  0  0  0  0  0  0  0
   38.3290   26.0760   35.6250 H   0  0  0  0  0  0  0  0  0  0  0  0
   36.4810   27.3790   34.6580 H   0  0  0  0  0  0  0  0  0  0  0  0
   34.6780   28.2300   36.1930 H   0  0  0  0  0  0  0  0  0  0  0  0
   37.0320   28.6850   40.5060 N   0  0  0  0  0  0  0  0  0  0  0  0
   38.0270   28.9630   40.3160 H   0  0  0  0  0  0  0  0  0  0  0  0
   35.8620   29.9320   40.4400 S   0  0  0  0  0  0  0  0  0  0  0  0
   34.5220   29.3030   40.0930 O   0  0  0  0  0  0  0  0  0  0  0  0
   33.7410   29.7900   39.7580 H   0  0  0  0  0  0  0  0  0  0  0  0
   35.7180   30.7030   41.7070 O   0  0  0  0  0  0  0  0  0  0  0  0
   36.4890   31.1900   42.0850 H   0  0  0  0  0  0  0  0  0  0  0  0
   36.2760   30.8950   39.1190 O   0  0  0  0  0  0  0  0  0  0  0  0
   38.5290   29.7370   37.4650 Cl  0  0  0  0  0  0  0  0  0  0  0  0
   38.6410   31.2070   38.3970 C   0  0  0  0  0  0  0  0  0  0  0  0
   37.5010   31.5500   39.0730 C   0  0  0  0  0  0  0  0  0  0  0  0
   37.4950   32.7080   39.8430 C   0  0  0  0  0  0  0  0  0  0  0  0
   36.6560   33.0810   40.4210 H   0  0  0  0  0  0  0  0  0  0  0  0
   38.6260   33.5060   39.9290 C   0  0  0  0  0  3  0  0  0  0  0  0
   39.7820   33.1630   39.2480 C   0  0  0  0  0  0  0  0  0  0  0  0
   41.2320   34.1480   39.3310 Cl  0  0  0  0  0  0  0  0  0  0  0  0
   39.7590   32.0130   38.4930 C   0  0  0  0  0  0  0  0  0  0  0  0
   40.6290   31.6990   37.9420 H   0  0  0  0  0  0  0  0  0  0  0  0
  1  2  2  0  0  0  0
  1  6  1  0  0  0  0
  2  3  1  0  0  0  0
  3  8  1  0  0  0  0
  3  4  2  0  0  0  0
  4  9  1  0  0  0  0
  5  4  1  0  0  0  0
  5 10  1  0  0  0  0
  6  5  2  0  0  0  0
  7  2  1  0  0  0  0
 11 16  1  0  0  0  0
 12 11  2  0  0  0  0
 12 13  1  0  0  0  0
 13 14  2  0  0  0  0
 14 15  1  0  0  0  0
 15  1  1  0  0  0  0
 16 15  2  0  0  0  0
 17 11  1  0  0  0  0
 18 12  1  0  0  0  0
 19 13  1  0  0  0  0
 20  6  1  0  0  0  0
 21 20  1  0  0  0  0
 22 20  1  0  0  0  0
 22 25  1  0  0  0  0
 23 22  1  0  0  0  0
 24 23  1  0  0  0  0
 25 26  1  0  0  0  0
 27 22  1  0  0  0  0
 28 29  1  0  0  0  0
 29 36  2  0  0  0  0
 29 30  1  0  0  0  0
 30 27  1  0  0  0  0
 30 31  2  0  0  0  0
 31 33  1  0  0  0  0
 31 32  1  0  0  0  0
 34 35  1  0  0  0  0
 34 33  2  0  0  0  0
 36 34  1  0  0  0  0
 37 36  1  0  0  0  0
M  END
>  <minimizedAffinity>
-5.76615238

$$$$

 OpenBabel03242515113D

 37 39  0  0  0  0  0  0  0  0999 V2000
   36.0930   27.2790   39.1160 C   0  0  0  0  0  0  0  0  0  0  0  0
   35.2240   26.9310   38.1190 C   0  0  0  0  0  0  0  0  0  0  0  0
   34.6660   27.8050   37.2120 C   0  0  0  0  0  0  0  0  0  0  0  0
   34.9960   29.1320   37.2980 C   0  0  0  0  0  0  0  0  0  0  0  0
   35.8610   29.5290   38.2780 C   0  0  0  0  0  0  0  0  0  0  0  0
   36.4080   28.6150   39.1820 C   0  0  0  0  0  0  0  0  0  0  0  0
   34.9460   25.8760   38.0320 H   0  0  0  0  0  0  0  0  0  0  0  0
   33.9790   27.5020   36.4310 H   0  0  0  0  0  0  0  0  0  0  0  0
   34.5670   29.8340   36.5940 H   0  0  0  0  0  0  0  0  0  0  0  0
   36.0910   30.5870   38.3050 H   0  0  0  0  0  0  0  0  0  0  0  0
   37.5190   24.1630   40.3800 C   0  0  0  0  0  0  0  0  0  0  0  0
   37.7160   24.4270   41.7410 C   0  0  0  0  0  0  0  0  0  0  0  0
   37.3550   25.6800   42.2090 C   0  0  0  0  0  0  0  0  0  0  0  0
   36.8300   26.6080   41.3690 N   0  0  0  0  0  0  0  0  0  0  0  0
   36.6500   26.3150   40.0440 C   0  0  0  0  0  0  0  0  0  0  0  0
   37.0020   25.0970   39.5890 N   0  0  0  0  0  0  0  0  0  0  0  0
   37.7780   23.2020   39.9350 H   0  0  0  0  0  0  0  0  0  0  0  0
   38.1410   23.6250   42.3300 H   0  0  0  0  0  0  0  0  0  0  0  0
   37.5100   25.8760   43.2610 H   0  0  0  0  0  0  0  0  0  0  0  0
   37.2840   29.1930   40.1300 N   0  0  0  0  0  0  0  0  0  0  0  0
   38.2770   28.9170   39.9290 H   0  0  0  0  0  0  0  0  0  0  0  0
   37.0310   30.2120   41.4820 S   0  0  0  0  0  0  0  0  0  0  0  0
   35.6830   30.8960   41.3110 O   0  0  0  0  0  0  0  0  0  0  0  0
   35.3920   31.6960   41.7950 H   0  0  0  0  0  0  0  0  0  0  0  0
   37.0480   29.5050   42.7930 O   0  0  0  0  0  0  0  0  0  0  0  0
   37.8510   29.0090   43.0810 H   0  0  0  0  0  0  0  0  0  0  0  0
   38.1860   31.4360   41.3710 O   0  0  0  0  0  0  0  0  0  0  0  0
   37.1940   32.8910   38.9120 Cl  0  0  0  0  0  0  0  0  0  0  0  0
   38.7640   32.1440   39.0530 C   0  0  0  0  0  0  0  0  0  0  0  0
   39.0080   31.5390   40.2560 C   0  0  0  0  0  0  0  0  0  0  0  0
   40.2350   30.9160   40.4610 C   0  0  0  0  0  0  0  0  0  0  0  0
   40.5420   30.4040   41.3670 H   0  0  0  0  0  0  0  0  0  0  0  0
   41.1990   30.9060   39.4650 C   0  0  0  0  0  3  0  0  0  0  0  0
   40.9570   31.5180   38.2460 C   0  0  0  0  0  0  0  0  0  0  0  0
   42.1520   31.5280   36.9610 Cl  0  0  0  0  0  0  0  0  0  0  0  0
   39.7350   32.1270   38.0710 C   0  0  0  0  0  0  0  0  0  0  0  0
   39.4930   32.6180   37.1430 H   0  0  0  0  0  0  0  0  0  0  0  0
  1  6  1  0  0  0  0
  1 15  1  0  0  0  0
  2  1  2  0  0  0  0
  3  4  2  0  0  0  0
  3  2  1  0  0  0  0
  4  5  1  0  0  0  0
  5 10  1  0  0  0  0
  5  6  2  0  0  0  0
  6 20  1  0  0  0  0
  7  2  1  0  0  0  0
  8  3  1  0  0  0  0
  9  4  1  0  0  0  0
 11 12  1  0  0  0  0
 12 13  2  0  0  0  0
 12 18  1  0  0  0  0
 13 19  1  0  0  0  0
 14 13  1  0  0  0  0
 15 14  2  0  0  0  0
 16 15  1  0  0  0  0
 16 11  2  0  0  0  0
 17 11  1  0  0  0  0
 20 22  1  0  0  0  0
 21 20  1  0  0  0  0
 22 25  1  0  0  0  0
 23 22  1  0  0  0  0
 23 24  1  0  0  0  0
 25 26  1  0  0  0  0
 27 22  1  0  0  0  0
 28 29  1  0  0  0  0
 29 30  1  0  0  0  0
 30 31  2  0  0  0  0
 30 27  1  0  0  0  0
 31 32  1  0  0  0  0
 33 31  1  0  0  0  0
 34 33  2  0  0  0  0
 35 34  1  0  0  0  0
 36 34  1  0  0  0  0
 36 29  2  0  0  0  0
 37 36  1  0  0  0  0
M  END
>  <minimizedAffinity>
-5.76390028

$$$$
