
 OpenBabel03252505403D

 29 31  0  0  1  0  0  0  0  0999 V2000
   44.5880   34.7720   43.7090 C   0  0  1  0  0  0  0  0  0  0  0  0
   45.5280   36.0050   43.6580 C   0  0  0  0  0  0  0  0  0  0  0  0
   45.0520   35.3330   42.4460 C   0  0  1  0  0  0  0  0  0  0  0  0
   43.5820   34.9720   44.1190 H   0  0  0  0  0  0  0  0  0  0  0  0
   45.0050   36.9390   44.0270 H   0  0  0  0  0  0  0  0  0  0  0  0
   46.4610   35.8600   44.1900 H   0  0  0  0  0  0  0  0  0  0  0  0
   44.2240   35.9750   41.9360 H   0  0  0  0  0  0  0  0  0  0  0  0
   43.8160   33.5110   40.1770 Cl  0  0  0  0  0  0  0  0  0  0  0  0
   45.5120   33.8710   40.3790 C   0  0  0  0  0  0  0  0  0  0  0  0
   45.8520   34.6910   41.4250 C   0  0  0  0  0  0  0  0  0  0  0  0
   47.2430   34.8950   41.4750 C   0  0  0  0  0  0  0  0  0  0  0  0
   47.6700   35.5280   42.2560 H   0  0  0  0  0  0  0  0  0  0  0  0
   48.1460   34.3450   40.5930 C   0  0  0  0  0  3  0  0  0  0  0  0
   47.7120   33.5290   39.5700 C   0  0  0  0  0  0  0  0  0  0  0  0
   48.8810   32.8580   38.4850 Cl  0  0  0  0  0  0  0  0  0  0  0  0
   46.3580   33.2920   39.4700 C   0  0  0  0  0  0  0  0  0  0  0  0
   46.0050   32.6610   38.6800 H   0  0  0  0  0  0  0  0  0  0  0  0
   45.2040   33.5670   44.3390 C   0  0  0  0  0  0  0  0  0  0  0  0
   45.4830   32.4590   43.5380 C   0  0  0  0  0  0  0  0  0  0  0  0
   46.0830   31.3760   44.1370 C   0  0  0  0  0  0  0  0  0  0  0  0
   46.3710   31.4350   45.4610 N   0  0  0  0  0  0  0  0  0  0  0  0
   46.0870   32.5180   46.2010 C   0  0  0  0  0  0  0  0  0  0  0  0
   45.4950   33.6010   45.6380 N   0  0  0  0  0  0  0  0  0  0  0  0
   45.2920   32.3240   42.5080 H   0  0  0  0  0  0  0  0  0  0  0  0
   46.3430   30.4640   43.6020 H   0  0  0  0  0  0  0  0  0  0  0  0
   46.4880   32.3890   47.6410 C   0  0  0  0  0  0  0  0  0  0  0  0
   45.5470   32.9450   48.4870 F   0  0  0  0  0  0  0  0  0  0  0  0
   47.7020   33.0430   47.8600 F   0  0  0  0  0  0  0  0  0  0  0  0
   46.7060   31.0470   47.9310 F   0  0  0  0  0  0  0  0  0  0  0  0
  1  4  1  1  0  0  0
  1 18  1  0  0  0  0
  2  1  1  0  0  0  0
  2  5  1  0  0  0  0
  2  6  1  0  0  0  0
  3  7  1  6  0  0  0
  3  2  1  0  0  0  0
  3  1  1  0  0  0  0
  8  9  1  0  0  0  0
  9 10  1  0  0  0  0
 10 11  2  0  0  0  0
 10  3  1  0  0  0  0
 11 12  1  0  0  0  0
 13 11  1  0  0  0  0
 14 13  2  0  0  0  0
 15 14  1  0  0  0  0
 16 14  1  0  0  0  0
 16  9  2  0  0  0  0
 17 16  1  0  0  0  0
 18 23  1  0  0  0  0
 19 20  1  0  0  0  0
 19 18  2  0  0  0  0
 20 21  2  0  0  0  0
 21 22  1  0  0  0  0
 22 26  1  0  0  0  0
 23 22  2  0  0  0  0
 24 19  1  0  0  0  0
 25 20  1  0  0  0  0
 26 28  1  0  0  0  0
 26 29  1  0  0  0  0
 26 27  1  0  0  0  0
M  END
>  <minimizedAffinity>
-5.04020596

>  <minimizedRMSD>
1.88278913

$$$$
