
 OpenBabel03252508463D

 46 48  0  0  0  0  0  0  0  0999 V2000
   42.6860   31.4000   42.5950 N   0  0  0  0  0  0  0  0  0  0  0  0
   42.9690   31.6890   43.5700 H   0  0  0  0  0  0  0  0  0  0  0  0
   42.9690   32.4390   41.6550 C   0  0  0  0  0  0  0  0  0  0  0  0
   43.4740   32.0030   40.7720 H   0  0  0  0  0  0  0  0  0  0  0  0
   42.0340   32.9170   41.2690 H   0  0  0  0  0  0  0  0  0  0  0  0
   43.5950   34.8600   41.8660 C   0  0  0  0  0  0  0  0  0  0  0  0
   43.8510   33.5210   42.1850 C   0  0  0  0  0  0  0  0  0  0  0  0
   44.9290   33.2370   42.9960 C   0  0  0  0  0  0  0  0  0  0  0  0
   45.7240   34.2380   43.4720 C   0  0  0  0  0  0  0  0  0  0  0  0
   45.4920   35.5620   43.1710 C   0  0  0  0  0  0  0  0  0  0  0  0
   44.4000   35.8170   42.3530 C   0  0  0  0  0  0  0  0  0  0  0  0
   45.0800   32.1860   43.2110 H   0  0  0  0  0  0  0  0  0  0  0  0
   46.5510   33.9320   44.1000 H   0  0  0  0  0  0  0  0  0  0  0  0
   46.1430   36.3250   43.5670 H   0  0  0  0  0  0  0  0  0  0  0  0
   44.1830   36.8460   42.0940 H   0  0  0  0  0  0  0  0  0  0  0  0
   40.1580   35.6860   40.5440 C   0  0  0  0  0  0  0  0  0  0  0  0
   41.1930   35.4750   41.4780 C   0  0  0  0  0  0  0  0  0  0  0  0
   42.4500   35.1070   41.0100 C   0  0  0  0  0  0  0  0  0  0  0  0
   42.5950   34.9730   39.6580 N   0  0  0  0  0  0  0  0  0  0  0  0
   41.5840   35.1830   38.7790 C   0  0  0  0  0  0  0  0  0  0  0  0
   40.3770   35.5360   39.2360 N   0  0  0  0  0  0  0  0  0  0  0  0
   39.2500   35.9610   41.0390 H   0  0  0  0  0  0  0  0  0  0  0  0
   41.1140   35.5680   42.5330 H   0  0  0  0  0  0  0  0  0  0  0  0
   41.6860   35.0790   37.7200 H   0  0  0  0  0  0  0  0  0  0  0  0
   41.0110   31.0200   42.6760 S   0  0  0  0  0  0  0  0  0  0  0  0
   40.1680   32.2600   42.4930 O   0  0  0  0  0  0  0  0  0  0  0  0
   40.0300   32.7030   41.6060 H   0  0  0  0  0  0  0  0  0  0  0  0
   40.6710   30.3270   43.9400 O   0  0  0  0  0  0  0  0  0  0  0  0
   41.2010   30.2110   44.7630 H   0  0  0  0  0  0  0  0  0  0  0  0
   40.7030   29.9670   41.3990 O   0  0  0  0  0  0  0  0  0  0  0  0
   39.3530   29.7290   41.3240 C   0  0  0  0  0  0  0  0  0  0  0  0
   39.0340   29.9730   40.2890 H   0  0  0  0  0  0  0  0  0  0  0  0
   38.7190   30.3180   41.9990 H   0  0  0  0  0  0  0  0  0  0  0  0
   39.0930   28.2300   41.5610 C   0  0  0  0  0  0  0  0  0  0  0  0
   39.0950   28.1000   42.6430 H   0  0  0  0  0  0  0  0  0  0  0  0
   39.9440   27.6970   41.1460 H   0  0  0  0  0  0  0  0  0  0  0  0
   38.1830   25.3080   41.7790 Cl  0  0  0  0  0  0  0  0  0  0  0  0
   37.2900   26.5630   40.9460 C   0  0  0  0  0  0  0  0  0  0  0  0
   37.8090   27.8380   40.9310 C   0  0  0  0  0  0  0  0  0  0  0  0
   37.1040   28.8510   40.2710 C   0  0  0  0  0  0  0  0  0  0  0  0
   37.4920   29.8610   40.2500 H   0  0  0  0  0  0  0  0  0  0  0  0
   35.9040   28.6030   39.6370 C   0  0  0  0  0  3  0  0  0  0  0  0
   35.4220   27.3190   39.6750 C   0  0  0  0  0  0  0  0  0  0  0  0
   33.8870   27.0260   38.8540 Cl  0  0  0  0  0  0  0  0  0  0  0  0
   36.0810   26.2760   40.3150 C   0  0  0  0  0  0  0  0  0  0  0  0
   35.6580   25.2610   40.3230 H   0  0  0  0  0  0  0  0  0  0  0  0
  1 25  1  0  0  0  0
  1  2  1  0  0  0  0
  3  7  1  0  0  0  0
  3  1  1  0  0  0  0
  4  3  1  0  0  0  0
  5  3  1  0  0  0  0
  6  7  2  0  0  0  0
  6 11  1  0  0  0  0
  7  8  1  0  0  0  0
  8 12  1  0  0  0  0
  8  9  2  0  0  0  0
  9 13  1  0  0  0  0
 10  9  1  0  0  0  0
 10 14  1  0  0  0  0
 11 10  2  0  0  0  0
 15 11  1  0  0  0  0
 16 22  1  0  0  0  0
 16 17  1  0  0  0  0
 17 23  1  0  0  0  0
 18 17  2  0  0  0  0
 18  6  1  0  0  0  0
 19 18  1  0  0  0  0
 20 21  1  0  0  0  0
 20 19  2  0  0  0  0
 21 16  2  0  0  0  0
 24 20  1  0  0  0  0
 25 28  1  0  0  0  0
 26 25  1  0  0  0  0
 27 26  1  0  0  0  0
 28 29  1  0  0  0  0
 30 25  1  0  0  0  0
 31 30  1  0  0  0  0
 31 34  1  0  0  0  0
 31 33  1  0  0  0  0
 32 31  1  0  0  0  0
 34 35  1  0  0  0  0
 36 34  1  0  0  0  0
 38 37  1  0  0  0  0
 39 38  1  0  0  0  0
 39 34  1  0  0  0  0
 40 39  2  0  0  0  0
 41 40  1  0  0  0  0
 42 43  2  0  0  0  0
 42 40  1  0  0  0  0
 43 45  1  0  0  0  0
 44 43  1  0  0  0  0
 45 46  1  0  0  0  0
 45 38  2  0  0  0  0
M  END
>  <minimizedAffinity>
-5.67268085

>  <minimizedRMSD>
2.49296689

$$$$
