
 OpenBabel03242515093D

 37 39  0  0  0  0  0  0  0  0999 V2000
   45.7440   34.0870   45.1130 C   0  0  0  0  0  0  0  0  0  0  0  0
   44.8020   35.0510   45.3440 C   0  0  0  0  0  0  0  0  0  0  0  0
   44.4680   36.0610   44.4670 C   0  0  0  0  0  0  0  0  0  0  0  0
   45.1200   36.1200   43.2640 C   0  0  0  0  0  0  0  0  0  0  0  0
   46.0700   35.1790   42.9870 C   0  0  0  0  0  0  0  0  0  0  0  0
   46.3840   34.1680   43.9000 C   0  0  0  0  0  0  0  0  0  0  0  0
   44.2690   35.0220   46.2990 H   0  0  0  0  0  0  0  0  0  0  0  0
   43.7170   36.8120   44.6760 H   0  0  0  0  0  0  0  0  0  0  0  0
   44.8720   36.9070   42.5630 H   0  0  0  0  0  0  0  0  0  0  0  0
   46.5570   35.2670   42.0230 H   0  0  0  0  0  0  0  0  0  0  0  0
   47.3300   31.1490   46.5950 C   0  0  0  0  0  0  0  0  0  0  0  0
   46.7020   31.0380   47.8410 C   0  0  0  0  0  0  0  0  0  0  0  0
   45.7370   31.9800   48.1590 C   0  0  0  0  0  0  0  0  0  0  0  0
   45.4200   32.9690   47.2830 N   0  0  0  0  0  0  0  0  0  0  0  0
   46.0540   33.0460   46.0730 C   0  0  0  0  0  0  0  0  0  0  0  0
   46.9930   32.1300   45.7650 N   0  0  0  0  0  0  0  0  0  0  0  0
   48.1000   30.4470   46.2720 H   0  0  0  0  0  0  0  0  0  0  0  0
   47.0220   30.2170   48.4700 H   0  0  0  0  0  0  0  0  0  0  0  0
   45.2550   31.8870   49.1230 H   0  0  0  0  0  0  0  0  0  0  0  0
   47.3880   33.2770   43.4540 N   0  0  0  0  0  0  0  0  0  0  0  0
   47.1710   32.2960   43.7590 H   0  0  0  0  0  0  0  0  0  0  0  0
   48.8270   33.4990   42.5520 S   0  0  0  0  0  0  0  0  0  0  0  0
   48.4510   34.1040   41.2090 O   0  0  0  0  0  0  0  0  0  0  0  0
   49.0250   34.1130   40.4150 H   0  0  0  0  0  0  0  0  0  0  0  0
   49.8320   34.3780   43.2110 O   0  0  0  0  0  0  0  0  0  0  0  0
   50.2010   34.1390   44.0950 H   0  0  0  0  0  0  0  0  0  0  0  0
   49.4130   31.9540   42.2160 O   0  0  0  0  0  0  0  0  0  0  0  0
   47.9870   31.2000   39.6560 Cl  0  0  0  0  0  0  0  0  0  0  0  0
   49.7170   31.3580   39.8160 C   0  0  0  0  0  0  0  0  0  0  0  0
   50.1510   31.7080   41.0650 C   0  0  0  0  0  0  0  0  0  0  0  0
   51.5160   31.8580   41.2880 C   0  0  0  0  0  0  0  0  0  0  0  0
   51.9790   32.1310   42.2310 H   0  0  0  0  0  0  0  0  0  0  0  0
   52.4270   31.6550   40.2620 C   0  0  0  0  0  0  0  0  0  0  0  0
   51.9920   31.3000   38.9960 C   0  0  0  0  0  0  0  0  0  0  0  0
   53.1130   31.0360   37.6720 Cl  0  0  0  0  0  0  0  0  0  0  0  0
   50.6370   31.1600   38.8040 C   0  0  0  0  0  0  0  0  0  0  0  0
   50.2430   30.8850   37.8400 H   0  0  0  0  0  0  0  0  0  0  0  0
  1  2  1  0  0  0  0
  1 15  1  0  0  0  0
  2  7  1  0  0  0  0
  3  8  1  0  0  0  0
  3  2  2  0  0  0  0
  4  3  1  0  0  0  0
  5  4  2  0  0  0  0
  5  6  1  0  0  0  0
  6  1  2  0  0  0  0
  9  4  1  0  0  0  0
 10  5  1  0  0  0  0
 11 12  1  0  0  0  0
 12 13  2  0  0  0  0
 12 18  1  0  0  0  0
 13 19  1  0  0  0  0
 14 13  1  0  0  0  0
 15 14  2  0  0  0  0
 16 15  1  0  0  0  0
 16 11  2  0  0  0  0
 17 11  1  0  0  0  0
 20 21  1  0  0  0  0
 20  6  1  0  0  0  0
 22 25  1  0  0  0  0
 22 20  1  0  0  0  0
 23 22  1  0  0  0  0
 24 23  1  0  0  0  0
 25 26  1  0  0  0  0
 27 22  1  0  0  0  0
 28 29  1  0  0  0  0
 29 30  1  0  0  0  0
 30 31  2  0  0  0  0
 30 27  1  0  0  0  0
 31 32  1  0  0  0  0
 33 31  1  0  0  0  0
 34 33  2  0  0  0  0
 35 34  1  0  0  0  0
 36 34  1  0  0  0  0
 36 29  2  0  0  0  0
 37 36  1  0  0  0  0
M  END
>  <minimizedAffinity>
-5.97910166

>  <minimizedRMSD>
3.00967503

$$$$
