
 OpenBabel03242515393D

 37 40  0  0  0  0  0  0  0  0999 V2000
   44.0260   34.8070   41.0670 C   0  0  0  0  0  0  0  0  0  0  0  0
   43.9740   33.9250   40.0010 C   0  0  0  0  0  0  0  0  0  0  0  0
   45.1710   33.3400   39.5910 C   0  0  0  0  0  0  0  0  0  0  0  0
   46.3090   33.6740   40.2630 N   0  0  0  0  0  0  0  0  0  0  0  0
   46.3240   34.5280   41.2840 C   0  0  0  0  0  0  0  0  0  0  0  0
   45.1830   35.0740   41.6630 N   0  0  0  0  0  0  0  0  0  0  0  0
   43.0410   33.7090   39.5200 H   0  0  0  0  0  0  0  0  0  0  0  0
   42.5580   32.8320   38.3010 Cl  0  0  0  0  0  0  0  0  0  0  0  0
   44.0800   32.0870   37.8110 C   0  0  0  0  0  0  0  0  0  0  0  0
   45.2240   32.4110   38.4960 C   0  0  0  0  0  0  0  0  0  0  0  0
   46.3610   31.7810   38.0400 C   0  0  0  0  0  0  0  0  0  0  0  0
   47.3000   31.9840   38.5300 H   0  0  0  0  0  0  0  0  0  0  0  0
   46.3510   30.8830   36.9660 C   0  0  0  0  0  3  0  0  0  0  0  0
   45.1480   30.6100   36.3250 C   0  0  0  0  0  0  0  0  0  0  0  0
   45.1960   29.4840   34.9920 Cl  0  0  0  0  0  0  0  0  0  0  0  0
   43.9850   31.2250   36.7560 C   0  0  0  0  0  0  0  0  0  0  0  0
   43.0520   31.0030   36.2460 H   0  0  0  0  0  0  0  0  0  0  0  0
   42.4540   35.5480   41.5700 S   0  0  0  0  0  0  0  0  0  0  0  0
   40.2570   35.0280   40.0910 C   0  0  0  0  0  0  0  0  0  0  0  0
   41.0920   34.4990   41.0800 C   0  0  0  0  0  0  0  0  0  0  0  0
   40.8510   33.2470   41.6170 C   0  0  0  0  0  0  0  0  0  0  0  0
   39.7820   32.4720   41.2040 C   0  0  0  0  0  0  0  0  0  0  0  0
   38.9420   33.0100   40.2070 C   0  0  0  0  0  0  0  0  0  0  0  0
   39.1750   34.2660   39.6590 C   0  0  0  0  0  0  0  0  0  0  0  0
   37.9390   32.0400   39.9600 O   0  0  0  0  0  0  0  0  0  0  0  0
   37.9810   31.1570   41.0530 C   0  0  0  0  0  0  0  0  0  0  0  0
   39.3090   31.2190   41.5540 O   0  0  0  0  0  0  0  0  0  0  0  0
   40.4090   35.9950   39.6480 H   0  0  0  0  0  0  0  0  0  0  0  0
   41.5300   32.8920   42.3780 H   0  0  0  0  0  0  0  0  0  0  0  0
   38.5400   34.6760   38.9040 H   0  0  0  0  0  0  0  0  0  0  0  0
   37.6570   30.1360   40.8150 H   0  0  0  0  0  0  0  0  0  0  0  0
   37.3380   31.6080   41.8540 H   0  0  0  0  0  0  0  0  0  0  0  0
   47.4540   34.8780   41.9740 O   0  0  0  0  0  0  0  0  0  0  0  0
   48.6340   35.1690   41.2870 C   0  0  0  0  0  0  0  0  0  0  0  0
   49.6100   34.2300   41.4880 F   0  0  0  0  0  0  0  0  0  0  0  0
   48.2600   35.2850   39.9390 F   0  0  0  0  0  0  0  0  0  0  0  0
   49.1080   36.3780   41.7710 F   0  0  0  0  0  0  0  0  0  0  0  0
  1 18  1  0  0  0  0
  1  6  1  0  0  0  0
  2  1  2  0  0  0  0
  3  2  1  0  0  0  0
  3  4  2  0  0  0  0
  4  5  1  0  0  0  0
  5  6  2  0  0  0  0
  5 33  1  0  0  0  0
  7  2  1  0  0  0  0
  9  8  1  0  0  0  0
  9 10  1  0  0  0  0
 10  3  1  0  0  0  0
 11 10  2  0  0  0  0
 11 12  1  0  0  0  0
 13 11  1  0  0  0  0
 14 16  1  0  0  0  0
 14 13  2  0  0  0  0
 15 14  1  0  0  0  0
 16  9  2  0  0  0  0
 17 16  1  0  0  0  0
 19 20  1  0  0  0  0
 20 18  1  0  0  0  0
 20 21  2  0  0  0  0
 21 29  1  0  0  0  0
 22 27  1  0  0  0  0
 22 21  1  0  0  0  0
 23 22  2  0  0  0  0
 24 19  2  0  0  0  0
 24 23  1  0  0  0  0
 25 23  1  0  0  0  0
 25 26  1  0  0  0  0
 26 27  1  0  0  0  0
 26 32  1  0  0  0  0
 28 19  1  0  0  0  0
 30 24  1  0  0  0  0
 31 26  1  0  0  0  0
 34 35  1  0  0  0  0
 34 37  1  0  0  0  0
 34 33  1  0  0  0  0
 36 34  1  0  0  0  0
M  END
>  <minimizedAffinity>
-6.19204521

>  <minimizedRMSD>
0.431252033

$$$$
