
 OpenBabel03252506523D

 32 35  0  0  0  0  0  0  0  0999 V2000
   47.2590   31.3160   45.0180 C   0  0  0  0  0  0  0  0  0  0  0  0
   46.9600   32.6610   44.9200 C   0  0  0  0  0  0  0  0  0  0  0  0
   46.2740   33.3620   45.9040 C   0  0  0  0  0  0  0  0  0  0  0  0
   45.8650   32.6650   47.0510 C   0  0  0  0  0  0  0  0  0  0  0  0
   45.1900   33.0050   48.1900 N   0  0  0  0  0  0  0  0  0  0  0  0
   45.0820   31.8930   48.9630 C   0  0  0  0  0  0  0  0  0  0  0  0
   45.6840   30.8890   48.2960 N   0  0  0  0  0  0  0  0  0  0  0  0
   46.1720   31.3290   47.1240 C   0  0  0  0  0  0  0  0  0  0  0  0
   46.8490   30.6310   46.1590 C   0  0  0  0  0  0  0  0  0  0  0  0
   47.8010   30.8260   44.2090 H   0  0  0  0  0  0  0  0  0  0  0  0
   46.0440   34.3990   45.8290 H   0  0  0  0  0  0  0  0  0  0  0  0
   44.8390   33.9700   48.3880 H   0  0  0  0  0  0  0  0  0  0  0  0
   44.5870   31.9370   49.9040 H   0  0  0  0  0  0  0  0  0  0  0  0
   49.2070   29.8760   47.8530 Cl  0  0  0  0  0  0  0  0  0  0  0  0
   48.2410   28.6900   46.9770 C   0  0  0  0  0  0  0  0  0  0  0  0
   47.1780   29.2110   46.2350 C   0  0  0  0  0  0  0  0  0  0  0  0
   46.4060   28.2920   45.5370 C   0  0  0  0  0  0  0  0  0  0  0  0
   45.5710   28.6630   44.9500 H   0  0  0  0  0  0  0  0  0  0  0  0
   46.6260   26.9250   45.5380 C   0  0  0  0  0  3  0  0  0  0  0  0
   47.6790   26.4710   46.2790 C   0  0  0  0  0  0  0  0  0  0  0  0
   48.0190   24.7650   46.3280 Cl  0  0  0  0  0  0  0  0  0  0  0  0
   48.4740   27.3310   46.9860 C   0  0  0  0  0  0  0  0  0  0  0  0
   49.3210   27.0100   47.5890 H   0  0  0  0  0  0  0  0  0  0  0  0
   47.0520   35.1630   42.2180 C   0  0  0  0  0  0  0  0  0  0  0  0
   48.2080   34.7760   41.5030 C   0  0  0  0  0  0  0  0  0  0  0  0
   48.9470   33.6580   41.9540 C   0  0  0  0  0  0  0  0  0  0  0  0
   48.4870   33.0160   43.0710 N   0  0  0  0  0  0  0  0  0  0  0  0
   47.3760   33.4100   43.7350 C   0  0  0  0  0  0  0  0  0  0  0  0
   46.6840   34.4630   43.3050 N   0  0  0  0  0  0  0  0  0  0  0  0
   46.5300   36.0170   41.8300 H   0  0  0  0  0  0  0  0  0  0  0  0
   48.5940   35.2640   40.6180 H   0  0  0  0  0  0  0  0  0  0  0  0
   49.8300   33.2920   41.4820 H   0  0  0  0  0  0  0  0  0  0  0  0
  1  9  1  0  0  0  0
  2  1  2  0  0  0  0
  2  3  1  0  0  0  0
  3  4  2  0  0  0  0
  4  8  1  0  0  0  0
  4  5  1  0  0  0  0
  5 12  1  0  0  0  0
  5  6  1  0  0  0  0
  6 13  1  0  0  0  0
  7  6  2  0  0  0  0
  8  7  1  0  0  0  0
  9 16  1  0  0  0  0
  9  8  2  0  0  0  0
 10  1  1  0  0  0  0
 11  3  1  0  0  0  0
 15 22  1  0  0  0  0
 15 14  1  0  0  0  0
 16 15  2  0  0  0  0
 17 19  2  0  0  0  0
 17 16  1  0  0  0  0
 18 17  1  0  0  0  0
 19 20  1  0  0  0  0
 20 21  1  0  0  0  0
 20 22  2  0  0  0  0
 22 23  1  0  0  0  0
 24 29  1  0  0  0  0
 25 26  1  0  0  0  0
 25 24  2  0  0  0  0
 26 27  2  0  0  0  0
 27 28  1  0  0  0  0
 28  2  1  0  0  0  0
 29 28  2  0  0  0  0
 30 24  1  0  0  0  0
 31 25  1  0  0  0  0
 32 26  1  0  0  0  0
M  END
>  <minimizedAffinity>
-5.32019758

>  <minimizedRMSD>
1.24325418

$$$$
