
 OpenBabel03252508463D

 46 48  0  0  0  0  0  0  0  0999 V2000
   42.6880   31.3160   42.6720 N   0  0  0  0  0  0  0  0  0  0  0  0
   42.9510   31.6070   43.6520 H   0  0  0  0  0  0  0  0  0  0  0  0
   42.9640   32.3640   41.7400 C   0  0  0  0  0  0  0  0  0  0  0  0
   43.4440   31.9330   40.8400 H   0  0  0  0  0  0  0  0  0  0  0  0
   42.0270   32.8600   41.3810 H   0  0  0  0  0  0  0  0  0  0  0  0
   43.6550   34.7690   41.9340 C   0  0  0  0  0  0  0  0  0  0  0  0
   43.8730   33.4260   42.2650 C   0  0  0  0  0  0  0  0  0  0  0  0
   44.9390   33.1200   43.0830 C   0  0  0  0  0  0  0  0  0  0  0  0
   45.7600   34.1030   43.5550 C   0  0  0  0  0  0  0  0  0  0  0  0
   45.5650   35.4300   43.2410 C   0  0  0  0  0  0  0  0  0  0  0  0
   44.4830   35.7080   42.4170 C   0  0  0  0  0  0  0  0  0  0  0  0
   45.0610   32.0670   43.3080 H   0  0  0  0  0  0  0  0  0  0  0  0
   46.5750   33.7800   44.1890 H   0  0  0  0  0  0  0  0  0  0  0  0
   46.2340   36.1780   43.6340 H   0  0  0  0  0  0  0  0  0  0  0  0
   44.2960   36.7400   42.1480 H   0  0  0  0  0  0  0  0  0  0  0  0
   40.2270   35.6040   40.5920 C   0  0  0  0  0  0  0  0  0  0  0  0
   41.2500   35.3630   41.5330 C   0  0  0  0  0  0  0  0  0  0  0  0
   42.5210   35.0390   41.0700 C   0  0  0  0  0  0  0  0  0  0  0  0
   42.6910   34.9760   39.7160 N   0  0  0  0  0  0  0  0  0  0  0  0
   41.6920   35.2130   38.8300 C   0  0  0  0  0  0  0  0  0  0  0  0
   40.4720   35.5230   39.2830 N   0  0  0  0  0  0  0  0  0  0  0  0
   39.3060   35.8380   41.0840 H   0  0  0  0  0  0  0  0  0  0  0  0
   41.1510   35.4010   42.5900 H   0  0  0  0  0  0  0  0  0  0  0  0
   41.8140   35.1640   37.7700 H   0  0  0  0  0  0  0  0  0  0  0  0
   41.0190   30.9030   42.7260 S   0  0  0  0  0  0  0  0  0  0  0  0
   40.1600   32.0850   42.3430 O   0  0  0  0  0  0  0  0  0  0  0  0
   40.0550   32.4040   41.4000 H   0  0  0  0  0  0  0  0  0  0  0  0
   40.6330   30.3710   44.0530 O   0  0  0  0  0  0  0  0  0  0  0  0
   41.1250   30.3780   44.9070 H   0  0  0  0  0  0  0  0  0  0  0  0
   40.7960   29.6850   41.5850 O   0  0  0  0  0  0  0  0  0  0  0  0
   40.2860   28.5720   42.2050 C   0  0  0  0  0  0  0  0  0  0  0  0
   39.5500   28.1180   41.5100 H   0  0  0  0  0  0  0  0  0  0  0  0
   39.7640   28.7420   43.1550 H   0  0  0  0  0  0  0  0  0  0  0  0
   41.4210   27.5550   42.4250 C   0  0  0  0  0  0  0  0  0  0  0  0
   42.2360   28.1180   42.8820 H   0  0  0  0  0  0  0  0  0  0  0  0
   41.7380   27.2240   41.4400 H   0  0  0  0  0  0  0  0  0  0  0  0
   42.1130   27.5800   45.4140 Cl  0  0  0  0  0  0  0  0  0  0  0  0
   41.1840   26.3230   44.6260 C   0  0  0  0  0  0  0  0  0  0  0  0
   40.9380   26.4390   43.2750 C   0  0  0  0  0  0  0  0  0  0  0  0
   40.1930   25.4440   42.6320 C   0  0  0  0  0  0  0  0  0  0  0  0
   39.9860   25.5170   41.5720 H   0  0  0  0  0  0  0  0  0  0  0  0
   39.7020   24.3510   43.3170 C   0  0  0  0  0  3  0  0  0  0  0  0
   39.9710   24.2740   44.6590 C   0  0  0  0  0  0  0  0  0  0  0  0
   39.3340   22.8650   45.5130 Cl  0  0  0  0  0  0  0  0  0  0  0  0
   40.7040   25.2340   45.3470 C   0  0  0  0  0  0  0  0  0  0  0  0
   40.8950   25.1330   46.4260 H   0  0  0  0  0  0  0  0  0  0  0  0
  1 25  1  0  0  0  0
  1  2  1  0  0  0  0
  3  7  1  0  0  0  0
  3  1  1  0  0  0  0
  4  3  1  0  0  0  0
  5  3  1  0  0  0  0
  6  7  2  0  0  0  0
  6 11  1  0  0  0  0
  7  8  1  0  0  0  0
  8 12  1  0  0  0  0
  8  9  2  0  0  0  0
  9 13  1  0  0  0  0
 10  9  1  0  0  0  0
 10 14  1  0  0  0  0
 11 10  2  0  0  0  0
 15 11  1  0  0  0  0
 16 22  1  0  0  0  0
 16 17  1  0  0  0  0
 17 23  1  0  0  0  0
 18 17  2  0  0  0  0
 18  6  1  0  0  0  0
 19 18  1  0  0  0  0
 20 21  1  0  0  0  0
 20 19  2  0  0  0  0
 21 16  2  0  0  0  0
 24 20  1  0  0  0  0
 25 28  1  0  0  0  0
 26 25  1  0  0  0  0
 27 26  1  0  0  0  0
 28 29  1  0  0  0  0
 30 31  1  0  0  0  0
 30 25  1  0  0  0  0
 31 34  1  0  0  0  0
 31 33  1  0  0  0  0
 32 31  1  0  0  0  0
 34 35  1  0  0  0  0
 34 39  1  0  0  0  0
 36 34  1  0  0  0  0
 38 45  1  0  0  0  0
 38 37  1  0  0  0  0
 39 38  2  0  0  0  0
 40 39  1  0  0  0  0
 40 42  2  0  0  0  0
 41 40  1  0  0  0  0
 42 43  1  0  0  0  0
 43 45  2  0  0  0  0
 43 44  1  0  0  0  0
 45 46  1  0  0  0  0
M  END
>  <minimizedAffinity>
-5.40816402

>  <minimizedRMSD>
1.34999585

$$$$
