
 OpenBabel03252508143D

 38 41  0  0  1  0  0  0  0  0999 V2000
   46.2230   32.9820   45.8580 C   0  0  0  0  0  3  0  0  0  0  0  0
   46.8070   31.8890   45.5800 C   0  0  0  0  0  3  0  0  0  0  0  0
   44.7800   35.7610   43.9190 C   0  0  0  0  0  0  0  0  0  0  0  0
   45.3200   35.5880   42.6520 C   0  0  0  0  0  0  0  0  0  0  0  0
   46.1830   34.5180   42.5010 C   0  0  0  0  0  0  0  0  0  0  0  0
   46.4560   33.7130   43.5530 N   0  0  0  0  0  0  0  0  0  0  0  0
   45.9160   33.9060   44.7670 C   0  0  0  0  0  0  0  0  0  0  0  0
   45.0810   34.9400   44.9240 N   0  0  0  0  0  0  0  0  0  0  0  0
   44.0940   36.5380   44.2190 H   0  0  0  0  0  0  0  0  0  0  0  0
   44.9730   36.3340   41.9630 H   0  0  0  0  0  0  0  0  0  0  0  0
   48.8860   35.8230   41.8520 Cl  0  0  0  0  0  0  0  0  0  0  0  0
   47.9320   34.8630   40.7540 C   0  0  0  0  0  0  0  0  0  0  0  0
   46.7330   34.3360   41.1770 C   0  0  0  0  0  0  0  0  0  0  0  0
   46.1110   33.6010   40.1970 C   0  0  0  0  0  0  0  0  0  0  0  0
   45.1750   33.1230   40.3530 H   0  0  0  0  0  0  0  0  0  0  0  0
   46.6140   33.4040   38.9280 C   0  0  0  0  0  3  0  0  0  0  0  0
   47.8180   33.9560   38.5620 C   0  0  0  0  0  0  0  0  0  0  0  0
   48.4730   33.7210   36.9670 Cl  0  0  0  0  0  0  0  0  0  0  0  0
   48.4900   34.7070   39.5090 C   0  0  0  0  0  0  0  0  0  0  0  0
   49.4340   35.1340   39.2070 H   0  0  0  0  0  0  0  0  0  0  0  0
   47.0810   30.9720   46.7640 C   0  0  0  0  0  0  0  0  0  0  0  0
   46.3160   30.1480   46.7090 H   0  0  0  0  0  0  0  0  0  0  0  0
   48.0650   30.5080   46.7040 H   0  0  0  0  0  0  0  0  0  0  0  0
   46.8490   31.7230   48.0360 C   0  0  1  0  0  0  0  0  0  0  0  0
   46.2160   30.9680   49.1590 C   0  0  0  0  0  0  0  0  0  0  0  0
   47.6100   31.3550   49.2590 C   0  0  1  0  0  0  0  0  0  0  0  0
   46.5390   32.7930   47.9470 H   0  0  0  0  0  0  0  0  0  0  0  0
   45.4220   31.4540   49.7830 H   0  0  0  0  0  0  0  0  0  0  0  0
   46.0260   29.8660   49.0210 H   0  0  0  0  0  0  0  0  0  0  0  0
   47.8160   32.2070   49.9760 H   0  0  0  0  0  0  0  0  0  0  0  0
   48.7620   30.4430   49.1050 C   0  0  0  0  0  0  0  0  0  0  0  0
   49.6160   30.2760   50.3920 C   0  0  0  0  0  0  0  0  0  0  0  0
   50.1570   31.0910   49.2680 C   0  0  0  0  0  0  0  0  0  0  0  0
   48.7090   29.5720   48.4370 H   0  0  0  0  0  0  0  0  0  0  0  0
   50.0890   29.2760   50.4850 H   0  0  0  0  0  0  0  0  0  0  0  0
   49.2760   30.8070   51.2980 H   0  0  0  0  0  0  0  0  0  0  0  0
   50.9230   30.7120   48.5880 H   0  0  0  0  0  0  0  0  0  0  0  0
   50.1810   32.1990   49.3600 H   0  0  0  0  0  0  0  0  0  0  0  0
  2  1  2  0  0  0  0
  2 21  1  0  0  0  0
  3  9  1  0  0  0  0
  3  8  1  0  0  0  0
  4  3  2  0  0  0  0
  5  4  1  0  0  0  0
  5  6  2  0  0  0  0
  6  7  1  0  0  0  0
  7  8  2  0  0  0  0
  7  1  1  0  0  0  0
 10  4  1  0  0  0  0
 12 13  1  0  0  0  0
 12 11  1  0  0  0  0
 13  5  1  0  0  0  0
 14 15  1  0  0  0  0
 14 13  2  0  0  0  0
 16 14  1  0  0  0  0
 17 16  2  0  0  0  0
 17 19  1  0  0  0  0
 18 17  1  0  0  0  0
 19 12  2  0  0  0  0
 20 19  1  0  0  0  0
 21 24  1  0  0  0  0
 22 21  1  0  0  0  0
 23 21  1  0  0  0  0
 24 27  1  6  0  0  0
 24 25  1  0  0  0  0
 24 26  1  0  0  0  0
 25 26  1  0  0  0  0
 25 28  1  0  0  0  0
 26 30  1  1  0  0  0
 29 25  1  0  0  0  0
 31 26  1  0  0  0  0
 31 33  1  0  0  0  0
 31 32  1  0  0  0  0
 32 35  1  0  0  0  0
 32 36  1  0  0  0  0
 33 38  1  0  0  0  0
 33 32  1  0  0  0  0
 34 31  1  0  0  0  0
 37 33  1  0  0  0  0
M  END
>  <minimizedAffinity>
-6.17110682

>  <minimizedRMSD>
0.870938897

$$$$
