
 OpenBabel03242512103D

 34 36  0  0  1  0  0  0  0  0999 V2000
   39.1490   31.2390   39.3020 C   0  0  1  0  0  0  0  0  0  0  0  0
   39.3530   30.4920   40.6780 C   0  0  0  0  0  0  0  0  0  0  0  0
   38.0300   30.7430   40.0940 C   0  0  2  0  0  0  0  0  0  0  0  0
   39.5110   30.6350   38.4550 H   0  0  0  0  0  0  0  0  0  0  0  0
   39.8310   29.4900   40.6000 H   0  0  0  0  0  0  0  0  0  0  0  0
   39.7480   31.1060   41.5110 H   0  0  0  0  0  0  0  0  0  0  0  0
   37.3610   31.5480   40.4180 H   0  0  0  0  0  0  0  0  0  0  0  0
   39.5600   32.6670   39.3830 C   0  0  0  0  0  0  0  0  0  0  0  0
   38.7280   33.4730   39.7880 O   0  0  0  0  0  0  0  0  0  0  0  0
   41.7100   33.7120   39.9140 C   0  0  0  0  0  0  0  0  0  0  0  0
   40.8500   33.1590   39.0260 C   0  0  0  0  0  0  0  0  0  0  0  0
   41.2800   33.0690   37.6730 C   0  0  0  0  0  0  0  0  0  0  0  0
   42.5010   33.5240   37.3080 N   0  0  0  0  0  0  0  0  0  0  0  0
   43.3320   34.0740   38.2420 C   0  0  0  0  0  0  0  0  0  0  0  0
   42.9400   34.1610   39.5020 N   0  0  0  0  0  0  0  0  0  0  0  0
   41.3780   33.7780   40.9410 H   0  0  0  0  0  0  0  0  0  0  0  0
   40.7070   32.6580   36.8860 H   0  0  0  0  0  0  0  0  0  0  0  0
   44.3230   34.4670   38.0690 H   0  0  0  0  0  0  0  0  0  0  0  0
   37.3510   29.5900   39.7160 O   0  0  0  0  0  0  0  0  0  0  0  0
   34.7980   29.2640   39.5770 O   0  0  0  0  0  0  0  0  0  0  0  0
   35.8860   29.5820   40.5840 P   0  0  2  0  0  0  0  0  0  0  0  0
   35.5990   31.0130   41.3870 O   0  0  0  0  0  0  0  0  0  0  0  0
   36.4320   31.5240   41.5480 H   0  0  0  0  0  0  0  0  0  0  0  0
   35.9250   28.2490   41.6570 O   0  0  0  0  0  0  0  0  0  0  0  0
   36.5540   25.9050   40.0360 Cl  0  0  0  0  0  0  0  0  0  0  0  0
   37.4620   26.5030   41.4170 C   0  0  0  0  0  0  0  0  0  0  0  0
   37.0620   27.6370   42.1160 C   0  0  0  0  0  0  0  0  0  0  0  0
   37.8390   28.0260   43.1850 C   0  0  0  0  0  0  0  0  0  0  0  0
   37.5170   28.9090   43.7190 H   0  0  0  0  0  0  0  0  0  0  0  0
   38.9730   27.3360   43.5680 C   0  0  0  0  0  3  0  0  0  0  0  0
   39.3840   26.2000   42.8780 C   0  0  0  0  0  0  0  0  0  0  0  0
   40.8040   25.2890   43.3140 Cl  0  0  0  0  0  0  0  0  0  0  0  0
   38.5930   25.8130   41.7980 C   0  0  0  0  0  0  0  0  0  0  0  0
   38.9130   24.9330   41.2660 H   0  0  0  0  0  0  0  0  0  0  0  0
  1  4  1  6  0  0  0
  1  8  1  0  0  0  0
  1  3  1  0  0  0  0
  1  2  1  0  0  0  0
  2  6  1  0  0  0  0
  3  7  1  1  0  0  0
  3  2  1  0  0  0  0
  5  2  1  0  0  0  0
  8  9  2  0  0  0  0
 10 16  1  0  0  0  0
 11  8  1  0  0  0  0
 11 10  2  0  0  0  0
 12 11  1  0  0  0  0
 13 12  2  0  0  0  0
 13 14  1  0  0  0  0
 14 15  2  0  0  0  0
 15 10  1  0  0  0  0
 17 12  1  0  0  0  0
 18 14  1  0  0  0  0
 19  3  1  0  0  0  0
 19 21  1  0  0  0  0
 21 20  2  6  0  0  0
 21 22  1  0  0  0  0
 21 24  1  0  0  0  0
 22 23  1  0  0  0  0
 24 27  1  0  0  0  0
 25 26  1  0  0  0  0
 26 33  2  0  0  0  0
 26 27  1  0  0  0  0
 27 28  2  0  0  0  0
 28 30  1  0  0  0  0
 28 29  1  0  0  0  0
 31 32  1  0  0  0  0
 31 30  2  0  0  0  0
 33 31  1  0  0  0  0
 34 33  1  0  0  0  0
M  END
>  <minimizedAffinity>
-5.69606113

$$$$

 OpenBabel03242512103D

 34 36  0  0  1  0  0  0  0  0999 V2000
   37.8700   32.2450   39.1920 C   0  0  1  0  0  0  0  0  0  0  0  0
   38.0310   31.6290   37.7470 C   0  0  0  0  0  0  0  0  0  0  0  0
   37.6310   30.8340   38.9140 C   0  0  2  0  0  0  0  0  0  0  0  0
   37.0090   32.9300   39.2470 H   0  0  0  0  0  0  0  0  0  0  0  0
   37.2780   31.9730   37.0040 H   0  0  0  0  0  0  0  0  0  0  0  0
   39.0630   31.5950   37.3450 H   0  0  0  0  0  0  0  0  0  0  0  0
   38.3110   30.1800   39.4720 H   0  0  0  0  0  0  0  0  0  0  0  0
   39.1740   32.6970   39.7480 C   0  0  0  0  0  0  0  0  0  0  0  0
   39.4950   33.8660   39.5600 O   0  0  0  0  0  0  0  0  0  0  0  0
   41.2160   31.3620   39.9670 C   0  0  0  0  0  0  0  0  0  0  0  0
   40.0700   31.8670   40.4840 C   0  0  0  0  0  0  0  0  0  0  0  0
   39.7660   31.5400   41.8350 C   0  0  0  0  0  0  0  0  0  0  0  0
   40.6010   30.7570   42.5570 N   0  0  0  0  0  0  0  0  0  0  0  0
   41.7460   30.2740   41.9900 C   0  0  0  0  0  0  0  0  0  0  0  0
   42.0350   30.5720   40.7350 N   0  0  0  0  0  0  0  0  0  0  0  0
   41.4420   31.6140   38.9400 H   0  0  0  0  0  0  0  0  0  0  0  0
   38.9080   31.8710   42.3550 H   0  0  0  0  0  0  0  0  0  0  0  0
   42.4830   29.6440   42.4660 H   0  0  0  0  0  0  0  0  0  0  0  0
   36.3360   30.3360   38.8410 O   0  0  0  0  0  0  0  0  0  0  0  0
   34.7360   28.9000   40.2650 O   0  0  0  0  0  0  0  0  0  0  0  0
   35.9160   29.8410   40.4160 P   0  0  2  0  0  0  0  0  0  0  0  0
   35.5730   31.1200   41.4280 O   0  0  0  0  0  0  0  0  0  0  0  0
   35.9820   31.9650   41.1140 H   0  0  0  0  0  0  0  0  0  0  0  0
   37.1980   28.8810   41.0180 O   0  0  0  0  0  0  0  0  0  0  0  0
   36.5920   27.4810   43.5060 Cl  0  0  0  0  0  0  0  0  0  0  0  0
   37.0520   26.7520   41.9740 C   0  0  0  0  0  0  0  0  0  0  0  0
   37.3180   27.5270   40.8490 C   0  0  0  0  0  0  0  0  0  0  0  0
   37.6710   26.8630   39.6950 C   0  0  0  0  0  0  0  0  0  0  0  0
   37.8750   27.4780   38.8300 H   0  0  0  0  0  0  0  0  0  0  0  0
   37.7640   25.4860   39.6300 C   0  0  0  0  0  3  0  0  0  0  0  0
   37.5010   24.7000   40.7470 C   0  0  0  0  0  0  0  0  0  0  0  0
   37.6020   22.9600   40.7250 Cl  0  0  0  0  0  0  0  0  0  0  0  0
   37.1440   25.3780   41.9110 C   0  0  0  0  0  0  0  0  0  0  0  0
   36.9410   24.7670   42.7730 H   0  0  0  0  0  0  0  0  0  0  0  0
  1  4  1  1  0  0  0
  1  8  1  0  0  0  0
  2  3  1  0  0  0  0
  2  1  1  0  0  0  0
  3  1  1  0  0  0  0
  3  7  1  1  0  0  0
  5  2  1  0  0  0  0
  6  2  1  0  0  0  0
  8 11  1  0  0  0  0
  9  8  2  0  0  0  0
 10 11  2  0  0  0  0
 10 15  1  0  0  0  0
 11 12  1  0  0  0  0
 12 17  1  0  0  0  0
 12 13  2  0  0  0  0
 14 18  1  0  0  0  0
 14 13  1  0  0  0  0
 15 14  2  0  0  0  0
 16 10  1  0  0  0  0
 19  3  1  0  0  0  0
 19 21  1  0  0  0  0
 21 20  2  6  0  0  0
 21 24  1  0  0  0  0
 21 22  1  0  0  0  0
 23 22  1  0  0  0  0
 26 25  1  0  0  0  0
 27 24  1  0  0  0  0
 27 26  2  0  0  0  0
 28 27  1  0  0  0  0
 29 28  1  0  0  0  0
 30 28  2  0  0  0  0
 30 31  1  0  0  0  0
 31 33  2  0  0  0  0
 32 31  1  0  0  0  0
 33 26  1  0  0  0  0
 33 34  1  0  0  0  0
M  END
>  <minimizedAffinity>
-5.39253473

$$$$

 OpenBabel03242512103D

 34 36  0  0  1  0  0  0  0  0999 V2000
   38.6630   27.2410   43.4750 C   0  0  1  0  0  0  0  0  0  0  0  0
   39.6760   28.3170   42.9200 C   0  0  0  0  0  0  0  0  0  0  0  0
   38.2820   28.2280   42.4710 C   0  0  2  0  0  0  0  0  0  0  0  0
   38.4080   27.4300   44.5300 H   0  0  0  0  0  0  0  0  0  0  0  0
   39.9910   29.0890   43.6580 H   0  0  0  0  0  0  0  0  0  0  0  0
   40.5120   27.9270   42.3070 H   0  0  0  0  0  0  0  0  0  0  0  0
   37.9700   27.7620   41.5290 H   0  0  0  0  0  0  0  0  0  0  0  0
   39.0470   25.8610   43.0720 C   0  0  0  0  0  0  0  0  0  0  0  0
   39.9710   25.3310   43.6790 O   0  0  0  0  0  0  0  0  0  0  0  0
   37.1330   24.6790   42.1050 C   0  0  0  0  0  0  0  0  0  0  0  0
   38.4130   25.1160   42.0350 C   0  0  0  0  0  0  0  0  0  0  0  0
   39.1410   24.8090   40.8520 C   0  0  0  0  0  0  0  0  0  0  0  0
   38.5620   24.1080   39.8500 N   0  0  0  0  0  0  0  0  0  0  0  0
   37.2670   23.6890   39.9700 C   0  0  0  0  0  0  0  0  0  0  0  0
   36.5830   23.9710   41.0650 N   0  0  0  0  0  0  0  0  0  0  0  0
   36.5830   24.9160   43.0060 H   0  0  0  0  0  0  0  0  0  0  0  0
   40.1430   25.0940   40.6730 H   0  0  0  0  0  0  0  0  0  0  0  0
   36.7030   23.1260   39.2400 H   0  0  0  0  0  0  0  0  0  0  0  0
   37.5050   29.3270   42.8180 O   0  0  0  0  0  0  0  0  0  0  0  0
   38.3450   31.2990   41.3850 O   0  0  0  0  0  0  0  0  0  0  0  0
   37.2710   30.2270   41.3910 P   0  0  2  0  0  0  0  0  0  0  0  0
   35.7400   30.8720   41.2740 O   0  0  0  0  0  0  0  0  0  0  0  0
   35.0850   30.3830   41.8320 H   0  0  0  0  0  0  0  0  0  0  0  0
   37.6330   29.2050   40.0670 O   0  0  0  0  0  0  0  0  0  0  0  0
   36.0990   26.9560   39.0160 Cl  0  0  0  0  0  0  0  0  0  0  0  0
   36.5290   28.4280   38.1580 C   0  0  0  0  0  0  0  0  0  0  0  0
   37.2680   29.4370   38.7660 C   0  0  0  0  0  0  0  0  0  0  0  0
   37.5550   30.5520   38.0110 C   0  0  0  0  0  0  0  0  0  0  0  0
   38.1300   31.3280   38.4970 H   0  0  0  0  0  0  0  0  0  0  0  0
   37.1380   30.6880   36.7010 C   0  0  0  0  0  3  0  0  0  0  0  0
   36.3990   29.6870   36.0800 C   0  0  0  0  0  0  0  0  0  0  0  0
   35.8460   29.8020   34.4310 Cl  0  0  0  0  0  0  0  0  0  0  0  0
   36.1120   28.5610   36.8510 C   0  0  0  0  0  0  0  0  0  0  0  0
   35.5390   27.7890   36.3670 H   0  0  0  0  0  0  0  0  0  0  0  0
  1  4  1  1  0  0  0
  2  1  1  0  0  0  0
  2  5  1  0  0  0  0
  3  7  1  6  0  0  0
  3 19  1  0  0  0  0
  3  2  1  0  0  0  0
  3  1  1  0  0  0  0
  6  2  1  0  0  0  0
  8  1  1  0  0  0  0
  8  9  2  0  0  0  0
 10 16  1  0  0  0  0
 11 10  1  0  0  0  0
 11  8  1  0  0  0  0
 12 11  2  0  0  0  0
 13 14  2  0  0  0  0
 13 12  1  0  0  0  0
 14 15  1  0  0  0  0
 15 10  2  0  0  0  0
 17 12  1  0  0  0  0
 18 14  1  0  0  0  0
 21 20  2  6  0  0  0
 21 19  1  0  0  0  0
 22 21  1  0  0  0  0
 22 23  1  0  0  0  0
 24 21  1  0  0  0  0
 26 27  1  0  0  0  0
 26 25  1  0  0  0  0
 27 24  1  0  0  0  0
 28 29  1  0  0  0  0
 28 27  2  0  0  0  0
 30 28  1  0  0  0  0
 31 30  2  0  0  0  0
 31 33  1  0  0  0  0
 32 31  1  0  0  0  0
 33 26  2  0  0  0  0
 34 33  1  0  0  0  0
M  END
>  <minimizedAffinity>
-5.36493063

$$$$

 OpenBabel03242512103D

 34 36  0  0  1  0  0  0  0  0999 V2000
   38.4310   32.8350   40.3510 C   0  0  1  0  0  0  0  0  0  0  0  0
   37.2150   33.2750   39.4440 C   0  0  0  0  0  0  0  0  0  0  0  0
   37.3690   31.9120   39.9660 C   0  0  2  0  0  0  0  0  0  0  0  0
   38.3890   33.3100   41.3440 H   0  0  0  0  0  0  0  0  0  0  0  0
   36.5120   33.9940   39.9200 H   0  0  0  0  0  0  0  0  0  0  0  0
   37.4590   33.5270   38.3930 H   0  0  0  0  0  0  0  0  0  0  0  0
   37.7460   31.0690   39.3750 H   0  0  0  0  0  0  0  0  0  0  0  0
   39.7170   32.8630   39.6020 C   0  0  0  0  0  0  0  0  0  0  0  0
   40.2580   33.9530   39.4490 O   0  0  0  0  0  0  0  0  0  0  0  0
   40.6160   31.5570   37.7370 C   0  0  0  0  0  0  0  0  0  0  0  0
   40.3600   31.7130   39.0570 C   0  0  0  0  0  0  0  0  0  0  0  0
   40.7660   30.6630   39.9280 C   0  0  0  0  0  0  0  0  0  0  0  0
   41.3820   29.5630   39.4370 N   0  0  0  0  0  0  0  0  0  0  0  0
   41.6190   29.4530   38.0960 C   0  0  0  0  0  0  0  0  0  0  0  0
   41.2440   30.4240   37.2800 N   0  0  0  0  0  0  0  0  0  0  0  0
   40.3060   32.3570   37.0800 H   0  0  0  0  0  0  0  0  0  0  0  0
   40.6270   30.6640   40.9750 H   0  0  0  0  0  0  0  0  0  0  0  0
   42.0990   28.6270   37.5940 H   0  0  0  0  0  0  0  0  0  0  0  0
   36.3880   31.5420   40.8780 O   0  0  0  0  0  0  0  0  0  0  0  0
   37.2250   29.3960   39.7210 O   0  0  0  0  0  0  0  0  0  0  0  0
   36.1610   29.8640   40.6950 P   0  0  2  0  0  0  0  0  0  0  0  0
   34.6250   29.4690   40.1840 O   0  0  0  0  0  0  0  0  0  0  0  0
   33.9690   30.1820   40.3880 H   0  0  0  0  0  0  0  0  0  0  0  0
   36.5440   29.1220   42.1890 O   0  0  0  0  0  0  0  0  0  0  0  0
   39.1750   30.1120   42.9730 Cl  0  0  0  0  0  0  0  0  0  0  0  0
   38.7120   28.4340   42.7300 C   0  0  0  0  0  0  0  0  0  0  0  0
   37.4190   28.0810   42.3530 C   0  0  0  0  0  0  0  0  0  0  0  0
   37.1540   26.7400   42.1870 C   0  0  0  0  0  0  0  0  0  0  0  0
   36.1460   26.4810   41.8950 H   0  0  0  0  0  0  0  0  0  0  0  0
   38.1140   25.7650   42.3790 C   0  0  0  0  0  3  0  0  0  0  0  0
   39.4100   26.1030   42.7540 C   0  0  0  0  0  0  0  0  0  0  0  0
   40.6610   24.9170   43.0110 Cl  0  0  0  0  0  0  0  0  0  0  0  0
   39.6700   27.4620   42.9210 C   0  0  0  0  0  0  0  0  0  0  0  0
   40.6740   27.7200   43.2120 H   0  0  0  0  0  0  0  0  0  0  0  0
  1  4  1  1  0  0  0
  2  5  1  0  0  0  0
  2  3  1  0  0  0  0
  2  1  1  0  0  0  0
  3  7  1  6  0  0  0
  3  1  1  0  0  0  0
  3 19  1  0  0  0  0
  6  2  1  0  0  0  0
  8  1  1  0  0  0  0
  9  8  2  0  0  0  0
 10 11  1  0  0  0  0
 11  8  1  0  0  0  0
 11 12  2  0  0  0  0
 12 17  1  0  0  0  0
 13 12  1  0  0  0  0
 14 13  2  0  0  0  0
 15 10  2  0  0  0  0
 15 14  1  0  0  0  0
 16 10  1  0  0  0  0
 18 14  1  0  0  0  0
 21 20  2  6  0  0  0
 21 19  1  0  0  0  0
 21 24  1  0  0  0  0
 22 23  1  0  0  0  0
 22 21  1  0  0  0  0
 24 27  1  0  0  0  0
 26 33  1  0  0  0  0
 26 25  1  0  0  0  0
 27 26  2  0  0  0  0
 28 27  1  0  0  0  0
 28 30  2  0  0  0  0
 29 28  1  0  0  0  0
 30 31  1  0  0  0  0
 31 33  2  0  0  0  0
 31 32  1  0  0  0  0
 33 34  1  0  0  0  0
M  END
>  <minimizedAffinity>
-5.32279253

$$$$

 OpenBabel03242512103D

 34 36  0  0  1  0  0  0  0  0999 V2000
   37.0130   26.7480   42.5190 C   0  0  1  0  0  0  0  0  0  0  0  0
   38.3370   27.1480   43.2810 C   0  0  0  0  0  0  0  0  0  0  0  0
   37.7310   27.9870   42.2410 C   0  0  2  0  0  0  0  0  0  0  0  0
   36.1360   26.7790   43.1850 H   0  0  0  0  0  0  0  0  0  0  0  0
   38.2020   27.3880   44.3600 H   0  0  0  0  0  0  0  0  0  0  0  0
   39.2250   26.5170   43.0780 H   0  0  0  0  0  0  0  0  0  0  0  0
   38.0900   28.0340   41.2060 H   0  0  0  0  0  0  0  0  0  0  0  0
   37.2110   25.5490   41.6600 C   0  0  0  0  0  0  0  0  0  0  0  0
   37.2000   24.4520   42.2080 O   0  0  0  0  0  0  0  0  0  0  0  0
   38.6240   25.7530   39.6700 C   0  0  0  0  0  0  0  0  0  0  0  0
   37.4100   25.5910   40.2480 C   0  0  0  0  0  0  0  0  0  0  0  0
   36.2890   25.4530   39.3820 C   0  0  0  0  0  0  0  0  0  0  0  0
   36.4510   25.4850   38.0390 N   0  0  0  0  0  0  0  0  0  0  0  0
   37.6970   25.6500   37.5050 C   0  0  0  0  0  0  0  0  0  0  0  0
   38.7430   25.7780   38.3020 N   0  0  0  0  0  0  0  0  0  0  0  0
   39.4720   25.8570   40.3320 H   0  0  0  0  0  0  0  0  0  0  0  0
   35.2930   25.3190   39.7060 H   0  0  0  0  0  0  0  0  0  0  0  0
   37.9460   25.6900   36.4540 H   0  0  0  0  0  0  0  0  0  0  0  0
   37.2490   29.2040   42.7060 O   0  0  0  0  0  0  0  0  0  0  0  0
   38.2910   31.0920   41.2940 O   0  0  0  0  0  0  0  0  0  0  0  0
   37.0610   30.2070   41.3420 P   0  0  2  0  0  0  0  0  0  0  0  0
   35.6510   31.0920   41.3770 O   0  0  0  0  0  0  0  0  0  0  0  0
   34.9680   30.6840   41.9650 H   0  0  0  0  0  0  0  0  0  0  0  0
   37.1530   29.2130   39.9510 O   0  0  0  0  0  0  0  0  0  0  0  0
   38.3060   29.4390   37.2790 Cl  0  0  0  0  0  0  0  0  0  0  0  0
   36.6120   29.1900   37.6770 C   0  0  0  0  0  0  0  0  0  0  0  0
   36.1780   29.0990   38.9960 C   0  0  0  0  0  0  0  0  0  0  0  0
   34.8310   28.9040   39.2050 C   0  0  0  0  0  0  0  0  0  0  0  0
   34.5090   28.8340   40.2340 H   0  0  0  0  0  0  0  0  0  0  0  0
   33.9260   28.8010   38.1650 C   0  0  0  0  0  3  0  0  0  0  0  0
   34.3460   28.8920   36.8430 C   0  0  0  0  0  0  0  0  0  0  0  0
   33.2510   28.7690   35.4910 Cl  0  0  0  0  0  0  0  0  0  0  0  0
   35.7110   29.0880   36.6390 C   0  0  0  0  0  0  0  0  0  0  0  0
   36.0320   29.1580   35.6140 H   0  0  0  0  0  0  0  0  0  0  0  0
  1  4  1  1  0  0  0
  1  2  1  0  0  0  0
  2  5  1  0  0  0  0
  3  7  1  6  0  0  0
  3  1  1  0  0  0  0
  3 19  1  0  0  0  0
  3  2  1  0  0  0  0
  6  2  1  0  0  0  0
  8  9  2  0  0  0  0
  8  1  1  0  0  0  0
 10 11  1  0  0  0  0
 10 16  1  0  0  0  0
 11  8  1  0  0  0  0
 12 17  1  0  0  0  0
 12 11  2  0  0  0  0
 13 12  1  0  0  0  0
 14 13  2  0  0  0  0
 14 15  1  0  0  0  0
 15 10  2  0  0  0  0
 18 14  1  0  0  0  0
 21 20  2  6  0  0  0
 21 22  1  0  0  0  0
 21 19  1  0  0  0  0
 22 23  1  0  0  0  0
 24 21  1  0  0  0  0
 25 26  1  0  0  0  0
 26 27  1  0  0  0  0
 27 28  2  0  0  0  0
 27 24  1  0  0  0  0
 28 29  1  0  0  0  0
 30 28  1  0  0  0  0
 31 30  2  0  0  0  0
 32 31  1  0  0  0  0
 33 31  1  0  0  0  0
 33 26  2  0  0  0  0
 34 33  1  0  0  0  0
M  END
>  <minimizedAffinity>
-5.22821951

$$$$

 OpenBabel03242512103D

 34 36  0  0  1  0  0  0  0  0999 V2000
   36.5650   31.1860   40.3270 C   0  0  1  0  0  0  0  0  0  0  0  0
   36.4480   29.9930   39.3000 C   0  0  0  0  0  0  0  0  0  0  0  0
   37.0140   29.8350   40.6440 C   0  0  2  0  0  0  0  0  0  0  0  0
   35.5760   31.5160   40.6820 H   0  0  0  0  0  0  0  0  0  0  0  0
   35.4070   29.6680   39.0770 H   0  0  0  0  0  0  0  0  0  0  0  0
   37.0910   30.0600   38.4000 H   0  0  0  0  0  0  0  0  0  0  0  0
   38.0890   29.7940   40.8550 H   0  0  0  0  0  0  0  0  0  0  0  0
   37.5350   32.2180   39.8670 C   0  0  0  0  0  0  0  0  0  0  0  0
   37.0780   33.2530   39.3950 O   0  0  0  0  0  0  0  0  0  0  0  0
   39.7330   31.8130   38.8660 C   0  0  0  0  0  0  0  0  0  0  0  0
   38.9530   32.0830   39.9400 C   0  0  0  0  0  0  0  0  0  0  0  0
   39.6040   32.2410   41.1950 C   0  0  0  0  0  0  0  0  0  0  0  0
   40.9480   32.1230   41.2910 N   0  0  0  0  0  0  0  0  0  0  0  0
   41.6920   31.8500   40.1780 C   0  0  0  0  0  0  0  0  0  0  0  0
   41.0940   31.7020   39.0080 N   0  0  0  0  0  0  0  0  0  0  0  0
   39.2330   31.6950   37.9150 H   0  0  0  0  0  0  0  0  0  0  0  0
   39.1110   32.4550   42.1050 H   0  0  0  0  0  0  0  0  0  0  0  0
   42.7650   31.7340   40.1340 H   0  0  0  0  0  0  0  0  0  0  0  0
   36.2640   29.0190   41.4820 O   0  0  0  0  0  0  0  0  0  0  0  0
   36.5070   27.5360   43.5770 O   0  0  0  0  0  0  0  0  0  0  0  0
   37.3290   28.4400   42.6780 P   0  0  2  0  0  0  0  0  0  0  0  0
   38.0740   29.6620   43.5300 O   0  0  0  0  0  0  0  0  0  0  0  0
   38.0840   30.5150   43.0280 H   0  0  0  0  0  0  0  0  0  0  0  0
   38.4660   27.4170   41.9100 O   0  0  0  0  0  0  0  0  0  0  0  0
   39.8660   25.3300   43.3950 Cl  0  0  0  0  0  0  0  0  0  0  0  0
   38.8040   25.1050   42.0120 C   0  0  0  0  0  0  0  0  0  0  0  0
   38.1900   26.1830   41.3820 C   0  0  0  0  0  0  0  0  0  0  0  0
   37.3760   25.9050   40.3060 C   0  0  0  0  0  0  0  0  0  0  0  0
   36.9050   26.7520   39.8270 H   0  0  0  0  0  0  0  0  0  0  0  0
   37.1620   24.6180   39.8510 C   0  0  0  0  0  3  0  0  0  0  0  0
   37.7710   23.5320   40.4700 C   0  0  0  0  0  0  0  0  0  0  0  0
   37.5390   21.8870   39.9410 Cl  0  0  0  0  0  0  0  0  0  0  0  0
   38.5930   23.8210   41.5590 C   0  0  0  0  0  0  0  0  0  0  0  0
   39.0620   22.9780   42.0360 H   0  0  0  0  0  0  0  0  0  0  0  0
  1  3  1  0  0  0  0
  1  4  1  1  0  0  0
  2  1  1  0  0  0  0
  2  3  1  0  0  0  0
  3  7  1  1  0  0  0
  3 19  1  0  0  0  0
  5  2  1  0  0  0  0
  6  2  1  0  0  0  0
  8 11  1  0  0  0  0
  8  1  1  0  0  0  0
  9  8  2  0  0  0  0
 10 15  2  0  0  0  0
 10 11  1  0  0  0  0
 11 12  2  0  0  0  0
 12 13  1  0  0  0  0
 12 17  1  0  0  0  0
 14 13  2  0  0  0  0
 15 14  1  0  0  0  0
 16 10  1  0  0  0  0
 18 14  1  0  0  0  0
 19 21  1  0  0  0  0
 21 22  1  0  0  0  0
 21 20  2  1  0  0  0
 23 22  1  0  0  0  0
 24 21  1  0  0  0  0
 26 25  1  0  0  0  0
 27 24  1  0  0  0  0
 27 26  2  0  0  0  0
 28 27  1  0  0  0  0
 29 28  1  0  0  0  0
 30 28  2  0  0  0  0
 30 31  1  0  0  0  0
 31 33  2  0  0  0  0
 32 31  1  0  0  0  0
 33 26  1  0  0  0  0
 33 34  1  0  0  0  0
M  END
>  <minimizedAffinity>
-5.16776037

$$$$

 OpenBabel03242512103D

 34 36  0  0  1  0  0  0  0  0999 V2000
   37.1610   30.1270   37.8560 C   0  0  1  0  0  0  0  0  0  0  0  0
   38.2830   29.0370   37.6470 C   0  0  0  0  0  0  0  0  0  0  0  0
   37.7010   29.3400   38.9590 C   0  0  2  0  0  0  0  0  0  0  0  0
   36.2060   29.8200   37.4000 H   0  0  0  0  0  0  0  0  0  0  0  0
   37.9620   28.1390   37.0730 H   0  0  0  0  0  0  0  0  0  0  0  0
   39.2810   29.4160   37.3500 H   0  0  0  0  0  0  0  0  0  0  0  0
   38.1880   29.9660   39.7160 H   0  0  0  0  0  0  0  0  0  0  0  0
   37.6680   31.5010   37.5870 C   0  0  0  0  0  0  0  0  0  0  0  0
   37.6190   31.9050   36.4300 O   0  0  0  0  0  0  0  0  0  0  0  0
   37.4350   33.1680   39.3650 C   0  0  0  0  0  0  0  0  0  0  0  0
   38.2010   32.3740   38.5800 C   0  0  0  0  0  0  0  0  0  0  0  0
   39.6090   32.4270   38.7780 C   0  0  0  0  0  0  0  0  0  0  0  0
   40.1410   33.2430   39.7170 N   0  0  0  0  0  0  0  0  0  0  0  0
   39.3250   34.0250   40.4840 C   0  0  0  0  0  0  0  0  0  0  0  0
   38.0160   33.9820   40.3060 N   0  0  0  0  0  0  0  0  0  0  0  0
   36.3660   33.1240   39.2110 H   0  0  0  0  0  0  0  0  0  0  0  0
   40.3140   31.8570   38.2340 H   0  0  0  0  0  0  0  0  0  0  0  0
   39.6350   34.7110   41.2590 H   0  0  0  0  0  0  0  0  0  0  0  0
   36.9680   28.2950   39.5080 O   0  0  0  0  0  0  0  0  0  0  0  0
   34.7710   28.8710   40.7290 O   0  0  0  0  0  0  0  0  0  0  0  0
   36.2720   28.8900   40.9440 P   0  0  2  0  0  0  0  0  0  0  0  0
   36.8280   30.4050   41.3550 O   0  0  0  0  0  0  0  0  0  0  0  0
   37.7050   30.6060   40.9420 H   0  0  0  0  0  0  0  0  0  0  0  0
   36.5750   27.7450   42.1810 O   0  0  0  0  0  0  0  0  0  0  0  0
   36.9120   25.0540   41.1030 Cl  0  0  0  0  0  0  0  0  0  0  0  0
   38.0830   25.9630   42.0490 C   0  0  0  0  0  0  0  0  0  0  0  0
   37.8070   27.2460   42.5110 C   0  0  0  0  0  0  0  0  0  0  0  0
   38.7890   27.8760   43.2440 C   0  0  0  0  0  0  0  0  0  0  0  0
   38.5610   28.8720   43.5960 H   0  0  0  0  0  0  0  0  0  0  0  0
   40.0040   27.2810   43.5230 C   0  0  0  0  0  3  0  0  0  0  0  0
   40.2920   25.9990   43.0670 C   0  0  0  0  0  0  0  0  0  0  0  0
   41.8060   25.1980   43.3870 Cl  0  0  0  0  0  0  0  0  0  0  0  0
   39.2940   25.3670   42.3260 C   0  0  0  0  0  0  0  0  0  0  0  0
   39.5200   24.3750   41.9750 H   0  0  0  0  0  0  0  0  0  0  0  0
  1  4  1  6  0  0  0
  1  3  1  0  0  0  0
  2  1  1  0  0  0  0
  2  3  1  0  0  0  0
  3 19  1  0  0  0  0
  3  7  1  1  0  0  0
  5  2  1  0  0  0  0
  6  2  1  0  0  0  0
  8  1  1  0  0  0  0
  8 11  1  0  0  0  0
  9  8  2  0  0  0  0
 10 15  1  0  0  0  0
 11 12  1  0  0  0  0
 11 10  2  0  0  0  0
 12 13  2  0  0  0  0
 13 14  1  0  0  0  0
 14 18  1  0  0  0  0
 15 14  2  0  0  0  0
 16 10  1  0  0  0  0
 17 12  1  0  0  0  0
 19 21  1  0  0  0  0
 21 20  2  6  0  0  0
 21 22  1  0  0  0  0
 21 24  1  0  0  0  0
 23 22  1  0  0  0  0
 24 27  1  0  0  0  0
 25 26  1  0  0  0  0
 26 33  2  0  0  0  0
 26 27  1  0  0  0  0
 27 28  2  0  0  0  0
 28 30  1  0  0  0  0
 28 29  1  0  0  0  0
 31 32  1  0  0  0  0
 31 30  2  0  0  0  0
 33 31  1  0  0  0  0
 34 33  1  0  0  0  0
M  END
>  <minimizedAffinity>
-5.15621376

$$$$

 OpenBabel03242512103D

 34 36  0  0  1  0  0  0  0  0999 V2000
   37.3290   28.8370   37.2660 C   0  0  1  0  0  0  0  0  0  0  0  0
   37.6300   30.3790   37.4220 C   0  0  0  0  0  0  0  0  0  0  0  0
   36.7200   29.6490   38.3130 C   0  0  2  0  0  0  0  0  0  0  0  0
   38.2110   28.2240   37.5130 H   0  0  0  0  0  0  0  0  0  0  0  0
   38.6680   30.6240   37.7410 H   0  0  0  0  0  0  0  0  0  0  0  0
   37.2520   31.0330   36.6110 H   0  0  0  0  0  0  0  0  0  0  0  0
   35.6280   29.6800   38.2310 H   0  0  0  0  0  0  0  0  0  0  0  0
   36.5890   28.5420   36.0090 C   0  0  0  0  0  0  0  0  0  0  0  0
   37.2370   28.4940   34.9690 O   0  0  0  0  0  0  0  0  0  0  0  0
   34.5590   27.2950   36.5750 C   0  0  0  0  0  0  0  0  0  0  0  0
   35.1840   28.3120   35.9340 C   0  0  0  0  0  0  0  0  0  0  0  0
   34.3740   29.1850   35.1550 C   0  0  0  0  0  0  0  0  0  0  0  0
   33.0380   28.9910   35.0710 N   0  0  0  0  0  0  0  0  0  0  0  0
   32.4550   27.9510   35.7380 C   0  0  0  0  0  0  0  0  0  0  0  0
   33.2000   27.1340   36.4640 N   0  0  0  0  0  0  0  0  0  0  0  0
   35.1790   26.6350   37.1660 H   0  0  0  0  0  0  0  0  0  0  0  0
   34.7370   30.0140   34.6110 H   0  0  0  0  0  0  0  0  0  0  0  0
   31.4050   27.6990   35.7450 H   0  0  0  0  0  0  0  0  0  0  0  0
   37.1650   29.5610   39.6270 O   0  0  0  0  0  0  0  0  0  0  0  0
   34.5960   29.3570   39.6940 O   0  0  0  0  0  0  0  0  0  0  0  0
   35.7780   29.5970   40.6140 P   0  0  2  0  0  0  0  0  0  0  0  0
   35.6280   31.0170   41.4710 O   0  0  0  0  0  0  0  0  0  0  0  0
   36.4940   31.4840   41.5740 H   0  0  0  0  0  0  0  0  0  0  0  0
   35.8410   28.2340   41.6480 O   0  0  0  0  0  0  0  0  0  0  0  0
   36.5590   26.0120   39.8970 Cl  0  0  0  0  0  0  0  0  0  0  0  0
   37.4300   26.5500   41.3260 C   0  0  0  0  0  0  0  0  0  0  0  0
   36.9890   27.6280   42.0870 C   0  0  0  0  0  0  0  0  0  0  0  0
   37.7400   27.9720   43.1890 C   0  0  0  0  0  0  0  0  0  0  0  0
   37.3850   28.8120   43.7700 H   0  0  0  0  0  0  0  0  0  0  0  0
   38.8880   27.2920   43.5460 C   0  0  0  0  0  3  0  0  0  0  0  0
   39.3400   26.2120   42.7950 C   0  0  0  0  0  0  0  0  0  0  0  0
   40.7800   25.3160   43.1970 Cl  0  0  0  0  0  0  0  0  0  0  0  0
   38.5750   25.8690   41.6810 C   0  0  0  0  0  0  0  0  0  0  0  0
   38.9280   25.0330   41.1030 H   0  0  0  0  0  0  0  0  0  0  0  0
  1  2  1  0  0  0  0
  1  4  1  1  0  0  0
  1  3  1  0  0  0  0
  2  5  1  0  0  0  0
  2  3  1  0  0  0  0
  3  7  1  6  0  0  0
  3 19  1  0  0  0  0
  6  2  1  0  0  0  0
  8  1  1  0  0  0  0
  9  8  2  0  0  0  0
 10 16  1  0  0  0  0
 11  8  1  0  0  0  0
 11 10  2  0  0  0  0
 12 11  1  0  0  0  0
 13 12  2  0  0  0  0
 13 14  1  0  0  0  0
 14 18  1  0  0  0  0
 14 15  2  0  0  0  0
 15 10  1  0  0  0  0
 17 12  1  0  0  0  0
 19 21  1  0  0  0  0
 21 20  2  6  0  0  0
 21 22  1  0  0  0  0
 21 24  1  0  0  0  0
 22 23  1  0  0  0  0
 24 27  1  0  0  0  0
 25 26  1  0  0  0  0
 26 33  2  0  0  0  0
 26 27  1  0  0  0  0
 27 28  2  0  0  0  0
 28 30  1  0  0  0  0
 28 29  1  0  0  0  0
 31 32  1  0  0  0  0
 31 30  2  0  0  0  0
 33 31  1  0  0  0  0
 34 33  1  0  0  0  0
M  END
>  <minimizedAffinity>
-5.14941692

$$$$

 OpenBabel03242512103D

 34 36  0  0  1  0  0  0  0  0999 V2000
   38.3910   32.1420   38.9710 C   0  0  1  0  0  0  0  0  0  0  0  0
   37.3540   32.8870   39.8990 C   0  0  0  0  0  0  0  0  0  0  0  0
   38.2790   31.8630   40.3980 C   0  0  2  0  0  0  0  0  0  0  0  0
   39.1850   32.8210   38.6220 H   0  0  0  0  0  0  0  0  0  0  0  0
   37.5600   33.9700   40.0570 H   0  0  0  0  0  0  0  0  0  0  0  0
   36.2850   32.6660   39.7100 H   0  0  0  0  0  0  0  0  0  0  0  0
   37.9920   30.8240   40.5960 H   0  0  0  0  0  0  0  0  0  0  0  0
   37.7130   31.2700   37.9730 C   0  0  0  0  0  0  0  0  0  0  0  0
   37.6180   31.6910   36.8260 O   0  0  0  0  0  0  0  0  0  0  0  0
   35.8510   29.7540   38.4560 C   0  0  0  0  0  0  0  0  0  0  0  0
   37.1720   29.9830   38.2620 C   0  0  0  0  0  0  0  0  0  0  0  0
   38.0450   28.8630   38.3510 C   0  0  0  0  0  0  0  0  0  0  0  0
   37.5570   27.6300   38.6190 N   0  0  0  0  0  0  0  0  0  0  0  0
   36.2160   27.4520   38.8060 C   0  0  0  0  0  0  0  0  0  0  0  0
   35.3970   28.4870   38.7250 N   0  0  0  0  0  0  0  0  0  0  0  0
   35.1920   30.6080   38.3870 H   0  0  0  0  0  0  0  0  0  0  0  0
   39.0930   28.9060   38.2180 H   0  0  0  0  0  0  0  0  0  0  0  0
   35.7150   26.5200   39.0250 H   0  0  0  0  0  0  0  0  0  0  0  0
   39.2290   32.3460   41.2900 O   0  0  0  0  0  0  0  0  0  0  0  0
   41.4000   31.5800   42.4510 O   0  0  0  0  0  0  0  0  0  0  0  0
   40.1730   31.0100   41.7660 P   0  0  2  0  0  0  0  0  0  0  0  0
   40.5710   30.0120   40.4930 O   0  0  0  0  0  0  0  0  0  0  0  0
   39.9480   30.1120   39.7310 H   0  0  0  0  0  0  0  0  0  0  0  0
   39.3110   30.1720   42.9850 O   0  0  0  0  0  0  0  0  0  0  0  0
   41.0560   27.8820   43.4600 Cl  0  0  0  0  0  0  0  0  0  0  0  0
   39.3590   27.8350   43.0050 C   0  0  0  0  0  0  0  0  0  0  0  0
   38.6250   29.0000   42.8040 C   0  0  0  0  0  0  0  0  0  0  0  0
   37.3020   28.8590   42.4500 C   0  0  0  0  0  0  0  0  0  0  0  0
   36.7440   29.7720   42.2980 H   0  0  0  0  0  0  0  0  0  0  0  0
   36.7030   27.6230   42.2940 C   0  0  0  0  0  3  0  0  0  0  0  0
   37.4250   26.4510   42.4910 C   0  0  0  0  0  0  0  0  0  0  0  0
   36.7240   24.8660   42.3080 Cl  0  0  0  0  0  0  0  0  0  0  0  0
   38.7640   26.6020   42.8490 C   0  0  0  0  0  0  0  0  0  0  0  0
   39.3190   25.6920   43.0010 H   0  0  0  0  0  0  0  0  0  0  0  0
  1  4  1  6  0  0  0
  1  2  1  0  0  0  0
  1  3  1  0  0  0  0
  2  5  1  0  0  0  0
  2  3  1  0  0  0  0
  3  7  1  1  0  0  0
  3 19  1  0  0  0  0
  6  2  1  0  0  0  0
  8 11  1  0  0  0  0
  8  1  1  0  0  0  0
  9  8  2  0  0  0  0
 10 15  1  0  0  0  0
 11 12  1  0  0  0  0
 11 10  2  0  0  0  0
 12 13  2  0  0  0  0
 13 14  1  0  0  0  0
 14 18  1  0  0  0  0
 15 14  2  0  0  0  0
 16 10  1  0  0  0  0
 17 12  1  0  0  0  0
 19 21  1  0  0  0  0
 21 20  2  1  0  0  0
 21 24  1  0  0  0  0
 22 21  1  0  0  0  0
 23 22  1  0  0  0  0
 26 25  1  0  0  0  0
 27 24  1  0  0  0  0
 27 26  2  0  0  0  0
 28 27  1  0  0  0  0
 29 28  1  0  0  0  0
 30 28  2  0  0  0  0
 30 31  1  0  0  0  0
 31 33  2  0  0  0  0
 32 31  1  0  0  0  0
 33 34  1  0  0  0  0
 33 26  1  0  0  0  0
M  END
>  <minimizedAffinity>
-5.14182615

$$$$
