
 OpenBabel03252502373D

 25 26  0  0  1  0  0  0  0  0999 V2000
   47.7190   33.7620   42.9880 C   0  0  1  0  0  0  0  0  0  0  0  0
   48.6440   34.2640   43.3360 H   0  0  0  0  0  0  0  0  0  0  0  0
   49.1330   35.9720   41.3580 Cl  0  0  0  0  0  0  0  0  0  0  0  0
   48.2530   34.6480   40.6740 C   0  0  0  0  0  0  0  0  0  0  0  0
   47.6670   33.7260   41.5060 C   0  0  0  0  0  0  0  0  0  0  0  0
   46.9960   32.7190   40.8130 C   0  0  0  0  0  0  0  0  0  0  0  0
   46.4900   31.9270   41.3670 H   0  0  0  0  0  0  0  0  0  0  0  0
   46.8910   32.6010   39.4590 C   0  0  0  0  0  0  0  0  0  0  0  0
   47.5100   33.5730   38.6810 C   0  0  0  0  0  0  0  0  0  0  0  0
   47.4140   33.4770   36.9410 Cl  0  0  0  0  0  0  0  0  0  0  0  0
   48.1930   34.5990   39.2990 C   0  0  0  0  0  0  0  0  0  0  0  0
   48.6680   35.3470   38.6690 H   0  0  0  0  0  0  0  0  0  0  0  0
   45.9420   35.4750   43.0370 C   0  0  0  0  0  0  0  0  0  0  0  0
   46.5850   34.3970   43.6410 C   0  0  0  0  0  0  0  0  0  0  0  0
   46.0840   33.9630   44.8960 C   0  0  0  0  0  0  0  0  0  0  0  0
   45.0200   34.6200   45.4240 N   0  0  0  0  0  0  0  0  0  0  0  0
   44.4460   35.6580   44.7830 C   0  0  0  0  0  0  0  0  0  0  0  0
   44.8950   36.0900   43.5990 N   0  0  0  0  0  0  0  0  0  0  0  0
   46.2320   35.8970   42.0850 H   0  0  0  0  0  0  0  0  0  0  0  0
   46.5520   33.1290   45.4020 H   0  0  0  0  0  0  0  0  0  0  0  0
   43.6120   36.1010   45.2930 H   0  0  0  0  0  0  0  0  0  0  0  0
   47.7800   32.3230   43.4620 C   0  0  0  0  0  0  0  0  0  0  0  0
   48.0450   32.2780   44.5580 H   0  0  0  0  0  0  0  0  0  0  0  0
   46.8280   31.7810   43.2990 H   0  0  0  0  0  0  0  0  0  0  0  0
   48.6480   31.8340   42.9620 H   0  0  0  0  0  0  0  0  0  0  0  0
  1  2  1  1  0  0  0
  1 22  1  0  0  0  0
  1 14  1  0  0  0  0
  4  3  1  0  0  0  0
  4  5  1  0  0  0  0
  5  1  1  0  0  0  0
  6  7  1  0  0  0  0
  6  5  2  0  0  0  0
  8  6  1  0  0  0  0
  9 11  1  0  0  0  0
  9  8  2  0  0  0  0
 10  9  1  0  0  0  0
 11  4  2  0  0  0  0
 12 11  1  0  0  0  0
 13 18  2  0  0  0  0
 13 14  1  0  0  0  0
 14 15  2  0  0  0  0
 15 20  1  0  0  0  0
 15 16  1  0  0  0  0
 17 21  1  0  0  0  0
 17 16  2  0  0  0  0
 18 17  1  0  0  0  0
 19 13  1  0  0  0  0
 22 23  1  0  0  0  0
 24 22  1  0  0  0  0
 25 22  1  0  0  0  0
M  END
>  <minimizedAffinity>
-4.98892927

>  <minimizedRMSD>
2.20213842

$$$$
