
 OpenBabel03242515393D

 37 40  0  0  0  0  0  0  0  0999 V2000
   44.0780   34.8280   41.0760 C   0  0  0  0  0  0  0  0  0  0  0  0
   44.0380   34.0070   39.9630 C   0  0  0  0  0  0  0  0  0  0  0  0
   45.2420   33.4510   39.5290 C   0  0  0  0  0  0  0  0  0  0  0  0
   46.3730   33.7530   40.2270 N   0  0  0  0  0  0  0  0  0  0  0  0
   46.3760   34.5480   41.2950 C   0  0  0  0  0  0  0  0  0  0  0  0
   45.2300   35.0670   41.6950 N   0  0  0  0  0  0  0  0  0  0  0  0
   43.1100   33.8130   39.4630 H   0  0  0  0  0  0  0  0  0  0  0  0
   44.9750   30.5740   40.1650 Cl  0  0  0  0  0  0  0  0  0  0  0  0
   45.1970   31.2260   38.5410 C   0  0  0  0  0  0  0  0  0  0  0  0
   45.3070   32.5850   38.3840 C   0  0  0  0  0  0  0  0  0  0  0  0
   45.4790   32.9980   37.0810 C   0  0  0  0  0  0  0  0  0  0  0  0
   45.5730   34.0530   36.8790 H   0  0  0  0  0  0  0  0  0  0  0  0
   45.5360   32.1060   36.0060 C   0  0  0  0  0  3  0  0  0  0  0  0
   45.4160   30.7430   36.2500 C   0  0  0  0  0  0  0  0  0  0  0  0
   45.4940   29.6770   34.8700 Cl  0  0  0  0  0  0  0  0  0  0  0  0
   45.2420   30.2900   37.5470 C   0  0  0  0  0  0  0  0  0  0  0  0
   45.1500   29.2230   37.7250 H   0  0  0  0  0  0  0  0  0  0  0  0
   42.4980   35.5310   41.6090 S   0  0  0  0  0  0  0  0  0  0  0  0
   40.3700   35.0060   40.0350 C   0  0  0  0  0  0  0  0  0  0  0  0
   41.1470   34.4890   41.0750 C   0  0  0  0  0  0  0  0  0  0  0  0
   40.8630   33.2530   41.6270 C   0  0  0  0  0  0  0  0  0  0  0  0
   39.8040   32.4830   41.1800 C   0  0  0  0  0  0  0  0  0  0  0  0
   39.0220   33.0090   40.1300 C   0  0  0  0  0  0  0  0  0  0  0  0
   39.2990   34.2490   39.5670 C   0  0  0  0  0  0  0  0  0  0  0  0
   38.0180   32.0470   39.8560 O   0  0  0  0  0  0  0  0  0  0  0  0
   37.9950   31.1880   40.9680 C   0  0  0  0  0  0  0  0  0  0  0  0
   39.2970   31.2440   41.5330 O   0  0  0  0  0  0  0  0  0  0  0  0
   40.5560   35.9610   39.5790 H   0  0  0  0  0  0  0  0  0  0  0  0
   41.4980   32.9070   42.4280 H   0  0  0  0  0  0  0  0  0  0  0  0
   38.7080   34.6500   38.7730 H   0  0  0  0  0  0  0  0  0  0  0  0
   37.6680   30.1670   40.7370 H   0  0  0  0  0  0  0  0  0  0  0  0
   37.3200   31.6650   41.7270 H   0  0  0  0  0  0  0  0  0  0  0  0
   47.4990   34.8650   42.0120 O   0  0  0  0  0  0  0  0  0  0  0  0
   48.6790   35.2130   41.3510 C   0  0  0  0  0  0  0  0  0  0  0  0
   49.6900   34.3160   41.5650 F   0  0  0  0  0  0  0  0  0  0  0  0
   48.3280   35.3220   39.9960 F   0  0  0  0  0  0  0  0  0  0  0  0
   49.0900   36.4380   41.8520 F   0  0  0  0  0  0  0  0  0  0  0  0
  1 18  1  0  0  0  0
  1  6  1  0  0  0  0
  2  1  2  0  0  0  0
  3  2  1  0  0  0  0
  3  4  2  0  0  0  0
  4  5  1  0  0  0  0
  5  6  2  0  0  0  0
  5 33  1  0  0  0  0
  7  2  1  0  0  0  0
  9  8  1  0  0  0  0
 10  9  1  0  0  0  0
 10  3  1  0  0  0  0
 11 10  2  0  0  0  0
 12 11  1  0  0  0  0
 13 14  2  0  0  0  0
 13 11  1  0  0  0  0
 14 16  1  0  0  0  0
 15 14  1  0  0  0  0
 16 17  1  0  0  0  0
 16  9  2  0  0  0  0
 19 20  1  0  0  0  0
 20 18  1  0  0  0  0
 20 21  2  0  0  0  0
 21 29  1  0  0  0  0
 22 27  1  0  0  0  0
 22 21  1  0  0  0  0
 23 22  2  0  0  0  0
 24 19  2  0  0  0  0
 24 23  1  0  0  0  0
 25 23  1  0  0  0  0
 25 26  1  0  0  0  0
 26 27  1  0  0  0  0
 26 32  1  0  0  0  0
 28 19  1  0  0  0  0
 30 24  1  0  0  0  0
 31 26  1  0  0  0  0
 34 35  1  0  0  0  0
 34 37  1  0  0  0  0
 34 33  1  0  0  0  0
 36 34  1  0  0  0  0
M  END
>  <minimizedAffinity>
-6.09072733

>  <minimizedRMSD>
0.524343252

$$$$
