
 OpenBabel03252506373D

 45 48  0  0  1  0  0  0  0  0999 V2000
   44.5150   35.5120   45.1330 C   0  0  0  0  0  0  0  0  0  0  0  0
   45.1620   35.5060   43.8910 C   0  0  0  0  0  0  0  0  0  0  0  0
   46.0800   34.5480   43.6290 C   0  0  0  0  0  0  0  0  0  0  0  0
   46.3180   33.6360   44.6030 N   0  0  0  0  0  0  0  0  0  0  0  0
   45.7030   33.6460   45.7760 C   0  0  0  0  0  0  0  0  0  0  0  0
   44.7960   34.5770   46.0600 N   0  0  0  0  0  0  0  0  0  0  0  0
   46.0370   32.6310   46.7390 N   0  0  0  0  0  0  0  0  0  0  0  0
   45.3010   32.3810   47.9270 C   0  0  0  0  0  0  0  0  0  0  0  0
   46.3810   32.0270   48.9340 C   0  0  0  0  0  0  0  0  0  0  0  0
   47.6590   31.9340   48.1620 C   0  0  0  0  0  0  0  0  0  0  0  0
   47.1600   31.7220   46.7330 C   0  0  1  0  0  0  0  0  0  0  0  0
   43.7920   36.2780   45.3220 H   0  0  0  0  0  0  0  0  0  0  0  0
   46.5930   34.5200   42.6820 H   0  0  0  0  0  0  0  0  0  0  0  0
   44.4670   31.7610   48.0080 H   0  0  0  0  0  0  0  0  0  0  0  0
   44.9520   33.4010   48.2920 H   0  0  0  0  0  0  0  0  0  0  0  0
   46.3960   32.6410   49.8290 H   0  0  0  0  0  0  0  0  0  0  0  0
   46.1580   30.9720   49.2730 H   0  0  0  0  0  0  0  0  0  0  0  0
   48.2800   31.0970   48.5180 H   0  0  0  0  0  0  0  0  0  0  0  0
   48.1600   32.9210   48.2580 H   0  0  0  0  0  0  0  0  0  0  0  0
   47.9670   32.0260   46.0270 H   0  0  0  0  0  0  0  0  0  0  0  0
   44.8070   36.5390   42.9540 N   0  0  0  0  0  0  0  0  0  0  0  0
   44.8350   37.5340   43.2370 H   0  0  0  0  0  0  0  0  0  0  0  0
   44.5480   36.1010   42.0480 H   0  0  0  0  0  0  0  0  0  0  0  0
   46.6470   30.0300   46.5460 S   0  0  0  0  0  0  0  0  0  0  0  0
   45.5600   30.5460   43.4340 O   0  0  0  0  0  0  0  0  0  0  0  0
   44.9530   29.9930   44.3660 C   0  0  0  0  0  0  0  0  0  0  0  0
   45.0820   29.7490   45.8240 C   0  0  1  0  0  0  0  0  0  0  0  0
   44.5510   28.3430   45.9500 C   0  0  0  0  0  0  0  0  0  0  0  0
   43.2200   28.5610   45.2230 C   0  0  0  0  0  0  0  0  0  0  0  0
   43.7040   29.3340   44.0850 N   0  0  0  0  0  0  0  0  0  0  0  0
   44.2070   30.3440   46.2000 H   0  0  0  0  0  0  0  0  0  0  0  0
   45.1610   27.6100   45.3830 H   0  0  0  0  0  0  0  0  0  0  0  0
   44.3920   28.0930   47.0010 H   0  0  0  0  0  0  0  0  0  0  0  0
   42.7500   27.6150   44.9490 H   0  0  0  0  0  0  0  0  0  0  0  0
   42.5650   29.1740   45.8740 H   0  0  0  0  0  0  0  0  0  0  0  0
   44.4180   27.4120   41.8420 Cl  0  0  0  0  0  0  0  0  0  0  0  0
   43.0590   28.5160   41.8190 C   0  0  0  0  0  0  0  0  0  0  0  0
   42.8750   29.3120   42.9040 C   0  0  0  0  0  0  0  0  0  0  0  0
   41.8040   30.1820   42.8880 C   0  0  0  0  0  0  0  0  0  0  0  0
   41.6000   30.8550   43.7360 H   0  0  0  0  0  0  0  0  0  0  0  0
   40.8980   30.3040   41.8400 C   0  0  0  0  0  3  0  0  0  0  0  0
   41.1020   29.4770   40.7300 C   0  0  0  0  0  0  0  0  0  0  0  0
   40.0030   29.5700   39.3710 Cl  0  0  0  0  0  0  0  0  0  0  0  0
   42.1730   28.6160   40.7650 C   0  0  0  0  0  0  0  0  0  0  0  0
   42.3270   27.9700   39.8930 H   0  0  0  0  0  0  0  0  0  0  0  0
  1 12  1  0  0  0  0
  1  6  1  0  0  0  0
  2  1  2  0  0  0  0
  3  2  1  0  0  0  0
  3  4  2  0  0  0  0
  4  5  1  0  0  0  0
  5  6  2  0  0  0  0
  5  7  1  0  0  0  0
  7  8  1  0  0  0  0
  8 14  1  0  0  0  0
  8 15  1  0  0  0  0
  8  9  1  0  0  0  0
  9 17  1  0  0  0  0
  9 16  1  0  0  0  0
 10 19  1  0  0  0  0
 10 18  1  0  0  0  0
 10  9  1  0  0  0  0
 11 20  1  6  0  0  0
 11  7  1  0  0  0  0
 11 10  1  0  0  0  0
 13  3  1  0  0  0  0
 21 22  1  0  0  0  0
 21  2  1  0  0  0  0
 23 21  1  0  0  0  0
 24 11  1  0  0  0  0
 25 26  2  0  0  0  0
 26 27  1  0  0  0  0
 27 28  1  0  0  0  0
 27 31  1  1  0  0  0
 27 24  1  0  0  0  0
 28 33  1  0  0  0  0
 29 35  1  0  0  0  0
 29 28  1  0  0  0  0
 30 26  1  0  0  0  0
 30 29  1  0  0  0  0
 32 28  1  0  0  0  0
 34 29  1  0  0  0  0
 37 36  1  0  0  0  0
 37 38  1  0  0  0  0
 38 30  1  0  0  0  0
 39 38  2  0  0  0  0
 39 40  1  0  0  0  0
 41 39  1  0  0  0  0
 42 44  1  0  0  0  0
 42 41  2  0  0  0  0
 43 42  1  0  0  0  0
 44 37  2  0  0  0  0
 45 44  1  0  0  0  0
M  END
>  <minimizedAffinity>
-5.46980619

>  <minimizedRMSD>
0.475648224

$$$$
