
 OpenBabel03252506073D

 44 48  0  0  0  0  0  0  0  0999 V2000
   38.4790   30.6030   37.0910 Cl  0  0  0  0  0  0  0  0  0  0  0  0
   39.4200   31.6360   38.1180 C   0  0  0  0  0  0  0  0  0  0  0  0
   39.1670   31.6810   39.4780 C   0  0  0  0  0  0  0  0  0  0  0  0
   39.9780   32.5400   40.2010 C   0  0  0  0  0  0  0  0  0  0  0  0
   40.9810   33.3200   39.6790 C   0  0  0  0  0  0  0  0  0  0  0  0
   41.2010   33.2470   38.3270 C   0  0  0  0  0  0  0  0  0  0  0  0
   42.4840   34.2510   37.6870 Cl  0  0  0  0  0  0  0  0  0  0  0  0
   40.4340   32.4170   37.5540 C   0  0  0  0  0  0  0  0  0  0  0  0
   39.7650   32.5630   41.2770 H   0  0  0  0  0  0  0  0  0  0  0  0
   40.6160   32.3680   36.4900 H   0  0  0  0  0  0  0  0  0  0  0  0
   41.7210   34.1570   40.6120 C   0  0  0  0  0  0  0  0  0  0  0  0
   41.3640   35.4680   40.8890 C   0  0  0  0  0  0  0  0  0  0  0  0
   42.0440   36.2860   41.7680 C   0  0  0  0  0  0  0  0  0  0  0  0
   43.1500   35.7890   42.4210 C   0  0  0  0  0  0  0  0  0  0  0  0
   43.8010   36.5970   43.2720 N   0  0  0  0  0  0  0  0  0  0  0  0
   44.9010   36.1860   43.9570 C   0  0  0  0  0  0  0  0  0  0  0  0
   45.3160   34.8890   43.7320 C   0  0  0  0  0  0  0  0  0  0  0  0
   44.6520   34.0620   42.8620 C   0  0  0  0  0  0  0  0  0  0  0  0
   43.5340   34.5000   42.1750 C   0  0  0  0  0  0  0  0  0  0  0  0
   42.8410   33.6940   41.2910 C   0  0  0  0  0  0  0  0  0  0  0  0
   40.4870   35.8800   40.3770 H   0  0  0  0  0  0  0  0  0  0  0  0
   41.7160   37.3080   41.9450 H   0  0  0  0  0  0  0  0  0  0  0  0
   45.3740   36.8910   44.6260 H   0  0  0  0  0  0  0  0  0  0  0  0
   46.2000   34.5520   44.2790 H   0  0  0  0  0  0  0  0  0  0  0  0
   45.0030   33.0600   42.7120 H   0  0  0  0  0  0  0  0  0  0  0  0
   43.1760   32.6880   41.1260 H   0  0  0  0  0  0  0  0  0  0  0  0
   36.1210   30.7940   41.2560 C   0  0  0  0  0  0  0  0  0  0  0  0
   36.1570   29.3920   41.2780 C   0  0  0  0  0  0  0  0  0  0  0  0
   37.2500   28.7440   40.6690 C   0  0  0  0  0  0  0  0  0  0  0  0
   38.1750   29.5490   40.1130 N   0  0  0  0  0  0  0  0  0  0  0  0
   38.1240   30.8840   40.1010 C   0  0  0  0  0  0  0  0  0  0  0  0
   37.0980   31.5190   40.6720 N   0  0  0  0  0  0  0  0  0  0  0  0
   35.2760   31.2570   41.7280 H   0  0  0  0  0  0  0  0  0  0  0  0
   35.3840   28.8300   41.7400 H   0  0  0  0  0  0  0  0  0  0  0  0
   38.7100   27.6730   42.9890 Cl  0  0  0  0  0  0  0  0  0  0  0  0
   38.0410   26.6890   41.6850 C   0  0  0  0  0  0  0  0  0  0  0  0
   37.3730   27.2940   40.6430 C   0  0  0  0  0  0  0  0  0  0  0  0
   36.8750   26.4910   39.6600 C   0  0  0  0  0  0  0  0  0  0  0  0
   36.3450   26.9290   38.8280 H   0  0  0  0  0  0  0  0  0  0  0  0
   37.0490   25.1040   39.7320 C   0  0  0  0  0  3  0  0  0  0  0  0
   37.7200   24.5360   40.7840 C   0  0  0  0  0  0  0  0  0  0  0  0
   37.9330   22.7920   40.8650 Cl  0  0  0  0  0  0  0  0  0  0  0  0
   38.2300   25.3340   41.7870 C   0  0  0  0  0  0  0  0  0  0  0  0
   38.7560   24.8850   42.6110 H   0  0  0  0  0  0  0  0  0  0  0  0
  1  2  1  0  0  0  0
  2  3  1  0  0  0  0
  3 31  1  0  0  0  0
  3  4  2  0  0  0  0
  4  9  1  0  0  0  0
  5  4  1  0  0  0  0
  5 11  1  0  0  0  0
  6  5  2  0  0  0  0
  7  6  1  0  0  0  0
  8  2  2  0  0  0  0
  8  6  1  0  0  0  0
 10  8  1  0  0  0  0
 11 12  2  0  0  0  0
 11 20  1  0  0  0  0
 12 13  1  0  0  0  0
 13 22  1  0  0  0  0
 13 14  2  0  0  0  0
 14 15  1  0  0  0  0
 15 16  2  0  0  0  0
 16 23  1  0  0  0  0
 17 16  1  0  0  0  0
 17 24  1  0  0  0  0
 18 17  2  0  0  0  0
 19 14  1  0  0  0  0
 19 18  1  0  0  0  0
 20 19  2  0  0  0  0
 21 12  1  0  0  0  0
 25 18  1  0  0  0  0
 26 20  1  0  0  0  0
 27 28  1  0  0  0  0
 27 33  1  0  0  0  0
 28 34  1  0  0  0  0
 29 28  2  0  0  0  0
 30 29  1  0  0  0  0
 31 30  2  0  0  0  0
 31 32  1  0  0  0  0
 32 27  2  0  0  0  0
 36 43  1  0  0  0  0
 36 35  1  0  0  0  0
 37 29  1  0  0  0  0
 37 36  2  0  0  0  0
 38 40  2  0  0  0  0
 38 37  1  0  0  0  0
 39 38  1  0  0  0  0
 40 41  1  0  0  0  0
 41 42  1  0  0  0  0
 41 43  2  0  0  0  0
 43 44  1  0  0  0  0
M  END
>  <minimizedAffinity>
-7.74556589

$$$$

 OpenBabel03252506073D

 44 48  0  0  0  0  0  0  0  0999 V2000
   37.4540   34.0940   39.4100 Cl  0  0  0  0  0  0  0  0  0  0  0  0
   37.6920   32.4190   39.7890 C   0  0  0  0  0  0  0  0  0  0  0  0
   38.9680   31.8820   39.7950 C   0  0  0  0  0  0  0  0  0  0  0  0
   39.0410   30.5360   40.1110 C   0  0  0  0  0  0  0  0  0  0  0  0
   37.9710   29.7270   40.4100 C   0  0  0  0  0  0  0  0  0  0  0  0
   36.7240   30.2970   40.3940 C   0  0  0  0  0  0  0  0  0  0  0  0
   35.3780   29.2440   40.7780 Cl  0  0  0  0  0  0  0  0  0  0  0  0
   36.5820   31.6240   40.0890 C   0  0  0  0  0  0  0  0  0  0  0  0
   40.0580   30.1270   40.1110 H   0  0  0  0  0  0  0  0  0  0  0  0
   35.5930   32.0610   40.0790 H   0  0  0  0  0  0  0  0  0  0  0  0
   38.2610   28.3340   40.7160 C   0  0  0  0  0  0  0  0  0  0  0  0
   37.9980   27.3010   39.8300 C   0  0  0  0  0  0  0  0  0  0  0  0
   38.2610   25.9720   40.0910 C   0  0  0  0  0  0  0  0  0  0  0  0
   38.8210   25.6280   41.3010 C   0  0  0  0  0  0  0  0  0  0  0  0
   39.0720   24.3320   41.5400 N   0  0  0  0  0  0  0  0  0  0  0  0
   39.6230   23.9070   42.7080 C   0  0  0  0  0  0  0  0  0  0  0  0
   39.9130   24.8820   43.6410 C   0  0  0  0  0  0  0  0  0  0  0  0
   39.6570   26.2080   43.3980 C   0  0  0  0  0  0  0  0  0  0  0  0
   39.0970   26.6190   42.2020 C   0  0  0  0  0  0  0  0  0  0  0  0
   38.8260   27.9460   41.9250 C   0  0  0  0  0  0  0  0  0  0  0  0
   37.5520   27.5560   38.8620 H   0  0  0  0  0  0  0  0  0  0  0  0
   38.0320   25.2030   39.3550 H   0  0  0  0  0  0  0  0  0  0  0  0
   39.7960   22.8480   42.8310 H   0  0  0  0  0  0  0  0  0  0  0  0
   40.3560   24.5480   44.5820 H   0  0  0  0  0  0  0  0  0  0  0  0
   39.8970   26.9390   44.1460 H   0  0  0  0  0  0  0  0  0  0  0  0
   39.0570   28.6930   42.6600 H   0  0  0  0  0  0  0  0  0  0  0  0
   41.5720   33.5820   37.9080 C   0  0  0  0  0  0  0  0  0  0  0  0
   42.3630   34.1690   38.9070 C   0  0  0  0  0  0  0  0  0  0  0  0
   41.9910   33.9750   40.2520 C   0  0  0  0  0  0  0  0  0  0  0  0
   40.8880   33.2290   40.4550 N   0  0  0  0  0  0  0  0  0  0  0  0
   40.1470   32.6760   39.4900 C   0  0  0  0  0  0  0  0  0  0  0  0
   40.4810   32.8470   38.2100 N   0  0  0  0  0  0  0  0  0  0  0  0
   41.8830   33.7480   36.8940 H   0  0  0  0  0  0  0  0  0  0  0  0
   43.2210   34.7440   38.6610 H   0  0  0  0  0  0  0  0  0  0  0  0
   40.9740   36.5990   41.1110 Cl  0  0  0  0  0  0  0  0  0  0  0  0
   42.3560   35.7740   41.8360 C   0  0  0  0  0  0  0  0  0  0  0  0
   42.7500   34.5440   41.3550 C   0  0  0  0  0  0  0  0  0  0  0  0
   43.8230   33.9480   41.9480 C   0  0  0  0  0  0  0  0  0  0  0  0
   44.1600   32.9830   41.5990 H   0  0  0  0  0  0  0  0  0  0  0  0
   44.4830   34.5830   43.0050 C   0  0  0  0  0  3  0  0  0  0  0  0
   44.0640   35.8080   43.4580 C   0  0  0  0  0  0  0  0  0  0  0  0
   44.9000   36.5990   44.7880 Cl  0  0  0  0  0  0  0  0  0  0  0  0
   42.9790   36.4250   42.8700 C   0  0  0  0  0  0  0  0  0  0  0  0
   42.6530   37.3860   43.2270 H   0  0  0  0  0  0  0  0  0  0  0  0
  1  2  1  0  0  0  0
  2  3  2  0  0  0  0
  2  8  1  0  0  0  0
  3  4  1  0  0  0  0
  4  5  2  0  0  0  0
  5 11  1  0  0  0  0
  6  5  1  0  0  0  0
  6  7  1  0  0  0  0
  8  6  2  0  0  0  0
  9  4  1  0  0  0  0
 10  8  1  0  0  0  0
 11 20  1  0  0  0  0
 12 13  1  0  0  0  0
 12 11  2  0  0  0  0
 13 14  2  0  0  0  0
 14 15  1  0  0  0  0
 14 19  1  0  0  0  0
 15 16  2  0  0  0  0
 16 23  1  0  0  0  0
 16 17  1  0  0  0  0
 17 24  1  0  0  0  0
 18 17  2  0  0  0  0
 18 25  1  0  0  0  0
 19 18  1  0  0  0  0
 20 19  2  0  0  0  0
 20 26  1  0  0  0  0
 21 12  1  0  0  0  0
 22 13  1  0  0  0  0
 27 32  2  0  0  0  0
 27 28  1  0  0  0  0
 28 29  2  0  0  0  0
 29 30  1  0  0  0  0
 29 37  1  0  0  0  0
 31  3  1  0  0  0  0
 31 30  2  0  0  0  0
 32 31  1  0  0  0  0
 33 27  1  0  0  0  0
 34 28  1  0  0  0  0
 35 36  1  0  0  0  0
 36 43  1  0  0  0  0
 37 36  2  0  0  0  0
 37 38  1  0  0  0  0
 38 40  2  0  0  0  0
 39 38  1  0  0  0  0
 40 41  1  0  0  0  0
 41 42  1  0  0  0  0
 43 44  1  0  0  0  0
 43 41  2  0  0  0  0
M  END
>  <minimizedAffinity>
-7.73898125

$$$$

 OpenBabel03252506073D

 44 48  0  0  0  0  0  0  0  0999 V2000
   36.7890   26.1930   38.6380 Cl  0  0  0  0  0  0  0  0  0  0  0  0
   35.4490   27.1640   38.1200 C   0  0  0  0  0  0  0  0  0  0  0  0
   35.2100   28.3920   38.7130 C   0  0  0  0  0  0  0  0  0  0  0  0
   34.1150   29.0810   38.2210 C   0  0  0  0  0  0  0  0  0  0  0  0
   33.2800   28.6460   37.2210 C   0  0  0  0  0  0  0  0  0  0  0  0
   33.5510   27.4240   36.6590 C   0  0  0  0  0  0  0  0  0  0  0  0
   32.4720   26.8920   35.3860 Cl  0  0  0  0  0  0  0  0  0  0  0  0
   34.6190   26.6910   37.0990 C   0  0  0  0  0  0  0  0  0  0  0  0
   33.9400   30.0520   38.7010 H   0  0  0  0  0  0  0  0  0  0  0  0
   34.8220   25.7290   36.6480 H   0  0  0  0  0  0  0  0  0  0  0  0
   32.1800   29.5230   36.8480 C   0  0  0  0  0  0  0  0  0  0  0  0
   31.1240   29.8060   37.7000 C   0  0  0  0  0  0  0  0  0  0  0  0
   30.0680   30.6330   37.3760 C   0  0  0  0  0  0  0  0  0  0  0  0
   30.0430   31.2260   36.1340 C   0  0  0  0  0  0  0  0  0  0  0  0
   29.0100   32.0280   35.8330 N   0  0  0  0  0  0  0  0  0  0  0  0
   28.9080   32.6510   34.6290 C   0  0  0  0  0  0  0  0  0  0  0  0
   29.9260   32.4170   33.7270 C   0  0  0  0  0  0  0  0  0  0  0  0
   30.9820   31.5970   34.0330 C   0  0  0  0  0  0  0  0  0  0  0  0
   31.0680   30.9720   35.2640 C   0  0  0  0  0  0  0  0  0  0  0  0
   32.1180   30.1400   35.6050 C   0  0  0  0  0  0  0  0  0  0  0  0
   31.1280   29.3420   38.6930 H   0  0  0  0  0  0  0  0  0  0  0  0
   29.2660   30.8180   38.0880 H   0  0  0  0  0  0  0  0  0  0  0  0
   28.0470   33.2820   34.4570 H   0  0  0  0  0  0  0  0  0  0  0  0
   29.8490   32.9150   32.7570 H   0  0  0  0  0  0  0  0  0  0  0  0
   31.7560   31.4380   33.3060 H   0  0  0  0  0  0  0  0  0  0  0  0
   32.9020   29.9680   34.8920 H   0  0  0  0  0  0  0  0  0  0  0  0
   36.8140   28.7720   41.9550 C   0  0  0  0  0  0  0  0  0  0  0  0
   37.6270   29.9020   41.7820 C   0  0  0  0  0  0  0  0  0  0  0  0
   37.6210   30.5420   40.5260 C   0  0  0  0  0  0  0  0  0  0  0  0
   36.8190   29.9960   39.5930 N   0  0  0  0  0  0  0  0  0  0  0  0
   36.0500   28.9180   39.7750 C   0  0  0  0  0  0  0  0  0  0  0  0
   36.0410   28.2970   40.9560 N   0  0  0  0  0  0  0  0  0  0  0  0
   36.8410   28.3090   42.9220 H   0  0  0  0  0  0  0  0  0  0  0  0
   38.2320   30.2700   42.5720 H   0  0  0  0  0  0  0  0  0  0  0  0
   40.3010   29.8810   39.5070 Cl  0  0  0  0  0  0  0  0  0  0  0  0
   39.7070   31.5220   39.7710 C   0  0  0  0  0  0  0  0  0  0  0  0
   38.4310   31.7200   40.2530 C   0  0  0  0  0  0  0  0  0  0  0  0
   38.0180   33.0050   40.4410 C   0  0  0  0  0  0  0  0  0  0  0  0
   37.0250   33.1990   40.8170 H   0  0  0  0  0  0  0  0  0  0  0  0
   38.8780   34.0690   40.1450 C   0  0  0  0  0  3  0  0  0  0  0  0
   40.1420   33.8350   39.6670 C   0  0  0  0  0  0  0  0  0  0  0  0
   41.2160   35.1780   39.2990 Cl  0  0  0  0  0  0  0  0  0  0  0  0
   40.5760   32.5400   39.4710 C   0  0  0  0  0  0  0  0  0  0  0  0
   41.5680   32.3600   39.0950 H   0  0  0  0  0  0  0  0  0  0  0  0
  2  1  1  0  0  0  0
  2  3  1  0  0  0  0
  3 31  1  0  0  0  0
  4  9  1  0  0  0  0
  4  3  2  0  0  0  0
  5  4  1  0  0  0  0
  6  8  1  0  0  0  0
  6  5  2  0  0  0  0
  7  6  1  0  0  0  0
  8  2  2  0  0  0  0
 10  8  1  0  0  0  0
 11  5  1  0  0  0  0
 11 12  1  0  0  0  0
 12 21  1  0  0  0  0
 13 12  2  0  0  0  0
 13 22  1  0  0  0  0
 14 13  1  0  0  0  0
 15 14  1  0  0  0  0
 16 15  2  0  0  0  0
 17 18  2  0  0  0  0
 17 16  1  0  0  0  0
 18 19  1  0  0  0  0
 19 20  1  0  0  0  0
 19 14  2  0  0  0  0
 20 11  2  0  0  0  0
 23 16  1  0  0  0  0
 24 17  1  0  0  0  0
 25 18  1  0  0  0  0
 26 20  1  0  0  0  0
 27 33  1  0  0  0  0
 28 27  1  0  0  0  0
 28 34  1  0  0  0  0
 29 28  2  0  0  0  0
 30 31  2  0  0  0  0
 30 29  1  0  0  0  0
 31 32  1  0  0  0  0
 32 27  2  0  0  0  0
 35 36  1  0  0  0  0
 36 37  1  0  0  0  0
 37 38  2  0  0  0  0
 37 29  1  0  0  0  0
 38 39  1  0  0  0  0
 40 38  1  0  0  0  0
 41 40  2  0  0  0  0
 42 41  1  0  0  0  0
 43 41  1  0  0  0  0
 43 36  2  0  0  0  0
 44 43  1  0  0  0  0
M  END
>  <minimizedAffinity>
-7.49056768

$$$$

 OpenBabel03252506073D

 44 48  0  0  0  0  0  0  0  0999 V2000
   37.4700   30.0580   38.6480 Cl  0  0  0  0  0  0  0  0  0  0  0  0
   38.9090   30.8330   39.2290 C   0  0  0  0  0  0  0  0  0  0  0  0
   39.4050   30.5250   40.4830 C   0  0  0  0  0  0  0  0  0  0  0  0
   40.5580   31.2030   40.8440 C   0  0  0  0  0  0  0  0  0  0  0  0
   41.2180   32.1250   40.0690 C   0  0  0  0  0  0  0  0  0  0  0  0
   40.6940   32.4020   38.8320 C   0  0  0  0  0  0  0  0  0  0  0  0
   41.5540   33.5810   37.8640 Cl  0  0  0  0  0  0  0  0  0  0  0  0
   39.5560   31.7670   38.4130 C   0  0  0  0  0  0  0  0  0  0  0  0
   40.9380   30.9480   41.8410 H   0  0  0  0  0  0  0  0  0  0  0  0
   39.1530   31.9940   37.4360 H   0  0  0  0  0  0  0  0  0  0  0  0
   42.4170   32.7270   40.6330 C   0  0  0  0  0  0  0  0  0  0  0  0
   43.6710   32.1480   40.5220 C   0  0  0  0  0  0  0  0  0  0  0  0
   44.8250   32.6930   41.0450 C   0  0  0  0  0  0  0  0  0  0  0  0
   44.7490   33.8890   41.7240 C   0  0  0  0  0  0  0  0  0  0  0  0
   45.8800   34.4070   42.2270 N   0  0  0  0  0  0  0  0  0  0  0  0
   45.8930   35.5820   42.9110 C   0  0  0  0  0  0  0  0  0  0  0  0
   44.6770   36.2190   43.0620 C   0  0  0  0  0  0  0  0  0  0  0  0
   43.5200   35.6900   42.5490 C   0  0  0  0  0  0  0  0  0  0  0  0
   43.5290   34.4930   41.8550 C   0  0  0  0  0  0  0  0  0  0  0  0
   42.3820   33.9320   41.3250 C   0  0  0  0  0  0  0  0  0  0  0  0
   43.7500   31.1960   39.9850 H   0  0  0  0  0  0  0  0  0  0  0  0
   45.7830   32.1910   40.9250 H   0  0  0  0  0  0  0  0  0  0  0  0
   46.8410   35.9380   43.2880 H   0  0  0  0  0  0  0  0  0  0  0  0
   44.6800   37.1640   43.6110 H   0  0  0  0  0  0  0  0  0  0  0  0
   42.5940   36.2130   42.6850 H   0  0  0  0  0  0  0  0  0  0  0  0
   41.4440   34.4390   41.4510 H   0  0  0  0  0  0  0  0  0  0  0  0
   37.7160   29.0970   43.3700 C   0  0  0  0  0  0  0  0  0  0  0  0
   37.5500   27.7510   43.0140 C   0  0  0  0  0  0  0  0  0  0  0  0
   38.0300   27.3300   41.7570 C   0  0  0  0  0  0  0  0  0  0  0  0
   38.6130   28.2810   41.0020 N   0  0  0  0  0  0  0  0  0  0  0  0
   38.7620   29.5600   41.3580 C   0  0  0  0  0  0  0  0  0  0  0  0
   38.3160   29.9800   42.5440 N   0  0  0  0  0  0  0  0  0  0  0  0
   37.3400   29.3850   44.3330 H   0  0  0  0  0  0  0  0  0  0  0  0
   37.0780   27.0630   43.6690 H   0  0  0  0  0  0  0  0  0  0  0  0
   40.1400   25.5730   42.8150 Cl  0  0  0  0  0  0  0  0  0  0  0  0
   38.8430   25.0460   41.7390 C   0  0  0  0  0  0  0  0  0  0  0  0
   37.9040   25.9540   41.3010 C   0  0  0  0  0  0  0  0  0  0  0  0
   36.9230   25.4990   40.4710 C   0  0  0  0  0  0  0  0  0  0  0  0
   36.1690   26.1810   40.1090 H   0  0  0  0  0  0  0  0  0  0  0  0
   36.8930   24.1520   40.0940 C   0  0  0  0  0  3  0  0  0  0  0  0
   37.8440   23.2750   40.5490 C   0  0  0  0  0  0  0  0  0  0  0  0
   37.7980   21.5840   40.0680 Cl  0  0  0  0  0  0  0  0  0  0  0  0
   38.8440   23.7200   41.3890 C   0  0  0  0  0  0  0  0  0  0  0  0
   39.5890   23.0300   41.7440 H   0  0  0  0  0  0  0  0  0  0  0  0
  1  2  1  0  0  0  0
  2  3  1  0  0  0  0
  3  4  2  0  0  0  0
  3 31  1  0  0  0  0
  4  9  1  0  0  0  0
  5 11  1  0  0  0  0
  5  4  1  0  0  0  0
  6  5  2  0  0  0  0
  7  6  1  0  0  0  0
  8  6  1  0  0  0  0
  8  2  2  0  0  0  0
 10  8  1  0  0  0  0
 11 20  1  0  0  0  0
 12 11  2  0  0  0  0
 12 13  1  0  0  0  0
 13 14  2  0  0  0  0
 14 19  1  0  0  0  0
 14 15  1  0  0  0  0
 15 16  2  0  0  0  0
 16 17  1  0  0  0  0
 16 23  1  0  0  0  0
 17 24  1  0  0  0  0
 18 25  1  0  0  0  0
 18 17  2  0  0  0  0
 19 18  1  0  0  0  0
 20 26  1  0  0  0  0
 20 19  2  0  0  0  0
 21 12  1  0  0  0  0
 22 13  1  0  0  0  0
 27 33  1  0  0  0  0
 28 27  1  0  0  0  0
 28 34  1  0  0  0  0
 29 28  2  0  0  0  0
 30 31  2  0  0  0  0
 30 29  1  0  0  0  0
 31 32  1  0  0  0  0
 32 27  2  0  0  0  0
 36 35  1  0  0  0  0
 37 36  2  0  0  0  0
 37 29  1  0  0  0  0
 38 37  1  0  0  0  0
 39 38  1  0  0  0  0
 40 38  2  0  0  0  0
 40 41  1  0  0  0  0
 41 43  2  0  0  0  0
 42 41  1  0  0  0  0
 43 36  1  0  0  0  0
 43 44  1  0  0  0  0
M  END
>  <minimizedAffinity>
-7.0438447

$$$$

 OpenBabel03252506073D

 44 48  0  0  0  0  0  0  0  0999 V2000
   37.5000   33.8820   39.5520 Cl  0  0  0  0  0  0  0  0  0  0  0  0
   37.6690   32.1720   39.7880 C   0  0  0  0  0  0  0  0  0  0  0  0
   38.9140   31.5760   39.6820 C   0  0  0  0  0  0  0  0  0  0  0  0
   38.9310   30.2070   39.8900 C   0  0  0  0  0  0  0  0  0  0  0  0
   37.8370   29.4300   40.1840 C   0  0  0  0  0  0  0  0  0  0  0  0
   36.6220   30.0580   40.2800 C   0  0  0  0  0  0  0  0  0  0  0  0
   35.2450   29.0450   40.6560 Cl  0  0  0  0  0  0  0  0  0  0  0  0
   36.5350   31.4110   40.0870 C   0  0  0  0  0  0  0  0  0  0  0  0
   39.9240   29.7500   39.8020 H   0  0  0  0  0  0  0  0  0  0  0  0
   35.5720   31.8950   40.1660 H   0  0  0  0  0  0  0  0  0  0  0  0
   38.0690   28.0040   40.3660 C   0  0  0  0  0  0  0  0  0  0  0  0
   38.3830   27.4460   41.5950 C   0  0  0  0  0  0  0  0  0  0  0  0
   38.6080   26.1000   41.8000 C   0  0  0  0  0  0  0  0  0  0  0  0
   38.5170   25.2390   40.7290 C   0  0  0  0  0  0  0  0  0  0  0  0
   38.7380   23.9330   40.9440 N   0  0  0  0  0  0  0  0  0  0  0  0
   38.6690   23.0160   39.9420 C   0  0  0  0  0  0  0  0  0  0  0  0
   38.3590   23.4990   38.6870 C   0  0  0  0  0  0  0  0  0  0  0  0
   38.1340   24.8340   38.4660 C   0  0  0  0  0  0  0  0  0  0  0  0
   38.2080   25.7510   39.4990 C   0  0  0  0  0  0  0  0  0  0  0  0
   37.9870   27.1030   39.3120 C   0  0  0  0  0  0  0  0  0  0  0  0
   38.4600   28.1170   42.4580 H   0  0  0  0  0  0  0  0  0  0  0  0
   38.8520   25.7200   42.7900 H   0  0  0  0  0  0  0  0  0  0  0  0
   38.8590   21.9810   40.1890 H   0  0  0  0  0  0  0  0  0  0  0  0
   38.3020   22.7670   37.8770 H   0  0  0  0  0  0  0  0  0  0  0  0
   37.8940   25.1740   37.4770 H   0  0  0  0  0  0  0  0  0  0  0  0
   37.7470   27.4630   38.3300 H   0  0  0  0  0  0  0  0  0  0  0  0
   41.6950   33.0000   37.8220 C   0  0  0  0  0  0  0  0  0  0  0  0
   42.3760   33.7560   38.7870 C   0  0  0  0  0  0  0  0  0  0  0  0
   41.8660   33.7740   40.1010 C   0  0  0  0  0  0  0  0  0  0  0  0
   40.7510   33.0490   40.3080 N   0  0  0  0  0  0  0  0  0  0  0  0
   40.1150   32.3330   39.3750 C   0  0  0  0  0  0  0  0  0  0  0  0
   40.5800   32.3020   38.1250 N   0  0  0  0  0  0  0  0  0  0  0  0
   42.1090   33.0060   36.8310 H   0  0  0  0  0  0  0  0  0  0  0  0
   43.2530   34.3010   38.5410 H   0  0  0  0  0  0  0  0  0  0  0  0
   43.9110   32.2230   41.5390 Cl  0  0  0  0  0  0  0  0  0  0  0  0
   43.4800   33.8940   41.9070 C   0  0  0  0  0  0  0  0  0  0  0  0
   42.5040   34.5280   41.1690 C   0  0  0  0  0  0  0  0  0  0  0  0
   42.2060   35.8190   41.4910 C   0  0  0  0  0  0  0  0  0  0  0  0
   41.4480   36.3490   40.9350 H   0  0  0  0  0  0  0  0  0  0  0  0
   42.8820   36.4540   42.5390 C   0  0  0  0  0  3  0  0  0  0  0  0
   43.8480   35.7920   43.2530 C   0  0  0  0  0  0  0  0  0  0  0  0
   44.6910   36.5990   44.5690 Cl  0  0  0  0  0  0  0  0  0  0  0  0
   44.1620   34.4860   42.9390 C   0  0  0  0  0  0  0  0  0  0  0  0
   44.9190   33.9690   43.5010 H   0  0  0  0  0  0  0  0  0  0  0  0
  1  2  1  0  0  0  0
  2  8  1  0  0  0  0
  3  2  2  0  0  0  0
  3  4  1  0  0  0  0
  4  5  2  0  0  0  0
  5  6  1  0  0  0  0
  5 11  1  0  0  0  0
  6  7  1  0  0  0  0
  8 10  1  0  0  0  0
  8  6  2  0  0  0  0
  9  4  1  0  0  0  0
 11 12  1  0  0  0  0
 12 13  2  0  0  0  0
 12 21  1  0  0  0  0
 13 22  1  0  0  0  0
 14 15  1  0  0  0  0
 14 13  1  0  0  0  0
 16 23  1  0  0  0  0
 16 15  2  0  0  0  0
 17 16  1  0  0  0  0
 18 17  2  0  0  0  0
 18 19  1  0  0  0  0
 19 14  2  0  0  0  0
 20 19  1  0  0  0  0
 20 11  2  0  0  0  0
 24 17  1  0  0  0  0
 25 18  1  0  0  0  0
 26 20  1  0  0  0  0
 27 32  2  0  0  0  0
 27 28  1  0  0  0  0
 28 29  2  0  0  0  0
 29 30  1  0  0  0  0
 29 37  1  0  0  0  0
 31  3  1  0  0  0  0
 31 30  2  0  0  0  0
 32 31  1  0  0  0  0
 33 27  1  0  0  0  0
 34 28  1  0  0  0  0
 35 36  1  0  0  0  0
 36 43  1  0  0  0  0
 37 38  1  0  0  0  0
 37 36  2  0  0  0  0
 38 40  2  0  0  0  0
 39 38  1  0  0  0  0
 40 41  1  0  0  0  0
 41 42  1  0  0  0  0
 43 41  2  0  0  0  0
 43 44  1  0  0  0  0
M  END
>  <minimizedAffinity>
-6.99770737

$$$$

 OpenBabel03252506073D

 44 48  0  0  0  0  0  0  0  0999 V2000
   37.3910   29.9190   42.1340 Cl  0  0  0  0  0  0  0  0  0  0  0  0
   37.2750   28.3630   41.3760 C   0  0  0  0  0  0  0  0  0  0  0  0
   37.2990   28.2590   39.9960 C   0  0  0  0  0  0  0  0  0  0  0  0
   37.1990   26.9700   39.5010 C   0  0  0  0  0  0  0  0  0  0  0  0
   37.0840   25.8300   40.2580 C   0  0  0  0  0  0  0  0  0  0  0  0
   37.0650   25.9750   41.6220 C   0  0  0  0  0  0  0  0  0  0  0  0
   36.9180   24.5070   42.5630 Cl  0  0  0  0  0  0  0  0  0  0  0  0
   37.1600   27.2230   42.1770 C   0  0  0  0  0  0  0  0  0  0  0  0
   37.2190   26.9050   38.4060 H   0  0  0  0  0  0  0  0  0  0  0  0
   37.1430   27.3250   43.2530 H   0  0  0  0  0  0  0  0  0  0  0  0
   36.9920   24.5660   39.5410 C   0  0  0  0  0  0  0  0  0  0  0  0
   38.1040   23.8980   39.0520 C   0  0  0  0  0  0  0  0  0  0  0  0
   38.0500   22.7000   38.3700 C   0  0  0  0  0  0  0  0  0  0  0  0
   36.8240   22.1130   38.1510 C   0  0  0  0  0  0  0  0  0  0  0  0
   36.7870   20.9480   37.4860 N   0  0  0  0  0  0  0  0  0  0  0  0
   35.6190   20.3020   37.2280 C   0  0  0  0  0  0  0  0  0  0  0  0
   34.4660   20.9080   37.6860 C   0  0  0  0  0  0  0  0  0  0  0  0
   34.5030   22.0990   38.3660 C   0  0  0  0  0  0  0  0  0  0  0  0
   35.7020   22.7400   38.6190 C   0  0  0  0  0  0  0  0  0  0  0  0
   35.7750   23.9410   39.3000 C   0  0  0  0  0  0  0  0  0  0  0  0
   39.0880   24.3520   39.2170 H   0  0  0  0  0  0  0  0  0  0  0  0
   38.9580   22.2230   38.0080 H   0  0  0  0  0  0  0  0  0  0  0  0
   35.6660   19.3680   36.6870 H   0  0  0  0  0  0  0  0  0  0  0  0
   33.5240   20.3950   37.4820 H   0  0  0  0  0  0  0  0  0  0  0  0
   33.5870   22.5410   38.7080 H   0  0  0  0  0  0  0  0  0  0  0  0
   34.8700   24.4010   39.6500 H   0  0  0  0  0  0  0  0  0  0  0  0
   37.0470   30.4030   37.0690 C   0  0  0  0  0  0  0  0  0  0  0  0
   37.6410   31.6000   37.4940 C   0  0  0  0  0  0  0  0  0  0  0  0
   38.1360   31.6680   38.8120 C   0  0  0  0  0  0  0  0  0  0  0  0
   37.9870   30.5530   39.5530 N   0  0  0  0  0  0  0  0  0  0  0  0
   37.4190   29.4200   39.1310 C   0  0  0  0  0  0  0  0  0  0  0  0
   36.9440   29.3340   37.8870 N   0  0  0  0  0  0  0  0  0  0  0  0
   36.6810   30.3830   36.0600 H   0  0  0  0  0  0  0  0  0  0  0  0
   37.7190   32.4350   36.8440 H   0  0  0  0  0  0  0  0  0  0  0  0
   41.0510   31.7000   38.4140 Cl  0  0  0  0  0  0  0  0  0  0  0  0
   40.1340   32.9830   39.2060 C   0  0  0  0  0  0  0  0  0  0  0  0
   38.7680   32.8670   39.3410 C   0  0  0  0  0  0  0  0  0  0  0  0
   38.1040   33.8840   39.9610 C   0  0  0  0  0  0  0  0  0  0  0  0
   37.0330   33.8280   40.0840 H   0  0  0  0  0  0  0  0  0  0  0  0
   38.8100   34.9960   40.4330 C   0  0  0  0  0  3  0  0  0  0  0  0
   40.1710   35.0780   40.2820 C   0  0  0  0  0  0  0  0  0  0  0  0
   41.0490   36.4800   40.8800 Cl  0  0  0  0  0  0  0  0  0  0  0  0
   40.8570   34.0580   39.6570 C   0  0  0  0  0  0  0  0  0  0  0  0
   41.9240   34.1250   39.5410 H   0  0  0  0  0  0  0  0  0  0  0  0
  2  1  1  0  0  0  0
  2  8  1  0  0  0  0
  3  2  2  0  0  0  0
  4  3  1  0  0  0  0
  4  5  2  0  0  0  0
  5  6  1  0  0  0  0
  6  8  2  0  0  0  0
  6  7  1  0  0  0  0
  8 10  1  0  0  0  0
  9  4  1  0  0  0  0
 11  5  1  0  0  0  0
 12 21  1  0  0  0  0
 12 11  2  0  0  0  0
 13 12  1  0  0  0  0
 14 13  2  0  0  0  0
 14 19  1  0  0  0  0
 15 14  1  0  0  0  0
 16 15  2  0  0  0  0
 16 17  1  0  0  0  0
 17 18  2  0  0  0  0
 18 19  1  0  0  0  0
 18 25  1  0  0  0  0
 19 20  2  0  0  0  0
 20 11  1  0  0  0  0
 20 26  1  0  0  0  0
 22 13  1  0  0  0  0
 23 16  1  0  0  0  0
 24 17  1  0  0  0  0
 27 28  2  0  0  0  0
 27 32  1  0  0  0  0
 28 29  1  0  0  0  0
 29 37  1  0  0  0  0
 29 30  2  0  0  0  0
 31 30  1  0  0  0  0
 31  3  1  0  0  0  0
 32 31  2  0  0  0  0
 33 27  1  0  0  0  0
 34 28  1  0  0  0  0
 35 36  1  0  0  0  0
 36 37  2  0  0  0  0
 36 43  1  0  0  0  0
 37 38  1  0  0  0  0
 38 39  1  0  0  0  0
 38 40  2  0  0  0  0
 41 40  1  0  0  0  0
 41 42  1  0  0  0  0
 43 41  2  0  0  0  0
 44 43  1  0  0  0  0
M  END
>  <minimizedAffinity>
-6.97125006

$$$$

 OpenBabel03252506073D

 44 48  0  0  0  0  0  0  0  0999 V2000
   38.4140   29.6200   42.8940 Cl  0  0  0  0  0  0  0  0  0  0  0  0
   38.5570   28.0790   42.1090 C   0  0  0  0  0  0  0  0  0  0  0  0
   38.2650   27.9560   40.7620 C   0  0  0  0  0  0  0  0  0  0  0  0
   38.4130   26.6820   40.2410 C   0  0  0  0  0  0  0  0  0  0  0  0
   38.8180   25.5740   40.9440 C   0  0  0  0  0  0  0  0  0  0  0  0
   39.0990   25.7370   42.2760 C   0  0  0  0  0  0  0  0  0  0  0  0
   39.6130   24.3090   43.1490 Cl  0  0  0  0  0  0  0  0  0  0  0  0
   38.9730   26.9710   42.8540 C   0  0  0  0  0  0  0  0  0  0  0  0
   38.1770   26.6010   39.1730 H   0  0  0  0  0  0  0  0  0  0  0  0
   39.1970   27.0880   43.9060 H   0  0  0  0  0  0  0  0  0  0  0  0
   38.9110   24.3210   40.2080 C   0  0  0  0  0  0  0  0  0  0  0  0
   38.0050   23.2850   40.3730 C   0  0  0  0  0  0  0  0  0  0  0  0
   38.0660   22.0870   39.6910 C   0  0  0  0  0  0  0  0  0  0  0  0
   39.0830   21.8880   38.7830 C   0  0  0  0  0  0  0  0  0  0  0  0
   39.1290   20.7180   38.1270 N   0  0  0  0  0  0  0  0  0  0  0  0
   40.0980   20.4410   37.2160 C   0  0  0  0  0  0  0  0  0  0  0  0
   41.0380   21.4280   36.9970 C   0  0  0  0  0  0  0  0  0  0  0  0
   40.9920   22.6240   37.6670 C   0  0  0  0  0  0  0  0  0  0  0  0
   39.9960   22.8870   38.5910 C   0  0  0  0  0  0  0  0  0  0  0  0
   39.9210   24.0810   39.2840 C   0  0  0  0  0  0  0  0  0  0  0  0
   37.1900   23.4260   41.0910 H   0  0  0  0  0  0  0  0  0  0  0  0
   37.3250   21.3090   39.8630 H   0  0  0  0  0  0  0  0  0  0  0  0
   40.0730   19.4780   36.7260 H   0  0  0  0  0  0  0  0  0  0  0  0
   41.8200   21.2120   36.2660 H   0  0  0  0  0  0  0  0  0  0  0  0
   41.7390   23.3690   37.4720 H   0  0  0  0  0  0  0  0  0  0  0  0
   40.6590   24.8400   39.1030 H   0  0  0  0  0  0  0  0  0  0  0  0
   36.4640   29.9170   38.2840 C   0  0  0  0  0  0  0  0  0  0  0  0
   37.0110   31.2000   38.4280 C   0  0  0  0  0  0  0  0  0  0  0  0
   38.0180   31.3900   39.3950 C   0  0  0  0  0  0  0  0  0  0  0  0
   38.3650   30.3000   40.1050 N   0  0  0  0  0  0  0  0  0  0  0  0
   37.8320   29.0840   39.9540 C   0  0  0  0  0  0  0  0  0  0  0  0
   36.8770   28.8810   39.0440 N   0  0  0  0  0  0  0  0  0  0  0  0
   35.7000   29.8050   37.5390 H   0  0  0  0  0  0  0  0  0  0  0  0
   36.6810   32.0090   37.8260 H   0  0  0  0  0  0  0  0  0  0  0  0
   40.7690   31.5250   38.3580 Cl  0  0  0  0  0  0  0  0  0  0  0  0
   39.9370   32.8560   39.1670 C   0  0  0  0  0  0  0  0  0  0  0  0
   38.6450   32.6850   39.6160 C   0  0  0  0  0  0  0  0  0  0  0  0
   38.0460   33.7410   40.2350 C   0  0  0  0  0  0  0  0  0  0  0  0
   37.0340   33.6460   40.5990 H   0  0  0  0  0  0  0  0  0  0  0  0
   38.7400   34.9460   40.3950 C   0  0  0  0  0  3  0  0  0  0  0  0
   40.0250   35.0800   39.9360 C   0  0  0  0  0  0  0  0  0  0  0  0
   40.8900   36.5980   40.1430 Cl  0  0  0  0  0  0  0  0  0  0  0  0
   40.6460   34.0210   39.3080 C   0  0  0  0  0  0  0  0  0  0  0  0
   41.6550   34.1290   38.9490 H   0  0  0  0  0  0  0  0  0  0  0  0
  2  8  1  0  0  0  0
  2  1  1  0  0  0  0
  3  2  2  0  0  0  0
  4  3  1  0  0  0  0
  4  5  2  0  0  0  0
  5  6  1  0  0  0  0
  6  8  2  0  0  0  0
  6  7  1  0  0  0  0
  8 10  1  0  0  0  0
  9  4  1  0  0  0  0
 11 12  1  0  0  0  0
 11  5  1  0  0  0  0
 12 21  1  0  0  0  0
 13 22  1  0  0  0  0
 13 12  2  0  0  0  0
 14 13  1  0  0  0  0
 15 14  2  0  0  0  0
 16 15  1  0  0  0  0
 17 16  2  0  0  0  0
 17 18  1  0  0  0  0
 18 19  2  0  0  0  0
 19 14  1  0  0  0  0
 19 20  1  0  0  0  0
 20 11  2  0  0  0  0
 23 16  1  0  0  0  0
 24 17  1  0  0  0  0
 25 18  1  0  0  0  0
 26 20  1  0  0  0  0
 27 28  2  0  0  0  0
 27 32  1  0  0  0  0
 28 29  1  0  0  0  0
 29 37  1  0  0  0  0
 29 30  2  0  0  0  0
 31 30  1  0  0  0  0
 31  3  1  0  0  0  0
 32 31  2  0  0  0  0
 33 27  1  0  0  0  0
 34 28  1  0  0  0  0
 35 36  1  0  0  0  0
 36 43  2  0  0  0  0
 36 37  1  0  0  0  0
 37 38  2  0  0  0  0
 38 40  1  0  0  0  0
 38 39  1  0  0  0  0
 41 42  1  0  0  0  0
 41 40  2  0  0  0  0
 43 41  1  0  0  0  0
 44 43  1  0  0  0  0
M  END
>  <minimizedAffinity>
-6.95249176

$$$$

 OpenBabel03252506073D

 44 48  0  0  0  0  0  0  0  0999 V2000
   38.9280   26.6360   37.0010 Cl  0  0  0  0  0  0  0  0  0  0  0  0
   37.3320   27.2930   36.8270 C   0  0  0  0  0  0  0  0  0  0  0  0
   36.3280   26.9210   37.7040 C   0  0  0  0  0  0  0  0  0  0  0  0
   35.0950   27.5070   37.4710 C   0  0  0  0  0  0  0  0  0  0  0  0
   34.8120   28.4000   36.4670 C   0  0  0  0  0  0  0  0  0  0  0  0
   35.8340   28.7430   35.6190 C   0  0  0  0  0  0  0  0  0  0  0  0
   35.4460   29.8830   34.3480 Cl  0  0  0  0  0  0  0  0  0  0  0  0
   37.0780   28.2010   35.7930 C   0  0  0  0  0  0  0  0  0  0  0  0
   34.3110   27.2010   38.1750 H   0  0  0  0  0  0  0  0  0  0  0  0
   37.8760   28.4790   35.1190 H   0  0  0  0  0  0  0  0  0  0  0  0
   33.4470   28.9020   36.3930 C   0  0  0  0  0  0  0  0  0  0  0  0
   32.7760   29.0770   35.1930 C   0  0  0  0  0  0  0  0  0  0  0  0
   31.4840   29.5500   35.0900 C   0  0  0  0  0  0  0  0  0  0  0  0
   30.8000   29.8730   36.2410 C   0  0  0  0  0  0  0  0  0  0  0  0
   29.5440   30.3310   36.1250 N   0  0  0  0  0  0  0  0  0  0  0  0
   28.7980   30.6730   37.2090 C   0  0  0  0  0  0  0  0  0  0  0  0
   29.4010   30.5240   38.4420 C   0  0  0  0  0  0  0  0  0  0  0  0
   30.6850   30.0560   38.5620 C   0  0  0  0  0  0  0  0  0  0  0  0
   31.4270   29.7130   37.4450 C   0  0  0  0  0  0  0  0  0  0  0  0
   32.7220   29.2380   37.5300 C   0  0  0  0  0  0  0  0  0  0  0  0
   33.3070   28.8250   34.2680 H   0  0  0  0  0  0  0  0  0  0  0  0
   31.0090   29.6670   34.1190 H   0  0  0  0  0  0  0  0  0  0  0  0
   27.7940   31.0350   37.0400 H   0  0  0  0  0  0  0  0  0  0  0  0
   28.8080   30.7970   39.3180 H   0  0  0  0  0  0  0  0  0  0  0  0
   31.1220   29.9520   39.5360 H   0  0  0  0  0  0  0  0  0  0  0  0
   33.1780   29.1280   38.4950 H   0  0  0  0  0  0  0  0  0  0  0  0
   35.9820   24.0090   39.8550 C   0  0  0  0  0  0  0  0  0  0  0  0
   36.9690   24.2110   40.8320 C   0  0  0  0  0  0  0  0  0  0  0  0
   37.7660   25.3700   40.7450 C   0  0  0  0  0  0  0  0  0  0  0  0
   37.4990   26.1900   39.7110 N   0  0  0  0  0  0  0  0  0  0  0  0
   36.5530   25.9830   38.7900 C   0  0  0  0  0  0  0  0  0  0  0  0
   35.7870   24.8920   38.8530 N   0  0  0  0  0  0  0  0  0  0  0  0
   35.3930   23.1180   39.9500 H   0  0  0  0  0  0  0  0  0  0  0  0
   37.1160   23.5120   41.6170 H   0  0  0  0  0  0  0  0  0  0  0  0
   36.8280   27.0290   42.9860 Cl  0  0  0  0  0  0  0  0  0  0  0  0
   38.4800   26.4350   42.8030 C   0  0  0  0  0  0  0  0  0  0  0  0
   38.8130   25.6630   41.7110 C   0  0  0  0  0  0  0  0  0  0  0  0
   40.1020   25.2290   41.6140 C   0  0  0  0  0  0  0  0  0  0  0  0
   40.4010   24.6210   40.7730 H   0  0  0  0  0  0  0  0  0  0  0  0
   41.0330   25.5690   42.6030 C   0  0  0  0  0  3  0  0  0  0  0  0
   40.6650   26.3390   43.6760 C   0  0  0  0  0  0  0  0  0  0  0  0
   41.8430   26.7610   44.9120 Cl  0  0  0  0  0  0  0  0  0  0  0  0
   39.3660   26.7870   43.7890 C   0  0  0  0  0  0  0  0  0  0  0  0
   39.0810   27.3920   44.6320 H   0  0  0  0  0  0  0  0  0  0  0  0
  2  1  1  0  0  0  0
  2  3  1  0  0  0  0
  3 31  1  0  0  0  0
  4  3  2  0  0  0  0
  4  9  1  0  0  0  0
  5  4  1  0  0  0  0
  6  8  1  0  0  0  0
  6  5  2  0  0  0  0
  7  6  1  0  0  0  0
  8  2  2  0  0  0  0
 10  8  1  0  0  0  0
 11  5  1  0  0  0  0
 11 20  1  0  0  0  0
 12 11  2  0  0  0  0
 13 12  1  0  0  0  0
 13 14  2  0  0  0  0
 14 19  1  0  0  0  0
 15 14  1  0  0  0  0
 15 16  2  0  0  0  0
 16 17  1  0  0  0  0
 17 18  2  0  0  0  0
 17 24  1  0  0  0  0
 18 25  1  0  0  0  0
 19 20  2  0  0  0  0
 19 18  1  0  0  0  0
 20 26  1  0  0  0  0
 21 12  1  0  0  0  0
 22 13  1  0  0  0  0
 23 16  1  0  0  0  0
 27 33  1  0  0  0  0
 27 28  1  0  0  0  0
 28 34  1  0  0  0  0
 29 28  2  0  0  0  0
 29 37  1  0  0  0  0
 30 29  1  0  0  0  0
 31 32  1  0  0  0  0
 31 30  2  0  0  0  0
 32 27  2  0  0  0  0
 36 35  1  0  0  0  0
 36 43  1  0  0  0  0
 37 36  2  0  0  0  0
 38 37  1  0  0  0  0
 38 40  2  0  0  0  0
 39 38  1  0  0  0  0
 40 41  1  0  0  0  0
 41 43  2  0  0  0  0
 41 42  1  0  0  0  0
 43 44  1  0  0  0  0
M  END
>  <minimizedAffinity>
-6.88255024

$$$$

 OpenBabel03252506073D

 44 48  0  0  0  0  0  0  0  0999 V2000
   36.5890   26.0090   41.4180 Cl  0  0  0  0  0  0  0  0  0  0  0  0
   37.3840   27.5110   41.0750 C   0  0  0  0  0  0  0  0  0  0  0  0
   37.1660   28.1530   39.8680 C   0  0  0  0  0  0  0  0  0  0  0  0
   37.8520   29.3440   39.7010 C   0  0  0  0  0  0  0  0  0  0  0  0
   38.7020   29.9120   40.6180 C   0  0  0  0  0  0  0  0  0  0  0  0
   38.8910   29.2460   41.8020 C   0  0  0  0  0  0  0  0  0  0  0  0
   39.9790   29.9910   42.9540 Cl  0  0  0  0  0  0  0  0  0  0  0  0
   38.2430   28.0620   42.0320 C   0  0  0  0  0  0  0  0  0  0  0  0
   37.6690   29.8390   38.7390 H   0  0  0  0  0  0  0  0  0  0  0  0
   38.4000   27.5460   42.9680 H   0  0  0  0  0  0  0  0  0  0  0  0
   39.3270   31.1730   40.2490 C   0  0  0  0  0  0  0  0  0  0  0  0
   40.5050   31.2420   39.5210 C   0  0  0  0  0  0  0  0  0  0  0  0
   41.1220   32.4210   39.1550 C   0  0  0  0  0  0  0  0  0  0  0  0
   40.5470   33.6160   39.5260 C   0  0  0  0  0  0  0  0  0  0  0  0
   41.1580   34.7540   39.1630 N   0  0  0  0  0  0  0  0  0  0  0  0
   40.6580   35.9760   39.4880 C   0  0  0  0  0  0  0  0  0  0  0  0
   39.4840   35.9870   40.2140 C   0  0  0  0  0  0  0  0  0  0  0  0
   38.8590   34.8240   40.5860 C   0  0  0  0  0  0  0  0  0  0  0  0
   39.3840   33.5910   40.2450 C   0  0  0  0  0  0  0  0  0  0  0  0
   38.7800   32.4000   40.6030 C   0  0  0  0  0  0  0  0  0  0  0  0
   40.9760   30.3000   39.2180 H   0  0  0  0  0  0  0  0  0  0  0  0
   42.0470   32.4120   38.5830 H   0  0  0  0  0  0  0  0  0  0  0  0
   41.2050   36.8500   39.1620 H   0  0  0  0  0  0  0  0  0  0  0  0
   39.0770   36.9660   40.4790 H   0  0  0  0  0  0  0  0  0  0  0  0
   37.9470   34.8710   41.1500 H   0  0  0  0  0  0  0  0  0  0  0  0
   37.8670   32.4250   41.1680 H   0  0  0  0  0  0  0  0  0  0  0  0
   35.6510   25.8340   37.5120 C   0  0  0  0  0  0  0  0  0  0  0  0
   34.6200   26.5890   36.9330 C   0  0  0  0  0  0  0  0  0  0  0  0
   34.4460   27.9190   37.3640 C   0  0  0  0  0  0  0  0  0  0  0  0
   35.3040   28.3470   38.3090 N   0  0  0  0  0  0  0  0  0  0  0  0
   36.2810   27.6130   38.8500 C   0  0  0  0  0  0  0  0  0  0  0  0
   36.4630   26.3510   38.4570 N   0  0  0  0  0  0  0  0  0  0  0  0
   35.7570   24.8240   37.1620 H   0  0  0  0  0  0  0  0  0  0  0  0
   33.9860   26.1750   36.1900 H   0  0  0  0  0  0  0  0  0  0  0  0
   34.9520   28.7150   34.5760 Cl  0  0  0  0  0  0  0  0  0  0  0  0
   33.5440   29.2100   35.5190 C   0  0  0  0  0  0  0  0  0  0  0  0
   33.4050   28.7790   36.8210 C   0  0  0  0  0  0  0  0  0  0  0  0
   32.3020   29.1890   37.5090 C   0  0  0  0  0  0  0  0  0  0  0  0
   32.1580   28.8710   38.5300 H   0  0  0  0  0  0  0  0  0  0  0  0
   31.3580   30.0180   36.8900 C   0  0  0  0  0  3  0  0  0  0  0  0
   31.5290   30.4270   35.5930 C   0  0  0  0  0  0  0  0  0  0  0  0
   30.3380   31.4690   34.8250 Cl  0  0  0  0  0  0  0  0  0  0  0  0
   32.6400   30.0210   34.8830 C   0  0  0  0  0  0  0  0  0  0  0  0
   32.7710   30.3450   33.8650 H   0  0  0  0  0  0  0  0  0  0  0  0
  2  1  1  0  0  0  0
  2  8  1  0  0  0  0
  3  2  2  0  0  0  0
  4  3  1  0  0  0  0
  4  5  2  0  0  0  0
  5  6  1  0  0  0  0
  6  8  2  0  0  0  0
  6  7  1  0  0  0  0
  8 10  1  0  0  0  0
  9  4  1  0  0  0  0
 11 20  1  0  0  0  0
 11  5  1  0  0  0  0
 12 11  2  0  0  0  0
 13 12  1  0  0  0  0
 13 14  2  0  0  0  0
 14 19  1  0  0  0  0
 15 16  2  0  0  0  0
 15 14  1  0  0  0  0
 16 17  1  0  0  0  0
 17 24  1  0  0  0  0
 17 18  2  0  0  0  0
 18 25  1  0  0  0  0
 19 18  1  0  0  0  0
 19 20  2  0  0  0  0
 20 26  1  0  0  0  0
 21 12  1  0  0  0  0
 22 13  1  0  0  0  0
 23 16  1  0  0  0  0
 27 32  1  0  0  0  0
 28 29  1  0  0  0  0
 28 27  2  0  0  0  0
 29 30  2  0  0  0  0
 30 31  1  0  0  0  0
 31  3  1  0  0  0  0
 32 31  2  0  0  0  0
 33 27  1  0  0  0  0
 34 28  1  0  0  0  0
 35 36  1  0  0  0  0
 36 37  1  0  0  0  0
 37 29  1  0  0  0  0
 37 38  2  0  0  0  0
 38 39  1  0  0  0  0
 40 38  1  0  0  0  0
 41 40  2  0  0  0  0
 42 41  1  0  0  0  0
 43 36  2  0  0  0  0
 43 41  1  0  0  0  0
 44 43  1  0  0  0  0
M  END
>  <minimizedAffinity>
-6.69856501

$$$$
