
 OpenBabel03252504543D

 22 23  0  0  0  0  0  0  0  0999 V2000
   35.8150   28.9060   41.0430 C   0  0  0  0  0  0  0  0  0  0  0  0
   35.1410   29.2600   41.8690 H   0  0  0  0  0  0  0  0  0  0  0  0
   35.2080   28.3200   40.3230 H   0  0  0  0  0  0  0  0  0  0  0  0
   36.5400   26.4710   39.5260 Cl  0  0  0  0  0  0  0  0  0  0  0  0
   37.2530   26.8740   41.0870 C   0  0  0  0  0  0  0  0  0  0  0  0
   36.8250   28.0530   41.7000 C   0  0  0  0  0  0  0  0  0  0  0  0
   37.3930   28.3690   42.9390 C   0  0  0  0  0  0  0  0  0  0  0  0
   37.0700   29.2920   43.4370 H   0  0  0  0  0  0  0  0  0  0  0  0
   38.3390   27.5720   43.5560 C   0  0  0  0  0  3  0  0  0  0  0  0
   38.7550   26.3950   42.9250 C   0  0  0  0  0  0  0  0  0  0  0  0
   39.9530   25.3570   43.6790 Cl  0  0  0  0  0  0  0  0  0  0  0  0
   38.2010   26.0610   41.6920 C   0  0  0  0  0  0  0  0  0  0  0  0
   38.5220   25.1400   41.1930 H   0  0  0  0  0  0  0  0  0  0  0  0
   36.9480   31.1420   38.3050 C   0  0  0  0  0  0  0  0  0  0  0  0
   36.4270   30.0120   38.9600 C   0  0  0  0  0  0  0  0  0  0  0  0
   36.3540   30.0750   40.3620 C   0  0  0  0  0  0  0  0  0  0  0  0
   36.7860   31.2100   40.9840 N   0  0  0  0  0  0  0  0  0  0  0  0
   37.2790   32.2690   40.3000 C   0  0  0  0  0  0  0  0  0  0  0  0
   37.3580   32.2290   38.9560 N   0  0  0  0  0  0  0  0  0  0  0  0
   36.9950   31.0680   37.2110 H   0  0  0  0  0  0  0  0  0  0  0  0
   36.0940   29.1290   38.4350 H   0  0  0  0  0  0  0  0  0  0  0  0
   37.5950   33.1230   40.8970 H   0  0  0  0  0  0  0  0  0  0  0  0
  1  6  1  0  0  0  0
  1  2  1  0  0  0  0
  3  1  1  0  0  0  0
  4  5  1  0  0  0  0
  5 12  2  0  0  0  0
  5  6  1  0  0  0  0
  6  7  2  0  0  0  0
  7  8  1  0  0  0  0
  7  9  1  0  0  0  0
 10  9  2  0  0  0  0
 10 11  1  0  0  0  0
 12 10  1  0  0  0  0
 13 12  1  0  0  0  0
 14 19  2  0  0  0  0
 14 15  1  0  0  0  0
 15 16  2  0  0  0  0
 16 17  1  0  0  0  0
 16  1  1  0  0  0  0
 18 22  1  0  0  0  0
 18 17  2  0  0  0  0
 19 18  1  0  0  0  0
 20 14  1  0  0  0  0
 21 15  1  0  0  0  0
M  END
>  <minimizedAffinity>
-4.69267941

$$$$

 OpenBabel03252504543D

 22 23  0  0  0  0  0  0  0  0999 V2000
   37.4300   28.2170   43.3960 C   0  0  0  0  0  0  0  0  0  0  0  0
   36.3520   28.0940   43.1050 H   0  0  0  0  0  0  0  0  0  0  0  0
   37.4760   28.4620   44.4770 H   0  0  0  0  0  0  0  0  0  0  0  0
   35.7110   28.9190   41.0920 Cl  0  0  0  0  0  0  0  0  0  0  0  0
   37.2100   29.7700   41.4620 C   0  0  0  0  0  0  0  0  0  0  0  0
   37.9300   29.3410   42.5780 C   0  0  0  0  0  0  0  0  0  0  0  0
   39.1200   30.0180   42.8680 C   0  0  0  0  0  0  0  0  0  0  0  0
   39.7000   29.6960   43.7420 H   0  0  0  0  0  0  0  0  0  0  0  0
   39.5890   31.0700   42.1040 C   0  0  0  0  0  3  0  0  0  0  0  0
   38.8530   31.4850   40.9890 C   0  0  0  0  0  0  0  0  0  0  0  0
   39.4190   32.8160   39.9940 Cl  0  0  0  0  0  0  0  0  0  0  0  0
   37.6660   30.8230   40.6820 C   0  0  0  0  0  0  0  0  0  0  0  0
   37.0850   31.1430   39.8100 H   0  0  0  0  0  0  0  0  0  0  0  0
   38.1040   24.7870   42.1470 C   0  0  0  0  0  0  0  0  0  0  0  0
   37.4450   26.0100   42.3640 C   0  0  0  0  0  0  0  0  0  0  0  0
   38.1110   26.9500   43.1700 C   0  0  0  0  0  0  0  0  0  0  0  0
   39.3320   26.6180   43.6800 N   0  0  0  0  0  0  0  0  0  0  0  0
   39.9190   25.4230   43.4360 C   0  0  0  0  0  0  0  0  0  0  0  0
   39.2980   24.5090   42.6660 N   0  0  0  0  0  0  0  0  0  0  0  0
   37.5640   24.0720   41.5140 H   0  0  0  0  0  0  0  0  0  0  0  0
   36.4770   26.2390   41.9440 H   0  0  0  0  0  0  0  0  0  0  0  0
   40.8940   25.2630   43.8930 H   0  0  0  0  0  0  0  0  0  0  0  0
  1  3  1  0  0  0  0
  2  1  1  0  0  0  0
  4  5  1  0  0  0  0
  5  6  1  0  0  0  0
  6  7  2  0  0  0  0
  6  1  1  0  0  0  0
  7  8  1  0  0  0  0
  9  7  1  0  0  0  0
 10  9  2  0  0  0  0
 11 10  1  0  0  0  0
 12 10  1  0  0  0  0
 12  5  2  0  0  0  0
 13 12  1  0  0  0  0
 14 15  2  0  0  0  0
 14 19  1  0  0  0  0
 15 16  1  0  0  0  0
 16  1  1  0  0  0  0
 16 17  2  0  0  0  0
 18 17  1  0  0  0  0
 18 22  1  0  0  0  0
 19 18  2  0  0  0  0
 20 14  1  0  0  0  0
 21 15  1  0  0  0  0
M  END
>  <minimizedAffinity>
-4.65388107

$$$$

 OpenBabel03252504543D

 22 23  0  0  0  0  0  0  0  0999 V2000
   37.9810   28.0020   43.5460 C   0  0  0  0  0  0  0  0  0  0  0  0
   38.8960   28.0280   44.1970 H   0  0  0  0  0  0  0  0  0  0  0  0
   37.0850   28.0670   44.1970 H   0  0  0  0  0  0  0  0  0  0  0  0
   40.6060   26.6430   43.6800 Cl  0  0  0  0  0  0  0  0  0  0  0  0
   39.2160   25.9580   42.8390 C   0  0  0  0  0  0  0  0  0  0  0  0
   38.0330   26.7000   42.8500 C   0  0  0  0  0  0  0  0  0  0  0  0
   36.9330   26.1530   42.1810 C   0  0  0  0  0  0  0  0  0  0  0  0
   35.9940   26.7210   42.1790 H   0  0  0  0  0  0  0  0  0  0  0  0
   36.9800   24.9350   41.5290 C   0  0  0  0  0  3  0  0  0  0  0  0
   38.1750   24.2080   41.5300 C   0  0  0  0  0  0  0  0  0  0  0  0
   38.2730   22.6570   40.7110 Cl  0  0  0  0  0  0  0  0  0  0  0  0
   39.2830   24.7340   42.1890 C   0  0  0  0  0  0  0  0  0  0  0  0
   40.2220   24.1690   42.1930 H   0  0  0  0  0  0  0  0  0  0  0  0
   39.2430   31.0080   41.7720 C   0  0  0  0  0  0  0  0  0  0  0  0
   39.2160   29.8870   42.6200 C   0  0  0  0  0  0  0  0  0  0  0  0
   38.0120   29.1630   42.6680 C   0  0  0  0  0  0  0  0  0  0  0  0
   36.9680   29.5890   41.9000 N   0  0  0  0  0  0  0  0  0  0  0  0
   37.0520   30.6780   41.1000 C   0  0  0  0  0  0  0  0  0  0  0  0
   38.1970   31.3850   41.0400 N   0  0  0  0  0  0  0  0  0  0  0  0
   40.1940   31.5560   41.7520 H   0  0  0  0  0  0  0  0  0  0  0  0
   40.0620   29.5790   43.2150 H   0  0  0  0  0  0  0  0  0  0  0  0
   36.1580   30.9270   40.5300 H   0  0  0  0  0  0  0  0  0  0  0  0
  1  3  1  0  0  0  0
  1  2  1  0  0  0  0
  5  6  1  0  0  0  0
  5  4  1  0  0  0  0
  6  1  1  0  0  0  0
  7  6  2  0  0  0  0
  8  7  1  0  0  0  0
  9 10  2  0  0  0  0
  9  7  1  0  0  0  0
 10 12  1  0  0  0  0
 11 10  1  0  0  0  0
 12 13  1  0  0  0  0
 12  5  2  0  0  0  0
 14 15  1  0  0  0  0
 15 16  2  0  0  0  0
 15 21  1  0  0  0  0
 16  1  1  0  0  0  0
 17 16  1  0  0  0  0
 18 17  2  0  0  0  0
 19 18  1  0  0  0  0
 19 14  2  0  0  0  0
 20 14  1  0  0  0  0
 22 18  1  0  0  0  0
M  END
>  <minimizedAffinity>
-4.65228462

$$$$

 OpenBabel03252504543D

 22 23  0  0  0  0  0  0  0  0999 V2000
   36.6930   27.6090   42.7640 C   0  0  0  0  0  0  0  0  0  0  0  0
   36.5040   28.1420   43.7350 H   0  0  0  0  0  0  0  0  0  0  0  0
   35.9370   26.8060   42.6510 H   0  0  0  0  0  0  0  0  0  0  0  0
   36.9000   24.7470   42.0420 Cl  0  0  0  0  0  0  0  0  0  0  0  0
   38.2820   25.7020   42.5740 C   0  0  0  0  0  0  0  0  0  0  0  0
   38.0520   27.0430   42.8860 C   0  0  0  0  0  0  0  0  0  0  0  0
   39.1510   27.7970   43.3090 C   0  0  0  0  0  0  0  0  0  0  0  0
   38.9910   28.8540   43.5580 H   0  0  0  0  0  0  0  0  0  0  0  0
   40.4240   27.2690   43.4240 C   0  0  0  0  0  3  0  0  0  0  0  0
   40.6340   25.9230   43.1070 C   0  0  0  0  0  0  0  0  0  0  0  0
   42.2360   25.2180   43.2420 Cl  0  0  0  0  0  0  0  0  0  0  0  0
   39.5530   25.1540   42.6840 C   0  0  0  0  0  0  0  0  0  0  0  0
   39.7110   24.0990   42.4350 H   0  0  0  0  0  0  0  0  0  0  0  0
   36.0460   28.9690   39.3710 C   0  0  0  0  0  0  0  0  0  0  0  0
   36.2050   28.0420   40.4160 C   0  0  0  0  0  0  0  0  0  0  0  0
   36.5280   28.5670   41.6800 C   0  0  0  0  0  0  0  0  0  0  0  0
   36.6610   29.9190   41.8050 N   0  0  0  0  0  0  0  0  0  0  0  0
   36.4960   30.7650   40.7620 C   0  0  0  0  0  0  0  0  0  0  0  0
   36.1870   30.2820   39.5430 N   0  0  0  0  0  0  0  0  0  0  0  0
   35.7950   28.5340   38.3950 H   0  0  0  0  0  0  0  0  0  0  0  0
   36.0920   26.9770   40.2800 H   0  0  0  0  0  0  0  0  0  0  0  0
   36.6260   31.8250   40.9750 H   0  0  0  0  0  0  0  0  0  0  0  0
  1  6  1  0  0  0  0
  1  2  1  0  0  0  0
  3  1  1  0  0  0  0
  4  5  1  0  0  0  0
  5 12  2  0  0  0  0
  5  6  1  0  0  0  0
  6  7  2  0  0  0  0
  7  9  1  0  0  0  0
  7  8  1  0  0  0  0
 10 11  1  0  0  0  0
 10  9  2  0  0  0  0
 12 10  1  0  0  0  0
 13 12  1  0  0  0  0
 14 19  2  0  0  0  0
 14 15  1  0  0  0  0
 15 16  2  0  0  0  0
 16 17  1  0  0  0  0
 16  1  1  0  0  0  0
 18 22  1  0  0  0  0
 18 17  2  0  0  0  0
 19 18  1  0  0  0  0
 20 14  1  0  0  0  0
 21 15  1  0  0  0  0
M  END
>  <minimizedAffinity>
-4.65187263

$$$$

 OpenBabel03252504543D

 22 23  0  0  0  0  0  0  0  0999 V2000
   36.6600   27.4300   42.7880 C   0  0  0  0  0  0  0  0  0  0  0  0
   35.5860   27.1000   42.8170 H   0  0  0  0  0  0  0  0  0  0  0  0
   36.9330   27.8220   43.7890 H   0  0  0  0  0  0  0  0  0  0  0  0
   38.6390   29.5580   43.3450 Cl  0  0  0  0  0  0  0  0  0  0  0  0
   37.6080   29.5600   41.9150 C   0  0  0  0  0  0  0  0  0  0  0  0
   36.7150   28.4980   41.7690 C   0  0  0  0  0  0  0  0  0  0  0  0
   35.8980   28.5040   40.6340 C   0  0  0  0  0  0  0  0  0  0  0  0
   35.1890   27.6760   40.5000 H   0  0  0  0  0  0  0  0  0  0  0  0
   35.9470   29.5020   39.6790 C   0  0  0  0  0  3  0  0  0  0  0  0
   36.8490   30.5590   39.8440 C   0  0  0  0  0  0  0  0  0  0  0  0
   36.9390   31.8450   38.6520 Cl  0  0  0  0  0  0  0  0  0  0  0  0
   37.6710   30.5720   40.9680 C   0  0  0  0  0  0  0  0  0  0  0  0
   38.3790   31.3970   41.1020 H   0  0  0  0  0  0  0  0  0  0  0  0
   37.6250   24.0110   41.7100 C   0  0  0  0  0  0  0  0  0  0  0  0
   36.8250   25.1330   41.9920 C   0  0  0  0  0  0  0  0  0  0  0  0
   37.4860   26.2660   42.4960 C   0  0  0  0  0  0  0  0  0  0  0  0
   38.8370   26.2030   42.6750 N   0  0  0  0  0  0  0  0  0  0  0  0
   39.5560   25.0940   42.3850 C   0  0  0  0  0  0  0  0  0  0  0  0
   38.9420   23.9970   41.9010 N   0  0  0  0  0  0  0  0  0  0  0  0
   37.0850   23.1400   41.3170 H   0  0  0  0  0  0  0  0  0  0  0  0
   35.7560   25.1470   41.8370 H   0  0  0  0  0  0  0  0  0  0  0  0
   40.6280   25.1540   42.5670 H   0  0  0  0  0  0  0  0  0  0  0  0
  1  2  1  0  0  0  0
  1  3  1  0  0  0  0
  5  4  1  0  0  0  0
  6  5  1  0  0  0  0
  6  1  1  0  0  0  0
  7  6  2  0  0  0  0
  8  7  1  0  0  0  0
  9 10  2  0  0  0  0
  9  7  1  0  0  0  0
 10 12  1  0  0  0  0
 11 10  1  0  0  0  0
 12 13  1  0  0  0  0
 12  5  2  0  0  0  0
 14 19  2  0  0  0  0
 14 15  1  0  0  0  0
 15 16  2  0  0  0  0
 16 17  1  0  0  0  0
 16  1  1  0  0  0  0
 18 22  1  0  0  0  0
 18 17  2  0  0  0  0
 19 18  1  0  0  0  0
 20 14  1  0  0  0  0
 21 15  1  0  0  0  0
M  END
>  <minimizedAffinity>
-4.56558371

$$$$

 OpenBabel03252504543D

 22 23  0  0  0  0  0  0  0  0999 V2000
   36.4440   30.4010   41.2940 C   0  0  0  0  0  0  0  0  0  0  0  0
   35.5200   30.6470   41.8830 H   0  0  0  0  0  0  0  0  0  0  0  0
   37.0610   31.3190   41.2080 H   0  0  0  0  0  0  0  0  0  0  0  0
   38.1310   31.2670   39.0220 Cl  0  0  0  0  0  0  0  0  0  0  0  0
   36.6650   30.3090   38.8150 C   0  0  0  0  0  0  0  0  0  0  0  0
   35.9580   29.9650   39.9680 C   0  0  0  0  0  0  0  0  0  0  0  0
   34.7960   29.2060   39.8000 C   0  0  0  0  0  0  0  0  0  0  0  0
   34.2260   28.9240   40.6950 H   0  0  0  0  0  0  0  0  0  0  0  0
   34.3390   28.7970   38.5610 C   0  0  0  0  0  3  0  0  0  0  0  0
   35.0610   29.1520   37.4170 C   0  0  0  0  0  0  0  0  0  0  0  0
   34.5120   28.6520   35.8270 Cl  0  0  0  0  0  0  0  0  0  0  0  0
   36.2220   29.9090   37.5620 C   0  0  0  0  0  0  0  0  0  0  0  0
   36.7920   30.1900   36.6700 H   0  0  0  0  0  0  0  0  0  0  0  0
   39.2890   28.6810   42.9450 C   0  0  0  0  0  0  0  0  0  0  0  0
   38.5640   29.6540   42.2360 C   0  0  0  0  0  0  0  0  0  0  0  0
   37.1980   29.3940   42.0270 C   0  0  0  0  0  0  0  0  0  0  0  0
   36.6770   28.2320   42.5180 N   0  0  0  0  0  0  0  0  0  0  0  0
   37.4260   27.3300   43.1950 C   0  0  0  0  0  0  0  0  0  0  0  0
   38.7360   27.5610   43.4050 N   0  0  0  0  0  0  0  0  0  0  0  0
   40.3520   28.9080   43.0950 H   0  0  0  0  0  0  0  0  0  0  0  0
   39.0100   30.5640   41.8610 H   0  0  0  0  0  0  0  0  0  0  0  0
   36.9070   26.4380   43.5410 H   0  0  0  0  0  0  0  0  0  0  0  0
  1  2  1  0  0  0  0
  1 16  1  0  0  0  0
  3  1  1  0  0  0  0
  5  4  1  0  0  0  0
  5  6  1  0  0  0  0
  6  1  1  0  0  0  0
  7  6  2  0  0  0  0
  7  8  1  0  0  0  0
  9  7  1  0  0  0  0
 10 12  1  0  0  0  0
 10  9  2  0  0  0  0
 11 10  1  0  0  0  0
 12  5  2  0  0  0  0
 13 12  1  0  0  0  0
 14 20  1  0  0  0  0
 14 19  1  0  0  0  0
 15 14  2  0  0  0  0
 16 15  1  0  0  0  0
 16 17  2  0  0  0  0
 17 18  1  0  0  0  0
 18 19  2  0  0  0  0
 18 22  1  0  0  0  0
 21 15  1  0  0  0  0
M  END
>  <minimizedAffinity>
-4.43750858

$$$$

 OpenBabel03252504543D

 22 23  0  0  0  0  0  0  0  0999 V2000
   36.3300   30.5330   41.0960 C   0  0  0  0  0  0  0  0  0  0  0  0
   35.7670   30.9400   41.9800 H   0  0  0  0  0  0  0  0  0  0  0  0
   35.6880   30.6310   40.1970 H   0  0  0  0  0  0  0  0  0  0  0  0
   36.3280   28.7330   38.7480 Cl  0  0  0  0  0  0  0  0  0  0  0  0
   36.6070   28.1610   40.3920 C   0  0  0  0  0  0  0  0  0  0  0  0
   36.5820   29.1130   41.4130 C   0  0  0  0  0  0  0  0  0  0  0  0
   36.8030   28.6550   42.7160 C   0  0  0  0  0  0  0  0  0  0  0  0
   36.7880   29.3880   43.5330 H   0  0  0  0  0  0  0  0  0  0  0  0
   37.0400   27.3270   43.0150 C   0  0  0  0  0  3  0  0  0  0  0  0
   37.0610   26.3880   41.9780 C   0  0  0  0  0  0  0  0  0  0  0  0
   37.3570   24.6910   42.3190 Cl  0  0  0  0  0  0  0  0  0  0  0  0
   36.8420   26.8230   40.6730 C   0  0  0  0  0  0  0  0  0  0  0  0
   36.8570   26.0920   39.8560 H   0  0  0  0  0  0  0  0  0  0  0  0
   38.5520   33.2810   39.9610 C   0  0  0  0  0  0  0  0  0  0  0  0
   37.3930   32.5060   40.1390 C   0  0  0  0  0  0  0  0  0  0  0  0
   37.5290   31.3380   40.9100 C   0  0  0  0  0  0  0  0  0  0  0  0
   38.7570   31.0410   41.4250 N   0  0  0  0  0  0  0  0  0  0  0  0
   39.8400   31.8260   41.2200 C   0  0  0  0  0  0  0  0  0  0  0  0
   39.7300   32.9500   40.4840 N   0  0  0  0  0  0  0  0  0  0  0  0
   38.4190   34.1880   39.3560 H   0  0  0  0  0  0  0  0  0  0  0  0
   36.4360   32.7730   39.7160 H   0  0  0  0  0  0  0  0  0  0  0  0
   40.7700   31.4930   41.6770 H   0  0  0  0  0  0  0  0  0  0  0  0
  1  6  1  0  0  0  0
  1  2  1  0  0  0  0
  3  1  1  0  0  0  0
  4  5  1  0  0  0  0
  5 12  2  0  0  0  0
  5  6  1  0  0  0  0
  6  7  2  0  0  0  0
  7  9  1  0  0  0  0
  7  8  1  0  0  0  0
 10 11  1  0  0  0  0
 10  9  2  0  0  0  0
 12 10  1  0  0  0  0
 13 12  1  0  0  0  0
 14 15  2  0  0  0  0
 14 19  1  0  0  0  0
 15 16  1  0  0  0  0
 16  1  1  0  0  0  0
 16 17  2  0  0  0  0
 18 17  1  0  0  0  0
 18 22  1  0  0  0  0
 19 18  2  0  0  0  0
 20 14  1  0  0  0  0
 21 15  1  0  0  0  0
M  END
>  <minimizedAffinity>
-4.41808414

$$$$

 OpenBabel03252504543D

 22 23  0  0  0  0  0  0  0  0999 V2000
   37.0560   27.1980   42.7490 C   0  0  0  0  0  0  0  0  0  0  0  0
   35.9620   27.2660   42.5030 H   0  0  0  0  0  0  0  0  0  0  0  0
   37.1590   27.0190   43.8390 H   0  0  0  0  0  0  0  0  0  0  0  0
   35.5180   28.6560   40.6830 Cl  0  0  0  0  0  0  0  0  0  0  0  0
   36.9920   29.2960   41.4090 C   0  0  0  0  0  0  0  0  0  0  0  0
   37.6240   28.5090   42.3730 C   0  0  0  0  0  0  0  0  0  0  0  0
   38.7930   29.0210   42.9460 C   0  0  0  0  0  0  0  0  0  0  0  0
   39.3050   28.4170   43.7070 H   0  0  0  0  0  0  0  0  0  0  0  0
   39.3260   30.2470   42.5960 C   0  0  0  0  0  3  0  0  0  0  0  0
   38.6780   31.0200   41.6270 C   0  0  0  0  0  0  0  0  0  0  0  0
   39.3260   32.5820   41.1560 Cl  0  0  0  0  0  0  0  0  0  0  0  0
   37.5130   30.5290   41.0430 C   0  0  0  0  0  0  0  0  0  0  0  0
   37.0010   31.1300   40.2840 H   0  0  0  0  0  0  0  0  0  0  0  0
   37.4660   23.7500   41.4370 C   0  0  0  0  0  0  0  0  0  0  0  0
   36.9230   24.8450   42.1340 C   0  0  0  0  0  0  0  0  0  0  0  0
   37.6160   26.0630   42.0290 C   0  0  0  0  0  0  0  0  0  0  0  0
   38.7490   26.1020   41.2700 N   0  0  0  0  0  0  0  0  0  0  0  0
   39.2250   25.0140   40.6200 C   0  0  0  0  0  0  0  0  0  0  0  0
   38.5760   23.8370   40.7080 N   0  0  0  0  0  0  0  0  0  0  0  0
   36.9070   22.8110   41.5350 H   0  0  0  0  0  0  0  0  0  0  0  0
   36.0230   24.7770   42.7260 H   0  0  0  0  0  0  0  0  0  0  0  0
   40.1370   25.1590   40.0440 H   0  0  0  0  0  0  0  0  0  0  0  0
  1  3  1  0  0  0  0
  2  1  1  0  0  0  0
  4  5  1  0  0  0  0
  5  6  1  0  0  0  0
  6  1  1  0  0  0  0
  6  7  2  0  0  0  0
  7  8  1  0  0  0  0
  9  7  1  0  0  0  0
 10  9  2  0  0  0  0
 11 10  1  0  0  0  0
 12  5  2  0  0  0  0
 12 10  1  0  0  0  0
 13 12  1  0  0  0  0
 14 20  1  0  0  0  0
 14 15  1  0  0  0  0
 15 21  1  0  0  0  0
 16 15  2  0  0  0  0
 16  1  1  0  0  0  0
 17 16  1  0  0  0  0
 18 19  1  0  0  0  0
 18 17  2  0  0  0  0
 19 14  2  0  0  0  0
 22 18  1  0  0  0  0
M  END
>  <minimizedAffinity>
-4.3790369

$$$$

 OpenBabel03252504543D

 22 23  0  0  0  0  0  0  0  0999 V2000
   36.2470   29.3810   41.0600 C   0  0  0  0  0  0  0  0  0  0  0  0
   36.2270   29.7250   42.1300 H   0  0  0  0  0  0  0  0  0  0  0  0
   35.2360   29.5290   40.6260 H   0  0  0  0  0  0  0  0  0  0  0  0
   37.2870   28.4710   43.6760 Cl  0  0  0  0  0  0  0  0  0  0  0  0
   37.0960   27.3930   42.2950 C   0  0  0  0  0  0  0  0  0  0  0  0
   36.5940   27.9460   41.1160 C   0  0  0  0  0  0  0  0  0  0  0  0
   36.4430   27.0880   40.0220 C   0  0  0  0  0  0  0  0  0  0  0  0
   36.0500   27.5040   39.0860 H   0  0  0  0  0  0  0  0  0  0  0  0
   36.7680   25.7450   40.0720 C   0  0  0  0  0  3  0  0  0  0  0  0
   37.2700   25.2090   41.2630 C   0  0  0  0  0  0  0  0  0  0  0  0
   37.6930   23.5080   41.3640 Cl  0  0  0  0  0  0  0  0  0  0  0  0
   37.4280   26.0470   42.3640 C   0  0  0  0  0  0  0  0  0  0  0  0
   37.8200   25.6330   43.2990 H   0  0  0  0  0  0  0  0  0  0  0  0
   37.5800   31.9900   38.7810 C   0  0  0  0  0  0  0  0  0  0  0  0
   36.6600   31.1920   39.4820 C   0  0  0  0  0  0  0  0  0  0  0  0
   37.1980   30.2100   40.3320 C   0  0  0  0  0  0  0  0  0  0  0  0
   38.5550   30.1000   40.4190 N   0  0  0  0  0  0  0  0  0  0  0  0
   39.3940   30.8990   39.7190 C   0  0  0  0  0  0  0  0  0  0  0  0
   38.8980   31.8460   38.8990 N   0  0  0  0  0  0  0  0  0  0  0  0
   37.1350   32.7490   38.1250 H   0  0  0  0  0  0  0  0  0  0  0  0
   35.5900   31.3070   39.3890 H   0  0  0  0  0  0  0  0  0  0  0  0
   40.4580   30.7240   39.8640 H   0  0  0  0  0  0  0  0  0  0  0  0
  1  6  1  0  0  0  0
  1  2  1  0  0  0  0
  3  1  1  0  0  0  0
  5 12  1  0  0  0  0
  5  4  1  0  0  0  0
  6  5  2  0  0  0  0
  7  9  2  0  0  0  0
  7  6  1  0  0  0  0
  8  7  1  0  0  0  0
  9 10  1  0  0  0  0
 10 11  1  0  0  0  0
 10 12  2  0  0  0  0
 12 13  1  0  0  0  0
 14 19  2  0  0  0  0
 14 15  1  0  0  0  0
 15 16  2  0  0  0  0
 16 17  1  0  0  0  0
 16  1  1  0  0  0  0
 18 22  1  0  0  0  0
 18 17  2  0  0  0  0
 19 18  1  0  0  0  0
 20 14  1  0  0  0  0
 21 15  1  0  0  0  0
M  END
>  <minimizedAffinity>
-4.30882406

$$$$
