
 OpenBabel03252506523D

 32 35  0  0  0  0  0  0  0  0999 V2000
   47.1320   31.2990   45.1320 C   0  0  0  0  0  0  0  0  0  0  0  0
   46.8550   32.6520   45.1360 C   0  0  0  0  0  0  0  0  0  0  0  0
   46.2920   33.3110   46.2220 C   0  0  0  0  0  0  0  0  0  0  0  0
   45.9910   32.5610   47.3690 C   0  0  0  0  0  0  0  0  0  0  0  0
   45.4480   32.8520   48.5890 N   0  0  0  0  0  0  0  0  0  0  0  0
   45.3970   31.7030   49.3110 C   0  0  0  0  0  0  0  0  0  0  0  0
   45.9030   30.7260   48.5350 N   0  0  0  0  0  0  0  0  0  0  0  0
   46.2750   31.2190   47.3400 C   0  0  0  0  0  0  0  0  0  0  0  0
   46.8300   30.5620   46.2750 C   0  0  0  0  0  0  0  0  0  0  0  0
   47.5740   30.8430   44.2460 H   0  0  0  0  0  0  0  0  0  0  0  0
   46.0790   34.3540   46.2240 H   0  0  0  0  0  0  0  0  0  0  0  0
   45.1420   33.8110   48.8720 H   0  0  0  0  0  0  0  0  0  0  0  0
   45.0060   31.7050   50.3010 H   0  0  0  0  0  0  0  0  0  0  0  0
   49.3840   29.6910   47.5870 Cl  0  0  0  0  0  0  0  0  0  0  0  0
   48.2780   28.5620   46.8060 C   0  0  0  0  0  0  0  0  0  0  0  0
   47.1330   29.1340   46.2430 C   0  0  0  0  0  0  0  0  0  0  0  0
   46.2510   28.2600   45.6240 C   0  0  0  0  0  0  0  0  0  0  0  0
   45.3500   28.6710   45.1760 H   0  0  0  0  0  0  0  0  0  0  0  0
   46.4380   26.8920   45.5360 C   0  0  0  0  0  3  0  0  0  0  0  0
   47.5730   26.3870   46.1020 C   0  0  0  0  0  0  0  0  0  0  0  0
   47.8770   24.6740   46.0310 Cl  0  0  0  0  0  0  0  0  0  0  0  0
   48.4780   27.2010   46.7270 C   0  0  0  0  0  0  0  0  0  0  0  0
   49.3940   26.8390   47.1890 H   0  0  0  0  0  0  0  0  0  0  0  0
   46.5940   35.1550   42.4460 C   0  0  0  0  0  0  0  0  0  0  0  0
   47.7870   34.9310   41.7230 C   0  0  0  0  0  0  0  0  0  0  0  0
   48.6730   33.9210   42.1650 C   0  0  0  0  0  0  0  0  0  0  0  0
   48.3090   33.2170   43.2810 N   0  0  0  0  0  0  0  0  0  0  0  0
   47.1590   33.4550   43.9530 C   0  0  0  0  0  0  0  0  0  0  0  0
   46.3300   34.4070   43.5320 N   0  0  0  0  0  0  0  0  0  0  0  0
   45.9600   35.9340   42.0650 H   0  0  0  0  0  0  0  0  0  0  0  0
   48.1000   35.4700   40.8390 H   0  0  0  0  0  0  0  0  0  0  0  0
   49.5940   33.6780   41.6870 H   0  0  0  0  0  0  0  0  0  0  0  0
  1  2  2  0  0  0  0
  1  9  1  0  0  0  0
  2  3  1  0  0  0  0
  3 11  1  0  0  0  0
  3  4  2  0  0  0  0
  4  5  1  0  0  0  0
  5 12  1  0  0  0  0
  5  6  1  0  0  0  0
  6 13  1  0  0  0  0
  7  6  2  0  0  0  0
  8  4  1  0  0  0  0
  8  7  1  0  0  0  0
  9  8  2  0  0  0  0
 10  1  1  0  0  0  0
 15 14  1  0  0  0  0
 16  9  1  0  0  0  0
 16 15  2  0  0  0  0
 17 16  1  0  0  0  0
 18 17  1  0  0  0  0
 19 17  2  0  0  0  0
 19 20  1  0  0  0  0
 20 22  2  0  0  0  0
 21 20  1  0  0  0  0
 22 15  1  0  0  0  0
 22 23  1  0  0  0  0
 24 29  1  0  0  0  0
 25 26  1  0  0  0  0
 25 24  2  0  0  0  0
 26 27  2  0  0  0  0
 27 28  1  0  0  0  0
 28  2  1  0  0  0  0
 29 28  2  0  0  0  0
 30 24  1  0  0  0  0
 31 25  1  0  0  0  0
 32 26  1  0  0  0  0
M  END
>  <minimizedAffinity>
-5.36577845

>  <minimizedRMSD>
0.495843977

$$$$
