
 OpenBabel03252506373D

 45 48  0  0  1  0  0  0  0  0999 V2000
   44.4900   35.5700   45.1140 C   0  0  0  0  0  0  0  0  0  0  0  0
   45.1080   35.5430   43.8580 C   0  0  0  0  0  0  0  0  0  0  0  0
   45.9950   34.5610   43.5790 C   0  0  0  0  0  0  0  0  0  0  0  0
   46.2350   33.6480   44.5510 N   0  0  0  0  0  0  0  0  0  0  0  0
   45.6490   33.6780   45.7380 C   0  0  0  0  0  0  0  0  0  0  0  0
   44.7710   34.6320   46.0390 N   0  0  0  0  0  0  0  0  0  0  0  0
   45.9810   32.6600   46.6980 N   0  0  0  0  0  0  0  0  0  0  0  0
   45.2660   32.4330   47.9050 C   0  0  0  0  0  0  0  0  0  0  0  0
   46.3610   32.0570   48.8880 C   0  0  0  0  0  0  0  0  0  0  0  0
   47.6180   31.9300   48.0870 C   0  0  0  0  0  0  0  0  0  0  0  0
   47.0800   31.7240   46.6710 C   0  0  1  0  0  0  0  0  0  0  0  0
   43.7910   36.3530   45.3170 H   0  0  0  0  0  0  0  0  0  0  0  0
   46.4860   34.5170   42.6200 H   0  0  0  0  0  0  0  0  0  0  0  0
   44.4200   31.8330   48.0080 H   0  0  0  0  0  0  0  0  0  0  0  0
   44.9510   33.4620   48.2730 H   0  0  0  0  0  0  0  0  0  0  0  0
   46.4120   32.6740   49.7800 H   0  0  0  0  0  0  0  0  0  0  0  0
   46.1210   31.0090   49.2370 H   0  0  0  0  0  0  0  0  0  0  0  0
   48.2270   31.0800   48.4320 H   0  0  0  0  0  0  0  0  0  0  0  0
   48.1450   32.9050   48.1660 H   0  0  0  0  0  0  0  0  0  0  0  0
   47.8770   32.0050   45.9440 H   0  0  0  0  0  0  0  0  0  0  0  0
   44.7550   36.5800   42.9240 N   0  0  0  0  0  0  0  0  0  0  0  0
   44.8130   37.5750   43.2010 H   0  0  0  0  0  0  0  0  0  0  0  0
   44.4650   36.1440   42.0270 H   0  0  0  0  0  0  0  0  0  0  0  0
   46.5230   30.0440   46.5040 S   0  0  0  0  0  0  0  0  0  0  0  0
   45.7990   30.5890   43.2930 O   0  0  0  0  0  0  0  0  0  0  0  0
   45.0870   30.0350   44.1460 C   0  0  0  0  0  0  0  0  0  0  0  0
   45.0480   29.7820   45.6070 C   0  0  1  0  0  0  0  0  0  0  0  0
   44.4940   28.3790   45.6630 C   0  0  0  0  0  0  0  0  0  0  0  0
   43.2560   28.6130   44.7910 C   0  0  0  0  0  0  0  0  0  0  0  0
   43.8710   29.3900   43.7220 N   0  0  0  0  0  0  0  0  0  0  0  0
   44.1400   30.3810   45.8860 H   0  0  0  0  0  0  0  0  0  0  0  0
   45.1590   27.6450   45.1630 H   0  0  0  0  0  0  0  0  0  0  0  0
   44.2160   28.1240   46.6870 H   0  0  0  0  0  0  0  0  0  0  0  0
   42.8130   27.6730   44.4590 H   0  0  0  0  0  0  0  0  0  0  0  0
   42.5360   29.2290   45.3690 H   0  0  0  0  0  0  0  0  0  0  0  0
   40.9850   30.3340   43.6300 Cl  0  0  0  0  0  0  0  0  0  0  0  0
   41.8970   29.7710   42.2460 C   0  0  0  0  0  0  0  0  0  0  0  0
   43.1820   29.3820   42.4540 C   0  0  0  0  0  0  0  0  0  0  0  0
   43.9030   28.9380   41.3650 C   0  0  0  0  0  0  0  0  0  0  0  0
   44.9490   28.6080   41.4650 H   0  0  0  0  0  0  0  0  0  0  0  0
   43.4090   28.8590   40.0660 C   0  0  0  0  0  3  0  0  0  0  0  0
   42.0840   29.2630   39.8700 C   0  0  0  0  0  0  0  0  0  0  0  0
   41.3910   29.1930   38.2640 Cl  0  0  0  0  0  0  0  0  0  0  0  0
   41.3820   29.7030   40.9670 C   0  0  0  0  0  0  0  0  0  0  0  0
   40.3440   30.0190   40.8060 H   0  0  0  0  0  0  0  0  0  0  0  0
  1 12  1  0  0  0  0
  1  6  1  0  0  0  0
  2  1  2  0  0  0  0
  3  2  1  0  0  0  0
  3  4  2  0  0  0  0
  4  5  1  0  0  0  0
  5  6  2  0  0  0  0
  5  7  1  0  0  0  0
  7  8  1  0  0  0  0
  8 14  1  0  0  0  0
  8 15  1  0  0  0  0
  8  9  1  0  0  0  0
  9 17  1  0  0  0  0
  9 16  1  0  0  0  0
 10 19  1  0  0  0  0
 10 18  1  0  0  0  0
 10  9  1  0  0  0  0
 11 20  1  6  0  0  0
 11  7  1  0  0  0  0
 11 10  1  0  0  0  0
 13  3  1  0  0  0  0
 21 22  1  0  0  0  0
 21  2  1  0  0  0  0
 23 21  1  0  0  0  0
 24 11  1  0  0  0  0
 25 26  2  0  0  0  0
 26 27  1  0  0  0  0
 27 28  1  0  0  0  0
 27 31  1  1  0  0  0
 27 24  1  0  0  0  0
 28 33  1  0  0  0  0
 29 35  1  0  0  0  0
 29 28  1  0  0  0  0
 30 26  1  0  0  0  0
 30 29  1  0  0  0  0
 32 28  1  0  0  0  0
 34 29  1  0  0  0  0
 37 38  1  0  0  0  0
 37 36  1  0  0  0  0
 38 30  1  0  0  0  0
 39 40  1  0  0  0  0
 39 38  2  0  0  0  0
 41 39  1  0  0  0  0
 42 41  2  0  0  0  0
 42 44  1  0  0  0  0
 43 42  1  0  0  0  0
 44 37  2  0  0  0  0
 45 44  1  0  0  0  0
M  END
>  <minimizedAffinity>
-5.31628227

>  <minimizedRMSD>
0.426698595

$$$$
