
 OpenBabel03252506373D

 45 48  0  0  1  0  0  0  0  0999 V2000
   44.4750   35.7040   45.0220 C   0  0  0  0  0  0  0  0  0  0  0  0
   45.1230   35.6710   43.7800 C   0  0  0  0  0  0  0  0  0  0  0  0
   46.0220   34.6930   43.5300 C   0  0  0  0  0  0  0  0  0  0  0  0
   46.2440   33.7880   44.5150 N   0  0  0  0  0  0  0  0  0  0  0  0
   45.6290   33.8240   45.6870 C   0  0  0  0  0  0  0  0  0  0  0  0
   44.7390   34.7750   45.9600 N   0  0  0  0  0  0  0  0  0  0  0  0
   45.9440   32.8150   46.6630 N   0  0  0  0  0  0  0  0  0  0  0  0
   45.2020   32.5930   47.8540 C   0  0  0  0  0  0  0  0  0  0  0  0
   46.2750   32.2310   48.8660 C   0  0  0  0  0  0  0  0  0  0  0  0
   47.5520   32.1060   48.0960 C   0  0  0  0  0  0  0  0  0  0  0  0
   47.0490   31.8850   46.6690 C   0  0  1  0  0  0  0  0  0  0  0  0
   43.7670   36.4850   45.2010 H   0  0  0  0  0  0  0  0  0  0  0  0
   46.5360   34.6440   42.5840 H   0  0  0  0  0  0  0  0  0  0  0  0
   44.3570   31.9890   47.9420 H   0  0  0  0  0  0  0  0  0  0  0  0
   44.8730   33.6240   48.2060 H   0  0  0  0  0  0  0  0  0  0  0  0
   46.3020   32.8560   49.7530 H   0  0  0  0  0  0  0  0  0  0  0  0
   46.0330   31.1850   49.2170 H   0  0  0  0  0  0  0  0  0  0  0  0
   48.1570   31.2620   48.4620 H   0  0  0  0  0  0  0  0  0  0  0  0
   48.0710   33.0840   48.1790 H   0  0  0  0  0  0  0  0  0  0  0  0
   47.8620   32.1660   45.9590 H   0  0  0  0  0  0  0  0  0  0  0  0
   44.7860   36.6990   42.8310 N   0  0  0  0  0  0  0  0  0  0  0  0
   44.8330   37.6970   43.1010 H   0  0  0  0  0  0  0  0  0  0  0  0
   44.5200   36.2550   41.9300 H   0  0  0  0  0  0  0  0  0  0  0  0
   46.5060   30.2010   46.5020 S   0  0  0  0  0  0  0  0  0  0  0  0
   46.4190   30.6100   43.1920 O   0  0  0  0  0  0  0  0  0  0  0  0
   45.5560   30.0830   43.9120 C   0  0  0  0  0  0  0  0  0  0  0  0
   45.2340   29.8870   45.3470 C   0  0  1  0  0  0  0  0  0  0  0  0
   44.6840   28.4820   45.3510 C   0  0  0  0  0  0  0  0  0  0  0  0
   43.6380   28.6680   44.2470 C   0  0  0  0  0  0  0  0  0  0  0  0
   44.4480   29.4080   43.2860 N   0  0  0  0  0  0  0  0  0  0  0  0
   44.2880   30.4880   45.4190 H   0  0  0  0  0  0  0  0  0  0  0  0
   45.4350   27.7360   45.0210 H   0  0  0  0  0  0  0  0  0  0  0  0
   44.2120   28.2660   46.3110 H   0  0  0  0  0  0  0  0  0  0  0  0
   43.2710   27.7110   43.8740 H   0  0  0  0  0  0  0  0  0  0  0  0
   42.8180   29.2990   44.6480 H   0  0  0  0  0  0  0  0  0  0  0  0
   42.6940   31.6410   42.2020 Cl  0  0  0  0  0  0  0  0  0  0  0  0
   43.2360   30.2560   41.2780 C   0  0  0  0  0  0  0  0  0  0  0  0
   44.0180   29.3430   41.9100 C   0  0  0  0  0  0  0  0  0  0  0  0
   44.4460   28.2510   41.1840 C   0  0  0  0  0  0  0  0  0  0  0  0
   45.0820   27.4740   41.6370 H   0  0  0  0  0  0  0  0  0  0  0  0
   44.1340   28.0160   39.8490 C   0  0  0  0  0  3  0  0  0  0  0  0
   43.3280   28.9660   39.2120 C   0  0  0  0  0  0  0  0  0  0  0  0
   42.8930   28.7400   37.5320 Cl  0  0  0  0  0  0  0  0  0  0  0  0
   42.9120   30.0480   39.9530 C   0  0  0  0  0  0  0  0  0  0  0  0
   42.2810   30.7880   39.4470 H   0  0  0  0  0  0  0  0  0  0  0  0
  1 12  1  0  0  0  0
  1  6  1  0  0  0  0
  2  1  2  0  0  0  0
  3  2  1  0  0  0  0
  3  4  2  0  0  0  0
  4  5  1  0  0  0  0
  5  6  2  0  0  0  0
  5  7  1  0  0  0  0
  7 11  1  0  0  0  0
  7  8  1  0  0  0  0
  8 14  1  0  0  0  0
  8 15  1  0  0  0  0
  8  9  1  0  0  0  0
  9 17  1  0  0  0  0
  9 16  1  0  0  0  0
 10 19  1  0  0  0  0
 10 18  1  0  0  0  0
 10  9  1  0  0  0  0
 11 20  1  6  0  0  0
 11 10  1  0  0  0  0
 13  3  1  0  0  0  0
 21 22  1  0  0  0  0
 21  2  1  0  0  0  0
 23 21  1  0  0  0  0
 24 11  1  0  0  0  0
 25 26  2  0  0  0  0
 26 27  1  0  0  0  0
 27 28  1  0  0  0  0
 27 31  1  1  0  0  0
 27 24  1  0  0  0  0
 28 33  1  0  0  0  0
 29 35  1  0  0  0  0
 29 28  1  0  0  0  0
 30 26  1  0  0  0  0
 30 29  1  0  0  0  0
 32 28  1  0  0  0  0
 34 29  1  0  0  0  0
 37 38  1  0  0  0  0
 37 36  1  0  0  0  0
 38 30  1  0  0  0  0
 39 40  1  0  0  0  0
 39 38  2  0  0  0  0
 41 39  1  0  0  0  0
 42 41  2  0  0  0  0
 42 44  1  0  0  0  0
 43 42  1  0  0  0  0
 44 37  2  0  0  0  0
 45 44  1  0  0  0  0
M  END
>  <minimizedAffinity>
-5.15621138

>  <minimizedRMSD>
1.2014147

$$$$
