
 OpenBabel03252506523D

 32 35  0  0  0  0  0  0  0  0999 V2000
   47.1260   31.2960   45.1260 C   0  0  0  0  0  0  0  0  0  0  0  0
   46.8540   32.6500   45.1330 C   0  0  0  0  0  0  0  0  0  0  0  0
   46.2960   33.3090   46.2220 C   0  0  0  0  0  0  0  0  0  0  0  0
   45.9950   32.5580   47.3670 C   0  0  0  0  0  0  0  0  0  0  0  0
   45.4560   32.8490   48.5900 N   0  0  0  0  0  0  0  0  0  0  0  0
   45.4020   31.6970   49.3100 C   0  0  0  0  0  0  0  0  0  0  0  0
   45.9020   30.7200   48.5290 N   0  0  0  0  0  0  0  0  0  0  0  0
   46.2730   31.2140   47.3350 C   0  0  0  0  0  0  0  0  0  0  0  0
   46.8230   30.5570   46.2670 C   0  0  0  0  0  0  0  0  0  0  0  0
   47.5640   30.8410   44.2380 H   0  0  0  0  0  0  0  0  0  0  0  0
   46.0870   34.3530   46.2270 H   0  0  0  0  0  0  0  0  0  0  0  0
   45.1540   33.8070   48.8760 H   0  0  0  0  0  0  0  0  0  0  0  0
   45.0120   31.6990   50.3000 H   0  0  0  0  0  0  0  0  0  0  0  0
   49.3860   29.6740   47.5510 Cl  0  0  0  0  0  0  0  0  0  0  0  0
   48.2670   28.5510   46.7820 C   0  0  0  0  0  0  0  0  0  0  0  0
   47.1200   29.1280   46.2310 C   0  0  0  0  0  0  0  0  0  0  0  0
   46.2260   28.2590   45.6210 C   0  0  0  0  0  0  0  0  0  0  0  0
   45.3230   28.6730   45.1830 H   0  0  0  0  0  0  0  0  0  0  0  0
   46.4070   26.8900   45.5300 C   0  0  0  0  0  3  0  0  0  0  0  0
   47.5460   26.3810   46.0840 C   0  0  0  0  0  0  0  0  0  0  0  0
   47.8410   24.6650   46.0080 Cl  0  0  0  0  0  0  0  0  0  0  0  0
   48.4610   27.1890   46.6990 C   0  0  0  0  0  0  0  0  0  0  0  0
   49.3800   26.8230   47.1520 H   0  0  0  0  0  0  0  0  0  0  0  0
   46.5940   35.1550   42.4450 C   0  0  0  0  0  0  0  0  0  0  0  0
   47.7890   34.9340   41.7240 C   0  0  0  0  0  0  0  0  0  0  0  0
   48.6760   33.9250   42.1670 C   0  0  0  0  0  0  0  0  0  0  0  0
   48.3110   33.2200   43.2820 N   0  0  0  0  0  0  0  0  0  0  0  0
   47.1590   33.4550   43.9510 C   0  0  0  0  0  0  0  0  0  0  0  0
   46.3290   34.4060   43.5290 N   0  0  0  0  0  0  0  0  0  0  0  0
   45.9590   35.9330   42.0640 H   0  0  0  0  0  0  0  0  0  0  0  0
   48.1030   35.4740   40.8410 H   0  0  0  0  0  0  0  0  0  0  0  0
   49.5980   33.6840   41.6910 H   0  0  0  0  0  0  0  0  0  0  0  0
  1  2  2  0  0  0  0
  1  9  1  0  0  0  0
  2  3  1  0  0  0  0
  3 11  1  0  0  0  0
  3  4  2  0  0  0  0
  4  5  1  0  0  0  0
  5 12  1  0  0  0  0
  5  6  1  0  0  0  0
  6 13  1  0  0  0  0
  7  6  2  0  0  0  0
  8  4  1  0  0  0  0
  8  7  1  0  0  0  0
  9  8  2  0  0  0  0
 10  1  1  0  0  0  0
 15 14  1  0  0  0  0
 16  9  1  0  0  0  0
 16 15  2  0  0  0  0
 17 16  1  0  0  0  0
 18 17  1  0  0  0  0
 19 17  2  0  0  0  0
 19 20  1  0  0  0  0
 20 22  2  0  0  0  0
 21 20  1  0  0  0  0
 22 15  1  0  0  0  0
 22 23  1  0  0  0  0
 24 29  1  0  0  0  0
 25 26  1  0  0  0  0
 25 24  2  0  0  0  0
 26 27  2  0  0  0  0
 27 28  1  0  0  0  0
 28  2  1  0  0  0  0
 29 28  2  0  0  0  0
 30 24  1  0  0  0  0
 31 25  1  0  0  0  0
 32 26  1  0  0  0  0
M  END
>  <minimizedAffinity>
-5.36039495

>  <minimizedRMSD>
0.242206529

$$$$
