
 OpenBabel03252508463D

 46 48  0  0  0  0  0  0  0  0999 V2000
   42.7330   31.3290   42.6900 N   0  0  0  0  0  0  0  0  0  0  0  0
   42.9120   31.6600   43.6760 H   0  0  0  0  0  0  0  0  0  0  0  0
   42.9850   32.3750   41.7490 C   0  0  0  0  0  0  0  0  0  0  0  0
   43.4680   31.9470   40.8500 H   0  0  0  0  0  0  0  0  0  0  0  0
   42.0370   32.8510   41.3910 H   0  0  0  0  0  0  0  0  0  0  0  0
   43.6350   34.7930   41.9170 C   0  0  0  0  0  0  0  0  0  0  0  0
   43.8750   33.4580   42.2630 C   0  0  0  0  0  0  0  0  0  0  0  0
   44.9470   33.1790   43.0830 C   0  0  0  0  0  0  0  0  0  0  0  0
   45.7510   34.1810   43.5430 C   0  0  0  0  0  0  0  0  0  0  0  0
   45.5340   35.5010   43.2160 C   0  0  0  0  0  0  0  0  0  0  0  0
   44.4470   35.7510   42.3890 C   0  0  0  0  0  0  0  0  0  0  0  0
   45.0870   32.1310   43.3190 H   0  0  0  0  0  0  0  0  0  0  0  0
   46.5720   33.8790   44.1810 H   0  0  0  0  0  0  0  0  0  0  0  0
   46.1900   36.2650   43.6000 H   0  0  0  0  0  0  0  0  0  0  0  0
   44.2420   36.7770   42.1090 H   0  0  0  0  0  0  0  0  0  0  0  0
   40.1860   35.5220   40.5690 C   0  0  0  0  0  0  0  0  0  0  0  0
   41.2110   35.3050   41.5120 C   0  0  0  0  0  0  0  0  0  0  0  0
   42.4960   35.0350   41.0510 C   0  0  0  0  0  0  0  0  0  0  0  0
   42.6750   34.9980   39.6970 N   0  0  0  0  0  0  0  0  0  0  0  0
   41.6730   35.2120   38.8090 C   0  0  0  0  0  0  0  0  0  0  0  0
   40.4390   35.4700   39.2600 N   0  0  0  0  0  0  0  0  0  0  0  0
   39.2540   35.7150   41.0590 H   0  0  0  0  0  0  0  0  0  0  0  0
   41.1060   35.3240   42.5680 H   0  0  0  0  0  0  0  0  0  0  0  0
   41.8020   35.1830   37.7490 H   0  0  0  0  0  0  0  0  0  0  0  0
   41.1010   30.7880   42.6560 S   0  0  0  0  0  0  0  0  0  0  0  0
   40.1920   31.8550   42.0910 O   0  0  0  0  0  0  0  0  0  0  0  0
   40.1450   32.0750   41.1160 H   0  0  0  0  0  0  0  0  0  0  0  0
   40.6430   30.3540   43.9960 O   0  0  0  0  0  0  0  0  0  0  0  0
   41.0590   30.4810   44.8800 H   0  0  0  0  0  0  0  0  0  0  0  0
   41.0650   29.4550   41.6290 O   0  0  0  0  0  0  0  0  0  0  0  0
   40.4680   28.4020   42.2750 C   0  0  0  0  0  0  0  0  0  0  0  0
   39.7120   27.9780   41.5820 H   0  0  0  0  0  0  0  0  0  0  0  0
   39.9440   28.6400   43.2100 H   0  0  0  0  0  0  0  0  0  0  0  0
   41.5240   27.3140   42.5480 C   0  0  0  0  0  0  0  0  0  0  0  0
   42.3670   27.8320   43.0050 H   0  0  0  0  0  0  0  0  0  0  0  0
   41.8350   26.9330   41.5790 H   0  0  0  0  0  0  0  0  0  0  0  0
   42.0740   27.4400   45.5630 Cl  0  0  0  0  0  0  0  0  0  0  0  0
   41.1230   26.1930   44.7830 C   0  0  0  0  0  0  0  0  0  0  0  0
   40.9470   26.2610   43.4190 C   0  0  0  0  0  0  0  0  0  0  0  0
   40.1860   25.2740   42.7810 C   0  0  0  0  0  0  0  0  0  0  0  0
   40.0340   25.3110   41.7100 H   0  0  0  0  0  0  0  0  0  0  0  0
   39.6110   24.2370   43.4850 C   0  0  0  0  0  3  0  0  0  0  0  0
   39.8110   24.2060   44.8420 C   0  0  0  0  0  0  0  0  0  0  0  0
   39.0670   22.8680   45.7220 Cl  0  0  0  0  0  0  0  0  0  0  0  0
   40.5570   25.1600   45.5250 C   0  0  0  0  0  0  0  0  0  0  0  0
   40.6910   25.0990   46.6140 H   0  0  0  0  0  0  0  0  0  0  0  0
  1  2  1  0  0  0  0
  3  7  1  0  0  0  0
  3  1  1  0  0  0  0
  4  3  1  0  0  0  0
  5  3  1  0  0  0  0
  6  7  2  0  0  0  0
  6 11  1  0  0  0  0
  7  8  1  0  0  0  0
  8 12  1  0  0  0  0
  8  9  2  0  0  0  0
  9 13  1  0  0  0  0
 10  9  1  0  0  0  0
 10 14  1  0  0  0  0
 11 10  2  0  0  0  0
 15 11  1  0  0  0  0
 16 22  1  0  0  0  0
 16 17  1  0  0  0  0
 17 23  1  0  0  0  0
 18 17  2  0  0  0  0
 18  6  1  0  0  0  0
 19 18  1  0  0  0  0
 20 21  1  0  0  0  0
 20 19  2  0  0  0  0
 21 16  2  0  0  0  0
 24 20  1  0  0  0  0
 25  1  1  0  0  0  0
 25 28  1  0  0  0  0
 26 25  1  0  0  0  0
 27 26  1  0  0  0  0
 28 29  1  0  0  0  0
 30 31  1  0  0  0  0
 30 25  1  0  0  0  0
 31 34  1  0  0  0  0
 31 33  1  0  0  0  0
 32 31  1  0  0  0  0
 34 35  1  0  0  0  0
 34 39  1  0  0  0  0
 36 34  1  0  0  0  0
 38 45  1  0  0  0  0
 38 37  1  0  0  0  0
 39 38  2  0  0  0  0
 40 39  1  0  0  0  0
 40 42  2  0  0  0  0
 41 40  1  0  0  0  0
 42 43  1  0  0  0  0
 43 45  2  0  0  0  0
 43 44  1  0  0  0  0
 45 46  1  0  0  0  0
M  END
>  <minimizedAffinity>
-5.3990531

>  <minimizedRMSD>
1.45754623

$$$$
