
 OpenBabel03242512333D

 21 22  0  0  0  0  0  0  0  0999 V2000
   47.6590   33.8560   42.7590 C   0  0  0  0  0  0  0  0  0  0  0  0
   48.8160   33.6120   43.2430 O   0  0  0  0  0  0  0  0  0  0  0  0
   49.0450   35.8110   41.0610 Cl  0  0  0  0  0  0  0  0  0  0  0  0
   48.0400   34.4730   40.5180 C   0  0  0  0  0  0  0  0  0  0  0  0
   47.3950   33.5600   41.3520 C   0  0  0  0  0  0  0  0  0  0  0  0
   46.6350   32.5530   40.7950 C   0  0  0  0  0  0  0  0  0  0  0  0
   46.1850   31.9120   41.5370 H   0  0  0  0  0  0  0  0  0  0  0  0
   46.5250   32.4660   39.4290 C   0  0  0  0  0  0  0  0  0  0  0  0
   47.1540   33.3560   38.5820 C   0  0  0  0  0  0  0  0  0  0  0  0
   46.9640   33.1760   36.8410 Cl  0  0  0  0  0  0  0  0  0  0  0  0
   47.9160   34.3650   39.1360 C   0  0  0  0  0  0  0  0  0  0  0  0
   48.3910   35.0400   38.4380 H   0  0  0  0  0  0  0  0  0  0  0  0
   46.5620   34.4140   43.5030 C   0  0  0  0  0  0  0  0  0  0  0  0
   45.9540   35.5230   42.8690 C   0  0  0  0  0  0  0  0  0  0  0  0
   44.8880   36.1040   43.5440 C   0  0  0  0  0  0  0  0  0  0  0  0
   44.4990   35.5900   44.7380 N   0  0  0  0  0  0  0  0  0  0  0  0
   45.1030   34.5380   45.3020 C   0  0  0  0  0  0  0  0  0  0  0  0
   46.1330   33.9460   44.6920 N   0  0  0  0  0  0  0  0  0  0  0  0
   46.2820   35.9090   41.9240 H   0  0  0  0  0  0  0  0  0  0  0  0
   44.3680   36.9640   43.1160 H   0  0  0  0  0  0  0  0  0  0  0  0
   44.8030   34.1170   46.2550 H   0  0  0  0  0  0  0  0  0  0  0  0
  1  2  2  0  0  0  0
  1 13  1  0  0  0  0
  4  3  1  0  0  0  0
  4  5  1  0  0  0  0
  5  1  1  0  0  0  0
  6  5  2  0  0  0  0
  6  7  1  0  0  0  0
  8  6  1  0  0  0  0
  9 11  1  0  0  0  0
  9  8  2  0  0  0  0
 10  9  1  0  0  0  0
 11  4  2  0  0  0  0
 12 11  1  0  0  0  0
 13 18  1  0  0  0  0
 14 13  2  0  0  0  0
 14 15  1  0  0  0  0
 15 16  2  0  0  0  0
 16 17  1  0  0  0  0
 17 21  1  0  0  0  0
 18 17  2  0  0  0  0
 19 14  1  0  0  0  0
 20 15  1  0  0  0  0
M  END
>  <minimizedAffinity>
-4.7849288

>  <minimizedRMSD>
1.47176135

$$$$
