
 OpenBabel03242520383D

 36 39  0  0  1  0  0  0  0  0999 V2000
   38.4730   29.3110   39.3100 C   0  0  0  0  0  0  0  0  0  0  0  0
   37.2460   30.0550   39.2870 C   0  0  0  0  0  0  0  0  0  0  0  0
   36.7390   30.4680   40.4910 C   0  0  0  0  0  0  0  0  0  0  0  0
   37.3990   30.1670   41.6340 N   0  0  0  0  0  0  0  0  0  0  0  0
   38.5580   29.4610   41.6230 C   0  0  0  0  0  0  0  0  0  0  0  0
   39.0780   29.0430   40.4560 N   0  0  0  0  0  0  0  0  0  0  0  0
   38.9180   28.9630   38.3910 H   0  0  0  0  0  0  0  0  0  0  0  0
   35.8250   31.0300   40.5670 H   0  0  0  0  0  0  0  0  0  0  0  0
   36.5460   30.3510   38.0100 C   0  0  1  0  0  0  0  0  0  0  0  0
   36.6300   29.4760   36.8800 C   0  0  0  0  0  0  0  0  0  0  0  0
   35.3570   29.4530   37.6250 C   0  0  1  0  0  0  0  0  0  0  0  0
   36.1940   31.4240   37.9950 H   0  0  0  0  0  0  0  0  0  0  0  0
   36.6770   29.9730   35.8630 H   0  0  0  0  0  0  0  0  0  0  0  0
   37.3360   28.6220   36.9020 H   0  0  0  0  0  0  0  0  0  0  0  0
   34.5050   29.9140   37.0630 H   0  0  0  0  0  0  0  0  0  0  0  0
   34.9390   28.3390   38.5050 C   0  0  0  0  0  0  0  0  0  0  0  0
   34.3680   28.7920   39.6810 F   0  0  0  0  0  0  0  0  0  0  0  0
   36.0100   27.5030   38.8180 F   0  0  0  0  0  0  0  0  0  0  0  0
   33.9720   27.6280   37.8360 F   0  0  0  0  0  0  0  0  0  0  0  0
   39.2200   29.1760   42.9270 C   0  0  2  0  0  0  0  0  0  0  0  0
   40.5710   28.4960   42.7780 C   0  0  0  0  0  0  0  0  0  0  0  0
   39.4310   27.7690   43.3710 C   0  0  2  0  0  0  0  0  0  0  0  0
   39.0970   29.9650   43.6740 H   0  0  0  0  0  0  0  0  0  0  0  0
   41.3880   28.8790   43.4650 H   0  0  0  0  0  0  0  0  0  0  0  0
   40.9490   28.2840   41.7790 H   0  0  0  0  0  0  0  0  0  0  0  0
   39.4960   27.6620   44.4970 H   0  0  0  0  0  0  0  0  0  0  0  0
   36.3180   27.3200   43.5140 Cl  0  0  0  0  0  0  0  0  0  0  0  0
   37.4000   26.2670   42.6480 C   0  0  0  0  0  0  0  0  0  0  0  0
   38.7160   26.6670   42.7160 C   0  0  0  0  0  0  0  0  0  0  0  0
   39.6420   25.8670   42.0290 C   0  0  0  0  0  0  0  0  0  0  0  0
   40.7140   25.9920   41.9470 H   0  0  0  0  0  0  0  0  0  0  0  0
   39.2450   24.7290   41.3180 C   0  0  0  0  0  3  0  0  0  0  0  0
   37.9170   24.3640   41.2770 C   0  0  0  0  0  0  0  0  0  0  0  0
   37.3060   22.9630   40.4210 Cl  0  0  0  0  0  0  0  0  0  0  0  0
   37.0060   25.1480   41.9510 C   0  0  0  0  0  0  0  0  0  0  0  0
   35.9560   24.9480   41.9780 H   0  0  0  0  0  0  0  0  0  0  0  0
  1  6  1  0  0  0  0
  2  1  2  0  0  0  0
  2  3  1  0  0  0  0
  3  8  1  0  0  0  0
  3  4  2  0  0  0  0
  5  4  1  0  0  0  0
  5 20  1  0  0  0  0
  6  5  2  0  0  0  0
  7  1  1  0  0  0  0
  9 12  1  6  0  0  0
  9  2  1  0  0  0  0
 10 14  1  0  0  0  0
 10 11  1  0  0  0  0
 10  9  1  0  0  0  0
 11 15  1  6  0  0  0
 11  9  1  0  0  0  0
 11 16  1  0  0  0  0
 13 10  1  0  0  0  0
 16 18  1  0  0  0  0
 16 17  1  0  0  0  0
 19 16  1  0  0  0  0
 20 22  1  0  0  0  0
 20 23  1  1  0  0  0
 21 20  1  0  0  0  0
 21 22  1  0  0  0  0
 21 24  1  0  0  0  0
 22 26  1  1  0  0  0
 25 21  1  0  0  0  0
 28 29  1  0  0  0  0
 28 27  1  0  0  0  0
 29 22  1  0  0  0  0
 30 29  2  0  0  0  0
 31 30  1  0  0  0  0
 32 30  1  0  0  0  0
 33 32  2  0  0  0  0
 33 35  1  0  0  0  0
 34 33  1  0  0  0  0
 35 36  1  0  0  0  0
 35 28  2  0  0  0  0
M  END
>  <minimizedAffinity>
-5.90102959

$$$$

 OpenBabel03242520383D

 36 39  0  0  1  0  0  0  0  0999 V2000
   39.2110   28.9250   41.4370 C   0  0  0  0  0  0  0  0  0  0  0  0
   38.0640   29.5290   42.0520 C   0  0  0  0  0  0  0  0  0  0  0  0
   37.5760   28.9360   43.1870 C   0  0  0  0  0  0  0  0  0  0  0  0
   38.1800   27.8280   43.6760 N   0  0  0  0  0  0  0  0  0  0  0  0
   39.2640   27.2810   43.0720 C   0  0  0  0  0  0  0  0  0  0  0  0
   39.7640   27.8410   41.9570 N   0  0  0  0  0  0  0  0  0  0  0  0
   39.6390   29.3510   40.5420 H   0  0  0  0  0  0  0  0  0  0  0  0
   36.7200   29.3210   43.7130 H   0  0  0  0  0  0  0  0  0  0  0  0
   37.4230   30.7370   41.4730 C   0  0  1  0  0  0  0  0  0  0  0  0
   37.4940   31.0350   40.0740 C   0  0  0  0  0  0  0  0  0  0  0  0
   36.1990   30.5270   40.5630 C   0  0  1  0  0  0  0  0  0  0  0  0
   37.1300   31.4570   42.2920 H   0  0  0  0  0  0  0  0  0  0  0  0
   37.6010   32.1290   39.7990 H   0  0  0  0  0  0  0  0  0  0  0  0
   38.1510   30.4290   39.4190 H   0  0  0  0  0  0  0  0  0  0  0  0
   35.3920   31.3030   40.5720 H   0  0  0  0  0  0  0  0  0  0  0  0
   35.6930   29.1640   40.2850 C   0  0  0  0  0  0  0  0  0  0  0  0
   35.2350   28.5360   41.4300 F   0  0  0  0  0  0  0  0  0  0  0  0
   36.6700   28.3640   39.6940 F   0  0  0  0  0  0  0  0  0  0  0  0
   34.6180   29.2900   39.4390 F   0  0  0  0  0  0  0  0  0  0  0  0
   39.8680   26.0630   43.6800 C   0  0  2  0  0  0  0  0  0  0  0  0
   41.0880   25.5570   42.9260 C   0  0  0  0  0  0  0  0  0  0  0  0
   39.8430   24.7650   42.9470 C   0  0  2  0  0  0  0  0  0  0  0  0
   39.8780   26.0640   44.7730 H   0  0  0  0  0  0  0  0  0  0  0  0
   41.9570   25.2220   43.5740 H   0  0  0  0  0  0  0  0  0  0  0  0
   41.4270   26.0990   42.0450 H   0  0  0  0  0  0  0  0  0  0  0  0
   39.8880   23.8640   43.6330 H   0  0  0  0  0  0  0  0  0  0  0  0
   40.7870   24.7850   39.9430 Cl  0  0  0  0  0  0  0  0  0  0  0  0
   39.1300   24.5640   40.4260 C   0  0  0  0  0  0  0  0  0  0  0  0
   38.9560   24.5800   41.7920 C   0  0  0  0  0  0  0  0  0  0  0  0
   37.6420   24.3960   42.2510 C   0  0  0  0  0  0  0  0  0  0  0  0
   37.2790   24.3720   43.2690 H   0  0  0  0  0  0  0  0  0  0  0  0
   36.5750   24.2070   41.3650 C   0  0  0  0  0  3  0  0  0  0  0  0
   36.7940   24.1990   40.0040 C   0  0  0  0  0  0  0  0  0  0  0  0
   35.5370   23.9730   38.8060 Cl  0  0  0  0  0  0  0  0  0  0  0  0
   38.0830   24.3800   39.5520 C   0  0  0  0  0  0  0  0  0  0  0  0
   38.3530   24.3890   38.5180 H   0  0  0  0  0  0  0  0  0  0  0  0
  1  6  2  0  0  0  0
  1  2  1  0  0  0  0
  2  3  2  0  0  0  0
  3  4  1  0  0  0  0
  3  8  1  0  0  0  0
  5  4  2  0  0  0  0
  5 20  1  0  0  0  0
  6  5  1  0  0  0  0
  7  1  1  0  0  0  0
  9  2  1  0  0  0  0
  9 12  1  1  0  0  0
 10 11  1  0  0  0  0
 10  9  1  0  0  0  0
 11 15  1  1  0  0  0
 11  9  1  0  0  0  0
 13 10  1  0  0  0  0
 14 10  1  0  0  0  0
 16 11  1  0  0  0  0
 16 17  1  0  0  0  0
 18 16  1  0  0  0  0
 19 16  1  0  0  0  0
 20 23  1  1  0  0  0
 21 22  1  0  0  0  0
 21 24  1  0  0  0  0
 21 20  1  0  0  0  0
 22 26  1  1  0  0  0
 22 20  1  0  0  0  0
 25 21  1  0  0  0  0
 27 28  1  0  0  0  0
 28 29  1  0  0  0  0
 29 30  2  0  0  0  0
 29 22  1  0  0  0  0
 30 31  1  0  0  0  0
 32 30  1  0  0  0  0
 33 32  2  0  0  0  0
 34 33  1  0  0  0  0
 35 33  1  0  0  0  0
 35 28  2  0  0  0  0
 36 35  1  0  0  0  0
M  END
>  <minimizedAffinity>
-5.88688707

$$$$

 OpenBabel03242520383D

 36 39  0  0  1  0  0  0  0  0999 V2000
   36.6820   29.8520   41.8780 C   0  0  0  0  0  0  0  0  0  0  0  0
   37.7570   29.3170   42.6630 C   0  0  0  0  0  0  0  0  0  0  0  0
   38.9930   29.8890   42.5090 C   0  0  0  0  0  0  0  0  0  0  0  0
   39.1520   30.9160   41.6420 N   0  0  0  0  0  0  0  0  0  0  0  0
   38.1150   31.4000   40.9130 C   0  0  0  0  0  0  0  0  0  0  0  0
   36.8920   30.8580   41.0430 N   0  0  0  0  0  0  0  0  0  0  0  0
   35.6880   29.4420   41.9600 H   0  0  0  0  0  0  0  0  0  0  0  0
   39.8540   29.5510   43.0570 H   0  0  0  0  0  0  0  0  0  0  0  0
   37.5420   28.1790   43.5930 C   0  0  1  0  0  0  0  0  0  0  0  0
   36.3420   27.3980   43.5690 C   0  0  0  0  0  0  0  0  0  0  0  0
   37.5410   26.7610   42.9940 C   0  0  1  0  0  0  0  0  0  0  0  0
   38.3010   28.2050   44.4280 H   0  0  0  0  0  0  0  0  0  0  0  0
   35.9490   27.0520   44.5740 H   0  0  0  0  0  0  0  0  0  0  0  0
   35.4920   27.7230   42.9360 H   0  0  0  0  0  0  0  0  0  0  0  0
   37.9410   25.9210   43.6190 H   0  0  0  0  0  0  0  0  0  0  0  0
   37.7480   26.5560   41.5420 C   0  0  0  0  0  0  0  0  0  0  0  0
   38.9170   27.1450   41.0970 F   0  0  0  0  0  0  0  0  0  0  0  0
   36.6800   27.0540   40.7970 F   0  0  0  0  0  0  0  0  0  0  0  0
   37.8730   25.2040   41.3330 F   0  0  0  0  0  0  0  0  0  0  0  0
   38.3780   32.5350   39.9840 C   0  0  2  0  0  0  0  0  0  0  0  0
   37.1830   32.8870   39.1130 C   0  0  0  0  0  0  0  0  0  0  0  0
   38.4020   32.3100   38.5100 C   0  0  2  0  0  0  0  0  0  0  0  0
   38.9800   33.3390   40.4160 H   0  0  0  0  0  0  0  0  0  0  0  0
   36.9850   33.9960   38.9820 H   0  0  0  0  0  0  0  0  0  0  0  0
   36.2590   32.3220   39.2290 H   0  0  0  0  0  0  0  0  0  0  0  0
   39.0360   33.0670   37.9540 H   0  0  0  0  0  0  0  0  0  0  0  0
   40.9820   30.5100   38.6330 Cl  0  0  0  0  0  0  0  0  0  0  0  0
   39.4920   30.0010   37.8910 C   0  0  0  0  0  0  0  0  0  0  0  0
   38.4970   30.9500   37.9670 C   0  0  0  0  0  0  0  0  0  0  0  0
   37.2630   30.6000   37.3970 C   0  0  0  0  0  0  0  0  0  0  0  0
   36.3530   31.1830   37.3420 H   0  0  0  0  0  0  0  0  0  0  0  0
   37.0620   29.3560   36.7870 C   0  0  0  0  0  3  0  0  0  0  0  0
   38.0870   28.4360   36.7330 C   0  0  0  0  0  0  0  0  0  0  0  0
   37.9500   26.8530   35.9960 Cl  0  0  0  0  0  0  0  0  0  0  0  0
   39.2990   28.7780   37.2920 C   0  0  0  0  0  0  0  0  0  0  0  0
   40.1510   28.1330   37.3000 H   0  0  0  0  0  0  0  0  0  0  0  0
  1  7  1  0  0  0  0
  1  2  1  0  0  0  0
  2  9  1  0  0  0  0
  3  2  2  0  0  0  0
  3  8  1  0  0  0  0
  4  3  1  0  0  0  0
  5  6  1  0  0  0  0
  5  4  2  0  0  0  0
  6  1  2  0  0  0  0
  9 12  1  1  0  0  0
 10  9  1  0  0  0  0
 10 13  1  0  0  0  0
 11 10  1  0  0  0  0
 11  9  1  0  0  0  0
 11 15  1  1  0  0  0
 14 10  1  0  0  0  0
 16 11  1  0  0  0  0
 17 16  1  0  0  0  0
 18 16  1  0  0  0  0
 19 16  1  0  0  0  0
 20 23  1  1  0  0  0
 20  5  1  0  0  0  0
 21 25  1  0  0  0  0
 21 20  1  0  0  0  0
 22 26  1  6  0  0  0
 22 21  1  0  0  0  0
 22 20  1  0  0  0  0
 24 21  1  0  0  0  0
 28 29  1  0  0  0  0
 28 27  1  0  0  0  0
 29 22  1  0  0  0  0
 30 29  2  0  0  0  0
 31 30  1  0  0  0  0
 32 30  1  0  0  0  0
 33 32  2  0  0  0  0
 33 35  1  0  0  0  0
 34 33  1  0  0  0  0
 35 36  1  0  0  0  0
 35 28  2  0  0  0  0
M  END
>  <minimizedAffinity>
-5.81721592

$$$$

 OpenBabel03242520383D

 36 39  0  0  1  0  0  0  0  0999 V2000
   36.3120   29.8370   41.4580 C   0  0  0  0  0  0  0  0  0  0  0  0
   36.5880   28.4280   41.4400 C   0  0  0  0  0  0  0  0  0  0  0  0
   36.8440   27.8540   40.2230 C   0  0  0  0  0  0  0  0  0  0  0  0
   36.8290   28.6190   39.1050 N   0  0  0  0  0  0  0  0  0  0  0  0
   36.5650   29.9480   39.1550 C   0  0  0  0  0  0  0  0  0  0  0  0
   36.3100   30.5380   40.3350 N   0  0  0  0  0  0  0  0  0  0  0  0
   36.1050   30.3410   42.3890 H   0  0  0  0  0  0  0  0  0  0  0  0
   37.0610   26.8060   40.1160 H   0  0  0  0  0  0  0  0  0  0  0  0
   36.5800   27.6240   42.6880 C   0  0  1  0  0  0  0  0  0  0  0  0
   37.1770   26.3240   42.7560 C   0  0  0  0  0  0  0  0  0  0  0  0
   37.9230   27.4150   43.4100 C   0  0  1  0  0  0  0  0  0  0  0  0
   35.8480   28.0580   43.4300 H   0  0  0  0  0  0  0  0  0  0  0  0
   36.6360   25.5560   43.3890 H   0  0  0  0  0  0  0  0  0  0  0  0
   37.5410   25.8420   41.8270 H   0  0  0  0  0  0  0  0  0  0  0  0
   37.9190   27.3480   44.5280 H   0  0  0  0  0  0  0  0  0  0  0  0
   39.1690   28.0010   42.8670 C   0  0  0  0  0  0  0  0  0  0  0  0
   39.1480   29.3840   42.8950 F   0  0  0  0  0  0  0  0  0  0  0  0
   39.4050   27.5810   41.5580 F   0  0  0  0  0  0  0  0  0  0  0  0
   40.2010   27.5980   43.6790 F   0  0  0  0  0  0  0  0  0  0  0  0
   36.5720   30.7150   37.8780 C   0  0  2  0  0  0  0  0  0  0  0  0
   37.6610   30.2700   36.9160 C   0  0  0  0  0  0  0  0  0  0  0  0
   37.7180   31.6060   37.5410 C   0  0  2  0  0  0  0  0  0  0  0  0
   35.5760   30.9470   37.4880 H   0  0  0  0  0  0  0  0  0  0  0  0
   37.3500   30.1920   35.8280 H   0  0  0  0  0  0  0  0  0  0  0  0
   38.3230   29.4550   37.2060 H   0  0  0  0  0  0  0  0  0  0  0  0
   37.4370   32.4490   36.8400 H   0  0  0  0  0  0  0  0  0  0  0  0
   37.2970   33.9730   39.5740 Cl  0  0  0  0  0  0  0  0  0  0  0  0
   38.7260   32.9790   39.5420 C   0  0  0  0  0  0  0  0  0  0  0  0
   38.6830   31.9990   38.5760 C   0  0  0  0  0  0  0  0  0  0  0  0
   39.8000   31.1530   38.5030 C   0  0  0  0  0  0  0  0  0  0  0  0
   39.9790   30.3260   37.8290 H   0  0  0  0  0  0  0  0  0  0  0  0
   40.8920   31.3020   39.3660 C   0  0  0  0  0  3  0  0  0  0  0  0
   40.8930   32.2980   40.3190 C   0  0  0  0  0  0  0  0  0  0  0  0
   42.2020   32.5780   41.4490 Cl  0  0  0  0  0  0  0  0  0  0  0  0
   39.7970   33.1300   40.3920 C   0  0  0  0  0  0  0  0  0  0  0  0
   39.7050   33.9280   41.0960 H   0  0  0  0  0  0  0  0  0  0  0  0
  1  7  1  0  0  0  0
  2  1  1  0  0  0  0
  2  9  1  0  0  0  0
  3  2  2  0  0  0  0
  4  5  2  0  0  0  0
  4  3  1  0  0  0  0
  5  6  1  0  0  0  0
  6  1  2  0  0  0  0
  8  3  1  0  0  0  0
  9 10  1  0  0  0  0
  9 11  1  0  0  0  0
  9 12  1  1  0  0  0
 10 13  1  0  0  0  0
 10 11  1  0  0  0  0
 11 15  1  1  0  0  0
 14 10  1  0  0  0  0
 16 17  1  0  0  0  0
 16 11  1  0  0  0  0
 16 19  1  0  0  0  0
 18 16  1  0  0  0  0
 20 23  1  6  0  0  0
 20  5  1  0  0  0  0
 21 25  1  0  0  0  0
 21 22  1  0  0  0  0
 21 20  1  0  0  0  0
 22 26  1  6  0  0  0
 22 20  1  0  0  0  0
 22 29  1  0  0  0  0
 24 21  1  0  0  0  0
 28 27  1  0  0  0  0
 28 35  1  0  0  0  0
 29 28  2  0  0  0  0
 30 29  1  0  0  0  0
 30 32  2  0  0  0  0
 31 30  1  0  0  0  0
 32 33  1  0  0  0  0
 33 35  2  0  0  0  0
 33 34  1  0  0  0  0
 35 36  1  0  0  0  0
M  END
>  <minimizedAffinity>
-5.77364445

$$$$

 OpenBabel03242520383D

 36 39  0  0  1  0  0  0  0  0999 V2000
   36.4310   29.1680   41.5540 C   0  0  0  0  0  0  0  0  0  0  0  0
   37.1990   30.3370   41.2330 C   0  0  0  0  0  0  0  0  0  0  0  0
   38.4690   30.4130   41.7400 C   0  0  0  0  0  0  0  0  0  0  0  0
   38.9450   29.4040   42.5080 N   0  0  0  0  0  0  0  0  0  0  0  0
   38.1950   28.3110   42.7940 C   0  0  0  0  0  0  0  0  0  0  0  0
   36.9450   28.2100   42.3100 N   0  0  0  0  0  0  0  0  0  0  0  0
   35.4250   29.0550   41.1800 H   0  0  0  0  0  0  0  0  0  0  0  0
   39.1140   31.2520   41.5500 H   0  0  0  0  0  0  0  0  0  0  0  0
   36.6320   31.4280   40.3990 C   0  0  1  0  0  0  0  0  0  0  0  0
   37.4610   32.4240   39.7900 C   0  0  0  0  0  0  0  0  0  0  0  0
   36.9200   31.3910   38.8870 C   0  0  1  0  0  0  0  0  0  0  0  0
   35.5140   31.4900   40.5420 H   0  0  0  0  0  0  0  0  0  0  0  0
   37.0400   33.4760   39.7570 H   0  0  0  0  0  0  0  0  0  0  0  0
   38.5380   32.4700   40.0470 H   0  0  0  0  0  0  0  0  0  0  0  0
   36.1340   31.7790   38.1890 H   0  0  0  0  0  0  0  0  0  0  0  0
   37.7330   30.3010   38.3020 C   0  0  0  0  0  0  0  0  0  0  0  0
   37.7710   30.3660   36.9210 F   0  0  0  0  0  0  0  0  0  0  0  0
   37.2560   29.0470   38.6810 F   0  0  0  0  0  0  0  0  0  0  0  0
   39.0210   30.4660   38.7480 F   0  0  0  0  0  0  0  0  0  0  0  0
   38.7980   27.2470   43.6430 C   0  0  2  0  0  0  0  0  0  0  0  0
   40.1850   26.8260   43.1850 C   0  0  0  0  0  0  0  0  0  0  0  0
   39.0490   25.8890   43.0820 C   0  0  2  0  0  0  0  0  0  0  0  0
   38.5990   27.3590   44.7130 H   0  0  0  0  0  0  0  0  0  0  0  0
   40.9460   26.6700   44.0120 H   0  0  0  0  0  0  0  0  0  0  0  0
   40.6260   27.3150   42.3180 H   0  0  0  0  0  0  0  0  0  0  0  0
   39.0580   25.0750   43.8710 H   0  0  0  0  0  0  0  0  0  0  0  0
   40.0890   26.6950   40.2220 Cl  0  0  0  0  0  0  0  0  0  0  0  0
   38.6790   25.7090   40.4870 C   0  0  0  0  0  0  0  0  0  0  0  0
   38.4220   25.4780   41.8200 C   0  0  0  0  0  0  0  0  0  0  0  0
   37.3040   24.6800   42.1060 C   0  0  0  0  0  0  0  0  0  0  0  0
   36.9200   24.3730   43.0690 H   0  0  0  0  0  0  0  0  0  0  0  0
   36.4990   24.1530   41.0890 C   0  0  0  0  0  3  0  0  0  0  0  0
   36.7920   24.4100   39.7670 C   0  0  0  0  0  0  0  0  0  0  0  0
   35.8570   23.8050   38.4150 Cl  0  0  0  0  0  0  0  0  0  0  0  0
   37.8900   25.1940   39.4850 C   0  0  0  0  0  0  0  0  0  0  0  0
   38.1980   25.4480   38.4940 H   0  0  0  0  0  0  0  0  0  0  0  0
  1  6  1  0  0  0  0
  2  1  2  0  0  0  0
  2  3  1  0  0  0  0
  3  4  2  0  0  0  0
  4  5  1  0  0  0  0
  5 20  1  0  0  0  0
  6  5  2  0  0  0  0
  7  1  1  0  0  0  0
  8  3  1  0  0  0  0
  9 12  1  1  0  0  0
  9  2  1  0  0  0  0
 10 14  1  0  0  0  0
 10  9  1  0  0  0  0
 11 15  1  6  0  0  0
 11 10  1  0  0  0  0
 11  9  1  0  0  0  0
 13 10  1  0  0  0  0
 16 18  1  0  0  0  0
 16 19  1  0  0  0  0
 16 11  1  0  0  0  0
 17 16  1  0  0  0  0
 20 23  1  1  0  0  0
 21 20  1  0  0  0  0
 21 24  1  0  0  0  0
 22 21  1  0  0  0  0
 22 20  1  0  0  0  0
 22 26  1  1  0  0  0
 25 21  1  0  0  0  0
 27 28  1  0  0  0  0
 28 29  1  0  0  0  0
 29 30  2  0  0  0  0
 29 22  1  0  0  0  0
 30 31  1  0  0  0  0
 32 30  1  0  0  0  0
 33 32  2  0  0  0  0
 34 33  1  0  0  0  0
 35 33  1  0  0  0  0
 35 28  2  0  0  0  0
 36 35  1  0  0  0  0
M  END
>  <minimizedAffinity>
-5.72868919

$$$$

 OpenBabel03242520383D

 36 39  0  0  1  0  0  0  0  0999 V2000
   39.5030   29.4560   40.2080 C   0  0  0  0  0  0  0  0  0  0  0  0
   38.2020   29.4700   39.6020 C   0  0  0  0  0  0  0  0  0  0  0  0
   37.1830   28.8630   40.2890 C   0  0  0  0  0  0  0  0  0  0  0  0
   37.4350   28.2860   41.4880 N   0  0  0  0  0  0  0  0  0  0  0  0
   38.6760   28.2900   42.0350 C   0  0  0  0  0  0  0  0  0  0  0  0
   39.6950   28.8780   41.3830 N   0  0  0  0  0  0  0  0  0  0  0  0
   40.3410   29.9200   39.7120 H   0  0  0  0  0  0  0  0  0  0  0  0
   36.1780   28.8260   39.9100 H   0  0  0  0  0  0  0  0  0  0  0  0
   37.9730   30.1010   38.2780 C   0  0  1  0  0  0  0  0  0  0  0  0
   36.6600   30.4330   37.8130 C   0  0  0  0  0  0  0  0  0  0  0  0
   37.4940   31.5640   38.2590 C   0  0  1  0  0  0  0  0  0  0  0  0
   38.9040   30.0290   37.6420 H   0  0  0  0  0  0  0  0  0  0  0  0
   36.4650   30.2800   36.7070 H   0  0  0  0  0  0  0  0  0  0  0  0
   35.7760   30.0960   38.3900 H   0  0  0  0  0  0  0  0  0  0  0  0
   37.8350   32.2220   37.4190 H   0  0  0  0  0  0  0  0  0  0  0  0
   37.2750   32.3010   39.5240 C   0  0  0  0  0  0  0  0  0  0  0  0
   38.4350   32.4120   40.2680 F   0  0  0  0  0  0  0  0  0  0  0  0
   36.2940   31.6930   40.3070 F   0  0  0  0  0  0  0  0  0  0  0  0
   36.8840   33.5760   39.1940 F   0  0  0  0  0  0  0  0  0  0  0  0
   38.8630   27.6350   43.3590 C   0  0  2  0  0  0  0  0  0  0  0  0
   40.2570   27.0600   43.5530 C   0  0  0  0  0  0  0  0  0  0  0  0
   39.0890   26.1640   43.4450 C   0  0  2  0  0  0  0  0  0  0  0  0
   38.3790   28.1550   44.1900 H   0  0  0  0  0  0  0  0  0  0  0  0
   40.7180   27.2320   44.5760 H   0  0  0  0  0  0  0  0  0  0  0  0
   40.9910   27.1710   42.7560 H   0  0  0  0  0  0  0  0  0  0  0  0
   38.7630   25.7200   44.4350 H   0  0  0  0  0  0  0  0  0  0  0  0
   41.2160   25.3140   41.2840 Cl  0  0  0  0  0  0  0  0  0  0  0  0
   39.5490   24.8160   41.2370 C   0  0  0  0  0  0  0  0  0  0  0  0
   38.8080   25.2990   42.2920 C   0  0  0  0  0  0  0  0  0  0  0  0
   37.4550   24.9260   42.3220 C   0  0  0  0  0  0  0  0  0  0  0  0
   36.6970   25.1870   43.0480 H   0  0  0  0  0  0  0  0  0  0  0  0
   36.8980   24.1080   41.3320 C   0  0  0  0  0  3  0  0  0  0  0  0
   37.6760   23.6460   40.2930 C   0  0  0  0  0  0  0  0  0  0  0  0
   37.0870   22.6200   39.0020 Cl  0  0  0  0  0  0  0  0  0  0  0  0
   39.0050   24.0120   40.2620 C   0  0  0  0  0  0  0  0  0  0  0  0
   39.6870   23.7040   39.4990 H   0  0  0  0  0  0  0  0  0  0  0  0
  1  6  1  0  0  0  0
  2  1  2  0  0  0  0
  2  3  1  0  0  0  0
  3  4  2  0  0  0  0
  4  5  1  0  0  0  0
  5 20  1  0  0  0  0
  6  5  2  0  0  0  0
  7  1  1  0  0  0  0
  8  3  1  0  0  0  0
  9 12  1  6  0  0  0
  9  2  1  0  0  0  0
 10 11  1  0  0  0  0
 10  9  1  0  0  0  0
 10 14  1  0  0  0  0
 11 15  1  6  0  0  0
 11  9  1  0  0  0  0
 11 16  1  0  0  0  0
 13 10  1  0  0  0  0
 16 17  1  0  0  0  0
 16 18  1  0  0  0  0
 19 16  1  0  0  0  0
 20 22  1  0  0  0  0
 20 21  1  0  0  0  0
 20 23  1  1  0  0  0
 21 24  1  0  0  0  0
 22 21  1  0  0  0  0
 22 26  1  1  0  0  0
 25 21  1  0  0  0  0
 28 27  1  0  0  0  0
 28 29  1  0  0  0  0
 29 30  2  0  0  0  0
 29 22  1  0  0  0  0
 30 31  1  0  0  0  0
 32 30  1  0  0  0  0
 33 32  2  0  0  0  0
 34 33  1  0  0  0  0
 35 33  1  0  0  0  0
 35 28  2  0  0  0  0
 36 35  1  0  0  0  0
M  END
>  <minimizedAffinity>
-5.66328669

$$$$

 OpenBabel03242520383D

 36 39  0  0  1  0  0  0  0  0999 V2000
   38.8970   28.2000   40.0500 C   0  0  0  0  0  0  0  0  0  0  0  0
   38.8380   28.2380   41.4840 C   0  0  0  0  0  0  0  0  0  0  0  0
   38.1480   29.2740   42.0560 C   0  0  0  0  0  0  0  0  0  0  0  0
   37.5600   30.2040   41.2660 N   0  0  0  0  0  0  0  0  0  0  0  0
   37.6340   30.1410   39.9130 C   0  0  0  0  0  0  0  0  0  0  0  0
   38.3040   29.1350   39.3250 N   0  0  0  0  0  0  0  0  0  0  0  0
   39.4250   27.4050   39.5460 H   0  0  0  0  0  0  0  0  0  0  0  0
   38.0530   29.3820   43.1220 H   0  0  0  0  0  0  0  0  0  0  0  0
   39.5100   27.2050   42.3120 C   0  0  1  0  0  0  0  0  0  0  0  0
   39.1490   26.9770   43.6790 C   0  0  0  0  0  0  0  0  0  0  0  0
   38.6890   25.9660   42.7110 C   0  0  1  0  0  0  0  0  0  0  0  0
   40.4560   26.8510   41.8070 H   0  0  0  0  0  0  0  0  0  0  0  0
   39.9980   26.7320   44.3880 H   0  0  0  0  0  0  0  0  0  0  0  0
   38.4440   27.6710   44.1800 H   0  0  0  0  0  0  0  0  0  0  0  0
   39.2210   24.9850   42.8060 H   0  0  0  0  0  0  0  0  0  0  0  0
   37.2810   25.8230   42.2750 C   0  0  0  0  0  0  0  0  0  0  0  0
   37.1440   25.9620   40.9060 F   0  0  0  0  0  0  0  0  0  0  0  0
   36.4530   26.7510   42.9070 F   0  0  0  0  0  0  0  0  0  0  0  0
   36.8800   24.5480   42.5930 F   0  0  0  0  0  0  0  0  0  0  0  0
   36.9560   31.2040   39.1210 C   0  0  2  0  0  0  0  0  0  0  0  0
   37.2090   31.0930   37.6260 C   0  0  0  0  0  0  0  0  0  0  0  0
   37.7590   32.2280   38.3940 C   0  0  2  0  0  0  0  0  0  0  0  0
   35.9530   31.4570   39.4760 H   0  0  0  0  0  0  0  0  0  0  0  0
   36.3060   31.2720   36.9640 H   0  0  0  0  0  0  0  0  0  0  0  0
   37.8290   30.2790   37.2540 H   0  0  0  0  0  0  0  0  0  0  0  0
   37.2000   33.2000   38.2320 H   0  0  0  0  0  0  0  0  0  0  0  0
   38.8630   33.6010   41.0030 Cl  0  0  0  0  0  0  0  0  0  0  0  0
   39.8860   32.9790   39.7400 C   0  0  0  0  0  0  0  0  0  0  0  0
   39.1820   32.4130   38.7020 C   0  0  0  0  0  0  0  0  0  0  0  0
   39.9480   31.8800   37.6520 C   0  0  0  0  0  0  0  0  0  0  0  0
   39.6090   31.3940   36.7470 H   0  0  0  0  0  0  0  0  0  0  0  0
   41.3470   31.9270   37.6670 C   0  0  0  0  0  3  0  0  0  0  0  0
   42.0110   32.5040   38.7270 C   0  0  0  0  0  0  0  0  0  0  0  0
   43.7550   32.6180   38.8520 Cl  0  0  0  0  0  0  0  0  0  0  0  0
   41.2610   33.0270   39.7580 C   0  0  0  0  0  0  0  0  0  0  0  0
   41.6840   33.4940   40.6210 H   0  0  0  0  0  0  0  0  0  0  0  0
  1  2  1  0  0  0  0
  2  3  2  0  0  0  0
  2  9  1  0  0  0  0
  3  8  1  0  0  0  0
  4  3  1  0  0  0  0
  5  4  2  0  0  0  0
  6  5  1  0  0  0  0
  6  1  2  0  0  0  0
  7  1  1  0  0  0  0
  9 12  1  6  0  0  0
  9 11  1  0  0  0  0
  9 10  1  0  0  0  0
 10 14  1  0  0  0  0
 10 13  1  0  0  0  0
 11 15  1  1  0  0  0
 11 10  1  0  0  0  0
 16 19  1  0  0  0  0
 16 11  1  0  0  0  0
 16 18  1  0  0  0  0
 17 16  1  0  0  0  0
 20 23  1  1  0  0  0
 20  5  1  0  0  0  0
 21 22  1  0  0  0  0
 21 20  1  0  0  0  0
 22 26  1  6  0  0  0
 22 29  1  0  0  0  0
 22 20  1  0  0  0  0
 24 21  1  0  0  0  0
 25 21  1  0  0  0  0
 28 35  1  0  0  0  0
 28 27  1  0  0  0  0
 29 28  2  0  0  0  0
 30 32  2  0  0  0  0
 30 29  1  0  0  0  0
 31 30  1  0  0  0  0
 32 33  1  0  0  0  0
 33 34  1  0  0  0  0
 33 35  2  0  0  0  0
 35 36  1  0  0  0  0
M  END
>  <minimizedAffinity>
-5.65905142

$$$$

 OpenBabel03242520383D

 36 39  0  0  1  0  0  0  0  0999 V2000
   38.6250   29.4490   40.5710 C   0  0  0  0  0  0  0  0  0  0  0  0
   39.2770   28.9870   41.7630 C   0  0  0  0  0  0  0  0  0  0  0  0
   39.7910   29.9360   42.6060 C   0  0  0  0  0  0  0  0  0  0  0  0
   39.6670   31.2480   42.2920 N   0  0  0  0  0  0  0  0  0  0  0  0
   39.0450   31.6540   41.1580 C   0  0  0  0  0  0  0  0  0  0  0  0
   38.5310   30.7440   40.3120 N   0  0  0  0  0  0  0  0  0  0  0  0
   38.2000   28.7450   39.8730 H   0  0  0  0  0  0  0  0  0  0  0  0
   40.2960   29.6800   43.5200 H   0  0  0  0  0  0  0  0  0  0  0  0
   39.4040   27.5370   42.0610 C   0  0  1  0  0  0  0  0  0  0  0  0
   39.4500   27.0410   43.4030 C   0  0  0  0  0  0  0  0  0  0  0  0
   38.1850   26.8270   42.6770 C   0  0  1  0  0  0  0  0  0  0  0  0
   39.7070   26.9710   41.1330 H   0  0  0  0  0  0  0  0  0  0  0  0
   40.1450   26.1660   43.5920 H   0  0  0  0  0  0  0  0  0  0  0  0
   39.5260   27.7560   44.2470 H   0  0  0  0  0  0  0  0  0  0  0  0
   38.0040   25.7560   42.4070 H   0  0  0  0  0  0  0  0  0  0  0  0
   36.9390   27.5760   42.9560 C   0  0  0  0  0  0  0  0  0  0  0  0
   36.2630   27.9090   41.7960 F   0  0  0  0  0  0  0  0  0  0  0  0
   37.1920   28.7410   43.6800 F   0  0  0  0  0  0  0  0  0  0  0  0
   36.1150   26.7470   43.6780 F   0  0  0  0  0  0  0  0  0  0  0  0
   38.9500   33.1160   40.8920 C   0  0  2  0  0  0  0  0  0  0  0  0
   38.3810   33.4420   39.5210 C   0  0  0  0  0  0  0  0  0  0  0  0
   39.7920   33.7440   39.8330 C   0  0  2  0  0  0  0  0  0  0  0  0
   38.6380   33.7110   41.7550 H   0  0  0  0  0  0  0  0  0  0  0  0
   37.6350   34.2970   39.4920 H   0  0  0  0  0  0  0  0  0  0  0  0
   38.0850   32.6260   38.8630 H   0  0  0  0  0  0  0  0  0  0  0  0
   39.9920   34.8440   40.0170 H   0  0  0  0  0  0  0  0  0  0  0  0
   42.5230   33.2850   41.3310 Cl  0  0  0  0  0  0  0  0  0  0  0  0
   42.2070   32.7160   39.7170 C   0  0  0  0  0  0  0  0  0  0  0  0
   40.9410   33.0230   39.2720 C   0  0  0  0  0  0  0  0  0  0  0  0
   40.6150   32.5830   37.9790 C   0  0  0  0  0  0  0  0  0  0  0  0
   39.6890   32.7110   37.4340 H   0  0  0  0  0  0  0  0  0  0  0  0
   41.5300   31.8740   37.1930 C   0  0  0  0  0  3  0  0  0  0  0  0
   42.7880   31.5870   37.6780 C   0  0  0  0  0  0  0  0  0  0  0  0
   44.0110   30.7090   36.7850 Cl  0  0  0  0  0  0  0  0  0  0  0  0
   43.1090   32.0190   38.9470 C   0  0  0  0  0  0  0  0  0  0  0  0
   44.0570   31.8460   39.4090 H   0  0  0  0  0  0  0  0  0  0  0  0
  1  2  1  0  0  0  0
  2  9  1  0  0  0  0
  2  3  2  0  0  0  0
  3  8  1  0  0  0  0
  4  3  1  0  0  0  0
  5  4  2  0  0  0  0
  6  1  2  0  0  0  0
  6  5  1  0  0  0  0
  7  1  1  0  0  0  0
  9 12  1  6  0  0  0
  9 11  1  0  0  0  0
  9 10  1  0  0  0  0
 10 13  1  0  0  0  0
 10 14  1  0  0  0  0
 11 15  1  6  0  0  0
 11 16  1  0  0  0  0
 11 10  1  0  0  0  0
 16 19  1  0  0  0  0
 16 18  1  0  0  0  0
 17 16  1  0  0  0  0
 20  5  1  0  0  0  0
 20 23  1  1  0  0  0
 21 22  1  0  0  0  0
 21 20  1  0  0  0  0
 22 26  1  1  0  0  0
 22 20  1  0  0  0  0
 24 21  1  0  0  0  0
 25 21  1  0  0  0  0
 28 27  1  0  0  0  0
 29 28  1  0  0  0  0
 29 22  1  0  0  0  0
 30 29  2  0  0  0  0
 31 30  1  0  0  0  0
 32 33  2  0  0  0  0
 32 30  1  0  0  0  0
 33 35  1  0  0  0  0
 34 33  1  0  0  0  0
 35 36  1  0  0  0  0
 35 28  2  0  0  0  0
M  END
>  <minimizedAffinity>
-5.60514975

$$$$

 OpenBabel03242520383D

 36 39  0  0  1  0  0  0  0  0999 V2000
   39.8640   27.9280   40.2320 C   0  0  0  0  0  0  0  0  0  0  0  0
   39.9320   27.8160   41.6610 C   0  0  0  0  0  0  0  0  0  0  0  0
   39.8090   28.9700   42.3890 C   0  0  0  0  0  0  0  0  0  0  0  0
   39.6320   30.1500   41.7470 N   0  0  0  0  0  0  0  0  0  0  0  0
   39.5720   30.2240   40.3940 C   0  0  0  0  0  0  0  0  0  0  0  0
   39.6890   29.1070   39.6550 N   0  0  0  0  0  0  0  0  0  0  0  0
   39.9520   27.0510   39.6100 H   0  0  0  0  0  0  0  0  0  0  0  0
   39.8480   28.9790   43.4630 H   0  0  0  0  0  0  0  0  0  0  0  0
   40.1420   26.5030   42.3230 C   0  0  1  0  0  0  0  0  0  0  0  0
   39.7480   26.2660   43.6790 C   0  0  0  0  0  0  0  0  0  0  0  0
   38.8960   25.6570   42.6410 C   0  0  1  0  0  0  0  0  0  0  0  0
   40.8520   25.8670   41.7180 H   0  0  0  0  0  0  0  0  0  0  0  0
   40.4370   25.6120   44.2960 H   0  0  0  0  0  0  0  0  0  0  0  0
   39.3950   27.1140   44.3010 H   0  0  0  0  0  0  0  0  0  0  0  0
   38.9860   24.5420   42.5910 H   0  0  0  0  0  0  0  0  0  0  0  0
   37.5440   26.1480   42.2920 C   0  0  0  0  0  0  0  0  0  0  0  0
   36.5600   25.2270   42.6030 F   0  0  0  0  0  0  0  0  0  0  0  0
   37.4490   26.4690   40.9390 F   0  0  0  0  0  0  0  0  0  0  0  0
   37.3040   27.2660   43.0550 F   0  0  0  0  0  0  0  0  0  0  0  0
   39.3720   31.5620   39.7710 C   0  0  2  0  0  0  0  0  0  0  0  0
   38.3890   32.4370   40.5310 C   0  0  0  0  0  0  0  0  0  0  0  0
   38.0500   31.9290   39.1870 C   0  0  2  0  0  0  0  0  0  0  0  0
   40.2830   32.0090   39.3650 H   0  0  0  0  0  0  0  0  0  0  0  0
   38.6890   33.5260   40.6410 H   0  0  0  0  0  0  0  0  0  0  0  0
   37.9300   32.0510   41.4400 H   0  0  0  0  0  0  0  0  0  0  0  0
   38.1250   32.7120   38.3730 H   0  0  0  0  0  0  0  0  0  0  0  0
   36.1330   30.6920   41.3570 Cl  0  0  0  0  0  0  0  0  0  0  0  0
   36.1260   30.2100   39.6840 C   0  0  0  0  0  0  0  0  0  0  0  0
   37.0430   30.8950   38.9190 C   0  0  0  0  0  0  0  0  0  0  0  0
   37.0830   30.5640   37.5560 C   0  0  0  0  0  0  0  0  0  0  0  0
   37.7170   30.9690   36.7790 H   0  0  0  0  0  0  0  0  0  0  0  0
   36.2360   29.5900   37.0120 C   0  0  0  0  0  3  0  0  0  0  0  0
   35.3320   28.9280   37.8150 C   0  0  0  0  0  0  0  0  0  0  0  0
   34.2270   27.6950   37.2450 Cl  0  0  0  0  0  0  0  0  0  0  0  0
   35.2920   29.2530   39.1540 C   0  0  0  0  0  0  0  0  0  0  0  0
   34.6270   28.7960   39.8540 H   0  0  0  0  0  0  0  0  0  0  0  0
  1  2  1  0  0  0  0
  2  9  1  0  0  0  0
  2  3  2  0  0  0  0
  3  8  1  0  0  0  0
  4  3  1  0  0  0  0
  5  4  2  0  0  0  0
  6  1  2  0  0  0  0
  6  5  1  0  0  0  0
  7  1  1  0  0  0  0
  9 12  1  6  0  0  0
  9 11  1  0  0  0  0
  9 10  1  0  0  0  0
 10 13  1  0  0  0  0
 10 14  1  0  0  0  0
 11 15  1  6  0  0  0
 11 10  1  0  0  0  0
 16 17  1  0  0  0  0
 16 11  1  0  0  0  0
 16 19  1  0  0  0  0
 18 16  1  0  0  0  0
 20 23  1  6  0  0  0
 20  5  1  0  0  0  0
 20 21  1  0  0  0  0
 21 24  1  0  0  0  0
 21 25  1  0  0  0  0
 22 26  1  6  0  0  0
 22 20  1  0  0  0  0
 22 21  1  0  0  0  0
 28 27  1  0  0  0  0
 29 22  1  0  0  0  0
 29 28  2  0  0  0  0
 30 29  1  0  0  0  0
 31 30  1  0  0  0  0
 32 30  2  0  0  0  0
 32 33  1  0  0  0  0
 33 35  2  0  0  0  0
 34 33  1  0  0  0  0
 35 28  1  0  0  0  0
 35 36  1  0  0  0  0
M  END
>  <minimizedAffinity>
-5.57738495

$$$$
