
 OpenBabel03252506023D

 29 31  0  0  0  0  0  0  0  0999 V2000
   45.0250   36.1400   43.6330 Cl  0  0  0  0  0  0  0  0  0  0  0  0
   45.6210   34.7480   44.4710 C   0  0  0  0  0  0  0  0  0  0  0  0
   46.6050   33.9820   43.9210 C   0  0  0  0  0  0  0  0  0  0  0  0
   47.0250   32.8830   44.6610 C   0  0  0  0  0  0  0  0  0  0  0  0
   46.5080   32.5360   45.8930 C   0  0  0  0  0  0  0  0  0  0  0  0
   45.5190   33.3300   46.4160 C   0  0  0  0  0  0  0  0  0  0  0  0
   44.9110   32.8300   47.9830 Cl  0  0  0  0  0  0  0  0  0  0  0  0
   45.0820   34.4220   45.7120 C   0  0  0  0  0  0  0  0  0  0  0  0
   47.8190   32.2930   44.1820 H   0  0  0  0  0  0  0  0  0  0  0  0
   44.3020   35.0110   46.1700 H   0  0  0  0  0  0  0  0  0  0  0  0
   45.3160   30.1100   44.7520 Cl  0  0  0  0  0  0  0  0  0  0  0  0
   46.5650   30.1680   45.9830 C   0  0  0  0  0  0  0  0  0  0  0  0
   47.1040   31.3290   46.4990 C   0  0  0  0  0  0  0  0  0  0  0  0
   48.0860   31.2830   47.4670 C   0  0  0  0  0  0  0  0  0  0  0  0
   48.4370   32.2560   47.8000 H   0  0  0  0  0  0  0  0  0  0  0  0
   48.5130   30.0530   47.9060 C   0  0  0  0  0  0  0  0  0  0  0  0
   47.9860   28.8930   47.4020 C   0  0  0  0  0  0  0  0  0  0  0  0
   48.6240   27.3840   48.0540 Cl  0  0  0  0  0  0  0  0  0  0  0  0
   47.0020   28.9180   46.4320 C   0  0  0  0  0  0  0  0  0  0  0  0
   46.6140   27.9770   46.0620 H   0  0  0  0  0  0  0  0  0  0  0  0
   48.8990   35.3510   41.4140 C   0  0  0  0  0  0  0  0  0  0  0  0
   48.3690   34.8940   40.2080 C   0  0  0  0  0  0  0  0  0  0  0  0
   47.2060   34.1050   40.2540 C   0  0  0  0  0  0  0  0  0  0  0  0
   46.6590   33.8260   41.4710 N   0  0  0  0  0  0  0  0  0  0  0  0
   47.2030   34.2870   42.6150 C   0  0  0  0  0  0  0  0  0  0  0  0
   48.3210   35.0480   42.5860 N   0  0  0  0  0  0  0  0  0  0  0  0
   49.7930   35.9560   41.3410 H   0  0  0  0  0  0  0  0  0  0  0  0
   48.7500   35.0770   39.2250 H   0  0  0  0  0  0  0  0  0  0  0  0
   46.6690   33.6720   39.4240 H   0  0  0  0  0  0  0  0  0  0  0  0
  1  2  1  0  0  0  0
  2  8  1  0  0  0  0
  3  2  2  0  0  0  0
  3  4  1  0  0  0  0
  4  5  2  0  0  0  0
  5  6  1  0  0  0  0
  5 13  1  0  0  0  0
  6  7  1  0  0  0  0
  8 10  1  0  0  0  0
  8  6  2  0  0  0  0
  9  4  1  0  0  0  0
 11 12  1  0  0  0  0
 12 19  2  0  0  0  0
 12 13  1  0  0  0  0
 13 14  2  0  0  0  0
 14 15  1  0  0  0  0
 14 16  1  0  0  0  0
 17 16  2  0  0  0  0
 17 18  1  0  0  0  0
 19 17  1  0  0  0  0
 20 19  1  0  0  0  0
 21 26  1  0  0  0  0
 22 23  1  0  0  0  0
 22 21  2  0  0  0  0
 23 24  2  0  0  0  0
 24 25  1  0  0  0  0
 25  3  1  0  0  0  0
 26 25  2  0  0  0  0
 27 21  1  0  0  0  0
 28 22  1  0  0  0  0
 29 23  1  0  0  0  0
M  END
>  <minimizedAffinity>
-5.5774312

>  <minimizedRMSD>
0.791690588

$$$$
