
 OpenBabel03252509293D

 22 23  0  0  0  0  0  0  0  0999 V2000
   46.0240   32.4100   41.1250 C   0  0  0  0  0  0  0  0  0  0  0  0
   45.1310   31.7300   41.1790 H   0  0  0  0  0  0  0  0  0  0  0  0
   46.2110   32.6590   40.0600 H   0  0  0  0  0  0  0  0  0  0  0  0
   45.6230   29.4790   41.0810 Cl  0  0  0  0  0  0  0  0  0  0  0  0
   47.0770   30.2370   41.7270 C   0  0  0  0  0  0  0  0  0  0  0  0
   47.1440   31.6300   41.6900 C   0  0  0  0  0  0  0  0  0  0  0  0
   48.3000   32.2260   42.2040 C   0  0  0  0  0  0  0  0  0  0  0  0
   48.3700   33.3220   42.1840 H   0  0  0  0  0  0  0  0  0  0  0  0
   49.3490   31.4990   42.7330 C   0  0  0  0  0  3  0  0  0  0  0  0
   49.2630   30.1030   42.7610 C   0  0  0  0  0  0  0  0  0  0  0  0
   50.5760   29.1450   43.4260 Cl  0  0  0  0  0  0  0  0  0  0  0  0
   48.1220   29.4880   42.2540 C   0  0  0  0  0  0  0  0  0  0  0  0
   48.0480   28.3960   42.2740 H   0  0  0  0  0  0  0  0  0  0  0  0
   46.3730   35.8310   42.5220 C   0  0  0  0  0  0  0  0  0  0  0  0
   46.6790   34.6500   41.8230 C   0  0  0  0  0  0  0  0  0  0  0  0
   45.7080   33.6340   41.8480 C   0  0  0  0  0  0  0  0  0  0  0  0
   44.5520   33.8590   42.5360 N   0  0  0  0  0  0  0  0  0  0  0  0
   44.3110   35.0190   43.1910 C   0  0  0  0  0  0  0  0  0  0  0  0
   45.2290   36.0040   43.1790 N   0  0  0  0  0  0  0  0  0  0  0  0
   47.1470   36.6090   42.4870 H   0  0  0  0  0  0  0  0  0  0  0  0
   47.6070   34.5070   41.2890 H   0  0  0  0  0  0  0  0  0  0  0  0
   43.3550   35.0900   43.7070 H   0  0  0  0  0  0  0  0  0  0  0  0
  1  2  1  0  0  0  0
  1  6  1  0  0  0  0
  1 16  1  0  0  0  0
  3  1  1  0  0  0  0
  4  5  1  0  0  0  0
  5 12  1  0  0  0  0
  6  5  2  0  0  0  0
  6  7  1  0  0  0  0
  7  9  2  0  0  0  0
  8  7  1  0  0  0  0
  9 10  1  0  0  0  0
 10 11  1  0  0  0  0
 12 13  1  0  0  0  0
 12 10  2  0  0  0  0
 14 19  1  0  0  0  0
 15 16  1  0  0  0  0
 15 14  2  0  0  0  0
 16 17  2  0  0  0  0
 17 18  1  0  0  0  0
 18 22  1  0  0  0  0
 19 18  2  0  0  0  0
 20 14  1  0  0  0  0
 21 15  1  0  0  0  0
M  END
>  <minimizedAffinity>
-2.17435694

>  <minimizedRMSD>
4.94644499

$$$$
