
 OpenBabel03252503003D

 23 24  0  0  0  0  0  0  0  0999 V2000
   36.2180   29.5260   41.1840 C   0  0  0  0  0  0  0  0  0  0  0  0
   36.8300   29.8910   42.0330 H   0  0  0  0  0  0  0  0  0  0  0  0
   35.1400   29.6360   41.4080 H   0  0  0  0  0  0  0  0  0  0  0  0
   37.1850   28.2850   43.6800 Cl  0  0  0  0  0  0  0  0  0  0  0  0
   36.9690   27.4110   42.1590 C   0  0  0  0  0  0  0  0  0  0  0  0
   36.5070   28.0770   41.0300 C   0  0  0  0  0  0  0  0  0  0  0  0
   36.3690   27.3000   39.8780 C   0  0  0  0  0  0  0  0  0  0  0  0
   36.0080   27.8520   39.0200 H   0  0  0  0  0  0  0  0  0  0  0  0
   36.6840   25.9660   39.9130 C   0  0  0  0  0  3  0  0  0  0  0  0
   37.1400   25.3370   41.0520 C   0  0  0  0  0  0  0  0  0  0  0  0
   37.5290   23.6430   41.0570 Cl  0  0  0  0  0  0  0  0  0  0  0  0
   37.2900   26.0690   42.2100 C   0  0  0  0  0  0  0  0  0  0  0  0
   37.6420   25.5900   43.0940 H   0  0  0  0  0  0  0  0  0  0  0  0
   36.5390   30.4200   39.6500 S   0  0  0  0  0  0  0  0  0  0  0  0
   38.7530   31.6910   40.7500 C   0  0  0  0  0  0  0  0  0  0  0  0
   37.5650   31.8650   40.0190 C   0  0  0  0  0  0  0  0  0  0  0  0
   37.1630   33.1300   39.5730 C   0  0  0  0  0  0  0  0  0  0  0  0
   37.9940   34.1610   39.8960 N   0  0  0  0  0  0  0  0  0  0  0  0
   39.1120   33.9570   40.5910 C   0  0  0  0  0  0  0  0  0  0  0  0
   39.5190   32.7720   41.0250 N   0  0  0  0  0  0  0  0  0  0  0  0
   38.9940   30.6780   41.0580 H   0  0  0  0  0  0  0  0  0  0  0  0
   36.2390   33.1950   39.0160 H   0  0  0  0  0  0  0  0  0  0  0  0
   39.7490   34.8240   40.8240 H   0  0  0  0  0  0  0  0  0  0  0  0
  1  3  1  0  0  0  0
  1  2  1  0  0  0  0
  5 12  1  0  0  0  0
  5  4  1  0  0  0  0
  6  1  1  0  0  0  0
  6  5  2  0  0  0  0
  7  9  2  0  0  0  0
  7  6  1  0  0  0  0
  8  7  1  0  0  0  0
  9 10  1  0  0  0  0
 10 11  1  0  0  0  0
 10 12  2  0  0  0  0
 12 13  1  0  0  0  0
 14 16  1  0  0  0  0
 14  1  1  0  0  0  0
 15 20  1  0  0  0  0
 15 21  1  0  0  0  0
 16 15  2  0  0  0  0
 17 18  2  0  0  0  0
 17 16  1  0  0  0  0
 18 19  1  0  0  0  0
 19 23  1  0  0  0  0
 19 20  2  0  0  0  0
 22 17  1  0  0  0  0
M  END
>  <minimizedAffinity>
-4.58356714

$$$$

 OpenBabel03252503003D

 23 24  0  0  0  0  0  0  0  0999 V2000
   39.3180   30.2060   42.9310 C   0  0  0  0  0  0  0  0  0  0  0  0
   40.0730   30.0330   43.7250 H   0  0  0  0  0  0  0  0  0  0  0  0
   38.5910   30.9770   43.2500 H   0  0  0  0  0  0  0  0  0  0  0  0
   40.9970   27.8360   43.4480 Cl  0  0  0  0  0  0  0  0  0  0  0  0
   39.2970   27.7600   42.9690 C   0  0  0  0  0  0  0  0  0  0  0  0
   38.5820   28.9300   42.7460 C   0  0  0  0  0  0  0  0  0  0  0  0
   37.2470   28.7660   42.3720 C   0  0  0  0  0  0  0  0  0  0  0  0
   36.7220   29.6980   42.2060 H   0  0  0  0  0  0  0  0  0  0  0  0
   36.7230   27.5050   42.2460 C   0  0  0  0  0  3  0  0  0  0  0  0
   37.4630   26.3640   42.4750 C   0  0  0  0  0  0  0  0  0  0  0  0
   36.7640   24.7820   42.3060 Cl  0  0  0  0  0  0  0  0  0  0  0  0
   38.7850   26.4840   42.8470 C   0  0  0  0  0  0  0  0  0  0  0  0
   39.3640   25.6070   43.0260 H   0  0  0  0  0  0  0  0  0  0  0  0
   40.0470   30.7700   41.3790 S   0  0  0  0  0  0  0  0  0  0  0  0
   37.8370   31.4880   39.8520 C   0  0  0  0  0  0  0  0  0  0  0  0
   38.9270   31.9620   40.6060 C   0  0  0  0  0  0  0  0  0  0  0  0
   39.1580   33.3340   40.7670 C   0  0  0  0  0  0  0  0  0  0  0  0
   38.2660   34.1590   40.1500 N   0  0  0  0  0  0  0  0  0  0  0  0
   37.2460   33.6740   39.4450 C   0  0  0  0  0  0  0  0  0  0  0  0
   37.0010   32.3820   39.2750 N   0  0  0  0  0  0  0  0  0  0  0  0
   37.7280   30.4110   39.7760 H   0  0  0  0  0  0  0  0  0  0  0  0
   40.0120   33.6310   41.3580 H   0  0  0  0  0  0  0  0  0  0  0  0
   36.5550   34.3840   38.9680 H   0  0  0  0  0  0  0  0  0  0  0  0
  1  3  1  0  0  0  0
  1  2  1  0  0  0  0
  5  4  1  0  0  0  0
  6  1  1  0  0  0  0
  6  5  2  0  0  0  0
  7  6  1  0  0  0  0
  8  7  1  0  0  0  0
  9  7  2  0  0  0  0
  9 10  1  0  0  0  0
 10 12  2  0  0  0  0
 11 10  1  0  0  0  0
 12  5  1  0  0  0  0
 12 13  1  0  0  0  0
 14  1  1  0  0  0  0
 15 16  1  0  0  0  0
 16 17  2  0  0  0  0
 16 14  1  0  0  0  0
 17 22  1  0  0  0  0
 18 17  1  0  0  0  0
 19 18  2  0  0  0  0
 20 19  1  0  0  0  0
 20 15  2  0  0  0  0
 21 15  1  0  0  0  0
 23 19  1  0  0  0  0
M  END
>  <minimizedAffinity>
-4.56591988

$$$$

 OpenBabel03252503003D

 23 24  0  0  0  0  0  0  0  0999 V2000
   38.2610   29.5740   42.9680 C   0  0  0  0  0  0  0  0  0  0  0  0
   38.3830   29.7420   44.0570 H   0  0  0  0  0  0  0  0  0  0  0  0
   37.2670   29.9260   42.6310 H   0  0  0  0  0  0  0  0  0  0  0  0
   35.9610   28.5500   41.4290 Cl  0  0  0  0  0  0  0  0  0  0  0  0
   37.2820   27.5390   42.0270 C   0  0  0  0  0  0  0  0  0  0  0  0
   38.3270   28.1080   42.7440 C   0  0  0  0  0  0  0  0  0  0  0  0
   39.3230   27.2270   43.1720 C   0  0  0  0  0  0  0  0  0  0  0  0
   40.1190   27.7050   43.7270 H   0  0  0  0  0  0  0  0  0  0  0  0
   39.2260   25.8920   42.8760 C   0  0  0  0  0  3  0  0  0  0  0  0
   38.1730   25.3600   42.1610 C   0  0  0  0  0  0  0  0  0  0  0  0
   38.0860   23.6620   41.8050 Cl  0  0  0  0  0  0  0  0  0  0  0  0
   37.1710   26.1970   41.7200 C   0  0  0  0  0  0  0  0  0  0  0  0
   36.3540   25.7940   41.1670 H   0  0  0  0  0  0  0  0  0  0  0  0
   39.4980   30.4410   41.9810 S   0  0  0  0  0  0  0  0  0  0  0  0
   37.5640   31.3790   40.2160 C   0  0  0  0  0  0  0  0  0  0  0  0
   38.6740   31.7250   41.0080 C   0  0  0  0  0  0  0  0  0  0  0  0
   39.1510   33.0420   41.0550 C   0  0  0  0  0  0  0  0  0  0  0  0
   38.4720   33.9430   40.2910 N   0  0  0  0  0  0  0  0  0  0  0  0
   37.4240   33.5770   39.5550 C   0  0  0  0  0  0  0  0  0  0  0  0
   36.9500   32.3410   39.4900 N   0  0  0  0  0  0  0  0  0  0  0  0
   37.2570   30.3380   40.2360 H   0  0  0  0  0  0  0  0  0  0  0  0
   40.0080   33.2410   41.6830 H   0  0  0  0  0  0  0  0  0  0  0  0
   36.9110   34.3450   38.9570 H   0  0  0  0  0  0  0  0  0  0  0  0
  1  2  1  0  0  0  0
  3  1  1  0  0  0  0
  4  5  1  0  0  0  0
  5  6  1  0  0  0  0
  6  1  1  0  0  0  0
  6  7  2  0  0  0  0
  7  8  1  0  0  0  0
  9  7  1  0  0  0  0
 10  9  2  0  0  0  0
 11 10  1  0  0  0  0
 12  5  2  0  0  0  0
 12 10  1  0  0  0  0
 13 12  1  0  0  0  0
 14  1  1  0  0  0  0
 15 21  1  0  0  0  0
 15 16  1  0  0  0  0
 16 17  2  0  0  0  0
 16 14  1  0  0  0  0
 17 22  1  0  0  0  0
 18 17  1  0  0  0  0
 19 18  2  0  0  0  0
 20 19  1  0  0  0  0
 20 15  2  0  0  0  0
 23 19  1  0  0  0  0
M  END
>  <minimizedAffinity>
-4.52628517

$$$$

 OpenBabel03252503003D

 23 24  0  0  0  0  0  0  0  0999 V2000
   36.8230   30.0350   41.5710 C   0  0  0  0  0  0  0  0  0  0  0  0
   37.1450   30.8310   42.2730 H   0  0  0  0  0  0  0  0  0  0  0  0
   35.7250   29.9020   41.6140 H   0  0  0  0  0  0  0  0  0  0  0  0
   39.4340   30.4730   42.8740 Cl  0  0  0  0  0  0  0  0  0  0  0  0
   38.6910   28.8850   42.6530 C   0  0  0  0  0  0  0  0  0  0  0  0
   37.4560   28.7720   42.0270 C   0  0  0  0  0  0  0  0  0  0  0  0
   36.9530   27.4750   41.9000 C   0  0  0  0  0  0  0  0  0  0  0  0
   35.9910   27.4270   41.4080 H   0  0  0  0  0  0  0  0  0  0  0  0
   37.6750   26.4130   42.3810 C   0  0  0  0  0  3  0  0  0  0  0  0
   38.9000   26.5620   42.9970 C   0  0  0  0  0  0  0  0  0  0  0  0
   39.7850   25.1910   43.5950 Cl  0  0  0  0  0  0  0  0  0  0  0  0
   39.4300   27.8250   43.1420 C   0  0  0  0  0  0  0  0  0  0  0  0
   40.3760   27.9490   43.6180 H   0  0  0  0  0  0  0  0  0  0  0  0
   37.2500   30.3960   39.8550 S   0  0  0  0  0  0  0  0  0  0  0  0
   39.6600   31.7200   39.4410 C   0  0  0  0  0  0  0  0  0  0  0  0
   38.3110   31.8620   39.8130 C   0  0  0  0  0  0  0  0  0  0  0  0
   37.7770   33.1120   40.1490 C   0  0  0  0  0  0  0  0  0  0  0  0
   38.6460   34.1610   40.0910 N   0  0  0  0  0  0  0  0  0  0  0  0
   39.9170   33.9870   39.7340 C   0  0  0  0  0  0  0  0  0  0  0  0
   40.4510   32.8170   39.4100 N   0  0  0  0  0  0  0  0  0  0  0  0
   39.9950   30.7180   39.1940 H   0  0  0  0  0  0  0  0  0  0  0  0
   36.7320   33.1530   40.4250 H   0  0  0  0  0  0  0  0  0  0  0  0
   40.5760   34.8670   39.7020 H   0  0  0  0  0  0  0  0  0  0  0  0
  1  3  1  0  0  0  0
  1  6  1  0  0  0  0
  1  2  1  0  0  0  0
  5  4  1  0  0  0  0
  5 12  1  0  0  0  0
  6  5  2  0  0  0  0
  7  6  1  0  0  0  0
  7  9  2  0  0  0  0
  8  7  1  0  0  0  0
  9 10  1  0  0  0  0
 10 12  2  0  0  0  0
 10 11  1  0  0  0  0
 12 13  1  0  0  0  0
 14  1  1  0  0  0  0
 15 16  1  0  0  0  0
 16 14  1  0  0  0  0
 16 17  2  0  0  0  0
 17 22  1  0  0  0  0
 18 17  1  0  0  0  0
 19 18  2  0  0  0  0
 20 15  2  0  0  0  0
 20 19  1  0  0  0  0
 21 15  1  0  0  0  0
 23 19  1  0  0  0  0
M  END
>  <minimizedAffinity>
-4.41908216

$$$$

 OpenBabel03252503003D

 23 24  0  0  0  0  0  0  0  0999 V2000
   35.4800   29.2520   40.6200 C   0  0  0  0  0  0  0  0  0  0  0  0
   34.4650   29.2190   41.0660 H   0  0  0  0  0  0  0  0  0  0  0  0
   35.4220   29.1670   39.5180 H   0  0  0  0  0  0  0  0  0  0  0  0
   36.1290   27.3050   38.5010 Cl  0  0  0  0  0  0  0  0  0  0  0  0
   36.5640   27.0990   40.2020 C   0  0  0  0  0  0  0  0  0  0  0  0
   36.2170   28.0690   41.1330 C   0  0  0  0  0  0  0  0  0  0  0  0
   36.6060   27.8170   42.4510 C   0  0  0  0  0  0  0  0  0  0  0  0
   36.3190   28.5930   43.1470 H   0  0  0  0  0  0  0  0  0  0  0  0
   37.2870   26.6650   42.7520 C   0  0  0  0  0  3  0  0  0  0  0  0
   37.6150   25.7220   41.8010 C   0  0  0  0  0  0  0  0  0  0  0  0
   38.4790   24.2740   42.2220 Cl  0  0  0  0  0  0  0  0  0  0  0  0
   37.2490   25.9350   40.4900 C   0  0  0  0  0  0  0  0  0  0  0  0
   37.4990   25.2110   39.7480 H   0  0  0  0  0  0  0  0  0  0  0  0
   36.3620   30.7820   40.9920 S   0  0  0  0  0  0  0  0  0  0  0  0
   38.7580   31.6830   39.9080 C   0  0  0  0  0  0  0  0  0  0  0  0
   37.4850   31.1570   39.6240 C   0  0  0  0  0  0  0  0  0  0  0  0
   37.0730   30.9210   38.3060 C   0  0  0  0  0  0  0  0  0  0  0  0
   37.9810   31.2320   37.3390 N   0  0  0  0  0  0  0  0  0  0  0  0
   39.1780   31.7280   37.6470 C   0  0  0  0  0  0  0  0  0  0  0  0
   39.5960   31.9630   38.8830 N   0  0  0  0  0  0  0  0  0  0  0  0
   39.0010   31.8360   40.9540 H   0  0  0  0  0  0  0  0  0  0  0  0
   36.0820   30.5150   38.1570 H   0  0  0  0  0  0  0  0  0  0  0  0
   39.8740   31.9620   36.8270 H   0  0  0  0  0  0  0  0  0  0  0  0
  1 14  1  0  0  0  0
  1  2  1  0  0  0  0
  1  6  1  0  0  0  0
  3  1  1  0  0  0  0
  4  5  1  0  0  0  0
  5 12  2  0  0  0  0
  5  6  1  0  0  0  0
  6  7  2  0  0  0  0
  7  9  1  0  0  0  0
  7  8  1  0  0  0  0
 10 11  1  0  0  0  0
 10  9  2  0  0  0  0
 12 10  1  0  0  0  0
 13 12  1  0  0  0  0
 15 21  1  0  0  0  0
 16 15  1  0  0  0  0
 16 14  1  0  0  0  0
 17 16  2  0  0  0  0
 18 19  2  0  0  0  0
 18 17  1  0  0  0  0
 19 20  1  0  0  0  0
 20 15  2  0  0  0  0
 22 17  1  0  0  0  0
 23 19  1  0  0  0  0
M  END
>  <minimizedAffinity>
-4.33493519

$$$$

 OpenBabel03252503003D

 23 24  0  0  0  0  0  0  0  0999 V2000
   38.8380   27.2640   43.1050 C   0  0  0  0  0  0  0  0  0  0  0  0
   39.6720   27.6930   42.5130 H   0  0  0  0  0  0  0  0  0  0  0  0
   39.1880   26.9750   44.1140 H   0  0  0  0  0  0  0  0  0  0  0  0
   41.0790   25.7710   41.8990 Cl  0  0  0  0  0  0  0  0  0  0  0  0
   39.3880   25.2660   41.8040 C   0  0  0  0  0  0  0  0  0  0  0  0
   38.3960   26.0320   42.4030 C   0  0  0  0  0  0  0  0  0  0  0  0
   37.0920   25.5500   42.2730 C   0  0  0  0  0  0  0  0  0  0  0  0
   36.3470   26.1730   42.7510 H   0  0  0  0  0  0  0  0  0  0  0  0
   36.8600   24.3860   41.5860 C   0  0  0  0  0  3  0  0  0  0  0  0
   37.8690   23.6500   41.0030 C   0  0  0  0  0  0  0  0  0  0  0  0
   37.5350   22.1790   40.1410 Cl  0  0  0  0  0  0  0  0  0  0  0  0
   39.1700   24.0920   41.1100 C   0  0  0  0  0  0  0  0  0  0  0  0
   39.9570   23.5290   40.6620 H   0  0  0  0  0  0  0  0  0  0  0  0
   37.4670   28.4170   43.3240 S   0  0  0  0  0  0  0  0  0  0  0  0
   36.5680   30.2550   41.4420 C   0  0  0  0  0  0  0  0  0  0  0  0
   37.6780   29.8010   42.1770 C   0  0  0  0  0  0  0  0  0  0  0  0
   38.9370   30.3980   42.0380 C   0  0  0  0  0  0  0  0  0  0  0  0
   39.0050   31.4320   41.1530 N   0  0  0  0  0  0  0  0  0  0  0  0
   37.9320   31.8350   40.4740 C   0  0  0  0  0  0  0  0  0  0  0  0
   36.7280   31.2900   40.5850 N   0  0  0  0  0  0  0  0  0  0  0  0
   35.6280   29.7390   41.6080 H   0  0  0  0  0  0  0  0  0  0  0  0
   39.7480   30.0020   42.6320 H   0  0  0  0  0  0  0  0  0  0  0  0
   38.0410   32.6750   39.7720 H   0  0  0  0  0  0  0  0  0  0  0  0
  1 14  1  0  0  0  0
  1  3  1  0  0  0  0
  2  1  1  0  0  0  0
  5  4  1  0  0  0  0
  5  6  1  0  0  0  0
  6  1  1  0  0  0  0
  7  6  2  0  0  0  0
  7  8  1  0  0  0  0
  9  7  1  0  0  0  0
 10 12  1  0  0  0  0
 10  9  2  0  0  0  0
 11 10  1  0  0  0  0
 12  5  2  0  0  0  0
 13 12  1  0  0  0  0
 15 21  1  0  0  0  0
 15 16  1  0  0  0  0
 16 14  1  0  0  0  0
 17 16  2  0  0  0  0
 17 22  1  0  0  0  0
 18 17  1  0  0  0  0
 19 20  1  0  0  0  0
 19 18  2  0  0  0  0
 20 15  2  0  0  0  0
 23 19  1  0  0  0  0
M  END
>  <minimizedAffinity>
-4.33050632

$$$$

 OpenBabel03252503003D

 23 24  0  0  0  0  0  0  0  0999 V2000
   37.4100   29.8190   41.9630 C   0  0  0  0  0  0  0  0  0  0  0  0
   36.8330   30.1000   42.8680 H   0  0  0  0  0  0  0  0  0  0  0  0
   36.9910   30.3170   41.0680 H   0  0  0  0  0  0  0  0  0  0  0  0
   37.0090   29.0440   39.1450 Cl  0  0  0  0  0  0  0  0  0  0  0  0
   37.0610   27.8980   40.4890 C   0  0  0  0  0  0  0  0  0  0  0  0
   37.2540   28.3530   41.7870 C   0  0  0  0  0  0  0  0  0  0  0  0
   37.2810   27.3710   42.7800 C   0  0  0  0  0  0  0  0  0  0  0  0
   37.4330   27.7620   43.7770 H   0  0  0  0  0  0  0  0  0  0  0  0
   37.1200   26.0520   42.4390 C   0  0  0  0  0  3  0  0  0  0  0  0
   36.9280   25.6360   41.1380 C   0  0  0  0  0  0  0  0  0  0  0  0
   36.7280   23.9540   40.7460 Cl  0  0  0  0  0  0  0  0  0  0  0  0
   36.8970   26.5750   40.1300 C   0  0  0  0  0  0  0  0  0  0  0  0
   36.7500   26.2610   39.1220 H   0  0  0  0  0  0  0  0  0  0  0  0
   39.1510   30.2820   42.0680 S   0  0  0  0  0  0  0  0  0  0  0  0
   40.7010   32.3280   40.9980 C   0  0  0  0  0  0  0  0  0  0  0  0
   39.3940   31.8460   41.1890 C   0  0  0  0  0  0  0  0  0  0  0  0
   38.2820   32.5520   40.7140 C   0  0  0  0  0  0  0  0  0  0  0  0
   38.5560   33.7190   40.0660 N   0  0  0  0  0  0  0  0  0  0  0  0
   39.8080   34.1430   39.9040 C   0  0  0  0  0  0  0  0  0  0  0  0
   40.8810   33.4970   40.3410 N   0  0  0  0  0  0  0  0  0  0  0  0
   41.5080   31.7200   41.3950 H   0  0  0  0  0  0  0  0  0  0  0  0
   37.3040   32.1270   40.8940 H   0  0  0  0  0  0  0  0  0  0  0  0
   39.9750   35.0920   39.3720 H   0  0  0  0  0  0  0  0  0  0  0  0
  1 14  1  0  0  0  0
  1  2  1  0  0  0  0
  3  1  1  0  0  0  0
  4  5  1  0  0  0  0
  5  6  1  0  0  0  0
  6  1  1  0  0  0  0
  6  7  2  0  0  0  0
  7  8  1  0  0  0  0
  9  7  1  0  0  0  0
 10  9  2  0  0  0  0
 11 10  1  0  0  0  0
 12  5  2  0  0  0  0
 12 10  1  0  0  0  0
 13 12  1  0  0  0  0
 15 16  1  0  0  0  0
 15 21  1  0  0  0  0
 16 14  1  0  0  0  0
 17 22  1  0  0  0  0
 17 16  2  0  0  0  0
 18 17  1  0  0  0  0
 19 18  2  0  0  0  0
 19 20  1  0  0  0  0
 20 15  2  0  0  0  0
 23 19  1  0  0  0  0
M  END
>  <minimizedAffinity>
-4.19474745

$$$$

 OpenBabel03252503003D

 23 24  0  0  0  0  0  0  0  0999 V2000
   39.1590   27.2310   41.8140 C   0  0  0  0  0  0  0  0  0  0  0  0
   39.5890   27.6740   40.8930 H   0  0  0  0  0  0  0  0  0  0  0  0
   39.9480   26.7270   42.4050 H   0  0  0  0  0  0  0  0  0  0  0  0
   38.2080   27.6430   39.0520 Cl  0  0  0  0  0  0  0  0  0  0  0  0
   37.6780   26.3180   40.0940 C   0  0  0  0  0  0  0  0  0  0  0  0
   38.1800   26.2000   41.3840 C   0  0  0  0  0  0  0  0  0  0  0  0
   37.7020   25.1200   42.1280 C   0  0  0  0  0  0  0  0  0  0  0  0
   38.1140   25.0610   43.1270 H   0  0  0  0  0  0  0  0  0  0  0  0
   36.7920   24.2570   41.5720 C   0  0  0  0  0  3  0  0  0  0  0  0
   36.3140   24.4040   40.2870 C   0  0  0  0  0  0  0  0  0  0  0  0
   35.1620   23.2900   39.6160 Cl  0  0  0  0  0  0  0  0  0  0  0  0
   36.7630   25.4580   39.5200 C   0  0  0  0  0  0  0  0  0  0  0  0
   36.3990   25.5780   38.5250 H   0  0  0  0  0  0  0  0  0  0  0  0
   38.3860   28.4560   42.8900 S   0  0  0  0  0  0  0  0  0  0  0  0
   38.9300   30.8470   41.5790 C   0  0  0  0  0  0  0  0  0  0  0  0
   37.9380   29.9030   41.9000 C   0  0  0  0  0  0  0  0  0  0  0  0
   36.6150   30.0630   41.4690 C   0  0  0  0  0  0  0  0  0  0  0  0
   36.3660   31.1810   40.7300 N   0  0  0  0  0  0  0  0  0  0  0  0
   37.3320   32.0530   40.4460 C   0  0  0  0  0  0  0  0  0  0  0  0
   38.5920   31.9280   40.8380 N   0  0  0  0  0  0  0  0  0  0  0  0
   39.9300   30.6490   41.9500 H   0  0  0  0  0  0  0  0  0  0  0  0
   35.9010   29.3020   41.7500 H   0  0  0  0  0  0  0  0  0  0  0  0
   37.0770   32.9380   39.8440 H   0  0  0  0  0  0  0  0  0  0  0  0
  1  3  1  0  0  0  0
  1 14  1  0  0  0  0
  2  1  1  0  0  0  0
  4  5  1  0  0  0  0
  5  6  1  0  0  0  0
  6  1  1  0  0  0  0
  6  7  2  0  0  0  0
  7  8  1  0  0  0  0
  9  7  1  0  0  0  0
 10  9  2  0  0  0  0
 11 10  1  0  0  0  0
 12  5  2  0  0  0  0
 12 10  1  0  0  0  0
 13 12  1  0  0  0  0
 15 16  1  0  0  0  0
 15 21  1  0  0  0  0
 16 14  1  0  0  0  0
 17 22  1  0  0  0  0
 17 16  2  0  0  0  0
 18 17  1  0  0  0  0
 19 18  2  0  0  0  0
 19 20  1  0  0  0  0
 20 15  2  0  0  0  0
 23 19  1  0  0  0  0
M  END
>  <minimizedAffinity>
-4.09843349

$$$$

 OpenBabel03252503003D

 23 24  0  0  0  0  0  0  0  0999 V2000
   36.4790   28.0530   38.0930 C   0  0  0  0  0  0  0  0  0  0  0  0
   36.1500   27.9750   37.0370 H   0  0  0  0  0  0  0  0  0  0  0  0
   35.6710   27.7260   38.7750 H   0  0  0  0  0  0  0  0  0  0  0  0
   35.6270   28.8950   40.7890 Cl  0  0  0  0  0  0  0  0  0  0  0  0
   36.3780   29.9720   39.6070 C   0  0  0  0  0  0  0  0  0  0  0  0
   36.7480   29.4900   38.3580 C   0  0  0  0  0  0  0  0  0  0  0  0
   37.3340   30.4180   37.4950 C   0  0  0  0  0  0  0  0  0  0  0  0
   37.6080   30.0060   36.5330 H   0  0  0  0  0  0  0  0  0  0  0  0
   37.5090   31.7150   37.9050 C   0  0  0  0  0  3  0  0  0  0  0  0
   37.1290   32.1600   39.1530 C   0  0  0  0  0  0  0  0  0  0  0  0
   37.3680   33.8130   39.6360 Cl  0  0  0  0  0  0  0  0  0  0  0  0
   36.5480   31.2750   40.0340 C   0  0  0  0  0  0  0  0  0  0  0  0
   36.2510   31.6110   41.0010 H   0  0  0  0  0  0  0  0  0  0  0  0
   37.9280   27.0410   38.4550 S   0  0  0  0  0  0  0  0  0  0  0  0
   38.2840   26.2130   41.0860 C   0  0  0  0  0  0  0  0  0  0  0  0
   37.5700   26.0010   39.8920 C   0  0  0  0  0  0  0  0  0  0  0  0
   36.5930   25.0030   39.7970 C   0  0  0  0  0  0  0  0  0  0  0  0
   36.3890   24.2670   40.9260 N   0  0  0  0  0  0  0  0  0  0  0  0
   37.0840   24.4980   42.0380 C   0  0  0  0  0  0  0  0  0  0  0  0
   38.0150   25.4350   42.1590 N   0  0  0  0  0  0  0  0  0  0  0  0
   39.0240   27.0070   41.0770 H   0  0  0  0  0  0  0  0  0  0  0  0
   36.0810   24.8910   38.8520 H   0  0  0  0  0  0  0  0  0  0  0  0
   36.8800   23.8750   42.9220 H   0  0  0  0  0  0  0  0  0  0  0  0
  1  6  1  0  0  0  0
  1 14  1  0  0  0  0
  1  3  1  0  0  0  0
  2  1  1  0  0  0  0
  5 12  1  0  0  0  0
  5  4  1  0  0  0  0
  6  5  2  0  0  0  0
  7  9  2  0  0  0  0
  7  6  1  0  0  0  0
  8  7  1  0  0  0  0
  9 10  1  0  0  0  0
 10 11  1  0  0  0  0
 10 12  2  0  0  0  0
 12 13  1  0  0  0  0
 14 16  1  0  0  0  0
 15 20  1  0  0  0  0
 16 15  2  0  0  0  0
 17 16  1  0  0  0  0
 17 18  2  0  0  0  0
 18 19  1  0  0  0  0
 19 20  2  0  0  0  0
 19 23  1  0  0  0  0
 21 15  1  0  0  0  0
 22 17  1  0  0  0  0
M  END
>  <minimizedAffinity>
-4.07206726

$$$$
