
 OpenBabel03252506523D

 32 35  0  0  0  0  0  0  0  0999 V2000
   47.1780   31.3650   45.1300 C   0  0  0  0  0  0  0  0  0  0  0  0
   46.8490   32.7060   45.1320 C   0  0  0  0  0  0  0  0  0  0  0  0
   46.2620   33.3440   46.2180 C   0  0  0  0  0  0  0  0  0  0  0  0
   45.9900   32.5850   47.3660 C   0  0  0  0  0  0  0  0  0  0  0  0
   45.4370   32.8570   48.5860 N   0  0  0  0  0  0  0  0  0  0  0  0
   45.4310   31.7060   49.3100 C   0  0  0  0  0  0  0  0  0  0  0  0
   45.9730   30.7490   48.5340 N   0  0  0  0  0  0  0  0  0  0  0  0
   46.3250   31.2540   47.3380 C   0  0  0  0  0  0  0  0  0  0  0  0
   46.9040   30.6180   46.2730 C   0  0  0  0  0  0  0  0  0  0  0  0
   47.6370   30.9250   44.2450 H   0  0  0  0  0  0  0  0  0  0  0  0
   46.0090   34.3790   46.2190 H   0  0  0  0  0  0  0  0  0  0  0  0
   45.0940   33.8030   48.8690 H   0  0  0  0  0  0  0  0  0  0  0  0
   45.0400   31.6950   50.2990 H   0  0  0  0  0  0  0  0  0  0  0  0
   44.7190   28.6840   45.5730 Cl  0  0  0  0  0  0  0  0  0  0  0  0
   46.3680   28.1730   45.9370 C   0  0  0  0  0  0  0  0  0  0  0  0
   47.2620   29.2020   46.2430 C   0  0  0  0  0  0  0  0  0  0  0  0
   48.5650   28.8190   46.5320 C   0  0  0  0  0  0  0  0  0  0  0  0
   49.2860   29.5940   46.7740 H   0  0  0  0  0  0  0  0  0  0  0  0
   49.0120   27.5100   46.5330 C   0  0  0  0  0  3  0  0  0  0  0  0
   48.0960   26.5460   46.2270 C   0  0  0  0  0  0  0  0  0  0  0  0
   48.5860   24.8740   46.2080 Cl  0  0  0  0  0  0  0  0  0  0  0  0
   46.7990   26.8640   45.9330 C   0  0  0  0  0  0  0  0  0  0  0  0
   46.0390   26.1260   45.6850 H   0  0  0  0  0  0  0  0  0  0  0  0
   46.4930   35.1960   42.4410 C   0  0  0  0  0  0  0  0  0  0  0  0
   47.6930   35.0160   41.7180 C   0  0  0  0  0  0  0  0  0  0  0  0
   48.6170   34.0400   42.1600 C   0  0  0  0  0  0  0  0  0  0  0  0
   48.2800   33.3240   43.2760 N   0  0  0  0  0  0  0  0  0  0  0  0
   47.1230   33.5190   43.9480 C   0  0  0  0  0  0  0  0  0  0  0  0
   46.2580   34.4400   43.5270 N   0  0  0  0  0  0  0  0  0  0  0  0
   45.8290   35.9500   42.0600 H   0  0  0  0  0  0  0  0  0  0  0  0
   47.9850   35.5660   40.8330 H   0  0  0  0  0  0  0  0  0  0  0  0
   49.5460   33.8320   41.6810 H   0  0  0  0  0  0  0  0  0  0  0  0
  1  2  2  0  0  0  0
  1  9  1  0  0  0  0
  2  3  1  0  0  0  0
  3 11  1  0  0  0  0
  3  4  2  0  0  0  0
  4  5  1  0  0  0  0
  5 12  1  0  0  0  0
  5  6  1  0  0  0  0
  6 13  1  0  0  0  0
  7  6  2  0  0  0  0
  8  4  1  0  0  0  0
  8  7  1  0  0  0  0
  9  8  2  0  0  0  0
 10  1  1  0  0  0  0
 14 15  1  0  0  0  0
 15 16  1  0  0  0  0
 16  9  1  0  0  0  0
 16 17  2  0  0  0  0
 17 19  1  0  0  0  0
 17 18  1  0  0  0  0
 20 19  2  0  0  0  0
 21 20  1  0  0  0  0
 22 15  2  0  0  0  0
 22 20  1  0  0  0  0
 23 22  1  0  0  0  0
 24 29  1  0  0  0  0
 25 26  1  0  0  0  0
 25 24  2  0  0  0  0
 26 27  2  0  0  0  0
 27 28  1  0  0  0  0
 28  2  1  0  0  0  0
 29 28  2  0  0  0  0
 30 24  1  0  0  0  0
 31 25  1  0  0  0  0
 32 26  1  0  0  0  0
M  END
>  <minimizedAffinity>
-5.39201689

>  <minimizedRMSD>
0.840859532

$$$$
