
 OpenBabel03252509293D

 22 23  0  0  0  0  0  0  0  0999 V2000
   46.7460   34.6440   41.9050 C   0  0  0  0  0  0  0  0  0  0  0  0
   46.0520   34.1390   41.1800 H   0  0  0  0  0  0  0  0  0  0  0  0
   47.0320   35.6320   41.4870 H   0  0  0  0  0  0  0  0  0  0  0  0
   49.3530   36.0440   41.8790 Cl  0  0  0  0  0  0  0  0  0  0  0  0
   49.2090   34.2920   42.0050 C   0  0  0  0  0  0  0  0  0  0  0  0
   47.9210   33.7540   42.0060 C   0  0  0  0  0  0  0  0  0  0  0  0
   47.8110   32.3630   42.1050 C   0  0  0  0  0  0  0  0  0  0  0  0
   46.8060   31.9220   42.1080 H   0  0  0  0  0  0  0  0  0  0  0  0
   48.9080   31.5280   42.2000 C   0  0  0  0  0  3  0  0  0  0  0  0
   50.1910   32.0860   42.1970 C   0  0  0  0  0  0  0  0  0  0  0  0
   51.6090   31.0570   42.3150 Cl  0  0  0  0  0  0  0  0  0  0  0  0
   50.3230   33.4690   42.0980 C   0  0  0  0  0  0  0  0  0  0  0  0
   51.3250   33.9120   42.0950 H   0  0  0  0  0  0  0  0  0  0  0  0
   44.5430   36.2040   44.4530 C   0  0  0  0  0  0  0  0  0  0  0  0
   45.2350   36.0070   43.2450 C   0  0  0  0  0  0  0  0  0  0  0  0
   46.0290   34.8500   43.1550 C   0  0  0  0  0  0  0  0  0  0  0  0
   46.0740   34.0100   44.2290 N   0  0  0  0  0  0  0  0  0  0  0  0
   45.3840   34.2510   45.3680 C   0  0  0  0  0  0  0  0  0  0  0  0
   44.6180   35.3540   45.4740 N   0  0  0  0  0  0  0  0  0  0  0  0
   43.9310   37.1140   44.4980 H   0  0  0  0  0  0  0  0  0  0  0  0
   45.1760   36.6950   42.4150 H   0  0  0  0  0  0  0  0  0  0  0  0
   45.4930   33.5130   46.1620 H   0  0  0  0  0  0  0  0  0  0  0  0
  1  6  1  0  0  0  0
  1 16  1  0  0  0  0
  2  1  1  0  0  0  0
  3  1  1  0  0  0  0
  4  5  1  0  0  0  0
  5  6  2  0  0  0  0
  5 12  1  0  0  0  0
  6  7  1  0  0  0  0
  7  8  1  0  0  0  0
  7  9  2  0  0  0  0
 10  9  1  0  0  0  0
 10 11  1  0  0  0  0
 12 10  2  0  0  0  0
 13 12  1  0  0  0  0
 14 20  1  0  0  0  0
 14 19  1  0  0  0  0
 15 14  2  0  0  0  0
 16 15  1  0  0  0  0
 16 17  2  0  0  0  0
 17 18  1  0  0  0  0
 18 19  2  0  0  0  0
 18 22  1  0  0  0  0
 21 15  1  0  0  0  0
M  END
>  <minimizedAffinity>
-4.8242197

>  <minimizedRMSD>
3.005795

$$$$
