
 OpenBabel03242515393D

 37 40  0  0  0  0  0  0  0  0999 V2000
   44.1520   34.7090   40.9460 C   0  0  0  0  0  0  0  0  0  0  0  0
   44.1510   33.6590   40.0450 C   0  0  0  0  0  0  0  0  0  0  0  0
   45.3630   33.0130   39.8070 C   0  0  0  0  0  0  0  0  0  0  0  0
   46.4650   33.4560   40.4750 N   0  0  0  0  0  0  0  0  0  0  0  0
   46.4320   34.4710   41.3360 C   0  0  0  0  0  0  0  0  0  0  0  0
   45.2780   35.0740   41.5520 N   0  0  0  0  0  0  0  0  0  0  0  0
   43.2440   33.3640   39.5560 H   0  0  0  0  0  0  0  0  0  0  0  0
   46.7050   33.6780   37.2560 Cl  0  0  0  0  0  0  0  0  0  0  0  0
   46.0700   32.0860   37.6690 C   0  0  0  0  0  0  0  0  0  0  0  0
   45.4680   31.9110   38.8900 C   0  0  0  0  0  0  0  0  0  0  0  0
   45.0040   30.6340   39.1220 C   0  0  0  0  0  0  0  0  0  0  0  0
   44.5190   30.4190   40.0600 H   0  0  0  0  0  0  0  0  0  0  0  0
   45.1350   29.6010   38.1880 C   0  0  0  0  0  3  0  0  0  0  0  0
   45.7590   29.8610   36.9730 C   0  0  0  0  0  0  0  0  0  0  0  0
   45.8950   28.5330   35.8490 Cl  0  0  0  0  0  0  0  0  0  0  0  0
   46.2380   31.1320   36.7050 C   0  0  0  0  0  0  0  0  0  0  0  0
   46.7220   31.3230   35.7540 H   0  0  0  0  0  0  0  0  0  0  0  0
   42.5620   35.5240   41.2290 S   0  0  0  0  0  0  0  0  0  0  0  0
   40.5170   34.7920   39.6260 C   0  0  0  0  0  0  0  0  0  0  0  0
   41.2200   34.4310   40.7790 C   0  0  0  0  0  0  0  0  0  0  0  0
   40.8740   33.3000   41.4960 C   0  0  0  0  0  0  0  0  0  0  0  0
   39.8250   32.4860   41.1080 C   0  0  0  0  0  0  0  0  0  0  0  0
   39.1190   32.8540   39.9430 C   0  0  0  0  0  0  0  0  0  0  0  0
   39.4590   33.9880   39.2150 C   0  0  0  0  0  0  0  0  0  0  0  0
   38.1110   31.8760   39.7590 O   0  0  0  0  0  0  0  0  0  0  0  0
   38.0010   31.2010   40.9870 C   0  0  0  0  0  0  0  0  0  0  0  0
   39.2680   31.3240   41.6160 O   0  0  0  0  0  0  0  0  0  0  0  0
   40.7540   35.6620   39.0410 H   0  0  0  0  0  0  0  0  0  0  0  0
   41.4530   33.0730   42.3780 H   0  0  0  0  0  0  0  0  0  0  0  0
   38.9250   34.2690   38.3330 H   0  0  0  0  0  0  0  0  0  0  0  0
   37.6640   30.1600   40.8960 H   0  0  0  0  0  0  0  0  0  0  0  0
   37.2940   31.7990   41.6200 H   0  0  0  0  0  0  0  0  0  0  0  0
   47.5260   34.9340   42.0180 O   0  0  0  0  0  0  0  0  0  0  0  0
   48.7050   35.2340   41.3330 C   0  0  0  0  0  0  0  0  0  0  0  0
   49.6970   34.3180   41.5590 F   0  0  0  0  0  0  0  0  0  0  0  0
   48.3390   35.3170   39.9810 F   0  0  0  0  0  0  0  0  0  0  0  0
   49.1530   36.4610   41.7960 F   0  0  0  0  0  0  0  0  0  0  0  0
  1 18  1  0  0  0  0
  1  6  1  0  0  0  0
  2  1  2  0  0  0  0
  3  2  1  0  0  0  0
  3  4  2  0  0  0  0
  4  5  1  0  0  0  0
  5  6  2  0  0  0  0
  5 33  1  0  0  0  0
  7  2  1  0  0  0  0
  8  9  1  0  0  0  0
  9 10  1  0  0  0  0
 10 11  2  0  0  0  0
 10  3  1  0  0  0  0
 11 12  1  0  0  0  0
 13 11  1  0  0  0  0
 14 13  2  0  0  0  0
 15 14  1  0  0  0  0
 16 14  1  0  0  0  0
 16  9  2  0  0  0  0
 17 16  1  0  0  0  0
 19 20  1  0  0  0  0
 20 18  1  0  0  0  0
 20 21  2  0  0  0  0
 21 29  1  0  0  0  0
 22 21  1  0  0  0  0
 22 27  1  0  0  0  0
 23 22  2  0  0  0  0
 24 19  2  0  0  0  0
 24 23  1  0  0  0  0
 25 23  1  0  0  0  0
 25 26  1  0  0  0  0
 26 27  1  0  0  0  0
 26 32  1  0  0  0  0
 28 19  1  0  0  0  0
 30 24  1  0  0  0  0
 31 26  1  0  0  0  0
 34 35  1  0  0  0  0
 34 37  1  0  0  0  0
 34 33  1  0  0  0  0
 36 34  1  0  0  0  0
M  END
>  <minimizedAffinity>
-5.93788576

>  <minimizedRMSD>
0.542501271

$$$$
