
 OpenBabel03252501103D

 21 22  0  0  0  0  0  0  0  0999 V2000
   46.7930   34.7000   42.1780 C   0  0  0  0  0  0  0  0  0  0  0  0
   47.6820   35.5540   41.8590 O   0  0  0  0  0  0  0  0  0  0  0  0
   44.1360   34.7980   40.6740 Cl  0  0  0  0  0  0  0  0  0  0  0  0
   45.4830   33.7340   40.3050 C   0  0  0  0  0  0  0  0  0  0  0  0
   46.6490   33.7710   41.0550 C   0  0  0  0  0  0  0  0  0  0  0  0
   47.6280   32.8790   40.6530 C   0  0  0  0  0  0  0  0  0  0  0  0
   48.5670   32.8670   41.2100 H   0  0  0  0  0  0  0  0  0  0  0  0
   47.4440   32.0220   39.5860 C   0  0  0  0  0  3  0  0  0  0  0  0
   46.2760   32.0190   38.8750 C   0  0  0  0  0  0  0  0  0  0  0  0
   46.1130   30.9010   37.5290 Cl  0  0  0  0  0  0  0  0  0  0  0  0
   45.2820   32.8850   39.2370 C   0  0  0  0  0  0  0  0  0  0  0  0
   44.3640   32.8680   38.6620 H   0  0  0  0  0  0  0  0  0  0  0  0
   44.5290   35.8950   44.8440 C   0  0  0  0  0  0  0  0  0  0  0  0
   45.2290   35.8090   43.6280 C   0  0  0  0  0  0  0  0  0  0  0  0
   46.1090   34.7290   43.4400 C   0  0  0  0  0  0  0  0  0  0  0  0
   46.2140   33.8440   44.4580 N   0  0  0  0  0  0  0  0  0  0  0  0
   45.5370   33.9440   45.6110 C   0  0  0  0  0  0  0  0  0  0  0  0
   44.6770   34.9860   45.8110 N   0  0  0  0  0  0  0  0  0  0  0  0
   43.8580   36.7280   44.9750 H   0  0  0  0  0  0  0  0  0  0  0  0
   45.0570   36.5800   42.8950 H   0  0  0  0  0  0  0  0  0  0  0  0
   45.6950   33.1740   46.3690 H   0  0  0  0  0  0  0  0  0  0  0  0
  1 15  1  0  0  0  0
  2  1  2  0  0  0  0
  4  3  1  0  0  0  0
  4  5  1  0  0  0  0
  5  1  1  0  0  0  0
  6  5  2  0  0  0  0
  6  7  1  0  0  0  0
  8  6  1  0  0  0  0
  9 11  1  0  0  0  0
  9  8  2  0  0  0  0
 10  9  1  0  0  0  0
 11  4  2  0  0  0  0
 12 11  1  0  0  0  0
 13 19  1  0  0  0  0
 13 18  1  0  0  0  0
 14 13  2  0  0  0  0
 15 14  1  0  0  0  0
 15 16  2  0  0  0  0
 16 17  1  0  0  0  0
 17 18  2  0  0  0  0
 17 21  1  0  0  0  0
 20 14  1  0  0  0  0
M  END
>  <minimizedAffinity>
-4.22015667

>  <minimizedRMSD>
0.89759165

$$$$
