
 OpenBabel03242515393D

 37 40  0  0  0  0  0  0  0  0999 V2000
   44.2920   34.7540   41.0920 C   0  0  0  0  0  0  0  0  0  0  0  0
   44.2290   34.1040   39.8720 C   0  0  0  0  0  0  0  0  0  0  0  0
   45.3830   33.4640   39.4230 C   0  0  0  0  0  0  0  0  0  0  0  0
   46.4930   33.5190   40.2110 N   0  0  0  0  0  0  0  0  0  0  0  0
   46.5210   34.1550   41.3810 C   0  0  0  0  0  0  0  0  0  0  0  0
   45.4200   34.7560   41.7940 N   0  0  0  0  0  0  0  0  0  0  0  0
   43.3200   34.1010   39.3040 H   0  0  0  0  0  0  0  0  0  0  0  0
   47.6910   34.1620   37.7080 Cl  0  0  0  0  0  0  0  0  0  0  0  0
   46.4410   32.9930   37.2800 C   0  0  0  0  0  0  0  0  0  0  0  0
   45.4210   32.7610   38.1690 C   0  0  0  0  0  0  0  0  0  0  0  0
   44.4950   31.8320   37.7470 C   0  0  0  0  0  0  0  0  0  0  0  0
   43.6640   31.5980   38.3920 H   0  0  0  0  0  0  0  0  0  0  0  0
   44.5850   31.1800   36.5130 C   0  0  0  0  0  3  0  0  0  0  0  0
   45.6510   31.4720   35.6700 C   0  0  0  0  0  0  0  0  0  0  0  0
   45.7130   30.6270   34.1430 Cl  0  0  0  0  0  0  0  0  0  0  0  0
   46.6020   32.4000   36.0600 C   0  0  0  0  0  0  0  0  0  0  0  0
   47.4290   32.6190   35.3930 H   0  0  0  0  0  0  0  0  0  0  0  0
   42.7760   35.5740   41.6420 S   0  0  0  0  0  0  0  0  0  0  0  0
   40.4640   35.2930   40.2790 C   0  0  0  0  0  0  0  0  0  0  0  0
   41.3450   34.6290   41.1370 C   0  0  0  0  0  0  0  0  0  0  0  0
   41.0950   33.3310   41.5450 C   0  0  0  0  0  0  0  0  0  0  0  0
   39.9710   32.6410   41.1270 C   0  0  0  0  0  0  0  0  0  0  0  0
   39.0860   33.3160   40.2610 C   0  0  0  0  0  0  0  0  0  0  0  0
   39.3270   34.6190   39.8430 C   0  0  0  0  0  0  0  0  0  0  0  0
   38.0320   32.4100   39.9800 O   0  0  0  0  0  0  0  0  0  0  0  0
   38.1170   31.4060   40.9600 C   0  0  0  0  0  0  0  0  0  0  0  0
   39.4770   31.3700   41.3670 O   0  0  0  0  0  0  0  0  0  0  0  0
   40.6210   36.3000   39.9380 H   0  0  0  0  0  0  0  0  0  0  0  0
   41.8110   32.8710   42.2090 H   0  0  0  0  0  0  0  0  0  0  0  0
   38.6570   35.1320   39.1880 H   0  0  0  0  0  0  0  0  0  0  0  0
   37.7380   30.4300   40.6330 H   0  0  0  0  0  0  0  0  0  0  0  0
   37.5480   31.7800   41.8520 H   0  0  0  0  0  0  0  0  0  0  0  0
   47.6230   34.2240   42.1900 O   0  0  0  0  0  0  0  0  0  0  0  0
   48.8500   34.6390   41.6700 C   0  0  0  0  0  0  0  0  0  0  0  0
   49.5380   33.6240   41.0610 F   0  0  0  0  0  0  0  0  0  0  0  0
   48.5460   35.6910   40.7930 F   0  0  0  0  0  0  0  0  0  0  0  0
   49.6200   35.0900   42.7310 F   0  0  0  0  0  0  0  0  0  0  0  0
  1 18  1  0  0  0  0
  1  6  1  0  0  0  0
  2  1  2  0  0  0  0
  3  2  1  0  0  0  0
  3  4  2  0  0  0  0
  4  5  1  0  0  0  0
  5  6  2  0  0  0  0
  5 33  1  0  0  0  0
  7  2  1  0  0  0  0
  9  8  1  0  0  0  0
  9 10  1  0  0  0  0
 10  3  1  0  0  0  0
 11 10  2  0  0  0  0
 11 12  1  0  0  0  0
 13 11  1  0  0  0  0
 14 16  1  0  0  0  0
 14 13  2  0  0  0  0
 15 14  1  0  0  0  0
 16  9  2  0  0  0  0
 17 16  1  0  0  0  0
 19 20  1  0  0  0  0
 20 21  2  0  0  0  0
 20 18  1  0  0  0  0
 21 29  1  0  0  0  0
 22 27  1  0  0  0  0
 22 21  1  0  0  0  0
 23 22  2  0  0  0  0
 24 23  1  0  0  0  0
 24 19  2  0  0  0  0
 25 23  1  0  0  0  0
 25 26  1  0  0  0  0
 26 27  1  0  0  0  0
 26 32  1  0  0  0  0
 28 19  1  0  0  0  0
 30 24  1  0  0  0  0
 31 26  1  0  0  0  0
 34 33  1  0  0  0  0
 34 37  1  0  0  0  0
 35 34  1  0  0  0  0
 36 34  1  0  0  0  0
M  END
>  <minimizedAffinity>
-6.01885939

>  <minimizedRMSD>
0.887611866

$$$$
