
 OpenBabel03252503093D

 28 30  0  0  1  0  0  0  0  0999 V2000
   44.8400   35.4410   44.4080 C   0  0  0  0  0  0  0  0  0  0  0  0
   45.6430   34.4570   43.7750 C   0  0  0  0  0  0  0  0  0  0  0  0
   46.0490   33.4280   44.6130 C   0  0  0  0  0  0  0  0  0  0  0  0
   45.7070   33.3760   45.9080 N   0  0  0  0  0  0  0  0  0  0  0  0
   44.9320   34.3530   46.4660 C   0  0  0  0  0  0  0  0  0  0  0  0
   44.5090   35.3780   45.6960 N   0  0  0  0  0  0  0  0  0  0  0  0
   44.4900   36.2780   43.7970 H   0  0  0  0  0  0  0  0  0  0  0  0
   44.6890   34.2600   47.5120 H   0  0  0  0  0  0  0  0  0  0  0  0
   46.8240   32.4050   44.0750 C   0  0  0  0  0  0  0  0  0  0  0  0
   48.0860   32.3030   43.5890 C   0  0  0  0  0  0  0  0  0  0  0  0
   48.6210   31.1980   43.0940 C   0  0  0  0  0  0  0  0  0  0  0  0
   47.8090   30.0940   43.0880 C   0  0  0  0  0  0  0  0  0  0  0  0
   46.2550   30.7410   43.8290 S   0  0  0  0  0  0  0  0  0  0  0  0
   48.8530   33.0590   43.5590 H   0  0  0  0  0  0  0  0  0  0  0  0
   49.5380   30.8630   42.6690 H   0  0  0  0  0  0  0  0  0  0  0  0
   47.7620   29.0650   42.8240 H   0  0  0  0  0  0  0  0  0  0  0  0
   45.9440   34.5920   42.4000 C   0  0  2  0  0  3  0  0  0  0  0  0
   46.7220   35.6310   42.1840 O   0  0  0  0  0  1  0  0  0  0  0  0
   43.4860   35.8070   41.4070 Cl  0  0  0  0  0  0  0  0  0  0  0  0
   44.3270   34.3850   40.7490 C   0  0  0  0  0  0  0  0  0  0  0  0
   45.5240   33.7940   41.2080 C   0  0  0  0  0  0  0  0  0  0  0  0
   45.9480   32.6990   40.5090 C   0  0  0  0  0  0  0  0  0  0  0  0
   46.8510   32.3160   40.9500 H   0  0  0  0  0  0  0  0  0  0  0  0
   45.2770   32.1870   39.4300 C   0  0  0  0  0  3  0  0  0  0  0  0
   44.1120   32.7690   38.9870 C   0  0  0  0  0  0  0  0  0  0  0  0
   43.3720   32.0010   37.5990 Cl  0  0  0  0  0  0  0  0  0  0  0  0
   43.6250   33.8760   39.6450 C   0  0  0  0  0  0  0  0  0  0  0  0
   42.7110   34.2610   39.2300 H   0  0  0  0  0  0  0  0  0  0  0  0
  1  6  1  0  0  0  0
  2  1  2  0  0  0  0
  2  3  1  0  0  0  0
  3  4  2  0  0  0  0
  4  5  1  0  0  0  0
  5  8  1  0  0  0  0
  6  5  2  0  0  0  0
  7  1  1  0  0  0  0
  9  3  1  0  0  0  0
 10  9  2  0  0  0  0
 11 10  1  0  0  0  0
 12 11  2  0  0  0  0
 12 13  1  0  0  0  0
 13  9  1  0  0  0  0
 14 10  1  0  0  0  0
 15 11  1  0  0  0  0
 16 12  1  0  0  0  0
 17 18  1  6  0  0  0
 17  2  1  0  0  0  0
 20 21  1  0  0  0  0
 20 19  1  0  0  0  0
 21 17  1  0  0  0  0
 22 23  1  0  0  0  0
 22 21  2  0  0  0  0
 24 22  1  0  0  0  0
 25 24  2  0  0  0  0
 25 27  1  0  0  0  0
 26 25  1  0  0  0  0
 27 20  2  0  0  0  0
 28 27  1  0  0  0  0
M  END
>  <minimizedAffinity>
-4.33180428

>  <minimizedRMSD>
1.75782597

$$$$
