
 OpenBabel03252500393D

 22 23  0  0  0  0  0  0  0  0999 V2000
   44.6750   33.0550   41.8860 C   0  0  0  0  0  0  0  0  0  0  0  0
   45.0540   33.8680   41.2210 H   0  0  0  0  0  0  0  0  0  0  0  0
   45.2320   32.1420   41.6000 H   0  0  0  0  0  0  0  0  0  0  0  0
   43.3280   35.5120   40.7720 Cl  0  0  0  0  0  0  0  0  0  0  0  0
   42.5360   34.0060   41.1650 C   0  0  0  0  0  0  0  0  0  0  0  0
   43.2230   32.9230   41.6720 C   0  0  0  0  0  0  0  0  0  0  0  0
   42.4800   31.7910   41.9400 C   0  0  0  0  0  0  0  0  0  0  0  0
   43.0440   30.9500   42.3400 H   0  0  0  0  0  0  0  0  0  0  0  0
   41.1160   31.6960   41.7280 C   0  0  0  0  0  3  0  0  0  0  0  0
   40.4670   32.8210   41.2130 C   0  0  0  0  0  0  0  0  0  0  0  0
   38.7250   32.6970   40.9430 Cl  0  0  0  0  0  0  0  0  0  0  0  0
   41.1700   33.9820   40.9270 C   0  0  0  0  0  0  0  0  0  0  0  0
   40.5710   34.7760   40.5370 H   0  0  0  0  0  0  0  0  0  0  0  0
   45.0350   33.3270   43.3100 C   0  0  0  0  0  0  0  0  0  0  0  0
   45.6530   32.3010   44.0440 C   0  0  0  0  0  0  0  0  0  0  0  0
   45.9870   32.5590   45.3760 C   0  0  0  0  0  0  0  0  0  0  0  0
   45.6970   33.7890   45.8890 N   0  0  0  0  0  0  0  0  0  0  0  0
   45.1010   34.7460   45.1440 C   0  0  0  0  0  0  0  0  0  0  0  0
   44.7670   34.5270   43.8590 N   0  0  0  0  0  0  0  0  0  0  0  0
   45.8640   31.3300   43.5800 H   0  0  0  0  0  0  0  0  0  0  0  0
   46.4590   31.8080   45.9750 H   0  0  0  0  0  0  0  0  0  0  0  0
   44.9380   35.6540   45.6810 H   0  0  0  0  0  0  0  0  0  0  0  0
  1 14  1  0  0  0  0
  2  1  1  0  0  0  0
  3  1  1  0  0  0  0
  4  5  1  0  0  0  0
  5  6  1  0  0  0  0
  6  1  1  0  0  0  0
  6  7  2  0  0  0  0
  7  8  1  0  0  0  0
  9  7  1  0  0  0  0
 10  9  2  0  0  0  0
 11 10  1  0  0  0  0
 12  5  2  0  0  0  0
 12 10  1  0  0  0  0
 13 12  1  0  0  0  0
 14 19  2  0  0  0  0
 14 15  1  0  0  0  0
 15 16  2  0  0  0  0
 16 17  1  0  0  0  0
 16 21  1  0  0  0  0
 18 22  1  0  0  0  0
 18 17  2  0  0  0  0
 19 18  1  0  0  0  0
 20 15  1  0  0  0  0
M  END
>  <minimizedAffinity>
-3.8510015

>  <minimizedRMSD>
2.37083197

$$$$
