
 OpenBabel03242513283D

 31 33  0  0  0  0  0  0  0  0999 V2000
   36.6020   29.7520   39.9930 C   0  0  0  0  0  0  0  0  0  0  0  0
   36.4430   30.2120   38.7140 C   0  0  0  0  0  0  0  0  0  0  0  0
   36.9340   31.4670   38.4470 C   0  0  0  0  0  0  0  0  0  0  0  0
   37.5590   32.2300   39.4190 C   0  0  0  0  0  0  0  0  0  0  0  0
   37.7000   31.7340   40.6910 C   0  0  0  0  0  0  0  0  0  0  0  0
   37.2190   30.4720   41.0070 C   0  0  0  0  0  0  0  0  0  0  0  0
   36.8310   31.8710   37.4510 H   0  0  0  0  0  0  0  0  0  0  0  0
   37.9550   33.2180   39.2410 H   0  0  0  0  0  0  0  0  0  0  0  0
   38.1730   32.2500   41.5260 H   0  0  0  0  0  0  0  0  0  0  0  0
   35.6810   28.2270   35.6030 C   0  0  0  0  0  0  0  0  0  0  0  0
   36.3620   29.0490   36.5170 C   0  0  0  0  0  0  0  0  0  0  0  0
   35.7860   29.3750   37.7470 C   0  0  0  0  0  0  0  0  0  0  0  0
   34.5660   28.8460   37.9620 N   0  0  0  0  0  0  0  0  0  0  0  0
   33.9080   28.0610   37.0950 C   0  0  0  0  0  0  0  0  0  0  0  0
   34.4650   27.7510   35.9160 N   0  0  0  0  0  0  0  0  0  0  0  0
   36.1430   27.9850   34.6550 H   0  0  0  0  0  0  0  0  0  0  0  0
   37.3310   29.4320   36.2730 H   0  0  0  0  0  0  0  0  0  0  0  0
   32.9290   27.6710   37.3360 H   0  0  0  0  0  0  0  0  0  0  0  0
   36.1170   28.4770   40.3130 O   0  0  0  0  0  0  0  0  0  0  0  0
   35.7670   27.8490   39.6020 H   0  0  0  0  0  0  0  0  0  0  0  0
   37.3300   29.9140   42.2630 O   0  0  0  0  0  0  0  0  0  0  0  0
   36.3970   27.4040   43.6660 Cl  0  0  0  0  0  0  0  0  0  0  0  0
   38.0400   27.7760   43.2820 C   0  0  0  0  0  0  0  0  0  0  0  0
   38.2760   28.9700   42.6390 C   0  0  0  0  0  0  0  0  0  0  0  0
   39.5780   29.3520   42.2910 C   0  0  0  0  0  0  0  0  0  0  0  0
   39.8390   30.2740   41.7860 H   0  0  0  0  0  0  0  0  0  0  0  0
   40.6020   28.4620   42.6300 C   0  0  0  0  0  3  0  0  0  0  0  0
   40.3520   27.2660   43.2750 C   0  0  0  0  0  0  0  0  0  0  0  0
   41.6650   26.1820   43.6790 Cl  0  0  0  0  0  0  0  0  0  0  0  0
   39.0530   26.9090   43.6100 C   0  0  0  0  0  0  0  0  0  0  0  0
   38.8120   25.9830   44.1150 H   0  0  0  0  0  0  0  0  0  0  0  0
  1 19  1  0  0  0  0
  1  6  1  0  0  0  0
  2  1  2  0  0  0  0
  3  2  1  0  0  0  0
  3  4  2  0  0  0  0
  4  5  1  0  0  0  0
  5  6  2  0  0  0  0
  5  9  1  0  0  0  0
  6 21  1  0  0  0  0
  7  3  1  0  0  0  0
  8  4  1  0  0  0  0
 10 15  2  0  0  0  0
 10 11  1  0  0  0  0
 11 12  2  0  0  0  0
 12 13  1  0  0  0  0
 12  2  1  0  0  0  0
 14 18  1  0  0  0  0
 14 13  2  0  0  0  0
 15 14  1  0  0  0  0
 16 10  1  0  0  0  0
 17 11  1  0  0  0  0
 20 19  1  0  0  0  0
 21 24  1  0  0  0  0
 23 30  1  0  0  0  0
 23 22  1  0  0  0  0
 24 23  2  0  0  0  0
 25 27  2  0  0  0  0
 25 24  1  0  0  0  0
 26 25  1  0  0  0  0
 27 28  1  0  0  0  0
 28 30  2  0  0  0  0
 28 29  1  0  0  0  0
 30 31  1  0  0  0  0
M  END
>  <minimizedAffinity>
-5.58429909

$$$$

 OpenBabel03242513283D

 31 33  0  0  0  0  0  0  0  0999 V2000
   39.1670   30.7330   41.1420 C   0  0  0  0  0  0  0  0  0  0  0  0
   38.8990   31.8340   40.3750 C   0  0  0  0  0  0  0  0  0  0  0  0
   37.5740   32.1100   40.1400 C   0  0  0  0  0  0  0  0  0  0  0  0
   36.5590   31.3190   40.6520 C   0  0  0  0  0  0  0  0  0  0  0  0
   36.8680   30.2230   41.4180 C   0  0  0  0  0  0  0  0  0  0  0  0
   38.1930   29.9050   41.6820 C   0  0  0  0  0  0  0  0  0  0  0  0
   37.3140   32.9700   39.5400 H   0  0  0  0  0  0  0  0  0  0  0  0
   35.5100   31.5090   40.4860 H   0  0  0  0  0  0  0  0  0  0  0  0
   36.1500   29.5370   41.8670 H   0  0  0  0  0  0  0  0  0  0  0  0
   41.4410   33.4020   38.0780 C   0  0  0  0  0  0  0  0  0  0  0  0
   40.3630   32.6180   38.5250 C   0  0  0  0  0  0  0  0  0  0  0  0
   39.9930   32.6190   39.8710 C   0  0  0  0  0  0  0  0  0  0  0  0
   40.7390   33.4100   40.6660 N   0  0  0  0  0  0  0  0  0  0  0  0
   41.7700   34.1610   40.2490 C   0  0  0  0  0  0  0  0  0  0  0  0
   42.1210   34.1580   38.9550 N   0  0  0  0  0  0  0  0  0  0  0  0
   41.7130   33.3900   37.0310 H   0  0  0  0  0  0  0  0  0  0  0  0
   39.8180   32.0130   37.8300 H   0  0  0  0  0  0  0  0  0  0  0  0
   42.3240   34.7740   40.9460 H   0  0  0  0  0  0  0  0  0  0  0  0
   40.5040   30.4110   41.4080 O   0  0  0  0  0  0  0  0  0  0  0  0
   41.2600   31.0320   41.1540 H   0  0  0  0  0  0  0  0  0  0  0  0
   38.5710   28.8200   42.4440 O   0  0  0  0  0  0  0  0  0  0  0  0
   36.2090   27.3940   43.6800 Cl  0  0  0  0  0  0  0  0  0  0  0  0
   37.3280   26.6860   42.5700 C   0  0  0  0  0  0  0  0  0  0  0  0
   38.3460   27.4910   42.1100 C   0  0  0  0  0  0  0  0  0  0  0  0
   39.2980   26.9980   41.2090 C   0  0  0  0  0  0  0  0  0  0  0  0
   40.1240   27.5720   40.8060 H   0  0  0  0  0  0  0  0  0  0  0  0
   39.1530   25.6650   40.8130 C   0  0  0  0  0  3  0  0  0  0  0  0
   38.1270   24.8670   41.2820 C   0  0  0  0  0  0  0  0  0  0  0  0
   37.9850   23.2030   40.7590 Cl  0  0  0  0  0  0  0  0  0  0  0  0
   37.1950   25.3770   42.1750 C   0  0  0  0  0  0  0  0  0  0  0  0
   36.3760   24.7890   42.5680 H   0  0  0  0  0  0  0  0  0  0  0  0
  1 19  1  0  0  0  0
  1  6  1  0  0  0  0
  2  1  2  0  0  0  0
  3  2  1  0  0  0  0
  3  4  2  0  0  0  0
  4  5  1  0  0  0  0
  5  6  2  0  0  0  0
  5  9  1  0  0  0  0
  6 21  1  0  0  0  0
  7  3  1  0  0  0  0
  8  4  1  0  0  0  0
 10 11  2  0  0  0  0
 10 15  1  0  0  0  0
 11 12  1  0  0  0  0
 12  2  1  0  0  0  0
 12 13  2  0  0  0  0
 14 13  1  0  0  0  0
 14 18  1  0  0  0  0
 15 14  2  0  0  0  0
 16 10  1  0  0  0  0
 17 11  1  0  0  0  0
 20 19  1  0  0  0  0
 23 22  1  0  0  0  0
 24 21  1  0  0  0  0
 24 23  2  0  0  0  0
 25 24  1  0  0  0  0
 26 25  1  0  0  0  0
 27 25  2  0  0  0  0
 27 28  1  0  0  0  0
 28 30  2  0  0  0  0
 29 28  1  0  0  0  0
 30 31  1  0  0  0  0
 30 23  1  0  0  0  0
M  END
>  <minimizedAffinity>
-5.55389452

$$$$

 OpenBabel03242513283D

 31 33  0  0  0  0  0  0  0  0999 V2000
   37.9860   26.2320   41.7980 C   0  0  0  0  0  0  0  0  0  0  0  0
   38.8310   25.1570   41.7700 C   0  0  0  0  0  0  0  0  0  0  0  0
   39.8140   25.1240   42.7300 C   0  0  0  0  0  0  0  0  0  0  0  0
   39.9440   26.1250   43.6790 C   0  0  0  0  0  0  0  0  0  0  0  0
   39.0750   27.1880   43.6740 C   0  0  0  0  0  0  0  0  0  0  0  0
   38.0680   27.2640   42.7230 C   0  0  0  0  0  0  0  0  0  0  0  0
   40.5050   24.2940   42.7470 H   0  0  0  0  0  0  0  0  0  0  0  0
   40.7040   26.1280   44.4450 H   0  0  0  0  0  0  0  0  0  0  0  0
   39.0900   28.0240   44.3710 H   0  0  0  0  0  0  0  0  0  0  0  0
   39.2880   23.0050   38.7100 C   0  0  0  0  0  0  0  0  0  0  0  0
   39.5080   24.0070   39.6710 C   0  0  0  0  0  0  0  0  0  0  0  0
   38.6480   24.1480   40.7620 C   0  0  0  0  0  0  0  0  0  0  0  0
   37.6290   23.2680   40.8010 N   0  0  0  0  0  0  0  0  0  0  0  0
   37.4100   22.3090   39.8880 C   0  0  0  0  0  0  0  0  0  0  0  0
   38.2400   22.1770   38.8430 N   0  0  0  0  0  0  0  0  0  0  0  0
   39.9650   22.9100   37.8730 H   0  0  0  0  0  0  0  0  0  0  0  0
   40.3420   24.6710   39.5700 H   0  0  0  0  0  0  0  0  0  0  0  0
   36.5700   21.6360   39.9840 H   0  0  0  0  0  0  0  0  0  0  0  0
   36.9680   26.3090   40.8380 O   0  0  0  0  0  0  0  0  0  0  0  0
   36.7700   25.5410   40.2110 H   0  0  0  0  0  0  0  0  0  0  0  0
   37.1630   28.3020   42.6640 O   0  0  0  0  0  0  0  0  0  0  0  0
   35.0290   29.0390   40.6540 Cl  0  0  0  0  0  0  0  0  0  0  0  0
   36.4630   29.9530   40.9620 C   0  0  0  0  0  0  0  0  0  0  0  0
   37.3240   29.4610   41.9170 C   0  0  0  0  0  0  0  0  0  0  0  0
   38.5100   30.1370   42.2290 C   0  0  0  0  0  0  0  0  0  0  0  0
   39.2330   29.8100   42.9670 H   0  0  0  0  0  0  0  0  0  0  0  0
   38.7590   31.3200   41.5260 C   0  0  0  0  0  3  0  0  0  0  0  0
   37.8860   31.8040   40.5690 C   0  0  0  0  0  0  0  0  0  0  0  0
   38.2400   33.2890   39.7140 Cl  0  0  0  0  0  0  0  0  0  0  0  0
   36.7180   31.1160   40.2770 C   0  0  0  0  0  0  0  0  0  0  0  0
   36.0060   31.4570   39.5360 H   0  0  0  0  0  0  0  0  0  0  0  0
  1  6  1  0  0  0  0
  2  1  2  0  0  0  0
  2  3  1  0  0  0  0
  3  7  1  0  0  0  0
  3  4  2  0  0  0  0
  4  8  1  0  0  0  0
  5  4  1  0  0  0  0
  5  9  1  0  0  0  0
  6  5  2  0  0  0  0
 10 15  2  0  0  0  0
 10 11  1  0  0  0  0
 11 12  2  0  0  0  0
 12 13  1  0  0  0  0
 12  2  1  0  0  0  0
 14 18  1  0  0  0  0
 14 13  2  0  0  0  0
 15 14  1  0  0  0  0
 16 10  1  0  0  0  0
 17 11  1  0  0  0  0
 19  1  1  0  0  0  0
 20 19  1  0  0  0  0
 21  6  1  0  0  0  0
 22 23  1  0  0  0  0
 23 24  1  0  0  0  0
 24 25  2  0  0  0  0
 24 21  1  0  0  0  0
 25 26  1  0  0  0  0
 27 25  1  0  0  0  0
 28 27  2  0  0  0  0
 29 28  1  0  0  0  0
 30 28  1  0  0  0  0
 30 23  2  0  0  0  0
 31 30  1  0  0  0  0
M  END
>  <minimizedAffinity>
-5.55069637

$$$$

 OpenBabel03242513283D

 31 33  0  0  0  0  0  0  0  0999 V2000
   39.3680   31.2380   40.4290 C   0  0  0  0  0  0  0  0  0  0  0  0
   39.2500   32.0220   39.3140 C   0  0  0  0  0  0  0  0  0  0  0  0
   37.9770   32.3980   38.9600 C   0  0  0  0  0  0  0  0  0  0  0  0
   36.8680   32.0070   39.6920 C   0  0  0  0  0  0  0  0  0  0  0  0
   37.0280   31.2200   40.8060 C   0  0  0  0  0  0  0  0  0  0  0  0
   38.2940   30.8160   41.2010 C   0  0  0  0  0  0  0  0  0  0  0  0
   37.8340   33.0170   38.0870 H   0  0  0  0  0  0  0  0  0  0  0  0
   35.8560   32.2850   39.4410 H   0  0  0  0  0  0  0  0  0  0  0  0
   36.2260   30.8580   41.4490 H   0  0  0  0  0  0  0  0  0  0  0  0
   42.1700   33.9880   37.9690 C   0  0  0  0  0  0  0  0  0  0  0  0
   41.0090   33.6670   38.6940 C   0  0  0  0  0  0  0  0  0  0  0  0
   40.4360   32.3970   38.5940 C   0  0  0  0  0  0  0  0  0  0  0  0
   41.0780   31.5460   37.7700 N   0  0  0  0  0  0  0  0  0  0  0  0
   42.1860   31.8440   37.0740 C   0  0  0  0  0  0  0  0  0  0  0  0
   42.7330   33.0640   37.1740 N   0  0  0  0  0  0  0  0  0  0  0  0
   42.5990   34.9760   38.0590 H   0  0  0  0  0  0  0  0  0  0  0  0
   40.5550   34.4000   39.3290 H   0  0  0  0  0  0  0  0  0  0  0  0
   42.6490   31.1090   36.4300 H   0  0  0  0  0  0  0  0  0  0  0  0
   40.6480   30.8290   40.8290 O   0  0  0  0  0  0  0  0  0  0  0  0
   41.4820   31.1950   40.3910 H   0  0  0  0  0  0  0  0  0  0  0  0
   38.5240   30.0280   42.3090 O   0  0  0  0  0  0  0  0  0  0  0  0
   40.9850   28.4520   43.0830 Cl  0  0  0  0  0  0  0  0  0  0  0  0
   39.4570   27.7650   42.6600 C   0  0  0  0  0  0  0  0  0  0  0  0
   38.4470   28.6420   42.3340 C   0  0  0  0  0  0  0  0  0  0  0  0
   37.1760   28.1710   41.9770 C   0  0  0  0  0  0  0  0  0  0  0  0
   36.3360   28.8000   41.7090 H   0  0  0  0  0  0  0  0  0  0  0  0
   37.0020   26.7840   41.9740 C   0  0  0  0  0  3  0  0  0  0  0  0
   38.0240   25.9140   42.3040 C   0  0  0  0  0  0  0  0  0  0  0  0
   37.7590   24.1840   42.2860 Cl  0  0  0  0  0  0  0  0  0  0  0  0
   39.2740   26.4040   42.6530 C   0  0  0  0  0  0  0  0  0  0  0  0
   40.1030   25.7600   42.9180 H   0  0  0  0  0  0  0  0  0  0  0  0
  1 19  1  0  0  0  0
  1  6  1  0  0  0  0
  2  1  2  0  0  0  0
  3  2  1  0  0  0  0
  3  4  2  0  0  0  0
  4  5  1  0  0  0  0
  5  6  2  0  0  0  0
  5  9  1  0  0  0  0
  6 21  1  0  0  0  0
  7  3  1  0  0  0  0
  8  4  1  0  0  0  0
 10 16  1  0  0  0  0
 10 11  1  0  0  0  0
 11 17  1  0  0  0  0
 12 11  2  0  0  0  0
 12  2  1  0  0  0  0
 13 12  1  0  0  0  0
 14 15  1  0  0  0  0
 14 13  2  0  0  0  0
 15 10  2  0  0  0  0
 18 14  1  0  0  0  0
 20 19  1  0  0  0  0
 21 24  1  0  0  0  0
 23 22  1  0  0  0  0
 24 23  2  0  0  0  0
 25 24  1  0  0  0  0
 26 25  1  0  0  0  0
 27 25  2  0  0  0  0
 27 28  1  0  0  0  0
 28 30  2  0  0  0  0
 29 28  1  0  0  0  0
 30 23  1  0  0  0  0
 30 31  1  0  0  0  0
M  END
>  <minimizedAffinity>
-5.42209768

$$$$

 OpenBabel03242513283D

 31 33  0  0  0  0  0  0  0  0999 V2000
   38.0730   26.7450   41.2420 C   0  0  0  0  0  0  0  0  0  0  0  0
   37.2660   25.7360   41.6910 C   0  0  0  0  0  0  0  0  0  0  0  0
   36.5210   25.9990   42.8150 C   0  0  0  0  0  0  0  0  0  0  0  0
   36.5810   27.2220   43.4640 C   0  0  0  0  0  0  0  0  0  0  0  0
   37.4040   28.2100   42.9820 C   0  0  0  0  0  0  0  0  0  0  0  0
   38.1740   27.9890   41.8500 C   0  0  0  0  0  0  0  0  0  0  0  0
   35.8690   25.2320   43.2070 H   0  0  0  0  0  0  0  0  0  0  0  0
   36.0100   27.4590   44.3480 H   0  0  0  0  0  0  0  0  0  0  0  0
   37.5260   29.2020   43.4140 H   0  0  0  0  0  0  0  0  0  0  0  0
   36.1760   22.8460   39.5310 C   0  0  0  0  0  0  0  0  0  0  0  0
   36.1510   24.0760   40.2110 C   0  0  0  0  0  0  0  0  0  0  0  0
   37.2430   24.4870   40.9780 C   0  0  0  0  0  0  0  0  0  0  0  0
   38.2790   23.6260   41.0010 N   0  0  0  0  0  0  0  0  0  0  0  0
   38.3110   22.4490   40.3560 C   0  0  0  0  0  0  0  0  0  0  0  0
   37.2600   22.0600   39.6210 N   0  0  0  0  0  0  0  0  0  0  0  0
   35.3210   22.5450   38.9410 H   0  0  0  0  0  0  0  0  0  0  0  0
   35.2890   24.7080   40.1440 H   0  0  0  0  0  0  0  0  0  0  0  0
   39.1780   21.8070   40.4210 H   0  0  0  0  0  0  0  0  0  0  0  0
   38.8510   26.5220   40.0990 O   0  0  0  0  0  0  0  0  0  0  0  0
   38.7400   25.6900   39.5350 H   0  0  0  0  0  0  0  0  0  0  0  0
   39.0180   28.9380   41.3140 O   0  0  0  0  0  0  0  0  0  0  0  0
   40.4020   31.3240   42.5520 Cl  0  0  0  0  0  0  0  0  0  0  0  0
   39.1520   31.4070   41.3620 C   0  0  0  0  0  0  0  0  0  0  0  0
   38.6380   30.2110   40.9130 C   0  0  0  0  0  0  0  0  0  0  0  0
   37.6210   30.1860   39.9490 C   0  0  0  0  0  0  0  0  0  0  0  0
   37.1700   29.2850   39.5500 H   0  0  0  0  0  0  0  0  0  0  0  0
   37.1710   31.4240   39.4830 C   0  0  0  0  0  3  0  0  0  0  0  0
   37.6950   32.6170   39.9420 C   0  0  0  0  0  0  0  0  0  0  0  0
   37.1010   34.1440   39.3280 Cl  0  0  0  0  0  0  0  0  0  0  0  0
   38.7020   32.6180   40.8970 C   0  0  0  0  0  0  0  0  0  0  0  0
   39.1410   33.5280   41.2850 H   0  0  0  0  0  0  0  0  0  0  0  0
  1  2  2  0  0  0  0
  1  6  1  0  0  0  0
  2  3  1  0  0  0  0
  3  7  1  0  0  0  0
  3  4  2  0  0  0  0
  4  8  1  0  0  0  0
  5  9  1  0  0  0  0
  5  4  1  0  0  0  0
  6  5  2  0  0  0  0
 10 15  2  0  0  0  0
 10 11  1  0  0  0  0
 11 12  2  0  0  0  0
 12 13  1  0  0  0  0
 12  2  1  0  0  0  0
 14 18  1  0  0  0  0
 14 13  2  0  0  0  0
 15 14  1  0  0  0  0
 16 10  1  0  0  0  0
 17 11  1  0  0  0  0
 19  1  1  0  0  0  0
 20 19  1  0  0  0  0
 21  6  1  0  0  0  0
 23 22  1  0  0  0  0
 24 21  1  0  0  0  0
 24 23  1  0  0  0  0
 25 24  2  0  0  0  0
 26 25  1  0  0  0  0
 27 28  2  0  0  0  0
 27 25  1  0  0  0  0
 28 30  1  0  0  0  0
 29 28  1  0  0  0  0
 30 31  1  0  0  0  0
 30 23  2  0  0  0  0
M  END
>  <minimizedAffinity>
-5.40249968

$$$$

 OpenBabel03242513283D

 31 33  0  0  0  0  0  0  0  0999 V2000
   37.7930   30.7760   39.7270 C   0  0  0  0  0  0  0  0  0  0  0  0
   38.3080   31.5130   38.6960 C   0  0  0  0  0  0  0  0  0  0  0  0
   37.7140   31.3510   37.4680 C   0  0  0  0  0  0  0  0  0  0  0  0
   36.6470   30.4880   37.2800 C   0  0  0  0  0  0  0  0  0  0  0  0
   36.1570   29.7660   38.3400 C   0  0  0  0  0  0  0  0  0  0  0  0
   36.7260   29.8970   39.5980 C   0  0  0  0  0  0  0  0  0  0  0  0
   38.0870   31.9120   36.6240 H   0  0  0  0  0  0  0  0  0  0  0  0
   36.1580   30.3390   36.3290 H   0  0  0  0  0  0  0  0  0  0  0  0
   35.3260   29.0630   38.3010 H   0  0  0  0  0  0  0  0  0  0  0  0
   41.6530   33.2370   38.4900 C   0  0  0  0  0  0  0  0  0  0  0  0
   40.5950   32.3560   38.2030 C   0  0  0  0  0  0  0  0  0  0  0  0
   39.4170   32.3930   38.9510 C   0  0  0  0  0  0  0  0  0  0  0  0
   39.3940   33.3150   39.9320 N   0  0  0  0  0  0  0  0  0  0  0  0
   40.3980   34.1600   40.2140 C   0  0  0  0  0  0  0  0  0  0  0  0
   41.5280   34.1210   39.4920 N   0  0  0  0  0  0  0  0  0  0  0  0
   42.5580   33.1950   37.8990 H   0  0  0  0  0  0  0  0  0  0  0  0
   40.6900   31.6490   37.4050 H   0  0  0  0  0  0  0  0  0  0  0  0
   40.3090   34.8760   41.0180 H   0  0  0  0  0  0  0  0  0  0  0  0
   38.3670   30.9080   40.9980 O   0  0  0  0  0  0  0  0  0  0  0  0
   39.0630   31.6150   41.1950 H   0  0  0  0  0  0  0  0  0  0  0  0
   36.2820   29.2030   40.7040 O   0  0  0  0  0  0  0  0  0  0  0  0
   37.3350   28.7750   43.5050 Cl  0  0  0  0  0  0  0  0  0  0  0  0
   37.2050   27.5500   42.2930 C   0  0  0  0  0  0  0  0  0  0  0  0
   36.7010   27.9310   41.0710 C   0  0  0  0  0  0  0  0  0  0  0  0
   36.5620   27.0030   40.0310 C   0  0  0  0  0  0  0  0  0  0  0  0
   36.1740   27.2310   39.0460 H   0  0  0  0  0  0  0  0  0  0  0  0
   36.9590   25.6910   40.3080 C   0  0  0  0  0  3  0  0  0  0  0  0
   37.4640   25.3200   41.5400 C   0  0  0  0  0  0  0  0  0  0  0  0
   37.9480   23.6660   41.8410 Cl  0  0  0  0  0  0  0  0  0  0  0  0
   37.5920   26.2580   42.5540 C   0  0  0  0  0  0  0  0  0  0  0  0
   37.9820   26.0130   43.5330 H   0  0  0  0  0  0  0  0  0  0  0  0
  1 19  1  0  0  0  0
  2 12  1  0  0  0  0
  2  1  2  0  0  0  0
  3  2  1  0  0  0  0
  4  3  2  0  0  0  0
  4  5  1  0  0  0  0
  5  6  2  0  0  0  0
  6  1  1  0  0  0  0
  6 21  1  0  0  0  0
  7  3  1  0  0  0  0
  8  4  1  0  0  0  0
  9  5  1  0  0  0  0
 10 15  1  0  0  0  0
 11 10  2  0  0  0  0
 11 12  1  0  0  0  0
 12 13  2  0  0  0  0
 13 14  1  0  0  0  0
 14 18  1  0  0  0  0
 15 14  2  0  0  0  0
 16 10  1  0  0  0  0
 17 11  1  0  0  0  0
 19 20  1  0  0  0  0
 21 24  1  0  0  0  0
 23 30  1  0  0  0  0
 23 22  1  0  0  0  0
 24 23  2  0  0  0  0
 25 27  2  0  0  0  0
 25 24  1  0  0  0  0
 26 25  1  0  0  0  0
 27 28  1  0  0  0  0
 28 29  1  0  0  0  0
 28 30  2  0  0  0  0
 30 31  1  0  0  0  0
M  END
>  <minimizedAffinity>
-5.39536619

$$$$

 OpenBabel03242513283D

 31 33  0  0  0  0  0  0  0  0999 V2000
   38.1600   29.6710   41.0110 C   0  0  0  0  0  0  0  0  0  0  0  0
   37.6790   30.7720   40.3590 C   0  0  0  0  0  0  0  0  0  0  0  0
   36.3510   30.7480   40.0100 C   0  0  0  0  0  0  0  0  0  0  0  0
   35.5370   29.6660   40.3020 C   0  0  0  0  0  0  0  0  0  0  0  0
   36.0570   28.5780   40.9580 C   0  0  0  0  0  0  0  0  0  0  0  0
   37.3930   28.5590   41.3300 C   0  0  0  0  0  0  0  0  0  0  0  0
   35.9260   31.5960   39.4930 H   0  0  0  0  0  0  0  0  0  0  0  0
   34.4910   29.6160   40.0410 H   0  0  0  0  0  0  0  0  0  0  0  0
   35.5070   27.6790   41.2340 H   0  0  0  0  0  0  0  0  0  0  0  0
   39.3290   34.1610   40.3770 C   0  0  0  0  0  0  0  0  0  0  0  0
   38.4330   33.1210   40.6790 C   0  0  0  0  0  0  0  0  0  0  0  0
   38.5710   31.8670   40.0820 C   0  0  0  0  0  0  0  0  0  0  0  0
   39.6040   31.7550   39.2240 N   0  0  0  0  0  0  0  0  0  0  0  0
   40.4640   32.7420   38.9290 C   0  0  0  0  0  0  0  0  0  0  0  0
   40.3270   33.9440   39.5060 N   0  0  0  0  0  0  0  0  0  0  0  0
   39.2070   35.1260   40.8500 H   0  0  0  0  0  0  0  0  0  0  0  0
   37.6340   33.2880   41.3730 H   0  0  0  0  0  0  0  0  0  0  0  0
   41.2710   32.5800   38.2290 H   0  0  0  0  0  0  0  0  0  0  0  0
   39.5100   29.6500   41.3860 O   0  0  0  0  0  0  0  0  0  0  0  0
   40.0980   30.4670   41.2980 H   0  0  0  0  0  0  0  0  0  0  0  0
   37.9770   27.4990   41.9920 O   0  0  0  0  0  0  0  0  0  0  0  0
   40.0660   26.7470   39.9400 Cl  0  0  0  0  0  0  0  0  0  0  0  0
   38.8890   25.6680   40.6030 C   0  0  0  0  0  0  0  0  0  0  0  0
   38.0150   26.1910   41.5290 C   0  0  0  0  0  0  0  0  0  0  0  0
   37.0290   25.3880   42.1170 C   0  0  0  0  0  0  0  0  0  0  0  0
   36.3090   25.7290   42.8500 H   0  0  0  0  0  0  0  0  0  0  0  0
   36.9890   24.0500   41.7120 C   0  0  0  0  0  3  0  0  0  0  0  0
   37.8730   23.5370   40.7810 C   0  0  0  0  0  0  0  0  0  0  0  0
   37.7860   21.8560   40.3050 Cl  0  0  0  0  0  0  0  0  0  0  0  0
   38.8410   24.3520   40.2120 C   0  0  0  0  0  0  0  0  0  0  0  0
   39.5530   23.9940   39.4800 H   0  0  0  0  0  0  0  0  0  0  0  0
  1  6  1  0  0  0  0
  1 19  1  0  0  0  0
  2  1  2  0  0  0  0
  3  4  2  0  0  0  0
  3  2  1  0  0  0  0
  4  5  1  0  0  0  0
  5  9  1  0  0  0  0
  5  6  2  0  0  0  0
  6 21  1  0  0  0  0
  7  3  1  0  0  0  0
  8  4  1  0  0  0  0
 10 11  1  0  0  0  0
 10 16  1  0  0  0  0
 11 17  1  0  0  0  0
 12  2  1  0  0  0  0
 12 11  2  0  0  0  0
 13 12  1  0  0  0  0
 14 13  2  0  0  0  0
 14 15  1  0  0  0  0
 15 10  2  0  0  0  0
 18 14  1  0  0  0  0
 20 19  1  0  0  0  0
 22 23  1  0  0  0  0
 23 24  1  0  0  0  0
 24 21  1  0  0  0  0
 24 25  2  0  0  0  0
 25 26  1  0  0  0  0
 27 25  1  0  0  0  0
 28 27  2  0  0  0  0
 29 28  1  0  0  0  0
 30 23  2  0  0  0  0
 30 28  1  0  0  0  0
 31 30  1  0  0  0  0
M  END
>  <minimizedAffinity>
-5.33659172

$$$$

 OpenBabel03242513283D

 31 33  0  0  0  0  0  0  0  0999 V2000
   36.4300   28.5230   39.9710 C   0  0  0  0  0  0  0  0  0  0  0  0
   36.2780   29.4910   39.0170 C   0  0  0  0  0  0  0  0  0  0  0  0
   36.3880   30.7930   39.4400 C   0  0  0  0  0  0  0  0  0  0  0  0
   36.6410   31.1140   40.7640 C   0  0  0  0  0  0  0  0  0  0  0  0
   36.7880   30.1130   41.6920 C   0  0  0  0  0  0  0  0  0  0  0  0
   36.6840   28.7830   41.3110 C   0  0  0  0  0  0  0  0  0  0  0  0
   36.2760   31.5920   38.7220 H   0  0  0  0  0  0  0  0  0  0  0  0
   36.7330   32.1250   41.1280 H   0  0  0  0  0  0  0  0  0  0  0  0
   36.9870   30.2550   42.7540 H   0  0  0  0  0  0  0  0  0  0  0  0
   36.5990   28.9770   35.2970 C   0  0  0  0  0  0  0  0  0  0  0  0
   36.8970   29.3800   36.6100 C   0  0  0  0  0  0  0  0  0  0  0  0
   36.0180   29.0990   37.6580 C   0  0  0  0  0  0  0  0  0  0  0  0
   34.9030   28.4320   37.3020 N   0  0  0  0  0  0  0  0  0  0  0  0
   34.6090   28.0440   36.0510 C   0  0  0  0  0  0  0  0  0  0  0  0
   35.4570   28.3160   35.0490 N   0  0  0  0  0  0  0  0  0  0  0  0
   37.2920   29.2030   34.4990 H   0  0  0  0  0  0  0  0  0  0  0  0
   37.8060   29.9090   36.8150 H   0  0  0  0  0  0  0  0  0  0  0  0
   33.6940   27.5110   35.8380 H   0  0  0  0  0  0  0  0  0  0  0  0
   36.3250   27.1790   39.5860 O   0  0  0  0  0  0  0  0  0  0  0  0
   36.2640   26.9100   38.6140 H   0  0  0  0  0  0  0  0  0  0  0  0
   36.8220   27.7320   42.1920 O   0  0  0  0  0  0  0  0  0  0  0  0
   36.8740   24.7190   41.9580 Cl  0  0  0  0  0  0  0  0  0  0  0  0
   38.2210   25.7050   42.4050 C   0  0  0  0  0  0  0  0  0  0  0  0
   38.0090   27.0640   42.4600 C   0  0  0  0  0  0  0  0  0  0  0  0
   39.0450   27.9370   42.8140 C   0  0  0  0  0  0  0  0  0  0  0  0
   38.9520   29.0140   42.8780 H   0  0  0  0  0  0  0  0  0  0  0  0
   40.2830   27.3540   43.1030 C   0  0  0  0  0  3  0  0  0  0  0  0
   40.4830   25.9880   43.0440 C   0  0  0  0  0  0  0  0  0  0  0  0
   42.0500   25.3020   43.4130 Cl  0  0  0  0  0  0  0  0  0  0  0  0
   39.4410   25.1420   42.6910 C   0  0  0  0  0  0  0  0  0  0  0  0
   39.5520   24.0670   42.6320 H   0  0  0  0  0  0  0  0  0  0  0  0
  1  6  1  0  0  0  0
  2  3  1  0  0  0  0
  2  1  2  0  0  0  0
  3  4  2  0  0  0  0
  4  8  1  0  0  0  0
  4  5  1  0  0  0  0
  5  9  1  0  0  0  0
  6  5  2  0  0  0  0
  6 21  1  0  0  0  0
  7  3  1  0  0  0  0
 10 11  1  0  0  0  0
 11 17  1  0  0  0  0
 11 12  2  0  0  0  0
 12  2  1  0  0  0  0
 13 12  1  0  0  0  0
 14 13  2  0  0  0  0
 15 10  2  0  0  0  0
 15 14  1  0  0  0  0
 16 10  1  0  0  0  0
 18 14  1  0  0  0  0
 19  1  1  0  0  0  0
 20 19  1  0  0  0  0
 21 24  1  0  0  0  0
 22 23  1  0  0  0  0
 23 24  2  0  0  0  0
 23 30  1  0  0  0  0
 24 25  1  0  0  0  0
 25 26  1  0  0  0  0
 25 27  2  0  0  0  0
 28 27  1  0  0  0  0
 28 29  1  0  0  0  0
 30 28  2  0  0  0  0
 31 30  1  0  0  0  0
M  END
>  <minimizedAffinity>
-5.28089619

$$$$

 OpenBabel03242513283D

 31 33  0  0  0  0  0  0  0  0999 V2000
   36.8800   26.8670   40.3750 C   0  0  0  0  0  0  0  0  0  0  0  0
   36.9560   25.7960   41.2230 C   0  0  0  0  0  0  0  0  0  0  0  0
   36.9660   26.0770   42.5670 C   0  0  0  0  0  0  0  0  0  0  0  0
   36.9020   27.3760   43.0440 C   0  0  0  0  0  0  0  0  0  0  0  0
   36.8260   28.4250   42.1610 C   0  0  0  0  0  0  0  0  0  0  0  0
   36.8140   28.1880   40.7940 C   0  0  0  0  0  0  0  0  0  0  0  0
   37.0250   25.2640   43.2750 H   0  0  0  0  0  0  0  0  0  0  0  0
   36.9080   27.6300   44.0930 H   0  0  0  0  0  0  0  0  0  0  0  0
   36.7720   29.4790   42.4290 H   0  0  0  0  0  0  0  0  0  0  0  0
   38.0990   22.3090   40.3640 C   0  0  0  0  0  0  0  0  0  0  0  0
   38.0800   23.5970   40.9270 C   0  0  0  0  0  0  0  0  0  0  0  0
   37.0210   24.4700   40.6710 C   0  0  0  0  0  0  0  0  0  0  0  0
   36.0590   23.9770   39.8660 N   0  0  0  0  0  0  0  0  0  0  0  0
   36.0690   22.7500   39.3230 C   0  0  0  0  0  0  0  0  0  0  0  0
   37.0880   21.9150   39.5730 N   0  0  0  0  0  0  0  0  0  0  0  0
   38.9270   21.6460   40.5740 H   0  0  0  0  0  0  0  0  0  0  0  0
   38.8830   23.9170   41.5580 H   0  0  0  0  0  0  0  0  0  0  0  0
   35.2610   22.4210   38.6850 H   0  0  0  0  0  0  0  0  0  0  0  0
   36.8680   26.6290   38.9940 O   0  0  0  0  0  0  0  0  0  0  0  0
   36.7910   25.6940   38.6170 H   0  0  0  0  0  0  0  0  0  0  0  0
   36.7380   29.1950   39.8550 O   0  0  0  0  0  0  0  0  0  0  0  0
   39.5890   28.8330   38.9190 Cl  0  0  0  0  0  0  0  0  0  0  0  0
   38.8870   30.3340   39.4080 C   0  0  0  0  0  0  0  0  0  0  0  0
   37.5690   30.3060   39.8050 C   0  0  0  0  0  0  0  0  0  0  0  0
   36.9200   31.4770   40.2180 C   0  0  0  0  0  0  0  0  0  0  0  0
   35.8880   31.5300   40.5440 H   0  0  0  0  0  0  0  0  0  0  0  0
   37.6790   32.6510   40.2020 C   0  0  0  0  0  3  0  0  0  0  0  0
   39.0010   32.6660   39.8010 C   0  0  0  0  0  0  0  0  0  0  0  0
   39.9120   34.1600   39.7970 Cl  0  0  0  0  0  0  0  0  0  0  0  0
   39.6230   31.4940   39.3960 C   0  0  0  0  0  0  0  0  0  0  0  0
   40.6560   31.4590   39.0740 H   0  0  0  0  0  0  0  0  0  0  0  0
  1  6  2  0  0  0  0
  1  2  1  0  0  0  0
  2  3  2  0  0  0  0
  3  4  1  0  0  0  0
  3  7  1  0  0  0  0
  4  8  1  0  0  0  0
  5  9  1  0  0  0  0
  5  4  2  0  0  0  0
  6  5  1  0  0  0  0
 10 16  1  0  0  0  0
 10 11  1  0  0  0  0
 11 17  1  0  0  0  0
 12 11  2  0  0  0  0
 12  2  1  0  0  0  0
 13 12  1  0  0  0  0
 14 15  1  0  0  0  0
 14 13  2  0  0  0  0
 15 10  2  0  0  0  0
 18 14  1  0  0  0  0
 19  1  1  0  0  0  0
 20 19  1  0  0  0  0
 21  6  1  0  0  0  0
 22 23  1  0  0  0  0
 23 24  1  0  0  0  0
 24 21  1  0  0  0  0
 24 25  2  0  0  0  0
 25 26  1  0  0  0  0
 27 25  1  0  0  0  0
 28 27  2  0  0  0  0
 29 28  1  0  0  0  0
 30 23  2  0  0  0  0
 30 28  1  0  0  0  0
 31 30  1  0  0  0  0
M  END
>  <minimizedAffinity>
-5.2333045

$$$$
