
 OpenBabel03242521283D

 36 38  0  0  1  0  0  0  0  0999 V2000
   48.2180   33.5540   42.5990 C   0  0  1  0  0  0  0  0  0  0  0  0
   46.7450   33.7350   42.3330 C   0  0  2  0  0  0  0  0  0  0  0  0
   46.4880   34.6720   41.3510 O   0  0  0  0  0  0  0  0  0  0  0  0
   46.9040   34.0980   40.1610 C   0  0  0  0  0  0  0  0  0  0  0  0
   48.3920   34.0770   40.1330 C   0  0  2  0  0  0  0  0  0  0  0  0
   49.0610   33.5010   41.3590 C   0  0  2  0  0  0  0  0  0  0  0  0
   48.3260   32.5650   43.1210 H   0  0  0  0  0  0  0  0  0  0  0  0
   46.3430   32.7260   42.0730 H   0  0  0  0  0  0  0  0  0  0  0  0
   46.5660   34.7770   39.3550 H   0  0  0  0  0  0  0  0  0  0  0  0
   46.4360   33.1130   39.9730 H   0  0  0  0  0  0  0  0  0  0  0  0
   48.7100   33.4970   39.2390 H   0  0  0  0  0  0  0  0  0  0  0  0
   49.9150   34.1940   41.5490 H   0  0  0  0  0  0  0  0  0  0  0  0
   44.5950   35.6330   44.8110 C   0  0  0  0  0  0  0  0  0  0  0  0
   45.2250   35.2930   43.5970 C   0  0  0  0  0  0  0  0  0  0  0  0
   46.0460   34.1340   43.5740 C   0  0  0  0  0  0  0  0  0  0  0  0
   46.1790   33.4200   44.7160 N   0  0  0  0  0  0  0  0  0  0  0  0
   45.5580   33.7760   45.8640 C   0  0  0  0  0  0  0  0  0  0  0  0
   44.7650   34.8830   45.9140 N   0  0  0  0  0  0  0  0  0  0  0  0
   43.9860   36.5260   44.7560 H   0  0  0  0  0  0  0  0  0  0  0  0
   45.1380   35.8440   42.6770 H   0  0  0  0  0  0  0  0  0  0  0  0
   45.6700   33.1940   46.7820 H   0  0  0  0  0  0  0  0  0  0  0  0
   48.7000   34.4870   43.5250 O   0  0  0  0  0  0  0  0  0  0  0  0
   48.2960   35.3660   43.2790 H   0  0  0  0  0  0  0  0  0  0  0  0
   48.7800   35.4210   39.9270 O   0  0  0  0  0  0  0  0  0  0  0  0
   49.2440   35.5230   39.0540 H   0  0  0  0  0  0  0  0  0  0  0  0
   49.5720   32.2510   41.1250 O   0  0  0  0  0  0  0  0  0  0  0  0
   48.8630   30.8750   38.3850 Cl  0  0  0  0  0  0  0  0  0  0  0  0
   50.4480   31.0220   39.0970 C   0  0  0  0  0  0  0  0  0  0  0  0
   50.4550   31.6760   40.3070 C   0  0  0  0  0  0  0  0  0  0  0  0
   51.7300   31.7990   40.8870 C   0  0  0  0  0  0  0  0  0  0  0  0
   52.0200   32.2690   41.8360 H   0  0  0  0  0  0  0  0  0  0  0  0
   52.8800   31.2910   40.2680 C   0  0  0  0  0  0  0  0  0  0  0  0
   52.7500   30.6570   39.0620 C   0  0  0  0  0  0  0  0  0  0  0  0
   54.1340   29.9930   38.2180 Cl  0  0  0  0  0  0  0  0  0  0  0  0
   51.5450   30.5090   38.4540 C   0  0  0  0  0  0  0  0  0  0  0  0
   51.3700   30.0220   37.5060 H   0  0  0  0  0  0  0  0  0  0  0  0
  1  7  1  1  0  0  0
  1 22  1  0  0  0  0
  2  8  1  6  0  0  0
  2  1  1  0  0  0  0
  2 15  1  0  0  0  0
  3  2  1  0  0  0  0
  4  3  1  0  0  0  0
  5 11  1  6  0  0  0
  5  4  1  0  0  0  0
  5  6  1  0  0  0  0
  6 12  1  1  0  0  0
  6  1  1  0  0  0  0
  9  4  1  0  0  0  0
 10  4  1  0  0  0  0
 13 18  1  0  0  0  0
 14 13  2  0  0  0  0
 15 14  1  0  0  0  0
 15 16  2  0  0  0  0
 16 17  1  0  0  0  0
 17 18  2  0  0  0  0
 17 21  1  0  0  0  0
 19 13  1  0  0  0  0
 20 14  1  0  0  0  0
 23 22  1  0  0  0  0
 24  5  1  0  0  0  0
 25 24  1  0  0  0  0
 26  6  1  0  0  0  0
 27 28  1  0  0  0  0
 28 29  1  0  0  0  0
 29 30  2  0  0  0  0
 29 26  1  0  0  0  0
 30 31  1  0  0  0  0
 32 30  1  0  0  0  0
 33 32  2  0  0  0  0
 34 33  1  0  0  0  0
 35 33  1  0  0  0  0
 35 28  2  0  0  0  0
 36 35  1  0  0  0  0
M  END
>  <minimizedAffinity>
-5.73666096

>  <minimizedRMSD>
1.31730819

$$$$
