
 OpenBabel03252501103D

 21 22  0  0  0  0  0  0  0  0999 V2000
   46.8690   34.7500   42.1580 C   0  0  0  0  0  0  0  0  0  0  0  0
   47.7600   35.6110   41.8660 O   0  0  0  0  0  0  0  0  0  0  0  0
   44.1870   34.7430   40.6970 Cl  0  0  0  0  0  0  0  0  0  0  0  0
   45.5770   33.7500   40.2900 C   0  0  0  0  0  0  0  0  0  0  0  0
   46.7510   33.8320   41.0230 C   0  0  0  0  0  0  0  0  0  0  0  0
   47.7660   32.9930   40.5920 C   0  0  0  0  0  0  0  0  0  0  0  0
   48.7120   33.0180   41.1340 H   0  0  0  0  0  0  0  0  0  0  0  0
   47.6060   32.1450   39.5150 C   0  0  0  0  0  3  0  0  0  0  0  0
   46.4270   32.0970   38.8210 C   0  0  0  0  0  0  0  0  0  0  0  0
   46.2970   30.9930   37.4600 Cl  0  0  0  0  0  0  0  0  0  0  0  0
   45.4000   32.9080   39.2110 C   0  0  0  0  0  0  0  0  0  0  0  0
   44.4750   32.8570   38.6510 H   0  0  0  0  0  0  0  0  0  0  0  0
   44.5480   35.9060   44.7930 C   0  0  0  0  0  0  0  0  0  0  0  0
   45.2730   35.8370   43.5900 C   0  0  0  0  0  0  0  0  0  0  0  0
   46.1600   34.7620   43.4070 C   0  0  0  0  0  0  0  0  0  0  0  0
   46.2480   33.8660   44.4170 N   0  0  0  0  0  0  0  0  0  0  0  0
   45.5480   33.9510   45.5570 C   0  0  0  0  0  0  0  0  0  0  0  0
   44.6810   34.9880   45.7520 N   0  0  0  0  0  0  0  0  0  0  0  0
   43.8730   36.7360   44.9200 H   0  0  0  0  0  0  0  0  0  0  0  0
   45.1130   36.6160   42.8620 H   0  0  0  0  0  0  0  0  0  0  0  0
   45.6940   33.1730   46.3100 H   0  0  0  0  0  0  0  0  0  0  0  0
  1 15  1  0  0  0  0
  2  1  2  0  0  0  0
  4  3  1  0  0  0  0
  4  5  1  0  0  0  0
  5  1  1  0  0  0  0
  6  5  2  0  0  0  0
  6  7  1  0  0  0  0
  8  6  1  0  0  0  0
  9 11  1  0  0  0  0
  9  8  2  0  0  0  0
 10  9  1  0  0  0  0
 11  4  2  0  0  0  0
 12 11  1  0  0  0  0
 13 19  1  0  0  0  0
 13 18  1  0  0  0  0
 14 13  2  0  0  0  0
 15 14  1  0  0  0  0
 15 16  2  0  0  0  0
 16 17  1  0  0  0  0
 17 18  2  0  0  0  0
 17 21  1  0  0  0  0
 20 14  1  0  0  0  0
M  END
>  <minimizedAffinity>
-4.26406527

>  <minimizedRMSD>
0.639080226

$$$$
