
 OpenBabel03252509293D

 22 23  0  0  0  0  0  0  0  0999 V2000
   45.6810   32.6200   42.4350 C   0  0  0  0  0  0  0  0  0  0  0  0
   46.3840   31.8880   42.9180 H   0  0  0  0  0  0  0  0  0  0  0  0
   44.7660   32.0760   42.1240 H   0  0  0  0  0  0  0  0  0  0  0  0
   44.6130   31.7190   39.8270 Cl  0  0  0  0  0  0  0  0  0  0  0  0
   46.0030   32.7930   39.9720 C   0  0  0  0  0  0  0  0  0  0  0  0
   46.4090   33.1440   41.2600 C   0  0  0  0  0  0  0  0  0  0  0  0
   47.5130   33.9960   41.3710 C   0  0  0  0  0  0  0  0  0  0  0  0
   47.8460   34.2830   42.3770 H   0  0  0  0  0  0  0  0  0  0  0  0
   48.1950   34.4860   40.2730 C   0  0  0  0  0  3  0  0  0  0  0  0
   47.7730   34.1230   38.9900 C   0  0  0  0  0  0  0  0  0  0  0  0
   48.6150   34.7270   37.5730 Cl  0  0  0  0  0  0  0  0  0  0  0  0
   46.6760   33.2750   38.8570 C   0  0  0  0  0  0  0  0  0  0  0  0
   46.3400   32.9870   37.8560 H   0  0  0  0  0  0  0  0  0  0  0  0
   44.3680   35.7700   43.8970 C   0  0  0  0  0  0  0  0  0  0  0  0
   44.7180   34.8010   42.9400 C   0  0  0  0  0  0  0  0  0  0  0  0
   45.3190   33.6260   43.4240 C   0  0  0  0  0  0  0  0  0  0  0  0
   45.5190   33.5060   44.7680 N   0  0  0  0  0  0  0  0  0  0  0  0
   45.1620   34.4740   45.6440 C   0  0  0  0  0  0  0  0  0  0  0  0
   44.5840   35.6070   45.2000 N   0  0  0  0  0  0  0  0  0  0  0  0
   43.9010   36.6770   43.4940 H   0  0  0  0  0  0  0  0  0  0  0  0
   44.5440   34.9290   41.8820 H   0  0  0  0  0  0  0  0  0  0  0  0
   45.3680   34.2730   46.6940 H   0  0  0  0  0  0  0  0  0  0  0  0
  1  2  1  0  0  0  0
  1 16  1  0  0  0  0
  3  1  1  0  0  0  0
  4  5  1  0  0  0  0
  5  6  1  0  0  0  0
  6  7  2  0  0  0  0
  6  1  1  0  0  0  0
  7  8  1  0  0  0  0
  9  7  1  0  0  0  0
 10  9  2  0  0  0  0
 11 10  1  0  0  0  0
 12 10  1  0  0  0  0
 12  5  2  0  0  0  0
 13 12  1  0  0  0  0
 14 19  1  0  0  0  0
 15 16  1  0  0  0  0
 15 14  2  0  0  0  0
 16 17  2  0  0  0  0
 17 18  1  0  0  0  0
 18 22  1  0  0  0  0
 19 18  2  0  0  0  0
 20 14  1  0  0  0  0
 21 15  1  0  0  0  0
M  END
>  <minimizedAffinity>
-4.15705633

>  <minimizedRMSD>
3.48423648

$$$$
