
 OpenBabel03252506373D

 45 48  0  0  1  0  0  0  0  0999 V2000
   44.5260   35.4760   45.1420 C   0  0  0  0  0  0  0  0  0  0  0  0
   45.1780   35.4730   43.9030 C   0  0  0  0  0  0  0  0  0  0  0  0
   46.1020   34.5200   43.6450 C   0  0  0  0  0  0  0  0  0  0  0  0
   46.3420   33.6100   44.6210 N   0  0  0  0  0  0  0  0  0  0  0  0
   45.7230   33.6170   45.7910 C   0  0  0  0  0  0  0  0  0  0  0  0
   44.8090   34.5430   46.0710 N   0  0  0  0  0  0  0  0  0  0  0  0
   46.0590   32.6060   46.7560 N   0  0  0  0  0  0  0  0  0  0  0  0
   45.3190   32.3520   47.9420 C   0  0  0  0  0  0  0  0  0  0  0  0
   46.3970   32.0050   48.9540 C   0  0  0  0  0  0  0  0  0  0  0  0
   47.6790   31.9200   48.1870 C   0  0  0  0  0  0  0  0  0  0  0  0
   47.1870   31.7030   46.7560 C   0  0  1  0  0  0  0  0  0  0  0  0
   43.7970   36.2380   45.3270 H   0  0  0  0  0  0  0  0  0  0  0  0
   46.6200   34.4940   42.7000 H   0  0  0  0  0  0  0  0  0  0  0  0
   44.4880   31.7270   48.0200 H   0  0  0  0  0  0  0  0  0  0  0  0
   44.9630   33.3700   48.3050 H   0  0  0  0  0  0  0  0  0  0  0  0
   46.4050   32.6200   49.8480 H   0  0  0  0  0  0  0  0  0  0  0  0
   46.1790   30.9490   49.2930 H   0  0  0  0  0  0  0  0  0  0  0  0
   48.3030   31.0870   48.5460 H   0  0  0  0  0  0  0  0  0  0  0  0
   48.1740   32.9090   48.2840 H   0  0  0  0  0  0  0  0  0  0  0  0
   47.9940   32.0120   46.0530 H   0  0  0  0  0  0  0  0  0  0  0  0
   44.8200   36.5030   42.9640 N   0  0  0  0  0  0  0  0  0  0  0  0
   44.8410   37.4990   43.2450 H   0  0  0  0  0  0  0  0  0  0  0  0
   44.5680   36.0630   42.0570 H   0  0  0  0  0  0  0  0  0  0  0  0
   46.6850   30.0080   46.5680 S   0  0  0  0  0  0  0  0  0  0  0  0
   45.5090   30.4340   43.4760 O   0  0  0  0  0  0  0  0  0  0  0  0
   44.9260   29.9160   44.4420 C   0  0  0  0  0  0  0  0  0  0  0  0
   45.0960   29.7190   45.9030 C   0  0  1  0  0  0  0  0  0  0  0  0
   44.5580   28.3220   46.0900 C   0  0  0  0  0  0  0  0  0  0  0  0
   43.2070   28.5290   45.3960 C   0  0  0  0  0  0  0  0  0  0  0  0
   43.6630   29.2610   44.2210 N   0  0  0  0  0  0  0  0  0  0  0  0
   44.2380   30.3330   46.2850 H   0  0  0  0  0  0  0  0  0  0  0  0
   45.1440   27.5660   45.5290 H   0  0  0  0  0  0  0  0  0  0  0  0
   44.4290   28.1080   47.1530 H   0  0  0  0  0  0  0  0  0  0  0  0
   42.7220   27.5790   45.1680 H   0  0  0  0  0  0  0  0  0  0  0  0
   42.5770   29.1690   46.0470 H   0  0  0  0  0  0  0  0  0  0  0  0
   44.2580   27.2190   42.0490 Cl  0  0  0  0  0  0  0  0  0  0  0  0
   42.9290   28.3580   42.0140 C   0  0  0  0  0  0  0  0  0  0  0  0
   42.7990   29.2090   43.0660 C   0  0  0  0  0  0  0  0  0  0  0  0
   41.7530   30.1070   43.0410 C   0  0  0  0  0  0  0  0  0  0  0  0
   41.5910   30.8220   43.8610 H   0  0  0  0  0  0  0  0  0  0  0  0
   40.8190   30.2050   42.0150 C   0  0  0  0  0  3  0  0  0  0  0  0
   40.9650   29.3240   40.9390 C   0  0  0  0  0  0  0  0  0  0  0  0
   39.8300   29.3860   39.6090 Cl  0  0  0  0  0  0  0  0  0  0  0  0
   42.0150   28.4360   40.9830 C   0  0  0  0  0  0  0  0  0  0  0  0
   42.1260   27.7470   40.1370 H   0  0  0  0  0  0  0  0  0  0  0  0
  1 12  1  0  0  0  0
  1  6  1  0  0  0  0
  2  1  2  0  0  0  0
  3  2  1  0  0  0  0
  3  4  2  0  0  0  0
  4  5  1  0  0  0  0
  5  6  2  0  0  0  0
  5  7  1  0  0  0  0
  7  8  1  0  0  0  0
  8 14  1  0  0  0  0
  8 15  1  0  0  0  0
  8  9  1  0  0  0  0
  9 17  1  0  0  0  0
  9 16  1  0  0  0  0
 10 19  1  0  0  0  0
 10 18  1  0  0  0  0
 10  9  1  0  0  0  0
 11 20  1  6  0  0  0
 11  7  1  0  0  0  0
 11 10  1  0  0  0  0
 13  3  1  0  0  0  0
 21 22  1  0  0  0  0
 21  2  1  0  0  0  0
 23 21  1  0  0  0  0
 24 11  1  0  0  0  0
 25 26  2  0  0  0  0
 26 27  1  0  0  0  0
 27 28  1  0  0  0  0
 27 31  1  1  0  0  0
 27 24  1  0  0  0  0
 28 33  1  0  0  0  0
 29 35  1  0  0  0  0
 29 28  1  0  0  0  0
 30 26  1  0  0  0  0
 30 29  1  0  0  0  0
 32 28  1  0  0  0  0
 34 29  1  0  0  0  0
 37 36  1  0  0  0  0
 37 38  1  0  0  0  0
 38 30  1  0  0  0  0
 39 38  2  0  0  0  0
 39 40  1  0  0  0  0
 41 39  1  0  0  0  0
 42 44  1  0  0  0  0
 42 41  2  0  0  0  0
 43 42  1  0  0  0  0
 44 37  2  0  0  0  0
 45 44  1  0  0  0  0
M  END
>  <minimizedAffinity>
-5.4747448

>  <minimizedRMSD>
0.625973225

$$$$
