
 OpenBabel03252505403D

 29 31  0  0  1  0  0  0  0  0999 V2000
   44.8370   34.4420   43.3900 C   0  0  1  0  0  0  0  0  0  0  0  0
   45.5440   35.8130   43.2360 C   0  0  0  0  0  0  0  0  0  0  0  0
   45.1850   34.9850   42.0820 C   0  0  1  0  0  0  0  0  0  0  0  0
   43.8150   34.4910   43.8060 H   0  0  0  0  0  0  0  0  0  0  0  0
   44.8690   36.6650   43.5510 H   0  0  0  0  0  0  0  0  0  0  0  0
   46.4930   35.8710   43.7580 H   0  0  0  0  0  0  0  0  0  0  0  0
   44.2520   35.4340   41.5470 H   0  0  0  0  0  0  0  0  0  0  0  0
   48.2810   35.6220   41.9840 Cl  0  0  0  0  0  0  0  0  0  0  0  0
   47.4230   34.5800   40.8780 C   0  0  0  0  0  0  0  0  0  0  0  0
   46.0770   34.4220   41.0910 C   0  0  0  0  0  0  0  0  0  0  0  0
   45.5110   33.5650   40.1300 C   0  0  0  0  0  0  0  0  0  0  0  0
   44.4420   33.3410   40.1670 H   0  0  0  0  0  0  0  0  0  0  0  0
   46.2130   32.9620   39.1100 C   0  0  0  0  0  3  0  0  0  0  0  0
   47.5670   33.1790   38.9730 C   0  0  0  0  0  0  0  0  0  0  0  0
   48.4080   32.4010   37.6770 Cl  0  0  0  0  0  0  0  0  0  0  0  0
   48.1770   34.0110   39.8860 C   0  0  0  0  0  0  0  0  0  0  0  0
   49.2300   34.1890   39.7930 H   0  0  0  0  0  0  0  0  0  0  0  0
   45.6600   33.4110   44.0870 C   0  0  0  0  0  0  0  0  0  0  0  0
   46.4090   32.5170   43.3210 C   0  0  0  0  0  0  0  0  0  0  0  0
   47.1860   31.6010   43.9900 C   0  0  0  0  0  0  0  0  0  0  0  0
   47.1880   31.6070   45.3460 N   0  0  0  0  0  0  0  0  0  0  0  0
   46.4530   32.4810   46.0510 C   0  0  0  0  0  0  0  0  0  0  0  0
   45.6770   33.3970   45.4200 N   0  0  0  0  0  0  0  0  0  0  0  0
   46.4660   32.4360   42.2690 H   0  0  0  0  0  0  0  0  0  0  0  0
   47.8070   30.8610   43.4860 H   0  0  0  0  0  0  0  0  0  0  0  0
   46.5950   32.3310   47.5370 C   0  0  0  0  0  0  0  0  0  0  0  0
   45.5440   32.9200   48.2150 F   0  0  0  0  0  0  0  0  0  0  0  0
   47.7780   32.9360   47.9680 F   0  0  0  0  0  0  0  0  0  0  0  0
   46.7100   30.9810   47.8460 F   0  0  0  0  0  0  0  0  0  0  0  0
  1  4  1  1  0  0  0
  1 18  1  0  0  0  0
  2  1  1  0  0  0  0
  2  5  1  0  0  0  0
  2  6  1  0  0  0  0
  3  7  1  6  0  0  0
  3  2  1  0  0  0  0
  3  1  1  0  0  0  0
  9 10  1  0  0  0  0
  9  8  1  0  0  0  0
 10  3  1  0  0  0  0
 11 12  1  0  0  0  0
 11 10  2  0  0  0  0
 13 11  1  0  0  0  0
 14 13  2  0  0  0  0
 14 16  1  0  0  0  0
 15 14  1  0  0  0  0
 16  9  2  0  0  0  0
 17 16  1  0  0  0  0
 18 23  1  0  0  0  0
 19 20  1  0  0  0  0
 19 18  2  0  0  0  0
 20 21  2  0  0  0  0
 21 22  1  0  0  0  0
 22 26  1  0  0  0  0
 23 22  2  0  0  0  0
 24 19  1  0  0  0  0
 25 20  1  0  0  0  0
 26 29  1  0  0  0  0
 26 28  1  0  0  0  0
 26 27  1  0  0  0  0
M  END
>  <minimizedAffinity>
-5.35747766

>  <minimizedRMSD>
1.93465149

$$$$
