
 OpenBabel03252508153D

 38 41  0  0  1  0  0  0  0  0999 V2000
   46.2070   32.9770   45.8560 C   0  0  0  0  0  3  0  0  0  0  0  0
   46.8010   31.8890   45.5790 C   0  0  0  0  0  3  0  0  0  0  0  0
   44.7780   35.7650   43.9180 C   0  0  0  0  0  0  0  0  0  0  0  0
   45.3200   35.5910   42.6520 C   0  0  0  0  0  0  0  0  0  0  0  0
   46.1790   34.5170   42.5010 C   0  0  0  0  0  0  0  0  0  0  0  0
   46.4470   33.7110   43.5530 N   0  0  0  0  0  0  0  0  0  0  0  0
   45.9060   33.9040   44.7660 C   0  0  0  0  0  0  0  0  0  0  0  0
   45.0750   34.9410   44.9220 N   0  0  0  0  0  0  0  0  0  0  0  0
   44.0960   36.5430   44.2180 H   0  0  0  0  0  0  0  0  0  0  0  0
   44.9770   36.3400   41.9630 H   0  0  0  0  0  0  0  0  0  0  0  0
   48.8830   35.8220   41.8560 Cl  0  0  0  0  0  0  0  0  0  0  0  0
   47.9310   34.8630   40.7570 C   0  0  0  0  0  0  0  0  0  0  0  0
   46.7310   34.3350   41.1780 C   0  0  0  0  0  0  0  0  0  0  0  0
   46.1110   33.6010   40.1970 C   0  0  0  0  0  0  0  0  0  0  0  0
   45.1730   33.1240   40.3520 H   0  0  0  0  0  0  0  0  0  0  0  0
   46.6140   33.4040   38.9290 C   0  0  0  0  0  3  0  0  0  0  0  0
   47.8190   33.9550   38.5650 C   0  0  0  0  0  0  0  0  0  0  0  0
   48.4750   33.7210   36.9710 Cl  0  0  0  0  0  0  0  0  0  0  0  0
   48.4910   34.7060   39.5120 C   0  0  0  0  0  0  0  0  0  0  0  0
   49.4340   35.1330   39.2110 H   0  0  0  0  0  0  0  0  0  0  0  0
   47.0680   30.9680   46.7620 C   0  0  0  0  0  0  0  0  0  0  0  0
   46.2990   30.1490   46.7050 H   0  0  0  0  0  0  0  0  0  0  0  0
   48.0500   30.5000   46.7030 H   0  0  0  0  0  0  0  0  0  0  0  0
   46.8380   31.7180   48.0350 C   0  0  1  0  0  0  0  0  0  0  0  0
   46.2160   30.9600   49.1620 C   0  0  0  0  0  0  0  0  0  0  0  0
   47.6080   31.3560   49.2540 C   0  0  1  0  0  0  0  0  0  0  0  0
   46.5190   32.7860   47.9480 H   0  0  0  0  0  0  0  0  0  0  0  0
   45.4220   31.4400   49.7900 H   0  0  0  0  0  0  0  0  0  0  0  0
   46.0340   29.8560   49.0250 H   0  0  0  0  0  0  0  0  0  0  0  0
   47.8110   32.2100   49.9700 H   0  0  0  0  0  0  0  0  0  0  0  0
   48.7660   30.4530   49.0950 C   0  0  0  0  0  0  0  0  0  0  0  0
   49.6110   30.2690   50.3840 C   0  0  0  0  0  0  0  0  0  0  0  0
   50.1560   31.1050   49.2780 C   0  0  0  0  0  0  0  0  0  0  0  0
   48.7220   29.5920   48.4120 H   0  0  0  0  0  0  0  0  0  0  0  0
   50.0890   29.2710   50.4650 H   0  0  0  0  0  0  0  0  0  0  0  0
   49.2620   30.7840   51.2960 H   0  0  0  0  0  0  0  0  0  0  0  0
   50.9290   30.7410   48.5980 H   0  0  0  0  0  0  0  0  0  0  0  0
   50.1740   32.2120   49.3880 H   0  0  0  0  0  0  0  0  0  0  0  0
  2  1  2  0  0  0  0
  2 21  1  0  0  0  0
  3  9  1  0  0  0  0
  3  8  1  0  0  0  0
  4  3  2  0  0  0  0
  5  4  1  0  0  0  0
  5  6  2  0  0  0  0
  6  7  1  0  0  0  0
  7  8  2  0  0  0  0
  7  1  1  0  0  0  0
 10  4  1  0  0  0  0
 12 13  1  0  0  0  0
 12 11  1  0  0  0  0
 13  5  1  0  0  0  0
 14 15  1  0  0  0  0
 14 13  2  0  0  0  0
 16 14  1  0  0  0  0
 17 16  2  0  0  0  0
 17 19  1  0  0  0  0
 18 17  1  0  0  0  0
 19 12  2  0  0  0  0
 20 19  1  0  0  0  0
 21 24  1  0  0  0  0
 22 21  1  0  0  0  0
 23 21  1  0  0  0  0
 24 27  1  6  0  0  0
 24 25  1  0  0  0  0
 24 26  1  0  0  0  0
 25 26  1  0  0  0  0
 25 28  1  0  0  0  0
 26 30  1  1  0  0  0
 29 25  1  0  0  0  0
 31 26  1  0  0  0  0
 31 33  1  0  0  0  0
 31 32  1  0  0  0  0
 32 35  1  0  0  0  0
 32 36  1  0  0  0  0
 33 38  1  0  0  0  0
 33 32  1  0  0  0  0
 34 31  1  0  0  0  0
 37 33  1  0  0  0  0
M  END
>  <minimizedAffinity>
-6.17171097

>  <minimizedRMSD>
0.826844633

$$$$
