
 OpenBabel03242515393D

 37 40  0  0  0  0  0  0  0  0999 V2000
   43.9050   34.7770   41.0050 C   0  0  0  0  0  0  0  0  0  0  0  0
   43.8570   33.9540   39.8940 C   0  0  0  0  0  0  0  0  0  0  0  0
   45.0540   33.3850   39.4620 C   0  0  0  0  0  0  0  0  0  0  0  0
   46.1880   33.6770   40.1590 N   0  0  0  0  0  0  0  0  0  0  0  0
   46.2000   34.4750   41.2250 C   0  0  0  0  0  0  0  0  0  0  0  0
   45.0590   35.0060   41.6230 N   0  0  0  0  0  0  0  0  0  0  0  0
   42.9270   33.7690   39.3940 H   0  0  0  0  0  0  0  0  0  0  0  0
   44.7290   30.5150   40.1020 Cl  0  0  0  0  0  0  0  0  0  0  0  0
   44.9750   31.1590   38.4780 C   0  0  0  0  0  0  0  0  0  0  0  0
   45.1110   32.5160   38.3190 C   0  0  0  0  0  0  0  0  0  0  0  0
   45.2980   32.9230   37.0160 C   0  0  0  0  0  0  0  0  0  0  0  0
   45.4140   33.9750   36.8120 H   0  0  0  0  0  0  0  0  0  0  0  0
   45.3460   32.0270   35.9430 C   0  0  0  0  0  3  0  0  0  0  0  0
   45.1990   30.6670   36.1900 C   0  0  0  0  0  0  0  0  0  0  0  0
   45.2650   29.5970   34.8110 Cl  0  0  0  0  0  0  0  0  0  0  0  0
   45.0080   30.2210   37.4850 C   0  0  0  0  0  0  0  0  0  0  0  0
   44.8950   29.1570   37.6650 H   0  0  0  0  0  0  0  0  0  0  0  0
   42.3320   35.4980   41.5360 S   0  0  0  0  0  0  0  0  0  0  0  0
   40.0030   34.9310   40.2970 C   0  0  0  0  0  0  0  0  0  0  0  0
   40.9820   34.3950   41.1390 C   0  0  0  0  0  0  0  0  0  0  0  0
   40.8820   33.0990   41.6110 C   0  0  0  0  0  0  0  0  0  0  0  0
   39.8160   32.2840   41.2750 C   0  0  0  0  0  0  0  0  0  0  0  0
   38.8300   32.8280   40.4250 C   0  0  0  0  0  0  0  0  0  0  0  0
   38.9210   34.1290   39.9450 C   0  0  0  0  0  0  0  0  0  0  0  0
   37.8610   31.8120   40.2320 O   0  0  0  0  0  0  0  0  0  0  0  0
   38.0890   30.8660   41.2460 C   0  0  0  0  0  0  0  0  0  0  0  0
   39.4620   30.9820   41.5880 O   0  0  0  0  0  0  0  0  0  0  0  0
   40.0430   35.9320   39.9100 H   0  0  0  0  0  0  0  0  0  0  0  0
   41.6680   32.7420   42.2570 H   0  0  0  0  0  0  0  0  0  0  0  0
   38.1750   34.5440   39.3020 H   0  0  0  0  0  0  0  0  0  0  0  0
   37.7960   29.8430   40.9770 H   0  0  0  0  0  0  0  0  0  0  0  0
   37.5250   31.2220   42.1490 H   0  0  0  0  0  0  0  0  0  0  0  0
   47.3260   34.7820   41.9410 O   0  0  0  0  0  0  0  0  0  0  0  0
   48.5160   35.0890   41.2790 C   0  0  0  0  0  0  0  0  0  0  0  0
   49.4970   34.1570   41.4920 F   0  0  0  0  0  0  0  0  0  0  0  0
   48.1680   35.2120   39.9250 F   0  0  0  0  0  0  0  0  0  0  0  0
   48.9700   36.2980   41.7820 F   0  0  0  0  0  0  0  0  0  0  0  0
  1 18  1  0  0  0  0
  1  6  1  0  0  0  0
  2  1  2  0  0  0  0
  3  2  1  0  0  0  0
  3  4  2  0  0  0  0
  4  5  1  0  0  0  0
  5  6  2  0  0  0  0
  5 33  1  0  0  0  0
  7  2  1  0  0  0  0
  9  8  1  0  0  0  0
 10  9  1  0  0  0  0
 10  3  1  0  0  0  0
 11 10  2  0  0  0  0
 12 11  1  0  0  0  0
 13 14  2  0  0  0  0
 13 11  1  0  0  0  0
 14 16  1  0  0  0  0
 15 14  1  0  0  0  0
 16 17  1  0  0  0  0
 16  9  2  0  0  0  0
 19 20  1  0  0  0  0
 20 18  1  0  0  0  0
 20 21  2  0  0  0  0
 21 29  1  0  0  0  0
 22 27  1  0  0  0  0
 22 21  1  0  0  0  0
 23 22  2  0  0  0  0
 24 19  2  0  0  0  0
 24 23  1  0  0  0  0
 25 23  1  0  0  0  0
 25 26  1  0  0  0  0
 26 27  1  0  0  0  0
 26 32  1  0  0  0  0
 28 19  1  0  0  0  0
 30 24  1  0  0  0  0
 31 26  1  0  0  0  0
 34 35  1  0  0  0  0
 34 37  1  0  0  0  0
 34 33  1  0  0  0  0
 36 34  1  0  0  0  0
M  END
>  <minimizedAffinity>
-6.10274744

>  <minimizedRMSD>
0.371952564

$$$$
