
 OpenBabel03252506373D

 45 48  0  0  1  0  0  0  0  0999 V2000
   44.5080   35.5640   45.1230 C   0  0  0  0  0  0  0  0  0  0  0  0
   45.1350   35.5390   43.8710 C   0  0  0  0  0  0  0  0  0  0  0  0
   46.0310   34.5620   43.6010 C   0  0  0  0  0  0  0  0  0  0  0  0
   46.2690   33.6520   44.5770 N   0  0  0  0  0  0  0  0  0  0  0  0
   45.6730   33.6810   45.7590 C   0  0  0  0  0  0  0  0  0  0  0  0
   44.7870   34.6300   46.0510 N   0  0  0  0  0  0  0  0  0  0  0  0
   46.0030   32.6670   46.7230 N   0  0  0  0  0  0  0  0  0  0  0  0
   45.2810   32.4370   47.9250 C   0  0  0  0  0  0  0  0  0  0  0  0
   46.3700   32.0700   48.9170 C   0  0  0  0  0  0  0  0  0  0  0  0
   47.6340   31.9490   48.1260 C   0  0  0  0  0  0  0  0  0  0  0  0
   47.1090   31.7370   46.7060 C   0  0  1  0  0  0  0  0  0  0  0  0
   43.8020   36.3440   45.3180 H   0  0  0  0  0  0  0  0  0  0  0  0
   46.5300   34.5190   42.6460 H   0  0  0  0  0  0  0  0  0  0  0  0
   44.4370   31.8320   48.0230 H   0  0  0  0  0  0  0  0  0  0  0  0
   44.9570   33.4660   48.2890 H   0  0  0  0  0  0  0  0  0  0  0  0
   46.4100   32.6890   49.8080 H   0  0  0  0  0  0  0  0  0  0  0  0
   46.1340   31.0210   49.2670 H   0  0  0  0  0  0  0  0  0  0  0  0
   48.2450   31.1030   48.4780 H   0  0  0  0  0  0  0  0  0  0  0  0
   48.1550   32.9270   48.2070 H   0  0  0  0  0  0  0  0  0  0  0  0
   47.9100   32.0220   45.9860 H   0  0  0  0  0  0  0  0  0  0  0  0
   44.7840   36.5720   42.9330 N   0  0  0  0  0  0  0  0  0  0  0  0
   44.8340   37.5680   43.2080 H   0  0  0  0  0  0  0  0  0  0  0  0
   44.5030   36.1330   42.0340 H   0  0  0  0  0  0  0  0  0  0  0  0
   46.5630   30.0530   46.5380 S   0  0  0  0  0  0  0  0  0  0  0  0
   45.8750   29.9620   43.2750 O   0  0  0  0  0  0  0  0  0  0  0  0
   45.1080   29.7040   44.2170 C   0  0  0  0  0  0  0  0  0  0  0  0
   45.0550   29.7870   45.6980 C   0  0  1  0  0  0  0  0  0  0  0  0
   44.3300   28.5120   46.0520 C   0  0  0  0  0  0  0  0  0  0  0  0
   43.1210   28.7020   45.1310 C   0  0  0  0  0  0  0  0  0  0  0  0
   43.8160   29.1390   43.9260 N   0  0  0  0  0  0  0  0  0  0  0  0
   44.2350   30.5430   45.8230 H   0  0  0  0  0  0  0  0  0  0  0  0
   44.8900   27.6080   45.7380 H   0  0  0  0  0  0  0  0  0  0  0  0
   44.0340   28.5280   47.1030 H   0  0  0  0  0  0  0  0  0  0  0  0
   42.5580   27.7750   45.0080 H   0  0  0  0  0  0  0  0  0  0  0  0
   42.4920   29.5150   45.5460 H   0  0  0  0  0  0  0  0  0  0  0  0
   42.9190   31.5780   42.3510 Cl  0  0  0  0  0  0  0  0  0  0  0  0
   42.6510   29.9180   41.8630 C   0  0  0  0  0  0  0  0  0  0  0  0
   43.1160   28.9390   42.6800 C   0  0  0  0  0  0  0  0  0  0  0  0
   42.9060   27.6290   42.2990 C   0  0  0  0  0  0  0  0  0  0  0  0
   43.2580   26.7890   42.9160 H   0  0  0  0  0  0  0  0  0  0  0  0
   42.2510   27.2390   41.1350 C   0  0  0  0  0  3  0  0  0  0  0  0
   41.7800   28.2600   40.3030 C   0  0  0  0  0  0  0  0  0  0  0  0
   40.9450   27.8490   38.8210 Cl  0  0  0  0  0  0  0  0  0  0  0  0
   41.9990   29.5590   40.7010 C   0  0  0  0  0  0  0  0  0  0  0  0
   41.6250   30.3540   40.0450 H   0  0  0  0  0  0  0  0  0  0  0  0
  1 12  1  0  0  0  0
  1  6  1  0  0  0  0
  2  1  2  0  0  0  0
  3  2  1  0  0  0  0
  3  4  2  0  0  0  0
  4  5  1  0  0  0  0
  5  6  2  0  0  0  0
  5  7  1  0  0  0  0
  7  8  1  0  0  0  0
  8 14  1  0  0  0  0
  8 15  1  0  0  0  0
  8  9  1  0  0  0  0
  9 17  1  0  0  0  0
  9 16  1  0  0  0  0
 10 19  1  0  0  0  0
 10 18  1  0  0  0  0
 10  9  1  0  0  0  0
 11 20  1  6  0  0  0
 11  7  1  0  0  0  0
 11 10  1  0  0  0  0
 13  3  1  0  0  0  0
 21 22  1  0  0  0  0
 21  2  1  0  0  0  0
 23 21  1  0  0  0  0
 24 11  1  0  0  0  0
 25 26  2  0  0  0  0
 26 27  1  0  0  0  0
 27 31  1  1  0  0  0
 27 28  1  0  0  0  0
 27 24  1  0  0  0  0
 28 33  1  0  0  0  0
 29 35  1  0  0  0  0
 29 28  1  0  0  0  0
 30 26  1  0  0  0  0
 30 29  1  0  0  0  0
 32 28  1  0  0  0  0
 34 29  1  0  0  0  0
 37 36  1  0  0  0  0
 37 38  1  0  0  0  0
 38 30  1  0  0  0  0
 39 38  2  0  0  0  0
 39 40  1  0  0  0  0
 41 39  1  0  0  0  0
 42 44  1  0  0  0  0
 42 41  2  0  0  0  0
 43 42  1  0  0  0  0
 44 37  2  0  0  0  0
 45 44  1  0  0  0  0
M  END
>  <minimizedAffinity>
-5.35817719

>  <minimizedRMSD>
0.429718018

$$$$
