
 OpenBabel03242518293D

 22 23  0  0  0  0  0  0  0  0999 V2000
   35.8210   29.9020   40.4550 C   0  0  0  0  0  0  0  0  0  0  0  0
   34.7410   29.2850   40.3710 O   0  0  0  0  0  0  0  0  0  0  0  0
   36.5500   30.5530   39.4150 C   0  0  0  0  0  0  0  0  0  0  0  0
   36.6330   29.8190   38.2480 C   0  0  0  0  0  0  0  0  0  0  0  0
   37.3280   30.3720   37.1680 C   0  0  0  0  0  0  0  0  0  0  0  0
   37.8780   31.5910   37.3220 N   0  0  0  0  0  0  0  0  0  0  0  0
   37.7720   32.2870   38.4940 C   0  0  0  0  0  0  0  0  0  0  0  0
   37.1050   31.7550   39.5330 N   0  0  0  0  0  0  0  0  0  0  0  0
   36.2300   28.8470   38.0340 H   0  0  0  0  0  0  0  0  0  0  0  0
   37.4360   29.8540   36.2190 H   0  0  0  0  0  0  0  0  0  0  0  0
   38.2060   33.2710   38.6470 H   0  0  0  0  0  0  0  0  0  0  0  0
   36.4080   29.9760   41.7240 O   0  0  0  0  0  0  0  0  0  0  0  0
   39.2480   30.8410   42.1710 Cl  0  0  0  0  0  0  0  0  0  0  0  0
   38.6600   29.2070   42.4540 C   0  0  0  0  0  0  0  0  0  0  0  0
   37.3160   29.0420   42.1790 C   0  0  0  0  0  0  0  0  0  0  0  0
   36.7960   27.7600   42.3860 C   0  0  0  0  0  0  0  0  0  0  0  0
   35.7630   27.5010   42.2100 H   0  0  0  0  0  0  0  0  0  0  0  0
   37.5910   26.7190   42.8420 C   0  0  0  0  0  3  0  0  0  0  0  0
   38.9140   26.9050   43.1050 C   0  0  0  0  0  0  0  0  0  0  0  0
   39.9320   25.6070   43.6800 Cl  0  0  0  0  0  0  0  0  0  0  0  0
   39.4340   28.1700   42.9020 C   0  0  0  0  0  0  0  0  0  0  0  0
   40.4780   28.3680   43.0980 H   0  0  0  0  0  0  0  0  0  0  0  0
  1 12  1  0  0  0  0
  2  1  2  0  0  0  0
  3  8  1  0  0  0  0
  3  1  1  0  0  0  0
  4  3  2  0  0  0  0
  5  6  2  0  0  0  0
  5  4  1  0  0  0  0
  6  7  1  0  0  0  0
  7 11  1  0  0  0  0
  7  8  2  0  0  0  0
  9  4  1  0  0  0  0
 10  5  1  0  0  0  0
 12 15  1  0  0  0  0
 13 14  1  0  0  0  0
 14 21  1  0  0  0  0
 15 16  1  0  0  0  0
 15 14  2  0  0  0  0
 16 18  2  0  0  0  0
 17 16  1  0  0  0  0
 18 19  1  0  0  0  0
 19 20  1  0  0  0  0
 21 22  1  0  0  0  0
 21 19  2  0  0  0  0
M  END
>  <minimizedAffinity>
-4.80592346

$$$$

 OpenBabel03242518293D

 22 23  0  0  0  0  0  0  0  0999 V2000
   36.2770   29.7620   40.9110 C   0  0  0  0  0  0  0  0  0  0  0  0
   35.3650   28.9160   40.8400 O   0  0  0  0  0  0  0  0  0  0  0  0
   36.7670   30.6220   39.8820 C   0  0  0  0  0  0  0  0  0  0  0  0
   37.0780   29.9650   38.7080 C   0  0  0  0  0  0  0  0  0  0  0  0
   37.5660   30.7210   37.6380 C   0  0  0  0  0  0  0  0  0  0  0  0
   37.7060   32.0490   37.8080 N   0  0  0  0  0  0  0  0  0  0  0  0
   37.3850   32.6630   38.9870 C   0  0  0  0  0  0  0  0  0  0  0  0
   36.9170   31.9360   40.0160 N   0  0  0  0  0  0  0  0  0  0  0  0
   37.0010   28.9190   38.4810 H   0  0  0  0  0  0  0  0  0  0  0  0
   37.8330   30.2750   36.6840 H   0  0  0  0  0  0  0  0  0  0  0  0
   37.4870   33.7310   39.1540 H   0  0  0  0  0  0  0  0  0  0  0  0
   36.9140   29.9010   42.1500 O   0  0  0  0  0  0  0  0  0  0  0  0
   36.2150   27.4120   43.6780 Cl  0  0  0  0  0  0  0  0  0  0  0  0
   37.8590   27.8850   43.2640 C   0  0  0  0  0  0  0  0  0  0  0  0
   37.9380   29.0700   42.5570 C   0  0  0  0  0  0  0  0  0  0  0  0
   39.2220   29.4920   42.2020 C   0  0  0  0  0  0  0  0  0  0  0  0
   39.4190   30.3990   41.6490 H   0  0  0  0  0  0  0  0  0  0  0  0
   40.3490   28.7580   42.5430 C   0  0  0  0  0  3  0  0  0  0  0  0
   40.2460   27.5930   43.2400 C   0  0  0  0  0  0  0  0  0  0  0  0
   41.6530   26.6540   43.6800 Cl  0  0  0  0  0  0  0  0  0  0  0  0
   38.9790   27.1700   43.5950 C   0  0  0  0  0  0  0  0  0  0  0  0
   38.8460   26.2510   44.1480 H   0  0  0  0  0  0  0  0  0  0  0  0
  1 12  1  0  0  0  0
  2  1  2  0  0  0  0
  3  8  1  0  0  0  0
  3  1  1  0  0  0  0
  4  3  2  0  0  0  0
  5  6  2  0  0  0  0
  5  4  1  0  0  0  0
  6  7  1  0  0  0  0
  7 11  1  0  0  0  0
  7  8  2  0  0  0  0
  9  4  1  0  0  0  0
 10  5  1  0  0  0  0
 12 15  1  0  0  0  0
 14 21  1  0  0  0  0
 14 13  1  0  0  0  0
 15 14  2  0  0  0  0
 16 18  2  0  0  0  0
 16 15  1  0  0  0  0
 17 16  1  0  0  0  0
 18 19  1  0  0  0  0
 19 21  2  0  0  0  0
 19 20  1  0  0  0  0
 21 22  1  0  0  0  0
M  END
>  <minimizedAffinity>
-4.80008936

$$$$

 OpenBabel03242518293D

 22 23  0  0  0  0  0  0  0  0999 V2000
   36.4760   30.3380   40.6910 C   0  0  0  0  0  0  0  0  0  0  0  0
   35.3970   29.9550   40.2000 O   0  0  0  0  0  0  0  0  0  0  0  0
   37.5220   31.0780   40.0600 C   0  0  0  0  0  0  0  0  0  0  0  0
   37.4910   32.4320   40.3330 C   0  0  0  0  0  0  0  0  0  0  0  0
   38.4750   33.2430   39.7620 C   0  0  0  0  0  0  0  0  0  0  0  0
   39.4020   32.6630   38.9760 N   0  0  0  0  0  0  0  0  0  0  0  0
   39.3990   31.3180   38.7300 C   0  0  0  0  0  0  0  0  0  0  0  0
   38.4510   30.5380   39.2790 N   0  0  0  0  0  0  0  0  0  0  0  0
   36.7970   32.9800   40.9420 H   0  0  0  0  0  0  0  0  0  0  0  0
   38.5160   34.3160   39.9300 H   0  0  0  0  0  0  0  0  0  0  0  0
   40.1320   30.8220   38.1000 H   0  0  0  0  0  0  0  0  0  0  0  0
   36.7110   30.0100   42.0320 O   0  0  0  0  0  0  0  0  0  0  0  0
   39.5450   30.6220   42.8130 Cl  0  0  0  0  0  0  0  0  0  0  0  0
   38.8520   29.0040   42.8060 C   0  0  0  0  0  0  0  0  0  0  0  0
   37.5290   28.9650   42.4100 C   0  0  0  0  0  0  0  0  0  0  0  0
   36.9280   27.7030   42.3860 C   0  0  0  0  0  0  0  0  0  0  0  0
   35.9010   27.5370   42.0960 H   0  0  0  0  0  0  0  0  0  0  0  0
   37.6280   26.5580   42.7400 C   0  0  0  0  0  3  0  0  0  0  0  0
   38.9330   26.6210   43.1270 C   0  0  0  0  0  0  0  0  0  0  0  0
   39.8310   25.1920   43.5770 Cl  0  0  0  0  0  0  0  0  0  0  0  0
   39.5320   27.8660   43.1530 C   0  0  0  0  0  0  0  0  0  0  0  0
   40.5650   27.9690   43.4530 H   0  0  0  0  0  0  0  0  0  0  0  0
  1 12  1  0  0  0  0
  2  1  2  0  0  0  0
  3  4  1  0  0  0  0
  3  1  1  0  0  0  0
  4  9  1  0  0  0  0
  5 10  1  0  0  0  0
  5  4  2  0  0  0  0
  6  5  1  0  0  0  0
  7  6  2  0  0  0  0
  7  8  1  0  0  0  0
  8  3  2  0  0  0  0
 11  7  1  0  0  0  0
 12 15  1  0  0  0  0
 14 13  1  0  0  0  0
 14 21  1  0  0  0  0
 15 14  2  0  0  0  0
 16 15  1  0  0  0  0
 16 18  2  0  0  0  0
 17 16  1  0  0  0  0
 18 19  1  0  0  0  0
 19 21  2  0  0  0  0
 19 20  1  0  0  0  0
 21 22  1  0  0  0  0
M  END
>  <minimizedAffinity>
-4.74781704

$$$$

 OpenBabel03242518293D

 22 23  0  0  0  0  0  0  0  0999 V2000
   38.9140   30.7420   41.8500 C   0  0  0  0  0  0  0  0  0  0  0  0
   39.9700   31.0570   42.4310 O   0  0  0  0  0  0  0  0  0  0  0  0
   38.5040   31.0680   40.5210 C   0  0  0  0  0  0  0  0  0  0  0  0
   37.5830   32.0950   40.4580 C   0  0  0  0  0  0  0  0  0  0  0  0
   37.1190   32.4890   39.1990 C   0  0  0  0  0  0  0  0  0  0  0  0
   37.5960   31.8480   38.1150 N   0  0  0  0  0  0  0  0  0  0  0  0
   38.5090   30.8350   38.2200 C   0  0  0  0  0  0  0  0  0  0  0  0
   38.9540   30.4560   39.4310 N   0  0  0  0  0  0  0  0  0  0  0  0
   37.1490   32.6600   41.2600 H   0  0  0  0  0  0  0  0  0  0  0  0
   36.3950   33.2880   39.0700 H   0  0  0  0  0  0  0  0  0  0  0  0
   38.9100   30.3000   37.3650 H   0  0  0  0  0  0  0  0  0  0  0  0
   37.9990   29.9720   42.5780 O   0  0  0  0  0  0  0  0  0  0  0  0
   35.7160   28.9110   40.9420 Cl  0  0  0  0  0  0  0  0  0  0  0  0
   36.9280   27.8960   41.7170 C   0  0  0  0  0  0  0  0  0  0  0  0
   37.8840   28.6060   42.4190 C   0  0  0  0  0  0  0  0  0  0  0  0
   38.8710   27.8480   43.0560 C   0  0  0  0  0  0  0  0  0  0  0  0
   39.6740   28.2820   43.6340 H   0  0  0  0  0  0  0  0  0  0  0  0
   38.8840   26.4630   42.9830 C   0  0  0  0  0  3  0  0  0  0  0  0
   37.9300   25.7850   42.2860 C   0  0  0  0  0  0  0  0  0  0  0  0
   37.9280   24.0410   42.1830 Cl  0  0  0  0  0  0  0  0  0  0  0  0
   36.9510   26.5280   41.6550 C   0  0  0  0  0  0  0  0  0  0  0  0
   36.1730   26.0360   41.0880 H   0  0  0  0  0  0  0  0  0  0  0  0
  1  2  2  0  0  0  0
  1 12  1  0  0  0  0
  3  1  1  0  0  0  0
  4  3  1  0  0  0  0
  4  9  1  0  0  0  0
  5  4  2  0  0  0  0
  6  7  2  0  0  0  0
  6  5  1  0  0  0  0
  7  8  1  0  0  0  0
  8  3  2  0  0  0  0
 10  5  1  0  0  0  0
 11  7  1  0  0  0  0
 13 14  1  0  0  0  0
 14 15  1  0  0  0  0
 15 12  1  0  0  0  0
 15 16  2  0  0  0  0
 16 17  1  0  0  0  0
 18 16  1  0  0  0  0
 19 18  2  0  0  0  0
 20 19  1  0  0  0  0
 21 14  2  0  0  0  0
 21 19  1  0  0  0  0
 22 21  1  0  0  0  0
M  END
>  <minimizedAffinity>
-4.54329634

$$$$

 OpenBabel03242518293D

 22 23  0  0  0  0  0  0  0  0999 V2000
   39.6610   30.8520   41.2790 C   0  0  0  0  0  0  0  0  0  0  0  0
   40.7930   30.4660   40.9300 O   0  0  0  0  0  0  0  0  0  0  0  0
   38.8270   31.8270   40.6530 C   0  0  0  0  0  0  0  0  0  0  0  0
   39.1860   33.1310   40.9330 C   0  0  0  0  0  0  0  0  0  0  0  0
   38.4300   34.1610   40.3650 C   0  0  0  0  0  0  0  0  0  0  0  0
   37.3920   33.8280   39.5740 N   0  0  0  0  0  0  0  0  0  0  0  0
   37.0690   32.5230   39.3200 C   0  0  0  0  0  0  0  0  0  0  0  0
   37.7960   31.5330   39.8680 N   0  0  0  0  0  0  0  0  0  0  0  0
   39.9900   33.4910   41.5460 H   0  0  0  0  0  0  0  0  0  0  0  0
   38.6520   35.2100   40.5390 H   0  0  0  0  0  0  0  0  0  0  0  0
   36.2380   32.2240   38.6880 H   0  0  0  0  0  0  0  0  0  0  0  0
   39.1220   30.2670   42.4320 O   0  0  0  0  0  0  0  0  0  0  0  0
   41.0280   28.1160   43.3010 Cl  0  0  0  0  0  0  0  0  0  0  0  0
   39.3600   27.8210   42.8250 C   0  0  0  0  0  0  0  0  0  0  0  0
   38.6720   28.9640   42.4630 C   0  0  0  0  0  0  0  0  0  0  0  0
   37.3400   28.7860   42.0760 C   0  0  0  0  0  0  0  0  0  0  0  0
   36.6950   29.5970   41.7720 H   0  0  0  0  0  0  0  0  0  0  0  0
   36.7500   27.5310   42.0590 C   0  0  0  0  0  3  0  0  0  0  0  0
   37.4480   26.4190   42.4180 C   0  0  0  0  0  0  0  0  0  0  0  0
   36.7230   24.8290   42.4030 Cl  0  0  0  0  0  0  0  0  0  0  0  0
   38.7650   26.5880   42.8020 C   0  0  0  0  0  0  0  0  0  0  0  0
   39.3610   25.7350   43.0980 H   0  0  0  0  0  0  0  0  0  0  0  0
  1 12  1  0  0  0  0
  2  1  2  0  0  0  0
  3  4  1  0  0  0  0
  3  1  1  0  0  0  0
  4  9  1  0  0  0  0
  5 10  1  0  0  0  0
  5  4  2  0  0  0  0
  6  5  1  0  0  0  0
  7  6  2  0  0  0  0
  7  8  1  0  0  0  0
  8  3  2  0  0  0  0
 11  7  1  0  0  0  0
 12 15  1  0  0  0  0
 14 13  1  0  0  0  0
 15 14  2  0  0  0  0
 16 15  1  0  0  0  0
 17 16  1  0  0  0  0
 18 16  2  0  0  0  0
 18 19  1  0  0  0  0
 19 21  2  0  0  0  0
 20 19  1  0  0  0  0
 21 14  1  0  0  0  0
 21 22  1  0  0  0  0
M  END
>  <minimizedAffinity>
-4.53729582

$$$$

 OpenBabel03242518293D

 22 23  0  0  0  0  0  0  0  0999 V2000
   36.3120   29.4180   40.6740 C   0  0  0  0  0  0  0  0  0  0  0  0
   35.1550   28.9800   40.8300 O   0  0  0  0  0  0  0  0  0  0  0  0
   36.7290   30.5800   39.9580 C   0  0  0  0  0  0  0  0  0  0  0  0
   36.9610   30.3540   38.6150 C   0  0  0  0  0  0  0  0  0  0  0  0
   37.3730   31.4320   37.8260 C   0  0  0  0  0  0  0  0  0  0  0  0
   37.5210   32.6330   38.4160 N   0  0  0  0  0  0  0  0  0  0  0  0
   37.2790   32.8170   39.7490 C   0  0  0  0  0  0  0  0  0  0  0  0
   36.8840   31.7790   40.5080 N   0  0  0  0  0  0  0  0  0  0  0  0
   36.8720   29.4390   38.0610 H   0  0  0  0  0  0  0  0  0  0  0  0
   37.5760   31.3320   36.7630 H   0  0  0  0  0  0  0  0  0  0  0  0
   37.3900   33.7720   40.2520 H   0  0  0  0  0  0  0  0  0  0  0  0
   37.3480   28.6880   41.2700 O   0  0  0  0  0  0  0  0  0  0  0  0
   36.3420   27.2040   43.6790 Cl  0  0  0  0  0  0  0  0  0  0  0  0
   36.9860   26.4240   42.2390 C   0  0  0  0  0  0  0  0  0  0  0  0
   37.3890   27.3090   41.2580 C   0  0  0  0  0  0  0  0  0  0  0  0
   37.9100   26.7410   40.0900 C   0  0  0  0  0  0  0  0  0  0  0  0
   38.2580   27.3230   39.2500 H   0  0  0  0  0  0  0  0  0  0  0  0
   38.0130   25.3670   39.9350 C   0  0  0  0  0  3  0  0  0  0  0  0
   37.6100   24.5140   40.9170 C   0  0  0  0  0  0  0  0  0  0  0  0
   37.7310   22.7800   40.7400 Cl  0  0  0  0  0  0  0  0  0  0  0  0
   37.0940   25.0690   42.0720 C   0  0  0  0  0  0  0  0  0  0  0  0
   36.7600   24.4330   42.8810 H   0  0  0  0  0  0  0  0  0  0  0  0
  1  2  2  0  0  0  0
  1 12  1  0  0  0  0
  3  8  1  0  0  0  0
  3  1  1  0  0  0  0
  4  3  2  0  0  0  0
  5  6  2  0  0  0  0
  5  4  1  0  0  0  0
  6  7  1  0  0  0  0
  7 11  1  0  0  0  0
  7  8  2  0  0  0  0
  9  4  1  0  0  0  0
 10  5  1  0  0  0  0
 14 13  1  0  0  0  0
 15 12  1  0  0  0  0
 15 14  2  0  0  0  0
 16 15  1  0  0  0  0
 17 16  1  0  0  0  0
 18 16  2  0  0  0  0
 18 19  1  0  0  0  0
 19 21  2  0  0  0  0
 20 19  1  0  0  0  0
 21 14  1  0  0  0  0
 21 22  1  0  0  0  0
M  END
>  <minimizedAffinity>
-4.52022505

$$$$

 OpenBabel03242518293D

 22 23  0  0  0  0  0  0  0  0999 V2000
   38.6370   30.1780   40.9240 C   0  0  0  0  0  0  0  0  0  0  0  0
   39.6460   29.4720   41.1180 O   0  0  0  0  0  0  0  0  0  0  0  0
   38.5780   31.5730   40.6280 C   0  0  0  0  0  0  0  0  0  0  0  0
   37.4020   31.9640   40.0190 C   0  0  0  0  0  0  0  0  0  0  0  0
   37.2460   33.3140   39.6880 C   0  0  0  0  0  0  0  0  0  0  0  0
   38.2510   34.1610   39.9820 N   0  0  0  0  0  0  0  0  0  0  0  0
   39.4010   33.7340   40.5870 C   0  0  0  0  0  0  0  0  0  0  0  0
   39.5500   32.4360   40.9030 N   0  0  0  0  0  0  0  0  0  0  0  0
   36.5530   31.3660   39.7480 H   0  0  0  0  0  0  0  0  0  0  0  0
   36.3500   33.6960   39.2080 H   0  0  0  0  0  0  0  0  0  0  0  0
   40.2280   34.3930   40.8350 H   0  0  0  0  0  0  0  0  0  0  0  0
   37.3940   29.5370   41.0040 O   0  0  0  0  0  0  0  0  0  0  0  0
   37.3870   28.1730   43.6790 Cl  0  0  0  0  0  0  0  0  0  0  0  0
   37.2370   27.3290   42.1410 C   0  0  0  0  0  0  0  0  0  0  0  0
   37.2660   28.1640   41.0410 C   0  0  0  0  0  0  0  0  0  0  0  0
   37.1500   27.5450   39.7930 C   0  0  0  0  0  0  0  0  0  0  0  0
   37.1580   28.0850   38.8570 H   0  0  0  0  0  0  0  0  0  0  0  0
   37.0140   26.1700   39.6740 C   0  0  0  0  0  3  0  0  0  0  0  0
   36.9890   25.3660   40.7730 C   0  0  0  0  0  0  0  0  0  0  0  0
   36.8190   23.6320   40.6450 Cl  0  0  0  0  0  0  0  0  0  0  0  0
   37.1030   25.9730   42.0100 C   0  0  0  0  0  0  0  0  0  0  0  0
   37.0870   25.3780   42.9130 H   0  0  0  0  0  0  0  0  0  0  0  0
  1 12  1  0  0  0  0
  1  2  2  0  0  0  0
  3  8  1  0  0  0  0
  3  1  1  0  0  0  0
  4  3  2  0  0  0  0
  5  6  2  0  0  0  0
  5  4  1  0  0  0  0
  6  7  1  0  0  0  0
  7 11  1  0  0  0  0
  7  8  2  0  0  0  0
  9  4  1  0  0  0  0
 10  5  1  0  0  0  0
 12 15  1  0  0  0  0
 14 13  1  0  0  0  0
 15 14  2  0  0  0  0
 16 15  1  0  0  0  0
 17 16  1  0  0  0  0
 18 16  2  0  0  0  0
 18 19  1  0  0  0  0
 19 21  2  0  0  0  0
 20 19  1  0  0  0  0
 21 14  1  0  0  0  0
 21 22  1  0  0  0  0
M  END
>  <minimizedAffinity>
-4.41465998

$$$$

 OpenBabel03242518293D

 22 23  0  0  0  0  0  0  0  0999 V2000
   37.4070   29.2850   42.2150 C   0  0  0  0  0  0  0  0  0  0  0  0
   37.9800   29.2020   43.3190 O   0  0  0  0  0  0  0  0  0  0  0  0
   37.6240   30.2380   41.1750 C   0  0  0  0  0  0  0  0  0  0  0  0
   38.8350   30.0910   40.5270 C   0  0  0  0  0  0  0  0  0  0  0  0
   39.1420   30.9780   39.4900 C   0  0  0  0  0  0  0  0  0  0  0  0
   38.2400   31.9280   39.1780 N   0  0  0  0  0  0  0  0  0  0  0  0
   37.0510   32.0400   39.8430 C   0  0  0  0  0  0  0  0  0  0  0  0
   36.7570   31.1880   40.8410 N   0  0  0  0  0  0  0  0  0  0  0  0
   39.6110   29.3700   40.7050 H   0  0  0  0  0  0  0  0  0  0  0  0
   40.0740   30.9250   38.9350 H   0  0  0  0  0  0  0  0  0  0  0  0
   36.3050   32.7960   39.6140 H   0  0  0  0  0  0  0  0  0  0  0  0
   36.4210   28.3290   41.9430 O   0  0  0  0  0  0  0  0  0  0  0  0
   36.2960   27.8340   38.9850 Cl  0  0  0  0  0  0  0  0  0  0  0  0
   36.7270   26.6080   40.1710 C   0  0  0  0  0  0  0  0  0  0  0  0
   36.7180   27.0650   41.4750 C   0  0  0  0  0  0  0  0  0  0  0  0
   37.0540   26.1310   42.4600 C   0  0  0  0  0  0  0  0  0  0  0  0
   37.0850   26.3620   43.5140 H   0  0  0  0  0  0  0  0  0  0  0  0
   37.3770   24.8210   42.1380 C   0  0  0  0  0  3  0  0  0  0  0  0
   37.3780   24.3920   40.8450 C   0  0  0  0  0  0  0  0  0  0  0  0
   37.7820   22.7470   40.4190 Cl  0  0  0  0  0  0  0  0  0  0  0  0
   37.0470   25.3110   39.8680 C   0  0  0  0  0  0  0  0  0  0  0  0
   37.0350   25.0200   38.8270 H   0  0  0  0  0  0  0  0  0  0  0  0
  1  2  2  0  0  0  0
  3  1  1  0  0  0  0
  4  9  1  0  0  0  0
  4  3  2  0  0  0  0
  5  4  1  0  0  0  0
  6  5  2  0  0  0  0
  6  7  1  0  0  0  0
  7  8  2  0  0  0  0
  8  3  1  0  0  0  0
 10  5  1  0  0  0  0
 11  7  1  0  0  0  0
 12  1  1  0  0  0  0
 13 14  1  0  0  0  0
 14 15  1  0  0  0  0
 15 12  1  0  0  0  0
 15 16  2  0  0  0  0
 16 17  1  0  0  0  0
 18 16  1  0  0  0  0
 19 18  2  0  0  0  0
 20 19  1  0  0  0  0
 21 14  2  0  0  0  0
 21 19  1  0  0  0  0
 22 21  1  0  0  0  0
M  END
>  <minimizedAffinity>
-4.39646196

$$$$

 OpenBabel03242518293D

 22 23  0  0  0  0  0  0  0  0999 V2000
   39.8630   31.1180   41.2120 C   0  0  0  0  0  0  0  0  0  0  0  0
   39.4520   30.9450   40.0480 O   0  0  0  0  0  0  0  0  0  0  0  0
   41.0930   31.7050   41.6370 C   0  0  0  0  0  0  0  0  0  0  0  0
   41.6500   31.0930   42.7440 C   0  0  0  0  0  0  0  0  0  0  0  0
   42.8580   31.5940   43.2370 C   0  0  0  0  0  0  0  0  0  0  0  0
   43.4160   32.6460   42.6080 N   0  0  0  0  0  0  0  0  0  0  0  0
   42.8330   33.2240   41.5140 C   0  0  0  0  0  0  0  0  0  0  0  0
   41.6710   32.7420   41.0410 N   0  0  0  0  0  0  0  0  0  0  0  0
   41.2820   30.2560   43.3070 H   0  0  0  0  0  0  0  0  0  0  0  0
   43.3560   31.1660   44.1020 H   0  0  0  0  0  0  0  0  0  0  0  0
   43.2580   34.0730   40.9880 H   0  0  0  0  0  0  0  0  0  0  0  0
   39.0250   30.6880   42.2480 O   0  0  0  0  0  0  0  0  0  0  0  0
   36.2080   30.5370   41.2200 Cl  0  0  0  0  0  0  0  0  0  0  0  0
   37.1170   29.1500   41.8110 C   0  0  0  0  0  0  0  0  0  0  0  0
   38.3950   29.4600   42.2340 C   0  0  0  0  0  0  0  0  0  0  0  0
   39.1630   28.3940   42.7130 C   0  0  0  0  0  0  0  0  0  0  0  0
   40.1750   28.5030   43.0720 H   0  0  0  0  0  0  0  0  0  0  0  0
   38.6620   27.1010   42.7590 C   0  0  0  0  0  3  0  0  0  0  0  0
   37.3980   26.8200   42.3370 C   0  0  0  0  0  0  0  0  0  0  0  0
   36.7480   25.1990   42.3860 Cl  0  0  0  0  0  0  0  0  0  0  0  0
   36.6350   27.8690   41.8620 C   0  0  0  0  0  0  0  0  0  0  0  0
   35.6250   27.6970   41.5150 H   0  0  0  0  0  0  0  0  0  0  0  0
  1  3  1  0  0  0  0
  1 12  1  0  0  0  0
  2  1  2  0  0  0  0
  3  4  1  0  0  0  0
  4  5  2  0  0  0  0
  4  9  1  0  0  0  0
  5 10  1  0  0  0  0
  6  5  1  0  0  0  0
  7  6  2  0  0  0  0
  8  7  1  0  0  0  0
  8  3  2  0  0  0  0
 11  7  1  0  0  0  0
 13 14  1  0  0  0  0
 14 21  2  0  0  0  0
 14 15  1  0  0  0  0
 15 12  1  0  0  0  0
 15 16  2  0  0  0  0
 16 18  1  0  0  0  0
 16 17  1  0  0  0  0
 19 20  1  0  0  0  0
 19 18  2  0  0  0  0
 21 19  1  0  0  0  0
 22 21  1  0  0  0  0
M  END
>  <minimizedAffinity>
-4.33552504

$$$$
