
 OpenBabel03242520073D

 50 54  0  0  1  0  0  0  0  0999 V2000
   49.0700   29.3690   43.9920 N   0  0  0  0  0  0  0  0  0  0  0  0
   49.3310   30.1040   42.8290 C   0  0  1  0  0  0  0  0  0  0  0  0
   48.6730   29.4140   41.6680 C   0  0  0  0  0  0  0  0  0  0  0  0
   47.2580   29.5070   41.9290 N   0  0  0  0  0  0  0  0  0  0  0  0
   46.8490   28.7240   43.0750 C   0  0  0  0  0  0  0  0  0  0  0  0
   47.8050   28.7910   44.2310 C   0  0  2  0  0  0  0  0  0  0  0  0
   49.8950   28.7290   44.1730 H   0  0  0  0  0  0  0  0  0  0  0  0
   50.3960   30.1580   42.6210 H   0  0  0  0  0  0  0  0  0  0  0  0
   49.0280   28.3600   41.5870 H   0  0  0  0  0  0  0  0  0  0  0  0
   48.8680   29.9010   40.6910 H   0  0  0  0  0  0  0  0  0  0  0  0
   46.6550   29.2040   41.1240 H   0  0  0  0  0  0  0  0  0  0  0  0
   45.8190   29.0950   43.3310 H   0  0  0  0  0  0  0  0  0  0  0  0
   46.6660   27.6990   42.6860 H   0  0  0  0  0  0  0  0  0  0  0  0
   48.0060   27.7160   44.4920 H   0  0  0  0  0  0  0  0  0  0  0  0
   47.5400   33.0890   43.5050 C   0  0  0  0  0  0  0  0  0  0  0  0
   48.4540   33.5710   42.5770 C   0  0  0  0  0  0  0  0  0  0  0  0
   49.2470   32.5250   42.1970 C   0  0  0  0  0  0  0  0  0  0  0  0
   48.8220   31.4430   42.8790 N   0  0  0  0  0  0  0  0  0  0  0  0
   47.7960   31.8010   43.6600 N   0  0  0  0  0  0  0  0  0  0  0  0
   48.5570   34.5870   42.1930 H   0  0  0  0  0  0  0  0  0  0  0  0
   50.0790   32.5120   41.4830 H   0  0  0  0  0  0  0  0  0  0  0  0
   45.1380   34.2960   46.0100 C   0  0  0  0  0  0  0  0  0  0  0  0
   44.5380   35.3840   45.3790 C   0  0  0  0  0  0  0  0  0  0  0  0
   44.9680   35.6880   44.0970 C   0  0  0  0  0  0  0  0  0  0  0  0
   45.9380   34.9180   43.5390 N   0  0  0  0  0  0  0  0  0  0  0  0
   46.5000   33.8720   44.1740 C   0  0  0  0  0  0  0  0  0  0  0  0
   46.1060   33.5490   45.4180 N   0  0  0  0  0  0  0  0  0  0  0  0
   44.8060   34.0530   47.0110 H   0  0  0  0  0  0  0  0  0  0  0  0
   43.7680   35.9790   45.8500 H   0  0  0  0  0  0  0  0  0  0  0  0
   44.5280   36.5170   43.5890 H   0  0  0  0  0  0  0  0  0  0  0  0
   47.0610   29.4460   45.3760 C   0  0  1  0  0  0  0  0  0  0  0  0
   46.8320   28.5420   46.5960 C   0  0  0  0  0  0  0  0  0  0  0  0
   47.6910   29.7430   46.6620 C   0  0  1  0  0  0  0  0  0  0  0  0
   46.1310   30.0450   45.1410 H   0  0  0  0  0  0  0  0  0  0  0  0
   47.4160   27.5760   46.6200 H   0  0  0  0  0  0  0  0  0  0  0  0
   45.8460   28.5100   47.0740 H   0  0  0  0  0  0  0  0  0  0  0  0
   47.2880   30.5720   47.2730 H   0  0  0  0  0  0  0  0  0  0  0  0
   49.2060   29.6120   46.8180 C   0  0  0  0  0  0  0  0  0  0  0  0
   49.7300   30.5200   46.4580 H   0  0  0  0  0  0  0  0  0  0  0  0
   49.5050   28.6900   46.2860 H   0  0  0  0  0  0  0  0  0  0  0  0
   48.5660   31.9680   48.6740 Cl  0  0  0  0  0  0  0  0  0  0  0  0
   49.3280   30.4500   49.1760 C   0  0  0  0  0  0  0  0  0  0  0  0
   49.5730   29.4500   48.2410 C   0  0  0  0  0  0  0  0  0  0  0  0
   50.1790   28.2660   48.6820 C   0  0  0  0  0  0  0  0  0  0  0  0
   50.4000   27.4460   48.0150 H   0  0  0  0  0  0  0  0  0  0  0  0
   50.4810   28.2010   50.0250 C   0  0  0  0  0  0  0  0  0  0  0  0
   50.2560   29.1670   50.9810 C   0  0  0  0  0  0  0  0  0  0  0  0
   50.7280   28.8620   52.6370 Cl  0  0  0  0  0  0  0  0  0  0  0  0
   49.6510   30.3460   50.5320 C   0  0  0  0  0  0  0  0  0  0  0  0
   49.4690   31.1000   51.2540 H   0  0  0  0  0  0  0  0  0  0  0  0
  1  7  1  0  0  0  0
  1  6  1  0  0  0  0
  2  8  1  6  0  0  0
  2 18  1  0  0  0  0
  2  1  1  0  0  0  0
  3  4  1  0  0  0  0
  3  2  1  0  0  0  0
  4  5  1  0  0  0  0
  5 12  1  0  0  0  0
  5  6  1  0  0  0  0
  6 14  1  1  0  0  0
  6 31  1  0  0  0  0
  9  3  1  0  0  0  0
 10  3  1  0  0  0  0
 11  4  1  0  0  0  0
 13  5  1  0  0  0  0
 15 19  2  0  0  0  0
 15 26  1  0  0  0  0
 16 15  1  0  0  0  0
 17 16  2  0  0  0  0
 17 18  1  0  0  0  0
 18 19  1  0  0  0  0
 20 16  1  0  0  0  0
 21 17  1  0  0  0  0
 22 28  1  0  0  0  0
 23 29  1  0  0  0  0
 23 22  2  0  0  0  0
 24 23  1  0  0  0  0
 25 24  2  0  0  0  0
 25 26  1  0  0  0  0
 26 27  2  0  0  0  0
 27 22  1  0  0  0  0
 30 24  1  0  0  0  0
 31 34  1  6  0  0  0
 31 32  1  0  0  0  0
 31 33  1  0  0  0  0
 32 35  1  0  0  0  0
 32 33  1  0  0  0  0
 32 36  1  0  0  0  0
 33 38  1  0  0  0  0
 33 37  1  1  0  0  0
 38 43  1  0  0  0  0
 39 38  1  0  0  0  0
 40 38  1  0  0  0  0
 41 42  1  0  0  0  0
 42 49  1  0  0  0  0
 43 44  1  0  0  0  0
 43 42  2  0  0  0  0
 44 46  2  0  0  0  0
 45 44  1  0  0  0  0
 46 47  1  0  0  0  0
 47 48  1  0  0  0  0
 49 47  2  0  0  0  0
 49 50  1  0  0  0  0
M  END
>  <minimizedAffinity>
-5.13850021

>  <minimizedRMSD>
3.57061863

$$$$
