
 OpenBabel03242522593D

 32 34  0  0  0  0  0  0  0  0999 V2000
   44.9700   33.7510   47.0200 C   0  0  0  0  0  0  0  0  0  0  0  0
   45.2460   34.0770   45.6950 C   0  0  0  0  0  0  0  0  0  0  0  0
   46.2720   33.5080   44.9830 C   0  0  0  0  0  0  0  0  0  0  0  0
   47.0260   32.5830   45.6590 N   0  0  0  0  0  0  0  0  0  0  0  0
   46.7670   32.2640   46.9350 C   0  0  0  0  0  0  0  0  0  0  0  0
   45.7430   32.8430   47.6200 N   0  0  0  0  0  0  0  0  0  0  0  0
   44.1450   34.2390   47.5210 H   0  0  0  0  0  0  0  0  0  0  0  0
   44.6360   34.8200   45.1580 H   0  0  0  0  0  0  0  0  0  0  0  0
   44.3910   32.3440   42.9800 Cl  0  0  0  0  0  0  0  0  0  0  0  0
   45.7730   33.3420   42.6170 C   0  0  0  0  0  0  0  0  0  0  0  0
   46.5800   33.8320   43.5950 C   0  0  0  0  0  0  0  0  0  0  0  0
   47.6320   34.6010   43.1840 C   0  0  0  0  0  0  0  0  0  0  0  0
   47.9000   34.8900   41.8880 C   0  0  0  0  0  0  0  0  0  0  0  0
   47.0810   34.3920   40.9030 C   0  0  0  0  0  0  0  0  0  0  0  0
   46.0110   33.6110   41.2860 C   0  0  0  0  0  0  0  0  0  0  0  0
   48.3010   35.0110   43.9500 H   0  0  0  0  0  0  0  0  0  0  0  0
   47.2280   34.5780   39.8390 H   0  0  0  0  0  0  0  0  0  0  0  0
   45.3650   33.2190   40.5100 H   0  0  0  0  0  0  0  0  0  0  0  0
   49.0460   35.7280   41.4490 C   0  0  0  0  0  0  0  0  0  0  0  0
   50.1970   35.1140   41.8230 F   0  0  0  0  0  0  0  0  0  0  0  0
   48.9500   37.0120   41.9940 F   0  0  0  0  0  0  0  0  0  0  0  0
   48.9860   35.8570   40.0730 F   0  0  0  0  0  0  0  0  0  0  0  0
   46.6410   29.4370   45.8510 Cl  0  0  0  0  0  0  0  0  0  0  0  0
   47.6120   29.9620   47.2050 C   0  0  0  0  0  0  0  0  0  0  0  0
   47.5950   31.2750   47.6160 C   0  0  0  0  0  0  0  0  0  0  0  0
   48.3460   31.7290   48.6790 C   0  0  0  0  0  0  0  0  0  0  0  0
   48.3330   32.7730   49.0060 H   0  0  0  0  0  0  0  0  0  0  0  0
   49.1430   30.8200   49.3480 C   0  0  0  0  0  0  0  0  0  0  0  0
   49.1660   29.4870   48.9380 C   0  0  0  0  0  0  0  0  0  0  0  0
   50.1700   28.3100   49.7730 Cl  0  0  0  0  0  0  0  0  0  0  0  0
   48.4020   29.0410   47.8630 C   0  0  0  0  0  0  0  0  0  0  0  0
   48.4250   27.9930   47.5470 H   0  0  0  0  0  0  0  0  0  0  0  0
  1  7  1  0  0  0  0
  1  6  1  0  0  0  0
  2  1  2  0  0  0  0
  3  4  2  0  0  0  0
  3  2  1  0  0  0  0
  4  5  1  0  0  0  0
  5 25  1  0  0  0  0
  5  6  2  0  0  0  0
  8  2  1  0  0  0  0
 10  9  1  0  0  0  0
 10 11  1  0  0  0  0
 11  3  1  0  0  0  0
 12 11  2  0  0  0  0
 12 16  1  0  0  0  0
 13 12  1  0  0  0  0
 14 15  1  0  0  0  0
 14 13  2  0  0  0  0
 15 10  2  0  0  0  0
 17 14  1  0  0  0  0
 18 15  1  0  0  0  0
 19 20  1  0  0  0  0
 19 13  1  0  0  0  0
 19 21  1  0  0  0  0
 22 19  1  0  0  0  0
 23 24  1  0  0  0  0
 24 25  2  0  0  0  0
 24 31  1  0  0  0  0
 25 26  1  0  0  0  0
 26 27  1  0  0  0  0
 26 28  2  0  0  0  0
 29 28  1  0  0  0  0
 29 30  1  0  0  0  0
 31 29  2  0  0  0  0
 32 31  1  0  0  0  0
M  END
>  <minimizedAffinity>
-6.45217848

>  <minimizedRMSD>
1.11230469

$$$$
