
 OpenBabel03252506373D

 45 48  0  0  1  0  0  0  0  0999 V2000
   44.5010   35.6060   45.1000 C   0  0  0  0  0  0  0  0  0  0  0  0
   45.1310   35.5710   43.8500 C   0  0  0  0  0  0  0  0  0  0  0  0
   46.0240   34.5900   43.5880 C   0  0  0  0  0  0  0  0  0  0  0  0
   46.2560   33.6840   44.5700 N   0  0  0  0  0  0  0  0  0  0  0  0
   45.6570   33.7220   45.7500 C   0  0  0  0  0  0  0  0  0  0  0  0
   44.7740   34.6760   46.0350 N   0  0  0  0  0  0  0  0  0  0  0  0
   45.9820   32.7120   46.7210 N   0  0  0  0  0  0  0  0  0  0  0  0
   45.2560   32.4920   47.9220 C   0  0  0  0  0  0  0  0  0  0  0  0
   46.3420   32.1270   48.9190 C   0  0  0  0  0  0  0  0  0  0  0  0
   47.6070   31.9970   48.1320 C   0  0  0  0  0  0  0  0  0  0  0  0
   47.0840   31.7790   46.7120 C   0  0  1  0  0  0  0  0  0  0  0  0
   43.7970   36.3890   45.2890 H   0  0  0  0  0  0  0  0  0  0  0  0
   46.5240   34.5390   42.6350 H   0  0  0  0  0  0  0  0  0  0  0  0
   44.4100   31.8910   48.0220 H   0  0  0  0  0  0  0  0  0  0  0  0
   44.9350   33.5240   48.2790 H   0  0  0  0  0  0  0  0  0  0  0  0
   46.3820   32.7510   49.8070 H   0  0  0  0  0  0  0  0  0  0  0  0
   46.1010   31.0810   49.2740 H   0  0  0  0  0  0  0  0  0  0  0  0
   48.2140   31.1510   48.4900 H   0  0  0  0  0  0  0  0  0  0  0  0
   48.1310   32.9740   48.2090 H   0  0  0  0  0  0  0  0  0  0  0  0
   47.8880   32.0570   45.9920 H   0  0  0  0  0  0  0  0  0  0  0  0
   44.7850   36.6000   42.9050 N   0  0  0  0  0  0  0  0  0  0  0  0
   44.8380   37.5980   43.1750 H   0  0  0  0  0  0  0  0  0  0  0  0
   44.5050   36.1570   42.0080 H   0  0  0  0  0  0  0  0  0  0  0  0
   46.5330   30.0960   46.5530 S   0  0  0  0  0  0  0  0  0  0  0  0
   46.2130   30.3810   43.2440 O   0  0  0  0  0  0  0  0  0  0  0  0
   45.3830   29.9280   44.0480 C   0  0  0  0  0  0  0  0  0  0  0  0
   45.1620   29.8040   45.5110 C   0  0  1  0  0  0  0  0  0  0  0  0
   44.5470   28.4310   45.6150 C   0  0  0  0  0  0  0  0  0  0  0  0
   43.4300   28.6280   44.5850 C   0  0  0  0  0  0  0  0  0  0  0  0
   44.1990   29.2870   43.5360 N   0  0  0  0  0  0  0  0  0  0  0  0
   44.2550   30.4560   45.6270 H   0  0  0  0  0  0  0  0  0  0  0  0
   45.2330   27.6340   45.2620 H   0  0  0  0  0  0  0  0  0  0  0  0
   44.1400   28.2760   46.6160 H   0  0  0  0  0  0  0  0  0  0  0  0
   42.9890   27.6780   44.2820 H   0  0  0  0  0  0  0  0  0  0  0  0
   42.6750   29.3150   45.0190 H   0  0  0  0  0  0  0  0  0  0  0  0
   43.0340   31.7830   42.2510 Cl  0  0  0  0  0  0  0  0  0  0  0  0
   43.1090   30.2090   41.4890 C   0  0  0  0  0  0  0  0  0  0  0  0
   43.6620   29.1920   42.2000 C   0  0  0  0  0  0  0  0  0  0  0  0
   43.7230   27.9490   41.6020 C   0  0  0  0  0  0  0  0  0  0  0  0
   44.1590   27.0830   42.1240 H   0  0  0  0  0  0  0  0  0  0  0  0
   43.2580   27.6620   40.3230 C   0  0  0  0  0  3  0  0  0  0  0  0
   42.6920   28.7210   39.6050 C   0  0  0  0  0  0  0  0  0  0  0  0
   42.0840   28.4400   37.9870 Cl  0  0  0  0  0  0  0  0  0  0  0  0
   42.6400   29.9510   40.2170 C   0  0  0  0  0  0  0  0  0  0  0  0
   42.1950   30.7770   39.6500 H   0  0  0  0  0  0  0  0  0  0  0  0
  1 12  1  0  0  0  0
  1  6  1  0  0  0  0
  2  1  2  0  0  0  0
  3  2  1  0  0  0  0
  3  4  2  0  0  0  0
  4  5  1  0  0  0  0
  5  6  2  0  0  0  0
  5  7  1  0  0  0  0
  7  8  1  0  0  0  0
  8 14  1  0  0  0  0
  8 15  1  0  0  0  0
  8  9  1  0  0  0  0
  9 17  1  0  0  0  0
  9 16  1  0  0  0  0
 10 19  1  0  0  0  0
 10 18  1  0  0  0  0
 10  9  1  0  0  0  0
 11 20  1  6  0  0  0
 11  7  1  0  0  0  0
 11 10  1  0  0  0  0
 13  3  1  0  0  0  0
 21 22  1  0  0  0  0
 21  2  1  0  0  0  0
 23 21  1  0  0  0  0
 24 11  1  0  0  0  0
 25 26  2  0  0  0  0
 26 27  1  0  0  0  0
 27 28  1  0  0  0  0
 27 31  1  1  0  0  0
 27 24  1  0  0  0  0
 28 33  1  0  0  0  0
 29 35  1  0  0  0  0
 29 28  1  0  0  0  0
 30 26  1  0  0  0  0
 30 29  1  0  0  0  0
 32 28  1  0  0  0  0
 34 29  1  0  0  0  0
 37 38  1  0  0  0  0
 37 36  1  0  0  0  0
 38 30  1  0  0  0  0
 39 40  1  0  0  0  0
 39 38  2  0  0  0  0
 41 39  1  0  0  0  0
 42 44  1  0  0  0  0
 42 41  2  0  0  0  0
 43 42  1  0  0  0  0
 44 37  2  0  0  0  0
 45 44  1  0  0  0  0
M  END
>  <minimizedAffinity>
-5.20242071

>  <minimizedRMSD>
1.09335661

$$$$
