
 OpenBabel03242515393D

 37 40  0  0  0  0  0  0  0  0999 V2000
   43.9030   34.7770   41.0060 C   0  0  0  0  0  0  0  0  0  0  0  0
   43.8550   33.9540   39.8940 C   0  0  0  0  0  0  0  0  0  0  0  0
   45.0530   33.3850   39.4620 C   0  0  0  0  0  0  0  0  0  0  0  0
   46.1870   33.6760   40.1590 N   0  0  0  0  0  0  0  0  0  0  0  0
   46.1990   34.4740   41.2250 C   0  0  0  0  0  0  0  0  0  0  0  0
   45.0580   35.0060   41.6230 N   0  0  0  0  0  0  0  0  0  0  0  0
   42.9250   33.7690   39.3950 H   0  0  0  0  0  0  0  0  0  0  0  0
   44.7260   30.5150   40.1020 Cl  0  0  0  0  0  0  0  0  0  0  0  0
   44.9720   31.1580   38.4780 C   0  0  0  0  0  0  0  0  0  0  0  0
   45.1090   32.5160   38.3190 C   0  0  0  0  0  0  0  0  0  0  0  0
   45.2970   32.9220   37.0170 C   0  0  0  0  0  0  0  0  0  0  0  0
   45.4120   33.9750   36.8120 H   0  0  0  0  0  0  0  0  0  0  0  0
   45.3430   32.0260   35.9430 C   0  0  0  0  0  3  0  0  0  0  0  0
   45.1950   30.6670   36.1890 C   0  0  0  0  0  0  0  0  0  0  0  0
   45.2620   29.5960   34.8120 Cl  0  0  0  0  0  0  0  0  0  0  0  0
   45.0050   30.2200   37.4860 C   0  0  0  0  0  0  0  0  0  0  0  0
   44.8910   29.1560   37.6660 H   0  0  0  0  0  0  0  0  0  0  0  0
   42.3310   35.4980   41.5370 S   0  0  0  0  0  0  0  0  0  0  0  0
   40.0020   34.9310   40.2980 C   0  0  0  0  0  0  0  0  0  0  0  0
   40.9810   34.3960   41.1400 C   0  0  0  0  0  0  0  0  0  0  0  0
   40.8800   33.1000   41.6130 C   0  0  0  0  0  0  0  0  0  0  0  0
   39.8140   32.2840   41.2770 C   0  0  0  0  0  0  0  0  0  0  0  0
   38.8280   32.8290   40.4270 C   0  0  0  0  0  0  0  0  0  0  0  0
   38.9200   34.1290   39.9450 C   0  0  0  0  0  0  0  0  0  0  0  0
   37.8590   31.8130   40.2350 O   0  0  0  0  0  0  0  0  0  0  0  0
   38.0860   30.8680   41.2490 C   0  0  0  0  0  0  0  0  0  0  0  0
   39.4590   30.9830   41.5920 O   0  0  0  0  0  0  0  0  0  0  0  0
   40.0420   35.9310   39.9090 H   0  0  0  0  0  0  0  0  0  0  0  0
   41.6660   32.7430   42.2600 H   0  0  0  0  0  0  0  0  0  0  0  0
   38.1740   34.5440   39.3020 H   0  0  0  0  0  0  0  0  0  0  0  0
   37.7940   29.8450   40.9810 H   0  0  0  0  0  0  0  0  0  0  0  0
   37.5220   31.2240   42.1520 H   0  0  0  0  0  0  0  0  0  0  0  0
   47.3250   34.7810   41.9410 O   0  0  0  0  0  0  0  0  0  0  0  0
   48.5150   35.0880   41.2790 C   0  0  0  0  0  0  0  0  0  0  0  0
   49.4950   34.1550   41.4910 F   0  0  0  0  0  0  0  0  0  0  0  0
   48.1670   35.2110   39.9250 F   0  0  0  0  0  0  0  0  0  0  0  0
   48.9700   36.2970   41.7810 F   0  0  0  0  0  0  0  0  0  0  0  0
  1 18  1  0  0  0  0
  1  6  1  0  0  0  0
  2  1  2  0  0  0  0
  3  2  1  0  0  0  0
  3  4  2  0  0  0  0
  4  5  1  0  0  0  0
  5  6  2  0  0  0  0
  5 33  1  0  0  0  0
  7  2  1  0  0  0  0
  9  8  1  0  0  0  0
 10  9  1  0  0  0  0
 10  3  1  0  0  0  0
 11 10  2  0  0  0  0
 12 11  1  0  0  0  0
 13 14  2  0  0  0  0
 13 11  1  0  0  0  0
 14 16  1  0  0  0  0
 15 14  1  0  0  0  0
 16 17  1  0  0  0  0
 16  9  2  0  0  0  0
 19 20  1  0  0  0  0
 20 18  1  0  0  0  0
 20 21  2  0  0  0  0
 21 29  1  0  0  0  0
 22 27  1  0  0  0  0
 22 21  1  0  0  0  0
 23 22  2  0  0  0  0
 24 19  2  0  0  0  0
 24 23  1  0  0  0  0
 25 23  1  0  0  0  0
 25 26  1  0  0  0  0
 26 27  1  0  0  0  0
 26 32  1  0  0  0  0
 28 19  1  0  0  0  0
 30 24  1  0  0  0  0
 31 26  1  0  0  0  0
 34 35  1  0  0  0  0
 34 37  1  0  0  0  0
 34 33  1  0  0  0  0
 36 34  1  0  0  0  0
M  END
>  <minimizedAffinity>
-6.10368395

>  <minimizedRMSD>
0.408642143

$$$$
