
 OpenBabel03242519373D

 28 29  0  0  0  0  0  0  0  0999 V2000
   48.1850   32.7780   41.5560 O   0  0  0  0  0  0  0  0  0  0  0  0
   47.1700   33.8930   41.2860 P   0  0  2  0  0  0  0  0  0  0  0  0
   45.6940   33.4890   42.0660 O   0  0  0  0  0  0  0  0  0  0  0  0
   44.3940   35.8750   44.5200 C   0  0  0  0  0  0  0  0  0  0  0  0
   44.7070   35.3010   43.2710 C   0  0  0  0  0  0  0  0  0  0  0  0
   45.3740   34.0750   43.2820 C   0  0  0  0  0  0  0  0  0  0  0  0
   45.6840   33.5020   44.4690 N   0  0  0  0  0  0  0  0  0  0  0  0
   45.3610   34.0930   45.6550 C   0  0  0  0  0  0  0  0  0  0  0  0
   44.7210   35.2690   45.6740 N   0  0  0  0  0  0  0  0  0  0  0  0
   43.8760   36.8270   44.5020 H   0  0  0  0  0  0  0  0  0  0  0  0
   44.4330   35.8060   42.3500 H   0  0  0  0  0  0  0  0  0  0  0  0
   45.6620   33.5390   46.5430 H   0  0  0  0  0  0  0  0  0  0  0  0
   46.8930   34.1450   39.6730 O   0  0  0  0  0  0  0  0  0  0  0  0
   48.3960   34.6070   37.1810 Cl  0  0  0  0  0  0  0  0  0  0  0  0
   47.4200   33.1840   37.5330 C   0  0  0  0  0  0  0  0  0  0  0  0
   46.7670   33.1100   38.7590 C   0  0  0  0  0  0  0  0  0  0  0  0
   46.0250   31.9770   38.9660 C   0  0  0  0  0  0  0  0  0  0  0  0
   45.4900   31.8670   39.9180 H   0  0  0  0  0  0  0  0  0  0  0  0
   45.9010   30.9470   38.0570 C   0  0  0  0  0  0  0  0  0  0  0  0
   46.5840   31.0970   36.8570 C   0  0  0  0  0  0  0  0  0  0  0  0
   46.5040   29.8580   35.6220 Cl  0  0  0  0  0  0  0  0  0  0  0  0
   47.3670   32.2120   36.5440 C   0  0  0  0  0  0  0  0  0  0  0  0
   47.8860   32.3110   35.6180 H   0  0  0  0  0  0  0  0  0  0  0  0
   47.7560   35.2900   42.0340 O   0  0  0  0  0  0  0  0  0  0  0  0
   48.9690   35.6980   41.5220 C   0  0  0  0  0  0  0  0  0  0  0  0
   49.3000   37.0050   41.8590 F   0  0  0  0  0  0  0  0  0  0  0  0
   49.9540   34.7870   41.8630 F   0  0  0  0  0  0  0  0  0  0  0  0
   48.8380   35.6780   40.1280 F   0  0  0  0  0  0  0  0  0  0  0  0
  2  1  2  1  0  0  0
  2 24  1  0  0  0  0
  2  3  1  0  0  0  0
  3  6  1  0  0  0  0
  4  9  1  0  0  0  0
  5  6  1  0  0  0  0
  5  4  2  0  0  0  0
  6  7  2  0  0  0  0
  7  8  1  0  0  0  0
  8  9  2  0  0  0  0
  8 12  1  0  0  0  0
 10  4  1  0  0  0  0
 11  5  1  0  0  0  0
 13  2  1  0  0  0  0
 14 15  1  0  0  0  0
 15 16  1  0  0  0  0
 16 17  2  0  0  0  0
 16 13  1  0  0  0  0
 17 18  1  0  0  0  0
 19 17  1  0  0  0  0
 20 19  2  0  0  0  0
 21 20  1  0  0  0  0
 22 20  1  0  0  0  0
 22 15  2  0  0  0  0
 23 22  1  0  0  0  0
 25 26  1  0  0  0  0
 25 27  1  0  0  0  0
 25 24  1  0  0  0  0
 28 25  1  0  0  0  0
M  END
>  <minimizedAffinity>
-5.49629641

>  <minimizedRMSD>
1.01545644

$$$$
