
 OpenBabel03252506373D

 45 48  0  0  1  0  0  0  0  0999 V2000
   44.5170   35.5160   45.1340 C   0  0  0  0  0  0  0  0  0  0  0  0
   45.1630   35.5000   43.8920 C   0  0  0  0  0  0  0  0  0  0  0  0
   46.0780   34.5370   43.6360 C   0  0  0  0  0  0  0  0  0  0  0  0
   46.3150   33.6310   44.6160 N   0  0  0  0  0  0  0  0  0  0  0  0
   45.7010   33.6500   45.7880 C   0  0  0  0  0  0  0  0  0  0  0  0
   44.7960   34.5860   46.0670 N   0  0  0  0  0  0  0  0  0  0  0  0
   46.0330   32.6420   46.7580 N   0  0  0  0  0  0  0  0  0  0  0  0
   45.2960   32.4020   47.9490 C   0  0  0  0  0  0  0  0  0  0  0  0
   46.3760   32.0510   48.9580 C   0  0  0  0  0  0  0  0  0  0  0  0
   47.6540   31.9500   48.1860 C   0  0  0  0  0  0  0  0  0  0  0  0
   47.1530   31.7300   46.7580 C   0  0  1  0  0  0  0  0  0  0  0  0
   43.7960   36.2840   45.3180 H   0  0  0  0  0  0  0  0  0  0  0  0
   46.5920   34.5020   42.6890 H   0  0  0  0  0  0  0  0  0  0  0  0
   44.4610   31.7830   48.0340 H   0  0  0  0  0  0  0  0  0  0  0  0
   44.9500   33.4250   48.3070 H   0  0  0  0  0  0  0  0  0  0  0  0
   46.3930   32.6710   49.8490 H   0  0  0  0  0  0  0  0  0  0  0  0
   46.1510   30.9990   49.3040 H   0  0  0  0  0  0  0  0  0  0  0  0
   48.2720   31.1140   48.5470 H   0  0  0  0  0  0  0  0  0  0  0  0
   48.1570   32.9360   48.2740 H   0  0  0  0  0  0  0  0  0  0  0  0
   47.9600   32.0270   46.0500 H   0  0  0  0  0  0  0  0  0  0  0  0
   44.8100   36.5270   42.9480 N   0  0  0  0  0  0  0  0  0  0  0  0
   44.8400   37.5240   43.2240 H   0  0  0  0  0  0  0  0  0  0  0  0
   44.5500   36.0840   42.0450 H   0  0  0  0  0  0  0  0  0  0  0  0
   46.6360   30.0370   46.5830 S   0  0  0  0  0  0  0  0  0  0  0  0
   45.6220   30.5030   43.4390 O   0  0  0  0  0  0  0  0  0  0  0  0
   44.9910   29.9720   44.3670 C   0  0  0  0  0  0  0  0  0  0  0  0
   45.0850   29.7550   45.8320 C   0  0  1  0  0  0  0  0  0  0  0  0
   44.5410   28.3540   45.9720 C   0  0  0  0  0  0  0  0  0  0  0  0
   43.2280   28.5680   45.2120 C   0  0  0  0  0  0  0  0  0  0  0  0
   43.7420   29.3170   44.0710 N   0  0  0  0  0  0  0  0  0  0  0  0
   44.2070   30.3620   46.1770 H   0  0  0  0  0  0  0  0  0  0  0  0
   45.1580   27.6070   45.4320 H   0  0  0  0  0  0  0  0  0  0  0  0
   44.3580   28.1260   47.0230 H   0  0  0  0  0  0  0  0  0  0  0  0
   42.7580   27.6210   44.9450 H   0  0  0  0  0  0  0  0  0  0  0  0
   42.5630   29.1990   45.8370 H   0  0  0  0  0  0  0  0  0  0  0  0
   41.1510   27.7300   44.1050 Cl  0  0  0  0  0  0  0  0  0  0  0  0
   41.7620   28.6180   42.7250 C   0  0  0  0  0  0  0  0  0  0  0  0
   42.9400   29.2790   42.8720 C   0  0  0  0  0  0  0  0  0  0  0  0
   43.4240   29.9800   41.7860 C   0  0  0  0  0  0  0  0  0  0  0  0
   44.3730   30.5360   41.8390 H   0  0  0  0  0  0  0  0  0  0  0  0
   42.7920   30.0590   40.5500 C   0  0  0  0  0  3  0  0  0  0  0  0
   41.5800   29.3740   40.4150 C   0  0  0  0  0  0  0  0  0  0  0  0
   40.7250   29.4250   38.8890 Cl  0  0  0  0  0  0  0  0  0  0  0  0
   41.1140   28.6810   41.5090 C   0  0  0  0  0  0  0  0  0  0  0  0
   40.1640   28.1460   41.3960 H   0  0  0  0  0  0  0  0  0  0  0  0
  1 12  1  0  0  0  0
  1  6  1  0  0  0  0
  2  1  2  0  0  0  0
  3  2  1  0  0  0  0
  3  4  2  0  0  0  0
  4  5  1  0  0  0  0
  5  6  2  0  0  0  0
  5  7  1  0  0  0  0
  7  8  1  0  0  0  0
  8 14  1  0  0  0  0
  8 15  1  0  0  0  0
  8  9  1  0  0  0  0
  9 17  1  0  0  0  0
  9 16  1  0  0  0  0
 10 19  1  0  0  0  0
 10 18  1  0  0  0  0
 10  9  1  0  0  0  0
 11 20  1  6  0  0  0
 11  7  1  0  0  0  0
 11 10  1  0  0  0  0
 13  3  1  0  0  0  0
 21 22  1  0  0  0  0
 21  2  1  0  0  0  0
 23 21  1  0  0  0  0
 24 11  1  0  0  0  0
 25 26  2  0  0  0  0
 26 27  1  0  0  0  0
 27 28  1  0  0  0  0
 27 31  1  1  0  0  0
 27 24  1  0  0  0  0
 28 33  1  0  0  0  0
 29 35  1  0  0  0  0
 29 28  1  0  0  0  0
 30 26  1  0  0  0  0
 30 29  1  0  0  0  0
 32 28  1  0  0  0  0
 34 29  1  0  0  0  0
 37 38  1  0  0  0  0
 37 36  1  0  0  0  0
 38 30  1  0  0  0  0
 39 40  1  0  0  0  0
 39 38  2  0  0  0  0
 41 39  1  0  0  0  0
 42 41  2  0  0  0  0
 42 44  1  0  0  0  0
 43 42  1  0  0  0  0
 44 37  2  0  0  0  0
 45 44  1  0  0  0  0
M  END
>  <minimizedAffinity>
-5.43590403

>  <minimizedRMSD>
0.0550990179

$$$$
