
 OpenBabel03252506523D

 32 35  0  0  0  0  0  0  0  0999 V2000
   47.2200   31.3760   45.1050 C   0  0  0  0  0  0  0  0  0  0  0  0
   46.8850   32.7160   45.0840 C   0  0  0  0  0  0  0  0  0  0  0  0
   46.2710   33.3630   46.1500 C   0  0  0  0  0  0  0  0  0  0  0  0
   45.9780   32.6160   47.3000 C   0  0  0  0  0  0  0  0  0  0  0  0
   45.3980   32.8980   48.5050 N   0  0  0  0  0  0  0  0  0  0  0  0
   45.3810   31.7560   49.2410 C   0  0  0  0  0  0  0  0  0  0  0  0
   45.9440   30.7930   48.4880 N   0  0  0  0  0  0  0  0  0  0  0  0
   46.3200   31.2860   47.2950 C   0  0  0  0  0  0  0  0  0  0  0  0
   46.9250   30.6400   46.2500 C   0  0  0  0  0  0  0  0  0  0  0  0
   47.7000   30.9290   44.2340 H   0  0  0  0  0  0  0  0  0  0  0  0
   46.0130   34.3960   46.1330 H   0  0  0  0  0  0  0  0  0  0  0  0
   45.0440   33.8460   48.7690 H   0  0  0  0  0  0  0  0  0  0  0  0
   44.9690   31.7540   50.2220 H   0  0  0  0  0  0  0  0  0  0  0  0
   44.7580   28.6880   45.5470 Cl  0  0  0  0  0  0  0  0  0  0  0  0
   46.4030   28.1900   45.9390 C   0  0  0  0  0  0  0  0  0  0  0  0
   47.2900   29.2270   46.2440 C   0  0  0  0  0  0  0  0  0  0  0  0
   48.5890   28.8540   46.5550 C   0  0  0  0  0  0  0  0  0  0  0  0
   49.3050   29.6340   46.7960 H   0  0  0  0  0  0  0  0  0  0  0  0
   49.0430   27.5460   46.5790 C   0  0  0  0  0  3  0  0  0  0  0  0
   48.1340   26.5730   46.2730 C   0  0  0  0  0  0  0  0  0  0  0  0
   48.6320   24.9050   46.2830 Cl  0  0  0  0  0  0  0  0  0  0  0  0
   46.8400   26.8820   45.9590 C   0  0  0  0  0  0  0  0  0  0  0  0
   46.0860   26.1380   45.7110 H   0  0  0  0  0  0  0  0  0  0  0  0
   46.5840   35.1870   42.3700 C   0  0  0  0  0  0  0  0  0  0  0  0
   47.7910   34.9890   41.6610 C   0  0  0  0  0  0  0  0  0  0  0  0
   48.6990   34.0070   42.1210 C   0  0  0  0  0  0  0  0  0  0  0  0
   48.3430   33.3040   43.2390 N   0  0  0  0  0  0  0  0  0  0  0  0
   47.1800   33.5160   43.8970 C   0  0  0  0  0  0  0  0  0  0  0  0
   46.3290   34.4420   43.4590 N   0  0  0  0  0  0  0  0  0  0  0  0
   45.9330   35.9450   41.9750 H   0  0  0  0  0  0  0  0  0  0  0  0
   48.0970   35.5290   40.7750 H   0  0  0  0  0  0  0  0  0  0  0  0
   49.6310   33.7860   41.6550 H   0  0  0  0  0  0  0  0  0  0  0  0
  1  9  1  0  0  0  0
  2  1  2  0  0  0  0
  2  3  1  0  0  0  0
  3  4  2  0  0  0  0
  4  5  1  0  0  0  0
  5 12  1  0  0  0  0
  5  6  1  0  0  0  0
  6 13  1  0  0  0  0
  7  6  2  0  0  0  0
  8  4  1  0  0  0  0
  8  7  1  0  0  0  0
  9  8  2  0  0  0  0
 10  1  1  0  0  0  0
 11  3  1  0  0  0  0
 14 15  1  0  0  0  0
 15 22  2  0  0  0  0
 15 16  1  0  0  0  0
 16  9  1  0  0  0  0
 16 17  2  0  0  0  0
 17 19  1  0  0  0  0
 17 18  1  0  0  0  0
 20 21  1  0  0  0  0
 20 19  2  0  0  0  0
 22 20  1  0  0  0  0
 23 22  1  0  0  0  0
 24 29  1  0  0  0  0
 25 26  1  0  0  0  0
 25 24  2  0  0  0  0
 26 27  2  0  0  0  0
 27 28  1  0  0  0  0
 28  2  1  0  0  0  0
 29 28  2  0  0  0  0
 30 24  1  0  0  0  0
 31 25  1  0  0  0  0
 32 26  1  0  0  0  0
M  END
>  <minimizedAffinity>
-5.39031506

>  <minimizedRMSD>
0.675936878

$$$$
