
 OpenBabel03252503083D

 28 30  0  0  1  0  0  0  0  0999 V2000
   44.9210   35.7940   43.9880 C   0  0  0  0  0  0  0  0  0  0  0  0
   45.6570   34.7130   43.4370 C   0  0  0  0  0  0  0  0  0  0  0  0
   45.8870   33.6700   44.3230 C   0  0  0  0  0  0  0  0  0  0  0  0
   45.4480   33.6900   45.5890 N   0  0  0  0  0  0  0  0  0  0  0  0
   44.7440   34.7580   46.0680 C   0  0  0  0  0  0  0  0  0  0  0  0
   44.4920   35.8010   45.2490 N   0  0  0  0  0  0  0  0  0  0  0  0
   44.7090   36.6460   43.3370 H   0  0  0  0  0  0  0  0  0  0  0  0
   44.4160   34.7200   47.0940 H   0  0  0  0  0  0  0  0  0  0  0  0
   46.5850   32.5570   43.8640 C   0  0  0  0  0  0  0  0  0  0  0  0
   47.8900   32.1960   43.7930 C   0  0  0  0  0  0  0  0  0  0  0  0
   48.3370   31.0590   43.2820 C   0  0  0  0  0  0  0  0  0  0  0  0
   47.3790   30.2080   42.7970 C   0  0  0  0  0  0  0  0  0  0  0  0
   45.8240   31.1340   43.1220 S   0  0  0  0  0  0  0  0  0  0  0  0
   48.7510   32.7300   44.1600 H   0  0  0  0  0  0  0  0  0  0  0  0
   49.2590   30.5570   43.1120 H   0  0  0  0  0  0  0  0  0  0  0  0
   47.2270   29.2650   42.3310 H   0  0  0  0  0  0  0  0  0  0  0  0
   46.0700   34.7790   42.0860 C   0  0  2  0  0  3  0  0  0  0  0  0
   47.1510   35.5180   41.9560 O   0  0  0  0  0  1  0  0  0  0  0  0
   48.2990   33.6200   40.6050 Cl  0  0  0  0  0  0  0  0  0  0  0  0
   46.5840   33.6420   40.1300 C   0  0  0  0  0  0  0  0  0  0  0  0
   45.4930   34.1860   40.8410 C   0  0  0  0  0  0  0  0  0  0  0  0
   44.2750   34.0640   40.2360 C   0  0  0  0  0  0  0  0  0  0  0  0
   43.5190   34.5260   40.8480 H   0  0  0  0  0  0  0  0  0  0  0  0
   44.0930   33.4590   39.0210 C   0  0  0  0  0  3  0  0  0  0  0  0
   45.1620   32.9310   38.3320 C   0  0  0  0  0  0  0  0  0  0  0  0
   44.7710   32.1920   36.7950 Cl  0  0  0  0  0  0  0  0  0  0  0  0
   46.4210   33.0190   38.8830 C   0  0  0  0  0  0  0  0  0  0  0  0
   47.1920   32.5810   38.2760 H   0  0  0  0  0  0  0  0  0  0  0  0
  1  6  1  0  0  0  0
  2  1  2  0  0  0  0
  2  3  1  0  0  0  0
  3  4  2  0  0  0  0
  4  5  1  0  0  0  0
  5  8  1  0  0  0  0
  6  5  2  0  0  0  0
  7  1  1  0  0  0  0
  9  3  1  0  0  0  0
 10  9  2  0  0  0  0
 10 14  1  0  0  0  0
 11 10  1  0  0  0  0
 12 13  1  0  0  0  0
 12 11  2  0  0  0  0
 13  9  1  0  0  0  0
 15 11  1  0  0  0  0
 16 12  1  0  0  0  0
 17 18  1  6  0  0  0
 17  2  1  0  0  0  0
 20 19  1  0  0  0  0
 20 21  1  0  0  0  0
 21 17  1  0  0  0  0
 22 21  2  0  0  0  0
 22 23  1  0  0  0  0
 24 22  1  0  0  0  0
 25 27  1  0  0  0  0
 25 24  2  0  0  0  0
 26 25  1  0  0  0  0
 27 20  2  0  0  0  0
 28 27  1  0  0  0  0
M  END
>  <minimizedAffinity>
-4.56640768

>  <minimizedRMSD>
1.26458025

$$$$
