
 OpenBabel03252509293D

 22 23  0  0  0  0  0  0  0  0999 V2000
   46.7270   35.0790   42.0040 C   0  0  0  0  0  0  0  0  0  0  0  0
   46.0290   34.6830   41.2170 H   0  0  0  0  0  0  0  0  0  0  0  0
   46.9310   36.1470   41.7870 H   0  0  0  0  0  0  0  0  0  0  0  0
   46.4090   32.5970   40.4230 Cl  0  0  0  0  0  0  0  0  0  0  0  0
   47.9390   33.0760   41.1550 C   0  0  0  0  0  0  0  0  0  0  0  0
   47.9570   34.2700   41.8770 C   0  0  0  0  0  0  0  0  0  0  0  0
   49.1730   34.6460   42.4560 C   0  0  0  0  0  0  0  0  0  0  0  0
   49.2080   35.5830   43.0290 H   0  0  0  0  0  0  0  0  0  0  0  0
   50.3250   33.8920   42.3400 C   0  0  0  0  0  3  0  0  0  0  0  0
   50.2880   32.6980   41.6120 C   0  0  0  0  0  0  0  0  0  0  0  0
   51.7310   31.7140   41.4420 Cl  0  0  0  0  0  0  0  0  0  0  0  0
   49.0870   32.3050   41.0260 C   0  0  0  0  0  0  0  0  0  0  0  0
   49.0500   31.3720   40.4550 H   0  0  0  0  0  0  0  0  0  0  0  0
   44.4980   35.8900   44.8590 C   0  0  0  0  0  0  0  0  0  0  0  0
   45.1390   35.9890   43.6110 C   0  0  0  0  0  0  0  0  0  0  0  0
   46.0630   34.9780   43.2960 C   0  0  0  0  0  0  0  0  0  0  0  0
   46.2720   33.9840   44.2060 N   0  0  0  0  0  0  0  0  0  0  0  0
   45.6250   33.9390   45.3940 C   0  0  0  0  0  0  0  0  0  0  0  0
   44.7360   34.8990   45.7150 N   0  0  0  0  0  0  0  0  0  0  0  0
   43.7820   36.6910   45.0810 H   0  0  0  0  0  0  0  0  0  0  0  0
   44.9480   36.7920   42.9150 H   0  0  0  0  0  0  0  0  0  0  0  0
   45.8690   33.1010   46.0440 H   0  0  0  0  0  0  0  0  0  0  0  0
  1 16  1  0  0  0  0
  2  1  1  0  0  0  0
  3  1  1  0  0  0  0
  4  5  1  0  0  0  0
  5  6  1  0  0  0  0
  6  1  1  0  0  0  0
  6  7  2  0  0  0  0
  7  8  1  0  0  0  0
  9  7  1  0  0  0  0
 10  9  2  0  0  0  0
 11 10  1  0  0  0  0
 12  5  2  0  0  0  0
 12 10  1  0  0  0  0
 13 12  1  0  0  0  0
 14 20  1  0  0  0  0
 14 19  1  0  0  0  0
 15 14  2  0  0  0  0
 16 15  1  0  0  0  0
 16 17  2  0  0  0  0
 17 18  1  0  0  0  0
 18 19  2  0  0  0  0
 18 22  1  0  0  0  0
 21 15  1  0  0  0  0
M  END
>  <minimizedAffinity>
-4.7060895

>  <minimizedRMSD>
2.66478896

$$$$
