
 OpenBabel03242510273D

 19 20  0  0  0  0  0  0  0  0999 V2000
   44.5550   33.1660   41.3250 Cl  0  0  0  0  0  0  0  0  0  0  0  0
   46.1110   33.9220   41.0070 C   0  0  0  0  0  0  0  0  0  0  0  0
   46.7250   34.6710   41.9910 C   0  0  0  0  0  0  0  0  0  0  0  0
   47.9450   35.2450   41.6980 C   0  0  0  0  0  0  0  0  0  0  0  0
   48.4320   35.8290   42.4530 H   0  0  0  0  0  0  0  0  0  0  0  0
   48.5400   35.0800   40.4610 C   0  0  0  0  0  0  0  0  0  0  0  0
   47.8720   34.3130   39.5070 C   0  0  0  0  0  0  0  0  0  0  0  0
   48.6180   34.0990   37.9380 Cl  0  0  0  0  0  0  0  0  0  0  0  0
   46.6520   33.7180   39.7520 C   0  0  0  0  0  0  0  0  0  0  0  0
   46.1610   33.1270   38.9840 H   0  0  0  0  0  0  0  0  0  0  0  0
   44.4920   35.9540   44.7670 C   0  0  0  0  0  0  0  0  0  0  0  0
   45.1520   35.8450   43.5340 C   0  0  0  0  0  0  0  0  0  0  0  0
   46.0310   34.7970   43.2710 C   0  0  0  0  0  0  0  0  0  0  0  0
   46.2030   33.8970   44.2740 N   0  0  0  0  0  0  0  0  0  0  0  0
   45.5680   34.0080   45.4530 C   0  0  0  0  0  0  0  0  0  0  0  0
   44.7270   35.0200   45.6930 N   0  0  0  0  0  0  0  0  0  0  0  0
   43.8180   36.7820   44.9320 H   0  0  0  0  0  0  0  0  0  0  0  0
   44.9570   36.5930   42.8100 H   0  0  0  0  0  0  0  0  0  0  0  0
   45.7810   33.2230   46.1970 H   0  0  0  0  0  0  0  0  0  0  0  0
  2  1  1  0  0  0  0
  2  3  1  0  0  0  0
  3 13  1  0  0  0  0
  4  3  2  0  0  0  0
  4  5  1  0  0  0  0
  6  4  1  0  0  0  0
  7  9  1  0  0  0  0
  7  6  2  0  0  0  0
  8  7  1  0  0  0  0
  9  2  2  0  0  0  0
 10  9  1  0  0  0  0
 11 17  1  0  0  0  0
 11 16  1  0  0  0  0
 12 11  2  0  0  0  0
 13 12  1  0  0  0  0
 13 14  2  0  0  0  0
 14 15  1  0  0  0  0
 15 16  2  0  0  0  0
 15 19  1  0  0  0  0
 18 12  1  0  0  0  0
M  END
>  <minimizedAffinity>
-5.0729146

>  <minimizedRMSD>
1.37645328

$$$$
