
 OpenBabel03242517053D

 34 36  0  0  0  0  0  0  0  0999 V2000
   36.6450   26.0780   39.5270 C   0  0  0  0  0  0  0  0  0  0  0  0
   36.2010   25.0140   38.7570 C   0  0  0  0  0  0  0  0  0  0  0  0
   36.1400   23.7630   39.3530 C   0  0  0  0  0  0  0  0  0  0  0  0
   36.5050   23.5950   40.6480 C   0  0  0  0  0  0  0  0  0  0  0  0
   36.9520   24.6350   41.4420 C   0  0  0  0  0  0  0  0  0  0  0  0
   37.0090   25.8950   40.8270 C   0  0  0  0  0  0  0  0  0  0  0  0
   35.9040   25.1170   37.7280 H   0  0  0  0  0  0  0  0  0  0  0  0
   35.8020   22.8910   38.8090 H   0  0  0  0  0  0  0  0  0  0  0  0
   36.4800   22.6460   41.1690 H   0  0  0  0  0  0  0  0  0  0  0  0
   37.2610   24.6190   42.4580 H   0  0  0  0  0  0  0  0  0  0  0  0
   35.7650   29.2900   37.7600 C   0  0  0  0  0  0  0  0  0  0  0  0
   35.5890   28.0360   38.3900 C   0  0  0  0  0  0  0  0  0  0  0  0
   36.6950   27.3800   38.8570 C   0  0  0  0  0  0  0  0  0  0  0  0
   37.9110   27.9760   38.6880 N   0  0  0  0  0  0  0  0  0  0  0  0
   38.0760   29.1720   38.0880 C   0  0  0  0  0  0  0  0  0  0  0  0
   36.9940   29.8390   37.6170 N   0  0  0  0  0  0  0  0  0  0  0  0
   34.8160   29.7050   37.4360 H   0  0  0  0  0  0  0  0  0  0  0  0
   34.6330   27.5710   38.5220 H   0  0  0  0  0  0  0  0  0  0  0  0
   39.0530   29.6200   37.9670 H   0  0  0  0  0  0  0  0  0  0  0  0
   37.1440   27.6980   42.7140 C   0  0  0  0  0  0  0  0  0  0  0  0
   36.2750   27.3530   43.4970 O   0  0  0  0  0  0  0  0  0  0  0  0
   37.4550   27.0500   41.5070 N   0  0  0  0  0  0  0  0  0  0  0  0
   38.1990   27.4340   40.8540 H   0  0  0  0  0  0  0  0  0  0  0  0
   37.8920   28.8300   43.0470 O   0  0  0  0  0  0  0  0  0  0  0  0
   40.4600   30.3090   42.4830 Cl  0  0  0  0  0  0  0  0  0  0  0  0
   38.9140   30.7160   41.7940 C   0  0  0  0  0  0  0  0  0  0  0  0
   37.8530   29.9130   42.1780 C   0  0  0  0  0  0  0  0  0  0  0  0
   36.5900   30.1800   41.6680 C   0  0  0  0  0  0  0  0  0  0  0  0
   35.7010   29.6000   41.9170 H   0  0  0  0  0  0  0  0  0  0  0  0
   36.3800   31.2290   40.7860 C   0  0  0  0  0  3  0  0  0  0  0  0
   37.4580   32.0210   40.4140 C   0  0  0  0  0  0  0  0  0  0  0  0
   37.2390   33.3590   39.3010 Cl  0  0  0  0  0  0  0  0  0  0  0  0
   38.7170   31.7620   40.9180 C   0  0  0  0  0  0  0  0  0  0  0  0
   39.5820   32.3620   40.6470 H   0  0  0  0  0  0  0  0  0  0  0  0
  1  6  1  0  0  0  0
  2  3  1  0  0  0  0
  2  1  2  0  0  0  0
  3  4  2  0  0  0  0
  4  9  1  0  0  0  0
  4  5  1  0  0  0  0
  5 10  1  0  0  0  0
  6  5  2  0  0  0  0
  6 22  1  0  0  0  0
  7  2  1  0  0  0  0
  8  3  1  0  0  0  0
 11 12  1  0  0  0  0
 12 18  1  0  0  0  0
 12 13  2  0  0  0  0
 13  1  1  0  0  0  0
 14 13  1  0  0  0  0
 15 14  2  0  0  0  0
 16 11  2  0  0  0  0
 16 15  1  0  0  0  0
 17 11  1  0  0  0  0
 19 15  1  0  0  0  0
 20 24  1  0  0  0  0
 20 21  2  0  0  0  0
 22 20  1  0  0  0  0
 23 22  1  0  0  0  0
 26 27  1  0  0  0  0
 26 25  1  0  0  0  0
 27 24  1  0  0  0  0
 28 29  1  0  0  0  0
 28 27  2  0  0  0  0
 30 28  1  0  0  0  0
 31 30  2  0  0  0  0
 31 33  1  0  0  0  0
 32 31  1  0  0  0  0
 33 26  2  0  0  0  0
 34 33  1  0  0  0  0
M  END
>  <minimizedAffinity>
-5.81233931

$$$$

 OpenBabel03242517053D

 34 36  0  0  0  0  0  0  0  0999 V2000
   37.4530   25.6470   41.0210 C   0  0  0  0  0  0  0  0  0  0  0  0
   37.8940   24.5090   41.6770 C   0  0  0  0  0  0  0  0  0  0  0  0
   37.7020   23.2850   41.0550 C   0  0  0  0  0  0  0  0  0  0  0  0
   37.0990   23.2110   39.8420 C   0  0  0  0  0  0  0  0  0  0  0  0
   36.6470   24.3280   39.1620 C   0  0  0  0  0  0  0  0  0  0  0  0
   36.8470   25.5600   39.8030 C   0  0  0  0  0  0  0  0  0  0  0  0
   38.3770   24.5350   42.6390 H   0  0  0  0  0  0  0  0  0  0  0  0
   38.0230   22.3580   41.5120 H   0  0  0  0  0  0  0  0  0  0  0  0
   36.9200   22.2880   39.3060 H   0  0  0  0  0  0  0  0  0  0  0  0
   36.1660   24.3880   38.2180 H   0  0  0  0  0  0  0  0  0  0  0  0
   37.3240   28.5350   43.4410 C   0  0  0  0  0  0  0  0  0  0  0  0
   37.0240   27.2790   42.8630 C   0  0  0  0  0  0  0  0  0  0  0  0
   37.6750   26.9170   41.7150 C   0  0  0  0  0  0  0  0  0  0  0  0
   38.5810   27.7930   41.1910 N   0  0  0  0  0  0  0  0  0  0  0  0
   38.8660   28.9890   41.7450 C   0  0  0  0  0  0  0  0  0  0  0  0
   38.2320   29.3680   42.8820 N   0  0  0  0  0  0  0  0  0  0  0  0
   36.7440   28.7020   44.3420 H   0  0  0  0  0  0  0  0  0  0  0  0
   36.3120   26.5940   43.2770 H   0  0  0  0  0  0  0  0  0  0  0  0
   39.5900   29.6620   41.3060 H   0  0  0  0  0  0  0  0  0  0  0  0
   36.7960   27.5640   38.1270 C   0  0  0  0  0  0  0  0  0  0  0  0
   37.7030   27.3080   37.3520 O   0  0  0  0  0  0  0  0  0  0  0  0
   36.4300   26.7840   39.2370 N   0  0  0  0  0  0  0  0  0  0  0  0
   35.6540   27.0930   39.8920 H   0  0  0  0  0  0  0  0  0  0  0  0
   36.0600   28.7270   37.8890 O   0  0  0  0  0  0  0  0  0  0  0  0
   35.0740   29.3090   40.6800 Cl  0  0  0  0  0  0  0  0  0  0  0  0
   36.1410   30.3440   39.7730 C   0  0  0  0  0  0  0  0  0  0  0  0
   36.4790   29.8990   38.5060 C   0  0  0  0  0  0  0  0  0  0  0  0
   37.3260   30.6740   37.7260 C   0  0  0  0  0  0  0  0  0  0  0  0
   37.6430   30.4010   36.7190 H   0  0  0  0  0  0  0  0  0  0  0  0
   37.8340   31.8760   38.1970 C   0  0  0  0  0  3  0  0  0  0  0  0
   37.4820   32.3020   39.4700 C   0  0  0  0  0  0  0  0  0  0  0  0
   38.1000   33.8160   40.1050 Cl  0  0  0  0  0  0  0  0  0  0  0  0
   36.6390   31.5370   40.2510 C   0  0  0  0  0  0  0  0  0  0  0  0
   36.3450   31.8420   41.2510 H   0  0  0  0  0  0  0  0  0  0  0  0
  1  2  1  0  0  0  0
  1 13  1  0  0  0  0
  2  7  1  0  0  0  0
  3  8  1  0  0  0  0
  3  2  2  0  0  0  0
  4  3  1  0  0  0  0
  5  6  1  0  0  0  0
  5  4  2  0  0  0  0
  6  1  2  0  0  0  0
  9  4  1  0  0  0  0
 10  5  1  0  0  0  0
 11 17  1  0  0  0  0
 12 18  1  0  0  0  0
 12 11  2  0  0  0  0
 13 12  1  0  0  0  0
 14 13  2  0  0  0  0
 14 15  1  0  0  0  0
 15 16  2  0  0  0  0
 16 11  1  0  0  0  0
 19 15  1  0  0  0  0
 20 22  1  0  0  0  0
 21 20  2  0  0  0  0
 22  6  1  0  0  0  0
 22 23  1  0  0  0  0
 24 20  1  0  0  0  0
 24 27  1  0  0  0  0
 26 33  1  0  0  0  0
 26 25  1  0  0  0  0
 27 26  2  0  0  0  0
 28 30  2  0  0  0  0
 28 27  1  0  0  0  0
 29 28  1  0  0  0  0
 30 31  1  0  0  0  0
 31 32  1  0  0  0  0
 31 33  2  0  0  0  0
 33 34  1  0  0  0  0
M  END
>  <minimizedAffinity>
-5.72660494

$$$$

 OpenBabel03242517053D

 34 36  0  0  0  0  0  0  0  0999 V2000
   37.5370   30.6830   38.2970 C   0  0  0  0  0  0  0  0  0  0  0  0
   37.3090   30.7860   36.9340 C   0  0  0  0  0  0  0  0  0  0  0  0
   36.7850   29.6820   36.2780 C   0  0  0  0  0  0  0  0  0  0  0  0
   36.5080   28.5410   36.9570 C   0  0  0  0  0  0  0  0  0  0  0  0
   36.7250   28.4070   38.3160 C   0  0  0  0  0  0  0  0  0  0  0  0
   37.2550   29.5300   38.9670 C   0  0  0  0  0  0  0  0  0  0  0  0
   37.5180   31.6780   36.3680 H   0  0  0  0  0  0  0  0  0  0  0  0
   36.5830   29.6960   35.2160 H   0  0  0  0  0  0  0  0  0  0  0  0
   36.0990   27.6470   36.5030 H   0  0  0  0  0  0  0  0  0  0  0  0
   36.5460   27.5690   38.9440 H   0  0  0  0  0  0  0  0  0  0  0  0
   37.9860   34.0260   39.9820 C   0  0  0  0  0  0  0  0  0  0  0  0
   37.3350   32.9330   39.3640 C   0  0  0  0  0  0  0  0  0  0  0  0
   38.0920   31.8720   38.9490 C   0  0  0  0  0  0  0  0  0  0  0  0
   39.4400   31.9290   39.1560 N   0  0  0  0  0  0  0  0  0  0  0  0
   40.0580   32.9710   39.7450 C   0  0  0  0  0  0  0  0  0  0  0  0
   39.3270   34.0340   40.1640 N   0  0  0  0  0  0  0  0  0  0  0  0
   37.2790   34.7990   40.2620 H   0  0  0  0  0  0  0  0  0  0  0  0
   36.2770   32.8920   39.2030 H   0  0  0  0  0  0  0  0  0  0  0  0
   41.1290   32.9890   39.8960 H   0  0  0  0  0  0  0  0  0  0  0  0
   36.9030   29.0870   41.5190 C   0  0  0  0  0  0  0  0  0  0  0  0
   35.8060   28.5550   41.5650 O   0  0  0  0  0  0  0  0  0  0  0  0
   37.5400   29.5410   40.3500 N   0  0  0  0  0  0  0  0  0  0  0  0
   38.4790   30.0320   40.3930 H   0  0  0  0  0  0  0  0  0  0  0  0
   37.5840   29.2570   42.7270 O   0  0  0  0  0  0  0  0  0  0  0  0
   40.2390   30.6570   42.4300 Cl  0  0  0  0  0  0  0  0  0  0  0  0
   40.0490   28.9760   42.8390 C   0  0  0  0  0  0  0  0  0  0  0  0
   38.7440   28.5200   42.9280 C   0  0  0  0  0  0  0  0  0  0  0  0
   38.5180   27.1900   43.2510 C   0  0  0  0  0  0  0  0  0  0  0  0
   37.5250   26.7480   43.3410 H   0  0  0  0  0  0  0  0  0  0  0  0
   39.5720   26.3190   43.4830 C   0  0  0  0  0  3  0  0  0  0  0  0
   40.8720   26.7970   43.3880 C   0  0  0  0  0  0  0  0  0  0  0  0
   42.2360   25.7310   43.6730 Cl  0  0  0  0  0  0  0  0  0  0  0  0
   41.1050   28.1190   43.0670 C   0  0  0  0  0  0  0  0  0  0  0  0
   42.1090   28.5250   42.9850 H   0  0  0  0  0  0  0  0  0  0  0  0
  1 13  1  0  0  0  0
  1  6  1  0  0  0  0
  2  1  2  0  0  0  0
  3  2  1  0  0  0  0
  3  4  2  0  0  0  0
  4  5  1  0  0  0  0
  5 10  1  0  0  0  0
  5  6  2  0  0  0  0
  6 22  1  0  0  0  0
  7  2  1  0  0  0  0
  8  3  1  0  0  0  0
  9  4  1  0  0  0  0
 11 16  1  0  0  0  0
 11 17  1  0  0  0  0
 12 11  2  0  0  0  0
 13 14  2  0  0  0  0
 13 12  1  0  0  0  0
 14 15  1  0  0  0  0
 15 19  1  0  0  0  0
 15 16  2  0  0  0  0
 18 12  1  0  0  0  0
 20 21  2  0  0  0  0
 20 24  1  0  0  0  0
 22 23  1  0  0  0  0
 22 20  1  0  0  0  0
 24 27  1  0  0  0  0
 25 26  1  0  0  0  0
 26 27  2  0  0  0  0
 26 33  1  0  0  0  0
 27 28  1  0  0  0  0
 28 29  1  0  0  0  0
 28 30  2  0  0  0  0
 31 30  1  0  0  0  0
 31 32  1  0  0  0  0
 33 31  2  0  0  0  0
 34 33  1  0  0  0  0
M  END
>  <minimizedAffinity>
-5.71641016

$$$$

 OpenBabel03242517053D

 34 36  0  0  0  0  0  0  0  0999 V2000
   37.4030   30.1460   39.2270 C   0  0  0  0  0  0  0  0  0  0  0  0
   37.3020   30.9400   38.0950 C   0  0  0  0  0  0  0  0  0  0  0  0
   37.2840   32.3160   38.2670 C   0  0  0  0  0  0  0  0  0  0  0  0
   37.3620   32.8610   39.5070 C   0  0  0  0  0  0  0  0  0  0  0  0
   37.4630   32.0960   40.6550 C   0  0  0  0  0  0  0  0  0  0  0  0
   37.4810   30.7060   40.4680 C   0  0  0  0  0  0  0  0  0  0  0  0
   37.2400   30.5380   37.0990 H   0  0  0  0  0  0  0  0  0  0  0  0
   37.2080   32.9930   37.4260 H   0  0  0  0  0  0  0  0  0  0  0  0
   37.3530   33.9250   39.7060 H   0  0  0  0  0  0  0  0  0  0  0  0
   37.5300   32.4110   41.6670 H   0  0  0  0  0  0  0  0  0  0  0  0
   36.4540   26.5830   38.4450 C   0  0  0  0  0  0  0  0  0  0  0  0
   36.3140   27.9770   38.6360 C   0  0  0  0  0  0  0  0  0  0  0  0
   37.4180   28.7000   39.0000 C   0  0  0  0  0  0  0  0  0  0  0  0
   38.5960   28.0290   39.1590 N   0  0  0  0  0  0  0  0  0  0  0  0
   38.7260   26.7000   38.9760 C   0  0  0  0  0  0  0  0  0  0  0  0
   37.6450   25.9650   38.6150 N   0  0  0  0  0  0  0  0  0  0  0  0
   35.5110   26.1280   38.1600 H   0  0  0  0  0  0  0  0  0  0  0  0
   35.3880   28.5000   38.5100 H   0  0  0  0  0  0  0  0  0  0  0  0
   39.6740   26.1960   39.1090 H   0  0  0  0  0  0  0  0  0  0  0  0
   38.3840   29.6490   42.6800 C   0  0  0  0  0  0  0  0  0  0  0  0
   39.3310   30.3610   42.9680 O   0  0  0  0  0  0  0  0  0  0  0  0
   37.5690   29.7970   41.5450 N   0  0  0  0  0  0  0  0  0  0  0  0
   36.7860   29.1110   41.3390 H   0  0  0  0  0  0  0  0  0  0  0  0
   38.0830   28.6000   43.5530 O   0  0  0  0  0  0  0  0  0  0  0  0
   40.7720   27.2370   43.6800 Cl  0  0  0  0  0  0  0  0  0  0  0  0
   39.3260   26.5110   43.0380 C   0  0  0  0  0  0  0  0  0  0  0  0
   38.1890   27.3020   43.0690 C   0  0  0  0  0  0  0  0  0  0  0  0
   36.9990   26.7880   42.5740 C   0  0  0  0  0  0  0  0  0  0  0  0
   36.0590   27.3400   42.5590 H   0  0  0  0  0  0  0  0  0  0  0  0
   36.9350   25.5040   42.0540 C   0  0  0  0  0  3  0  0  0  0  0  0
   38.0860   24.7280   42.0330 C   0  0  0  0  0  0  0  0  0  0  0  0
   38.0510   23.0990   41.3840 Cl  0  0  0  0  0  0  0  0  0  0  0  0
   39.2730   25.2340   42.5240 C   0  0  0  0  0  0  0  0  0  0  0  0
   40.1920   24.6530   42.5220 H   0  0  0  0  0  0  0  0  0  0  0  0
  1  6  1  0  0  0  0
  2  3  1  0  0  0  0
  2  1  2  0  0  0  0
  3  4  2  0  0  0  0
  4  9  1  0  0  0  0
  4  5  1  0  0  0  0
  5 10  1  0  0  0  0
  6  5  2  0  0  0  0
  6 22  1  0  0  0  0
  7  2  1  0  0  0  0
  8  3  1  0  0  0  0
 11 16  2  0  0  0  0
 11 12  1  0  0  0  0
 12 13  2  0  0  0  0
 13 14  1  0  0  0  0
 13  1  1  0  0  0  0
 15 19  1  0  0  0  0
 15 14  2  0  0  0  0
 16 15  1  0  0  0  0
 17 11  1  0  0  0  0
 18 12  1  0  0  0  0
 20 21  2  0  0  0  0
 20 24  1  0  0  0  0
 22 20  1  0  0  0  0
 23 22  1  0  0  0  0
 26 27  1  0  0  0  0
 26 25  1  0  0  0  0
 27 24  1  0  0  0  0
 28 27  2  0  0  0  0
 29 28  1  0  0  0  0
 30 28  1  0  0  0  0
 31 30  2  0  0  0  0
 31 33  1  0  0  0  0
 32 31  1  0  0  0  0
 33 26  2  0  0  0  0
 34 33  1  0  0  0  0
M  END
>  <minimizedAffinity>
-5.6180048

$$$$

 OpenBabel03242517053D

 34 36  0  0  0  0  0  0  0  0999 V2000
   37.1980   30.3290   37.5970 C   0  0  0  0  0  0  0  0  0  0  0  0
   37.1330   30.4680   36.2200 C   0  0  0  0  0  0  0  0  0  0  0  0
   36.5360   29.4500   35.4920 C   0  0  0  0  0  0  0  0  0  0  0  0
   36.0330   28.3550   36.1160 C   0  0  0  0  0  0  0  0  0  0  0  0
   36.0840   28.1860   37.4880 C   0  0  0  0  0  0  0  0  0  0  0  0
   36.6900   29.2230   38.2120 C   0  0  0  0  0  0  0  0  0  0  0  0
   37.5210   31.3250   35.6960 H   0  0  0  0  0  0  0  0  0  0  0  0
   36.4510   29.4960   34.4150 H   0  0  0  0  0  0  0  0  0  0  0  0
   35.5570   27.5280   35.6050 H   0  0  0  0  0  0  0  0  0  0  0  0
   35.7260   27.3790   38.0780 H   0  0  0  0  0  0  0  0  0  0  0  0
   39.6870   32.7510   39.0640 C   0  0  0  0  0  0  0  0  0  0  0  0
   39.1870   31.6570   38.3200 C   0  0  0  0  0  0  0  0  0  0  0  0
   37.8380   31.4270   38.3260 C   0  0  0  0  0  0  0  0  0  0  0  0
   37.0490   32.2700   39.0530 N   0  0  0  0  0  0  0  0  0  0  0  0
   37.5290   33.3120   39.7610 C   0  0  0  0  0  0  0  0  0  0  0  0
   38.8620   33.5580   39.7690 N   0  0  0  0  0  0  0  0  0  0  0  0
   40.7660   32.8240   38.9780 H   0  0  0  0  0  0  0  0  0  0  0  0
   39.8090   30.9970   37.7500 H   0  0  0  0  0  0  0  0  0  0  0  0
   36.8780   33.9640   40.3280 H   0  0  0  0  0  0  0  0  0  0  0  0
   35.9550   29.0800   40.7160 C   0  0  0  0  0  0  0  0  0  0  0  0
   34.7370   29.0280   40.6500 O   0  0  0  0  0  0  0  0  0  0  0  0
   36.8250   29.1880   39.6170 N   0  0  0  0  0  0  0  0  0  0  0  0
   37.8740   29.2700   39.7550 H   0  0  0  0  0  0  0  0  0  0  0  0
   36.5300   29.0270   41.9880 O   0  0  0  0  0  0  0  0  0  0  0  0
   39.3520   29.7530   42.7660 Cl  0  0  0  0  0  0  0  0  0  0  0  0
   38.7560   28.1250   42.6210 C   0  0  0  0  0  0  0  0  0  0  0  0
   37.4260   28.0000   42.2520 C   0  0  0  0  0  0  0  0  0  0  0  0
   36.8830   26.7300   42.1170 C   0  0  0  0  0  0  0  0  0  0  0  0
   35.8490   26.5400   41.8300 H   0  0  0  0  0  0  0  0  0  0  0  0
   37.6480   25.5950   42.3460 C   0  0  0  0  0  3  0  0  0  0  0  0
   38.9780   25.7440   42.7160 C   0  0  0  0  0  0  0  0  0  0  0  0
   39.9820   24.3370   43.0150 Cl  0  0  0  0  0  0  0  0  0  0  0  0
   39.5250   27.0040   42.8510 C   0  0  0  0  0  0  0  0  0  0  0  0
   40.5620   27.1550   43.1390 H   0  0  0  0  0  0  0  0  0  0  0  0
  1  6  1  0  0  0  0
  1 13  1  0  0  0  0
  2  1  2  0  0  0  0
  3  4  2  0  0  0  0
  3  2  1  0  0  0  0
  4  5  1  0  0  0  0
  5 10  1  0  0  0  0
  5  6  2  0  0  0  0
  6 22  1  0  0  0  0
  7  2  1  0  0  0  0
  8  3  1  0  0  0  0
  9  4  1  0  0  0  0
 11 16  1  0  0  0  0
 12 13  1  0  0  0  0
 12 11  2  0  0  0  0
 13 14  2  0  0  0  0
 14 15  1  0  0  0  0
 15 16  2  0  0  0  0
 15 19  1  0  0  0  0
 17 11  1  0  0  0  0
 18 12  1  0  0  0  0
 20 24  1  0  0  0  0
 21 20  2  0  0  0  0
 22 23  1  0  0  0  0
 22 20  1  0  0  0  0
 24 27  1  0  0  0  0
 26 25  1  0  0  0  0
 26 33  1  0  0  0  0
 27 26  2  0  0  0  0
 28 27  1  0  0  0  0
 28 30  2  0  0  0  0
 29 28  1  0  0  0  0
 30 31  1  0  0  0  0
 31 33  2  0  0  0  0
 31 32  1  0  0  0  0
 33 34  1  0  0  0  0
M  END
>  <minimizedAffinity>
-5.54811096

$$$$

 OpenBabel03242517053D

 34 36  0  0  0  0  0  0  0  0999 V2000
   39.8640   31.6720   38.6410 C   0  0  0  0  0  0  0  0  0  0  0  0
   40.4280   32.2100   37.4950 C   0  0  0  0  0  0  0  0  0  0  0  0
   41.4670   33.1160   37.6460 C   0  0  0  0  0  0  0  0  0  0  0  0
   41.9120   33.4600   38.8810 C   0  0  0  0  0  0  0  0  0  0  0  0
   41.3700   32.9420   40.0430 C   0  0  0  0  0  0  0  0  0  0  0  0
   40.3200   32.0270   39.8760 C   0  0  0  0  0  0  0  0  0  0  0  0
   40.0980   31.9560   36.5020 H   0  0  0  0  0  0  0  0  0  0  0  0
   41.9520   33.5720   36.7940 H   0  0  0  0  0  0  0  0  0  0  0  0
   42.7180   34.1600   39.0650 H   0  0  0  0  0  0  0  0  0  0  0  0
   41.6360   33.1370   41.0520 H   0  0  0  0  0  0  0  0  0  0  0  0
   36.5450   30.0720   37.8430 C   0  0  0  0  0  0  0  0  0  0  0  0
   37.5220   31.0830   38.0050 C   0  0  0  0  0  0  0  0  0  0  0  0
   38.7690   30.7220   38.4350 C   0  0  0  0  0  0  0  0  0  0  0  0
   39.0020   29.4000   38.6840 N   0  0  0  0  0  0  0  0  0  0  0  0
   38.0700   28.4390   38.5280 C   0  0  0  0  0  0  0  0  0  0  0  0
   36.8260   28.7740   38.1040 N   0  0  0  0  0  0  0  0  0  0  0  0
   35.6030   30.4860   37.5010 H   0  0  0  0  0  0  0  0  0  0  0  0
   37.3360   32.1190   37.8090 H   0  0  0  0  0  0  0  0  0  0  0  0
   38.2840   27.3980   38.7330 H   0  0  0  0  0  0  0  0  0  0  0  0
   40.0490   30.7810   42.1570 C   0  0  0  0  0  0  0  0  0  0  0  0
   41.2000   30.5610   42.4970 O   0  0  0  0  0  0  0  0  0  0  0  0
   39.6600   31.4230   40.9690 N   0  0  0  0  0  0  0  0  0  0  0  0
   38.6360   31.5420   40.7200 H   0  0  0  0  0  0  0  0  0  0  0  0
   39.0350   30.3630   43.0220 O   0  0  0  0  0  0  0  0  0  0  0  0
   36.4540   30.3450   41.4610 Cl  0  0  0  0  0  0  0  0  0  0  0  0
   37.2470   28.9220   42.0730 C   0  0  0  0  0  0  0  0  0  0  0  0
   38.4270   29.1400   42.7660 C   0  0  0  0  0  0  0  0  0  0  0  0
   39.1140   28.0510   43.2830 C   0  0  0  0  0  0  0  0  0  0  0  0
   40.0470   28.1310   43.8410 H   0  0  0  0  0  0  0  0  0  0  0  0
   38.6380   26.7590   43.1150 C   0  0  0  0  0  3  0  0  0  0  0  0
   37.4540   26.5630   42.4170 C   0  0  0  0  0  0  0  0  0  0  0  0
   36.8170   24.9460   42.1810 Cl  0  0  0  0  0  0  0  0  0  0  0  0
   36.7660   27.6420   41.9010 C   0  0  0  0  0  0  0  0  0  0  0  0
   35.8370   27.5240   41.3490 H   0  0  0  0  0  0  0  0  0  0  0  0
  1  6  1  0  0  0  0
  2  3  1  0  0  0  0
  2  1  2  0  0  0  0
  3  4  2  0  0  0  0
  4  9  1  0  0  0  0
  4  5  1  0  0  0  0
  5 10  1  0  0  0  0
  6  5  2  0  0  0  0
  6 22  1  0  0  0  0
  7  2  1  0  0  0  0
  8  3  1  0  0  0  0
 11 12  2  0  0  0  0
 11 16  1  0  0  0  0
 12 13  1  0  0  0  0
 13  1  1  0  0  0  0
 13 14  2  0  0  0  0
 15 14  1  0  0  0  0
 15 19  1  0  0  0  0
 16 15  2  0  0  0  0
 17 11  1  0  0  0  0
 18 12  1  0  0  0  0
 20 21  2  0  0  0  0
 20 24  1  0  0  0  0
 22 20  1  0  0  0  0
 23 22  1  0  0  0  0
 25 26  1  0  0  0  0
 26 27  1  0  0  0  0
 27 24  1  0  0  0  0
 27 28  2  0  0  0  0
 28 29  1  0  0  0  0
 30 28  1  0  0  0  0
 31 30  2  0  0  0  0
 32 31  1  0  0  0  0
 33 26  2  0  0  0  0
 33 31  1  0  0  0  0
 34 33  1  0  0  0  0
M  END
>  <minimizedAffinity>
-5.53849077

$$$$

 OpenBabel03242517053D

 34 36  0  0  0  0  0  0  0  0999 V2000
   37.6070   31.7380   39.9190 C   0  0  0  0  0  0  0  0  0  0  0  0
   37.1000   32.9710   39.5420 C   0  0  0  0  0  0  0  0  0  0  0  0
   37.8400   34.1010   39.8570 C   0  0  0  0  0  0  0  0  0  0  0  0
   39.0220   33.9940   40.5130 C   0  0  0  0  0  0  0  0  0  0  0  0
   39.5540   32.7780   40.9030 C   0  0  0  0  0  0  0  0  0  0  0  0
   38.7960   31.6430   40.5790 C   0  0  0  0  0  0  0  0  0  0  0  0
   36.1660   33.0880   39.0200 H   0  0  0  0  0  0  0  0  0  0  0  0
   37.5020   35.0940   39.5910 H   0  0  0  0  0  0  0  0  0  0  0  0
   39.6450   34.8360   40.7870 H   0  0  0  0  0  0  0  0  0  0  0  0
   40.4620   32.5770   41.4160 H   0  0  0  0  0  0  0  0  0  0  0  0
   35.8890   28.9250   38.0890 C   0  0  0  0  0  0  0  0  0  0  0  0
   36.7110   30.0550   38.3040 C   0  0  0  0  0  0  0  0  0  0  0  0
   36.7920   30.5720   39.5680 C   0  0  0  0  0  0  0  0  0  0  0  0
   36.0710   29.9640   40.5550 N   0  0  0  0  0  0  0  0  0  0  0  0
   35.2890   28.8860   40.3470 C   0  0  0  0  0  0  0  0  0  0  0  0
   35.1940   28.3580   39.1020 N   0  0  0  0  0  0  0  0  0  0  0  0
   35.9110   28.6140   37.0500 H   0  0  0  0  0  0  0  0  0  0  0  0
   37.2760   30.5300   37.5280 H   0  0  0  0  0  0  0  0  0  0  0  0
   34.7280   28.4250   41.1490 H   0  0  0  0  0  0  0  0  0  0  0  0
   39.1160   29.5110   42.0550 C   0  0  0  0  0  0  0  0  0  0  0  0
   38.6310   29.8340   43.1270 O   0  0  0  0  0  0  0  0  0  0  0  0
   39.2050   30.3360   40.9210 N   0  0  0  0  0  0  0  0  0  0  0  0
   39.6790   29.9980   40.0330 H   0  0  0  0  0  0  0  0  0  0  0  0
   39.6230   28.2140   41.9470 O   0  0  0  0  0  0  0  0  0  0  0  0
   39.5750   27.7170   38.9720 Cl  0  0  0  0  0  0  0  0  0  0  0  0
   38.6130   26.8490   40.1340 C   0  0  0  0  0  0  0  0  0  0  0  0
   38.7790   27.2260   41.4570 C   0  0  0  0  0  0  0  0  0  0  0  0
   38.0440   26.5760   42.4380 C   0  0  0  0  0  0  0  0  0  0  0  0
   38.1120   26.8090   43.5010 H   0  0  0  0  0  0  0  0  0  0  0  0
   37.1540   25.5620   42.1130 C   0  0  0  0  0  3  0  0  0  0  0  0
   37.0040   25.2000   40.7820 C   0  0  0  0  0  0  0  0  0  0  0  0
   35.8900   23.9250   40.3260 Cl  0  0  0  0  0  0  0  0  0  0  0  0
   37.7320   25.8430   39.8000 C   0  0  0  0  0  0  0  0  0  0  0  0
   37.6380   25.5840   38.7500 H   0  0  0  0  0  0  0  0  0  0  0  0
  1  6  1  0  0  0  0
  2  3  1  0  0  0  0
  2  1  2  0  0  0  0
  3  4  2  0  0  0  0
  4  9  1  0  0  0  0
  4  5  1  0  0  0  0
  5 10  1  0  0  0  0
  6  5  2  0  0  0  0
  6 22  1  0  0  0  0
  7  2  1  0  0  0  0
  8  3  1  0  0  0  0
 11 12  2  0  0  0  0
 11 16  1  0  0  0  0
 12 13  1  0  0  0  0
 13  1  1  0  0  0  0
 13 14  2  0  0  0  0
 15 14  1  0  0  0  0
 15 19  1  0  0  0  0
 16 15  2  0  0  0  0
 17 11  1  0  0  0  0
 18 12  1  0  0  0  0
 20 21  2  0  0  0  0
 22 20  1  0  0  0  0
 23 22  1  0  0  0  0
 24 20  1  0  0  0  0
 25 26  1  0  0  0  0
 26 27  1  0  0  0  0
 27 24  1  0  0  0  0
 27 28  2  0  0  0  0
 28 29  1  0  0  0  0
 30 28  1  0  0  0  0
 31 30  2  0  0  0  0
 32 31  1  0  0  0  0
 33 26  2  0  0  0  0
 33 31  1  0  0  0  0
 34 33  1  0  0  0  0
M  END
>  <minimizedAffinity>
-5.52633524

$$$$

 OpenBabel03242517053D

 34 36  0  0  0  0  0  0  0  0999 V2000
   37.0790   29.7550   37.7790 C   0  0  0  0  0  0  0  0  0  0  0  0
   36.7010   29.7430   36.4450 C   0  0  0  0  0  0  0  0  0  0  0  0
   35.4650   29.2010   36.1260 C   0  0  0  0  0  0  0  0  0  0  0  0
   34.6570   28.7000   37.0940 C   0  0  0  0  0  0  0  0  0  0  0  0
   35.0060   28.6970   38.4320 C   0  0  0  0  0  0  0  0  0  0  0  0
   36.2580   29.2480   38.7420 C   0  0  0  0  0  0  0  0  0  0  0  0
   37.3190   30.1330   35.6550 H   0  0  0  0  0  0  0  0  0  0  0  0
   35.1090   29.1610   35.1050 H   0  0  0  0  0  0  0  0  0  0  0  0
   33.6830   28.2650   36.9090 H   0  0  0  0  0  0  0  0  0  0  0  0
   34.4580   28.3360   39.2670 H   0  0  0  0  0  0  0  0  0  0  0  0
   40.0150   32.0890   38.1620 C   0  0  0  0  0  0  0  0  0  0  0  0
   38.7120   31.6450   37.8380 C   0  0  0  0  0  0  0  0  0  0  0  0
   38.3920   30.3350   38.0700 C   0  0  0  0  0  0  0  0  0  0  0  0
   39.3540   29.5270   38.6040 N   0  0  0  0  0  0  0  0  0  0  0  0
   40.5950   29.9530   38.9120 C   0  0  0  0  0  0  0  0  0  0  0  0
   40.9340   31.2470   38.6890 N   0  0  0  0  0  0  0  0  0  0  0  0
   40.1410   33.1410   37.9310 H   0  0  0  0  0  0  0  0  0  0  0  0
   37.9590   32.2820   37.4200 H   0  0  0  0  0  0  0  0  0  0  0  0
   41.3380   29.2890   39.3340 H   0  0  0  0  0  0  0  0  0  0  0  0
   36.6170   30.1720   41.1600 C   0  0  0  0  0  0  0  0  0  0  0  0
   35.9770   31.2100   41.1630 O   0  0  0  0  0  0  0  0  0  0  0  0
   36.7560   29.3050   40.0620 N   0  0  0  0  0  0  0  0  0  0  0  0
   37.3650   28.4380   40.1220 H   0  0  0  0  0  0  0  0  0  0  0  0
   37.2640   29.8150   42.3450 O   0  0  0  0  0  0  0  0  0  0  0  0
   40.2650   29.5470   42.4950 Cl  0  0  0  0  0  0  0  0  0  0  0  0
   39.1530   28.2090   42.5060 C   0  0  0  0  0  0  0  0  0  0  0  0
   37.8100   28.5400   42.4290 C   0  0  0  0  0  0  0  0  0  0  0  0
   36.8650   27.5230   42.4320 C   0  0  0  0  0  0  0  0  0  0  0  0
   35.7910   27.6940   42.3750 H   0  0  0  0  0  0  0  0  0  0  0  0
   37.2470   26.1920   42.5110 C   0  0  0  0  0  3  0  0  0  0  0  0
   38.5980   25.8820   42.5870 C   0  0  0  0  0  0  0  0  0  0  0  0
   39.1240   24.2120   42.6880 Cl  0  0  0  0  0  0  0  0  0  0  0  0
   39.5420   26.8890   42.5840 C   0  0  0  0  0  0  0  0  0  0  0  0
   40.6070   26.6810   42.6430 H   0  0  0  0  0  0  0  0  0  0  0  0
  1 13  1  0  0  0  0
  1  6  1  0  0  0  0
  2  1  2  0  0  0  0
  3  2  1  0  0  0  0
  3  4  2  0  0  0  0
  4  5  1  0  0  0  0
  5  6  2  0  0  0  0
  5 10  1  0  0  0  0
  6 22  1  0  0  0  0
  7  2  1  0  0  0  0
  8  3  1  0  0  0  0
  9  4  1  0  0  0  0
 11 16  1  0  0  0  0
 12 13  1  0  0  0  0
 12 11  2  0  0  0  0
 13 14  2  0  0  0  0
 14 15  1  0  0  0  0
 15 19  1  0  0  0  0
 16 15  2  0  0  0  0
 17 11  1  0  0  0  0
 18 12  1  0  0  0  0
 20 21  2  0  0  0  0
 20 24  1  0  0  0  0
 22 23  1  0  0  0  0
 22 20  1  0  0  0  0
 24 27  1  0  0  0  0
 25 26  1  0  0  0  0
 26 33  1  0  0  0  0
 27 28  1  0  0  0  0
 27 26  2  0  0  0  0
 28 30  2  0  0  0  0
 29 28  1  0  0  0  0
 30 31  1  0  0  0  0
 31 32  1  0  0  0  0
 33 31  2  0  0  0  0
 33 34  1  0  0  0  0
M  END
>  <minimizedAffinity>
-5.51353836

$$$$

 OpenBabel03242517053D

 34 36  0  0  0  0  0  0  0  0999 V2000
   36.8810   26.6310   40.1520 C   0  0  0  0  0  0  0  0  0  0  0  0
   36.5470   25.4160   39.5760 C   0  0  0  0  0  0  0  0  0  0  0  0
   36.5060   24.2980   40.3960 C   0  0  0  0  0  0  0  0  0  0  0  0
   36.7850   24.4000   41.7190 C   0  0  0  0  0  0  0  0  0  0  0  0
   37.1230   25.5970   42.3230 C   0  0  0  0  0  0  0  0  0  0  0  0
   37.1610   26.7200   41.4830 C   0  0  0  0  0  0  0  0  0  0  0  0
   36.3180   25.3040   38.5300 H   0  0  0  0  0  0  0  0  0  0  0  0
   36.2510   23.3200   40.0110 H   0  0  0  0  0  0  0  0  0  0  0  0
   36.7710   23.5660   42.4100 H   0  0  0  0  0  0  0  0  0  0  0  0
   37.3590   25.7920   43.3400 H   0  0  0  0  0  0  0  0  0  0  0  0
   35.9530   29.5270   37.9230 C   0  0  0  0  0  0  0  0  0  0  0  0
   35.7930   28.4220   38.7920 C   0  0  0  0  0  0  0  0  0  0  0  0
   36.9140   27.7840   39.2490 C   0  0  0  0  0  0  0  0  0  0  0  0
   38.1280   28.2520   38.8380 N   0  0  0  0  0  0  0  0  0  0  0  0
   38.2780   29.3050   38.0100 C   0  0  0  0  0  0  0  0  0  0  0  0
   37.1810   29.9520   37.5440 N   0  0  0  0  0  0  0  0  0  0  0  0
   34.9930   29.9420   37.6330 H   0  0  0  0  0  0  0  0  0  0  0  0
   34.8390   28.0580   39.1130 H   0  0  0  0  0  0  0  0  0  0  0  0
   39.2540   29.6540   37.7010 H   0  0  0  0  0  0  0  0  0  0  0  0
   38.5900   28.5860   42.6250 C   0  0  0  0  0  0  0  0  0  0  0  0
   39.5770   27.9850   43.0180 O   0  0  0  0  0  0  0  0  0  0  0  0
   37.4990   28.0070   41.9530 N   0  0  0  0  0  0  0  0  0  0  0  0
   36.6550   28.5880   41.6780 H   0  0  0  0  0  0  0  0  0  0  0  0
   38.5430   29.9620   42.8600 O   0  0  0  0  0  0  0  0  0  0  0  0
   36.4920   31.1910   41.0200 Cl  0  0  0  0  0  0  0  0  0  0  0  0
   38.2070   31.4660   40.9120 C   0  0  0  0  0  0  0  0  0  0  0  0
   38.9840   30.8090   41.8520 C   0  0  0  0  0  0  0  0  0  0  0  0
   40.3610   30.9820   41.8250 C   0  0  0  0  0  0  0  0  0  0  0  0
   41.0460   30.5030   42.5250 H   0  0  0  0  0  0  0  0  0  0  0  0
   40.9620   31.7980   40.8780 C   0  0  0  0  0  3  0  0  0  0  0  0
   40.1650   32.4480   39.9460 C   0  0  0  0  0  0  0  0  0  0  0  0
   40.8830   33.4890   38.7310 Cl  0  0  0  0  0  0  0  0  0  0  0  0
   38.7950   32.2800   39.9670 C   0  0  0  0  0  0  0  0  0  0  0  0
   38.1420   32.7730   39.2520 H   0  0  0  0  0  0  0  0  0  0  0  0
  1  6  1  0  0  0  0
  2  1  2  0  0  0  0
  2  3  1  0  0  0  0
  3  4  2  0  0  0  0
  4  5  1  0  0  0  0
  4  9  1  0  0  0  0
  5 10  1  0  0  0  0
  6 22  1  0  0  0  0
  6  5  2  0  0  0  0
  7  2  1  0  0  0  0
  8  3  1  0  0  0  0
 11 12  1  0  0  0  0
 12 18  1  0  0  0  0
 12 13  2  0  0  0  0
 13  1  1  0  0  0  0
 14 13  1  0  0  0  0
 15 14  2  0  0  0  0
 16 11  2  0  0  0  0
 16 15  1  0  0  0  0
 17 11  1  0  0  0  0
 19 15  1  0  0  0  0
 20 24  1  0  0  0  0
 20 21  2  0  0  0  0
 22 20  1  0  0  0  0
 23 22  1  0  0  0  0
 26 25  1  0  0  0  0
 26 27  1  0  0  0  0
 27 24  1  0  0  0  0
 28 27  2  0  0  0  0
 28 29  1  0  0  0  0
 30 28  1  0  0  0  0
 31 33  1  0  0  0  0
 31 30  2  0  0  0  0
 32 31  1  0  0  0  0
 33 26  2  0  0  0  0
 34 33  1  0  0  0  0
M  END
>  <minimizedAffinity>
-5.49140167

$$$$
