
 OpenBabel03242516223D

 30 32  0  0  0  0  0  0  0  0999 V2000
   46.0250   32.7740   47.0430 C   0  0  0  0  0  0  0  0  0  0  0  0
   47.2730   32.4880   47.5370 C   0  0  0  0  0  0  0  0  0  0  0  0
   47.4840   31.7080   48.6510 C   0  0  0  0  0  0  0  0  0  0  0  0
   46.3850   31.1790   49.3200 C   0  0  0  0  0  0  0  0  0  0  0  0
   45.1330   31.4410   48.8610 C   0  0  0  0  0  0  0  0  0  0  0  0
   44.9880   32.2310   47.7370 C   0  0  0  0  0  0  0  0  0  0  0  0
   48.1460   32.9050   47.0090 H   0  0  0  0  0  0  0  0  0  0  0  0
   46.5630   30.5620   50.2030 H   0  0  0  0  0  0  0  0  0  0  0  0
   44.2680   31.0370   49.3700 H   0  0  0  0  0  0  0  0  0  0  0  0
   43.9680   32.4090   47.4120 H   0  0  0  0  0  0  0  0  0  0  0  0
   44.7040   35.3660   44.8420 C   0  0  0  0  0  0  0  0  0  0  0  0
   45.4460   35.2260   43.6750 C   0  0  0  0  0  0  0  0  0  0  0  0
   46.4120   34.2320   43.6380 C   0  0  0  0  0  0  0  0  0  0  0  0
   46.6220   33.4160   44.7280 N   0  0  0  0  0  0  0  0  0  0  0  0
   45.8510   33.6070   45.8550 C   0  0  0  0  0  0  0  0  0  0  0  0
   44.9010   34.5730   45.9150 N   0  0  0  0  0  0  0  0  0  0  0  0
   43.9690   36.1570   44.8080 H   0  0  0  0  0  0  0  0  0  0  0  0
   45.3560   35.8080   42.7840 H   0  0  0  0  0  0  0  0  0  0  0  0
   47.0760   33.9710   42.8440 H   0  0  0  0  0  0  0  0  0  0  0  0
   49.1450   31.3920   49.2160 S   0  0  0  0  0  0  0  0  0  0  0  0
   50.8650   30.0750   51.5790 Cl  0  0  0  0  0  0  0  0  0  0  0  0
   50.2450   29.1100   50.2670 C   0  0  0  0  0  0  0  0  0  0  0  0
   49.5030   29.6340   49.2320 C   0  0  0  0  0  0  0  0  0  0  0  0
   49.0570   28.7810   48.2390 C   0  0  0  0  0  0  0  0  0  0  0  0
   48.4730   29.1680   47.4180 H   0  0  0  0  0  0  0  0  0  0  0  0
   49.3770   27.4230   48.3220 C   0  0  0  0  0  3  0  0  0  0  0  0
   50.1270   26.8950   49.3670 C   0  0  0  0  0  0  0  0  0  0  0  0
   50.5000   25.1790   49.4210 Cl  0  0  0  0  0  0  0  0  0  0  0  0
   50.5460   27.7830   50.3300 C   0  0  0  0  0  0  0  0  0  0  0  0
   51.1350   27.3270   51.1360 H   0  0  0  0  0  0  0  0  0  0  0  0
  1  2  2  0  0  0  0
  1  6  1  0  0  0  0
  2  3  1  0  0  0  0
  3 20  1  0  0  0  0
  3  4  2  0  0  0  0
  4  8  1  0  0  0  0
  5  4  1  0  0  0  0
  5  9  1  0  0  0  0
  6  5  2  0  0  0  0
  7  2  1  0  0  0  0
 10  6  1  0  0  0  0
 11 16  1  0  0  0  0
 12 11  2  0  0  0  0
 13 12  1  0  0  0  0
 13 14  2  0  0  0  0
 14 15  1  0  0  0  0
 15 16  2  0  0  0  0
 15  1  1  0  0  0  0
 17 11  1  0  0  0  0
 18 12  1  0  0  0  0
 19 13  1  0  0  0  0
 20 23  1  0  0  0  0
 22 29  1  0  0  0  0
 22 21  1  0  0  0  0
 23 22  2  0  0  0  0
 24 26  2  0  0  0  0
 24 23  1  0  0  0  0
 25 24  1  0  0  0  0
 26 27  1  0  0  0  0
 27 28  1  0  0  0  0
 27 29  2  0  0  0  0
 29 30  1  0  0  0  0
M  END
>  <minimizedAffinity>
-5.77137232

>  <minimizedRMSD>
1.25986469

$$$$
