
 OpenBabel03252502363D

 25 26  0  0  1  0  0  0  0  0999 V2000
   47.2980   32.2710   44.4990 C   0  0  1  0  0  0  0  0  0  0  0  0
   48.2540   32.7860   44.7260 H   0  0  0  0  0  0  0  0  0  0  0  0
   48.5860   34.5670   42.8820 Cl  0  0  0  0  0  0  0  0  0  0  0  0
   46.9060   34.1470   42.8400 C   0  0  0  0  0  0  0  0  0  0  0  0
   46.4540   33.1010   43.6060 C   0  0  0  0  0  0  0  0  0  0  0  0
   45.0830   32.8810   43.4680 C   0  0  0  0  0  0  0  0  0  0  0  0
   44.6070   32.0750   44.0290 H   0  0  0  0  0  0  0  0  0  0  0  0
   44.2270   33.5870   42.6770 C   0  0  0  0  0  3  0  0  0  0  0  0
   44.7590   34.6330   41.9310 C   0  0  0  0  0  0  0  0  0  0  0  0
   43.7120   35.5760   40.8970 Cl  0  0  0  0  0  0  0  0  0  0  0  0
   46.1070   34.9070   42.0180 C   0  0  0  0  0  0  0  0  0  0  0  0
   46.4990   35.7300   41.4240 H   0  0  0  0  0  0  0  0  0  0  0  0
   46.6100   32.7840   46.8130 C   0  0  0  0  0  0  0  0  0  0  0  0
   46.6860   31.8780   45.7580 C   0  0  0  0  0  0  0  0  0  0  0  0
   46.1440   30.5840   45.9740 C   0  0  0  0  0  0  0  0  0  0  0  0
   45.5910   30.3140   47.1830 N   0  0  0  0  0  0  0  0  0  0  0  0
   45.5520   31.2400   48.1620 C   0  0  0  0  0  0  0  0  0  0  0  0
   46.0540   32.4690   47.9890 N   0  0  0  0  0  0  0  0  0  0  0  0
   46.9890   33.7950   46.7710 H   0  0  0  0  0  0  0  0  0  0  0  0
   46.1790   29.8470   45.1820 H   0  0  0  0  0  0  0  0  0  0  0  0
   45.0910   30.9170   49.0760 H   0  0  0  0  0  0  0  0  0  0  0  0
   47.6380   31.0070   43.7350 C   0  0  0  0  0  0  0  0  0  0  0  0
   48.4550   30.4330   44.2610 H   0  0  0  0  0  0  0  0  0  0  0  0
   46.7620   30.3430   43.6000 H   0  0  0  0  0  0  0  0  0  0  0  0
   48.1080   31.3050   42.7690 H   0  0  0  0  0  0  0  0  0  0  0  0
  1  2  1  1  0  0  0
  1 14  1  0  0  0  0
  4  3  1  0  0  0  0
  4  5  1  0  0  0  0
  5  1  1  0  0  0  0
  6  5  2  0  0  0  0
  6  7  1  0  0  0  0
  8  6  1  0  0  0  0
  9 11  1  0  0  0  0
  9  8  2  0  0  0  0
 10  9  1  0  0  0  0
 11  4  2  0  0  0  0
 12 11  1  0  0  0  0
 13 18  1  0  0  0  0
 14 15  1  0  0  0  0
 14 13  2  0  0  0  0
 15 16  2  0  0  0  0
 16 17  1  0  0  0  0
 17 21  1  0  0  0  0
 18 17  2  0  0  0  0
 19 13  1  0  0  0  0
 20 15  1  0  0  0  0
 22 23  1  0  0  0  0
 22  1  1  0  0  0  0
 24 22  1  0  0  0  0
 25 22  1  0  0  0  0
M  END
>  <minimizedAffinity>
-4.03918982

>  <minimizedRMSD>
3.816921

$$$$
