
 OpenBabel03252506373D

 45 48  0  0  1  0  0  0  0  0999 V2000
   44.5250   35.4770   45.1410 C   0  0  0  0  0  0  0  0  0  0  0  0
   45.1780   35.4740   43.9020 C   0  0  0  0  0  0  0  0  0  0  0  0
   46.1020   34.5210   43.6450 C   0  0  0  0  0  0  0  0  0  0  0  0
   46.3420   33.6110   44.6200 N   0  0  0  0  0  0  0  0  0  0  0  0
   45.7220   33.6180   45.7910 C   0  0  0  0  0  0  0  0  0  0  0  0
   44.8090   34.5440   46.0700 N   0  0  0  0  0  0  0  0  0  0  0  0
   46.0580   32.6070   46.7560 N   0  0  0  0  0  0  0  0  0  0  0  0
   45.3180   32.3530   47.9420 C   0  0  0  0  0  0  0  0  0  0  0  0
   46.3960   32.0060   48.9530 C   0  0  0  0  0  0  0  0  0  0  0  0
   47.6780   31.9210   48.1870 C   0  0  0  0  0  0  0  0  0  0  0  0
   47.1860   31.7040   46.7560 C   0  0  1  0  0  0  0  0  0  0  0  0
   43.7970   36.2390   45.3270 H   0  0  0  0  0  0  0  0  0  0  0  0
   46.6200   34.4950   42.7000 H   0  0  0  0  0  0  0  0  0  0  0  0
   44.4880   31.7280   48.0200 H   0  0  0  0  0  0  0  0  0  0  0  0
   44.9620   33.3710   48.3050 H   0  0  0  0  0  0  0  0  0  0  0  0
   46.4040   32.6210   49.8480 H   0  0  0  0  0  0  0  0  0  0  0  0
   46.1780   30.9500   49.2930 H   0  0  0  0  0  0  0  0  0  0  0  0
   48.3020   31.0880   48.5460 H   0  0  0  0  0  0  0  0  0  0  0  0
   48.1730   32.9100   48.2830 H   0  0  0  0  0  0  0  0  0  0  0  0
   47.9940   32.0120   46.0530 H   0  0  0  0  0  0  0  0  0  0  0  0
   44.8200   36.5040   42.9630 N   0  0  0  0  0  0  0  0  0  0  0  0
   44.8410   37.4990   43.2450 H   0  0  0  0  0  0  0  0  0  0  0  0
   44.5680   36.0630   42.0560 H   0  0  0  0  0  0  0  0  0  0  0  0
   46.6840   30.0090   46.5680 S   0  0  0  0  0  0  0  0  0  0  0  0
   45.5090   30.4330   43.4750 O   0  0  0  0  0  0  0  0  0  0  0  0
   44.9260   29.9160   44.4420 C   0  0  0  0  0  0  0  0  0  0  0  0
   45.0960   29.7200   45.9030 C   0  0  1  0  0  0  0  0  0  0  0  0
   44.5570   28.3230   46.0910 C   0  0  0  0  0  0  0  0  0  0  0  0
   43.2070   28.5300   45.3970 C   0  0  0  0  0  0  0  0  0  0  0  0
   43.6630   29.2610   44.2210 N   0  0  0  0  0  0  0  0  0  0  0  0
   44.2380   30.3340   46.2840 H   0  0  0  0  0  0  0  0  0  0  0  0
   45.1430   27.5670   45.5300 H   0  0  0  0  0  0  0  0  0  0  0  0
   44.4280   28.1090   47.1530 H   0  0  0  0  0  0  0  0  0  0  0  0
   42.7210   27.5800   45.1680 H   0  0  0  0  0  0  0  0  0  0  0  0
   42.5760   29.1700   46.0460 H   0  0  0  0  0  0  0  0  0  0  0  0
   44.2570   27.2190   42.0500 Cl  0  0  0  0  0  0  0  0  0  0  0  0
   42.9290   28.3580   42.0150 C   0  0  0  0  0  0  0  0  0  0  0  0
   42.7990   29.2080   43.0650 C   0  0  0  0  0  0  0  0  0  0  0  0
   41.7520   30.1070   43.0400 C   0  0  0  0  0  0  0  0  0  0  0  0
   41.5910   30.8230   43.8600 H   0  0  0  0  0  0  0  0  0  0  0  0
   40.8190   30.2060   42.0140 C   0  0  0  0  0  3  0  0  0  0  0  0
   40.9650   29.3230   40.9390 C   0  0  0  0  0  0  0  0  0  0  0  0
   39.8290   29.3850   39.6100 Cl  0  0  0  0  0  0  0  0  0  0  0  0
   42.0150   28.4350   40.9830 C   0  0  0  0  0  0  0  0  0  0  0  0
   42.1250   27.7450   40.1380 H   0  0  0  0  0  0  0  0  0  0  0  0
  1 12  1  0  0  0  0
  1  6  1  0  0  0  0
  2  1  2  0  0  0  0
  3  2  1  0  0  0  0
  3  4  2  0  0  0  0
  4  5  1  0  0  0  0
  5  6  2  0  0  0  0
  5  7  1  0  0  0  0
  7  8  1  0  0  0  0
  8 14  1  0  0  0  0
  8 15  1  0  0  0  0
  8  9  1  0  0  0  0
  9 17  1  0  0  0  0
  9 16  1  0  0  0  0
 10 19  1  0  0  0  0
 10 18  1  0  0  0  0
 10  9  1  0  0  0  0
 11 20  1  6  0  0  0
 11  7  1  0  0  0  0
 11 10  1  0  0  0  0
 13  3  1  0  0  0  0
 21 22  1  0  0  0  0
 21  2  1  0  0  0  0
 23 21  1  0  0  0  0
 24 11  1  0  0  0  0
 25 26  2  0  0  0  0
 26 27  1  0  0  0  0
 27 28  1  0  0  0  0
 27 31  1  1  0  0  0
 27 24  1  0  0  0  0
 28 33  1  0  0  0  0
 29 35  1  0  0  0  0
 29 28  1  0  0  0  0
 30 26  1  0  0  0  0
 30 29  1  0  0  0  0
 32 28  1  0  0  0  0
 34 29  1  0  0  0  0
 37 36  1  0  0  0  0
 37 38  1  0  0  0  0
 38 30  1  0  0  0  0
 39 38  2  0  0  0  0
 39 40  1  0  0  0  0
 41 39  1  0  0  0  0
 42 44  1  0  0  0  0
 42 41  2  0  0  0  0
 43 42  1  0  0  0  0
 44 37  2  0  0  0  0
 45 44  1  0  0  0  0
M  END
>  <minimizedAffinity>
-5.47494078

>  <minimizedRMSD>
0.312235326

$$$$
