
 OpenBabel03252509293D

 22 23  0  0  0  0  0  0  0  0999 V2000
   45.7170   32.6290   42.4520 C   0  0  0  0  0  0  0  0  0  0  0  0
   46.4360   31.9220   42.9480 H   0  0  0  0  0  0  0  0  0  0  0  0
   44.8150   32.0580   42.1520 H   0  0  0  0  0  0  0  0  0  0  0  0
   44.6290   31.7060   39.8600 Cl  0  0  0  0  0  0  0  0  0  0  0  0
   46.0160   32.7850   39.9850 C   0  0  0  0  0  0  0  0  0  0  0  0
   46.4330   33.1460   41.2680 C   0  0  0  0  0  0  0  0  0  0  0  0
   47.5340   34.0030   41.3620 C   0  0  0  0  0  0  0  0  0  0  0  0
   47.8770   34.2990   42.3630 H   0  0  0  0  0  0  0  0  0  0  0  0
   48.2050   34.4890   40.2550 C   0  0  0  0  0  3  0  0  0  0  0  0
   47.7720   34.1150   38.9780 C   0  0  0  0  0  0  0  0  0  0  0  0
   48.5990   34.7120   37.5500 Cl  0  0  0  0  0  0  0  0  0  0  0  0
   46.6770   33.2630   38.8610 C   0  0  0  0  0  0  0  0  0  0  0  0
   46.3330   32.9660   37.8640 H   0  0  0  0  0  0  0  0  0  0  0  0
   44.3630   35.7880   43.8530 C   0  0  0  0  0  0  0  0  0  0  0  0
   44.7340   34.8090   42.9140 C   0  0  0  0  0  0  0  0  0  0  0  0
   45.3330   33.6440   43.4220 C   0  0  0  0  0  0  0  0  0  0  0  0
   45.5110   33.5420   44.7710 N   0  0  0  0  0  0  0  0  0  0  0  0
   45.1320   34.5180   45.6290 C   0  0  0  0  0  0  0  0  0  0  0  0
   44.5570   35.6420   45.1620 N   0  0  0  0  0  0  0  0  0  0  0  0
   43.8970   36.6880   43.4310 H   0  0  0  0  0  0  0  0  0  0  0  0
   44.5780   34.9240   41.8520 H   0  0  0  0  0  0  0  0  0  0  0  0
   45.3220   34.3310   46.6850 H   0  0  0  0  0  0  0  0  0  0  0  0
  1  2  1  0  0  0  0
  1 16  1  0  0  0  0
  3  1  1  0  0  0  0
  4  5  1  0  0  0  0
  5  6  1  0  0  0  0
  6  7  2  0  0  0  0
  6  1  1  0  0  0  0
  7  8  1  0  0  0  0
  9  7  1  0  0  0  0
 10  9  2  0  0  0  0
 11 10  1  0  0  0  0
 12 10  1  0  0  0  0
 12  5  2  0  0  0  0
 13 12  1  0  0  0  0
 14 19  1  0  0  0  0
 15 16  1  0  0  0  0
 15 14  2  0  0  0  0
 16 17  2  0  0  0  0
 17 18  1  0  0  0  0
 18 22  1  0  0  0  0
 19 18  2  0  0  0  0
 20 14  1  0  0  0  0
 21 15  1  0  0  0  0
M  END
>  <minimizedAffinity>
-4.16981173

>  <minimizedRMSD>
3.4692781

$$$$
