
 OpenBabel03252503083D

 28 30  0  0  1  0  0  0  0  0999 V2000
   45.3990   33.8640   43.6150 C   0  0  0  0  0  0  0  0  0  0  0  0
   45.8780   33.0360   44.6640 C   0  0  0  0  0  0  0  0  0  0  0  0
   45.6190   33.5230   45.9370 C   0  0  0  0  0  0  0  0  0  0  0  0
   44.9710   34.6760   46.1500 N   0  0  0  0  0  0  0  0  0  0  0  0
   44.5310   35.4340   45.1020 C   0  0  0  0  0  0  0  0  0  0  0  0
   44.7560   35.0090   43.8410 N   0  0  0  0  0  0  0  0  0  0  0  0
   45.5740   33.5320   42.5880 H   0  0  0  0  0  0  0  0  0  0  0  0
   44.0170   36.3530   45.3320 H   0  0  0  0  0  0  0  0  0  0  0  0
   46.0350   32.7670   47.0290 C   0  0  0  0  0  0  0  0  0  0  0  0
   47.2290   32.4690   47.5990 C   0  0  0  0  0  0  0  0  0  0  0  0
   47.3920   31.6870   48.6550 C   0  0  0  0  0  0  0  0  0  0  0  0
   46.2460   31.1580   49.1860 C   0  0  0  0  0  0  0  0  0  0  0  0
   44.9430   31.8480   48.0860 S   0  0  0  0  0  0  0  0  0  0  0  0
   48.2070   32.8300   47.3270 H   0  0  0  0  0  0  0  0  0  0  0  0
   48.1750   31.3090   49.2680 H   0  0  0  0  0  0  0  0  0  0  0  0
   45.8670   30.5320   49.9570 H   0  0  0  0  0  0  0  0  0  0  0  0
   46.5430   31.8310   44.3400 C   0  0  2  0  0  3  0  0  0  0  0  0
   47.6800   32.0670   43.7210 O   0  0  0  0  0  1  0  0  0  0  0  0
   45.2160   30.9270   41.9070 Cl  0  0  0  0  0  0  0  0  0  0  0  0
   45.5180   29.9820   43.3840 C   0  0  0  0  0  0  0  0  0  0  0  0
   46.1710   30.4000   44.5630 C   0  0  0  0  0  0  0  0  0  0  0  0
   46.2650   29.4600   45.5510 C   0  0  0  0  0  0  0  0  0  0  0  0
   46.7590   29.8860   46.4080 H   0  0  0  0  0  0  0  0  0  0  0  0
   45.7680   28.1900   45.4330 C   0  0  0  0  0  3  0  0  0  0  0  0
   45.1320   27.7890   44.2800 C   0  0  0  0  0  0  0  0  0  0  0  0
   44.5510   26.1380   44.2800 Cl  0  0  0  0  0  0  0  0  0  0  0  0
   45.0010   28.6850   43.2430 C   0  0  0  0  0  0  0  0  0  0  0  0
   44.4920   28.2840   42.3840 H   0  0  0  0  0  0  0  0  0  0  0  0
  1  6  2  0  0  0  0
  1  2  1  0  0  0  0
  2  3  2  0  0  0  0
  3  4  1  0  0  0  0
  3  9  1  0  0  0  0
  5  8  1  0  0  0  0
  5  4  2  0  0  0  0
  6  5  1  0  0  0  0
  7  1  1  0  0  0  0
  9 10  2  0  0  0  0
  9 13  1  0  0  0  0
 10 11  1  0  0  0  0
 11 12  2  0  0  0  0
 11 15  1  0  0  0  0
 12 16  1  0  0  0  0
 13 12  1  0  0  0  0
 14 10  1  0  0  0  0
 17 18  1  6  0  0  0
 17 21  1  0  0  0  0
 17  2  1  0  0  0  0
 19 20  1  0  0  0  0
 20 21  1  0  0  0  0
 21 22  2  0  0  0  0
 22 23  1  0  0  0  0
 24 22  1  0  0  0  0
 25 24  2  0  0  0  0
 26 25  1  0  0  0  0
 27 20  2  0  0  0  0
 27 25  1  0  0  0  0
 28 27  1  0  0  0  0
M  END
>  <minimizedAffinity>
-4.1149106

>  <minimizedRMSD>
5.03468657

$$$$
