
 OpenBabel03242515193D

 38 40  0  0  0  0  0  0  0  0999 V2000
   38.0240   29.8250   41.9230 C   0  0  0  0  0  0  0  0  0  0  0  0
   37.2000   29.2040   41.0120 C   0  0  0  0  0  0  0  0  0  0  0  0
   37.0140   30.0820   39.9560 C   0  0  0  0  0  0  0  0  0  0  0  0
   37.6980   31.1840   40.2280 N   0  0  0  0  0  0  0  0  0  0  0  0
   38.2970   31.0130   41.4090 N   0  0  0  0  0  0  0  0  0  0  0  0
   36.8360   28.2050   41.2150 H   0  0  0  0  0  0  0  0  0  0  0  0
   37.7650   29.7770   36.8390 Cl  0  0  0  0  0  0  0  0  0  0  0  0
   36.1930   29.4960   37.5480 C   0  0  0  0  0  0  0  0  0  0  0  0
   36.1270   29.6280   38.9090 C   0  0  0  0  0  0  0  0  0  0  0  0
   34.8480   29.3110   39.4020 C   0  0  0  0  0  0  0  0  0  0  0  0
   34.5820   29.3500   40.4730 H   0  0  0  0  0  0  0  0  0  0  0  0
   33.7710   28.9140   38.6400 C   0  0  0  0  0  3  0  0  0  0  0  0
   33.9160   28.8080   37.2820 C   0  0  0  0  0  0  0  0  0  0  0  0
   32.6740   28.3250   36.1500 Cl  0  0  0  0  0  0  0  0  0  0  0  0
   35.1440   29.1050   36.7540 C   0  0  0  0  0  0  0  0  0  0  0  0
   35.3380   29.0460   35.6920 H   0  0  0  0  0  0  0  0  0  0  0  0
   37.7660   32.3930   39.4080 C   0  0  0  0  0  0  0  0  0  0  0  0
   37.7090   33.5210   40.2580 F   0  0  0  0  0  0  0  0  0  0  0  0
   36.7480   32.4240   38.4960 F   0  0  0  0  0  0  0  0  0  0  0  0
   38.9700   32.4530   38.7870 F   0  0  0  0  0  0  0  0  0  0  0  0
   38.5290   29.3300   43.2050 C   0  0  0  0  0  0  0  0  0  0  0  0
   38.5260   30.1320   43.9880 H   0  0  0  0  0  0  0  0  0  0  0  0
   39.6130   29.0690   43.0330 H   0  0  0  0  0  0  0  0  0  0  0  0
   37.7830   28.1130   43.6710 C   0  0  0  0  0  0  0  0  0  0  0  0
   36.7710   28.2010   43.3010 H   0  0  0  0  0  0  0  0  0  0  0  0
   37.7010   28.1630   44.7920 H   0  0  0  0  0  0  0  0  0  0  0  0
   40.1070   25.2310   43.2300 C   0  0  0  0  0  0  0  0  0  0  0  0
   39.3470   24.4110   42.3750 C   0  0  0  0  0  0  0  0  0  0  0  0
   38.1040   24.8770   42.0020 C   0  0  0  0  0  0  0  0  0  0  0  0
   37.7350   26.0710   42.4880 N   0  0  0  0  0  0  0  0  0  0  0  0
   38.4580   26.8430   43.2970 C   0  0  0  0  0  0  0  0  0  0  0  0
   39.6490   26.4070   43.6610 N   0  0  0  0  0  0  0  0  0  0  0  0
   41.0790   24.8840   43.5330 H   0  0  0  0  0  0  0  0  0  0  0  0
   39.7530   23.4590   42.0450 H   0  0  0  0  0  0  0  0  0  0  0  0
   37.3170   24.0190   41.1160 C   0  0  0  0  0  0  0  0  0  0  0  0
   37.1740   24.6430   39.8750 F   0  0  0  0  0  0  0  0  0  0  0  0
   36.0320   23.9900   41.6500 F   0  0  0  0  0  0  0  0  0  0  0  0
   37.8610   22.7790   40.9610 F   0  0  0  0  0  0  0  0  0  0  0  0
  1 21  1  0  0  0  0
  2  6  1  0  0  0  0
  2  1  1  0  0  0  0
  3  4  1  0  0  0  0
  3  2  2  0  0  0  0
  4  5  1  0  0  0  0
  5  1  2  0  0  0  0
  7  8  1  0  0  0  0
  8  9  1  0  0  0  0
  9 10  2  0  0  0  0
  9  3  1  0  0  0  0
 10 11  1  0  0  0  0
 12 10  1  0  0  0  0
 13 12  2  0  0  0  0
 14 13  1  0  0  0  0
 15 13  1  0  0  0  0
 15  8  2  0  0  0  0
 16 15  1  0  0  0  0
 17  4  1  0  0  0  0
 17 18  1  0  0  0  0
 19 17  1  0  0  0  0
 20 17  1  0  0  0  0
 21 24  1  0  0  0  0
 21 22  1  0  0  0  0
 23 21  1  0  0  0  0
 24 26  1  0  0  0  0
 25 24  1  0  0  0  0
 27 33  1  0  0  0  0
 27 32  1  0  0  0  0
 28 27  2  0  0  0  0
 29 28  1  0  0  0  0
 29 30  2  0  0  0  0
 30 31  1  0  0  0  0
 31 32  2  0  0  0  0
 31 24  1  0  0  0  0
 34 28  1  0  0  0  0
 35 37  1  0  0  0  0
 35 29  1  0  0  0  0
 36 35  1  0  0  0  0
 38 35  1  0  0  0  0
M  END
>  <minimizedAffinity>
-6.40906334

$$$$

 OpenBabel03242515193D

 38 40  0  0  0  0  0  0  0  0999 V2000
   38.0100   29.6680   42.2490 C   0  0  0  0  0  0  0  0  0  0  0  0
   39.0030   30.5220   41.8250 C   0  0  0  0  0  0  0  0  0  0  0  0
   38.6550   30.9620   40.5570 C   0  0  0  0  0  0  0  0  0  0  0  0
   37.5020   30.3920   40.2380 N   0  0  0  0  0  0  0  0  0  0  0  0
   37.1300   29.6200   41.2630 N   0  0  0  0  0  0  0  0  0  0  0  0
   39.8470   30.7220   42.4710 H   0  0  0  0  0  0  0  0  0  0  0  0
   38.8160   34.1610   40.8950 Cl  0  0  0  0  0  0  0  0  0  0  0  0
   39.8150   33.1900   39.8410 C   0  0  0  0  0  0  0  0  0  0  0  0
   39.6070   31.8380   39.9120 C   0  0  0  0  0  0  0  0  0  0  0  0
   40.5020   31.1290   39.0910 C   0  0  0  0  0  0  0  0  0  0  0  0
   40.5060   30.0290   39.0020 H   0  0  0  0  0  0  0  0  0  0  0  0
   41.4790   31.6910   38.2970 C   0  0  0  0  0  3  0  0  0  0  0  0
   41.6230   33.0540   38.2790 C   0  0  0  0  0  0  0  0  0  0  0  0
   42.7950   33.9510   37.3420 Cl  0  0  0  0  0  0  0  0  0  0  0  0
   40.7750   33.7880   39.0640 C   0  0  0  0  0  0  0  0  0  0  0  0
   40.8240   34.8670   39.1040 H   0  0  0  0  0  0  0  0  0  0  0  0
   36.7720   30.5420   38.9800 C   0  0  0  0  0  0  0  0  0  0  0  0
   36.6690   31.9180   38.6750 F   0  0  0  0  0  0  0  0  0  0  0  0
   35.5320   29.9710   39.0630 F   0  0  0  0  0  0  0  0  0  0  0  0
   37.4890   29.9880   37.9700 F   0  0  0  0  0  0  0  0  0  0  0  0
   37.8930   28.9380   43.5130 C   0  0  0  0  0  0  0  0  0  0  0  0
   37.4870   29.5900   44.3300 H   0  0  0  0  0  0  0  0  0  0  0  0
   38.9460   28.6760   43.8210 H   0  0  0  0  0  0  0  0  0  0  0  0
   37.0820   27.6840   43.3650 C   0  0  0  0  0  0  0  0  0  0  0  0
   36.2650   27.9120   42.6940 H   0  0  0  0  0  0  0  0  0  0  0  0
   36.6040   27.4590   44.3590 H   0  0  0  0  0  0  0  0  0  0  0  0
   39.7180   25.0980   42.8480 C   0  0  0  0  0  0  0  0  0  0  0  0
   39.0640   24.2350   41.9470 C   0  0  0  0  0  0  0  0  0  0  0  0
   37.7810   24.5760   41.5730 C   0  0  0  0  0  0  0  0  0  0  0  0
   37.2760   25.7010   42.1010 N   0  0  0  0  0  0  0  0  0  0  0  0
   37.8990   26.5130   42.9520 C   0  0  0  0  0  0  0  0  0  0  0  0
   39.1270   26.1970   43.3180 N   0  0  0  0  0  0  0  0  0  0  0  0
   40.7190   24.8480   43.1530 H   0  0  0  0  0  0  0  0  0  0  0  0
   39.5780   23.3490   41.5860 H   0  0  0  0  0  0  0  0  0  0  0  0
   37.1060   23.6740   40.6400 C   0  0  0  0  0  0  0  0  0  0  0  0
   37.6030   22.3800   40.8090 F   0  0  0  0  0  0  0  0  0  0  0  0
   37.5230   24.0530   39.3680 F   0  0  0  0  0  0  0  0  0  0  0  0
   35.7510   23.6820   40.7840 F   0  0  0  0  0  0  0  0  0  0  0  0
  1 21  1  0  0  0  0
  2  1  1  0  0  0  0
  2  6  1  0  0  0  0
  3  2  2  0  0  0  0
  4  3  1  0  0  0  0
  4  5  1  0  0  0  0
  5  1  2  0  0  0  0
  8  9  1  0  0  0  0
  8  7  1  0  0  0  0
  9  3  1  0  0  0  0
 10  9  2  0  0  0  0
 11 10  1  0  0  0  0
 12 10  1  0  0  0  0
 13 12  2  0  0  0  0
 13 15  1  0  0  0  0
 14 13  1  0  0  0  0
 15 16  1  0  0  0  0
 15  8  2  0  0  0  0
 17 19  1  0  0  0  0
 17  4  1  0  0  0  0
 18 17  1  0  0  0  0
 20 17  1  0  0  0  0
 21 23  1  0  0  0  0
 21 22  1  0  0  0  0
 24 21  1  0  0  0  0
 24 26  1  0  0  0  0
 25 24  1  0  0  0  0
 27 33  1  0  0  0  0
 27 32  1  0  0  0  0
 28 27  2  0  0  0  0
 29 28  1  0  0  0  0
 29 30  2  0  0  0  0
 30 31  1  0  0  0  0
 31 32  2  0  0  0  0
 31 24  1  0  0  0  0
 34 28  1  0  0  0  0
 35 38  1  0  0  0  0
 35 36  1  0  0  0  0
 35 29  1  0  0  0  0
 37 35  1  0  0  0  0
M  END
>  <minimizedAffinity>
-6.19732285

$$$$

 OpenBabel03242515193D

 38 40  0  0  0  0  0  0  0  0999 V2000
   39.6210   29.5080   40.0280 C   0  0  0  0  0  0  0  0  0  0  0  0
   38.5930   28.9820   39.2800 C   0  0  0  0  0  0  0  0  0  0  0  0
   37.7420   30.0270   38.9540 C   0  0  0  0  0  0  0  0  0  0  0  0
   38.2420   31.1310   39.4890 N   0  0  0  0  0  0  0  0  0  0  0  0
   39.3680   30.8020   40.1290 N   0  0  0  0  0  0  0  0  0  0  0  0
   38.5790   27.9220   39.0610 H   0  0  0  0  0  0  0  0  0  0  0  0
   34.8930   29.1880   40.2000 Cl  0  0  0  0  0  0  0  0  0  0  0  0
   35.3020   29.2140   38.5020 C   0  0  0  0  0  0  0  0  0  0  0  0
   36.5600   29.6660   38.2050 C   0  0  0  0  0  0  0  0  0  0  0  0
   36.7780   29.7270   36.8160 C   0  0  0  0  0  0  0  0  0  0  0  0
   37.7250   30.0670   36.3630 H   0  0  0  0  0  0  0  0  0  0  0  0
   35.8640   29.3790   35.8450 C   0  0  0  0  0  3  0  0  0  0  0  0
   34.6250   28.9310   36.2230 C   0  0  0  0  0  0  0  0  0  0  0  0
   33.3360   28.4420   35.1480 Cl  0  0  0  0  0  0  0  0  0  0  0  0
   34.3640   28.8560   37.5660 C   0  0  0  0  0  0  0  0  0  0  0  0
   33.4120   28.5130   37.9440 H   0  0  0  0  0  0  0  0  0  0  0  0
   37.6600   32.4710   39.4310 C   0  0  0  0  0  0  0  0  0  0  0  0
   37.2280   32.7220   38.1090 F   0  0  0  0  0  0  0  0  0  0  0  0
   38.5660   33.4160   39.8300 F   0  0  0  0  0  0  0  0  0  0  0  0
   36.5460   32.5170   40.2030 F   0  0  0  0  0  0  0  0  0  0  0  0
   40.7800   28.8320   40.6150 C   0  0  0  0  0  0  0  0  0  0  0  0
   41.7420   29.3200   40.3070 H   0  0  0  0  0  0  0  0  0  0  0  0
   40.7990   27.7980   40.1660 H   0  0  0  0  0  0  0  0  0  0  0  0
   40.6760   28.7330   42.1090 C   0  0  0  0  0  0  0  0  0  0  0  0
   40.9780   29.6900   42.5120 H   0  0  0  0  0  0  0  0  0  0  0  0
   41.4510   27.9970   42.4640 H   0  0  0  0  0  0  0  0  0  0  0  0
   37.2660   28.3860   43.5760 C   0  0  0  0  0  0  0  0  0  0  0  0
   36.9650   27.0560   43.2250 C   0  0  0  0  0  0  0  0  0  0  0  0
   37.9240   26.3630   42.5170 C   0  0  0  0  0  0  0  0  0  0  0  0
   39.0570   27.0200   42.2320 N   0  0  0  0  0  0  0  0  0  0  0  0
   39.3380   28.2770   42.5670 C   0  0  0  0  0  0  0  0  0  0  0  0
   38.4270   28.9510   43.2430 N   0  0  0  0  0  0  0  0  0  0  0  0
   36.5300   28.9440   44.1270 H   0  0  0  0  0  0  0  0  0  0  0  0
   36.0080   26.6300   43.5130 H   0  0  0  0  0  0  0  0  0  0  0  0
   37.6030   24.9830   42.1520 C   0  0  0  0  0  0  0  0  0  0  0  0
   37.4720   24.8920   40.7650 F   0  0  0  0  0  0  0  0  0  0  0  0
   36.3260   24.7410   42.6470 F   0  0  0  0  0  0  0  0  0  0  0  0
   38.5290   24.0890   42.5980 F   0  0  0  0  0  0  0  0  0  0  0  0
  1  5  2  0  0  0  0
  1 21  1  0  0  0  0
  2  1  1  0  0  0  0
  3  2  2  0  0  0  0
  3  4  1  0  0  0  0
  4  5  1  0  0  0  0
  6  2  1  0  0  0  0
  8  7  1  0  0  0  0
  9  8  1  0  0  0  0
  9  3  1  0  0  0  0
 10  9  2  0  0  0  0
 11 10  1  0  0  0  0
 12 13  2  0  0  0  0
 12 10  1  0  0  0  0
 13 15  1  0  0  0  0
 14 13  1  0  0  0  0
 15 16  1  0  0  0  0
 15  8  2  0  0  0  0
 17  4  1  0  0  0  0
 17 19  1  0  0  0  0
 17 20  1  0  0  0  0
 18 17  1  0  0  0  0
 21 24  1  0  0  0  0
 22 21  1  0  0  0  0
 23 21  1  0  0  0  0
 24 26  1  0  0  0  0
 24 25  1  0  0  0  0
 24 31  1  0  0  0  0
 27 33  1  0  0  0  0
 28 34  1  0  0  0  0
 28 27  2  0  0  0  0
 29 28  1  0  0  0  0
 30 29  2  0  0  0  0
 30 31  1  0  0  0  0
 31 32  2  0  0  0  0
 32 27  1  0  0  0  0
 35 29  1  0  0  0  0
 35 38  1  0  0  0  0
 35 37  1  0  0  0  0
 36 35  1  0  0  0  0
M  END
>  <minimizedAffinity>
-6.16829729

$$$$

 OpenBabel03242515193D

 38 40  0  0  0  0  0  0  0  0999 V2000
   37.3580   30.5520   38.1360 C   0  0  0  0  0  0  0  0  0  0  0  0
   38.7210   30.4120   38.0070 C   0  0  0  0  0  0  0  0  0  0  0  0
   39.3110   31.4550   38.7040 C   0  0  0  0  0  0  0  0  0  0  0  0
   38.3380   32.1880   39.2260 N   0  0  0  0  0  0  0  0  0  0  0  0
   37.1750   31.6330   38.8760 N   0  0  0  0  0  0  0  0  0  0  0  0
   39.1220   29.5860   37.4340 H   0  0  0  0  0  0  0  0  0  0  0  0
   41.3200   31.1450   41.2020 Cl  0  0  0  0  0  0  0  0  0  0  0  0
   41.7800   31.4900   39.5530 C   0  0  0  0  0  0  0  0  0  0  0  0
   40.7540   31.5140   38.6470 C   0  0  0  0  0  0  0  0  0  0  0  0
   41.2200   31.7210   37.3360 C   0  0  0  0  0  0  0  0  0  0  0  0
   40.5580   31.7730   36.4550 H   0  0  0  0  0  0  0  0  0  0  0  0
   42.5400   31.8870   36.9710 C   0  0  0  0  0  3  0  0  0  0  0  0
   43.5100   31.8530   37.9380 C   0  0  0  0  0  0  0  0  0  0  0  0
   45.2280   32.0430   37.6770 Cl  0  0  0  0  0  0  0  0  0  0  0  0
   43.1050   31.6520   39.2300 C   0  0  0  0  0  0  0  0  0  0  0  0
   43.8080   31.6120   40.0490 H   0  0  0  0  0  0  0  0  0  0  0  0
   38.4920   33.4090   40.0150 C   0  0  0  0  0  0  0  0  0  0  0  0
   38.8160   33.0540   41.3440 F   0  0  0  0  0  0  0  0  0  0  0  0
   37.3490   34.1610   39.9810 F   0  0  0  0  0  0  0  0  0  0  0  0
   39.5490   34.1210   39.5500 F   0  0  0  0  0  0  0  0  0  0  0  0
   36.2860   29.7140   37.5950 C   0  0  0  0  0  0  0  0  0  0  0  0
   36.6860   28.9190   36.9120 H   0  0  0  0  0  0  0  0  0  0  0  0
   35.6570   30.3900   36.9490 H   0  0  0  0  0  0  0  0  0  0  0  0
   35.4360   29.1180   38.6810 C   0  0  0  0  0  0  0  0  0  0  0  0
   34.5120   28.7970   38.2190 H   0  0  0  0  0  0  0  0  0  0  0  0
   35.1490   29.9430   39.3910 H   0  0  0  0  0  0  0  0  0  0  0  0
   37.2420   26.0630   39.8250 C   0  0  0  0  0  0  0  0  0  0  0  0
   37.3680   26.3350   41.2010 C   0  0  0  0  0  0  0  0  0  0  0  0
   36.8400   27.5250   41.6550 C   0  0  0  0  0  0  0  0  0  0  0  0
   36.2540   28.3130   40.7430 N   0  0  0  0  0  0  0  0  0  0  0  0
   36.1370   28.0520   39.4440 C   0  0  0  0  0  0  0  0  0  0  0  0
   36.6390   26.9160   38.9970 N   0  0  0  0  0  0  0  0  0  0  0  0
   37.6480   25.1400   39.4510 H   0  0  0  0  0  0  0  0  0  0  0  0
   37.8660   25.6160   41.8440 H   0  0  0  0  0  0  0  0  0  0  0  0
   36.9780   27.8020   43.0850 C   0  0  0  0  0  0  0  0  0  0  0  0
   37.9820   26.9920   43.6180 F   0  0  0  0  0  0  0  0  0  0  0  0
   35.8030   27.3520   43.6800 F   0  0  0  0  0  0  0  0  0  0  0  0
   37.2410   29.1140   43.3460 F   0  0  0  0  0  0  0  0  0  0  0  0
  1  5  2  0  0  0  0
  2  1  1  0  0  0  0
  2  3  2  0  0  0  0
  3  4  1  0  0  0  0
  4 17  1  0  0  0  0
  5  4  1  0  0  0  0
  6  2  1  0  0  0  0
  8  7  1  0  0  0  0
  9  3  1  0  0  0  0
  9  8  2  0  0  0  0
 10  9  1  0  0  0  0
 11 10  1  0  0  0  0
 12 10  2  0  0  0  0
 12 13  1  0  0  0  0
 13 15  2  0  0  0  0
 14 13  1  0  0  0  0
 15  8  1  0  0  0  0
 15 16  1  0  0  0  0
 17 18  1  0  0  0  0
 19 17  1  0  0  0  0
 20 17  1  0  0  0  0
 21  1  1  0  0  0  0
 21 24  1  0  0  0  0
 22 21  1  0  0  0  0
 23 21  1  0  0  0  0
 24 26  1  0  0  0  0
 24 31  1  0  0  0  0
 25 24  1  0  0  0  0
 27 28  1  0  0  0  0
 28 29  2  0  0  0  0
 28 34  1  0  0  0  0
 29 35  1  0  0  0  0
 30 29  1  0  0  0  0
 31 30  2  0  0  0  0
 32 31  1  0  0  0  0
 32 27  2  0  0  0  0
 33 27  1  0  0  0  0
 35 38  1  0  0  0  0
 35 36  1  0  0  0  0
 35 37  1  0  0  0  0
M  END
>  <minimizedAffinity>
-6.03515387

$$$$

 OpenBabel03242515193D

 38 40  0  0  0  0  0  0  0  0999 V2000
   35.8480   29.4700   37.0780 C   0  0  0  0  0  0  0  0  0  0  0  0
   36.9950   30.2160   37.2210 C   0  0  0  0  0  0  0  0  0  0  0  0
   37.2020   30.4020   38.5790 C   0  0  0  0  0  0  0  0  0  0  0  0
   36.2150   29.7920   39.2200 N   0  0  0  0  0  0  0  0  0  0  0  0
   35.4130   29.2390   38.3060 N   0  0  0  0  0  0  0  0  0  0  0  0
   37.5390   30.5330   36.3410 H   0  0  0  0  0  0  0  0  0  0  0  0
   37.1260   33.5140   39.4050 Cl  0  0  0  0  0  0  0  0  0  0  0  0
   38.5610   32.5320   39.2380 C   0  0  0  0  0  0  0  0  0  0  0  0
   38.3430   31.2140   38.9370 C   0  0  0  0  0  0  0  0  0  0  0  0
   39.5430   30.4820   38.8980 C   0  0  0  0  0  0  0  0  0  0  0  0
   39.5910   29.4020   38.6750 H   0  0  0  0  0  0  0  0  0  0  0  0
   40.8020   30.9950   39.1250 C   0  0  0  0  0  3  0  0  0  0  0  0
   40.9390   32.3260   39.4180 C   0  0  0  0  0  0  0  0  0  0  0  0
   42.4430   33.1610   39.7340 Cl  0  0  0  0  0  0  0  0  0  0  0  0
   39.7970   33.0810   39.4700 C   0  0  0  0  0  0  0  0  0  0  0  0
   39.8210   34.1380   39.6940 H   0  0  0  0  0  0  0  0  0  0  0  0
   36.0070   29.7530   40.6670 C   0  0  0  0  0  0  0  0  0  0  0  0
   37.1520   29.1930   41.2760 F   0  0  0  0  0  0  0  0  0  0  0  0
   34.8900   29.0280   40.9800 F   0  0  0  0  0  0  0  0  0  0  0  0
   35.9080   31.0180   41.1460 F   0  0  0  0  0  0  0  0  0  0  0  0
   35.1960   28.9970   35.8550 C   0  0  0  0  0  0  0  0  0  0  0  0
   35.8410   28.2680   35.2990 H   0  0  0  0  0  0  0  0  0  0  0  0
   35.0980   29.8980   35.1850 H   0  0  0  0  0  0  0  0  0  0  0  0
   33.8370   28.4200   36.1300 C   0  0  0  0  0  0  0  0  0  0  0  0
   33.8480   28.0530   37.1470 H   0  0  0  0  0  0  0  0  0  0  0  0
   33.7080   27.5090   35.4810 H   0  0  0  0  0  0  0  0  0  0  0  0
   31.4060   30.8030   34.6110 C   0  0  0  0  0  0  0  0  0  0  0  0
   30.5890   31.0870   35.7230 C   0  0  0  0  0  0  0  0  0  0  0  0
   30.9070   30.4610   36.9090 C   0  0  0  0  0  0  0  0  0  0  0  0
   31.9660   29.6390   36.8940 N   0  0  0  0  0  0  0  0  0  0  0  0
   32.7350   29.3740   35.8400 C   0  0  0  0  0  0  0  0  0  0  0  0
   32.4400   29.9670   34.6990 N   0  0  0  0  0  0  0  0  0  0  0  0
   31.1730   31.2820   33.6760 H   0  0  0  0  0  0  0  0  0  0  0  0
   29.7550   31.7740   35.6120 H   0  0  0  0  0  0  0  0  0  0  0  0
   30.0530   30.7570   38.0600 C   0  0  0  0  0  0  0  0  0  0  0  0
   30.5210   30.0580   39.1740 F   0  0  0  0  0  0  0  0  0  0  0  0
   28.8150   30.1870   37.7760 F   0  0  0  0  0  0  0  0  0  0  0  0
   29.9790   32.0890   38.3340 F   0  0  0  0  0  0  0  0  0  0  0  0
  1  2  1  0  0  0  0
  1  5  2  0  0  0  0
  2  3  2  0  0  0  0
  3  9  1  0  0  0  0
  3  4  1  0  0  0  0
  4 17  1  0  0  0  0
  5  4  1  0  0  0  0
  6  2  1  0  0  0  0
  8  7  1  0  0  0  0
  8 15  1  0  0  0  0
  9  8  2  0  0  0  0
 10  9  1  0  0  0  0
 10 12  2  0  0  0  0
 11 10  1  0  0  0  0
 12 13  1  0  0  0  0
 13 15  2  0  0  0  0
 13 14  1  0  0  0  0
 15 16  1  0  0  0  0
 17 19  1  0  0  0  0
 17 20  1  0  0  0  0
 17 18  1  0  0  0  0
 21 24  1  0  0  0  0
 21  1  1  0  0  0  0
 22 21  1  0  0  0  0
 23 21  1  0  0  0  0
 24 25  1  0  0  0  0
 26 24  1  0  0  0  0
 27 32  2  0  0  0  0
 27 28  1  0  0  0  0
 28 29  2  0  0  0  0
 29 35  1  0  0  0  0
 30 29  1  0  0  0  0
 31 24  1  0  0  0  0
 31 30  2  0  0  0  0
 32 31  1  0  0  0  0
 33 27  1  0  0  0  0
 34 28  1  0  0  0  0
 35 38  1  0  0  0  0
 35 36  1  0  0  0  0
 37 35  1  0  0  0  0
M  END
>  <minimizedAffinity>
-5.98874474

$$$$

 OpenBabel03242515193D

 38 40  0  0  0  0  0  0  0  0999 V2000
   34.5610   28.7130   37.0840 C   0  0  0  0  0  0  0  0  0  0  0  0
   34.9260   28.3110   38.3480 C   0  0  0  0  0  0  0  0  0  0  0  0
   36.0580   29.0310   38.7000 C   0  0  0  0  0  0  0  0  0  0  0  0
   36.3560   29.8280   37.6850 N   0  0  0  0  0  0  0  0  0  0  0  0
   35.4490   29.6250   36.7250 N   0  0  0  0  0  0  0  0  0  0  0  0
   34.3420   27.5570   38.8590 H   0  0  0  0  0  0  0  0  0  0  0  0
   36.2080   30.9990   41.2450 Cl  0  0  0  0  0  0  0  0  0  0  0  0
   36.8740   29.3860   41.1550 C   0  0  0  0  0  0  0  0  0  0  0  0
   36.6320   28.7120   39.9880 C   0  0  0  0  0  0  0  0  0  0  0  0
   37.1350   27.3990   40.0290 C   0  0  0  0  0  0  0  0  0  0  0  0
   37.0440   26.6850   39.1920 H   0  0  0  0  0  0  0  0  0  0  0  0
   37.7970   26.8280   41.0950 C   0  0  0  0  0  3  0  0  0  0  0  0
   38.0040   27.5690   42.2280 C   0  0  0  0  0  0  0  0  0  0  0  0
   38.8200   27.0270   43.6770 Cl  0  0  0  0  0  0  0  0  0  0  0  0
   37.5300   28.8540   42.2370 C   0  0  0  0  0  0  0  0  0  0  0  0
   37.6530   29.5020   43.0920 H   0  0  0  0  0  0  0  0  0  0  0  0
   37.4910   30.7460   37.5990 C   0  0  0  0  0  0  0  0  0  0  0  0
   38.6860   30.0080   37.7520 F   0  0  0  0  0  0  0  0  0  0  0  0
   37.4020   31.7240   38.5510 F   0  0  0  0  0  0  0  0  0  0  0  0
   37.5430   31.2890   36.3570 F   0  0  0  0  0  0  0  0  0  0  0  0
   33.4370   28.2660   36.2580 C   0  0  0  0  0  0  0  0  0  0  0  0
   32.4780   28.2510   36.8390 H   0  0  0  0  0  0  0  0  0  0  0  0
   33.6540   27.1920   35.9910 H   0  0  0  0  0  0  0  0  0  0  0  0
   33.3000   29.0820   35.0060 C   0  0  0  0  0  0  0  0  0  0  0  0
   33.2920   28.3890   34.1750 H   0  0  0  0  0  0  0  0  0  0  0  0
   34.2390   29.6900   34.8820 H   0  0  0  0  0  0  0  0  0  0  0  0
   30.5090   31.4320   34.2420 C   0  0  0  0  0  0  0  0  0  0  0  0
   29.9760   31.6320   35.5300 C   0  0  0  0  0  0  0  0  0  0  0  0
   30.5870   30.9650   36.5710 C   0  0  0  0  0  0  0  0  0  0  0  0
   31.6340   30.1880   36.2590 N   0  0  0  0  0  0  0  0  0  0  0  0
   32.1340   30.0030   35.0400 C   0  0  0  0  0  0  0  0  0  0  0  0
   31.5580   30.6360   34.0350 N   0  0  0  0  0  0  0  0  0  0  0  0
   30.0450   31.9430   33.4170 H   0  0  0  0  0  0  0  0  0  0  0  0
   29.1210   32.2890   35.6590 H   0  0  0  0  0  0  0  0  0  0  0  0
   30.0260   31.1740   37.9060 C   0  0  0  0  0  0  0  0  0  0  0  0
   30.7300   30.3980   38.8280 F   0  0  0  0  0  0  0  0  0  0  0  0
   28.7490   30.6220   37.8770 F   0  0  0  0  0  0  0  0  0  0  0  0
   30.0360   32.4820   38.2850 F   0  0  0  0  0  0  0  0  0  0  0  0
  1  2  1  0  0  0  0
  2  3  2  0  0  0  0
  2  6  1  0  0  0  0
  3  9  1  0  0  0  0
  4  3  1  0  0  0  0
  5  1  2  0  0  0  0
  5  4  1  0  0  0  0
  8  7  1  0  0  0  0
  8 15  1  0  0  0  0
  9 10  1  0  0  0  0
  9  8  2  0  0  0  0
 10 12  2  0  0  0  0
 11 10  1  0  0  0  0
 12 13  1  0  0  0  0
 13 15  2  0  0  0  0
 13 14  1  0  0  0  0
 15 16  1  0  0  0  0
 17  4  1  0  0  0  0
 17 18  1  0  0  0  0
 17 19  1  0  0  0  0
 20 17  1  0  0  0  0
 21 22  1  0  0  0  0
 21  1  1  0  0  0  0
 23 21  1  0  0  0  0
 24 31  1  0  0  0  0
 24 21  1  0  0  0  0
 25 24  1  0  0  0  0
 26 24  1  0  0  0  0
 27 28  1  0  0  0  0
 28 34  1  0  0  0  0
 28 29  2  0  0  0  0
 29 35  1  0  0  0  0
 30 29  1  0  0  0  0
 31 30  2  0  0  0  0
 32 27  2  0  0  0  0
 32 31  1  0  0  0  0
 33 27  1  0  0  0  0
 35 38  1  0  0  0  0
 35 36  1  0  0  0  0
 37 35  1  0  0  0  0
M  END
>  <minimizedAffinity>
-5.97943926

$$$$

 OpenBabel03242515193D

 38 40  0  0  0  0  0  0  0  0999 V2000
   37.3950   30.1360   39.2940 C   0  0  0  0  0  0  0  0  0  0  0  0
   38.7390   30.1050   39.0000 C   0  0  0  0  0  0  0  0  0  0  0  0
   39.2450   31.3710   39.2490 C   0  0  0  0  0  0  0  0  0  0  0  0
   38.2430   32.1270   39.6710 N   0  0  0  0  0  0  0  0  0  0  0  0
   37.1410   31.3720   39.6930 N   0  0  0  0  0  0  0  0  0  0  0  0
   39.1880   29.1860   38.6470 H   0  0  0  0  0  0  0  0  0  0  0  0
   41.5660   32.0340   41.3820 Cl  0  0  0  0  0  0  0  0  0  0  0  0
   41.7680   31.9140   39.6510 C   0  0  0  0  0  0  0  0  0  0  0  0
   40.6470   31.5590   38.9490 C   0  0  0  0  0  0  0  0  0  0  0  0
   40.9160   31.4100   37.5760 C   0  0  0  0  0  0  0  0  0  0  0  0
   40.1520   31.1260   36.8330 H   0  0  0  0  0  0  0  0  0  0  0  0
   42.1440   31.5930   36.9760 C   0  0  0  0  0  3  0  0  0  0  0  0
   43.2180   31.9510   37.7470 C   0  0  0  0  0  0  0  0  0  0  0  0
   44.8470   32.2300   37.1750 Cl  0  0  0  0  0  0  0  0  0  0  0  0
   43.0060   32.1060   39.0910 C   0  0  0  0  0  0  0  0  0  0  0  0
   43.8020   32.3870   39.7660 H   0  0  0  0  0  0  0  0  0  0  0  0
   38.3050   33.5460   40.0220 C   0  0  0  0  0  0  0  0  0  0  0  0
   38.6820   33.6630   41.3780 F   0  0  0  0  0  0  0  0  0  0  0  0
   37.1020   34.1580   39.8000 F   0  0  0  0  0  0  0  0  0  0  0  0
   39.2890   34.1470   39.3070 F   0  0  0  0  0  0  0  0  0  0  0  0
   36.4020   29.0630   39.2070 C   0  0  0  0  0  0  0  0  0  0  0  0
   36.8510   28.1160   38.8070 H   0  0  0  0  0  0  0  0  0  0  0  0
   35.6480   29.3970   38.4390 H   0  0  0  0  0  0  0  0  0  0  0  0
   35.7160   28.8250   40.5210 C   0  0  0  0  0  0  0  0  0  0  0  0
   34.8990   28.1420   40.3320 H   0  0  0  0  0  0  0  0  0  0  0  0
   35.2340   29.7900   40.8420 H   0  0  0  0  0  0  0  0  0  0  0  0
   37.9680   28.5090   43.4750 C   0  0  0  0  0  0  0  0  0  0  0  0
   38.3620   27.1620   43.3600 C   0  0  0  0  0  0  0  0  0  0  0  0
   37.8470   26.4470   42.2990 C   0  0  0  0  0  0  0  0  0  0  0  0
   37.0180   27.1030   41.4740 N   0  0  0  0  0  0  0  0  0  0  0  0
   36.6480   28.3760   41.5880 C   0  0  0  0  0  0  0  0  0  0  0  0
   37.1350   29.0710   42.5990 N   0  0  0  0  0  0  0  0  0  0  0  0
   38.3580   29.0830   44.2970 H   0  0  0  0  0  0  0  0  0  0  0  0
   39.0430   26.7390   44.0930 H   0  0  0  0  0  0  0  0  0  0  0  0
   38.2580   25.0470   42.1870 C   0  0  0  0  0  0  0  0  0  0  0  0
   37.1720   24.2230   42.4880 F   0  0  0  0  0  0  0  0  0  0  0  0
   39.1670   24.8300   43.2170 F   0  0  0  0  0  0  0  0  0  0  0  0
   38.7580   24.7400   40.9570 F   0  0  0  0  0  0  0  0  0  0  0  0
  1  5  2  0  0  0  0
  2  3  2  0  0  0  0
  2  1  1  0  0  0  0
  3  4  1  0  0  0  0
  4  5  1  0  0  0  0
  4 17  1  0  0  0  0
  6  2  1  0  0  0  0
  8  7  1  0  0  0  0
  9  3  1  0  0  0  0
  9  8  2  0  0  0  0
 10  9  1  0  0  0  0
 11 10  1  0  0  0  0
 12 10  2  0  0  0  0
 12 13  1  0  0  0  0
 13 15  2  0  0  0  0
 14 13  1  0  0  0  0
 15  8  1  0  0  0  0
 15 16  1  0  0  0  0
 17 18  1  0  0  0  0
 19 17  1  0  0  0  0
 20 17  1  0  0  0  0
 21  1  1  0  0  0  0
 21 24  1  0  0  0  0
 22 21  1  0  0  0  0
 23 21  1  0  0  0  0
 24 26  1  0  0  0  0
 24 31  1  0  0  0  0
 25 24  1  0  0  0  0
 27 33  1  0  0  0  0
 28 27  1  0  0  0  0
 28 34  1  0  0  0  0
 29 28  2  0  0  0  0
 30 31  2  0  0  0  0
 30 29  1  0  0  0  0
 31 32  1  0  0  0  0
 32 27  2  0  0  0  0
 35 29  1  0  0  0  0
 35 36  1  0  0  0  0
 35 37  1  0  0  0  0
 38 35  1  0  0  0  0
M  END
>  <minimizedAffinity>
-5.97142792

$$$$

 OpenBabel03242515193D

 38 40  0  0  0  0  0  0  0  0999 V2000
   39.7610   29.3490   39.0880 C   0  0  0  0  0  0  0  0  0  0  0  0
   38.6650   28.9140   38.3790 C   0  0  0  0  0  0  0  0  0  0  0  0
   37.7050   29.9120   38.4490 C   0  0  0  0  0  0  0  0  0  0  0  0
   38.2090   30.9010   39.1730 N   0  0  0  0  0  0  0  0  0  0  0  0
   39.4420   30.5480   39.5470 N   0  0  0  0  0  0  0  0  0  0  0  0
   38.6880   27.9430   37.9020 H   0  0  0  0  0  0  0  0  0  0  0  0
   34.9070   29.3250   39.9320 Cl  0  0  0  0  0  0  0  0  0  0  0  0
   35.1850   29.2720   38.2080 C   0  0  0  0  0  0  0  0  0  0  0  0
   36.4450   29.6200   37.8020 C   0  0  0  0  0  0  0  0  0  0  0  0
   36.5600   29.6260   36.4010 C   0  0  0  0  0  0  0  0  0  0  0  0
   37.4920   29.8800   35.8670 H   0  0  0  0  0  0  0  0  0  0  0  0
   35.5510   29.3200   35.5130 C   0  0  0  0  0  3  0  0  0  0  0  0
   34.3160   28.9780   35.9970 C   0  0  0  0  0  0  0  0  0  0  0  0
   32.9160   28.5570   35.0380 Cl  0  0  0  0  0  0  0  0  0  0  0  0
   34.1540   28.9600   37.3570 C   0  0  0  0  0  0  0  0  0  0  0  0
   33.2110   28.7000   37.8160 H   0  0  0  0  0  0  0  0  0  0  0  0
   37.5360   32.1470   39.5360 C   0  0  0  0  0  0  0  0  0  0  0  0
   38.5030   33.0680   39.9970 F   0  0  0  0  0  0  0  0  0  0  0  0
   36.5830   31.9280   40.4930 F   0  0  0  0  0  0  0  0  0  0  0  0
   36.9850   32.7060   38.4300 F   0  0  0  0  0  0  0  0  0  0  0  0
   41.0420   28.6770   39.3190 C   0  0  0  0  0  0  0  0  0  0  0  0
   41.7030   29.2710   40.0030 H   0  0  0  0  0  0  0  0  0  0  0  0
   41.5680   28.6560   38.3220 H   0  0  0  0  0  0  0  0  0  0  0  0
   40.8580   27.2760   39.8240 C   0  0  0  0  0  0  0  0  0  0  0  0
   41.7960   26.7590   39.6730 H   0  0  0  0  0  0  0  0  0  0  0  0
   40.1160   26.7580   39.1540 H   0  0  0  0  0  0  0  0  0  0  0  0
   40.4140   27.3440   43.5250 C   0  0  0  0  0  0  0  0  0  0  0  0
   39.0430   27.0400   43.6300 C   0  0  0  0  0  0  0  0  0  0  0  0
   38.3570   26.8320   42.4520 C   0  0  0  0  0  0  0  0  0  0  0  0
   39.0600   26.9390   41.3150 N   0  0  0  0  0  0  0  0  0  0  0  0
   40.3560   27.2260   41.2220 C   0  0  0  0  0  0  0  0  0  0  0  0
   41.0240   27.4270   42.3420 N   0  0  0  0  0  0  0  0  0  0  0  0
   40.9670   27.5100   44.4330 H   0  0  0  0  0  0  0  0  0  0  0  0
   38.5820   26.9810   44.6110 H   0  0  0  0  0  0  0  0  0  0  0  0
   36.9320   26.5210   42.5670 C   0  0  0  0  0  0  0  0  0  0  0  0
   36.7610   25.1350   42.5610 F   0  0  0  0  0  0  0  0  0  0  0  0
   36.3460   26.9570   41.3820 F   0  0  0  0  0  0  0  0  0  0  0  0
   36.3600   27.0630   43.6780 F   0  0  0  0  0  0  0  0  0  0  0  0
  1 21  1  0  0  0  0
  1  5  2  0  0  0  0
  2  3  2  0  0  0  0
  2  1  1  0  0  0  0
  3  4  1  0  0  0  0
  4 17  1  0  0  0  0
  4  5  1  0  0  0  0
  6  2  1  0  0  0  0
  8  7  1  0  0  0  0
  9  8  1  0  0  0  0
  9  3  1  0  0  0  0
 10  9  2  0  0  0  0
 11 10  1  0  0  0  0
 12 13  2  0  0  0  0
 12 10  1  0  0  0  0
 13 15  1  0  0  0  0
 14 13  1  0  0  0  0
 15 16  1  0  0  0  0
 15  8  2  0  0  0  0
 17 18  1  0  0  0  0
 17 19  1  0  0  0  0
 20 17  1  0  0  0  0
 21 24  1  0  0  0  0
 21 22  1  0  0  0  0
 23 21  1  0  0  0  0
 24 31  1  0  0  0  0
 25 24  1  0  0  0  0
 26 24  1  0  0  0  0
 27 28  1  0  0  0  0
 27 33  1  0  0  0  0
 28 34  1  0  0  0  0
 29 35  1  0  0  0  0
 29 28  2  0  0  0  0
 30 29  1  0  0  0  0
 31 30  2  0  0  0  0
 31 32  1  0  0  0  0
 32 27  2  0  0  0  0
 35 38  1  0  0  0  0
 36 35  1  0  0  0  0
 37 35  1  0  0  0  0
M  END
>  <minimizedAffinity>
-5.85428572

$$$$

 OpenBabel03242515193D

 38 40  0  0  0  0  0  0  0  0999 V2000
   40.0880   28.2230   41.0720 C   0  0  0  0  0  0  0  0  0  0  0  0
   39.5510   27.1700   40.3670 C   0  0  0  0  0  0  0  0  0  0  0  0
   38.2870   26.9300   40.8820 C   0  0  0  0  0  0  0  0  0  0  0  0
   38.0800   27.8040   41.8560 N   0  0  0  0  0  0  0  0  0  0  0  0
   39.1690   28.5710   41.9570 N   0  0  0  0  0  0  0  0  0  0  0  0
   40.1270   26.7080   39.5760 H   0  0  0  0  0  0  0  0  0  0  0  0
   36.0470   27.1120   38.5740 Cl  0  0  0  0  0  0  0  0  0  0  0  0
   36.5560   25.6580   39.3980 C   0  0  0  0  0  0  0  0  0  0  0  0
   37.5720   25.8160   40.3020 C   0  0  0  0  0  0  0  0  0  0  0  0
   37.9700   24.5870   40.8600 C   0  0  0  0  0  0  0  0  0  0  0  0
   38.7740   24.4910   41.6090 H   0  0  0  0  0  0  0  0  0  0  0  0
   37.4250   23.3570   40.5590 C   0  0  0  0  0  3  0  0  0  0  0  0
   36.4080   23.2810   39.6440 C   0  0  0  0  0  0  0  0  0  0  0  0
   35.5900   21.8230   39.1340 Cl  0  0  0  0  0  0  0  0  0  0  0  0
   35.9870   24.4520   39.0720 C   0  0  0  0  0  0  0  0  0  0  0  0
   35.1900   24.4760   38.3420 H   0  0  0  0  0  0  0  0  0  0  0  0
   36.8920   27.9010   42.7040 C   0  0  0  0  0  0  0  0  0  0  0  0
   35.7790   28.2170   41.8940 F   0  0  0  0  0  0  0  0  0  0  0  0
   37.0640   28.8450   43.6790 F   0  0  0  0  0  0  0  0  0  0  0  0
   36.6240   26.6890   43.2510 F   0  0  0  0  0  0  0  0  0  0  0  0
   41.3930   28.8700   40.9200 C   0  0  0  0  0  0  0  0  0  0  0  0
   42.2290   28.1220   40.9320 H   0  0  0  0  0  0  0  0  0  0  0  0
   41.5340   29.5070   41.8400 H   0  0  0  0  0  0  0  0  0  0  0  0
   41.4540   29.7330   39.6940 C   0  0  0  0  0  0  0  0  0  0  0  0
   41.0410   29.1540   38.8790 H   0  0  0  0  0  0  0  0  0  0  0  0
   42.5380   29.8910   39.4330 H   0  0  0  0  0  0  0  0  0  0  0  0
   40.5720   33.2450   40.5830 C   0  0  0  0  0  0  0  0  0  0  0  0
   39.2830   33.3390   40.0240 C   0  0  0  0  0  0  0  0  0  0  0  0
   38.7940   32.2200   39.3840 C   0  0  0  0  0  0  0  0  0  0  0  0
   39.5930   31.1430   39.3560 N   0  0  0  0  0  0  0  0  0  0  0  0
   40.8100   31.0580   39.8860 C   0  0  0  0  0  0  0  0  0  0  0  0
   41.2890   32.1230   40.5000 N   0  0  0  0  0  0  0  0  0  0  0  0
   40.9710   34.1070   41.0850 H   0  0  0  0  0  0  0  0  0  0  0  0
   38.7290   34.2690   40.1110 H   0  0  0  0  0  0  0  0  0  0  0  0
   37.4560   32.3260   38.8020 C   0  0  0  0  0  0  0  0  0  0  0  0
   36.8870   33.5450   39.1730 F   0  0  0  0  0  0  0  0  0  0  0  0
   36.6810   31.3620   39.4400 F   0  0  0  0  0  0  0  0  0  0  0  0
   37.4580   32.1990   37.4450 F   0  0  0  0  0  0  0  0  0  0  0  0
  1  5  2  0  0  0  0
  2  3  2  0  0  0  0
  2  1  1  0  0  0  0
  3  4  1  0  0  0  0
  4  5  1  0  0  0  0
  4 17  1  0  0  0  0
  6  2  1  0  0  0  0
  7  8  1  0  0  0  0
  8  9  1  0  0  0  0
  9 10  2  0  0  0  0
  9  3  1  0  0  0  0
 10 11  1  0  0  0  0
 12 10  1  0  0  0  0
 13 12  2  0  0  0  0
 14 13  1  0  0  0  0
 15  8  2  0  0  0  0
 15 13  1  0  0  0  0
 16 15  1  0  0  0  0
 17 20  1  0  0  0  0
 17 19  1  0  0  0  0
 18 17  1  0  0  0  0
 21 22  1  0  0  0  0
 21  1  1  0  0  0  0
 21 23  1  0  0  0  0
 24 31  1  0  0  0  0
 24 21  1  0  0  0  0
 25 24  1  0  0  0  0
 26 24  1  0  0  0  0
 27 33  1  0  0  0  0
 28 34  1  0  0  0  0
 28 27  2  0  0  0  0
 29 28  1  0  0  0  0
 30 29  2  0  0  0  0
 30 31  1  0  0  0  0
 31 32  2  0  0  0  0
 32 27  1  0  0  0  0
 35 36  1  0  0  0  0
 35 29  1  0  0  0  0
 35 37  1  0  0  0  0
 38 35  1  0  0  0  0
M  END
>  <minimizedAffinity>
-5.81386232

$$$$
