
 OpenBabel03252509293D

 22 23  0  0  0  0  0  0  0  0999 V2000
   46.7280   35.0780   42.0050 C   0  0  0  0  0  0  0  0  0  0  0  0
   46.0290   34.6830   41.2180 H   0  0  0  0  0  0  0  0  0  0  0  0
   46.9310   36.1470   41.7880 H   0  0  0  0  0  0  0  0  0  0  0  0
   46.4100   32.5980   40.4230 Cl  0  0  0  0  0  0  0  0  0  0  0  0
   47.9400   33.0760   41.1560 C   0  0  0  0  0  0  0  0  0  0  0  0
   47.9580   34.2700   41.8780 C   0  0  0  0  0  0  0  0  0  0  0  0
   49.1740   34.6460   42.4580 C   0  0  0  0  0  0  0  0  0  0  0  0
   49.2090   35.5830   43.0300 H   0  0  0  0  0  0  0  0  0  0  0  0
   50.3260   33.8920   42.3390 C   0  0  0  0  0  3  0  0  0  0  0  0
   50.2880   32.6980   41.6120 C   0  0  0  0  0  0  0  0  0  0  0  0
   51.7310   31.7140   41.4410 Cl  0  0  0  0  0  0  0  0  0  0  0  0
   49.0870   32.3050   41.0270 C   0  0  0  0  0  0  0  0  0  0  0  0
   49.0490   31.3710   40.4560 H   0  0  0  0  0  0  0  0  0  0  0  0
   44.4980   35.8890   44.8600 C   0  0  0  0  0  0  0  0  0  0  0  0
   45.1390   35.9890   43.6120 C   0  0  0  0  0  0  0  0  0  0  0  0
   46.0630   34.9780   43.2970 C   0  0  0  0  0  0  0  0  0  0  0  0
   46.2730   33.9830   44.2070 N   0  0  0  0  0  0  0  0  0  0  0  0
   45.6250   33.9390   45.3950 C   0  0  0  0  0  0  0  0  0  0  0  0
   44.7360   34.8980   45.7160 N   0  0  0  0  0  0  0  0  0  0  0  0
   43.7820   36.6900   45.0820 H   0  0  0  0  0  0  0  0  0  0  0  0
   44.9480   36.7910   42.9160 H   0  0  0  0  0  0  0  0  0  0  0  0
   45.8700   33.1000   46.0450 H   0  0  0  0  0  0  0  0  0  0  0  0
  1 16  1  0  0  0  0
  2  1  1  0  0  0  0
  3  1  1  0  0  0  0
  4  5  1  0  0  0  0
  5  6  1  0  0  0  0
  6  1  1  0  0  0  0
  6  7  2  0  0  0  0
  7  8  1  0  0  0  0
  9  7  1  0  0  0  0
 10  9  2  0  0  0  0
 11 10  1  0  0  0  0
 12  5  2  0  0  0  0
 12 10  1  0  0  0  0
 13 12  1  0  0  0  0
 14 20  1  0  0  0  0
 14 19  1  0  0  0  0
 15 14  2  0  0  0  0
 16 15  1  0  0  0  0
 16 17  2  0  0  0  0
 17 18  1  0  0  0  0
 18 19  2  0  0  0  0
 18 22  1  0  0  0  0
 21 15  1  0  0  0  0
M  END
>  <minimizedAffinity>
-4.70640326

>  <minimizedRMSD>
2.57670569

$$$$
