
 OpenBabel03252500403D

 22 23  0  0  0  0  0  0  0  0999 V2000
   35.7320   28.8930   41.0280 C   0  0  0  0  0  0  0  0  0  0  0  0
   35.0110   29.2610   41.7960 H   0  0  0  0  0  0  0  0  0  0  0  0
   35.1350   28.3020   40.3060 H   0  0  0  0  0  0  0  0  0  0  0  0
   36.4700   26.3300   39.6190 Cl  0  0  0  0  0  0  0  0  0  0  0  0
   37.1470   26.8950   41.1270 C   0  0  0  0  0  0  0  0  0  0  0  0
   36.7570   28.0830   41.7100 C   0  0  0  0  0  0  0  0  0  0  0  0
   37.3700   28.4160   42.9010 C   0  0  0  0  0  0  0  0  0  0  0  0
   37.0460   29.3570   43.3420 H   0  0  0  0  0  0  0  0  0  0  0  0
   38.3310   27.6350   43.5190 C   0  0  0  0  0  3  0  0  0  0  0  0
   38.6900   26.4410   42.8860 C   0  0  0  0  0  0  0  0  0  0  0  0
   39.9170   25.4450   43.6770 Cl  0  0  0  0  0  0  0  0  0  0  0  0
   38.1030   26.0630   41.6890 C   0  0  0  0  0  0  0  0  0  0  0  0
   38.4560   25.1340   41.2980 H   0  0  0  0  0  0  0  0  0  0  0  0
   36.3060   30.0330   40.2530 C   0  0  0  0  0  0  0  0  0  0  0  0
   36.4770   29.8720   38.8680 C   0  0  0  0  0  0  0  0  0  0  0  0
   37.0150   30.9410   38.1460 C   0  0  0  0  0  0  0  0  0  0  0  0
   37.3430   32.0780   38.8230 N   0  0  0  0  0  0  0  0  0  0  0  0
   37.1600   32.1870   40.1580 C   0  0  0  0  0  0  0  0  0  0  0  0
   36.6450   31.1760   40.8790 N   0  0  0  0  0  0  0  0  0  0  0  0
   36.1940   28.9340   38.3740 H   0  0  0  0  0  0  0  0  0  0  0  0
   37.1640   30.8640   37.0880 H   0  0  0  0  0  0  0  0  0  0  0  0
   37.4630   33.1350   40.5450 H   0  0  0  0  0  0  0  0  0  0  0  0
  1  6  1  0  0  0  0
  1  2  1  0  0  0  0
  3  1  1  0  0  0  0
  4  5  1  0  0  0  0
  5 12  2  0  0  0  0
  5  6  1  0  0  0  0
  6  7  2  0  0  0  0
  7  8  1  0  0  0  0
  7  9  1  0  0  0  0
 10  9  2  0  0  0  0
 10 11  1  0  0  0  0
 12 10  1  0  0  0  0
 13 12  1  0  0  0  0
 14 19  1  0  0  0  0
 14  1  1  0  0  0  0
 15 14  2  0  0  0  0
 16 17  2  0  0  0  0
 16 15  1  0  0  0  0
 17 18  1  0  0  0  0
 18 22  1  0  0  0  0
 18 19  2  0  0  0  0
 20 15  1  0  0  0  0
 21 16  1  0  0  0  0
M  END
>  <minimizedAffinity>
-4.76323652

$$$$

 OpenBabel03252500403D

 22 23  0  0  0  0  0  0  0  0999 V2000
   37.9070   28.0770   43.5800 C   0  0  0  0  0  0  0  0  0  0  0  0
   38.7150   28.1020   44.3480 H   0  0  0  0  0  0  0  0  0  0  0  0
   36.9560   28.2050   44.1320 H   0  0  0  0  0  0  0  0  0  0  0  0
   40.6030   26.7300   43.6800 Cl  0  0  0  0  0  0  0  0  0  0  0  0
   39.1830   26.1080   42.8750 C   0  0  0  0  0  0  0  0  0  0  0  0
   37.9810   26.7860   42.8740 C   0  0  0  0  0  0  0  0  0  0  0  0
   36.9360   26.1870   42.2010 C   0  0  0  0  0  0  0  0  0  0  0  0
   35.9980   26.7390   42.2140 H   0  0  0  0  0  0  0  0  0  0  0  0
   37.0350   24.9720   41.5470 C   0  0  0  0  0  3  0  0  0  0  0  0
   38.2750   24.3260   41.5780 C   0  0  0  0  0  0  0  0  0  0  0  0
   38.3990   22.7750   40.7400 Cl  0  0  0  0  0  0  0  0  0  0  0  0
   39.3550   24.8880   42.2400 C   0  0  0  0  0  0  0  0  0  0  0  0
   40.2500   24.3060   42.1970 H   0  0  0  0  0  0  0  0  0  0  0  0
   38.0120   29.2520   42.6640 C   0  0  0  0  0  0  0  0  0  0  0  0
   39.2360   29.9390   42.6080 C   0  0  0  0  0  0  0  0  0  0  0  0
   39.3300   31.0390   41.7510 C   0  0  0  0  0  0  0  0  0  0  0  0
   38.2320   31.3840   41.0190 N   0  0  0  0  0  0  0  0  0  0  0  0
   37.0740   30.6930   41.1070 C   0  0  0  0  0  0  0  0  0  0  0  0
   36.9530   29.6300   41.9230 N   0  0  0  0  0  0  0  0  0  0  0  0
   40.0880   29.6170   43.2180 H   0  0  0  0  0  0  0  0  0  0  0  0
   40.2430   31.5940   41.6740 H   0  0  0  0  0  0  0  0  0  0  0  0
   36.3060   31.0810   40.4750 H   0  0  0  0  0  0  0  0  0  0  0  0
  1  3  1  0  0  0  0
  1  2  1  0  0  0  0
  5  4  1  0  0  0  0
  6  5  1  0  0  0  0
  6  1  1  0  0  0  0
  7  8  1  0  0  0  0
  7  6  2  0  0  0  0
  9 10  2  0  0  0  0
  9  7  1  0  0  0  0
 10 12  1  0  0  0  0
 11 10  1  0  0  0  0
 12  5  2  0  0  0  0
 13 12  1  0  0  0  0
 14  1  1  0  0  0  0
 15 14  1  0  0  0  0
 15 20  1  0  0  0  0
 16 15  2  0  0  0  0
 17 18  2  0  0  0  0
 17 16  1  0  0  0  0
 18 19  1  0  0  0  0
 19 14  2  0  0  0  0
 21 16  1  0  0  0  0
 22 18  1  0  0  0  0
M  END
>  <minimizedAffinity>
-4.66374636

$$$$

 OpenBabel03252500403D

 22 23  0  0  0  0  0  0  0  0999 V2000
   36.6470   27.6390   42.7350 C   0  0  0  0  0  0  0  0  0  0  0  0
   36.3970   28.1590   43.6900 H   0  0  0  0  0  0  0  0  0  0  0  0
   35.8770   26.8540   42.6040 H   0  0  0  0  0  0  0  0  0  0  0  0
   36.8850   24.7080   42.0690 Cl  0  0  0  0  0  0  0  0  0  0  0  0
   38.1960   25.7490   42.5670 C   0  0  0  0  0  0  0  0  0  0  0  0
   38.0060   27.0850   42.8550 C   0  0  0  0  0  0  0  0  0  0  0  0
   39.1250   27.7970   43.2370 C   0  0  0  0  0  0  0  0  0  0  0  0
   38.9510   28.8490   43.4590 H   0  0  0  0  0  0  0  0  0  0  0  0
   40.3910   27.2490   43.3410 C   0  0  0  0  0  3  0  0  0  0  0  0
   40.5280   25.8910   43.0380 C   0  0  0  0  0  0  0  0  0  0  0  0
   42.1460   25.1930   43.1720 Cl  0  0  0  0  0  0  0  0  0  0  0  0
   39.4350   25.1330   42.6500 C   0  0  0  0  0  0  0  0  0  0  0  0
   39.6590   24.1090   42.4430 H   0  0  0  0  0  0  0  0  0  0  0  0
   36.4920   28.5650   41.5730 C   0  0  0  0  0  0  0  0  0  0  0  0
   36.2150   28.0070   40.3140 C   0  0  0  0  0  0  0  0  0  0  0  0
   36.0720   28.8770   39.2300 C   0  0  0  0  0  0  0  0  0  0  0  0
   36.2080   30.2160   39.4530 N   0  0  0  0  0  0  0  0  0  0  0  0
   36.4750   30.7070   40.6830 C   0  0  0  0  0  0  0  0  0  0  0  0
   36.6190   29.8950   41.7460 N   0  0  0  0  0  0  0  0  0  0  0  0
   36.1150   26.9220   40.1930 H   0  0  0  0  0  0  0  0  0  0  0  0
   35.8610   28.4970   38.2510 H   0  0  0  0  0  0  0  0  0  0  0  0
   36.5530   31.7720   40.7000 H   0  0  0  0  0  0  0  0  0  0  0  0
  1  6  1  0  0  0  0
  1  2  1  0  0  0  0
  3  1  1  0  0  0  0
  4  5  1  0  0  0  0
  5 12  2  0  0  0  0
  5  6  1  0  0  0  0
  6  7  2  0  0  0  0
  7  9  1  0  0  0  0
  7  8  1  0  0  0  0
 10 11  1  0  0  0  0
 10  9  2  0  0  0  0
 12 10  1  0  0  0  0
 13 12  1  0  0  0  0
 14 19  1  0  0  0  0
 14  1  1  0  0  0  0
 15 14  2  0  0  0  0
 16 17  2  0  0  0  0
 16 15  1  0  0  0  0
 17 18  1  0  0  0  0
 18 22  1  0  0  0  0
 18 19  2  0  0  0  0
 20 15  1  0  0  0  0
 21 16  1  0  0  0  0
M  END
>  <minimizedAffinity>
-4.63072205

$$$$

 OpenBabel03252500403D

 22 23  0  0  0  0  0  0  0  0999 V2000
   35.9640   29.7520   40.9790 C   0  0  0  0  0  0  0  0  0  0  0  0
   35.2140   30.0460   41.7520 H   0  0  0  0  0  0  0  0  0  0  0  0
   35.4530   29.8550   40.0020 H   0  0  0  0  0  0  0  0  0  0  0  0
   36.4140   28.0550   38.5280 Cl  0  0  0  0  0  0  0  0  0  0  0  0
   36.6130   27.5290   40.1810 C   0  0  0  0  0  0  0  0  0  0  0  0
   36.3880   28.3680   41.2530 C   0  0  0  0  0  0  0  0  0  0  0  0
   36.5810   27.8300   42.5090 C   0  0  0  0  0  0  0  0  0  0  0  0
   36.3970   28.5100   43.3390 H   0  0  0  0  0  0  0  0  0  0  0  0
   36.9800   26.5240   42.7360 C   0  0  0  0  0  3  0  0  0  0  0  0
   37.1950   25.7160   41.6150 C   0  0  0  0  0  0  0  0  0  0  0  0
   37.7040   24.0490   41.9080 Cl  0  0  0  0  0  0  0  0  0  0  0  0
   37.0140   26.2100   40.3330 C   0  0  0  0  0  0  0  0  0  0  0  0
   37.2080   25.5040   39.5560 H   0  0  0  0  0  0  0  0  0  0  0  0
   37.1010   30.7190   40.9530 C   0  0  0  0  0  0  0  0  0  0  0  0
   36.9370   31.9150   40.2350 C   0  0  0  0  0  0  0  0  0  0  0  0
   38.0040   32.8170   40.2120 C   0  0  0  0  0  0  0  0  0  0  0  0
   39.1430   32.4880   40.8850 N   0  0  0  0  0  0  0  0  0  0  0  0
   39.2570   31.3240   41.5620 C   0  0  0  0  0  0  0  0  0  0  0  0
   38.2470   30.4360   41.6030 N   0  0  0  0  0  0  0  0  0  0  0  0
   35.9970   32.1300   39.7120 H   0  0  0  0  0  0  0  0  0  0  0  0
   37.9240   33.7420   39.6780 H   0  0  0  0  0  0  0  0  0  0  0  0
   40.2050   31.2070   42.0380 H   0  0  0  0  0  0  0  0  0  0  0  0
  1  6  1  0  0  0  0
  1  2  1  0  0  0  0
  3  1  1  0  0  0  0
  4  5  1  0  0  0  0
  5 12  2  0  0  0  0
  5  6  1  0  0  0  0
  6  7  2  0  0  0  0
  7  9  1  0  0  0  0
  7  8  1  0  0  0  0
 10 11  1  0  0  0  0
 10  9  2  0  0  0  0
 12 10  1  0  0  0  0
 13 12  1  0  0  0  0
 14  1  1  0  0  0  0
 14 19  1  0  0  0  0
 15 14  2  0  0  0  0
 16 15  1  0  0  0  0
 16 17  2  0  0  0  0
 17 18  1  0  0  0  0
 18 19  2  0  0  0  0
 18 22  1  0  0  0  0
 20 15  1  0  0  0  0
 21 16  1  0  0  0  0
M  END
>  <minimizedAffinity>
-4.61258936

$$$$

 OpenBabel03252500403D

 22 23  0  0  0  0  0  0  0  0999 V2000
   36.6630   27.4870   42.8840 C   0  0  0  0  0  0  0  0  0  0  0  0
   35.6000   27.1950   43.0570 H   0  0  0  0  0  0  0  0  0  0  0  0
   37.0320   27.8830   43.8500 H   0  0  0  0  0  0  0  0  0  0  0  0
   38.7090   29.6710   43.2540 Cl  0  0  0  0  0  0  0  0  0  0  0  0
   37.6060   29.5250   41.9070 C   0  0  0  0  0  0  0  0  0  0  0  0
   36.6960   28.4930   41.8090 C   0  0  0  0  0  0  0  0  0  0  0  0
   35.8810   28.4930   40.6950 C   0  0  0  0  0  0  0  0  0  0  0  0
   35.1720   27.6700   40.6390 H   0  0  0  0  0  0  0  0  0  0  0  0
   35.9350   29.4530   39.7000 C   0  0  0  0  0  3  0  0  0  0  0  0
   36.8750   30.4780   39.8480 C   0  0  0  0  0  0  0  0  0  0  0  0
   36.9410   31.7030   38.5760 Cl  0  0  0  0  0  0  0  0  0  0  0  0
   37.7160   30.5220   40.9490 C   0  0  0  0  0  0  0  0  0  0  0  0
   38.3930   31.3480   40.9550 H   0  0  0  0  0  0  0  0  0  0  0  0
   37.4990   26.2840   42.5880 C   0  0  0  0  0  0  0  0  0  0  0  0
   36.8740   25.1730   41.9980 C   0  0  0  0  0  0  0  0  0  0  0  0
   37.6590   24.0500   41.7240 C   0  0  0  0  0  0  0  0  0  0  0  0
   38.9840   24.0940   42.0420 N   0  0  0  0  0  0  0  0  0  0  0  0
   39.5420   25.1870   42.6100 C   0  0  0  0  0  0  0  0  0  0  0  0
   38.8120   26.2820   42.8860 N   0  0  0  0  0  0  0  0  0  0  0  0
   35.8030   25.1930   41.7620 H   0  0  0  0  0  0  0  0  0  0  0  0
   37.2260   23.1790   41.2750 H   0  0  0  0  0  0  0  0  0  0  0  0
   40.5860   25.0720   42.8000 H   0  0  0  0  0  0  0  0  0  0  0  0
  1  2  1  0  0  0  0
  1  3  1  0  0  0  0
  5  4  1  0  0  0  0
  6  5  1  0  0  0  0
  6  1  1  0  0  0  0
  7  6  2  0  0  0  0
  8  7  1  0  0  0  0
  9 10  2  0  0  0  0
  9  7  1  0  0  0  0
 10 12  1  0  0  0  0
 11 10  1  0  0  0  0
 12 13  1  0  0  0  0
 12  5  2  0  0  0  0
 14  1  1  0  0  0  0
 14 19  1  0  0  0  0
 15 14  2  0  0  0  0
 16 15  1  0  0  0  0
 16 17  2  0  0  0  0
 17 18  1  0  0  0  0
 18 22  1  0  0  0  0
 18 19  2  0  0  0  0
 20 15  1  0  0  0  0
 21 16  1  0  0  0  0
M  END
>  <minimizedAffinity>
-4.60829926

$$$$

 OpenBabel03252500403D

 22 23  0  0  0  0  0  0  0  0999 V2000
   37.4340   28.1560   43.4410 C   0  0  0  0  0  0  0  0  0  0  0  0
   36.3350   28.0780   43.2610 H   0  0  0  0  0  0  0  0  0  0  0  0
   37.5530   28.3110   44.5320 H   0  0  0  0  0  0  0  0  0  0  0  0
   35.7500   28.9120   41.0570 Cl  0  0  0  0  0  0  0  0  0  0  0  0
   37.2360   29.6890   41.5410 C   0  0  0  0  0  0  0  0  0  0  0  0
   37.9520   29.2850   42.6490 C   0  0  0  0  0  0  0  0  0  0  0  0
   39.1110   29.9820   42.9240 C   0  0  0  0  0  0  0  0  0  0  0  0
   39.6580   29.6460   43.8020 H   0  0  0  0  0  0  0  0  0  0  0  0
   39.5730   31.0400   42.1610 C   0  0  0  0  0  3  0  0  0  0  0  0
   38.8110   31.4100   41.0490 C   0  0  0  0  0  0  0  0  0  0  0  0
   39.4050   32.7600   40.0750 Cl  0  0  0  0  0  0  0  0  0  0  0  0
   37.6400   30.7400   40.7310 C   0  0  0  0  0  0  0  0  0  0  0  0
   37.1410   31.1100   39.8620 H   0  0  0  0  0  0  0  0  0  0  0  0
   38.1130   26.8620   43.1330 C   0  0  0  0  0  0  0  0  0  0  0  0
   37.4660   25.9650   42.2680 C   0  0  0  0  0  0  0  0  0  0  0  0
   38.1050   24.7550   41.9820 C   0  0  0  0  0  0  0  0  0  0  0  0
   39.3170   24.5120   42.5590 N   0  0  0  0  0  0  0  0  0  0  0  0
   39.9010   25.4060   43.3860 C   0  0  0  0  0  0  0  0  0  0  0  0
   39.3110   26.5790   43.6800 N   0  0  0  0  0  0  0  0  0  0  0  0
   36.4910   26.2120   41.8310 H   0  0  0  0  0  0  0  0  0  0  0  0
   37.6500   24.0400   41.3280 H   0  0  0  0  0  0  0  0  0  0  0  0
   40.8460   25.0770   43.7580 H   0  0  0  0  0  0  0  0  0  0  0  0
  1  3  1  0  0  0  0
  2  1  1  0  0  0  0
  4  5  1  0  0  0  0
  5  6  1  0  0  0  0
  6  7  2  0  0  0  0
  6  1  1  0  0  0  0
  7  8  1  0  0  0  0
  9  7  1  0  0  0  0
 10  9  2  0  0  0  0
 11 10  1  0  0  0  0
 12 10  1  0  0  0  0
 12  5  2  0  0  0  0
 13 12  1  0  0  0  0
 14  1  1  0  0  0  0
 14 19  1  0  0  0  0
 15 14  2  0  0  0  0
 16 15  1  0  0  0  0
 16 17  2  0  0  0  0
 17 18  1  0  0  0  0
 18 19  2  0  0  0  0
 18 22  1  0  0  0  0
 20 15  1  0  0  0  0
 21 16  1  0  0  0  0
M  END
>  <minimizedAffinity>
-4.60606909

$$$$

 OpenBabel03252500403D

 22 23  0  0  0  0  0  0  0  0999 V2000
   36.5830   30.2390   41.6190 C   0  0  0  0  0  0  0  0  0  0  0  0
   36.8360   31.1110   42.2670 H   0  0  0  0  0  0  0  0  0  0  0  0
   35.4850   30.1120   41.6930 H   0  0  0  0  0  0  0  0  0  0  0  0
   39.4210   30.7960   42.4700 Cl  0  0  0  0  0  0  0  0  0  0  0  0
   38.6290   29.2410   42.5220 C   0  0  0  0  0  0  0  0  0  0  0  0
   37.3230   29.0660   42.1150 C   0  0  0  0  0  0  0  0  0  0  0  0
   36.8140   27.7860   42.2070 C   0  0  0  0  0  0  0  0  0  0  0  0
   35.7820   27.6720   41.8800 H   0  0  0  0  0  0  0  0  0  0  0  0
   37.5340   26.7020   42.6770 C   0  0  0  0  0  3  0  0  0  0  0  0
   38.8530   26.9330   43.0780 C   0  0  0  0  0  0  0  0  0  0  0  0
   39.7700   25.5470   43.6780 Cl  0  0  0  0  0  0  0  0  0  0  0  0
   39.4090   28.2010   43.0040 C   0  0  0  0  0  0  0  0  0  0  0  0
   40.4220   28.2590   43.3380 H   0  0  0  0  0  0  0  0  0  0  0  0
   36.8650   30.5470   40.1850 C   0  0  0  0  0  0  0  0  0  0  0  0
   37.0810   31.8870   39.8260 C   0  0  0  0  0  0  0  0  0  0  0  0
   37.3440   32.1710   38.4830 C   0  0  0  0  0  0  0  0  0  0  0  0
   37.3750   31.1350   37.5970 N   0  0  0  0  0  0  0  0  0  0  0  0
   37.1600   29.8590   37.9890 C   0  0  0  0  0  0  0  0  0  0  0  0
   36.9050   29.5550   39.2740 N   0  0  0  0  0  0  0  0  0  0  0  0
   37.0450   32.6820   40.5810 H   0  0  0  0  0  0  0  0  0  0  0  0
   37.5150   33.1790   38.1620 H   0  0  0  0  0  0  0  0  0  0  0  0
   37.2160   29.1590   37.1840 H   0  0  0  0  0  0  0  0  0  0  0  0
  1  3  1  0  0  0  0
  1  6  1  0  0  0  0
  1  2  1  0  0  0  0
  4  5  1  0  0  0  0
  5 12  1  0  0  0  0
  6  7  1  0  0  0  0
  6  5  2  0  0  0  0
  7  9  2  0  0  0  0
  8  7  1  0  0  0  0
  9 10  1  0  0  0  0
 10 11  1  0  0  0  0
 12 10  2  0  0  0  0
 12 13  1  0  0  0  0
 14  1  1  0  0  0  0
 15 14  1  0  0  0  0
 15 20  1  0  0  0  0
 16 15  2  0  0  0  0
 17 18  2  0  0  0  0
 17 16  1  0  0  0  0
 18 19  1  0  0  0  0
 19 14  2  0  0  0  0
 21 16  1  0  0  0  0
 22 18  1  0  0  0  0
M  END
>  <minimizedAffinity>
-4.5302825

$$$$

 OpenBabel03252500403D

 22 23  0  0  0  0  0  0  0  0999 V2000
   39.1880   30.2150   42.5810 C   0  0  0  0  0  0  0  0  0  0  0  0
   40.2930   30.0810   42.4980 H   0  0  0  0  0  0  0  0  0  0  0  0
   39.0150   30.7340   43.5450 H   0  0  0  0  0  0  0  0  0  0  0  0
   40.5360   28.2380   40.7470 Cl  0  0  0  0  0  0  0  0  0  0  0  0
   39.1170   27.9250   41.7150 C   0  0  0  0  0  0  0  0  0  0  0  0
   38.5580   28.8850   42.5330 C   0  0  0  0  0  0  0  0  0  0  0  0
   37.4370   28.5110   43.2460 C   0  0  0  0  0  0  0  0  0  0  0  0
   37.0130   29.2840   43.8850 H   0  0  0  0  0  0  0  0  0  0  0  0
   36.8660   27.2520   43.1810 C   0  0  0  0  0  3  0  0  0  0  0  0
   37.4710   26.3160   42.3370 C   0  0  0  0  0  0  0  0  0  0  0  0
   36.7390   24.7100   42.2550 Cl  0  0  0  0  0  0  0  0  0  0  0  0
   38.5980   26.6450   41.6000 C   0  0  0  0  0  0  0  0  0  0  0  0
   38.9740   25.8510   40.9910 H   0  0  0  0  0  0  0  0  0  0  0  0
   38.6870   31.1410   41.5210 C   0  0  0  0  0  0  0  0  0  0  0  0
   39.5330   32.1770   41.0940 C   0  0  0  0  0  0  0  0  0  0  0  0
   39.0600   33.0410   40.1020 C   0  0  0  0  0  0  0  0  0  0  0  0
   37.8070   32.8320   39.6060 N   0  0  0  0  0  0  0  0  0  0  0  0
   37.0280   31.8200   40.0490 C   0  0  0  0  0  0  0  0  0  0  0  0
   37.4560   30.9730   41.0020 N   0  0  0  0  0  0  0  0  0  0  0  0
   40.5340   32.2990   41.5270 H   0  0  0  0  0  0  0  0  0  0  0  0
   39.6700   33.8460   39.7450 H   0  0  0  0  0  0  0  0  0  0  0  0
   36.0760   31.7840   39.5670 H   0  0  0  0  0  0  0  0  0  0  0  0
  1  3  1  0  0  0  0
  2  1  1  0  0  0  0
  4  5  1  0  0  0  0
  5  6  1  0  0  0  0
  6  1  1  0  0  0  0
  6  7  2  0  0  0  0
  7  8  1  0  0  0  0
  9  7  1  0  0  0  0
 10  9  2  0  0  0  0
 11 10  1  0  0  0  0
 12  5  2  0  0  0  0
 12 10  1  0  0  0  0
 13 12  1  0  0  0  0
 14  1  1  0  0  0  0
 15 14  1  0  0  0  0
 15 20  1  0  0  0  0
 16 15  2  0  0  0  0
 17 18  2  0  0  0  0
 17 16  1  0  0  0  0
 18 19  1  0  0  0  0
 19 14  2  0  0  0  0
 21 16  1  0  0  0  0
 22 18  1  0  0  0  0
M  END
>  <minimizedAffinity>
-4.45474911

$$$$

 OpenBabel03252500403D

 22 23  0  0  0  0  0  0  0  0999 V2000
   36.7850   27.2370   42.6010 C   0  0  0  0  0  0  0  0  0  0  0  0
   36.0380   26.5060   42.2110 H   0  0  0  0  0  0  0  0  0  0  0  0
   36.4090   27.5600   43.5910 H   0  0  0  0  0  0  0  0  0  0  0  0
   36.5630   26.4400   39.7010 Cl  0  0  0  0  0  0  0  0  0  0  0  0
   36.7920   28.0660   40.2960 C   0  0  0  0  0  0  0  0  0  0  0  0
   36.8840   28.3510   41.6430 C   0  0  0  0  0  0  0  0  0  0  0  0
   37.0640   29.6770   41.9810 C   0  0  0  0  0  0  0  0  0  0  0  0
   37.1340   29.8780   43.0490 H   0  0  0  0  0  0  0  0  0  0  0  0
   37.1530   30.7040   41.0580 C   0  0  0  0  0  3  0  0  0  0  0  0
   37.0540   30.3610   39.7070 C   0  0  0  0  0  0  0  0  0  0  0  0
   37.1690   31.6740   38.5300 Cl  0  0  0  0  0  0  0  0  0  0  0  0
   36.8730   29.0440   39.3160 C   0  0  0  0  0  0  0  0  0  0  0  0
   36.8100   28.9010   38.2590 H   0  0  0  0  0  0  0  0  0  0  0  0
   38.0950   26.5670   42.8580 C   0  0  0  0  0  0  0  0  0  0  0  0
   39.1230   27.3240   43.4420 C   0  0  0  0  0  0  0  0  0  0  0  0
   40.3470   26.6930   43.6790 C   0  0  0  0  0  0  0  0  0  0  0  0
   40.4760   25.3810   43.3310 N   0  0  0  0  0  0  0  0  0  0  0  0
   39.4580   24.6920   42.7700 C   0  0  0  0  0  0  0  0  0  0  0  0
   38.2680   25.2720   42.5300 N   0  0  0  0  0  0  0  0  0  0  0  0
   38.9640   28.3780   43.7030 H   0  0  0  0  0  0  0  0  0  0  0  0
   41.1600   27.2310   44.1230 H   0  0  0  0  0  0  0  0  0  0  0  0
   39.7090   23.6770   42.5540 H   0  0  0  0  0  0  0  0  0  0  0  0
  1 14  1  0  0  0  0
  1  3  1  0  0  0  0
  2  1  1  0  0  0  0
  4  5  1  0  0  0  0
  5  6  1  0  0  0  0
  6  7  2  0  0  0  0
  6  1  1  0  0  0  0
  7  8  1  0  0  0  0
  9  7  1  0  0  0  0
 10  9  2  0  0  0  0
 11 10  1  0  0  0  0
 12 10  1  0  0  0  0
 12  5  2  0  0  0  0
 13 12  1  0  0  0  0
 14 15  1  0  0  0  0
 15 16  2  0  0  0  0
 15 20  1  0  0  0  0
 16 21  1  0  0  0  0
 17 16  1  0  0  0  0
 18 17  2  0  0  0  0
 19 18  1  0  0  0  0
 19 14  2  0  0  0  0
 22 18  1  0  0  0  0
M  END
>  <minimizedAffinity>
-4.35144281

$$$$
