
 OpenBabel03252508463D

 46 48  0  0  0  0  0  0  0  0999 V2000
   42.7010   31.3640   42.6390 N   0  0  0  0  0  0  0  0  0  0  0  0
   42.9610   31.6560   43.6200 H   0  0  0  0  0  0  0  0  0  0  0  0
   42.9890   32.4070   41.7050 C   0  0  0  0  0  0  0  0  0  0  0  0
   43.4850   31.9720   40.8170 H   0  0  0  0  0  0  0  0  0  0  0  0
   42.0560   32.8960   41.3280 H   0  0  0  0  0  0  0  0  0  0  0  0
   43.6500   34.8190   41.9170 C   0  0  0  0  0  0  0  0  0  0  0  0
   43.8830   33.4760   42.2390 C   0  0  0  0  0  0  0  0  0  0  0  0
   44.9530   33.1780   43.0570 C   0  0  0  0  0  0  0  0  0  0  0  0
   45.7600   34.1670   43.5350 C   0  0  0  0  0  0  0  0  0  0  0  0
   45.5490   35.4950   43.2310 C   0  0  0  0  0  0  0  0  0  0  0  0
   44.4650   35.7640   42.4070 C   0  0  0  0  0  0  0  0  0  0  0  0
   45.0880   32.1250   43.2740 H   0  0  0  0  0  0  0  0  0  0  0  0
   46.5790   33.8500   44.1680 H   0  0  0  0  0  0  0  0  0  0  0  0
   46.2090   36.2480   43.6300 H   0  0  0  0  0  0  0  0  0  0  0  0
   44.2650   36.7960   42.1450 H   0  0  0  0  0  0  0  0  0  0  0  0
   40.2190   35.6440   40.5770 C   0  0  0  0  0  0  0  0  0  0  0  0
   41.2440   35.4130   41.5170 C   0  0  0  0  0  0  0  0  0  0  0  0
   42.5130   35.0810   41.0540 C   0  0  0  0  0  0  0  0  0  0  0  0
   42.6780   35.0010   39.7000 N   0  0  0  0  0  0  0  0  0  0  0  0
   41.6770   35.2290   38.8150 C   0  0  0  0  0  0  0  0  0  0  0  0
   40.4590   35.5470   39.2680 N   0  0  0  0  0  0  0  0  0  0  0  0
   39.3000   35.8860   41.0690 H   0  0  0  0  0  0  0  0  0  0  0  0
   41.1490   35.4640   42.5740 H   0  0  0  0  0  0  0  0  0  0  0  0
   41.7950   35.1670   37.7550 H   0  0  0  0  0  0  0  0  0  0  0  0
   41.0300   30.9600   42.6860 S   0  0  0  0  0  0  0  0  0  0  0  0
   40.1750   32.1800   42.4310 O   0  0  0  0  0  0  0  0  0  0  0  0
   40.0570   32.5870   41.5240 H   0  0  0  0  0  0  0  0  0  0  0  0
   40.6620   30.3110   43.9660 O   0  0  0  0  0  0  0  0  0  0  0  0
   41.1700   30.2340   44.8070 H   0  0  0  0  0  0  0  0  0  0  0  0
   40.7740   29.8560   41.4420 O   0  0  0  0  0  0  0  0  0  0  0  0
   40.2090   28.7170   41.9570 C   0  0  0  0  0  0  0  0  0  0  0  0
   39.3390   28.4640   41.3160 H   0  0  0  0  0  0  0  0  0  0  0  0
   39.8370   28.7830   42.9880 H   0  0  0  0  0  0  0  0  0  0  0  0
   41.2240   27.5620   41.8570 C   0  0  0  0  0  0  0  0  0  0  0  0
   42.1710   27.9730   42.2070 H   0  0  0  0  0  0  0  0  0  0  0  0
   41.3190   27.3220   40.8020 H   0  0  0  0  0  0  0  0  0  0  0  0
   39.4210   25.4680   40.5250 Cl  0  0  0  0  0  0  0  0  0  0  0  0
   39.9380   25.4070   42.1960 C   0  0  0  0  0  0  0  0  0  0  0  0
   40.7560   26.4110   42.6670 C   0  0  0  0  0  0  0  0  0  0  0  0
   41.1800   26.3740   44.0010 C   0  0  0  0  0  0  0  0  0  0  0  0
   41.8260   27.1510   44.3890 H   0  0  0  0  0  0  0  0  0  0  0  0
   40.7980   25.3580   44.8530 C   0  0  0  0  0  3  0  0  0  0  0  0
   39.9830   24.3800   44.3450 C   0  0  0  0  0  0  0  0  0  0  0  0
   39.5070   23.0920   45.4570 Cl  0  0  0  0  0  0  0  0  0  0  0  0
   39.5330   24.3670   43.0300 C   0  0  0  0  0  0  0  0  0  0  0  0
   38.8820   23.5610   42.6630 H   0  0  0  0  0  0  0  0  0  0  0  0
  1 25  1  0  0  0  0
  1  2  1  0  0  0  0
  3  7  1  0  0  0  0
  3  1  1  0  0  0  0
  4  3  1  0  0  0  0
  5  3  1  0  0  0  0
  6  7  2  0  0  0  0
  6 11  1  0  0  0  0
  7  8  1  0  0  0  0
  8 12  1  0  0  0  0
  8  9  2  0  0  0  0
  9 13  1  0  0  0  0
 10  9  1  0  0  0  0
 10 14  1  0  0  0  0
 11 10  2  0  0  0  0
 15 11  1  0  0  0  0
 16 22  1  0  0  0  0
 16 17  1  0  0  0  0
 17 23  1  0  0  0  0
 18 17  2  0  0  0  0
 18  6  1  0  0  0  0
 19 18  1  0  0  0  0
 20 21  1  0  0  0  0
 20 19  2  0  0  0  0
 21 16  2  0  0  0  0
 24 20  1  0  0  0  0
 25 28  1  0  0  0  0
 26 25  1  0  0  0  0
 27 26  1  0  0  0  0
 28 29  1  0  0  0  0
 30 31  1  0  0  0  0
 30 25  1  0  0  0  0
 31 33  1  0  0  0  0
 32 31  1  0  0  0  0
 34 31  1  0  0  0  0
 34 35  1  0  0  0  0
 34 39  1  0  0  0  0
 36 34  1  0  0  0  0
 37 38  1  0  0  0  0
 38 39  2  0  0  0  0
 38 45  1  0  0  0  0
 39 40  1  0  0  0  0
 40 41  1  0  0  0  0
 40 42  2  0  0  0  0
 43 42  1  0  0  0  0
 43 44  1  0  0  0  0
 45 43  2  0  0  0  0
 46 45  1  0  0  0  0
M  END
>  <minimizedAffinity>
-5.22004604

>  <minimizedRMSD>
1.00970018

$$$$
