
 OpenBabel03252503083D

 28 30  0  0  1  0  0  0  0  0999 V2000
   45.2470   35.9670   43.5650 C   0  0  0  0  0  0  0  0  0  0  0  0
   45.9090   34.7450   43.2750 C   0  0  0  0  0  0  0  0  0  0  0  0
   45.8480   33.8080   44.2960 C   0  0  0  0  0  0  0  0  0  0  0  0
   45.2170   34.0440   45.4540 N   0  0  0  0  0  0  0  0  0  0  0  0
   44.5970   35.2400   45.6810 C   0  0  0  0  0  0  0  0  0  0  0  0
   44.6240   36.1890   44.7220 N   0  0  0  0  0  0  0  0  0  0  0  0
   45.2610   36.7460   42.7980 H   0  0  0  0  0  0  0  0  0  0  0  0
   44.1050   35.3740   46.6310 H   0  0  0  0  0  0  0  0  0  0  0  0
   46.4520   32.5710   44.0920 C   0  0  0  0  0  0  0  0  0  0  0  0
   47.7260   32.1050   44.0980 C   0  0  0  0  0  0  0  0  0  0  0  0
   48.0770   30.8530   43.8500 C   0  0  0  0  0  0  0  0  0  0  0  0
   47.0500   29.9910   43.5690 C   0  0  0  0  0  0  0  0  0  0  0  0
   45.5740   31.0820   43.6860 S   0  0  0  0  0  0  0  0  0  0  0  0
   48.6300   32.6400   44.3350 H   0  0  0  0  0  0  0  0  0  0  0  0
   48.9560   30.2560   43.7910 H   0  0  0  0  0  0  0  0  0  0  0  0
   46.8190   28.9830   43.3230 H   0  0  0  0  0  0  0  0  0  0  0  0
   46.5400   34.5860   42.0190 C   0  0  2  0  0  3  0  0  0  0  0  0
   47.4410   35.5230   41.8180 O   0  0  0  0  0  1  0  0  0  0  0  0
   43.9510   35.1630   40.8080 Cl  0  0  0  0  0  0  0  0  0  0  0  0
   45.0820   33.8640   40.3640 C   0  0  0  0  0  0  0  0  0  0  0  0
   46.3440   33.5810   40.9290 C   0  0  0  0  0  0  0  0  0  0  0  0
   47.0070   32.5140   40.3900 C   0  0  0  0  0  0  0  0  0  0  0  0
   47.9410   32.3730   40.9030 H   0  0  0  0  0  0  0  0  0  0  0  0
   46.5040   31.7530   39.3690 C   0  0  0  0  0  3  0  0  0  0  0  0
   45.2740   32.0360   38.8210 C   0  0  0  0  0  0  0  0  0  0  0  0
   44.7680   30.9740   37.5250 Cl  0  0  0  0  0  0  0  0  0  0  0  0
   44.5490   33.0970   39.3160 C   0  0  0  0  0  0  0  0  0  0  0  0
   43.6010   33.2410   38.8300 H   0  0  0  0  0  0  0  0  0  0  0  0
  1  6  1  0  0  0  0
  2  1  2  0  0  0  0
  2  3  1  0  0  0  0
  3  4  2  0  0  0  0
  4  5  1  0  0  0  0
  5  8  1  0  0  0  0
  6  5  2  0  0  0  0
  7  1  1  0  0  0  0
  9 10  2  0  0  0  0
  9  3  1  0  0  0  0
 10 14  1  0  0  0  0
 11 10  1  0  0  0  0
 12 13  1  0  0  0  0
 12 11  2  0  0  0  0
 13  9  1  0  0  0  0
 15 11  1  0  0  0  0
 16 12  1  0  0  0  0
 17 18  1  6  0  0  0
 17  2  1  0  0  0  0
 20 19  1  0  0  0  0
 20 21  1  0  0  0  0
 21 17  1  0  0  0  0
 22 23  1  0  0  0  0
 22 21  2  0  0  0  0
 24 22  1  0  0  0  0
 25 27  1  0  0  0  0
 25 24  2  0  0  0  0
 26 25  1  0  0  0  0
 27 20  2  0  0  0  0
 28 27  1  0  0  0  0
M  END
>  <minimizedAffinity>
-4.38986588

>  <minimizedRMSD>
1.10503685

$$$$
