
 OpenBabel03252506373D

 45 48  0  0  1  0  0  0  0  0999 V2000
   44.5220   35.3920   45.1700 C   0  0  0  0  0  0  0  0  0  0  0  0
   45.1950   35.4350   43.9430 C   0  0  0  0  0  0  0  0  0  0  0  0
   46.1480   34.5120   43.6800 C   0  0  0  0  0  0  0  0  0  0  0  0
   46.3960   33.5860   44.6390 N   0  0  0  0  0  0  0  0  0  0  0  0
   45.7570   33.5510   45.7980 C   0  0  0  0  0  0  0  0  0  0  0  0
   44.8140   34.4460   46.0830 N   0  0  0  0  0  0  0  0  0  0  0  0
   46.1030   32.5270   46.7470 N   0  0  0  0  0  0  0  0  0  0  0  0
   45.3500   32.2270   47.9130 C   0  0  0  0  0  0  0  0  0  0  0  0
   46.4200   31.8850   48.9360 C   0  0  0  0  0  0  0  0  0  0  0  0
   47.7160   31.8510   48.1900 C   0  0  0  0  0  0  0  0  0  0  0  0
   47.2540   31.6540   46.7460 C   0  0  1  0  0  0  0  0  0  0  0  0
   43.7710   36.1300   45.3600 H   0  0  0  0  0  0  0  0  0  0  0  0
   46.6820   34.5210   42.7440 H   0  0  0  0  0  0  0  0  0  0  0  0
   44.5350   31.5790   47.9630 H   0  0  0  0  0  0  0  0  0  0  0  0
   44.9610   33.2270   48.2930 H   0  0  0  0  0  0  0  0  0  0  0  0
   46.3970   32.4800   49.8440 H   0  0  0  0  0  0  0  0  0  0  0  0
   46.2250   30.8170   49.2470 H   0  0  0  0  0  0  0  0  0  0  0  0
   48.3560   31.0260   48.5410 H   0  0  0  0  0  0  0  0  0  0  0  0
   48.1830   32.8500   48.3170 H   0  0  0  0  0  0  0  0  0  0  0  0
   48.0650   31.9990   46.0640 H   0  0  0  0  0  0  0  0  0  0  0  0
   44.8260   36.4760   43.0210 N   0  0  0  0  0  0  0  0  0  0  0  0
   44.8150   37.4650   43.3250 H   0  0  0  0  0  0  0  0  0  0  0  0
   44.6000   36.0500   42.1000 H   0  0  0  0  0  0  0  0  0  0  0  0
   46.8010   29.9510   46.5120 S   0  0  0  0  0  0  0  0  0  0  0  0
   45.2240   30.5680   43.6370 O   0  0  0  0  0  0  0  0  0  0  0  0
   44.7930   29.9370   44.6160 C   0  0  0  0  0  0  0  0  0  0  0  0
   45.1560   29.6270   46.0210 C   0  0  1  0  0  0  0  0  0  0  0  0
   44.7120   28.1900   46.1450 C   0  0  0  0  0  0  0  0  0  0  0  0
   43.2770   28.3760   45.6430 C   0  0  0  0  0  0  0  0  0  0  0  0
   43.5440   29.2300   44.4920 N   0  0  0  0  0  0  0  0  0  0  0  0
   44.3250   30.1560   46.5600 H   0  0  0  0  0  0  0  0  0  0  0  0
   45.2580   27.5200   45.4500 H   0  0  0  0  0  0  0  0  0  0  0  0
   44.7290   27.8800   47.1910 H   0  0  0  0  0  0  0  0  0  0  0  0
   42.8110   27.4230   45.3890 H   0  0  0  0  0  0  0  0  0  0  0  0
   42.7040   28.9220   46.4210 H   0  0  0  0  0  0  0  0  0  0  0  0
   40.6280   29.5720   45.2740 Cl  0  0  0  0  0  0  0  0  0  0  0  0
   41.2050   29.3660   43.6350 C   0  0  0  0  0  0  0  0  0  0  0  0
   42.5440   29.2260   43.4510 C   0  0  0  0  0  0  0  0  0  0  0  0
   43.0020   29.0630   42.1610 C   0  0  0  0  0  0  0  0  0  0  0  0
   44.0750   28.9440   41.9430 H   0  0  0  0  0  0  0  0  0  0  0  0
   42.1910   29.0330   41.0300 C   0  0  0  0  0  3  0  0  0  0  0  0
   40.8160   29.1780   41.2370 C   0  0  0  0  0  0  0  0  0  0  0  0
   39.7300   29.1510   39.8640 Cl  0  0  0  0  0  0  0  0  0  0  0  0
   40.3790   29.3400   42.5310 C   0  0  0  0  0  0  0  0  0  0  0  0
   39.3000   29.4530   42.6860 H   0  0  0  0  0  0  0  0  0  0  0  0
  1 12  1  0  0  0  0
  1  6  1  0  0  0  0
  2  1  2  0  0  0  0
  3  2  1  0  0  0  0
  3  4  2  0  0  0  0
  4  5  1  0  0  0  0
  5  6  2  0  0  0  0
  5  7  1  0  0  0  0
  7  8  1  0  0  0  0
  8 14  1  0  0  0  0
  8 15  1  0  0  0  0
  8  9  1  0  0  0  0
  9 17  1  0  0  0  0
  9 16  1  0  0  0  0
 10 19  1  0  0  0  0
 10 18  1  0  0  0  0
 10  9  1  0  0  0  0
 11 20  1  6  0  0  0
 11  7  1  0  0  0  0
 11 10  1  0  0  0  0
 13  3  1  0  0  0  0
 21 22  1  0  0  0  0
 21  2  1  0  0  0  0
 23 21  1  0  0  0  0
 24 11  1  0  0  0  0
 25 26  2  0  0  0  0
 26 27  1  0  0  0  0
 27 28  1  0  0  0  0
 27 24  1  0  0  0  0
 27 31  1  1  0  0  0
 28 33  1  0  0  0  0
 29 28  1  0  0  0  0
 29 35  1  0  0  0  0
 30 26  1  0  0  0  0
 30 29  1  0  0  0  0
 32 28  1  0  0  0  0
 34 29  1  0  0  0  0
 37 36  1  0  0  0  0
 38 37  1  0  0  0  0
 38 30  1  0  0  0  0
 39 38  2  0  0  0  0
 40 39  1  0  0  0  0
 41 42  2  0  0  0  0
 41 39  1  0  0  0  0
 42 44  1  0  0  0  0
 43 42  1  0  0  0  0
 44 45  1  0  0  0  0
 44 37  2  0  0  0  0
M  END
>  <minimizedAffinity>
-5.681108

>  <minimizedRMSD>
0.602477312

$$$$
