
 OpenBabel03252503083D

 28 30  0  0  1  0  0  0  0  0999 V2000
   45.1710   36.0350   43.3760 C   0  0  0  0  0  0  0  0  0  0  0  0
   45.8300   34.8160   43.0700 C   0  0  0  0  0  0  0  0  0  0  0  0
   45.8370   33.8960   44.1090 C   0  0  0  0  0  0  0  0  0  0  0  0
   45.2680   34.1450   45.2960 N   0  0  0  0  0  0  0  0  0  0  0  0
   44.6470   35.3380   45.5360 C   0  0  0  0  0  0  0  0  0  0  0  0
   44.6100   36.2700   44.5610 N   0  0  0  0  0  0  0  0  0  0  0  0
   45.1320   36.8000   42.5960 H   0  0  0  0  0  0  0  0  0  0  0  0
   44.2070   35.4840   46.5100 H   0  0  0  0  0  0  0  0  0  0  0  0
   46.4450   32.6630   43.8930 C   0  0  0  0  0  0  0  0  0  0  0  0
   47.6980   32.1650   44.0350 C   0  0  0  0  0  0  0  0  0  0  0  0
   48.0610   30.9270   43.7390 C   0  0  0  0  0  0  0  0  0  0  0  0
   47.0690   30.1150   43.2560 C   0  0  0  0  0  0  0  0  0  0  0  0
   45.6070   31.2310   43.2580 S   0  0  0  0  0  0  0  0  0  0  0  0
   48.5700   32.6570   44.4320 H   0  0  0  0  0  0  0  0  0  0  0  0
   48.9310   30.3130   43.7540 H   0  0  0  0  0  0  0  0  0  0  0  0
   46.8580   29.1340   42.9040 H   0  0  0  0  0  0  0  0  0  0  0  0
   46.3930   34.6410   41.7840 C   0  0  2  0  0  3  0  0  0  0  0  0
   47.5440   35.2700   41.6810 O   0  0  0  0  0  1  0  0  0  0  0  0
   48.6440   33.0770   40.7930 Cl  0  0  0  0  0  0  0  0  0  0  0  0
   47.0070   33.1670   40.1020 C   0  0  0  0  0  0  0  0  0  0  0  0
   45.9040   33.9070   40.5770 C   0  0  0  0  0  0  0  0  0  0  0  0
   44.7560   33.7920   39.8450 C   0  0  0  0  0  0  0  0  0  0  0  0
   43.9880   34.4080   40.2790 H   0  0  0  0  0  0  0  0  0  0  0  0
   44.6540   33.0170   38.7200 C   0  0  0  0  0  3  0  0  0  0  0  0
   45.7340   32.2980   38.2620 C   0  0  0  0  0  0  0  0  0  0  0  0
   45.4470   31.3570   36.8140 Cl  0  0  0  0  0  0  0  0  0  0  0  0
   46.9230   32.3670   38.9510 C   0  0  0  0  0  0  0  0  0  0  0  0
   47.7100   31.7740   38.5200 H   0  0  0  0  0  0  0  0  0  0  0  0
  1  6  1  0  0  0  0
  2  1  2  0  0  0  0
  2  3  1  0  0  0  0
  3  4  2  0  0  0  0
  4  5  1  0  0  0  0
  5  8  1  0  0  0  0
  6  5  2  0  0  0  0
  7  1  1  0  0  0  0
  9 10  2  0  0  0  0
  9  3  1  0  0  0  0
 10 14  1  0  0  0  0
 11 15  1  0  0  0  0
 11 10  1  0  0  0  0
 12 13  1  0  0  0  0
 12 11  2  0  0  0  0
 13  9  1  0  0  0  0
 16 12  1  0  0  0  0
 17 18  1  6  0  0  0
 17  2  1  0  0  0  0
 20 21  1  0  0  0  0
 20 19  1  0  0  0  0
 21 17  1  0  0  0  0
 22 23  1  0  0  0  0
 22 21  2  0  0  0  0
 24 22  1  0  0  0  0
 25 24  2  0  0  0  0
 25 27  1  0  0  0  0
 26 25  1  0  0  0  0
 27 20  2  0  0  0  0
 28 27  1  0  0  0  0
M  END
>  <minimizedAffinity>
-4.50802755

>  <minimizedRMSD>
0.891664505

$$$$
