
 OpenBabel03242514263D

 29 31  0  0  0  0  0  0  0  0999 V2000
   48.7790   35.3900   41.0200 C   0  0  0  0  0  0  0  0  0  0  0  0
   48.2470   34.8170   39.8440 C   0  0  0  0  0  0  0  0  0  0  0  0
   47.1650   33.9380   39.9660 C   0  0  0  0  0  0  0  0  0  0  0  0
   46.7040   33.7020   41.2160 N   0  0  0  0  0  0  0  0  0  0  0  0
   47.2140   34.2490   42.3200 C   0  0  0  0  0  0  0  0  0  0  0  0
   48.2630   35.1030   42.2320 N   0  0  0  0  0  0  0  0  0  0  0  0
   49.6130   36.0620   40.8830 H   0  0  0  0  0  0  0  0  0  0  0  0
   48.6600   35.0500   38.8960 H   0  0  0  0  0  0  0  0  0  0  0  0
   44.9500   36.0210   43.3300 Cl  0  0  0  0  0  0  0  0  0  0  0  0
   45.6630   34.6930   44.2000 C   0  0  0  0  0  0  0  0  0  0  0  0
   46.6850   33.9620   43.6370 C   0  0  0  0  0  0  0  0  0  0  0  0
   47.1720   32.9290   44.4260 C   0  0  0  0  0  0  0  0  0  0  0  0
   46.7100   32.6110   45.6840 C   0  0  0  0  0  0  0  0  0  0  0  0
   45.6910   33.3720   46.1980 C   0  0  0  0  0  0  0  0  0  0  0  0
   45.1520   32.9130   47.8050 Cl  0  0  0  0  0  0  0  0  0  0  0  0
   45.1650   34.4070   45.4680 C   0  0  0  0  0  0  0  0  0  0  0  0
   47.9810   32.3400   43.9940 H   0  0  0  0  0  0  0  0  0  0  0  0
   47.1840   31.7770   46.1880 H   0  0  0  0  0  0  0  0  0  0  0  0
   44.3630   34.9750   45.9220 H   0  0  0  0  0  0  0  0  0  0  0  0
   48.5090   34.5690   37.4290 Cl  0  0  0  0  0  0  0  0  0  0  0  0
   47.1040   33.5300   37.5660 C   0  0  0  0  0  0  0  0  0  0  0  0
   46.5530   33.3030   38.8080 C   0  0  0  0  0  0  0  0  0  0  0  0
   45.4630   32.4860   38.8510 C   0  0  0  0  0  0  0  0  0  0  0  0
   44.9960   32.2770   39.7990 H   0  0  0  0  0  0  0  0  0  0  0  0
   44.9420   31.9190   37.7010 C   0  0  0  0  0  0  0  0  0  0  0  0
   45.4800   32.1370   36.4610 C   0  0  0  0  0  0  0  0  0  0  0  0
   44.7830   31.3970   35.0410 Cl  0  0  0  0  0  0  0  0  0  0  0  0
   46.5800   32.9610   36.4250 C   0  0  0  0  0  0  0  0  0  0  0  0
   47.0540   33.1730   35.4540 H   0  0  0  0  0  0  0  0  0  0  0  0
  1  6  1  0  0  0  0
  2  3  1  0  0  0  0
  2  1  2  0  0  0  0
  3  4  2  0  0  0  0
  4  5  1  0  0  0  0
  5 11  1  0  0  0  0
  6  5  2  0  0  0  0
  7  1  1  0  0  0  0
  8  2  1  0  0  0  0
  9 10  1  0  0  0  0
 10 16  1  0  0  0  0
 11 10  2  0  0  0  0
 11 12  1  0  0  0  0
 12 13  2  0  0  0  0
 13 18  1  0  0  0  0
 13 14  1  0  0  0  0
 14 15  1  0  0  0  0
 16 19  1  0  0  0  0
 16 14  2  0  0  0  0
 17 12  1  0  0  0  0
 20 21  1  0  0  0  0
 21 22  1  0  0  0  0
 22 23  2  0  0  0  0
 22  3  1  0  0  0  0
 23 24  1  0  0  0  0
 25 23  1  0  0  0  0
 26 25  2  0  0  0  0
 27 26  1  0  0  0  0
 28 26  1  0  0  0  0
 28 21  2  0  0  0  0
 29 28  1  0  0  0  0
M  END
>  <minimizedAffinity>
-6.13240242

>  <minimizedRMSD>
0.224463016

$$$$
