
 OpenBabel03242514583D

 26 27  0  0  0  0  0  0  0  0999 V2000
   35.9270   29.8430   40.3780 C   0  0  0  0  0  0  0  0  0  0  0  0
   35.9470   28.7370   40.2890 H   0  0  0  0  0  0  0  0  0  0  0  0
   34.8580   30.1340   40.4050 H   0  0  0  0  0  0  0  0  0  0  0  0
   36.6540   30.1960   41.6480 C   0  0  0  0  0  0  0  0  0  0  0  0
   35.9870   30.5590   42.4560 H   0  0  0  0  0  0  0  0  0  0  0  0
   37.3580   31.0500   41.4740 H   0  0  0  0  0  0  0  0  0  0  0  0
   39.4950   30.7500   42.6260 Cl  0  0  0  0  0  0  0  0  0  0  0  0
   38.7480   29.1880   42.6230 C   0  0  0  0  0  0  0  0  0  0  0  0
   37.4370   29.0430   42.1520 C   0  0  0  0  0  0  0  0  0  0  0  0
   36.9240   27.7640   42.1860 C   0  0  0  0  0  0  0  0  0  0  0  0
   35.8960   27.6470   41.8150 H   0  0  0  0  0  0  0  0  0  0  0  0
   37.5410   26.6140   42.6250 C   0  0  0  0  0  3  0  0  0  0  0  0
   38.8440   26.7950   43.0880 C   0  0  0  0  0  0  0  0  0  0  0  0
   39.7420   25.3900   43.6790 Cl  0  0  0  0  0  0  0  0  0  0  0  0
   39.4260   28.0570   43.0830 C   0  0  0  0  0  0  0  0  0  0  0  0
   40.4370   28.2030   43.4410 H   0  0  0  0  0  0  0  0  0  0  0  0
   36.6850   30.5210   38.9040 S   0  0  0  0  0  0  0  0  0  0  0  0
   37.8710   31.8220   39.2720 C   0  0  0  0  0  0  0  0  0  0  0  0
   37.3120   33.0520   39.6700 C   0  0  0  0  0  0  0  0  0  0  0  0
   38.2070   34.0900   39.9650 C   0  0  0  0  0  0  0  0  0  0  0  0
   39.5320   33.8570   39.8530 N   0  0  0  0  0  0  0  0  0  0  0  0
   40.0500   32.6670   39.4690 C   0  0  0  0  0  0  0  0  0  0  0  0
   39.2010   31.6670   39.1850 N   0  0  0  0  0  0  0  0  0  0  0  0
   36.2460   33.1860   39.7450 H   0  0  0  0  0  0  0  0  0  0  0  0
   37.7490   35.0200   40.2670 H   0  0  0  0  0  0  0  0  0  0  0  0
   41.1120   32.5710   39.4070 H   0  0  0  0  0  0  0  0  0  0  0  0
  1  3  1  0  0  0  0
  1  4  1  0  0  0  0
  2  1  1  0  0  0  0
  4  9  1  0  0  0  0
  4  5  1  0  0  0  0
  6  4  1  0  0  0  0
  8  7  1  0  0  0  0
  8 15  1  0  0  0  0
  9 10  1  0  0  0  0
  9  8  2  0  0  0  0
 10 12  2  0  0  0  0
 11 10  1  0  0  0  0
 12 13  1  0  0  0  0
 13 14  1  0  0  0  0
 15 13  2  0  0  0  0
 15 16  1  0  0  0  0
 17 18  1  0  0  0  0
 17  1  1  0  0  0  0
 18 19  1  0  0  0  0
 19 24  1  0  0  0  0
 19 20  2  0  0  0  0
 20 25  1  0  0  0  0
 21 20  1  0  0  0  0
 22 21  2  0  0  0  0
 23 18  2  0  0  0  0
 23 22  1  0  0  0  0
 26 22  1  0  0  0  0
M  END
>  <minimizedAffinity>
-4.73023653

$$$$

 OpenBabel03242514583D

 26 27  0  0  0  0  0  0  0  0999 V2000
   38.3710   28.5370   42.3930 C   0  0  0  0  0  0  0  0  0  0  0  0
   39.0580   29.1310   43.0310 H   0  0  0  0  0  0  0  0  0  0  0  0
   38.9750   28.1660   41.5430 H   0  0  0  0  0  0  0  0  0  0  0  0
   37.8310   27.4210   43.2470 C   0  0  0  0  0  0  0  0  0  0  0  0
   36.7820   27.5750   43.5690 H   0  0  0  0  0  0  0  0  0  0  0  0
   38.4020   27.3500   44.2090 H   0  0  0  0  0  0  0  0  0  0  0  0
   40.3810   25.7940   43.6800 Cl  0  0  0  0  0  0  0  0  0  0  0  0
   39.0600   25.2950   42.6780 C   0  0  0  0  0  0  0  0  0  0  0  0
   37.9340   26.1190   42.5470 C   0  0  0  0  0  0  0  0  0  0  0  0
   36.9330   25.6410   41.7300 C   0  0  0  0  0  0  0  0  0  0  0  0
   36.0490   26.2860   41.6240 H   0  0  0  0  0  0  0  0  0  0  0  0
   36.9030   24.4580   41.0270 C   0  0  0  0  0  3  0  0  0  0  0  0
   38.0380   23.6630   41.1800 C   0  0  0  0  0  0  0  0  0  0  0  0
   38.1190   22.1170   40.3260 Cl  0  0  0  0  0  0  0  0  0  0  0  0
   39.0890   24.0810   41.9900 C   0  0  0  0  0  0  0  0  0  0  0  0
   39.9720   23.4680   42.1110 H   0  0  0  0  0  0  0  0  0  0  0  0
   37.1060   29.6460   41.7780 S   0  0  0  0  0  0  0  0  0  0  0  0
   37.7920   31.1430   41.0540 C   0  0  0  0  0  0  0  0  0  0  0  0
   36.9520   31.8090   40.1400 C   0  0  0  0  0  0  0  0  0  0  0  0
   37.4540   32.9800   39.5550 C   0  0  0  0  0  0  0  0  0  0  0  0
   38.6920   33.3980   39.8940 N   0  0  0  0  0  0  0  0  0  0  0  0
   39.4840   32.7430   40.7750 C   0  0  0  0  0  0  0  0  0  0  0  0
   39.0130   31.6210   41.3410 N   0  0  0  0  0  0  0  0  0  0  0  0
   35.9700   31.4350   39.9030 H   0  0  0  0  0  0  0  0  0  0  0  0
   36.7880   33.4690   38.8590 H   0  0  0  0  0  0  0  0  0  0  0  0
   40.4510   33.1450   40.9850 H   0  0  0  0  0  0  0  0  0  0  0  0
  1  2  1  0  0  0  0
  1  4  1  0  0  0  0
  3  1  1  0  0  0  0
  4  5  1  0  0  0  0
  4  6  1  0  0  0  0
  8  7  1  0  0  0  0
  9  8  1  0  0  0  0
  9  4  1  0  0  0  0
 10  9  2  0  0  0  0
 11 10  1  0  0  0  0
 12 13  2  0  0  0  0
 12 10  1  0  0  0  0
 13 15  1  0  0  0  0
 14 13  1  0  0  0  0
 15 16  1  0  0  0  0
 15  8  2  0  0  0  0
 17  1  1  0  0  0  0
 18 23  1  0  0  0  0
 18 17  1  0  0  0  0
 19 18  2  0  0  0  0
 20 21  2  0  0  0  0
 20 19  1  0  0  0  0
 21 22  1  0  0  0  0
 22 26  1  0  0  0  0
 22 23  2  0  0  0  0
 24 19  1  0  0  0  0
 25 20  1  0  0  0  0
M  END
>  <minimizedAffinity>
-4.64031506

$$$$

 OpenBabel03242514583D

 26 27  0  0  0  0  0  0  0  0999 V2000
   35.9960   30.0190   40.1970 C   0  0  0  0  0  0  0  0  0  0  0  0
   36.0310   28.9160   40.0810 H   0  0  0  0  0  0  0  0  0  0  0  0
   34.9260   30.3040   40.1490 H   0  0  0  0  0  0  0  0  0  0  0  0
   36.6200   30.3440   41.5270 C   0  0  0  0  0  0  0  0  0  0  0  0
   35.8880   30.6620   42.2960 H   0  0  0  0  0  0  0  0  0  0  0  0
   37.3130   31.2190   41.4350 H   0  0  0  0  0  0  0  0  0  0  0  0
   39.4700   30.8860   42.4880 Cl  0  0  0  0  0  0  0  0  0  0  0  0
   38.7080   29.3310   42.5120 C   0  0  0  0  0  0  0  0  0  0  0  0
   37.3930   29.1910   42.0470 C   0  0  0  0  0  0  0  0  0  0  0  0
   36.8690   27.9180   42.1040 C   0  0  0  0  0  0  0  0  0  0  0  0
   35.8380   27.8040   41.7380 H   0  0  0  0  0  0  0  0  0  0  0  0
   37.4760   26.7700   42.5600 C   0  0  0  0  0  3  0  0  0  0  0  0
   38.7820   26.9450   43.0160 C   0  0  0  0  0  0  0  0  0  0  0  0
   39.6680   25.5420   43.6270 Cl  0  0  0  0  0  0  0  0  0  0  0  0
   39.3760   28.2020   42.9890 C   0  0  0  0  0  0  0  0  0  0  0  0
   40.3890   28.3430   43.3410 H   0  0  0  0  0  0  0  0  0  0  0  0
   36.8590   30.7400   38.8030 S   0  0  0  0  0  0  0  0  0  0  0  0
   37.9820   32.0570   39.2920 C   0  0  0  0  0  0  0  0  0  0  0  0
   39.3450   31.8150   39.0310 C   0  0  0  0  0  0  0  0  0  0  0  0
   40.2500   32.8200   39.3990 C   0  0  0  0  0  0  0  0  0  0  0  0
   39.7740   33.9460   39.9730 N   0  0  0  0  0  0  0  0  0  0  0  0
   38.4590   34.1600   40.2160 C   0  0  0  0  0  0  0  0  0  0  0  0
   37.5850   33.2030   39.8670 N   0  0  0  0  0  0  0  0  0  0  0  0
   39.6740   30.8990   38.5690 H   0  0  0  0  0  0  0  0  0  0  0  0
   41.2870   32.6070   39.1870 H   0  0  0  0  0  0  0  0  0  0  0  0
   38.1710   35.0800   40.6750 H   0  0  0  0  0  0  0  0  0  0  0  0
  1  4  1  0  0  0  0
  2  1  1  0  0  0  0
  3  1  1  0  0  0  0
  4  9  1  0  0  0  0
  4  5  1  0  0  0  0
  6  4  1  0  0  0  0
  7  8  1  0  0  0  0
  8 15  1  0  0  0  0
  9 10  1  0  0  0  0
  9  8  2  0  0  0  0
 10 12  2  0  0  0  0
 11 10  1  0  0  0  0
 12 13  1  0  0  0  0
 13 14  1  0  0  0  0
 15 13  2  0  0  0  0
 15 16  1  0  0  0  0
 17 18  1  0  0  0  0
 17  1  1  0  0  0  0
 18 23  1  0  0  0  0
 19 18  2  0  0  0  0
 19 20  1  0  0  0  0
 20 21  2  0  0  0  0
 21 22  1  0  0  0  0
 22 26  1  0  0  0  0
 23 22  2  0  0  0  0
 24 19  1  0  0  0  0
 25 20  1  0  0  0  0
M  END
>  <minimizedAffinity>
-4.63516808

$$$$

 OpenBabel03242514583D

 26 27  0  0  0  0  0  0  0  0999 V2000
   36.8150   28.5380   41.0000 C   0  0  0  0  0  0  0  0  0  0  0  0
   37.8650   28.5960   40.6450 H   0  0  0  0  0  0  0  0  0  0  0  0
   36.2880   27.8530   40.3080 H   0  0  0  0  0  0  0  0  0  0  0  0
   36.8550   28.0140   42.4110 C   0  0  0  0  0  0  0  0  0  0  0  0
   36.0320   27.3100   42.6470 H   0  0  0  0  0  0  0  0  0  0  0  0
   36.7170   28.8480   43.1460 H   0  0  0  0  0  0  0  0  0  0  0  0
   36.9700   24.9730   42.1260 Cl  0  0  0  0  0  0  0  0  0  0  0  0
   38.3110   25.9630   42.5960 C   0  0  0  0  0  0  0  0  0  0  0  0
   38.1510   27.3520   42.6960 C   0  0  0  0  0  0  0  0  0  0  0  0
   39.2700   28.0590   43.0760 C   0  0  0  0  0  0  0  0  0  0  0  0
   39.1480   29.1490   43.1580 H   0  0  0  0  0  0  0  0  0  0  0  0
   40.5240   27.5710   43.3690 C   0  0  0  0  0  3  0  0  0  0  0  0
   40.6480   26.1870   43.2580 C   0  0  0  0  0  0  0  0  0  0  0  0
   42.2120   25.4400   43.6090 Cl  0  0  0  0  0  0  0  0  0  0  0  0
   39.5600   25.4090   42.8790 C   0  0  0  0  0  0  0  0  0  0  0  0
   39.6510   24.3340   42.7920 H   0  0  0  0  0  0  0  0  0  0  0  0
   36.1040   30.1760   40.8630 S   0  0  0  0  0  0  0  0  0  0  0  0
   37.3520   31.4580   40.6710 C   0  0  0  0  0  0  0  0  0  0  0  0
   38.6080   31.1650   41.2360 C   0  0  0  0  0  0  0  0  0  0  0  0
   39.6050   32.1410   41.1060 C   0  0  0  0  0  0  0  0  0  0  0  0
   39.3110   33.2880   40.4580 N   0  0  0  0  0  0  0  0  0  0  0  0
   38.0970   33.5510   39.9210 C   0  0  0  0  0  0  0  0  0  0  0  0
   37.1350   32.6220   40.0400 N   0  0  0  0  0  0  0  0  0  0  0  0
   38.7930   30.2320   41.7430 H   0  0  0  0  0  0  0  0  0  0  0  0
   40.5580   31.8890   41.5490 H   0  0  0  0  0  0  0  0  0  0  0  0
   37.9520   34.4860   39.4260 H   0  0  0  0  0  0  0  0  0  0  0  0
  1  4  1  0  0  0  0
  2  1  1  0  0  0  0
  3  1  1  0  0  0  0
  4  5  1  0  0  0  0
  4  9  1  0  0  0  0
  4  6  1  0  0  0  0
  7  8  1  0  0  0  0
  8  9  2  0  0  0  0
  8 15  1  0  0  0  0
  9 10  1  0  0  0  0
 10 11  1  0  0  0  0
 10 12  2  0  0  0  0
 13 12  1  0  0  0  0
 13 14  1  0  0  0  0
 15 13  2  0  0  0  0
 16 15  1  0  0  0  0
 17  1  1  0  0  0  0
 18 17  1  0  0  0  0
 18 19  1  0  0  0  0
 19 24  1  0  0  0  0
 20 19  2  0  0  0  0
 20 25  1  0  0  0  0
 21 20  1  0  0  0  0
 22 23  1  0  0  0  0
 22 21  2  0  0  0  0
 23 18  2  0  0  0  0
 26 22  1  0  0  0  0
M  END
>  <minimizedAffinity>
-4.58426332

$$$$

 OpenBabel03242514583D

 26 27  0  0  0  0  0  0  0  0999 V2000
   38.9660   31.3760   40.6330 C   0  0  0  0  0  0  0  0  0  0  0  0
   39.1140   30.6290   39.8260 H   0  0  0  0  0  0  0  0  0  0  0  0
   39.7170   32.1730   40.4630 H   0  0  0  0  0  0  0  0  0  0  0  0
   37.5530   31.8810   40.5150 C   0  0  0  0  0  0  0  0  0  0  0  0
   37.4740   32.8710   40.0220 H   0  0  0  0  0  0  0  0  0  0  0  0
   37.1070   32.0470   41.5290 H   0  0  0  0  0  0  0  0  0  0  0  0
   37.9000   31.7120   37.4830 Cl  0  0  0  0  0  0  0  0  0  0  0  0
   36.7810   30.7550   38.3950 C   0  0  0  0  0  0  0  0  0  0  0  0
   36.7010   30.9110   39.7850 C   0  0  0  0  0  0  0  0  0  0  0  0
   35.7830   30.1090   40.4270 C   0  0  0  0  0  0  0  0  0  0  0  0
   35.7170   30.2310   41.5180 H   0  0  0  0  0  0  0  0  0  0  0  0
   34.9370   29.1760   39.8720 C   0  0  0  0  0  3  0  0  0  0  0  0
   35.0440   29.0450   38.4880 C   0  0  0  0  0  0  0  0  0  0  0  0
   34.0070   27.8770   37.6590 Cl  0  0  0  0  0  0  0  0  0  0  0  0
   35.9490   29.8230   37.7740 C   0  0  0  0  0  0  0  0  0  0  0  0
   36.0350   29.7250   36.7000 H   0  0  0  0  0  0  0  0  0  0  0  0
   39.3110   30.5650   42.1920 S   0  0  0  0  0  0  0  0  0  0  0  0
   38.4510   28.9940   42.3600 C   0  0  0  0  0  0  0  0  0  0  0  0
   37.6560   28.8630   43.5150 C   0  0  0  0  0  0  0  0  0  0  0  0
   36.9710   27.6510   43.6800 C   0  0  0  0  0  0  0  0  0  0  0  0
   37.1080   26.6940   42.7380 N   0  0  0  0  0  0  0  0  0  0  0  0
   37.8770   26.8390   41.6330 C   0  0  0  0  0  0  0  0  0  0  0  0
   38.5370   27.9960   41.4670 N   0  0  0  0  0  0  0  0  0  0  0  0
   37.5790   29.6590   44.2380 H   0  0  0  0  0  0  0  0  0  0  0  0
   36.3700   27.5790   44.5740 H   0  0  0  0  0  0  0  0  0  0  0  0
   37.9280   26.0290   40.9390 H   0  0  0  0  0  0  0  0  0  0  0  0
  1 17  1  0  0  0  0
  2  1  1  0  0  0  0
  3  1  1  0  0  0  0
  4  1  1  0  0  0  0
  4  6  1  0  0  0  0
  5  4  1  0  0  0  0
  7  8  1  0  0  0  0
  8  9  1  0  0  0  0
  9 10  2  0  0  0  0
  9  4  1  0  0  0  0
 10 11  1  0  0  0  0
 12 10  1  0  0  0  0
 13 12  2  0  0  0  0
 14 13  1  0  0  0  0
 15  8  2  0  0  0  0
 15 13  1  0  0  0  0
 16 15  1  0  0  0  0
 17 18  1  0  0  0  0
 18 19  1  0  0  0  0
 19 20  2  0  0  0  0
 19 24  1  0  0  0  0
 20 25  1  0  0  0  0
 21 20  1  0  0  0  0
 22 21  2  0  0  0  0
 23 22  1  0  0  0  0
 23 18  2  0  0  0  0
 26 22  1  0  0  0  0
M  END
>  <minimizedAffinity>
-4.57541656

$$$$

 OpenBabel03242514583D

 26 27  0  0  0  0  0  0  0  0999 V2000
   40.6100   30.4360   42.3880 C   0  0  0  0  0  0  0  0  0  0  0  0
   41.2250   30.7770   43.2460 H   0  0  0  0  0  0  0  0  0  0  0  0
   40.9710   29.4210   42.1280 H   0  0  0  0  0  0  0  0  0  0  0  0
   39.1760   30.4390   42.8430 C   0  0  0  0  0  0  0  0  0  0  0  0
   38.5440   31.1830   42.3200 H   0  0  0  0  0  0  0  0  0  0  0  0
   39.1050   30.7350   43.9220 H   0  0  0  0  0  0  0  0  0  0  0  0
   36.4560   30.2840   41.4590 Cl  0  0  0  0  0  0  0  0  0  0  0  0
   37.3220   28.9150   42.0690 C   0  0  0  0  0  0  0  0  0  0  0  0
   38.5660   29.0960   42.6890 C   0  0  0  0  0  0  0  0  0  0  0  0
   39.1820   27.9510   43.1440 C   0  0  0  0  0  0  0  0  0  0  0  0
   40.1570   28.0900   43.6320 H   0  0  0  0  0  0  0  0  0  0  0  0
   38.7280   26.6540   43.0650 C   0  0  0  0  0  3  0  0  0  0  0  0
   37.4890   26.5100   42.4420 C   0  0  0  0  0  0  0  0  0  0  0  0
   36.7980   24.8900   42.2800 Cl  0  0  0  0  0  0  0  0  0  0  0  0
   36.8090   27.6220   41.9580 C   0  0  0  0  0  0  0  0  0  0  0  0
   35.8470   27.5160   41.4740 H   0  0  0  0  0  0  0  0  0  0  0  0
   40.9300   31.5430   41.0170 S   0  0  0  0  0  0  0  0  0  0  0  0
   39.4300   32.0110   40.1410 C   0  0  0  0  0  0  0  0  0  0  0  0
   39.0640   31.1620   39.0780 C   0  0  0  0  0  0  0  0  0  0  0  0
   37.9000   31.4950   38.3720 C   0  0  0  0  0  0  0  0  0  0  0  0
   37.2070   32.5920   38.7430 N   0  0  0  0  0  0  0  0  0  0  0  0
   37.5750   33.3960   39.7670 C   0  0  0  0  0  0  0  0  0  0  0  0
   38.6880   33.0850   40.4500 N   0  0  0  0  0  0  0  0  0  0  0  0
   39.6520   30.2960   38.8230 H   0  0  0  0  0  0  0  0  0  0  0  0
   37.6450   30.8260   37.5630 H   0  0  0  0  0  0  0  0  0  0  0  0
   36.9660   34.2450   39.9920 H   0  0  0  0  0  0  0  0  0  0  0  0
  1  4  1  0  0  0  0
  1  2  1  0  0  0  0
  3  1  1  0  0  0  0
  4  6  1  0  0  0  0
  5  4  1  0  0  0  0
  7  8  1  0  0  0  0
  8  9  1  0  0  0  0
  9  4  1  0  0  0  0
  9 10  2  0  0  0  0
 10 11  1  0  0  0  0
 12 10  1  0  0  0  0
 13 12  2  0  0  0  0
 14 13  1  0  0  0  0
 15  8  2  0  0  0  0
 15 13  1  0  0  0  0
 16 15  1  0  0  0  0
 17  1  1  0  0  0  0
 18 23  1  0  0  0  0
 18 17  1  0  0  0  0
 19 18  2  0  0  0  0
 20 21  2  0  0  0  0
 20 19  1  0  0  0  0
 21 22  1  0  0  0  0
 22 26  1  0  0  0  0
 22 23  2  0  0  0  0
 24 19  1  0  0  0  0
 25 20  1  0  0  0  0
M  END
>  <minimizedAffinity>
-4.55134153

$$$$

 OpenBabel03242514583D

 26 27  0  0  0  0  0  0  0  0999 V2000
   37.7550   28.9510   42.4810 C   0  0  0  0  0  0  0  0  0  0  0  0
   37.4020   29.8040   43.0960 H   0  0  0  0  0  0  0  0  0  0  0  0
   38.2790   28.2620   43.1720 H   0  0  0  0  0  0  0  0  0  0  0  0
   36.5380   28.3240   41.8560 C   0  0  0  0  0  0  0  0  0  0  0  0
   36.1550   28.8780   40.9760 H   0  0  0  0  0  0  0  0  0  0  0  0
   35.6780   28.3300   42.5740 H   0  0  0  0  0  0  0  0  0  0  0  0
   36.3450   27.6410   38.8830 Cl  0  0  0  0  0  0  0  0  0  0  0  0
   36.7430   26.5020   40.1250 C   0  0  0  0  0  0  0  0  0  0  0  0
   36.8050   26.9200   41.4620 C   0  0  0  0  0  0  0  0  0  0  0  0
   37.1280   25.9460   42.3810 C   0  0  0  0  0  0  0  0  0  0  0  0
   37.1750   26.2710   43.4300 H   0  0  0  0  0  0  0  0  0  0  0  0
   37.3960   24.6160   42.1490 C   0  0  0  0  0  3  0  0  0  0  0  0
   37.3270   24.2340   40.8100 C   0  0  0  0  0  0  0  0  0  0  0  0
   37.6520   22.5490   40.3850 Cl  0  0  0  0  0  0  0  0  0  0  0  0
   37.0070   25.1640   39.8270 C   0  0  0  0  0  0  0  0  0  0  0  0
   36.9510   24.8730   38.7870 H   0  0  0  0  0  0  0  0  0  0  0  0
   38.9270   29.5890   41.2870 S   0  0  0  0  0  0  0  0  0  0  0  0
   38.5200   31.2540   40.7400 C   0  0  0  0  0  0  0  0  0  0  0  0
   37.4820   31.3390   39.7920 C   0  0  0  0  0  0  0  0  0  0  0  0
   37.1380   32.6210   39.3420 C   0  0  0  0  0  0  0  0  0  0  0  0
   37.8080   33.6850   39.8340 N   0  0  0  0  0  0  0  0  0  0  0  0
   38.8030   33.5820   40.7460 C   0  0  0  0  0  0  0  0  0  0  0  0
   39.1410   32.3590   41.1830 N   0  0  0  0  0  0  0  0  0  0  0  0
   36.9770   30.4590   39.4310 H   0  0  0  0  0  0  0  0  0  0  0  0
   36.3390   32.6560   38.6160 H   0  0  0  0  0  0  0  0  0  0  0  0
   39.2800   34.4770   41.0800 H   0  0  0  0  0  0  0  0  0  0  0  0
  1  2  1  0  0  0  0
  1  3  1  0  0  0  0
  4  1  1  0  0  0  0
  4  6  1  0  0  0  0
  5  4  1  0  0  0  0
  7  8  1  0  0  0  0
  8  9  1  0  0  0  0
  9  4  1  0  0  0  0
  9 10  2  0  0  0  0
 10 11  1  0  0  0  0
 12 10  1  0  0  0  0
 13 12  2  0  0  0  0
 14 13  1  0  0  0  0
 15  8  2  0  0  0  0
 15 13  1  0  0  0  0
 16 15  1  0  0  0  0
 17  1  1  0  0  0  0
 18 23  1  0  0  0  0
 18 17  1  0  0  0  0
 19 18  2  0  0  0  0
 20 19  1  0  0  0  0
 20 21  2  0  0  0  0
 21 22  1  0  0  0  0
 22 26  1  0  0  0  0
 22 23  2  0  0  0  0
 24 19  1  0  0  0  0
 25 20  1  0  0  0  0
M  END
>  <minimizedAffinity>
-4.46802044

$$$$

 OpenBabel03242514583D

 26 27  0  0  0  0  0  0  0  0999 V2000
   36.3570   29.8420   39.8780 C   0  0  0  0  0  0  0  0  0  0  0  0
   37.3320   29.3970   39.5880 H   0  0  0  0  0  0  0  0  0  0  0  0
   35.7760   29.9580   38.9420 H   0  0  0  0  0  0  0  0  0  0  0  0
   35.7080   28.8890   40.8460 C   0  0  0  0  0  0  0  0  0  0  0  0
   34.9380   28.2400   40.3830 H   0  0  0  0  0  0  0  0  0  0  0  0
   35.1470   29.4520   41.6370 H   0  0  0  0  0  0  0  0  0  0  0  0
   36.4780   26.2810   39.4530 Cl  0  0  0  0  0  0  0  0  0  0  0  0
   37.1430   26.8190   40.9580 C   0  0  0  0  0  0  0  0  0  0  0  0
   36.7200   28.0350   41.5120 C   0  0  0  0  0  0  0  0  0  0  0  0
   37.3030   28.3830   42.7110 C   0  0  0  0  0  0  0  0  0  0  0  0
   36.9720   29.3350   43.1490 H   0  0  0  0  0  0  0  0  0  0  0  0
   38.2470   27.6860   43.4300 C   0  0  0  0  0  3  0  0  0  0  0  0
   38.6460   26.4820   42.8500 C   0  0  0  0  0  0  0  0  0  0  0  0
   39.8560   25.4940   43.6790 Cl  0  0  0  0  0  0  0  0  0  0  0  0
   38.1000   26.0670   41.6400 C   0  0  0  0  0  0  0  0  0  0  0  0
   38.4060   25.1340   41.1860 H   0  0  0  0  0  0  0  0  0  0  0  0
   36.6830   31.4600   40.5730 S   0  0  0  0  0  0  0  0  0  0  0  0
   38.4210   31.9150   40.4800 C   0  0  0  0  0  0  0  0  0  0  0  0
   39.2460   31.3490   41.4730 C   0  0  0  0  0  0  0  0  0  0  0  0
   40.6060   31.6820   41.4320 C   0  0  0  0  0  0  0  0  0  0  0  0
   41.0440   32.5110   40.4610 N   0  0  0  0  0  0  0  0  0  0  0  0
   40.2360   33.0450   39.5150 C   0  0  0  0  0  0  0  0  0  0  0  0
   38.9310   32.7320   39.5450 N   0  0  0  0  0  0  0  0  0  0  0  0
   38.8460   30.6910   42.2260 H   0  0  0  0  0  0  0  0  0  0  0  0
   41.2130   31.2340   42.2050 H   0  0  0  0  0  0  0  0  0  0  0  0
   40.6680   33.6920   38.7840 H   0  0  0  0  0  0  0  0  0  0  0  0
  1 17  1  0  0  0  0
  1  4  1  0  0  0  0
  2  1  1  0  0  0  0
  3  1  1  0  0  0  0
  4  9  1  0  0  0  0
  4  6  1  0  0  0  0
  5  4  1  0  0  0  0
  7  8  1  0  0  0  0
  8  9  2  0  0  0  0
  8 15  1  0  0  0  0
  9 10  1  0  0  0  0
 10 11  1  0  0  0  0
 10 12  2  0  0  0  0
 13 12  1  0  0  0  0
 13 14  1  0  0  0  0
 15 13  2  0  0  0  0
 16 15  1  0  0  0  0
 18 17  1  0  0  0  0
 18 19  1  0  0  0  0
 19 24  1  0  0  0  0
 20 19  2  0  0  0  0
 20 25  1  0  0  0  0
 21 20  1  0  0  0  0
 22 23  1  0  0  0  0
 22 21  2  0  0  0  0
 23 18  2  0  0  0  0
 26 22  1  0  0  0  0
M  END
>  <minimizedAffinity>
-4.36209822

$$$$

 OpenBabel03242514583D

 26 27  0  0  0  0  0  0  0  0999 V2000
   37.4870   29.2830   42.6510 C   0  0  0  0  0  0  0  0  0  0  0  0
   36.6960   30.0090   42.3720 H   0  0  0  0  0  0  0  0  0  0  0  0
   37.5430   29.2910   43.7570 H   0  0  0  0  0  0  0  0  0  0  0  0
   37.0690   27.9440   42.1060 C   0  0  0  0  0  0  0  0  0  0  0  0
   36.4610   27.3450   42.8130 H   0  0  0  0  0  0  0  0  0  0  0  0
   37.9650   27.3010   41.9070 H   0  0  0  0  0  0  0  0  0  0  0  0
   37.8860   26.1570   39.7650 Cl  0  0  0  0  0  0  0  0  0  0  0  0
   36.6120   27.3270   39.7040 C   0  0  0  0  0  0  0  0  0  0  0  0
   36.3170   28.0980   40.8370 C   0  0  0  0  0  0  0  0  0  0  0  0
   35.2880   29.0030   40.6960 C   0  0  0  0  0  0  0  0  0  0  0  0
   35.0560   29.6110   41.5830 H   0  0  0  0  0  0  0  0  0  0  0  0
   34.5160   29.2440   39.5820 C   0  0  0  0  0  3  0  0  0  0  0  0
   34.8360   28.4610   38.4740 C   0  0  0  0  0  0  0  0  0  0  0  0
   33.9140   28.6780   36.9800 Cl  0  0  0  0  0  0  0  0  0  0  0  0
   35.8620   27.5250   38.5430 C   0  0  0  0  0  0  0  0  0  0  0  0
   36.1140   26.9150   37.6860 H   0  0  0  0  0  0  0  0  0  0  0  0
   39.0360   29.8800   41.9790 S   0  0  0  0  0  0  0  0  0  0  0  0
   38.8660   31.4730   41.1600 C   0  0  0  0  0  0  0  0  0  0  0  0
   37.6110   31.7150   40.5690 C   0  0  0  0  0  0  0  0  0  0  0  0
   37.4420   32.9460   39.9210 C   0  0  0  0  0  0  0  0  0  0  0  0
   38.4740   33.8170   39.9000 N   0  0  0  0  0  0  0  0  0  0  0  0
   39.6730   33.5650   40.4750 C   0  0  0  0  0  0  0  0  0  0  0  0
   39.8450   32.3890   41.0980 N   0  0  0  0  0  0  0  0  0  0  0  0
   36.8180   30.9870   40.6150 H   0  0  0  0  0  0  0  0  0  0  0  0
   36.4700   33.1040   39.4770 H   0  0  0  0  0  0  0  0  0  0  0  0
   40.4350   34.3120   40.4100 H   0  0  0  0  0  0  0  0  0  0  0  0
  1  3  1  0  0  0  0
  2  1  1  0  0  0  0
  4  1  1  0  0  0  0
  4  5  1  0  0  0  0
  6  4  1  0  0  0  0
  8  7  1  0  0  0  0
  8  9  1  0  0  0  0
  9  4  1  0  0  0  0
 10  9  2  0  0  0  0
 10 11  1  0  0  0  0
 12 10  1  0  0  0  0
 13 15  1  0  0  0  0
 13 12  2  0  0  0  0
 14 13  1  0  0  0  0
 15  8  2  0  0  0  0
 16 15  1  0  0  0  0
 17  1  1  0  0  0  0
 18 17  1  0  0  0  0
 19 24  1  0  0  0  0
 19 18  2  0  0  0  0
 20 19  1  0  0  0  0
 21 20  2  0  0  0  0
 21 22  1  0  0  0  0
 22 23  2  0  0  0  0
 23 18  1  0  0  0  0
 25 20  1  0  0  0  0
 26 22  1  0  0  0  0
M  END
>  <minimizedAffinity>
-4.32782269

$$$$
