
 OpenBabel03242523203D

 38 41  0  0  0  0  0  0  0  0999 V2000
   44.1950   32.1040   42.6400 Cl  0  0  0  0  0  0  0  0  0  0  0  0
   44.4060   33.8560   42.6110 C   0  0  0  0  0  0  0  0  0  0  0  0
   45.1850   34.3870   43.6590 C   0  0  0  0  0  0  0  0  0  0  0  0
   45.2870   35.7630   43.5380 C   0  0  0  0  0  0  0  0  0  0  0  0
   44.7740   36.5860   42.6130 C   0  0  0  0  0  0  0  0  0  0  0  0
   44.0330   35.9910   41.6320 C   0  0  0  0  0  0  0  0  0  0  0  0
   43.8400   34.6560   41.6140 C   0  0  0  0  0  0  0  0  0  0  0  0
   45.8420   36.3440   44.3040 H   0  0  0  0  0  0  0  0  0  0  0  0
   44.8880   37.6570   42.5660 H   0  0  0  0  0  0  0  0  0  0  0  0
   43.5460   36.4950   40.8090 H   0  0  0  0  0  0  0  0  0  0  0  0
   40.9610   35.0780   42.0050 Cl  0  0  0  0  0  0  0  0  0  0  0  0
   41.6970   34.0620   40.7640 C   0  0  0  0  0  0  0  0  0  0  0  0
   43.0580   33.8880   40.6130 C   0  0  0  0  0  0  0  0  0  0  0  0
   43.5720   33.0790   39.6220 C   0  0  0  0  0  0  0  0  0  0  0  0
   44.6520   33.0140   39.5930 H   0  0  0  0  0  0  0  0  0  0  0  0
   42.6810   32.4410   38.7760 C   0  0  0  0  0  3  0  0  0  0  0  0
   41.3120   32.6220   38.9370 C   0  0  0  0  0  0  0  0  0  0  0  0
   40.2500   31.7800   37.8270 Cl  0  0  0  0  0  0  0  0  0  0  0  0
   40.7880   33.4370   39.9360 C   0  0  0  0  0  0  0  0  0  0  0  0
   39.7120   33.5450   40.0190 H   0  0  0  0  0  0  0  0  0  0  0  0
   45.8450   33.6230   44.7570 C   0  0  0  0  0  0  0  0  0  0  0  0
   45.2070   34.0670   45.6800 O   0  0  0  0  0  0  0  0  0  0  0  0
   46.8830   32.7650   44.1710 C   0  0  0  0  0  0  0  0  0  0  0  0
   47.8420   33.1430   43.3150 C   0  0  0  0  0  0  0  0  0  0  0  0
   48.6320   32.1150   42.8380 C   0  0  0  0  0  0  0  0  0  0  0  0
   48.3700   30.8060   43.2800 N   0  0  0  0  0  0  0  0  0  0  0  0
   47.4090   30.5140   44.1260 C   0  0  0  0  0  0  0  0  0  0  0  0
   46.5990   31.5150   44.6210 N   0  0  0  0  0  0  0  0  0  0  0  0
   49.4490   32.2400   42.1400 H   0  0  0  0  0  0  0  0  0  0  0  0
   47.3260   29.4600   44.3790 H   0  0  0  0  0  0  0  0  0  0  0  0
   48.1790   34.4800   42.9640 C   0  0  0  0  0  0  0  0  0  0  0  0
   49.2840   34.9430   42.3210 C   0  0  0  0  0  0  0  0  0  0  0  0
   48.0760   34.8590   41.4270 C   0  0  0  0  0  0  0  0  0  0  0  0
   47.7660   35.2330   43.6590 H   0  0  0  0  0  0  0  0  0  0  0  0
   49.7410   35.9580   42.3320 H   0  0  0  0  0  0  0  0  0  0  0  0
   50.0940   34.2190   42.0060 H   0  0  0  0  0  0  0  0  0  0  0  0
   47.4110   35.7240   41.2830 H   0  0  0  0  0  0  0  0  0  0  0  0
   47.9450   33.9710   40.7840 H   0  0  0  0  0  0  0  0  0  0  0  0
  2  1  1  0  0  0  0
  2  3  1  0  0  0  0
  3 21  1  0  0  0  0
  4  3  2  0  0  0  0
  4  8  1  0  0  0  0
  5  4  1  0  0  0  0
  6  5  2  0  0  0  0
  7  6  1  0  0  0  0
  7  2  2  0  0  0  0
  9  5  1  0  0  0  0
 10  6  1  0  0  0  0
 12 11  1  0  0  0  0
 13 12  1  0  0  0  0
 13  7  1  0  0  0  0
 14 13  2  0  0  0  0
 15 14  1  0  0  0  0
 16 17  2  0  0  0  0
 16 14  1  0  0  0  0
 17 19  1  0  0  0  0
 18 17  1  0  0  0  0
 19 20  1  0  0  0  0
 19 12  2  0  0  0  0
 21 22  2  0  0  0  0
 23 28  1  0  0  0  0
 23 21  1  0  0  0  0
 24 23  2  0  0  0  0
 25 26  2  0  0  0  0
 25 24  1  0  0  0  0
 26 27  1  0  0  0  0
 27 30  1  0  0  0  0
 27 28  2  0  0  0  0
 29 25  1  0  0  0  0
 31 24  1  0  0  0  0
 31 34  1  0  0  0  0
 32 35  1  0  0  0  0
 32 31  1  0  0  0  0
 33 32  1  0  0  0  0
 33 31  1  0  0  0  0
 36 32  1  0  0  0  0
 37 33  1  0  0  0  0
 38 33  1  0  0  0  0
M  END
>  <minimizedAffinity>
-5.65567255

>  <minimizedRMSD>
0.835304797

$$$$
