
 OpenBabel03242516103D

 26 28  0  0  0  0  0  0  0  0999 V2000
   48.5360   34.8130   41.8430 C   0  0  0  0  0  0  0  0  0  0  0  0
   49.1970   36.1370   41.8080 C   0  0  0  0  0  0  0  0  0  0  0  0
   49.8830   34.9900   42.4470 C   0  0  0  0  0  0  0  0  0  0  0  0
   48.7860   36.9390   42.4280 H   0  0  0  0  0  0  0  0  0  0  0  0
   49.5890   36.4850   40.8160 H   0  0  0  0  0  0  0  0  0  0  0  0
   49.8790   35.0160   43.5670 H   0  0  0  0  0  0  0  0  0  0  0  0
   50.8090   34.6470   41.9640 H   0  0  0  0  0  0  0  0  0  0  0  0
   49.6900   31.9830   42.2000 Cl  0  0  0  0  0  0  0  0  0  0  0  0
   49.0170   32.6660   40.7550 C   0  0  0  0  0  0  0  0  0  0  0  0
   48.5090   33.9430   40.6380 C   0  0  0  0  0  0  0  0  0  0  0  0
   48.0060   34.3400   39.4120 C   0  0  0  0  0  0  0  0  0  0  0  0
   47.6070   35.3410   39.3170 H   0  0  0  0  0  0  0  0  0  0  0  0
   47.9800   33.5360   38.2950 C   0  0  0  0  0  0  0  0  0  0  0  0
   48.4840   32.2700   38.4040 C   0  0  0  0  0  0  0  0  0  0  0  0
   48.4640   31.2300   37.0050 Cl  0  0  0  0  0  0  0  0  0  0  0  0
   48.9890   31.8580   39.6180 C   0  0  0  0  0  0  0  0  0  0  0  0
   49.3800   30.8430   39.6660 H   0  0  0  0  0  0  0  0  0  0  0  0
   46.1650   35.3100   42.5420 C   0  0  0  0  0  0  0  0  0  0  0  0
   47.3630   34.6180   42.7340 C   0  0  0  0  0  0  0  0  0  0  0  0
   47.4140   33.7130   43.8190 C   0  0  0  0  0  0  0  0  0  0  0  0
   46.3170   33.5650   44.6060 N   0  0  0  0  0  0  0  0  0  0  0  0
   45.1790   34.2590   44.3790 C   0  0  0  0  0  0  0  0  0  0  0  0
   45.1150   35.1240   43.3490 N   0  0  0  0  0  0  0  0  0  0  0  0
   46.0710   36.0240   41.7170 H   0  0  0  0  0  0  0  0  0  0  0  0
   48.3220   33.1500   44.0120 H   0  0  0  0  0  0  0  0  0  0  0  0
   44.3410   34.0810   45.0580 H   0  0  0  0  0  0  0  0  0  0  0  0
  1  3  1  0  0  0  0
  1 19  1  0  0  0  0
  2  1  1  0  0  0  0
  2  4  1  0  0  0  0
  2  3  1  0  0  0  0
  3  6  1  0  0  0  0
  5  2  1  0  0  0  0
  7  3  1  0  0  0  0
  9  8  1  0  0  0  0
 10  9  1  0  0  0  0
 10  1  1  0  0  0  0
 11 10  2  0  0  0  0
 12 11  1  0  0  0  0
 13 14  2  0  0  0  0
 13 11  1  0  0  0  0
 14 16  1  0  0  0  0
 15 14  1  0  0  0  0
 16 17  1  0  0  0  0
 16  9  2  0  0  0  0
 18 19  2  0  0  0  0
 18 23  1  0  0  0  0
 19 20  1  0  0  0  0
 20 25  1  0  0  0  0
 20 21  2  0  0  0  0
 22 21  1  0  0  0  0
 22 26  1  0  0  0  0
 23 22  2  0  0  0  0
 24 18  1  0  0  0  0
M  END
>  <minimizedAffinity>
-5.07442617

>  <minimizedRMSD>
1.30096865

$$$$
