
 OpenBabel03242511423D

 35 37  0  0  0  0  0  0  0  0999 V2000
   46.2300   31.8430   47.1170 C   0  0  0  0  0  0  0  0  0  0  0  0
   45.9510   32.4250   48.3440 C   0  0  0  0  0  0  0  0  0  0  0  0
   45.3940   31.7540   49.3970 C   0  0  0  0  0  0  0  0  0  0  0  0
   45.1050   30.4290   49.1970 C   0  0  0  0  0  0  0  0  0  0  0  0
   45.3860   29.8390   47.9620 C   0  0  0  0  0  0  0  0  0  0  0  0
   45.9520   30.5280   46.9030 C   0  0  0  0  0  0  0  0  0  0  0  0
   46.2470   33.4750   48.3120 H   0  0  0  0  0  0  0  0  0  0  0  0
   45.2790   32.4210   50.2330 H   0  0  0  0  0  0  0  0  0  0  0  0
   44.6650   30.0390   50.1310 H   0  0  0  0  0  0  0  0  0  0  0  0
   45.0470   28.8140   48.1290 H   0  0  0  0  0  0  0  0  0  0  0  0
   48.5820   29.3520   45.5750 Cl  0  0  0  0  0  0  0  0  0  0  0  0
   46.9750   28.7390   45.2490 C   0  0  0  0  0  0  0  0  0  0  0  0
   46.0010   29.4430   45.9270 C   0  0  0  0  0  0  0  0  0  0  0  0
   44.6620   29.0680   45.7080 C   0  0  0  0  0  0  0  0  0  0  0  0
   43.7390   29.4720   46.1230 H   0  0  0  0  0  0  0  0  0  0  0  0
   44.3150   28.0370   44.8540 C   0  0  0  0  0  0  0  0  0  0  0  0
   45.3070   27.3480   44.1900 C   0  0  0  0  0  0  0  0  0  0  0  0
   45.0330   26.0220   43.0810 Cl  0  0  0  0  0  0  0  0  0  0  0  0
   46.6150   27.7200   44.4070 C   0  0  0  0  0  0  0  0  0  0  0  0
   47.5020   27.2590   43.9460 H   0  0  0  0  0  0  0  0  0  0  0  0
   46.8310   32.4930   45.9260 C   0  0  0  0  0  0  0  0  0  0  0  0
   47.7590   31.9530   45.6510 H   0  0  0  0  0  0  0  0  0  0  0  0
   47.1050   33.4940   46.2440 H   0  0  0  0  0  0  0  0  0  0  0  0
   45.8960   32.4540   44.7500 C   0  0  0  0  0  0  0  0  0  0  0  0
   44.8660   32.1940   45.1750 H   0  0  0  0  0  0  0  0  0  0  0  0
   46.1960   31.8890   43.8930 H   0  0  0  0  0  0  0  0  0  0  0  0
   44.6180   35.9100   44.8310 C   0  0  0  0  0  0  0  0  0  0  0  0
   45.0370   36.4020   43.5600 C   0  0  0  0  0  0  0  0  0  0  0  0
   45.7570   35.5390   42.7490 C   0  0  0  0  0  0  0  0  0  0  0  0
   46.0280   34.2990   43.1740 N   0  0  0  0  0  0  0  0  0  0  0  0
   45.6040   33.8810   44.3950 C   0  0  0  0  0  0  0  0  0  0  0  0
   44.9180   34.6530   45.2110 N   0  0  0  0  0  0  0  0  0  0  0  0
   44.0500   36.5070   45.5380 H   0  0  0  0  0  0  0  0  0  0  0  0
   44.7630   37.4120   43.3220 H   0  0  0  0  0  0  0  0  0  0  0  0
   46.0710   35.9240   41.7840 H   0  0  0  0  0  0  0  0  0  0  0  0
  1  2  1  0  0  0  0
  2  3  2  0  0  0  0
  3  8  1  0  0  0  0
  4  3  1  0  0  0  0
  4  9  1  0  0  0  0
  5 10  1  0  0  0  0
  5  4  2  0  0  0  0
  6  1  2  0  0  0  0
  6  5  1  0  0  0  0
  7  2  1  0  0  0  0
 12 11  1  0  0  0  0
 12 13  1  0  0  0  0
 13  6  1  0  0  0  0
 14 13  2  0  0  0  0
 14 15  1  0  0  0  0
 16 14  1  0  0  0  0
 17 19  1  0  0  0  0
 17 16  2  0  0  0  0
 18 17  1  0  0  0  0
 19 12  2  0  0  0  0
 20 19  1  0  0  0  0
 21 23  1  0  0  0  0
 21  1  1  0  0  0  0
 22 21  1  0  0  0  0
 24 25  1  0  0  0  0
 24 21  1  0  0  0  0
 26 24  1  0  0  0  0
 27 32  1  0  0  0  0
 27 33  1  0  0  0  0
 28 27  2  0  0  0  0
 29 30  2  0  0  0  0
 29 28  1  0  0  0  0
 30 31  1  0  0  0  0
 31 24  1  0  0  0  0
 31 32  2  0  0  0  0
 34 28  1  0  0  0  0
 35 29  1  0  0  0  0
M  END
>  <minimizedAffinity>
-5.0563612

>  <minimizedRMSD>
0.780302227

$$$$
