
 OpenBabel03252508333D

 33 35  0  0  1  0  0  0  0  0999 V2000
   45.5310   33.7630   42.9580 N   0  0  0  0  0  0  0  0  0  0  0  0
   45.8540   33.2170   41.6900 C   0  0  1  0  0  0  0  0  0  0  0  0
   45.4760   34.0590   40.5250 C   0  0  0  0  0  0  0  0  0  0  0  0
   44.3180   34.8270   40.6330 N   0  0  0  0  0  0  0  0  0  0  0  0
   43.8510   35.1790   41.9030 C   0  0  0  0  0  0  0  0  0  0  0  0
   44.9880   35.0870   42.9090 C   0  0  0  0  0  0  0  0  0  0  0  0
   45.3430   32.2330   41.5840 H   0  0  0  0  0  0  0  0  0  0  0  0
   46.3390   34.7520   40.2980 H   0  0  0  0  0  0  0  0  0  0  0  0
   45.4200   33.4090   39.6100 H   0  0  0  0  0  0  0  0  0  0  0  0
   43.6450   34.8080   39.8680 H   0  0  0  0  0  0  0  0  0  0  0  0
   43.0850   34.4160   42.2200 H   0  0  0  0  0  0  0  0  0  0  0  0
   43.3610   36.1500   42.0150 H   0  0  0  0  0  0  0  0  0  0  0  0
   45.8000   35.8070   42.5980 H   0  0  0  0  0  0  0  0  0  0  0  0
   44.5830   35.4850   43.8420 H   0  0  0  0  0  0  0  0  0  0  0  0
   47.8350   35.4900   42.0160 Cl  0  0  0  0  0  0  0  0  0  0  0  0
   48.3690   33.8600   41.6560 C   0  0  0  0  0  0  0  0  0  0  0  0
   47.3280   32.9450   41.5400 C   0  0  0  0  0  0  0  0  0  0  0  0
   47.6760   31.6240   41.2540 C   0  0  0  0  0  0  0  0  0  0  0  0
   47.0080   30.7880   41.1310 H   0  0  0  0  0  0  0  0  0  0  0  0
   48.9970   31.2430   41.0920 C   0  0  0  0  0  3  0  0  0  0  0  0
   50.0130   32.1680   41.2110 C   0  0  0  0  0  0  0  0  0  0  0  0
   51.7190   31.8230   41.0320 Cl  0  0  0  0  0  0  0  0  0  0  0  0
   49.6590   33.4660   41.4930 C   0  0  0  0  0  0  0  0  0  0  0  0
   50.3500   34.3060   41.6160 H   0  0  0  0  0  0  0  0  0  0  0  0
   46.2830   33.6570   45.2260 C   0  0  0  0  0  0  0  0  0  0  0  0
   45.7760   32.9620   44.1100 C   0  0  0  0  0  0  0  0  0  0  0  0
   45.5640   31.5980   44.2260 C   0  0  0  0  0  0  0  0  0  0  0  0
   45.8510   30.9900   45.3990 N   0  0  0  0  0  0  0  0  0  0  0  0
   46.3390   31.6740   46.4660 C   0  0  0  0  0  0  0  0  0  0  0  0
   46.5500   33.0010   46.3690 N   0  0  0  0  0  0  0  0  0  0  0  0
   46.5120   34.7060   45.3300 H   0  0  0  0  0  0  0  0  0  0  0  0
   45.1730   31.0930   43.3610 H   0  0  0  0  0  0  0  0  0  0  0  0
   46.5150   31.0390   47.3270 H   0  0  0  0  0  0  0  0  0  0  0  0
  1 26  1  0  0  0  0
  2  7  1  6  0  0  0
  2  1  1  0  0  0  0
  3  4  1  0  0  0  0
  3  2  1  0  0  0  0
  4  5  1  0  0  0  0
  5 12  1  0  0  0  0
  5 11  1  0  0  0  0
  5  6  1  0  0  0  0
  6  1  1  0  0  0  0
  6 14  1  0  0  0  0
  8  3  1  0  0  0  0
  9  3  1  0  0  0  0
 10  4  1  0  0  0  0
 13  6  1  0  0  0  0
 16 15  1  0  0  0  0
 17 16  1  0  0  0  0
 17  2  1  0  0  0  0
 18 17  2  0  0  0  0
 19 18  1  0  0  0  0
 20 21  2  0  0  0  0
 20 18  1  0  0  0  0
 21 23  1  0  0  0  0
 22 21  1  0  0  0  0
 23 24  1  0  0  0  0
 23 16  2  0  0  0  0
 25 31  1  0  0  0  0
 25 30  1  0  0  0  0
 26 27  1  0  0  0  0
 26 25  2  0  0  0  0
 27 28  2  0  0  0  0
 28 29  1  0  0  0  0
 29 33  1  0  0  0  0
 30 29  2  0  0  0  0
 32 27  1  0  0  0  0
M  END
>  <minimizedAffinity>
-4.5007515

>  <minimizedRMSD>
1.91856575

$$$$
