
 OpenBabel03252502443D

 32 34  0  0  1  0  0  0  0  0999 V2000
   48.9010   34.7820   41.5010 C   0  0  1  0  0  0  0  0  0  0  0  0
   49.9700   34.5610   42.5130 C   0  0  0  0  0  0  0  0  0  0  0  0
   49.1370   33.4340   42.0040 C   0  0  2  0  0  0  0  0  0  0  0  0
   49.1730   35.0750   40.4490 H   0  0  0  0  0  0  0  0  0  0  0  0
   49.9020   34.9430   43.5520 H   0  0  0  0  0  0  0  0  0  0  0  0
   50.9790   34.7800   42.1110 H   0  0  0  0  0  0  0  0  0  0  0  0
   48.5170   32.7430   42.5320 H   0  0  0  0  0  0  0  0  0  0  0  0
   47.8950   32.5670   39.2620 Cl  0  0  0  0  0  0  0  0  0  0  0  0
   49.4840   32.1190   39.8350 C   0  0  0  0  0  0  0  0  0  0  0  0
   49.9190   32.5850   41.0530 C   0  0  0  0  0  0  0  0  0  0  0  0
   51.1630   32.2930   41.5640 C   0  0  0  0  0  0  0  0  0  0  0  0
   51.5820   32.6160   42.5030 H   0  0  0  0  0  0  0  0  0  0  0  0
   52.0510   31.4900   40.8450 C   0  0  0  0  0  3  0  0  0  0  0  0
   51.6240   31.0080   39.6090 C   0  0  0  0  0  0  0  0  0  0  0  0
   52.5770   29.9820   38.5380 Cl  0  0  0  0  0  0  0  0  0  0  0  0
   50.3660   31.3250   39.1300 C   0  0  0  0  0  0  0  0  0  0  0  0
   49.9860   30.9680   38.1600 H   0  0  0  0  0  0  0  0  0  0  0  0
   47.6540   35.4790   41.9560 C   0  0  0  0  0  0  0  0  0  0  0  0
   47.3440   36.2980   41.3100 H   0  0  0  0  0  0  0  0  0  0  0  0
   47.9240   35.8750   42.9860 H   0  0  0  0  0  0  0  0  0  0  0  0
   46.6050   34.3850   42.1220 C   0  0  0  0  0  0  0  0  0  0  0  0
   45.9670   34.2280   41.2650 H   0  0  0  0  0  0  0  0  0  0  0  0
   47.1650   33.4650   42.4760 H   0  0  0  0  0  0  0  0  0  0  0  0
   44.4760   35.9340   44.8030 C   0  0  0  0  0  0  0  0  0  0  0  0
   45.1000   35.7200   43.5430 C   0  0  0  0  0  0  0  0  0  0  0  0
   45.8960   34.6140   43.4140 C   0  0  0  0  0  0  0  0  0  0  0  0
   46.0510   33.7790   44.4800 N   0  0  0  0  0  0  0  0  0  0  0  0
   45.4640   33.9910   45.6440 C   0  0  0  0  0  0  0  0  0  0  0  0
   44.6790   35.0590   45.8160 N   0  0  0  0  0  0  0  0  0  0  0  0
   43.8310   36.7770   45.0070 H   0  0  0  0  0  0  0  0  0  0  0  0
   44.8360   36.4850   42.8390 H   0  0  0  0  0  0  0  0  0  0  0  0
   45.6920   33.2370   46.3790 H   0  0  0  0  0  0  0  0  0  0  0  0
  1  4  1  6  0  0  0
  1 18  1  0  0  0  0
  1  3  1  0  0  0  0
  1  2  1  0  0  0  0
  2  5  1  0  0  0  0
  3  2  1  0  0  0  0
  3  7  1  1  0  0  0
  6  2  1  0  0  0  0
  8  9  1  0  0  0  0
  9 10  1  0  0  0  0
 10 11  2  0  0  0  0
 10  3  1  0  0  0  0
 11 12  1  0  0  0  0
 13 11  1  0  0  0  0
 14 13  2  0  0  0  0
 15 14  1  0  0  0  0
 16 14  1  0  0  0  0
 16  9  2  0  0  0  0
 17 16  1  0  0  0  0
 18 21  1  0  0  0  0
 18 20  1  0  0  0  0
 19 18  1  0  0  0  0
 21 23  1  0  0  0  0
 21 26  1  0  0  0  0
 22 21  1  0  0  0  0
 24 30  1  0  0  0  0
 24 29  1  0  0  0  0
 25 24  2  0  0  0  0
 26 25  1  0  0  0  0
 26 27  2  0  0  0  0
 27 28  1  0  0  0  0
 28 29  2  0  0  0  0
 28 32  1  0  0  0  0
 31 25  1  0  0  0  0
M  END
>  <minimizedAffinity>
-5.08996725

>  <minimizedRMSD>
1.45914698

$$$$
