
 OpenBabel03242523533D

 46 49  0  0  1  0  0  0  0  0999 V2000
   42.6520   34.4720   38.8900 C   0  0  1  0  0  0  0  0  0  0  0  0
   42.9930   35.2040   40.1790 C   0  0  1  0  0  0  0  0  0  0  0  0
   41.7830   35.6010   40.7910 O   0  0  0  0  0  0  0  0  0  0  0  0
   40.8070   35.9730   39.8620 C   0  0  0  0  0  0  0  0  0  0  0  0
   40.3000   34.7900   39.0620 C   0  0  2  0  0  0  0  0  0  0  0  0
   41.4120   33.6900   39.1680 C   0  0  1  0  0  0  0  0  0  0  0  0
   43.5050   33.8450   38.5580 H   0  0  0  0  0  0  0  0  0  0  0  0
   43.6640   36.0580   40.0320 H   0  0  0  0  0  0  0  0  0  0  0  0
   41.1470   36.8000   39.2060 H   0  0  0  0  0  0  0  0  0  0  0  0
   39.9650   36.3390   40.4640 H   0  0  0  0  0  0  0  0  0  0  0  0
   39.3520   34.3690   39.4510 H   0  0  0  0  0  0  0  0  0  0  0  0
   41.2740   33.5300   40.2860 H   0  0  0  0  0  0  0  0  0  0  0  0
   42.4430   35.3820   37.8410 O   0  0  0  0  0  0  0  0  0  0  0  0
   43.1550   36.0700   37.8400 H   0  0  0  0  0  0  0  0  0  0  0  0
   40.2390   35.1190   37.7190 O   0  0  0  0  0  0  0  0  0  0  0  0
   39.4360   35.6630   37.5580 H   0  0  0  0  0  0  0  0  0  0  0  0
   43.4940   34.2180   41.0430 O   0  0  0  0  0  0  0  0  0  0  0  0
   44.6130   34.3340   41.7660 C   0  0  0  0  0  0  0  0  0  0  0  0
   45.8640   34.4630   41.1450 C   0  0  0  0  0  0  0  0  0  0  0  0
   46.9940   34.5800   41.9350 C   0  0  0  0  0  0  0  0  0  0  0  0
   46.8580   34.5680   43.3100 N   0  0  0  0  0  0  0  0  0  0  0  0
   45.6350   34.4410   43.8770 C   0  0  0  0  0  0  0  0  0  0  0  0
   44.5220   34.3250   43.1070 N   0  0  0  0  0  0  0  0  0  0  0  0
   45.9780   34.4740   40.0600 H   0  0  0  0  0  0  0  0  0  0  0  0
   45.5750   34.4350   44.9560 H   0  0  0  0  0  0  0  0  0  0  0  0
   48.3620   34.6990   41.3380 C   0  0  0  0  0  0  0  0  0  0  0  0
   49.0750   36.0360   41.5240 C   0  0  0  0  0  0  0  0  0  0  0  0
   49.5250   34.7110   42.1680 C   0  0  0  0  0  0  0  0  0  0  0  0
   48.4140   34.2720   40.3020 H   0  0  0  0  0  0  0  0  0  0  0  0
   49.7190   36.3300   40.6740 H   0  0  0  0  0  0  0  0  0  0  0  0
   48.5900   36.7930   42.1560 H   0  0  0  0  0  0  0  0  0  0  0  0
   50.5090   34.3110   41.8950 H   0  0  0  0  0  0  0  0  0  0  0  0
   49.3730   34.7180   43.2790 H   0  0  0  0  0  0  0  0  0  0  0  0
   41.0950   32.7060   38.3100 O   0  0  0  0  0  0  0  0  0  0  0  0
   40.1590   31.7540   38.3540 C   0  0  0  0  0  0  0  0  0  0  0  0
   39.1500   31.7450   37.4850 O   0  0  0  0  0  0  0  0  0  0  0  0
   38.5430   32.1130   40.8880 Cl  0  0  0  0  0  0  0  0  0  0  0  0
   39.2500   30.5660   40.4290 C   0  0  0  0  0  0  0  0  0  0  0  0
   39.9660   30.5550   39.2530 C   0  0  0  0  0  0  0  0  0  0  0  0
   40.4840   29.3180   38.9670 C   0  0  0  0  0  0  0  0  0  0  0  0
   41.0730   29.1560   38.0660 H   0  0  0  0  0  0  0  0  0  0  0  0
   40.3080   28.2270   39.7580 C   0  0  0  0  0  3  0  0  0  0  0  0
   39.5850   28.3200   40.9080 C   0  0  0  0  0  0  0  0  0  0  0  0
   39.3620   26.9230   41.9170 Cl  0  0  0  0  0  0  0  0  0  0  0  0
   39.0230   29.5190   41.2850 C   0  0  0  0  0  0  0  0  0  0  0  0
   38.4490   29.6450   42.1750 H   0  0  0  0  0  0  0  0  0  0  0  0
  1  7  1  6  0  0  0
  1  6  1  0  0  0  0
  1  2  1  0  0  0  0
  2  8  1  6  0  0  0
  2  3  1  0  0  0  0
  2 17  1  0  0  0  0
  4 10  1  0  0  0  0
  4  3  1  0  0  0  0
  5  6  1  0  0  0  0
  5 11  1  1  0  0  0
  5  4  1  0  0  0  0
  6 12  1  1  0  0  0
  9  4  1  0  0  0  0
 13  1  1  0  0  0  0
 14 13  1  0  0  0  0
 15  5  1  0  0  0  0
 16 15  1  0  0  0  0
 17 18  1  0  0  0  0
 18 23  1  0  0  0  0
 19 18  2  0  0  0  0
 19 20  1  0  0  0  0
 20 21  2  0  0  0  0
 21 22  1  0  0  0  0
 22 25  1  0  0  0  0
 23 22  2  0  0  0  0
 24 19  1  0  0  0  0
 26 27  1  0  0  0  0
 26 20  1  0  0  0  0
 26 28  1  0  0  0  0
 27 31  1  0  0  0  0
 27 28  1  0  0  0  0
 28 33  1  0  0  0  0
 29 26  1  0  0  0  0
 30 27  1  0  0  0  0
 32 28  1  0  0  0  0
 34 35  1  0  0  0  0
 34  6  1  0  0  0  0
 35 39  1  0  0  0  0
 36 35  2  0  0  0  0
 38 37  1  0  0  0  0
 38 45  1  0  0  0  0
 39 38  2  0  0  0  0
 40 39  1  0  0  0  0
 40 42  2  0  0  0  0
 41 40  1  0  0  0  0
 42 43  1  0  0  0  0
 43 45  2  0  0  0  0
 43 44  1  0  0  0  0
 45 46  1  0  0  0  0
M  END
>  <minimizedAffinity>
-6.26806402

>  <minimizedRMSD>
1.55450189

$$$$
