
 OpenBabel03252504493D

 25 26  0  0  0  0  0  0  0  0999 V2000
   46.7230   33.1330   44.7800 C   0  0  0  0  0  0  0  0  0  0  0  0
   45.9770   34.1830   44.2440 C   0  0  0  0  0  0  0  0  0  0  0  0
   46.2520   34.5400   42.9220 C   0  0  0  0  0  0  0  0  0  0  0  0
   47.2170   33.8490   42.2490 N   0  0  0  0  0  0  0  0  0  0  0  0
   47.9110   32.8460   42.8050 C   0  0  0  0  0  0  0  0  0  0  0  0
   47.6640   32.4840   44.0770 N   0  0  0  0  0  0  0  0  0  0  0  0
   46.5670   32.7940   45.8120 H   0  0  0  0  0  0  0  0  0  0  0  0
   45.6810   35.3420   42.5140 H   0  0  0  0  0  0  0  0  0  0  0  0
   50.5860   34.2960   42.5620 Cl  0  0  0  0  0  0  0  0  0  0  0  0
   50.1790   32.7270   41.8630 C   0  0  0  0  0  0  0  0  0  0  0  0
   48.9310   32.1480   42.0280 C   0  0  0  0  0  0  0  0  0  0  0  0
   48.6350   30.9190   41.4720 C   0  0  0  0  0  0  0  0  0  0  0  0
   47.6480   30.4540   41.5990 H   0  0  0  0  0  0  0  0  0  0  0  0
   49.6120   30.2610   40.7340 C   0  0  0  0  0  3  0  0  0  0  0  0
   50.8400   30.8700   40.5920 C   0  0  0  0  0  0  0  0  0  0  0  0
   52.0500   30.0150   39.6580 Cl  0  0  0  0  0  0  0  0  0  0  0  0
   51.1660   32.0930   41.1350 C   0  0  0  0  0  0  0  0  0  0  0  0
   52.1350   32.5490   41.0090 H   0  0  0  0  0  0  0  0  0  0  0  0
   44.9790   34.8350   45.0630 C   0  0  0  0  0  0  0  0  0  0  0  0
   44.0330   34.2350   45.0810 H   0  0  0  0  0  0  0  0  0  0  0  0
   45.3650   35.0460   46.0600 H   0  0  0  0  0  0  0  0  0  0  0  0
   44.6170   36.1630   44.4210 C   0  0  0  0  0  0  0  0  0  0  0  0
   43.8470   36.0380   43.6390 H   0  0  0  0  0  0  0  0  0  0  0  0
   44.2460   36.8170   45.2270 H   0  0  0  0  0  0  0  0  0  0  0  0
   45.5360   36.6250   43.9990 H   0  0  0  0  0  0  0  0  0  0  0  0
  1  7  1  0  0  0  0
  2  1  1  0  0  0  0
  2 19  1  0  0  0  0
  3  2  2  0  0  0  0
  4  5  2  0  0  0  0
  4  3  1  0  0  0  0
  5  6  1  0  0  0  0
  6  1  2  0  0  0  0
  8  3  1  0  0  0  0
 10 11  1  0  0  0  0
 10  9  1  0  0  0  0
 11  5  1  0  0  0  0
 12 13  1  0  0  0  0
 12 11  2  0  0  0  0
 14 12  1  0  0  0  0
 15 14  2  0  0  0  0
 15 17  1  0  0  0  0
 16 15  1  0  0  0  0
 17 10  2  0  0  0  0
 18 17  1  0  0  0  0
 19 20  1  0  0  0  0
 19 21  1  0  0  0  0
 22 19  1  0  0  0  0
 22 24  1  0  0  0  0
 23 22  1  0  0  0  0
 25 22  1  0  0  0  0
M  END
>  <minimizedAffinity>
-3.8221693

>  <minimizedRMSD>
7.2556777

$$$$
