
 OpenBabel03252506423D

 41 44  0  0  1  0  0  0  0  0999 V2000
   49.1980   33.3200   41.1880 N   0  0  1  0  0  0  0  0  0  0  0  0
   50.5010   32.9900   41.7010 C   0  0  0  0  0  0  0  0  0  0  0  0
   51.0520   31.6830   41.2610 C   0  0  0  0  0  0  0  0  0  0  0  0
   50.1860   30.5580   41.7820 C   0  0  0  0  0  0  0  0  0  0  0  0
   48.7620   30.9760   41.8020 C   0  0  0  0  0  0  0  0  0  0  0  0
   48.4730   32.1030   40.8730 C   0  0  2  0  0  0  0  0  0  0  0  0
   50.4740   32.9690   42.8210 H   0  0  0  0  0  0  0  0  0  0  0  0
   51.2230   33.8270   41.4780 H   0  0  0  0  0  0  0  0  0  0  0  0
   52.0350   31.5730   41.8150 H   0  0  0  0  0  0  0  0  0  0  0  0
   51.3060   31.5560   40.2170 H   0  0  0  0  0  0  0  0  0  0  0  0
   50.3120   29.7050   41.0640 H   0  0  0  0  0  0  0  0  0  0  0  0
   50.5540   30.1560   42.7590 H   0  0  0  0  0  0  0  0  0  0  0  0
   48.5360   31.3540   42.8330 H   0  0  0  0  0  0  0  0  0  0  0  0
   48.0410   30.1660   41.6340 H   0  0  0  0  0  0  0  0  0  0  0  0
   47.4070   32.3970   41.1570 H   0  0  0  0  0  0  0  0  0  0  0  0
   48.2710   34.2670   38.5800 Cl  0  0  0  0  0  0  0  0  0  0  0  0
   48.3400   32.5650   38.3030 C   0  0  0  0  0  0  0  0  0  0  0  0
   48.3900   31.7980   39.4470 C   0  0  0  0  0  0  0  0  0  0  0  0
   48.4040   30.4090   39.2500 C   0  0  0  0  0  0  0  0  0  0  0  0
   48.4390   29.5920   39.9840 H   0  0  0  0  0  0  0  0  0  0  0  0
   48.3700   29.8760   37.9550 C   0  0  0  0  0  3  0  0  0  0  0  0
   48.3230   30.6930   36.8450 C   0  0  0  0  0  0  0  0  0  0  0  0
   48.2800   30.0690   35.2070 Cl  0  0  0  0  0  0  0  0  0  0  0  0
   48.3080   32.0530   37.0440 C   0  0  0  0  0  0  0  0  0  0  0  0
   48.2700   32.7610   36.2260 H   0  0  0  0  0  0  0  0  0  0  0  0
   47.2200   34.8000   41.9480 C   0  0  1  0  0  0  0  0  0  0  0  0
   48.4320   35.5810   41.8200 C   0  0  0  0  0  0  0  0  0  0  0  0
   48.5650   34.1330   42.1900 C   0  0  2  0  0  0  0  0  0  0  0  0
   46.7070   34.3170   41.0640 H   0  0  0  0  0  0  0  0  0  0  0  0
   48.6820   35.9050   40.7780 H   0  0  0  0  0  0  0  0  0  0  0  0
   48.6230   36.3780   42.5600 H   0  0  0  0  0  0  0  0  0  0  0  0
   48.8070   33.9190   43.2450 H   0  0  0  0  0  0  0  0  0  0  0  0
   45.4620   36.0940   43.1940 C   0  0  0  0  0  0  0  0  0  0  0  0
   46.3090   34.9550   43.1020 C   0  0  0  0  0  0  0  0  0  0  0  0
   46.2430   34.0210   44.1180 C   0  0  0  0  0  0  0  0  0  0  0  0
   45.3750   34.2460   45.1450 N   0  0  0  0  0  0  0  0  0  0  0  0
   44.5790   35.3300   45.2170 C   0  0  0  0  0  0  0  0  0  0  0  0
   44.6110   36.2720   44.2390 N   0  0  0  0  0  0  0  0  0  0  0  0
   45.5590   36.7990   42.3620 H   0  0  0  0  0  0  0  0  0  0  0  0
   46.8670   33.1360   44.0960 H   0  0  0  0  0  0  0  0  0  0  0  0
   43.8970   35.4830   46.0440 H   0  0  0  0  0  0  0  0  0  0  0  0
  1  2  1  1  0  0  0
  1 28  1  0  0  0  0
  2  7  1  0  0  0  0
  3  2  1  0  0  0  0
  3  4  1  0  0  0  0
  3  9  1  0  0  0  0
  4  5  1  0  0  0  0
  4 12  1  0  0  0  0
  5 13  1  0  0  0  0
  6 15  1  1  0  0  0
  6  1  1  0  0  0  0
  6  5  1  0  0  0  0
  8  2  1  0  0  0  0
 10  3  1  0  0  0  0
 11  4  1  0  0  0  0
 14  5  1  0  0  0  0
 17 16  1  0  0  0  0
 17 18  1  0  0  0  0
 18  6  1  0  0  0  0
 19 18  2  0  0  0  0
 19 20  1  0  0  0  0
 21 19  1  0  0  0  0
 22 24  1  0  0  0  0
 22 21  2  0  0  0  0
 23 22  1  0  0  0  0
 24 17  2  0  0  0  0
 25 24  1  0  0  0  0
 26 29  1  6  0  0  0
 26 28  1  0  0  0  0
 26 34  1  0  0  0  0
 27 26  1  0  0  0  0
 27 28  1  0  0  0  0
 27 31  1  0  0  0  0
 28 32  1  1  0  0  0
 30 27  1  0  0  0  0
 33 38  1  0  0  0  0
 34 33  2  0  0  0  0
 34 35  1  0  0  0  0
 35 36  2  0  0  0  0
 36 37  1  0  0  0  0
 37 41  1  0  0  0  0
 38 37  2  0  0  0  0
 39 33  1  0  0  0  0
 40 35  1  0  0  0  0
M  END
>  <minimizedAffinity>
-5.12563801

>  <minimizedRMSD>
1.14130962

$$$$
