
 OpenBabel03252502443D

 32 34  0  0  1  0  0  0  0  0999 V2000
   47.1780   34.6170   42.9210 C   0  0  1  0  0  0  0  0  0  0  0  0
   47.1550   33.4670   43.8660 C   0  0  0  0  0  0  0  0  0  0  0  0
   47.1090   33.2600   42.3910 C   0  0  2  0  0  0  0  0  0  0  0  0
   48.1060   35.2440   42.8180 H   0  0  0  0  0  0  0  0  0  0  0  0
   46.2940   33.2560   44.5340 H   0  0  0  0  0  0  0  0  0  0  0  0
   48.0940   33.3850   44.4480 H   0  0  0  0  0  0  0  0  0  0  0  0
   46.3860   32.7560   41.7880 H   0  0  0  0  0  0  0  0  0  0  0  0
   47.2380   30.8920   40.3410 Cl  0  0  0  0  0  0  0  0  0  0  0  0
   48.6230   31.7250   41.0090 C   0  0  0  0  0  0  0  0  0  0  0  0
   48.4270   32.7640   41.8860 C   0  0  0  0  0  0  0  0  0  0  0  0
   49.4650   33.4810   42.4390 C   0  0  0  0  0  0  0  0  0  0  0  0
   49.4000   34.3060   43.1300 H   0  0  0  0  0  0  0  0  0  0  0  0
   50.7880   33.1690   42.1200 C   0  0  0  0  0  3  0  0  0  0  0  0
   51.0030   32.1160   41.2320 C   0  0  0  0  0  0  0  0  0  0  0  0
   52.5830   31.5520   40.6930 Cl  0  0  0  0  0  0  0  0  0  0  0  0
   49.9330   31.4200   40.6980 C   0  0  0  0  0  0  0  0  0  0  0  0
   50.0540   30.5830   39.9950 H   0  0  0  0  0  0  0  0  0  0  0  0
   45.9390   35.4560   42.8240 C   0  0  0  0  0  0  0  0  0  0  0  0
   45.8090   35.9420   41.8590 H   0  0  0  0  0  0  0  0  0  0  0  0
   46.0760   36.2370   43.6380 H   0  0  0  0  0  0  0  0  0  0  0  0
   44.7860   34.5420   43.2240 C   0  0  0  0  0  0  0  0  0  0  0  0
   45.0770   33.6320   43.7270 H   0  0  0  0  0  0  0  0  0  0  0  0
   44.0540   35.1930   43.7960 H   0  0  0  0  0  0  0  0  0  0  0  0
   42.7340   35.2550   40.1580 C   0  0  0  0  0  0  0  0  0  0  0  0
   43.6170   35.4510   41.2560 C   0  0  0  0  0  0  0  0  0  0  0  0
   43.9030   34.3630   42.0350 C   0  0  0  0  0  0  0  0  0  0  0  0
   43.3420   33.1600   41.7290 N   0  0  0  0  0  0  0  0  0  0  0  0
   42.5240   32.9940   40.7050 C   0  0  0  0  0  0  0  0  0  0  0  0
   42.2150   34.0290   39.9180 N   0  0  0  0  0  0  0  0  0  0  0  0
   42.4450   36.0490   39.4840 H   0  0  0  0  0  0  0  0  0  0  0  0
   43.9560   36.4670   41.3110 H   0  0  0  0  0  0  0  0  0  0  0  0
   42.1690   31.9810   40.6040 H   0  0  0  0  0  0  0  0  0  0  0  0
  1  4  1  6  0  0  0
  1  2  1  0  0  0  0
  2  6  1  0  0  0  0
  2  5  1  0  0  0  0
  3  7  1  6  0  0  0
  3  1  1  0  0  0  0
  3  2  1  0  0  0  0
  8  9  1  0  0  0  0
  9 10  1  0  0  0  0
 10  3  1  0  0  0  0
 10 11  2  0  0  0  0
 11 12  1  0  0  0  0
 13 11  1  0  0  0  0
 14 13  2  0  0  0  0
 15 14  1  0  0  0  0
 16  9  2  0  0  0  0
 16 14  1  0  0  0  0
 17 16  1  0  0  0  0
 18  1  1  0  0  0  0
 18 21  1  0  0  0  0
 18 20  1  0  0  0  0
 19 18  1  0  0  0  0
 21 22  1  0  0  0  0
 21 23  1  0  0  0  0
 24 25  1  0  0  0  0
 25 31  1  0  0  0  0
 25 26  2  0  0  0  0
 26 21  1  0  0  0  0
 27 26  1  0  0  0  0
 28 27  2  0  0  0  0
 29 24  2  0  0  0  0
 29 28  1  0  0  0  0
 30 24  1  0  0  0  0
 32 28  1  0  0  0  0
M  END
>  <minimizedAffinity>
-4.34387064

>  <minimizedRMSD>
3.86520362

$$$$
