
 OpenBabel03242521393D

 22 23  0  0  0  0  0  0  0  0999 V2000
   45.4010   35.1990   43.5950 C   0  0  0  0  0  0  0  0  0  0  0  0
   46.5400   34.7910   42.9060 C   0  0  0  0  0  0  0  0  0  0  0  0
   47.3400   33.8040   43.4830 C   0  0  0  0  0  0  0  0  0  0  0  0
   46.9670   33.2980   44.6780 N   0  0  0  0  0  0  0  0  0  0  0  0
   45.8540   33.7190   45.3170 C   0  0  0  0  0  0  0  0  0  0  0  0
   45.0660   34.6710   44.7770 N   0  0  0  0  0  0  0  0  0  0  0  0
   46.7690   35.2350   41.9730 H   0  0  0  0  0  0  0  0  0  0  0  0
   45.6370   33.2610   46.2600 H   0  0  0  0  0  0  0  0  0  0  0  0
   46.9760   31.2970   42.0030 Cl  0  0  0  0  0  0  0  0  0  0  0  0
   48.4930   32.1630   42.0920 C   0  0  0  0  0  0  0  0  0  0  0  0
   48.5490   33.3310   42.8160 C   0  0  0  0  0  0  0  0  0  0  0  0
   49.7720   33.9620   42.8430 C   0  0  0  0  0  0  0  0  0  0  0  0
   49.8620   34.8750   43.3950 H   0  0  0  0  0  0  0  0  0  0  0  0
   50.8870   33.4870   42.2030 C   0  0  0  0  0  0  0  0  0  0  0  0
   50.7520   32.3120   41.4980 C   0  0  0  0  0  0  0  0  0  0  0  0
   52.1450   31.6400   40.6470 Cl  0  0  0  0  0  0  0  0  0  0  0  0
   49.5690   31.6080   41.4120 C   0  0  0  0  0  0  0  0  0  0  0  0
   49.4530   30.6860   40.8610 H   0  0  0  0  0  0  0  0  0  0  0  0
   44.5550   36.2570   42.9630 C   0  0  0  0  0  0  0  0  0  0  0  0
   45.2040   36.8810   42.3110 H   0  0  0  0  0  0  0  0  0  0  0  0
   43.7040   35.8370   42.4080 H   0  0  0  0  0  0  0  0  0  0  0  0
   44.1640   36.9550   43.7460 H   0  0  0  0  0  0  0  0  0  0  0  0
  1  6  1  0  0  0  0
  2  3  1  0  0  0  0
  2  1  2  0  0  0  0
  3  4  2  0  0  0  0
  4  5  1  0  0  0  0
  5  8  1  0  0  0  0
  6  5  2  0  0  0  0
  7  2  1  0  0  0  0
  9 10  1  0  0  0  0
 10 11  1  0  0  0  0
 11 12  2  0  0  0  0
 11  3  1  0  0  0  0
 12 13  1  0  0  0  0
 14 12  1  0  0  0  0
 15 14  2  0  0  0  0
 16 15  1  0  0  0  0
 17 15  1  0  0  0  0
 17 10  2  0  0  0  0
 18 17  1  0  0  0  0
 19  1  1  0  0  0  0
 19 22  1  0  0  0  0
 20 19  1  0  0  0  0
 21 19  1  0  0  0  0
M  END
>  <minimizedAffinity>
-4.35668325

>  <minimizedRMSD>
2.07894206

$$$$
