
 OpenBabel03252501023D

 26 28  0  0  1  0  0  0  0  0999 V2000
   37.5930   27.8080   42.3670 C   0  0  1  0  0  0  0  0  0  0  0  0
   37.4720   28.5550   43.6800 C   0  0  0  0  0  0  0  0  0  0  0  0
   38.4580   28.9650   42.5750 C   0  0  2  0  0  0  0  0  0  0  0  0
   36.6460   27.8510   41.7840 H   0  0  0  0  0  0  0  0  0  0  0  0
   36.5940   29.1670   43.8490 H   0  0  0  0  0  0  0  0  0  0  0  0
   37.8860   28.1000   44.6070 H   0  0  0  0  0  0  0  0  0  0  0  0
   39.5050   28.8570   42.8590 H   0  0  0  0  0  0  0  0  0  0  0  0
   40.5840   31.1000   42.6030 Cl  0  0  0  0  0  0  0  0  0  0  0  0
   39.0670   31.1920   41.7560 C   0  0  0  0  0  0  0  0  0  0  0  0
   38.1330   30.1770   41.7830 C   0  0  0  0  0  0  0  0  0  0  0  0
   36.9620   30.3540   41.0750 C   0  0  0  0  0  0  0  0  0  0  0  0
   36.2260   29.5630   41.0910 H   0  0  0  0  0  0  0  0  0  0  0  0
   36.6860   31.4920   40.3460 C   0  0  0  0  0  3  0  0  0  0  0  0
   37.6090   32.5050   40.3140 C   0  0  0  0  0  0  0  0  0  0  0  0
   37.3250   33.9650   39.4170 Cl  0  0  0  0  0  0  0  0  0  0  0  0
   38.7990   32.3480   41.0220 C   0  0  0  0  0  0  0  0  0  0  0  0
   39.5250   33.1690   40.9860 H   0  0  0  0  0  0  0  0  0  0  0  0
   38.2270   24.0920   42.1810 C   0  0  0  0  0  0  0  0  0  0  0  0
   37.5680   25.3250   42.0090 C   0  0  0  0  0  0  0  0  0  0  0  0
   38.2060   26.4440   42.5240 C   0  0  0  0  0  0  0  0  0  0  0  0
   39.4180   26.3100   43.1600 N   0  0  0  0  0  0  0  0  0  0  0  0
   40.0190   25.1080   43.3050 C   0  0  0  0  0  0  0  0  0  0  0  0
   39.4140   24.0160   42.8120 N   0  0  0  0  0  0  0  0  0  0  0  0
   37.6850   23.2530   41.7610 H   0  0  0  0  0  0  0  0  0  0  0  0
   36.6170   25.3900   41.5040 H   0  0  0  0  0  0  0  0  0  0  0  0
   40.9720   25.0760   43.8150 H   0  0  0  0  0  0  0  0  0  0  0  0
  1  4  1  6  0  0  0
  1 20  1  0  0  0  0
  1  3  1  0  0  0  0
  1  2  1  0  0  0  0
  2  5  1  0  0  0  0
  2  6  1  0  0  0  0
  3  7  1  1  0  0  0
  3  2  1  0  0  0  0
  9 10  1  0  0  0  0
  9  8  1  0  0  0  0
 10  3  1  0  0  0  0
 11 12  1  0  0  0  0
 11 10  2  0  0  0  0
 13 11  1  0  0  0  0
 14 13  2  0  0  0  0
 14 16  1  0  0  0  0
 15 14  1  0  0  0  0
 16  9  2  0  0  0  0
 17 16  1  0  0  0  0
 18 23  1  0  0  0  0
 19 18  2  0  0  0  0
 19 20  1  0  0  0  0
 20 21  2  0  0  0  0
 21 22  1  0  0  0  0
 22 26  1  0  0  0  0
 23 22  2  0  0  0  0
 24 18  1  0  0  0  0
 25 19  1  0  0  0  0
M  END
>  <minimizedAffinity>
-5.25187302

$$$$

 OpenBabel03252501023D

 26 28  0  0  1  0  0  0  0  0999 V2000
   38.7940   29.8870   41.1270 C   0  0  1  0  0  0  0  0  0  0  0  0
   38.7040   29.7180   42.6300 C   0  0  0  0  0  0  0  0  0  0  0  0
   37.6990   29.0810   41.6570 C   0  0  2  0  0  0  0  0  0  0  0  0
   39.7340   29.4500   40.7230 H   0  0  0  0  0  0  0  0  0  0  0  0
   39.4270   29.0810   43.1250 H   0  0  0  0  0  0  0  0  0  0  0  0
   38.3560   30.5710   43.2560 H   0  0  0  0  0  0  0  0  0  0  0  0
   36.6870   29.4760   41.7500 H   0  0  0  0  0  0  0  0  0  0  0  0
   36.2310   27.3970   43.6790 Cl  0  0  0  0  0  0  0  0  0  0  0  0
   37.1440   26.7910   42.3270 C   0  0  0  0  0  0  0  0  0  0  0  0
   37.7950   27.6170   41.4350 C   0  0  0  0  0  0  0  0  0  0  0  0
   38.4920   27.0310   40.3980 C   0  0  0  0  0  0  0  0  0  0  0  0
   39.0040   27.6720   39.6950 H   0  0  0  0  0  0  0  0  0  0  0  0
   38.5650   25.6660   40.2150 C   0  0  0  0  0  3  0  0  0  0  0  0
   37.9200   24.8390   41.0970 C   0  0  0  0  0  0  0  0  0  0  0  0
   37.9720   23.1110   40.9260 Cl  0  0  0  0  0  0  0  0  0  0  0  0
   37.2110   25.4090   42.1530 C   0  0  0  0  0  0  0  0  0  0  0  0
   36.7020   24.7310   42.8490 H   0  0  0  0  0  0  0  0  0  0  0  0
   37.1830   32.8570   39.4440 C   0  0  0  0  0  0  0  0  0  0  0  0
   37.4270   31.5140   39.7930 C   0  0  0  0  0  0  0  0  0  0  0  0
   38.4740   31.2850   40.6760 C   0  0  0  0  0  0  0  0  0  0  0  0
   39.2060   32.3440   41.1600 N   0  0  0  0  0  0  0  0  0  0  0  0
   38.9390   33.6190   40.8020 C   0  0  0  0  0  0  0  0  0  0  0  0
   37.9310   33.8570   39.9480 N   0  0  0  0  0  0  0  0  0  0  0  0
   36.3570   32.9780   38.7530 H   0  0  0  0  0  0  0  0  0  0  0  0
   36.8320   30.7100   39.3920 H   0  0  0  0  0  0  0  0  0  0  0  0
   39.5550   34.4030   41.2220 H   0  0  0  0  0  0  0  0  0  0  0  0
  1  4  1  6  0  0  0
  1  3  1  0  0  0  0
  1  2  1  0  0  0  0
  2  5  1  0  0  0  0
  2  6  1  0  0  0  0
  3  7  1  6  0  0  0
  3  2  1  0  0  0  0
  9  8  1  0  0  0  0
 10  3  1  0  0  0  0
 10  9  2  0  0  0  0
 11 10  1  0  0  0  0
 12 11  1  0  0  0  0
 13 11  2  0  0  0  0
 13 14  1  0  0  0  0
 14 16  2  0  0  0  0
 15 14  1  0  0  0  0
 16  9  1  0  0  0  0
 16 17  1  0  0  0  0
 18 19  2  0  0  0  0
 18 23  1  0  0  0  0
 19 20  1  0  0  0  0
 20  1  1  0  0  0  0
 20 21  2  0  0  0  0
 22 21  1  0  0  0  0
 22 26  1  0  0  0  0
 23 22  2  0  0  0  0
 24 18  1  0  0  0  0
 25 19  1  0  0  0  0
M  END
>  <minimizedAffinity>
-4.97949553

$$$$

 OpenBabel03252501023D

 26 28  0  0  1  0  0  0  0  0999 V2000
   39.0460   30.2540   41.2000 C   0  0  1  0  0  0  0  0  0  0  0  0
   39.4860   30.2300   42.6500 C   0  0  0  0  0  0  0  0  0  0  0  0
   38.1720   29.5960   42.1670 C   0  0  2  0  0  0  0  0  0  0  0  0
   39.7580   29.7030   40.5480 H   0  0  0  0  0  0  0  0  0  0  0  0
   40.3060   29.5810   42.9320 H   0  0  0  0  0  0  0  0  0  0  0  0
   39.4250   31.1630   43.2550 H   0  0  0  0  0  0  0  0  0  0  0  0
   37.2800   30.0840   42.5600 H   0  0  0  0  0  0  0  0  0  0  0  0
   35.9420   28.5030   40.4610 Cl  0  0  0  0  0  0  0  0  0  0  0  0
   37.1130   27.5530   41.3290 C   0  0  0  0  0  0  0  0  0  0  0  0
   38.1120   28.1160   42.0950 C   0  0  0  0  0  0  0  0  0  0  0  0
   38.9890   27.2680   42.7430 C   0  0  0  0  0  0  0  0  0  0  0  0
   39.7740   27.7020   43.3440 H   0  0  0  0  0  0  0  0  0  0  0  0
   38.9110   25.8940   42.6580 C   0  0  0  0  0  3  0  0  0  0  0  0
   37.9200   25.3280   41.8980 C   0  0  0  0  0  0  0  0  0  0  0  0
   37.7630   23.6040   41.7490 Cl  0  0  0  0  0  0  0  0  0  0  0  0
   37.0230   26.1640   41.2350 C   0  0  0  0  0  0  0  0  0  0  0  0
   36.2370   25.6930   40.6330 H   0  0  0  0  0  0  0  0  0  0  0  0
   37.2060   33.1320   39.5930 C   0  0  0  0  0  0  0  0  0  0  0  0
   37.5100   31.8080   39.9670 C   0  0  0  0  0  0  0  0  0  0  0  0
   38.6540   31.6280   40.7310 C   0  0  0  0  0  0  0  0  0  0  0  0
   39.4210   32.7140   41.0820 N   0  0  0  0  0  0  0  0  0  0  0  0
   39.0950   33.9700   40.7040 C   0  0  0  0  0  0  0  0  0  0  0  0
   37.9920   34.1600   39.9640 N   0  0  0  0  0  0  0  0  0  0  0  0
   36.3040   33.2140   38.9980 H   0  0  0  0  0  0  0  0  0  0  0  0
   36.8840   30.9810   39.6720 H   0  0  0  0  0  0  0  0  0  0  0  0
   39.7440   34.7780   41.0170 H   0  0  0  0  0  0  0  0  0  0  0  0
  1  4  1  6  0  0  0
  1  3  1  0  0  0  0
  1  2  1  0  0  0  0
  2  5  1  0  0  0  0
  2  6  1  0  0  0  0
  3  7  1  1  0  0  0
  3  2  1  0  0  0  0
  8  9  1  0  0  0  0
  9 10  1  0  0  0  0
 10  3  1  0  0  0  0
 10 11  2  0  0  0  0
 11 12  1  0  0  0  0
 13 11  1  0  0  0  0
 14 13  2  0  0  0  0
 15 14  1  0  0  0  0
 16  9  2  0  0  0  0
 16 14  1  0  0  0  0
 17 16  1  0  0  0  0
 18 23  2  0  0  0  0
 18 19  1  0  0  0  0
 19 20  2  0  0  0  0
 20 21  1  0  0  0  0
 20  1  1  0  0  0  0
 22 26  1  0  0  0  0
 22 21  2  0  0  0  0
 23 22  1  0  0  0  0
 24 18  1  0  0  0  0
 25 19  1  0  0  0  0
M  END
>  <minimizedAffinity>
-4.88618231

$$$$

 OpenBabel03252501023D

 26 28  0  0  1  0  0  0  0  0999 V2000
   40.1710   32.5210   40.8650 C   0  0  1  0  0  0  0  0  0  0  0  0
   38.8510   33.2620   40.7890 C   0  0  0  0  0  0  0  0  0  0  0  0
   39.0230   31.8130   40.3070 C   0  0  2  0  0  0  0  0  0  0  0  0
   40.5110   32.3990   41.9160 H   0  0  0  0  0  0  0  0  0  0  0  0
   38.3060   33.4450   41.7080 H   0  0  0  0  0  0  0  0  0  0  0  0
   38.7140   34.0560   40.0210 H   0  0  0  0  0  0  0  0  0  0  0  0
   38.8900   31.6900   39.2320 H   0  0  0  0  0  0  0  0  0  0  0  0
   36.4390   30.6550   39.2760 Cl  0  0  0  0  0  0  0  0  0  0  0  0
   37.2600   30.1670   40.7300 C   0  0  0  0  0  0  0  0  0  0  0  0
   38.4430   30.7380   41.1490 C   0  0  0  0  0  0  0  0  0  0  0  0
   39.0090   30.2750   42.3190 C   0  0  0  0  0  0  0  0  0  0  0  0
   39.9360   30.7170   42.6530 H   0  0  0  0  0  0  0  0  0  0  0  0
   38.4490   29.2730   43.0830 C   0  0  0  0  0  3  0  0  0  0  0  0
   37.2720   28.7000   42.6740 C   0  0  0  0  0  0  0  0  0  0  0  0
   36.5110   27.4350   43.5890 Cl  0  0  0  0  0  0  0  0  0  0  0  0
   36.6820   29.1520   41.4950 C   0  0  0  0  0  0  0  0  0  0  0  0
   35.7410   28.6830   41.1840 H   0  0  0  0  0  0  0  0  0  0  0  0
   41.9290   33.6380   37.7170 C   0  0  0  0  0  0  0  0  0  0  0  0
   40.9210   33.1020   38.5420 C   0  0  0  0  0  0  0  0  0  0  0  0
   41.1960   33.0520   39.9010 C   0  0  0  0  0  0  0  0  0  0  0  0
   42.4020   33.5140   40.3740 N   0  0  0  0  0  0  0  0  0  0  0  0
   43.3440   34.0230   39.5490 C   0  0  0  0  0  0  0  0  0  0  0  0
   43.0930   34.0770   38.2310 N   0  0  0  0  0  0  0  0  0  0  0  0
   41.6620   33.6520   36.6670 H   0  0  0  0  0  0  0  0  0  0  0  0
   39.9870   32.7490   38.1340 H   0  0  0  0  0  0  0  0  0  0  0  0
   44.2700   34.3690   39.9890 H   0  0  0  0  0  0  0  0  0  0  0  0
  1  4  1  1  0  0  0
  2  1  1  0  0  0  0
  2  5  1  0  0  0  0
  3  7  1  6  0  0  0
  3  2  1  0  0  0  0
  3  1  1  0  0  0  0
  3 10  1  0  0  0  0
  6  2  1  0  0  0  0
  8  9  1  0  0  0  0
  9 10  2  0  0  0  0
  9 16  1  0  0  0  0
 10 11  1  0  0  0  0
 11 12  1  0  0  0  0
 11 13  2  0  0  0  0
 14 13  1  0  0  0  0
 14 15  1  0  0  0  0
 16 14  2  0  0  0  0
 17 16  1  0  0  0  0
 18 23  2  0  0  0  0
 18 19  1  0  0  0  0
 19 20  2  0  0  0  0
 20 21  1  0  0  0  0
 20  1  1  0  0  0  0
 22 26  1  0  0  0  0
 22 21  2  0  0  0  0
 23 22  1  0  0  0  0
 24 18  1  0  0  0  0
 25 19  1  0  0  0  0
M  END
>  <minimizedAffinity>
-4.79729748

$$$$

 OpenBabel03252501023D

 26 28  0  0  1  0  0  0  0  0999 V2000
   35.7300   28.8430   40.7340 C   0  0  1  0  0  0  0  0  0  0  0  0
   35.8250   30.3420   40.5360 C   0  0  0  0  0  0  0  0  0  0  0  0
   36.2130   29.3310   39.4450 C   0  0  2  0  0  0  0  0  0  0  0  0
   34.6800   28.5200   40.9100 H   0  0  0  0  0  0  0  0  0  0  0  0
   34.9090   30.9090   40.4200 H   0  0  0  0  0  0  0  0  0  0  0  0
   36.6420   30.9090   41.0370 H   0  0  0  0  0  0  0  0  0  0  0  0
   37.2730   29.3400   39.1960 H   0  0  0  0  0  0  0  0  0  0  0  0
   37.4960   29.6380   36.7370 Cl  0  0  0  0  0  0  0  0  0  0  0  0
   35.8140   29.3030   37.0290 C   0  0  0  0  0  0  0  0  0  0  0  0
   35.2870   29.1740   38.2970 C   0  0  0  0  0  0  0  0  0  0  0  0
   33.9370   28.9090   38.4150 C   0  0  0  0  0  0  0  0  0  0  0  0
   33.5180   28.8060   39.4050 H   0  0  0  0  0  0  0  0  0  0  0  0
   33.0990   28.7670   37.3290 C   0  0  0  0  0  3  0  0  0  0  0  0
   33.6160   28.8940   36.0660 C   0  0  0  0  0  0  0  0  0  0  0  0
   32.6160   28.7290   34.6550 Cl  0  0  0  0  0  0  0  0  0  0  0  0
   34.9760   29.1630   35.9230 C   0  0  0  0  0  0  0  0  0  0  0  0
   35.3710   29.2620   34.9050 H   0  0  0  0  0  0  0  0  0  0  0  0
   37.9390   26.5460   42.7560 C   0  0  0  0  0  0  0  0  0  0  0  0
   36.9460   26.9490   41.8430 C   0  0  0  0  0  0  0  0  0  0  0  0
   36.7500   28.3160   41.7050 C   0  0  0  0  0  0  0  0  0  0  0  0
   37.5110   29.1940   42.4400 N   0  0  0  0  0  0  0  0  0  0  0  0
   38.4570   28.7680   43.3060 C   0  0  0  0  0  0  0  0  0  0  0  0
   38.6570   27.4480   43.4520 N   0  0  0  0  0  0  0  0  0  0  0  0
   38.0490   25.4700   42.8250 H   0  0  0  0  0  0  0  0  0  0  0  0
   36.3690   26.2300   41.2840 H   0  0  0  0  0  0  0  0  0  0  0  0
   39.0190   29.5140   43.8510 H   0  0  0  0  0  0  0  0  0  0  0  0
  1  4  1  1  0  0  0
  1 20  1  0  0  0  0
  2  1  1  0  0  0  0
  2  6  1  0  0  0  0
  3  7  1  6  0  0  0
  3  2  1  0  0  0  0
  3  1  1  0  0  0  0
  5  2  1  0  0  0  0
  8  9  1  0  0  0  0
  9 10  1  0  0  0  0
 10 11  2  0  0  0  0
 10  3  1  0  0  0  0
 11 12  1  0  0  0  0
 13 11  1  0  0  0  0
 14 13  2  0  0  0  0
 15 14  1  0  0  0  0
 16 14  1  0  0  0  0
 16  9  2  0  0  0  0
 17 16  1  0  0  0  0
 18 24  1  0  0  0  0
 18 23  1  0  0  0  0
 19 18  2  0  0  0  0
 20 19  1  0  0  0  0
 20 21  2  0  0  0  0
 21 22  1  0  0  0  0
 22 23  2  0  0  0  0
 22 26  1  0  0  0  0
 25 19  1  0  0  0  0
M  END
>  <minimizedAffinity>
-4.74474812

$$$$

 OpenBabel03252501023D

 26 28  0  0  1  0  0  0  0  0999 V2000
   37.2870   26.8470   42.0610 C   0  0  1  0  0  0  0  0  0  0  0  0
   36.8170   28.0830   42.7990 C   0  0  0  0  0  0  0  0  0  0  0  0
   37.3080   28.1180   41.3430 C   0  0  2  0  0  0  0  0  0  0  0  0
   36.4700   26.1000   41.9540 H   0  0  0  0  0  0  0  0  0  0  0  0
   35.7570   28.1980   42.9960 H   0  0  0  0  0  0  0  0  0  0  0  0
   37.4690   28.5330   43.5810 H   0  0  0  0  0  0  0  0  0  0  0  0
   38.2290   28.6850   41.2050 H   0  0  0  0  0  0  0  0  0  0  0  0
   37.9230   26.6930   38.7610 Cl  0  0  0  0  0  0  0  0  0  0  0  0
   36.5100   27.6600   39.0740 C   0  0  0  0  0  0  0  0  0  0  0  0
   36.2870   28.2880   40.2810 C   0  0  0  0  0  0  0  0  0  0  0  0
   35.1320   29.0310   40.4210 C   0  0  0  0  0  0  0  0  0  0  0  0
   34.9500   29.5260   41.3640 H   0  0  0  0  0  0  0  0  0  0  0  0
   34.1990   29.1720   39.4160 C   0  0  0  0  0  3  0  0  0  0  0  0
   34.4140   28.5500   38.2140 C   0  0  0  0  0  0  0  0  0  0  0  0
   33.2800   28.6870   36.9050 Cl  0  0  0  0  0  0  0  0  0  0  0  0
   35.5730   27.7950   38.0480 C   0  0  0  0  0  0  0  0  0  0  0  0
   35.7290   27.3050   37.0800 H   0  0  0  0  0  0  0  0  0  0  0  0
   40.6870   26.5830   43.6790 C   0  0  0  0  0  0  0  0  0  0  0  0
   39.4970   27.1680   43.2030 C   0  0  0  0  0  0  0  0  0  0  0  0
   38.5960   26.3190   42.5780 C   0  0  0  0  0  0  0  0  0  0  0  0
   38.8900   24.9810   42.4530 N   0  0  0  0  0  0  0  0  0  0  0  0
   40.0430   24.4560   42.9240 C   0  0  0  0  0  0  0  0  0  0  0  0
   40.9250   25.2660   43.5300 N   0  0  0  0  0  0  0  0  0  0  0  0
   41.3530   27.2910   44.1570 H   0  0  0  0  0  0  0  0  0  0  0  0
   39.3020   28.2230   43.3200 H   0  0  0  0  0  0  0  0  0  0  0  0
   40.2080   23.3950   42.7910 H   0  0  0  0  0  0  0  0  0  0  0  0
  1  4  1  6  0  0  0
  1 20  1  0  0  0  0
  1  2  1  0  0  0  0
  2  5  1  0  0  0  0
  2  6  1  0  0  0  0
  3  7  1  6  0  0  0
  3  1  1  0  0  0  0
  3  2  1  0  0  0  0
  8  9  1  0  0  0  0
  9 10  1  0  0  0  0
 10 11  2  0  0  0  0
 10  3  1  0  0  0  0
 11 12  1  0  0  0  0
 13 11  1  0  0  0  0
 14 13  2  0  0  0  0
 15 14  1  0  0  0  0
 16 14  1  0  0  0  0
 16  9  2  0  0  0  0
 17 16  1  0  0  0  0
 18 24  1  0  0  0  0
 19 25  1  0  0  0  0
 19 18  2  0  0  0  0
 20 19  1  0  0  0  0
 21 20  2  0  0  0  0
 21 22  1  0  0  0  0
 22 23  2  0  0  0  0
 23 18  1  0  0  0  0
 26 22  1  0  0  0  0
M  END
>  <minimizedAffinity>
-4.68766212

$$$$

 OpenBabel03252501023D

 26 28  0  0  1  0  0  0  0  0999 V2000
   39.0160   27.5500   42.6550 C   0  0  1  0  0  0  0  0  0  0  0  0
   37.8290   27.5880   43.5940 C   0  0  0  0  0  0  0  0  0  0  0  0
   37.6830   27.6320   42.0650 C   0  0  2  0  0  0  0  0  0  0  0  0
   39.5830   26.5980   42.7510 H   0  0  0  0  0  0  0  0  0  0  0  0
   37.5530   26.6810   44.1190 H   0  0  0  0  0  0  0  0  0  0  0  0
   37.6140   28.5180   44.1660 H   0  0  0  0  0  0  0  0  0  0  0  0
   37.2780   28.5720   41.6900 H   0  0  0  0  0  0  0  0  0  0  0  0
   36.7920   28.0350   39.2150 Cl  0  0  0  0  0  0  0  0  0  0  0  0
   36.7670   26.5260   40.0810 C   0  0  0  0  0  0  0  0  0  0  0  0
   37.1890   26.4080   41.3890 C   0  0  0  0  0  0  0  0  0  0  0  0
   37.1260   25.1620   41.9810 C   0  0  0  0  0  0  0  0  0  0  0  0
   37.4560   25.0620   43.0050 H   0  0  0  0  0  0  0  0  0  0  0  0
   36.6630   24.0400   41.3280 C   0  0  0  0  0  3  0  0  0  0  0  0
   36.2410   24.1490   40.0290 C   0  0  0  0  0  0  0  0  0  0  0  0
   35.6450   22.7760   39.1480 Cl  0  0  0  0  0  0  0  0  0  0  0  0
   36.2950   25.3970   39.4100 C   0  0  0  0  0  0  0  0  0  0  0  0
   35.9530   25.4660   38.3710 H   0  0  0  0  0  0  0  0  0  0  0  0
   40.0650   31.1760   42.6790 C   0  0  0  0  0  0  0  0  0  0  0  0
   39.2210   30.0500   42.6050 C   0  0  0  0  0  0  0  0  0  0  0  0
   39.8360   28.8100   42.6970 C   0  0  0  0  0  0  0  0  0  0  0  0
   41.2000   28.7310   42.8550 N   0  0  0  0  0  0  0  0  0  0  0  0
   41.9760   29.8360   42.9230 C   0  0  0  0  0  0  0  0  0  0  0  0
   41.3950   31.0440   42.8340 N   0  0  0  0  0  0  0  0  0  0  0  0
   39.5330   32.1170   42.6000 H   0  0  0  0  0  0  0  0  0  0  0  0
   38.1550   30.1520   42.4800 H   0  0  0  0  0  0  0  0  0  0  0  0
   43.0420   29.7010   43.0480 H   0  0  0  0  0  0  0  0  0  0  0  0
  1 20  1  0  0  0  0
  1  4  1  6  0  0  0
  1  2  1  0  0  0  0
  2  5  1  0  0  0  0
  2  6  1  0  0  0  0
  3  7  1  6  0  0  0
  3  1  1  0  0  0  0
  3  2  1  0  0  0  0
  8  9  1  0  0  0  0
  9 10  1  0  0  0  0
 10 11  2  0  0  0  0
 10  3  1  0  0  0  0
 11 12  1  0  0  0  0
 13 11  1  0  0  0  0
 14 13  2  0  0  0  0
 15 14  1  0  0  0  0
 16 14  1  0  0  0  0
 16  9  2  0  0  0  0
 17 16  1  0  0  0  0
 18 23  1  0  0  0  0
 19 18  2  0  0  0  0
 19 20  1  0  0  0  0
 20 21  2  0  0  0  0
 21 22  1  0  0  0  0
 22 26  1  0  0  0  0
 23 22  2  0  0  0  0
 24 18  1  0  0  0  0
 25 19  1  0  0  0  0
M  END
>  <minimizedAffinity>
-4.60531664

$$$$

 OpenBabel03252501023D

 26 28  0  0  1  0  0  0  0  0999 V2000
   38.4040   28.7260   41.4360 C   0  0  1  0  0  0  0  0  0  0  0  0
   38.1290   28.3470   42.8770 C   0  0  0  0  0  0  0  0  0  0  0  0
   37.1250   28.0920   41.7420 C   0  0  2  0  0  0  0  0  0  0  0  0
   39.2770   28.1720   41.0270 H   0  0  0  0  0  0  0  0  0  0  0  0
   38.6620   27.5050   43.3020 H   0  0  0  0  0  0  0  0  0  0  0  0
   37.8910   29.1450   43.6160 H   0  0  0  0  0  0  0  0  0  0  0  0
   36.2040   28.6680   41.8330 H   0  0  0  0  0  0  0  0  0  0  0  0
   36.4050   27.8060   38.8300 Cl  0  0  0  0  0  0  0  0  0  0  0  0
   36.6300   26.4950   39.9520 C   0  0  0  0  0  0  0  0  0  0  0  0
   36.9590   26.6930   41.2770 C   0  0  0  0  0  0  0  0  0  0  0  0
   37.1130   25.5810   42.0800 C   0  0  0  0  0  0  0  0  0  0  0  0
   37.3720   25.7290   43.1190 H   0  0  0  0  0  0  0  0  0  0  0  0
   36.9540   24.2910   41.6210 C   0  0  0  0  0  3  0  0  0  0  0  0
   36.6260   24.0860   40.3060 C   0  0  0  0  0  0  0  0  0  0  0  0
   36.4090   22.4870   39.6620 Cl  0  0  0  0  0  0  0  0  0  0  0  0
   36.4650   25.1940   39.4750 C   0  0  0  0  0  0  0  0  0  0  0  0
   36.2020   25.0110   38.4270 H   0  0  0  0  0  0  0  0  0  0  0  0
   39.4350   32.3540   41.3010 C   0  0  0  0  0  0  0  0  0  0  0  0
   39.5100   30.9740   41.5700 C   0  0  0  0  0  0  0  0  0  0  0  0
   38.4060   30.2130   41.2130 C   0  0  0  0  0  0  0  0  0  0  0  0
   37.3180   30.8170   40.6270 N   0  0  0  0  0  0  0  0  0  0  0  0
   37.2850   32.1460   40.3850 C   0  0  0  0  0  0  0  0  0  0  0  0
   38.3450   32.8960   40.7260 N   0  0  0  0  0  0  0  0  0  0  0  0
   40.3230   32.8990   41.6010 H   0  0  0  0  0  0  0  0  0  0  0  0
   40.3810   30.5360   42.0310 H   0  0  0  0  0  0  0  0  0  0  0  0
   36.3970   32.5550   39.9210 H   0  0  0  0  0  0  0  0  0  0  0  0
  1  4  1  6  0  0  0
  1  3  1  0  0  0  0
  1  2  1  0  0  0  0
  2  5  1  0  0  0  0
  2  6  1  0  0  0  0
  3  7  1  6  0  0  0
  3  2  1  0  0  0  0
  8  9  1  0  0  0  0
  9 10  1  0  0  0  0
 10  3  1  0  0  0  0
 10 11  2  0  0  0  0
 11 12  1  0  0  0  0
 13 11  1  0  0  0  0
 14 13  2  0  0  0  0
 15 14  1  0  0  0  0
 16  9  2  0  0  0  0
 16 14  1  0  0  0  0
 17 16  1  0  0  0  0
 18 19  1  0  0  0  0
 18 24  1  0  0  0  0
 19 25  1  0  0  0  0
 20  1  1  0  0  0  0
 20 19  2  0  0  0  0
 21 20  1  0  0  0  0
 22 21  2  0  0  0  0
 22 23  1  0  0  0  0
 23 18  2  0  0  0  0
 26 22  1  0  0  0  0
M  END
>  <minimizedAffinity>
-4.58716583

$$$$

 OpenBabel03252501023D

 26 28  0  0  1  0  0  0  0  0999 V2000
   37.1900   27.7220   40.0760 C   0  0  1  0  0  0  0  0  0  0  0  0
   35.7900   28.2500   39.8430 C   0  0  0  0  0  0  0  0  0  0  0  0
   36.6820   28.7330   40.9980 C   0  0  2  0  0  0  0  0  0  0  0  0
   37.8630   27.9580   39.2220 H   0  0  0  0  0  0  0  0  0  0  0  0
   35.6180   28.9140   39.0040 H   0  0  0  0  0  0  0  0  0  0  0  0
   34.9150   27.6080   40.0920 H   0  0  0  0  0  0  0  0  0  0  0  0
   36.3010   28.4700   41.9850 H   0  0  0  0  0  0  0  0  0  0  0  0
   39.2540   29.1120   42.5200 Cl  0  0  0  0  0  0  0  0  0  0  0  0
   38.4590   30.3230   41.5560 C   0  0  0  0  0  0  0  0  0  0  0  0
   37.2790   30.0860   40.8820 C   0  0  0  0  0  0  0  0  0  0  0  0
   36.7330   31.1180   40.1470 C   0  0  0  0  0  0  0  0  0  0  0  0
   35.8090   30.9390   39.6160 H   0  0  0  0  0  0  0  0  0  0  0  0
   37.3110   32.3670   40.0560 C   0  0  0  0  0  3  0  0  0  0  0  0
   38.4830   32.6100   40.7230 C   0  0  0  0  0  0  0  0  0  0  0  0
   39.2630   34.1610   40.6520 Cl  0  0  0  0  0  0  0  0  0  0  0  0
   39.0530   31.5830   41.4730 C   0  0  0  0  0  0  0  0  0  0  0  0
   39.9900   31.7960   42.0000 H   0  0  0  0  0  0  0  0  0  0  0  0
   36.6590   23.9930   40.3160 C   0  0  0  0  0  0  0  0  0  0  0  0
   36.5710   25.3050   39.8110 C   0  0  0  0  0  0  0  0  0  0  0  0
   37.2060   26.2940   40.5480 C   0  0  0  0  0  0  0  0  0  0  0  0
   37.8760   25.9650   41.7030 N   0  0  0  0  0  0  0  0  0  0  0  0
   37.9380   24.6930   42.1540 C   0  0  0  0  0  0  0  0  0  0  0  0
   37.3270   23.7250   41.4530 N   0  0  0  0  0  0  0  0  0  0  0  0
   36.1450   23.2620   39.7020 H   0  0  0  0  0  0  0  0  0  0  0  0
   36.0360   25.5250   38.9010 H   0  0  0  0  0  0  0  0  0  0  0  0
   38.4820   24.5060   43.0700 H   0  0  0  0  0  0  0  0  0  0  0  0
  1  4  1  6  0  0  0
  1 20  1  0  0  0  0
  1  3  1  0  0  0  0
  2  1  1  0  0  0  0
  2  6  1  0  0  0  0
  2  3  1  0  0  0  0
  3  7  1  1  0  0  0
  5  2  1  0  0  0  0
  9  8  1  0  0  0  0
 10  3  1  0  0  0  0
 10  9  2  0  0  0  0
 11 10  1  0  0  0  0
 12 11  1  0  0  0  0
 13 11  2  0  0  0  0
 13 14  1  0  0  0  0
 14 16  2  0  0  0  0
 15 14  1  0  0  0  0
 16  9  1  0  0  0  0
 16 17  1  0  0  0  0
 18 23  1  0  0  0  0
 19 18  2  0  0  0  0
 19 20  1  0  0  0  0
 20 21  2  0  0  0  0
 21 22  1  0  0  0  0
 22 26  1  0  0  0  0
 23 22  2  0  0  0  0
 24 18  1  0  0  0  0
 25 19  1  0  0  0  0
M  END
>  <minimizedAffinity>
-4.57029057

$$$$
