
 OpenBabel03242523533D

 46 49  0  0  1  0  0  0  0  0999 V2000
   42.6460   34.4810   38.8710 C   0  0  1  0  0  0  0  0  0  0  0  0
   43.0010   35.2080   40.1580 C   0  0  1  0  0  0  0  0  0  0  0  0
   41.7990   35.6140   40.7780 O   0  0  0  0  0  0  0  0  0  0  0  0
   40.8200   35.9950   39.8560 C   0  0  0  0  0  0  0  0  0  0  0  0
   40.2980   34.8170   39.0580 C   0  0  2  0  0  0  0  0  0  0  0  0
   41.4010   33.7080   39.1550 C   0  0  1  0  0  0  0  0  0  0  0  0
   43.4920   33.8470   38.5320 H   0  0  0  0  0  0  0  0  0  0  0  0
   43.6780   36.0570   40.0070 H   0  0  0  0  0  0  0  0  0  0  0  0
   41.1620   36.8200   39.1990 H   0  0  0  0  0  0  0  0  0  0  0  0
   39.9840   36.3670   40.4630 H   0  0  0  0  0  0  0  0  0  0  0  0
   39.3490   34.4030   39.4530 H   0  0  0  0  0  0  0  0  0  0  0  0
   41.2700   33.5480   40.2750 H   0  0  0  0  0  0  0  0  0  0  0  0
   42.4370   35.3930   37.8240 O   0  0  0  0  0  0  0  0  0  0  0  0
   43.1550   36.0750   37.8180 H   0  0  0  0  0  0  0  0  0  0  0  0
   40.2310   35.1480   37.7160 O   0  0  0  0  0  0  0  0  0  0  0  0
   39.4300   35.6990   37.5610 H   0  0  0  0  0  0  0  0  0  0  0  0
   43.4990   34.2180   41.0170 O   0  0  0  0  0  0  0  0  0  0  0  0
   44.6140   34.3310   41.7470 C   0  0  0  0  0  0  0  0  0  0  0  0
   45.8690   34.4620   41.1340 C   0  0  0  0  0  0  0  0  0  0  0  0
   46.9940   34.5760   41.9300 C   0  0  0  0  0  0  0  0  0  0  0  0
   46.8510   34.5600   43.3050 N   0  0  0  0  0  0  0  0  0  0  0  0
   45.6240   34.4310   43.8650 C   0  0  0  0  0  0  0  0  0  0  0  0
   44.5160   34.3180   43.0880 N   0  0  0  0  0  0  0  0  0  0  0  0
   45.9900   34.4760   40.0500 H   0  0  0  0  0  0  0  0  0  0  0  0
   45.5580   34.4230   44.9430 H   0  0  0  0  0  0  0  0  0  0  0  0
   48.3660   34.6960   41.3420 C   0  0  0  0  0  0  0  0  0  0  0  0
   49.0740   36.0370   41.5260 C   0  0  0  0  0  0  0  0  0  0  0  0
   49.5240   34.7160   42.1800 C   0  0  0  0  0  0  0  0  0  0  0  0
   48.4270   34.2640   40.3080 H   0  0  0  0  0  0  0  0  0  0  0  0
   49.7220   36.3280   40.6770 H   0  0  0  0  0  0  0  0  0  0  0  0
   48.5810   36.7950   42.1490 H   0  0  0  0  0  0  0  0  0  0  0  0
   50.5110   34.3190   41.9150 H   0  0  0  0  0  0  0  0  0  0  0  0
   49.3650   34.7290   43.2890 H   0  0  0  0  0  0  0  0  0  0  0  0
   41.0700   32.7270   38.2990 O   0  0  0  0  0  0  0  0  0  0  0  0
   40.1760   31.7390   38.3800 C   0  0  0  0  0  0  0  0  0  0  0  0
   39.1720   31.6520   37.5090 O   0  0  0  0  0  0  0  0  0  0  0  0
   38.5420   32.1360   40.8970 Cl  0  0  0  0  0  0  0  0  0  0  0  0
   39.3140   30.6010   40.5020 C   0  0  0  0  0  0  0  0  0  0  0  0
   40.0310   30.5710   39.3270 C   0  0  0  0  0  0  0  0  0  0  0  0
   40.5980   29.3450   39.0920 C   0  0  0  0  0  0  0  0  0  0  0  0
   41.1950   29.1710   38.1980 H   0  0  0  0  0  0  0  0  0  0  0  0
   40.4650   28.2820   39.9260 C   0  0  0  0  0  3  0  0  0  0  0  0
   39.7370   28.3920   41.0720 C   0  0  0  0  0  0  0  0  0  0  0  0
   39.5700   27.0290   42.1380 Cl  0  0  0  0  0  0  0  0  0  0  0  0
   39.1270   29.5810   41.4000 C   0  0  0  0  0  0  0  0  0  0  0  0
   38.5470   29.7200   42.2840 H   0  0  0  0  0  0  0  0  0  0  0  0
  1  7  1  6  0  0  0
  1  6  1  0  0  0  0
  1  2  1  0  0  0  0
  2  8  1  6  0  0  0
  2  3  1  0  0  0  0
  2 17  1  0  0  0  0
  4 10  1  0  0  0  0
  4  3  1  0  0  0  0
  5  6  1  0  0  0  0
  5 11  1  1  0  0  0
  5  4  1  0  0  0  0
  6 12  1  1  0  0  0
  9  4  1  0  0  0  0
 13  1  1  0  0  0  0
 14 13  1  0  0  0  0
 15  5  1  0  0  0  0
 16 15  1  0  0  0  0
 17 18  1  0  0  0  0
 18 23  1  0  0  0  0
 19 18  2  0  0  0  0
 19 20  1  0  0  0  0
 20 21  2  0  0  0  0
 21 22  1  0  0  0  0
 22 25  1  0  0  0  0
 23 22  2  0  0  0  0
 24 19  1  0  0  0  0
 26 27  1  0  0  0  0
 26 20  1  0  0  0  0
 26 28  1  0  0  0  0
 27 31  1  0  0  0  0
 27 28  1  0  0  0  0
 28 33  1  0  0  0  0
 29 26  1  0  0  0  0
 30 27  1  0  0  0  0
 32 28  1  0  0  0  0
 34 35  1  0  0  0  0
 34  6  1  0  0  0  0
 35 39  1  0  0  0  0
 36 35  2  0  0  0  0
 38 37  1  0  0  0  0
 38 45  1  0  0  0  0
 39 38  2  0  0  0  0
 40 39  1  0  0  0  0
 40 42  2  0  0  0  0
 41 40  1  0  0  0  0
 42 43  1  0  0  0  0
 43 45  2  0  0  0  0
 43 44  1  0  0  0  0
 45 46  1  0  0  0  0
M  END
>  <minimizedAffinity>
-6.24909782

>  <minimizedRMSD>
1.72056139

$$$$
