
 OpenBabel03252500423D

 29 31  0  0  1  0  0  0  0  0999 V2000
   38.9610   29.5310   42.4160 C   0  0  1  0  0  0  0  0  0  0  0  0
   37.9090   29.2630   43.4870 C   0  0  0  0  0  0  0  0  0  0  0  0
   38.9630   28.2640   43.1900 C   0  0  1  0  0  0  0  0  0  0  0  0
   39.8790   30.1100   42.6600 H   0  0  0  0  0  0  0  0  0  0  0  0
   38.0130   29.9080   44.3870 H   0  0  0  0  0  0  0  0  0  0  0  0
   36.8740   29.1430   43.1790 H   0  0  0  0  0  0  0  0  0  0  0  0
   39.6850   28.1200   44.0530 H   0  0  0  0  0  0  0  0  0  0  0  0
   36.2610   27.2360   43.6790 Cl  0  0  0  0  0  0  0  0  0  0  0  0
   37.5070   26.5150   42.6680 C   0  0  0  0  0  0  0  0  0  0  0  0
   38.7690   27.0310   42.4440 C   0  0  0  0  0  0  0  0  0  0  0  0
   39.5630   26.2750   41.6100 C   0  0  0  0  0  0  0  0  0  0  0  0
   40.5520   26.6850   41.4700 H   0  0  0  0  0  0  0  0  0  0  0  0
   39.1590   25.0950   41.0270 C   0  0  0  0  0  3  0  0  0  0  0  0
   37.8960   24.5970   41.2600 C   0  0  0  0  0  0  0  0  0  0  0  0
   37.4950   23.1010   40.4730 Cl  0  0  0  0  0  0  0  0  0  0  0  0
   37.0610   25.3310   42.1020 C   0  0  0  0  0  0  0  0  0  0  0  0
   36.0970   24.8660   42.2260 H   0  0  0  0  0  0  0  0  0  0  0  0
   38.4140   29.5640   41.0370 C   0  0  0  0  0  0  0  0  0  0  0  0
   37.4600   28.9850   40.9790 H   0  0  0  0  0  0  0  0  0  0  0  0
   39.1070   29.1070   40.2850 H   0  0  0  0  0  0  0  0  0  0  0  0
   38.2290   30.9530   40.5450 C   0  0  0  0  0  0  0  0  0  0  0  0
   37.3640   31.1470   39.4950 C   0  0  0  0  0  0  0  0  0  0  0  0
   37.1700   32.4630   39.0430 C   0  0  0  0  0  0  0  0  0  0  0  0
   37.8530   33.4570   39.6790 N   0  0  0  0  0  0  0  0  0  0  0  0
   38.6970   33.2100   40.7130 C   0  0  0  0  0  0  0  0  0  0  0  0
   38.8860   31.9440   41.1500 N   0  0  0  0  0  0  0  0  0  0  0  0
   36.7640   30.4960   38.8900 H   0  0  0  0  0  0  0  0  0  0  0  0
   36.5460   32.7960   38.2530 H   0  0  0  0  0  0  0  0  0  0  0  0
   39.2390   33.9930   41.2180 H   0  0  0  0  0  0  0  0  0  0  0  0
  1  4  1  1  0  0  0
  1  3  1  0  0  0  0
  1  2  1  0  0  0  0
  2  5  1  0  0  0  0
  3  2  1  0  0  0  0
  3  7  1  1  0  0  0
  6  2  1  0  0  0  0
  9  8  1  0  0  0  0
 10  9  1  0  0  0  0
 10  3  1  0  0  0  0
 11 10  2  0  0  0  0
 12 11  1  0  0  0  0
 13 14  2  0  0  0  0
 13 11  1  0  0  0  0
 14 16  1  0  0  0  0
 15 14  1  0  0  0  0
 16 17  1  0  0  0  0
 16  9  2  0  0  0  0
 18  1  1  0  0  0  0
 19 18  1  0  0  0  0
 20 18  1  0  0  0  0
 21 18  1  0  0  0  0
 21 26  1  0  0  0  0
 22 21  2  0  0  0  0
 23 22  1  0  0  0  0
 23 24  2  0  0  0  0
 24 25  1  0  0  0  0
 25 26  2  0  0  0  0
 25 29  1  0  0  0  0
 27 22  1  0  0  0  0
 28 23  1  0  0  0  0
M  END
>  <minimizedAffinity>
-5.03983688

$$$$

 OpenBabel03252500423D

 29 31  0  0  1  0  0  0  0  0999 V2000
   39.1940   27.7590   42.8430 C   0  0  1  0  0  0  0  0  0  0  0  0
   39.8110   26.6420   43.6790 C   0  0  0  0  0  0  0  0  0  0  0  0
   39.5770   26.4640   42.2270 C   0  0  1  0  0  0  0  0  0  0  0  0
   39.8320   28.5670   42.4220 H   0  0  0  0  0  0  0  0  0  0  0  0
   40.8390   26.8690   44.0370 H   0  0  0  0  0  0  0  0  0  0  0  0
   39.2000   26.1680   44.4420 H   0  0  0  0  0  0  0  0  0  0  0  0
   40.5410   26.3720   41.6360 H   0  0  0  0  0  0  0  0  0  0  0  0
   39.4090   27.0230   39.3530 Cl  0  0  0  0  0  0  0  0  0  0  0  0
   38.3980   25.9250   40.2830 C   0  0  0  0  0  0  0  0  0  0  0  0
   38.5100   25.6700   41.6370 C   0  0  0  0  0  0  0  0  0  0  0  0
   37.5950   24.7670   42.1320 C   0  0  0  0  0  0  0  0  0  0  0  0
   37.6870   24.6020   43.1960 H   0  0  0  0  0  0  0  0  0  0  0  0
   36.6340   24.1470   41.3650 C   0  0  0  0  0  3  0  0  0  0  0  0
   36.5390   24.4130   40.0170 C   0  0  0  0  0  0  0  0  0  0  0  0
   35.2900   23.5750   39.1470 Cl  0  0  0  0  0  0  0  0  0  0  0  0
   37.4460   25.3240   39.4760 C   0  0  0  0  0  0  0  0  0  0  0  0
   37.2960   25.4690   38.4180 H   0  0  0  0  0  0  0  0  0  0  0  0
   37.7750   28.0390   43.1760 C   0  0  0  0  0  0  0  0  0  0  0  0
   37.6940   28.4970   44.1920 H   0  0  0  0  0  0  0  0  0  0  0  0
   37.1440   27.1140   43.1950 H   0  0  0  0  0  0  0  0  0  0  0  0
   37.1200   28.8890   42.1500 C   0  0  0  0  0  0  0  0  0  0  0  0
   36.0300   28.3700   41.4940 C   0  0  0  0  0  0  0  0  0  0  0  0
   35.3940   29.1810   40.5400 C   0  0  0  0  0  0  0  0  0  0  0  0
   35.9030   30.4290   40.3300 N   0  0  0  0  0  0  0  0  0  0  0  0
   36.9850   30.8930   41.0070 C   0  0  0  0  0  0  0  0  0  0  0  0
   37.5990   30.1140   41.9260 N   0  0  0  0  0  0  0  0  0  0  0  0
   35.5130   27.4320   41.5300 H   0  0  0  0  0  0  0  0  0  0  0  0
   34.5490   28.9480   39.9440 H   0  0  0  0  0  0  0  0  0  0  0  0
   37.3900   31.8780   40.8440 H   0  0  0  0  0  0  0  0  0  0  0  0
  1  4  1  6  0  0  0
  1 18  1  0  0  0  0
  1  2  1  0  0  0  0
  2  5  1  0  0  0  0
  2  6  1  0  0  0  0
  3  7  1  6  0  0  0
  3  1  1  0  0  0  0
  3  2  1  0  0  0  0
  8  9  1  0  0  0  0
  9 10  1  0  0  0  0
 10 11  2  0  0  0  0
 10  3  1  0  0  0  0
 11 12  1  0  0  0  0
 13 11  1  0  0  0  0
 14 13  2  0  0  0  0
 15 14  1  0  0  0  0
 16 14  1  0  0  0  0
 16  9  2  0  0  0  0
 17 16  1  0  0  0  0
 18 20  1  0  0  0  0
 18 19  1  0  0  0  0
 21 18  1  0  0  0  0
 22 27  1  0  0  0  0
 22 21  2  0  0  0  0
 23 22  1  0  0  0  0
 24 23  2  0  0  0  0
 24 25  1  0  0  0  0
 25 26  2  0  0  0  0
 26 21  1  0  0  0  0
 28 23  1  0  0  0  0
 29 25  1  0  0  0  0
M  END
>  <minimizedAffinity>
-4.91244841

$$$$

 OpenBabel03252500423D

 29 31  0  0  1  0  0  0  0  0999 V2000
   37.8110   27.2240   42.9110 C   0  0  1  0  0  0  0  0  0  0  0  0
   36.4390   27.4790   43.5270 C   0  0  0  0  0  0  0  0  0  0  0  0
   36.6420   27.5640   42.0610 C   0  0  1  0  0  0  0  0  0  0  0  0
   38.1410   26.1870   42.6800 H   0  0  0  0  0  0  0  0  0  0  0  0
   35.9660   26.5690   43.9550 H   0  0  0  0  0  0  0  0  0  0  0  0
   36.3110   28.3520   44.1610 H   0  0  0  0  0  0  0  0  0  0  0  0
   36.0880   26.7530   41.4950 H   0  0  0  0  0  0  0  0  0  0  0  0
   37.5790   26.9700   39.3470 Cl  0  0  0  0  0  0  0  0  0  0  0  0
   37.1720   28.5480   40.0110 C   0  0  0  0  0  0  0  0  0  0  0  0
   36.7180   28.7960   41.2920 C   0  0  0  0  0  0  0  0  0  0  0  0
   36.4710   30.1220   41.5700 C   0  0  0  0  0  0  0  0  0  0  0  0
   36.1410   30.2940   42.5840 H   0  0  0  0  0  0  0  0  0  0  0  0
   36.6480   31.1440   40.6640 C   0  0  0  0  0  3  0  0  0  0  0  0
   37.1000   30.8770   39.3910 C   0  0  0  0  0  0  0  0  0  0  0  0
   37.2870   32.2410   38.3320 Cl  0  0  0  0  0  0  0  0  0  0  0  0
   37.3650   29.5460   39.0690 C   0  0  0  0  0  0  0  0  0  0  0  0
   37.7130   29.4330   38.0550 H   0  0  0  0  0  0  0  0  0  0  0  0
   38.8190   28.2590   43.2470 C   0  0  0  0  0  0  0  0  0  0  0  0
   38.5640   28.7550   44.2160 H   0  0  0  0  0  0  0  0  0  0  0  0
   38.8750   29.0740   42.4810 H   0  0  0  0  0  0  0  0  0  0  0  0
   40.1970   27.7070   43.2730 C   0  0  0  0  0  0  0  0  0  0  0  0
   40.3540   26.4040   43.6770 C   0  0  0  0  0  0  0  0  0  0  0  0
   41.6540   25.8720   43.6800 C   0  0  0  0  0  0  0  0  0  0  0  0
   42.6720   26.6870   43.2790 N   0  0  0  0  0  0  0  0  0  0  0  0
   42.4610   27.9700   42.8880 C   0  0  0  0  0  0  0  0  0  0  0  0
   41.2100   28.4840   42.8860 N   0  0  0  0  0  0  0  0  0  0  0  0
   39.6830   25.6410   44.0210 H   0  0  0  0  0  0  0  0  0  0  0  0
   41.9590   24.8950   43.9580 H   0  0  0  0  0  0  0  0  0  0  0  0
   43.2620   28.6170   42.5720 H   0  0  0  0  0  0  0  0  0  0  0  0
  1  4  1  6  0  0  0
  1 18  1  0  0  0  0
  1  2  1  0  0  0  0
  2  5  1  0  0  0  0
  2  6  1  0  0  0  0
  3  7  1  6  0  0  0
  3  1  1  0  0  0  0
  3  2  1  0  0  0  0
  8  9  1  0  0  0  0
  9 10  1  0  0  0  0
 10 11  2  0  0  0  0
 10  3  1  0  0  0  0
 11 12  1  0  0  0  0
 13 11  1  0  0  0  0
 14 13  2  0  0  0  0
 15 14  1  0  0  0  0
 16 14  1  0  0  0  0
 16  9  2  0  0  0  0
 17 16  1  0  0  0  0
 18 21  1  0  0  0  0
 18 19  1  0  0  0  0
 20 18  1  0  0  0  0
 21 22  1  0  0  0  0
 22 23  2  0  0  0  0
 22 27  1  0  0  0  0
 23 28  1  0  0  0  0
 24 23  1  0  0  0  0
 25 24  2  0  0  0  0
 26 25  1  0  0  0  0
 26 21  2  0  0  0  0
 29 25  1  0  0  0  0
M  END
>  <minimizedAffinity>
-4.90490723

$$$$

 OpenBabel03252500423D

 29 31  0  0  1  0  0  0  0  0999 V2000
   37.1600   28.3830   42.4500 C   0  0  1  0  0  0  0  0  0  0  0  0
   36.5560   27.7100   43.6790 C   0  0  0  0  0  0  0  0  0  0  0  0
   37.7880   27.1790   43.0490 C   0  0  1  0  0  0  0  0  0  0  0  0
   37.8480   29.2490   42.5640 H   0  0  0  0  0  0  0  0  0  0  0  0
   36.6420   28.3160   44.6070 H   0  0  0  0  0  0  0  0  0  0  0  0
   35.5860   27.2310   43.5830 H   0  0  0  0  0  0  0  0  0  0  0  0
   38.6990   27.2790   43.7180 H   0  0  0  0  0  0  0  0  0  0  0  0
   40.3340   27.1540   41.5950 Cl  0  0  0  0  0  0  0  0  0  0  0  0
   39.0480   25.9570   41.5090 C   0  0  0  0  0  0  0  0  0  0  0  0
   37.8620   25.9880   42.2180 C   0  0  0  0  0  0  0  0  0  0  0  0
   37.0140   24.9310   41.9720 C   0  0  0  0  0  0  0  0  0  0  0  0
   36.0850   24.9890   42.5190 H   0  0  0  0  0  0  0  0  0  0  0  0
   37.2970   23.9060   41.0970 C   0  0  0  0  0  3  0  0  0  0  0  0
   38.4850   23.8910   40.4000 C   0  0  0  0  0  0  0  0  0  0  0  0
   38.7370   22.5510   39.3230 Cl  0  0  0  0  0  0  0  0  0  0  0  0
   39.3720   24.9460   40.6180 C   0  0  0  0  0  0  0  0  0  0  0  0
   40.2710   24.8510   40.0310 H   0  0  0  0  0  0  0  0  0  0  0  0
   36.3220   28.2630   41.2320 C   0  0  0  0  0  0  0  0  0  0  0  0
   35.2490   28.1110   41.5060 H   0  0  0  0  0  0  0  0  0  0  0  0
   36.6100   27.3900   40.5930 H   0  0  0  0  0  0  0  0  0  0  0  0
   36.4850   29.4290   40.3270 C   0  0  0  0  0  0  0  0  0  0  0  0
   36.8080   30.6370   40.8960 C   0  0  0  0  0  0  0  0  0  0  0  0
   36.9860   31.7360   40.0410 C   0  0  0  0  0  0  0  0  0  0  0  0
   36.8260   31.5290   38.7020 N   0  0  0  0  0  0  0  0  0  0  0  0
   36.5050   30.3120   38.1920 C   0  0  0  0  0  0  0  0  0  0  0  0
   36.3330   29.2520   39.0140 N   0  0  0  0  0  0  0  0  0  0  0  0
   36.9630   30.9710   41.9030 H   0  0  0  0  0  0  0  0  0  0  0  0
   37.2350   32.7330   40.3020 H   0  0  0  0  0  0  0  0  0  0  0  0
   36.3770   30.1430   37.1350 H   0  0  0  0  0  0  0  0  0  0  0  0
  1  4  1  1  0  0  0
  1  3  1  0  0  0  0
  1  2  1  0  0  0  0
  2  5  1  0  0  0  0
  3  2  1  0  0  0  0
  3  7  1  1  0  0  0
  6  2  1  0  0  0  0
  9  8  1  0  0  0  0
  9 10  1  0  0  0  0
 10  3  1  0  0  0  0
 11 10  2  0  0  0  0
 11 12  1  0  0  0  0
 13 11  1  0  0  0  0
 14 16  1  0  0  0  0
 14 13  2  0  0  0  0
 15 14  1  0  0  0  0
 16  9  2  0  0  0  0
 17 16  1  0  0  0  0
 18 19  1  0  0  0  0
 18  1  1  0  0  0  0
 20 18  1  0  0  0  0
 21 22  1  0  0  0  0
 21 18  1  0  0  0  0
 22 27  1  0  0  0  0
 23 28  1  0  0  0  0
 23 22  2  0  0  0  0
 24 23  1  0  0  0  0
 25 24  2  0  0  0  0
 25 26  1  0  0  0  0
 26 21  2  0  0  0  0
 29 25  1  0  0  0  0
M  END
>  <minimizedAffinity>
-4.88978195

$$$$

 OpenBabel03252500423D

 29 31  0  0  1  0  0  0  0  0999 V2000
   35.9140   28.5290   39.3080 C   0  0  1  0  0  0  0  0  0  0  0  0
   35.1120   29.2200   38.2090 C   0  0  0  0  0  0  0  0  0  0  0  0
   36.5790   29.4040   38.3100 C   0  0  1  0  0  0  0  0  0  0  0  0
   36.2700   27.4840   39.1720 H   0  0  0  0  0  0  0  0  0  0  0  0
   34.7060   28.5220   37.4460 H   0  0  0  0  0  0  0  0  0  0  0  0
   34.3970   29.9870   38.4950 H   0  0  0  0  0  0  0  0  0  0  0  0
   37.1380   28.9530   37.4330 H   0  0  0  0  0  0  0  0  0  0  0  0
   39.4040   28.8050   38.8210 Cl  0  0  0  0  0  0  0  0  0  0  0  0
   38.5780   30.3370   39.0780 C   0  0  0  0  0  0  0  0  0  0  0  0
   37.2460   30.5940   38.8140 C   0  0  0  0  0  0  0  0  0  0  0  0
   36.8370   31.8770   39.1040 C   0  0  0  0  0  0  0  0  0  0  0  0
   35.7890   32.0480   38.9130 H   0  0  0  0  0  0  0  0  0  0  0  0
   37.6670   32.8510   39.6140 C   0  0  0  0  0  3  0  0  0  0  0  0
   38.9920   32.5770   39.8690 C   0  0  0  0  0  0  0  0  0  0  0  0
   39.9450   33.8800   40.5120 Cl  0  0  0  0  0  0  0  0  0  0  0  0
   39.4460   31.2880   39.5920 C   0  0  0  0  0  0  0  0  0  0  0  0
   40.4920   31.1650   39.8220 H   0  0  0  0  0  0  0  0  0  0  0  0
   35.6200   29.0360   40.6710 C   0  0  0  0  0  0  0  0  0  0  0  0
   34.5940   28.7280   40.9910 H   0  0  0  0  0  0  0  0  0  0  0  0
   35.6480   30.1540   40.7320 H   0  0  0  0  0  0  0  0  0  0  0  0
   36.6420   28.6050   41.6580 C   0  0  0  0  0  0  0  0  0  0  0  0
   36.8730   27.2570   41.7890 C   0  0  0  0  0  0  0  0  0  0  0  0
   37.8560   26.8470   42.7040 C   0  0  0  0  0  0  0  0  0  0  0  0
   38.5140   27.8170   43.4010 N   0  0  0  0  0  0  0  0  0  0  0  0
   38.2460   29.1380   43.2330 C   0  0  0  0  0  0  0  0  0  0  0  0
   37.3000   29.5340   42.3520 N   0  0  0  0  0  0  0  0  0  0  0  0
   36.4550   26.3790   41.3360 H   0  0  0  0  0  0  0  0  0  0  0  0
   38.1640   25.8590   42.9330 H   0  0  0  0  0  0  0  0  0  0  0  0
   38.7640   29.9080   43.7820 H   0  0  0  0  0  0  0  0  0  0  0  0
  1  4  1  6  0  0  0
  1 18  1  0  0  0  0
  2  3  1  0  0  0  0
  2  6  1  0  0  0  0
  2  1  1  0  0  0  0
  3  7  1  6  0  0  0
  3 10  1  0  0  0  0
  3  1  1  0  0  0  0
  5  2  1  0  0  0  0
  8  9  1  0  0  0  0
  9 16  1  0  0  0  0
 10  9  2  0  0  0  0
 10 11  1  0  0  0  0
 11 13  2  0  0  0  0
 12 11  1  0  0  0  0
 13 14  1  0  0  0  0
 14 15  1  0  0  0  0
 16 17  1  0  0  0  0
 16 14  2  0  0  0  0
 18 20  1  0  0  0  0
 18 19  1  0  0  0  0
 18 21  1  0  0  0  0
 21 22  2  0  0  0  0
 21 26  1  0  0  0  0
 22 23  1  0  0  0  0
 23 28  1  0  0  0  0
 23 24  2  0  0  0  0
 25 24  1  0  0  0  0
 25 29  1  0  0  0  0
 26 25  2  0  0  0  0
 27 22  1  0  0  0  0
M  END
>  <minimizedAffinity>
-4.87264824

$$$$

 OpenBabel03252500423D

 29 31  0  0  1  0  0  0  0  0999 V2000
   35.9060   30.1020   40.2660 C   0  0  1  0  0  0  0  0  0  0  0  0
   34.6920   29.2510   39.9060 C   0  0  0  0  0  0  0  0  0  0  0  0
   35.6390   28.8190   40.9620 C   0  0  1  0  0  0  0  0  0  0  0  0
   35.8120   30.9390   40.9930 H   0  0  0  0  0  0  0  0  0  0  0  0
   33.7230   29.7080   40.2030 H   0  0  0  0  0  0  0  0  0  0  0  0
   34.6530   28.7950   38.9210 H   0  0  0  0  0  0  0  0  0  0  0  0
   35.1690   28.8120   41.9940 H   0  0  0  0  0  0  0  0  0  0  0  0
   37.5200   28.9420   43.2070 Cl  0  0  0  0  0  0  0  0  0  0  0  0
   37.5450   27.8120   41.8590 C   0  0  0  0  0  0  0  0  0  0  0  0
   36.6350   27.7690   40.8200 C   0  0  0  0  0  0  0  0  0  0  0  0
   36.8750   26.7880   39.8830 C   0  0  0  0  0  0  0  0  0  0  0  0
   36.1650   26.7890   39.0690 H   0  0  0  0  0  0  0  0  0  0  0  0
   37.9280   25.9030   39.9490 C   0  0  0  0  0  3  0  0  0  0  0  0
   38.8240   25.9610   40.9930 C   0  0  0  0  0  0  0  0  0  0  0  0
   40.1130   24.7960   40.9740 Cl  0  0  0  0  0  0  0  0  0  0  0  0
   38.6190   26.9410   41.9630 C   0  0  0  0  0  0  0  0  0  0  0  0
   39.3670   26.9110   42.7390 H   0  0  0  0  0  0  0  0  0  0  0  0
   36.9260   30.1730   39.1900 C   0  0  0  0  0  0  0  0  0  0  0  0
   36.4370   30.1620   38.1850 H   0  0  0  0  0  0  0  0  0  0  0  0
   37.6330   29.3050   39.2070 H   0  0  0  0  0  0  0  0  0  0  0  0
   37.8150   31.3520   39.3420 C   0  0  0  0  0  0  0  0  0  0  0  0
   37.2840   32.4800   39.9200 C   0  0  0  0  0  0  0  0  0  0  0  0
   38.1290   33.5890   40.0870 C   0  0  0  0  0  0  0  0  0  0  0  0
   39.4200   33.4700   39.6640 N   0  0  0  0  0  0  0  0  0  0  0  0
   39.8940   32.3300   39.0980 C   0  0  0  0  0  0  0  0  0  0  0  0
   39.0810   31.2610   38.9360 N   0  0  0  0  0  0  0  0  0  0  0  0
   36.3140   32.7420   40.2970 H   0  0  0  0  0  0  0  0  0  0  0  0
   37.8930   34.5320   40.5100 H   0  0  0  0  0  0  0  0  0  0  0  0
   40.9130   32.2320   38.7610 H   0  0  0  0  0  0  0  0  0  0  0  0
  1  3  1  0  0  0  0
  1  4  1  1  0  0  0
  2  5  1  0  0  0  0
  2  1  1  0  0  0  0
  2  3  1  0  0  0  0
  3  7  1  1  0  0  0
  6  2  1  0  0  0  0
  9 16  1  0  0  0  0
  9  8  1  0  0  0  0
 10  3  1  0  0  0  0
 10  9  2  0  0  0  0
 11 13  2  0  0  0  0
 11 10  1  0  0  0  0
 12 11  1  0  0  0  0
 13 14  1  0  0  0  0
 14 16  2  0  0  0  0
 15 14  1  0  0  0  0
 16 17  1  0  0  0  0
 18 20  1  0  0  0  0
 18 21  1  0  0  0  0
 18  1  1  0  0  0  0
 19 18  1  0  0  0  0
 21 22  1  0  0  0  0
 22 23  2  0  0  0  0
 22 27  1  0  0  0  0
 23 28  1  0  0  0  0
 24 23  1  0  0  0  0
 25 24  2  0  0  0  0
 26 25  1  0  0  0  0
 26 21  2  0  0  0  0
 29 25  1  0  0  0  0
M  END
>  <minimizedAffinity>
-4.84997368

$$$$

 OpenBabel03252500423D

 29 31  0  0  1  0  0  0  0  0999 V2000
   39.4580   25.6560   42.9110 C   0  0  1  0  0  0  0  0  0  0  0  0
   40.6560   26.2120   43.6760 C   0  0  0  0  0  0  0  0  0  0  0  0
   39.3550   26.9210   43.6800 C   0  0  1  0  0  0  0  0  0  0  0  0
   38.7990   24.8900   43.3760 H   0  0  0  0  0  0  0  0  0  0  0  0
   40.9420   25.6030   44.5610 H   0  0  0  0  0  0  0  0  0  0  0  0
   41.5180   26.5550   43.1100 H   0  0  0  0  0  0  0  0  0  0  0  0
   38.8660   26.9330   44.7030 H   0  0  0  0  0  0  0  0  0  0  0  0
   36.4490   27.2930   43.5470 Cl  0  0  0  0  0  0  0  0  0  0  0  0
   37.6870   28.3220   42.8370 C   0  0  0  0  0  0  0  0  0  0  0  0
   39.0520   28.1300   42.9290 C   0  0  0  0  0  0  0  0  0  0  0  0
   39.8140   29.0780   42.2830 C   0  0  0  0  0  0  0  0  0  0  0  0
   40.8760   28.8940   42.3480 H   0  0  0  0  0  0  0  0  0  0  0  0
   39.2870   30.1480   41.5950 C   0  0  0  0  0  3  0  0  0  0  0  0
   37.9240   30.3250   41.5160 C   0  0  0  0  0  0  0  0  0  0  0  0
   37.3710   31.7080   40.6220 Cl  0  0  0  0  0  0  0  0  0  0  0  0
   37.1160   29.3850   42.1540 C   0  0  0  0  0  0  0  0  0  0  0  0
   36.0660   29.6030   42.0390 H   0  0  0  0  0  0  0  0  0  0  0  0
   39.6250   25.6870   41.4370 C   0  0  0  0  0  0  0  0  0  0  0  0
   40.4910   25.0520   41.1260 H   0  0  0  0  0  0  0  0  0  0  0  0
   39.8320   26.7160   41.0460 H   0  0  0  0  0  0  0  0  0  0  0  0
   38.3840   25.2850   40.7270 C   0  0  0  0  0  0  0  0  0  0  0  0
   37.5710   24.3620   41.3390 C   0  0  0  0  0  0  0  0  0  0  0  0
   36.3850   23.9980   40.6820 C   0  0  0  0  0  0  0  0  0  0  0  0
   36.1210   24.5870   39.4800 N   0  0  0  0  0  0  0  0  0  0  0  0
   36.9600   25.4960   38.9200 C   0  0  0  0  0  0  0  0  0  0  0  0
   38.1030   25.8470   39.5510 N   0  0  0  0  0  0  0  0  0  0  0  0
   37.6260   23.8080   42.2560 H   0  0  0  0  0  0  0  0  0  0  0  0
   35.6460   23.3080   41.0020 H   0  0  0  0  0  0  0  0  0  0  0  0
   36.7560   25.9640   37.9700 H   0  0  0  0  0  0  0  0  0  0  0  0
  1  4  1  1  0  0  0
  1  2  1  0  0  0  0
  1  3  1  0  0  0  0
  2  3  1  0  0  0  0
  2  5  1  0  0  0  0
  3  7  1  1  0  0  0
  6  2  1  0  0  0  0
  9 10  1  0  0  0  0
  9  8  1  0  0  0  0
 10  3  1  0  0  0  0
 11 12  1  0  0  0  0
 11 10  2  0  0  0  0
 13 11  1  0  0  0  0
 14 13  2  0  0  0  0
 14 16  1  0  0  0  0
 15 14  1  0  0  0  0
 16  9  2  0  0  0  0
 17 16  1  0  0  0  0
 18  1  1  0  0  0  0
 19 18  1  0  0  0  0
 20 18  1  0  0  0  0
 21 22  1  0  0  0  0
 21 18  1  0  0  0  0
 22 27  1  0  0  0  0
 23 28  1  0  0  0  0
 23 22  2  0  0  0  0
 24 23  1  0  0  0  0
 25 24  2  0  0  0  0
 25 26  1  0  0  0  0
 26 21  2  0  0  0  0
 29 25  1  0  0  0  0
M  END
>  <minimizedAffinity>
-4.80754662

$$$$

 OpenBabel03252500423D

 29 31  0  0  1  0  0  0  0  0999 V2000
   38.0160   31.5360   37.8820 C   0  0  1  0  0  0  0  0  0  0  0  0
   37.1360   30.4610   37.2520 C   0  0  0  0  0  0  0  0  0  0  0  0
   36.8290   31.0050   38.5960 C   0  0  1  0  0  0  0  0  0  0  0  0
   37.8510   32.6100   37.6460 H   0  0  0  0  0  0  0  0  0  0  0  0
   36.5510   30.8200   36.3770 H   0  0  0  0  0  0  0  0  0  0  0  0
   37.5590   29.4730   37.0940 H   0  0  0  0  0  0  0  0  0  0  0  0
   35.8600   31.5950   38.6190 H   0  0  0  0  0  0  0  0  0  0  0  0
   34.8130   28.9080   38.9660 Cl  0  0  0  0  0  0  0  0  0  0  0  0
   36.1190   29.3320   40.0640 C   0  0  0  0  0  0  0  0  0  0  0  0
   37.0650   30.3180   39.8560 C   0  0  0  0  0  0  0  0  0  0  0  0
   37.9870   30.4580   40.8700 C   0  0  0  0  0  0  0  0  0  0  0  0
   38.7010   31.2490   40.6970 H   0  0  0  0  0  0  0  0  0  0  0  0
   37.9940   29.6890   42.0130 C   0  0  0  0  0  3  0  0  0  0  0  0
   37.0440   28.7100   42.2020 C   0  0  0  0  0  0  0  0  0  0  0  0
   37.1490   27.8020   43.6800 Cl  0  0  0  0  0  0  0  0  0  0  0  0
   36.0900   28.5380   41.1990 C   0  0  0  0  0  0  0  0  0  0  0  0
   35.3900   27.7520   41.4330 H   0  0  0  0  0  0  0  0  0  0  0  0
   39.3770   31.0620   38.2360 C   0  0  0  0  0  0  0  0  0  0  0  0
   39.7150   30.2700   37.5230 H   0  0  0  0  0  0  0  0  0  0  0  0
   39.4250   30.6060   39.2580 H   0  0  0  0  0  0  0  0  0  0  0  0
   40.3560   32.1760   38.3030 C   0  0  0  0  0  0  0  0  0  0  0  0
   40.3480   32.9640   39.4290 C   0  0  0  0  0  0  0  0  0  0  0  0
   41.2890   34.0040   39.5050 C   0  0  0  0  0  0  0  0  0  0  0  0
   42.1450   34.1610   38.4550 N   0  0  0  0  0  0  0  0  0  0  0  0
   42.1090   33.3530   37.3640 C   0  0  0  0  0  0  0  0  0  0  0  0
   41.2040   32.3510   37.2890 N   0  0  0  0  0  0  0  0  0  0  0  0
   39.7570   32.9840   40.3230 H   0  0  0  0  0  0  0  0  0  0  0  0
   41.4260   34.7030   40.2900 H   0  0  0  0  0  0  0  0  0  0  0  0
   42.7840   33.4740   36.5320 H   0  0  0  0  0  0  0  0  0  0  0  0
  1  4  1  6  0  0  0
  1 18  1  0  0  0  0
  1  3  1  0  0  0  0
  2  1  1  0  0  0  0
  2  3  1  0  0  0  0
  3  7  1  1  0  0  0
  3 10  1  0  0  0  0
  5  2  1  0  0  0  0
  6  2  1  0  0  0  0
  8  9  1  0  0  0  0
  9 16  1  0  0  0  0
 10  9  2  0  0  0  0
 10 11  1  0  0  0  0
 11 13  2  0  0  0  0
 12 11  1  0  0  0  0
 13 14  1  0  0  0  0
 14 15  1  0  0  0  0
 16 17  1  0  0  0  0
 16 14  2  0  0  0  0
 18 21  1  0  0  0  0
 18 20  1  0  0  0  0
 19 18  1  0  0  0  0
 21 22  1  0  0  0  0
 22 23  2  0  0  0  0
 22 27  1  0  0  0  0
 23 28  1  0  0  0  0
 24 23  1  0  0  0  0
 25 24  2  0  0  0  0
 26 25  1  0  0  0  0
 26 21  2  0  0  0  0
 29 25  1  0  0  0  0
M  END
>  <minimizedAffinity>
-4.79874849

$$$$

 OpenBabel03252500423D

 29 31  0  0  1  0  0  0  0  0999 V2000
   37.3710   28.6620   43.1290 C   0  0  1  0  0  0  0  0  0  0  0  0
   36.4670   27.5640   43.6800 C   0  0  0  0  0  0  0  0  0  0  0  0
   37.9140   27.3240   43.4720 C   0  0  1  0  0  0  0  0  0  0  0  0
   37.8140   29.4220   43.8100 H   0  0  0  0  0  0  0  0  0  0  0  0
   36.0940   27.7670   44.7080 H   0  0  0  0  0  0  0  0  0  0  0  0
   35.6970   27.1530   43.0320 H   0  0  0  0  0  0  0  0  0  0  0  0
   38.4750   27.1650   44.4450 H   0  0  0  0  0  0  0  0  0  0  0  0
   40.8010   27.8210   43.3350 Cl  0  0  0  0  0  0  0  0  0  0  0  0
   39.8510   26.7720   42.2900 C   0  0  0  0  0  0  0  0  0  0  0  0
   38.4910   26.5460   42.3870 C   0  0  0  0  0  0  0  0  0  0  0  0
   37.9810   25.6800   41.4460 C   0  0  0  0  0  0  0  0  0  0  0  0
   36.9140   25.5370   41.5270 H   0  0  0  0  0  0  0  0  0  0  0  0
   38.7390   25.0680   40.4730 C   0  0  0  0  0  3  0  0  0  0  0  0
   40.0940   25.3050   40.3920 C   0  0  0  0  0  0  0  0  0  0  0  0
   40.9510   24.4810   39.1250 Cl  0  0  0  0  0  0  0  0  0  0  0  0
   40.6510   26.1780   41.3260 C   0  0  0  0  0  0  0  0  0  0  0  0
   41.7120   26.3030   41.1860 H   0  0  0  0  0  0  0  0  0  0  0  0
   37.0880   29.0160   41.7160 C   0  0  0  0  0  0  0  0  0  0  0  0
   35.9910   28.9630   41.5100 H   0  0  0  0  0  0  0  0  0  0  0  0
   37.5790   28.3200   40.9890 H   0  0  0  0  0  0  0  0  0  0  0  0
   37.6380   30.3470   41.3540 C   0  0  0  0  0  0  0  0  0  0  0  0
   38.9230   30.6330   41.7470 C   0  0  0  0  0  0  0  0  0  0  0  0
   39.4540   31.8820   41.3860 C   0  0  0  0  0  0  0  0  0  0  0  0
   38.6580   32.7250   40.6680 N   0  0  0  0  0  0  0  0  0  0  0  0
   37.3930   32.3910   40.3040 C   0  0  0  0  0  0  0  0  0  0  0  0
   36.8790   31.1890   40.6520 N   0  0  0  0  0  0  0  0  0  0  0  0
   39.6700   30.1040   42.3060 H   0  0  0  0  0  0  0  0  0  0  0  0
   40.4170   32.2690   41.6020 H   0  0  0  0  0  0  0  0  0  0  0  0
   36.7600   33.0540   39.7370 H   0  0  0  0  0  0  0  0  0  0  0  0
  1  3  1  0  0  0  0
  1  2  1  0  0  0  0
  1  4  1  1  0  0  0
  2  5  1  0  0  0  0
  3  2  1  0  0  0  0
  3  7  1  1  0  0  0
  6  2  1  0  0  0  0
  9 10  1  0  0  0  0
  9  8  1  0  0  0  0
 10  3  1  0  0  0  0
 11 12  1  0  0  0  0
 11 10  2  0  0  0  0
 13 11  1  0  0  0  0
 14 13  2  0  0  0  0
 14 16  1  0  0  0  0
 15 14  1  0  0  0  0
 16  9  2  0  0  0  0
 17 16  1  0  0  0  0
 18  1  1  0  0  0  0
 19 18  1  0  0  0  0
 20 18  1  0  0  0  0
 21 18  1  0  0  0  0
 21 22  1  0  0  0  0
 22 27  1  0  0  0  0
 23 28  1  0  0  0  0
 23 22  2  0  0  0  0
 24 23  1  0  0  0  0
 25 26  1  0  0  0  0
 25 24  2  0  0  0  0
 26 21  2  0  0  0  0
 29 25  1  0  0  0  0
M  END
>  <minimizedAffinity>
-4.72145796

$$$$
