
 OpenBabel03242520573D

 42 44  0  0  0  0  0  0  0  0999 V2000
   51.1070   31.9760   51.2970 C   0  0  0  0  0  0  0  0  0  0  0  0
   51.2410   30.7290   51.9750 C   0  0  0  0  0  0  0  0  0  0  0  0
   50.4960   29.6420   51.5470 C   0  0  0  0  0  0  0  0  0  0  0  0
   49.6860   29.8340   50.5050 N   0  0  0  0  0  0  0  0  0  0  0  0
   49.5580   31.0120   49.8640 C   0  0  0  0  0  0  0  0  0  0  0  0
   50.2660   32.0840   50.2560 N   0  0  0  0  0  0  0  0  0  0  0  0
   51.6340   32.8850   51.5420 H   0  0  0  0  0  0  0  0  0  0  0  0
   53.9220   30.3500   50.8540 Cl  0  0  0  0  0  0  0  0  0  0  0  0
   53.4890   30.6520   52.5450 C   0  0  0  0  0  0  0  0  0  0  0  0
   52.1990   30.8420   53.0580 C   0  0  0  0  0  0  0  0  0  0  0  0
   52.0790   31.0640   54.4050 C   0  0  0  0  0  0  0  0  0  0  0  0
   51.0250   31.1930   54.6640 H   0  0  0  0  0  0  0  0  0  0  0  0
   53.1830   31.1000   55.2270 C   0  0  0  0  0  0  0  0  0  0  0  0
   54.4510   30.9130   54.7180 C   0  0  0  0  0  0  0  0  0  0  0  0
   55.8050   30.9740   55.8330 Cl  0  0  0  0  0  0  0  0  0  0  0  0
   54.6130   30.6880   53.3720 C   0  0  0  0  0  0  0  0  0  0  0  0
   55.6240   30.5530   53.0580 H   0  0  0  0  0  0  0  0  0  0  0  0
   48.6390   31.1420   48.7320 C   0  0  0  0  0  0  0  0  0  0  0  0
   47.5640   31.8960   48.7870 C   0  0  0  0  0  0  0  0  0  0  0  0
   46.6490   32.0060   47.6210 C   0  0  0  0  0  0  0  0  0  0  0  0
   46.5000   30.9760   47.2830 H   0  0  0  0  0  0  0  0  0  0  0  0
   45.6360   32.3440   47.9650 H   0  0  0  0  0  0  0  0  0  0  0  0
   46.6120   32.7010   45.3870 C   0  0  0  0  0  0  0  0  0  0  0  0
   45.8470   31.8540   44.8880 O   0  0  0  0  0  0  0  0  0  0  0  0
   47.0980   32.9360   46.6700 N   0  0  0  0  0  0  0  0  0  0  0  0
   47.7320   33.7440   46.8320 H   0  0  0  0  0  0  0  0  0  0  0  0
   44.9130   35.0930   44.5410 Cl  0  0  0  0  0  0  0  0  0  0  0  0
   46.3060   34.5860   43.6450 C   0  0  0  0  0  0  0  0  0  0  0  0
   46.9300   33.4930   44.1920 C   0  0  0  0  0  0  0  0  0  0  0  0
   48.0770   32.9540   43.5900 C   0  0  0  0  0  0  0  0  0  0  0  0
   48.5890   33.5290   42.4290 C   0  0  0  0  0  0  0  0  0  0  0  0
   47.9410   34.6350   41.8920 C   0  0  0  0  0  0  0  0  0  0  0  0
   48.5340   35.4000   40.4380 Cl  0  0  0  0  0  0  0  0  0  0  0  0
   46.8220   35.1450   42.4980 C   0  0  0  0  0  0  0  0  0  0  0  0
   48.6500   32.1200   43.9070 H   0  0  0  0  0  0  0  0  0  0  0  0
   49.4660   33.1670   41.9120 H   0  0  0  0  0  0  0  0  0  0  0  0
   46.2700   36.0060   42.1300 H   0  0  0  0  0  0  0  0  0  0  0  0
   50.5910   28.4420   52.1590 O   0  0  0  0  0  0  0  0  0  0  0  0
   51.5170   27.4910   51.6100 C   0  0  0  0  0  0  0  0  0  0  0  0
   51.9620   27.9450   50.3730 F   0  0  0  0  0  0  0  0  0  0  0  0
   52.6060   27.4760   52.4860 F   0  0  0  0  0  0  0  0  0  0  0  0
   50.9950   26.2030   51.5330 F   0  0  0  0  0  0  0  0  0  0  0  0
  1  7  1  0  0  0  0
  1  2  1  0  0  0  0
  2 10  1  0  0  0  0
  3  2  2  0  0  0  0
  3 38  1  0  0  0  0
  4  3  1  0  0  0  0
  5  6  1  0  0  0  0
  5  4  2  0  0  0  0
  6  1  2  0  0  0  0
  8  9  1  0  0  0  0
  9 10  2  0  0  0  0
  9 16  1  0  0  0  0
 10 11  1  0  0  0  0
 11 12  1  0  0  0  0
 11 13  2  0  0  0  0
 14 13  1  0  0  0  0
 14 15  1  0  0  0  0
 16 14  2  0  0  0  0
 17 16  1  0  0  0  0
 18 19  2  0  0  0  0
 18  5  1  0  0  0  0
 20 22  1  0  0  0  0
 20 19  1  0  0  0  0
 21 20  1  0  0  0  0
 23 25  1  0  0  0  0
 24 23  2  0  0  0  0
 25 26  1  0  0  0  0
 25 20  1  0  0  0  0
 28 29  1  0  0  0  0
 28 27  1  0  0  0  0
 29 23  1  0  0  0  0
 30 35  1  0  0  0  0
 30 29  2  0  0  0  0
 31 30  1  0  0  0  0
 32 31  2  0  0  0  0
 32 34  1  0  0  0  0
 33 32  1  0  0  0  0
 34 28  2  0  0  0  0
 36 31  1  0  0  0  0
 37 34  1  0  0  0  0
 39 38  1  0  0  0  0
 39 41  1  0  0  0  0
 40 39  1  0  0  0  0
 42 39  1  0  0  0  0
M  END
>  <minimizedAffinity>
-7.38413286

>  <minimizedRMSD>
0.706887722

$$$$
