
 OpenBabel03252508333D

 33 35  0  0  1  0  0  0  0  0999 V2000
   45.5300   33.7630   42.9590 N   0  0  0  0  0  0  0  0  0  0  0  0
   45.8530   33.2180   41.6910 C   0  0  1  0  0  0  0  0  0  0  0  0
   45.4760   34.0590   40.5260 C   0  0  0  0  0  0  0  0  0  0  0  0
   44.3180   34.8270   40.6330 N   0  0  0  0  0  0  0  0  0  0  0  0
   43.8500   35.1780   41.9040 C   0  0  0  0  0  0  0  0  0  0  0  0
   44.9860   35.0870   42.9100 C   0  0  0  0  0  0  0  0  0  0  0  0
   45.3430   32.2330   41.5840 H   0  0  0  0  0  0  0  0  0  0  0  0
   46.3390   34.7530   40.2990 H   0  0  0  0  0  0  0  0  0  0  0  0
   45.4210   33.4100   39.6110 H   0  0  0  0  0  0  0  0  0  0  0  0
   43.6440   34.8080   39.8680 H   0  0  0  0  0  0  0  0  0  0  0  0
   43.0840   34.4160   42.2200 H   0  0  0  0  0  0  0  0  0  0  0  0
   43.3590   36.1490   42.0150 H   0  0  0  0  0  0  0  0  0  0  0  0
   45.7980   35.8080   42.5990 H   0  0  0  0  0  0  0  0  0  0  0  0
   44.5820   35.4850   43.8420 H   0  0  0  0  0  0  0  0  0  0  0  0
   47.8350   35.4910   42.0170 Cl  0  0  0  0  0  0  0  0  0  0  0  0
   48.3680   33.8600   41.6580 C   0  0  0  0  0  0  0  0  0  0  0  0
   47.3280   32.9460   41.5410 C   0  0  0  0  0  0  0  0  0  0  0  0
   47.6770   31.6240   41.2550 C   0  0  0  0  0  0  0  0  0  0  0  0
   47.0080   30.7890   41.1310 H   0  0  0  0  0  0  0  0  0  0  0  0
   48.9970   31.2440   41.0940 C   0  0  0  0  0  3  0  0  0  0  0  0
   50.0130   32.1690   41.2130 C   0  0  0  0  0  0  0  0  0  0  0  0
   51.7180   31.8250   41.0340 Cl  0  0  0  0  0  0  0  0  0  0  0  0
   49.6590   33.4670   41.4950 C   0  0  0  0  0  0  0  0  0  0  0  0
   50.3500   34.3070   41.6180 H   0  0  0  0  0  0  0  0  0  0  0  0
   46.2820   33.6570   45.2270 C   0  0  0  0  0  0  0  0  0  0  0  0
   45.7750   32.9620   44.1110 C   0  0  0  0  0  0  0  0  0  0  0  0
   45.5620   31.5990   44.2270 C   0  0  0  0  0  0  0  0  0  0  0  0
   45.8490   30.9900   45.4000 N   0  0  0  0  0  0  0  0  0  0  0  0
   46.3370   31.6740   46.4660 C   0  0  0  0  0  0  0  0  0  0  0  0
   46.5490   33.0010   46.3700 N   0  0  0  0  0  0  0  0  0  0  0  0
   46.5110   34.7050   45.3310 H   0  0  0  0  0  0  0  0  0  0  0  0
   45.1710   31.0930   43.3610 H   0  0  0  0  0  0  0  0  0  0  0  0
   46.5130   31.0390   47.3280 H   0  0  0  0  0  0  0  0  0  0  0  0
  1 26  1  0  0  0  0
  2  7  1  6  0  0  0
  2  1  1  0  0  0  0
  3  4  1  0  0  0  0
  3  2  1  0  0  0  0
  4  5  1  0  0  0  0
  5 12  1  0  0  0  0
  5 11  1  0  0  0  0
  5  6  1  0  0  0  0
  6  1  1  0  0  0  0
  6 14  1  0  0  0  0
  8  3  1  0  0  0  0
  9  3  1  0  0  0  0
 10  4  1  0  0  0  0
 13  6  1  0  0  0  0
 16 15  1  0  0  0  0
 17 16  1  0  0  0  0
 17  2  1  0  0  0  0
 18 17  2  0  0  0  0
 19 18  1  0  0  0  0
 20 21  2  0  0  0  0
 20 18  1  0  0  0  0
 21 23  1  0  0  0  0
 22 21  1  0  0  0  0
 23 24  1  0  0  0  0
 23 16  2  0  0  0  0
 25 31  1  0  0  0  0
 25 30  1  0  0  0  0
 26 27  1  0  0  0  0
 26 25  2  0  0  0  0
 27 28  2  0  0  0  0
 28 29  1  0  0  0  0
 29 33  1  0  0  0  0
 30 29  2  0  0  0  0
 32 27  1  0  0  0  0
M  END
>  <minimizedAffinity>
-4.50032187

>  <minimizedRMSD>
1.9321512

$$$$
