
 OpenBabel03242521333D

 32 35  0  0  0  0  0  0  0  0999 V2000
   44.4300   36.0930   44.3860 C   0  0  0  0  0  0  0  0  0  0  0  0
   45.0280   35.9960   43.0930 C   0  0  0  0  0  0  0  0  0  0  0  0
   45.9240   34.9550   42.8900 C   0  0  0  0  0  0  0  0  0  0  0  0
   46.1870   34.0870   43.9110 N   0  0  0  0  0  0  0  0  0  0  0  0
   45.5930   34.2190   45.1230 C   0  0  0  0  0  0  0  0  0  0  0  0
   44.7270   35.2110   45.3500 N   0  0  0  0  0  0  0  0  0  0  0  0
   43.7280   36.9340   44.4970 H   0  0  0  0  0  0  0  0  0  0  0  0
   44.8190   36.6730   42.3040 H   0  0  0  0  0  0  0  0  0  0  0  0
   47.8970   35.1920   41.5030 C   0  0  0  0  0  0  0  0  0  0  0  0
   46.6090   34.7280   41.6320 C   0  0  0  0  0  0  0  0  0  0  0  0
   46.0550   34.0760   40.5580 C   0  0  0  0  0  0  0  0  0  0  0  0
   46.7150   33.8640   39.3670 C   0  0  0  0  0  0  0  0  0  0  0  0
   46.3520   33.2510   38.2030 N   0  0  0  0  0  0  0  0  0  0  0  0
   47.4350   33.3470   37.3570 C   0  0  0  0  0  0  0  0  0  0  0  0
   48.4320   34.0080   38.0090 N   0  0  0  0  0  0  0  0  0  0  0  0
   48.0100   34.3330   39.2430 C   0  0  0  0  0  0  0  0  0  0  0  0
   48.5870   34.9880   40.3000 C   0  0  0  0  0  0  0  0  0  0  0  0
   48.4460   35.7220   42.2760 H   0  0  0  0  0  0  0  0  0  0  0  0
   45.0410   33.7250   40.7010 H   0  0  0  0  0  0  0  0  0  0  0  0
   45.4130   32.8220   38.0730 H   0  0  0  0  0  0  0  0  0  0  0  0
   47.3080   32.9020   36.3750 H   0  0  0  0  0  0  0  0  0  0  0  0
   49.6100   35.3480   40.1740 H   0  0  0  0  0  0  0  0  0  0  0  0
   47.6740   32.1840   44.4210 Cl  0  0  0  0  0  0  0  0  0  0  0  0
   46.8550   32.2790   45.9710 C   0  0  0  0  0  0  0  0  0  0  0  0
   45.9100   33.2650   46.1800 C   0  0  0  0  0  0  0  0  0  0  0  0
   45.2780   33.3280   47.3980 C   0  0  0  0  0  0  0  0  0  0  0  0
   44.5200   34.0950   47.6080 H   0  0  0  0  0  0  0  0  0  0  0  0
   45.5760   32.4200   48.4080 C   0  0  0  0  0  0  0  0  0  0  0  0
   46.5260   31.4220   48.2100 C   0  0  0  0  0  0  0  0  0  0  0  0
   46.9380   30.2550   49.4480 Cl  0  0  0  0  0  0  0  0  0  0  0  0
   47.1690   31.3590   46.9710 C   0  0  0  0  0  0  0  0  0  0  0  0
   47.9190   30.6050   46.7560 H   0  0  0  0  0  0  0  0  0  0  0  0
  1  7  1  0  0  0  0
  1  6  1  0  0  0  0
  2  1  2  0  0  0  0
  3  2  1  0  0  0  0
  3  4  2  0  0  0  0
  4  5  1  0  0  0  0
  5  6  2  0  0  0  0
  5 25  1  0  0  0  0
  8  2  1  0  0  0  0
  9 10  1  0  0  0  0
  9 18  1  0  0  0  0
 10  3  1  0  0  0  0
 11 19  1  0  0  0  0
 11 10  2  0  0  0  0
 12 11  1  0  0  0  0
 13 12  1  0  0  0  0
 14 15  2  0  0  0  0
 14 13  1  0  0  0  0
 15 16  1  0  0  0  0
 16 12  2  0  0  0  0
 16 17  1  0  0  0  0
 17  9  2  0  0  0  0
 20 13  1  0  0  0  0
 21 14  1  0  0  0  0
 22 17  1  0  0  0  0
 23 24  1  0  0  0  0
 24 25  2  0  0  0  0
 24 31  1  0  0  0  0
 25 26  1  0  0  0  0
 26 27  1  0  0  0  0
 26 28  2  0  0  0  0
 29 28  1  0  0  0  0
 29 30  1  0  0  0  0
 31 29  2  0  0  0  0
 32 31  1  0  0  0  0
M  END
>  <minimizedAffinity>
-6.46537971

>  <minimizedRMSD>
0.552629471

$$$$
