
 OpenBabel03242523213D

 38 41  0  0  0  0  0  0  0  0999 V2000
   39.2780   27.6630   39.5990 Cl  0  0  0  0  0  0  0  0  0  0  0  0
   38.6260   28.1180   41.1750 C   0  0  0  0  0  0  0  0  0  0  0  0
   38.9650   29.4120   41.6180 C   0  0  0  0  0  0  0  0  0  0  0  0
   38.4010   29.6630   42.8590 C   0  0  0  0  0  0  0  0  0  0  0  0
   37.6290   28.8820   43.6270 C   0  0  0  0  0  0  0  0  0  0  0  0
   37.3470   27.6440   43.1240 C   0  0  0  0  0  0  0  0  0  0  0  0
   37.8260   27.2510   41.9250 C   0  0  0  0  0  0  0  0  0  0  0  0
   38.5980   30.6300   43.3680 H   0  0  0  0  0  0  0  0  0  0  0  0
   37.2140   29.1320   44.5900 H   0  0  0  0  0  0  0  0  0  0  0  0
   36.7430   26.8850   43.6030 H   0  0  0  0  0  0  0  0  0  0  0  0
   39.6730   25.2290   42.9850 Cl  0  0  0  0  0  0  0  0  0  0  0  0
   38.4490   24.9600   41.7410 C   0  0  0  0  0  0  0  0  0  0  0  0
   37.5980   25.9390   41.2690 C   0  0  0  0  0  0  0  0  0  0  0  0
   36.6610   25.6650   40.2940 C   0  0  0  0  0  0  0  0  0  0  0  0
   36.0450   26.5040   39.9970 H   0  0  0  0  0  0  0  0  0  0  0  0
   36.5970   24.3730   39.8000 C   0  0  0  0  0  3  0  0  0  0  0  0
   37.4590   23.3960   40.2830 C   0  0  0  0  0  0  0  0  0  0  0  0
   37.3150   21.7860   39.6060 Cl  0  0  0  0  0  0  0  0  0  0  0  0
   38.4060   23.6660   41.2660 C   0  0  0  0  0  0  0  0  0  0  0  0
   39.0540   22.8690   41.6080 H   0  0  0  0  0  0  0  0  0  0  0  0
   39.7930   30.4160   40.8910 C   0  0  0  0  0  0  0  0  0  0  0  0
   40.8540   29.8470   40.9640 O   0  0  0  0  0  0  0  0  0  0  0  0
   38.9250   31.5290   40.4800 C   0  0  0  0  0  0  0  0  0  0  0  0
   37.9130   31.4700   39.6030 C   0  0  0  0  0  0  0  0  0  0  0  0
   37.3200   32.6840   39.3200 C   0  0  0  0  0  0  0  0  0  0  0  0
   37.8120   33.8370   39.9580 N   0  0  0  0  0  0  0  0  0  0  0  0
   38.8100   33.8140   40.8120 C   0  0  0  0  0  0  0  0  0  0  0  0
   39.4270   32.6180   41.1170 N   0  0  0  0  0  0  0  0  0  0  0  0
   36.4940   32.8210   38.6350 H   0  0  0  0  0  0  0  0  0  0  0  0
   39.0790   34.7810   41.2280 H   0  0  0  0  0  0  0  0  0  0  0  0
   37.3430   30.2880   39.0520 C   0  0  0  0  0  0  0  0  0  0  0  0
   36.2310   30.1550   38.2810 C   0  0  0  0  0  0  0  0  0  0  0  0
   37.5090   30.0820   37.4880 C   0  0  0  0  0  0  0  0  0  0  0  0
   37.5260   29.3870   39.6640 H   0  0  0  0  0  0  0  0  0  0  0  0
   35.5770   29.2680   38.1240 H   0  0  0  0  0  0  0  0  0  0  0  0
   35.6200   31.0690   38.0140 H   0  0  0  0  0  0  0  0  0  0  0  0
   37.9920   29.1170   37.2720 H   0  0  0  0  0  0  0  0  0  0  0  0
   37.8800   30.9910   36.9820 H   0  0  0  0  0  0  0  0  0  0  0  0
  1  2  1  0  0  0  0
  2  3  2  0  0  0  0
  2  7  1  0  0  0  0
  3  4  1  0  0  0  0
  4  8  1  0  0  0  0
  4  5  2  0  0  0  0
  5  9  1  0  0  0  0
  6 10  1  0  0  0  0
  6  5  1  0  0  0  0
  7  6  2  0  0  0  0
 12 11  1  0  0  0  0
 13 12  1  0  0  0  0
 13  7  1  0  0  0  0
 14 13  2  0  0  0  0
 15 14  1  0  0  0  0
 16 17  2  0  0  0  0
 16 14  1  0  0  0  0
 17 19  1  0  0  0  0
 18 17  1  0  0  0  0
 19 20  1  0  0  0  0
 19 12  2  0  0  0  0
 21 22  2  0  0  0  0
 21  3  1  0  0  0  0
 23 21  1  0  0  0  0
 23 28  1  0  0  0  0
 24 23  2  0  0  0  0
 25 24  1  0  0  0  0
 25 26  2  0  0  0  0
 26 27  1  0  0  0  0
 27 28  2  0  0  0  0
 27 30  1  0  0  0  0
 29 25  1  0  0  0  0
 31 24  1  0  0  0  0
 31 34  1  0  0  0  0
 32 31  1  0  0  0  0
 33 32  1  0  0  0  0
 33 31  1  0  0  0  0
 35 32  1  0  0  0  0
 36 32  1  0  0  0  0
 37 33  1  0  0  0  0
 38 33  1  0  0  0  0
M  END
>  <minimizedAffinity>
-6.09805632

$$$$

 OpenBabel03242523213D

 38 41  0  0  0  0  0  0  0  0999 V2000
   33.1120   29.1590   38.9120 Cl  0  0  0  0  0  0  0  0  0  0  0  0
   34.1450   29.1490   37.4800 C   0  0  0  0  0  0  0  0  0  0  0  0
   33.4690   29.0280   36.2500 C   0  0  0  0  0  0  0  0  0  0  0  0
   34.3730   29.0340   35.1990 C   0  0  0  0  0  0  0  0  0  0  0  0
   35.7090   29.1350   35.2130 C   0  0  0  0  0  0  0  0  0  0  0  0
   36.2840   29.2500   36.4460 C   0  0  0  0  0  0  0  0  0  0  0  0
   35.5360   29.2580   37.5680 C   0  0  0  0  0  0  0  0  0  0  0  0
   34.0060   28.9130   34.1570 H   0  0  0  0  0  0  0  0  0  0  0  0
   36.3650   29.1360   34.3570 H   0  0  0  0  0  0  0  0  0  0  0  0
   37.3430   29.3410   36.6470 H   0  0  0  0  0  0  0  0  0  0  0  0
   36.0710   26.6010   38.6980 Cl  0  0  0  0  0  0  0  0  0  0  0  0
   36.2970   28.1430   39.5290 C   0  0  0  0  0  0  0  0  0  0  0  0
   36.0340   29.3730   38.9620 C   0  0  0  0  0  0  0  0  0  0  0  0
   36.2320   30.5430   39.6650 C   0  0  0  0  0  0  0  0  0  0  0  0
   35.9940   31.4510   39.1260 H   0  0  0  0  0  0  0  0  0  0  0  0
   36.7050   30.4490   40.9620 C   0  0  0  0  0  3  0  0  0  0  0  0
   36.9670   29.2050   41.5230 C   0  0  0  0  0  0  0  0  0  0  0  0
   37.5640   29.1710   43.1700 Cl  0  0  0  0  0  0  0  0  0  0  0  0
   36.7690   28.0210   40.8190 C   0  0  0  0  0  0  0  0  0  0  0  0
   36.9890   27.0760   41.3020 H   0  0  0  0  0  0  0  0  0  0  0  0
   31.9960   28.9240   36.0460 C   0  0  0  0  0  0  0  0  0  0  0  0
   31.8960   27.7260   36.1360 O   0  0  0  0  0  0  0  0  0  0  0  0
   31.4550   30.2760   35.8500 C   0  0  0  0  0  0  0  0  0  0  0  0
   30.6290   30.9330   36.6760 C   0  0  0  0  0  0  0  0  0  0  0  0
   30.1900   32.1550   36.2070 C   0  0  0  0  0  0  0  0  0  0  0  0
   30.6340   32.5890   34.9460 N   0  0  0  0  0  0  0  0  0  0  0  0
   31.4500   31.8870   34.1920 C   0  0  0  0  0  0  0  0  0  0  0  0
   31.9070   30.6610   34.6290 N   0  0  0  0  0  0  0  0  0  0  0  0
   29.5180   32.8140   36.7410 H   0  0  0  0  0  0  0  0  0  0  0  0
   31.7100   32.3500   33.2440 H   0  0  0  0  0  0  0  0  0  0  0  0
   30.2760   30.5450   38.0000 C   0  0  0  0  0  0  0  0  0  0  0  0
   29.1820   30.8890   38.7290 C   0  0  0  0  0  0  0  0  0  0  0  0
   29.0870   29.5050   38.1420 C   0  0  0  0  0  0  0  0  0  0  0  0
   31.1510   30.3450   38.6450 H   0  0  0  0  0  0  0  0  0  0  0  0
   29.0370   30.8990   39.8330 H   0  0  0  0  0  0  0  0  0  0  0  0
   28.4110   31.5890   38.2870 H   0  0  0  0  0  0  0  0  0  0  0  0
   29.4090   28.6210   38.7130 H   0  0  0  0  0  0  0  0  0  0  0  0
   28.5400   29.3610   37.1940 H   0  0  0  0  0  0  0  0  0  0  0  0
  2  7  1  0  0  0  0
  2  1  1  0  0  0  0
  3  2  2  0  0  0  0
  4  5  2  0  0  0  0
  4  3  1  0  0  0  0
  5  6  1  0  0  0  0
  6 10  1  0  0  0  0
  6  7  2  0  0  0  0
  7 13  1  0  0  0  0
  8  4  1  0  0  0  0
  9  5  1  0  0  0  0
 11 12  1  0  0  0  0
 12 19  1  0  0  0  0
 13 12  2  0  0  0  0
 13 14  1  0  0  0  0
 14 16  2  0  0  0  0
 15 14  1  0  0  0  0
 16 17  1  0  0  0  0
 17 18  1  0  0  0  0
 19 20  1  0  0  0  0
 19 17  2  0  0  0  0
 21 22  2  0  0  0  0
 21  3  1  0  0  0  0
 23 21  1  0  0  0  0
 23 24  1  0  0  0  0
 24 31  1  0  0  0  0
 25 24  2  0  0  0  0
 25 29  1  0  0  0  0
 26 25  1  0  0  0  0
 27 28  1  0  0  0  0
 27 26  2  0  0  0  0
 28 23  2  0  0  0  0
 30 27  1  0  0  0  0
 31 33  1  0  0  0  0
 31 34  1  0  0  0  0
 31 32  1  0  0  0  0
 32 35  1  0  0  0  0
 33 37  1  0  0  0  0
 33 32  1  0  0  0  0
 36 32  1  0  0  0  0
 38 33  1  0  0  0  0
M  END
>  <minimizedAffinity>
-6.03427124

$$$$

 OpenBabel03242523213D

 38 41  0  0  0  0  0  0  0  0999 V2000
   36.8510   27.3060   40.8430 Cl  0  0  0  0  0  0  0  0  0  0  0  0
   38.1050   26.6940   41.9240 C   0  0  0  0  0  0  0  0  0  0  0  0
   38.6630   27.6460   42.8000 C   0  0  0  0  0  0  0  0  0  0  0  0
   39.6300   27.0590   43.6000 C   0  0  0  0  0  0  0  0  0  0  0  0
   40.0630   25.7910   43.6380 C   0  0  0  0  0  0  0  0  0  0  0  0
   39.4690   24.9330   42.7570 C   0  0  0  0  0  0  0  0  0  0  0  0
   38.5090   25.3560   41.9080 C   0  0  0  0  0  0  0  0  0  0  0  0
   40.1950   27.6800   44.3280 H   0  0  0  0  0  0  0  0  0  0  0  0
   40.8220   25.3870   44.2880 H   0  0  0  0  0  0  0  0  0  0  0  0
   39.6910   23.8800   42.6470 H   0  0  0  0  0  0  0  0  0  0  0  0
   40.1830   24.9190   39.5370 Cl  0  0  0  0  0  0  0  0  0  0  0  0
   38.5460   24.3040   39.7740 C   0  0  0  0  0  0  0  0  0  0  0  0
   37.7900   24.5310   40.9050 C   0  0  0  0  0  0  0  0  0  0  0  0
   36.5140   24.0220   41.0290 C   0  0  0  0  0  0  0  0  0  0  0  0
   36.0100   24.2600   41.9580 H   0  0  0  0  0  0  0  0  0  0  0  0
   36.0090   23.2710   39.9820 C   0  0  0  0  0  3  0  0  0  0  0  0
   36.7800   23.0480   38.8460 C   0  0  0  0  0  0  0  0  0  0  0  0
   36.0690   22.0880   37.5650 Cl  0  0  0  0  0  0  0  0  0  0  0  0
   38.0670   23.5590   38.7150 C   0  0  0  0  0  0  0  0  0  0  0  0
   38.6260   23.3570   37.8100 H   0  0  0  0  0  0  0  0  0  0  0  0
   38.2930   29.0860   42.9080 C   0  0  0  0  0  0  0  0  0  0  0  0
   37.3680   28.9670   43.6740 O   0  0  0  0  0  0  0  0  0  0  0  0
   39.2070   29.8680   42.0640 C   0  0  0  0  0  0  0  0  0  0  0  0
   38.9260   30.4070   40.8700 C   0  0  0  0  0  0  0  0  0  0  0  0
   39.9960   31.0110   40.2400 C   0  0  0  0  0  0  0  0  0  0  0  0
   41.2450   31.0080   40.8860 N   0  0  0  0  0  0  0  0  0  0  0  0
   41.4420   30.4590   42.0630 C   0  0  0  0  0  0  0  0  0  0  0  0
   40.3950   29.8450   42.7200 N   0  0  0  0  0  0  0  0  0  0  0  0
   39.9490   31.4920   39.2720 H   0  0  0  0  0  0  0  0  0  0  0  0
   42.4580   30.5360   42.4400 H   0  0  0  0  0  0  0  0  0  0  0  0
   37.6370   30.5120   40.2750 C   0  0  0  0  0  0  0  0  0  0  0  0
   36.4740   30.9490   40.8250 C   0  0  0  0  0  0  0  0  0  0  0  0
   37.1260   31.9750   39.9390 C   0  0  0  0  0  0  0  0  0  0  0  0
   37.4580   29.7610   39.4830 H   0  0  0  0  0  0  0  0  0  0  0  0
   35.4220   30.7320   40.5310 H   0  0  0  0  0  0  0  0  0  0  0  0
   36.4540   31.2770   41.9080 H   0  0  0  0  0  0  0  0  0  0  0  0
   36.8610   32.0600   38.8740 H   0  0  0  0  0  0  0  0  0  0  0  0
   37.7590   32.7560   40.3960 H   0  0  0  0  0  0  0  0  0  0  0  0
  1  2  1  0  0  0  0
  2  3  1  0  0  0  0
  3 21  1  0  0  0  0
  3  4  2  0  0  0  0
  4  5  1  0  0  0  0
  4  8  1  0  0  0  0
  5  9  1  0  0  0  0
  6  5  2  0  0  0  0
  7  2  2  0  0  0  0
  7  6  1  0  0  0  0
 10  6  1  0  0  0  0
 11 12  1  0  0  0  0
 12 13  1  0  0  0  0
 13 14  2  0  0  0  0
 13  7  1  0  0  0  0
 14 15  1  0  0  0  0
 16 14  1  0  0  0  0
 17 16  2  0  0  0  0
 18 17  1  0  0  0  0
 19 17  1  0  0  0  0
 19 12  2  0  0  0  0
 20 19  1  0  0  0  0
 21 22  2  0  0  0  0
 23 28  1  0  0  0  0
 23 21  1  0  0  0  0
 24 23  2  0  0  0  0
 25 24  1  0  0  0  0
 25 26  2  0  0  0  0
 26 27  1  0  0  0  0
 27 30  1  0  0  0  0
 27 28  2  0  0  0  0
 29 25  1  0  0  0  0
 31 32  1  0  0  0  0
 31 24  1  0  0  0  0
 32 36  1  0  0  0  0
 33 31  1  0  0  0  0
 33 38  1  0  0  0  0
 33 32  1  0  0  0  0
 34 31  1  0  0  0  0
 35 32  1  0  0  0  0
 37 33  1  0  0  0  0
M  END
>  <minimizedAffinity>
-5.83007956

$$$$

 OpenBabel03242523213D

 38 41  0  0  0  0  0  0  0  0999 V2000
   39.9000   26.9240   40.3500 Cl  0  0  0  0  0  0  0  0  0  0  0  0
   38.8730   27.5340   41.6490 C   0  0  0  0  0  0  0  0  0  0  0  0
   39.2600   28.7750   42.1930 C   0  0  0  0  0  0  0  0  0  0  0  0
   38.3870   29.1570   43.1980 C   0  0  0  0  0  0  0  0  0  0  0  0
   37.3000   28.5350   43.6770 C   0  0  0  0  0  0  0  0  0  0  0  0
   36.9950   27.3390   43.0950 C   0  0  0  0  0  0  0  0  0  0  0  0
   37.7520   26.8300   42.1010 C   0  0  0  0  0  0  0  0  0  0  0  0
   38.5680   30.1000   43.7560 H   0  0  0  0  0  0  0  0  0  0  0  0
   36.6520   28.8830   44.4660 H   0  0  0  0  0  0  0  0  0  0  0  0
   36.1590   26.7010   43.3520 H   0  0  0  0  0  0  0  0  0  0  0  0
   36.1700   27.2560   39.6660 Cl  0  0  0  0  0  0  0  0  0  0  0  0
   36.7910   25.7050   40.2370 C   0  0  0  0  0  0  0  0  0  0  0  0
   37.5320   25.5460   41.3900 C   0  0  0  0  0  0  0  0  0  0  0  0
   37.9890   24.3050   41.7830 C   0  0  0  0  0  0  0  0  0  0  0  0
   38.5610   24.2940   42.7030 H   0  0  0  0  0  0  0  0  0  0  0  0
   37.6820   23.2170   40.9850 C   0  0  0  0  0  3  0  0  0  0  0  0
   36.9340   23.3890   39.8260 C   0  0  0  0  0  0  0  0  0  0  0  0
   36.5880   21.9620   38.8700 Cl  0  0  0  0  0  0  0  0  0  0  0  0
   36.4710   24.6380   39.4240 C   0  0  0  0  0  0  0  0  0  0  0  0
   35.8920   24.7180   38.5120 H   0  0  0  0  0  0  0  0  0  0  0  0
   40.4210   29.6110   41.7730 C   0  0  0  0  0  0  0  0  0  0  0  0
   41.0470   29.5620   42.8030 O   0  0  0  0  0  0  0  0  0  0  0  0
   40.2110   30.0400   40.3840 C   0  0  0  0  0  0  0  0  0  0  0  0
   39.1640   30.7310   39.9120 C   0  0  0  0  0  0  0  0  0  0  0  0
   39.1640   30.9200   38.5440 C   0  0  0  0  0  0  0  0  0  0  0  0
   40.2260   30.3900   37.7920 N   0  0  0  0  0  0  0  0  0  0  0  0
   41.2230   29.7230   38.3290 C   0  0  0  0  0  0  0  0  0  0  0  0
   41.2550   29.5140   39.6930 N   0  0  0  0  0  0  0  0  0  0  0  0
   38.3960   31.4520   37.9960 H   0  0  0  0  0  0  0  0  0  0  0  0
   41.9730   29.3750   37.6250 H   0  0  0  0  0  0  0  0  0  0  0  0
   38.1550   31.3670   40.6880 C   0  0  0  0  0  0  0  0  0  0  0  0
   37.1790   32.2230   40.2850 C   0  0  0  0  0  0  0  0  0  0  0  0
   36.6760   30.8220   40.5130 C   0  0  0  0  0  0  0  0  0  0  0  0
   38.4620   31.5600   41.7320 H   0  0  0  0  0  0  0  0  0  0  0  0
   36.6130   32.9830   40.8700 H   0  0  0  0  0  0  0  0  0  0  0  0
   37.1100   32.5240   39.1960 H   0  0  0  0  0  0  0  0  0  0  0  0
   36.2550   30.5180   41.4840 H   0  0  0  0  0  0  0  0  0  0  0  0
   36.5790   30.1390   39.6510 H   0  0  0  0  0  0  0  0  0  0  0  0
  1  2  1  0  0  0  0
  2  7  2  0  0  0  0
  2  3  1  0  0  0  0
  3  4  2  0  0  0  0
  4  5  1  0  0  0  0
  4  8  1  0  0  0  0
  5  9  1  0  0  0  0
  6 10  1  0  0  0  0
  6  5  2  0  0  0  0
  7  6  1  0  0  0  0
 11 12  1  0  0  0  0
 12 13  1  0  0  0  0
 13 14  2  0  0  0  0
 13  7  1  0  0  0  0
 14 15  1  0  0  0  0
 16 14  1  0  0  0  0
 17 16  2  0  0  0  0
 18 17  1  0  0  0  0
 19 17  1  0  0  0  0
 19 12  2  0  0  0  0
 20 19  1  0  0  0  0
 21  3  1  0  0  0  0
 21 22  2  0  0  0  0
 23 21  1  0  0  0  0
 24 23  1  0  0  0  0
 24 31  1  0  0  0  0
 25 24  2  0  0  0  0
 26 27  2  0  0  0  0
 26 25  1  0  0  0  0
 27 28  1  0  0  0  0
 28 23  2  0  0  0  0
 29 25  1  0  0  0  0
 30 27  1  0  0  0  0
 31 34  1  0  0  0  0
 32 33  1  0  0  0  0
 32 31  1  0  0  0  0
 32 35  1  0  0  0  0
 33 31  1  0  0  0  0
 33 37  1  0  0  0  0
 36 32  1  0  0  0  0
 38 33  1  0  0  0  0
M  END
>  <minimizedAffinity>
-5.79831696

$$$$

 OpenBabel03242523213D

 38 41  0  0  0  0  0  0  0  0999 V2000
   39.9970   29.1150   39.5240 Cl  0  0  0  0  0  0  0  0  0  0  0  0
   38.5200   29.9230   40.0540 C   0  0  0  0  0  0  0  0  0  0  0  0
   38.1610   31.0680   39.3160 C   0  0  0  0  0  0  0  0  0  0  0  0
   36.9910   31.6190   39.8150 C   0  0  0  0  0  0  0  0  0  0  0  0
   36.2200   31.2210   40.8350 C   0  0  0  0  0  0  0  0  0  0  0  0
   36.6380   30.1020   41.4970 C   0  0  0  0  0  0  0  0  0  0  0  0
   37.7630   29.4520   41.1300 C   0  0  0  0  0  0  0  0  0  0  0  0
   36.5850   32.5500   39.3660 H   0  0  0  0  0  0  0  0  0  0  0  0
   35.3130   31.6900   41.1810 H   0  0  0  0  0  0  0  0  0  0  0  0
   36.1440   29.6390   42.3400 H   0  0  0  0  0  0  0  0  0  0  0  0
   36.6040   27.0350   39.9330 Cl  0  0  0  0  0  0  0  0  0  0  0  0
   37.8050   27.0740   41.2270 C   0  0  0  0  0  0  0  0  0  0  0  0
   38.3260   28.2330   41.7640 C   0  0  0  0  0  0  0  0  0  0  0  0
   39.2640   28.1970   42.7750 C   0  0  0  0  0  0  0  0  0  0  0  0
   39.6060   29.1640   43.1230 H   0  0  0  0  0  0  0  0  0  0  0  0
   39.6710   26.9580   43.2390 C   0  0  0  0  0  3  0  0  0  0  0  0
   39.1390   25.7970   42.6910 C   0  0  0  0  0  0  0  0  0  0  0  0
   39.7050   24.2680   43.3340 Cl  0  0  0  0  0  0  0  0  0  0  0  0
   38.1930   25.8270   41.6710 C   0  0  0  0  0  0  0  0  0  0  0  0
   37.8100   24.8930   41.2780 H   0  0  0  0  0  0  0  0  0  0  0  0
   38.8870   31.6410   38.1470 C   0  0  0  0  0  0  0  0  0  0  0  0
   38.1860   31.1900   37.2740 O   0  0  0  0  0  0  0  0  0  0  0  0
   40.0280   32.4240   38.6410 C   0  0  0  0  0  0  0  0  0  0  0  0
   41.2940   32.3490   38.2090 C   0  0  0  0  0  0  0  0  0  0  0  0
   42.1940   33.1250   38.9140 C   0  0  0  0  0  0  0  0  0  0  0  0
   41.7170   33.9000   39.9850 N   0  0  0  0  0  0  0  0  0  0  0  0
   40.4550   33.9230   40.3490 C   0  0  0  0  0  0  0  0  0  0  0  0
   39.5290   33.1590   39.6680 N   0  0  0  0  0  0  0  0  0  0  0  0
   43.2530   33.1830   38.7030 H   0  0  0  0  0  0  0  0  0  0  0  0
   40.2330   34.5710   41.1930 H   0  0  0  0  0  0  0  0  0  0  0  0
   41.7510   31.6570   37.0530 C   0  0  0  0  0  0  0  0  0  0  0  0
   43.0240   31.3600   36.6810 C   0  0  0  0  0  0  0  0  0  0  0  0
   42.2950   30.1840   37.2750 C   0  0  0  0  0  0  0  0  0  0  0  0
   41.0890   31.7840   36.1770 H   0  0  0  0  0  0  0  0  0  0  0  0
   43.4390   31.1430   35.6710 H   0  0  0  0  0  0  0  0  0  0  0  0
   43.8900   31.6910   37.3300 H   0  0  0  0  0  0  0  0  0  0  0  0
   41.7530   29.4680   36.6380 H   0  0  0  0  0  0  0  0  0  0  0  0
   42.4390   29.9460   38.3430 H   0  0  0  0  0  0  0  0  0  0  0  0
  1  2  1  0  0  0  0
  2  7  1  0  0  0  0
  3  4  1  0  0  0  0
  3  2  2  0  0  0  0
  4  5  2  0  0  0  0
  5  9  1  0  0  0  0
  5  6  1  0  0  0  0
  6 10  1  0  0  0  0
  7  6  2  0  0  0  0
  7 13  1  0  0  0  0
  8  4  1  0  0  0  0
 11 12  1  0  0  0  0
 12 19  2  0  0  0  0
 12 13  1  0  0  0  0
 13 14  2  0  0  0  0
 14 15  1  0  0  0  0
 14 16  1  0  0  0  0
 17 16  2  0  0  0  0
 17 18  1  0  0  0  0
 19 17  1  0  0  0  0
 20 19  1  0  0  0  0
 21 23  1  0  0  0  0
 21  3  1  0  0  0  0
 22 21  2  0  0  0  0
 23 28  1  0  0  0  0
 24 23  2  0  0  0  0
 24 25  1  0  0  0  0
 25 26  2  0  0  0  0
 26 27  1  0  0  0  0
 27 30  1  0  0  0  0
 28 27  2  0  0  0  0
 29 25  1  0  0  0  0
 31 33  1  0  0  0  0
 31 24  1  0  0  0  0
 32 31  1  0  0  0  0
 32 33  1  0  0  0  0
 32 36  1  0  0  0  0
 33 38  1  0  0  0  0
 34 31  1  0  0  0  0
 35 32  1  0  0  0  0
 37 33  1  0  0  0  0
M  END
>  <minimizedAffinity>
-5.79347086

$$$$

 OpenBabel03242523213D

 38 41  0  0  0  0  0  0  0  0999 V2000
   34.7820   28.9100   40.1160 Cl  0  0  0  0  0  0  0  0  0  0  0  0
   36.0040   29.6250   39.0620 C   0  0  0  0  0  0  0  0  0  0  0  0
   36.9920   30.3880   39.7160 C   0  0  0  0  0  0  0  0  0  0  0  0
   37.8970   30.8980   38.7990 C   0  0  0  0  0  0  0  0  0  0  0  0
   37.9420   30.7610   37.4670 C   0  0  0  0  0  0  0  0  0  0  0  0
   36.9480   30.0050   36.9130 C   0  0  0  0  0  0  0  0  0  0  0  0
   35.9900   29.4410   37.6770 C   0  0  0  0  0  0  0  0  0  0  0  0
   38.7240   31.5530   39.1460 H   0  0  0  0  0  0  0  0  0  0  0  0
   38.6750   31.1810   36.7980 H   0  0  0  0  0  0  0  0  0  0  0  0
   36.8260   29.7880   35.8600 H   0  0  0  0  0  0  0  0  0  0  0  0
   36.7020   26.5950   37.7630 Cl  0  0  0  0  0  0  0  0  0  0  0  0
   35.1560   27.2580   37.2280 C   0  0  0  0  0  0  0  0  0  0  0  0
   34.8590   28.6050   37.2030 C   0  0  0  0  0  0  0  0  0  0  0  0
   33.6290   29.0600   36.7730 C   0  0  0  0  0  0  0  0  0  0  0  0
   33.5020   30.1350   36.7940 H   0  0  0  0  0  0  0  0  0  0  0  0
   32.6960   28.1220   36.3660 C   0  0  0  0  0  3  0  0  0  0  0  0
   33.0060   26.7680   36.3960 C   0  0  0  0  0  0  0  0  0  0  0  0
   31.7700   25.6450   35.8640 Cl  0  0  0  0  0  0  0  0  0  0  0  0
   34.2440   26.3030   36.8280 C   0  0  0  0  0  0  0  0  0  0  0  0
   34.4350   25.2370   36.8320 H   0  0  0  0  0  0  0  0  0  0  0  0
   37.1080   30.6310   41.1830 C   0  0  0  0  0  0  0  0  0  0  0  0
   36.1230   31.3130   41.3210 O   0  0  0  0  0  0  0  0  0  0  0  0
   38.3100   29.9440   41.6770 C   0  0  0  0  0  0  0  0  0  0  0  0
   38.3850   28.6770   42.1060 C   0  0  0  0  0  0  0  0  0  0  0  0
   39.6160   28.3080   42.6120 C   0  0  0  0  0  0  0  0  0  0  0  0
   40.6480   29.2630   42.6310 N   0  0  0  0  0  0  0  0  0  0  0  0
   40.4970   30.4910   42.1880 C   0  0  0  0  0  0  0  0  0  0  0  0
   39.2800   30.8940   41.6770 N   0  0  0  0  0  0  0  0  0  0  0  0
   39.8520   27.3270   43.0030 H   0  0  0  0  0  0  0  0  0  0  0  0
   41.3830   31.1160   42.2640 H   0  0  0  0  0  0  0  0  0  0  0  0
   37.3760   27.6820   41.9750 C   0  0  0  0  0  0  0  0  0  0  0  0
   37.3330   26.4330   42.5100 C   0  0  0  0  0  0  0  0  0  0  0  0
   36.4690   27.4190   43.2490 C   0  0  0  0  0  0  0  0  0  0  0  0
   36.8310   27.7340   41.0160 H   0  0  0  0  0  0  0  0  0  0  0  0
   36.7690   25.5340   42.1740 H   0  0  0  0  0  0  0  0  0  0  0  0
   38.1930   26.0650   43.1470 H   0  0  0  0  0  0  0  0  0  0  0  0
   35.4030   27.5420   43.0010 H   0  0  0  0  0  0  0  0  0  0  0  0
   36.8660   27.9080   44.1560 H   0  0  0  0  0  0  0  0  0  0  0  0
  2  3  1  0  0  0  0
  2  1  1  0  0  0  0
  3 21  1  0  0  0  0
  4  8  1  0  0  0  0
  4  3  2  0  0  0  0
  5  4  1  0  0  0  0
  6  5  2  0  0  0  0
  6  7  1  0  0  0  0
  7  2  2  0  0  0  0
  9  5  1  0  0  0  0
 10  6  1  0  0  0  0
 12 11  1  0  0  0  0
 13 12  1  0  0  0  0
 13  7  1  0  0  0  0
 14 15  1  0  0  0  0
 14 13  2  0  0  0  0
 16 17  2  0  0  0  0
 16 14  1  0  0  0  0
 17 19  1  0  0  0  0
 18 17  1  0  0  0  0
 19 20  1  0  0  0  0
 19 12  2  0  0  0  0
 21 22  2  0  0  0  0
 21 23  1  0  0  0  0
 23 24  1  0  0  0  0
 24 25  2  0  0  0  0
 25 26  1  0  0  0  0
 25 29  1  0  0  0  0
 27 30  1  0  0  0  0
 27 26  2  0  0  0  0
 28 23  2  0  0  0  0
 28 27  1  0  0  0  0
 31 24  1  0  0  0  0
 31 32  1  0  0  0  0
 31 33  1  0  0  0  0
 32 36  1  0  0  0  0
 32 33  1  0  0  0  0
 33 38  1  0  0  0  0
 34 31  1  0  0  0  0
 35 32  1  0  0  0  0
 37 33  1  0  0  0  0
M  END
>  <minimizedAffinity>
-5.73248148

$$$$

 OpenBabel03242523213D

 38 41  0  0  0  0  0  0  0  0999 V2000
   37.9490   28.0730   39.2830 Cl  0  0  0  0  0  0  0  0  0  0  0  0
   37.4160   27.7010   40.9240 C   0  0  0  0  0  0  0  0  0  0  0  0
   37.2300   26.3320   41.2010 C   0  0  0  0  0  0  0  0  0  0  0  0
   36.8150   26.1550   42.5110 C   0  0  0  0  0  0  0  0  0  0  0  0
   36.5910   27.0610   43.4730 C   0  0  0  0  0  0  0  0  0  0  0  0
   36.7960   28.3650   43.1210 C   0  0  0  0  0  0  0  0  0  0  0  0
   37.2000   28.6990   41.8780 C   0  0  0  0  0  0  0  0  0  0  0  0
   36.5900   25.1340   42.8850 H   0  0  0  0  0  0  0  0  0  0  0  0
   36.2690   26.8650   44.4830 H   0  0  0  0  0  0  0  0  0  0  0  0
   36.6650   29.2250   43.7640 H   0  0  0  0  0  0  0  0  0  0  0  0
   39.9210   29.5640   42.5600 Cl  0  0  0  0  0  0  0  0  0  0  0  0
   38.7260   30.5130   41.6710 C   0  0  0  0  0  0  0  0  0  0  0  0
   37.4550   30.0700   41.3690 C   0  0  0  0  0  0  0  0  0  0  0  0
   36.5670   30.8610   40.6710 C   0  0  0  0  0  0  0  0  0  0  0  0
   35.5970   30.4160   40.4880 H   0  0  0  0  0  0  0  0  0  0  0  0
   36.9880   32.1200   40.2770 C   0  0  0  0  0  3  0  0  0  0  0  0
   38.2710   32.5560   40.5870 C   0  0  0  0  0  0  0  0  0  0  0  0
   38.7290   34.1610   40.0530 Cl  0  0  0  0  0  0  0  0  0  0  0  0
   39.1720   31.7620   41.2910 C   0  0  0  0  0  0  0  0  0  0  0  0
   40.1600   32.1490   41.5060 H   0  0  0  0  0  0  0  0  0  0  0  0
   37.4490   25.1930   40.2640 C   0  0  0  0  0  0  0  0  0  0  0  0
   36.3040   24.8210   40.1780 O   0  0  0  0  0  0  0  0  0  0  0  0
   38.8810   25.1180   39.9460 C   0  0  0  0  0  0  0  0  0  0  0  0
   39.8960   25.1640   40.8190 C   0  0  0  0  0  0  0  0  0  0  0  0
   41.1530   25.1740   40.2470 C   0  0  0  0  0  0  0  0  0  0  0  0
   41.2540   25.1340   38.8450 N   0  0  0  0  0  0  0  0  0  0  0  0
   40.2070   25.0870   38.0520 C   0  0  0  0  0  0  0  0  0  0  0  0
   38.9360   25.0780   38.5890 N   0  0  0  0  0  0  0  0  0  0  0  0
   42.0820   25.2120   40.8010 H   0  0  0  0  0  0  0  0  0  0  0  0
   40.4380   25.0580   36.9900 H   0  0  0  0  0  0  0  0  0  0  0  0
   39.7940   25.0840   42.2360 C   0  0  0  0  0  0  0  0  0  0  0  0
   40.7550   24.7780   43.1470 C   0  0  0  0  0  0  0  0  0  0  0  0
   40.4710   26.2550   43.0640 C   0  0  0  0  0  0  0  0  0  0  0  0
   38.7890   24.7850   42.5860 H   0  0  0  0  0  0  0  0  0  0  0  0
   40.6540   24.3780   44.1810 H   0  0  0  0  0  0  0  0  0  0  0  0
   41.8020   24.5290   42.7960 H   0  0  0  0  0  0  0  0  0  0  0  0
   39.7400   26.7330   43.7330 H   0  0  0  0  0  0  0  0  0  0  0  0
   41.1200   26.8920   42.4370 H   0  0  0  0  0  0  0  0  0  0  0  0
  1  2  1  0  0  0  0
  2  3  2  0  0  0  0
  2  7  1  0  0  0  0
  3  4  1  0  0  0  0
  4  8  1  0  0  0  0
  4  5  2  0  0  0  0
  5  9  1  0  0  0  0
  6  5  1  0  0  0  0
  6 10  1  0  0  0  0
  7  6  2  0  0  0  0
 12 11  1  0  0  0  0
 13 12  1  0  0  0  0
 13  7  1  0  0  0  0
 14 13  2  0  0  0  0
 15 14  1  0  0  0  0
 16 17  2  0  0  0  0
 16 14  1  0  0  0  0
 17 19  1  0  0  0  0
 18 17  1  0  0  0  0
 19 20  1  0  0  0  0
 19 12  2  0  0  0  0
 21  3  1  0  0  0  0
 22 21  2  0  0  0  0
 23 21  1  0  0  0  0
 23 24  1  0  0  0  0
 24 31  1  0  0  0  0
 25 29  1  0  0  0  0
 25 24  2  0  0  0  0
 26 25  1  0  0  0  0
 27 28  1  0  0  0  0
 27 26  2  0  0  0  0
 28 23  2  0  0  0  0
 30 27  1  0  0  0  0
 31 34  1  0  0  0  0
 31 33  1  0  0  0  0
 31 32  1  0  0  0  0
 32 35  1  0  0  0  0
 33 32  1  0  0  0  0
 33 37  1  0  0  0  0
 36 32  1  0  0  0  0
 38 33  1  0  0  0  0
M  END
>  <minimizedAffinity>
-5.70483494

$$$$

 OpenBabel03242523213D

 38 41  0  0  0  0  0  0  0  0999 V2000
   39.8920   29.7590   41.4770 Cl  0  0  0  0  0  0  0  0  0  0  0  0
   38.2160   29.8100   40.9260 C   0  0  0  0  0  0  0  0  0  0  0  0
   37.3350   28.9360   41.5920 C   0  0  0  0  0  0  0  0  0  0  0  0
   36.0520   29.0610   41.0830 C   0  0  0  0  0  0  0  0  0  0  0  0
   35.5860   29.8550   40.1100 C   0  0  0  0  0  0  0  0  0  0  0  0
   36.5050   30.6720   39.5170 C   0  0  0  0  0  0  0  0  0  0  0  0
   37.7980   30.6640   39.9010 C   0  0  0  0  0  0  0  0  0  0  0  0
   35.2380   28.4160   41.4770 H   0  0  0  0  0  0  0  0  0  0  0  0
   34.5700   29.9110   39.7540 H   0  0  0  0  0  0  0  0  0  0  0  0
   36.3100   31.3750   38.7180 H   0  0  0  0  0  0  0  0  0  0  0  0
   38.9810   29.3660   37.5490 Cl  0  0  0  0  0  0  0  0  0  0  0  0
   39.4750   30.9180   38.2310 C   0  0  0  0  0  0  0  0  0  0  0  0
   38.8930   31.4960   39.3400 C   0  0  0  0  0  0  0  0  0  0  0  0
   39.3250   32.7130   39.8250 C   0  0  0  0  0  0  0  0  0  0  0  0
   38.7990   33.0750   40.7000 H   0  0  0  0  0  0  0  0  0  0  0  0
   40.3650   33.3430   39.1640 C   0  0  0  0  0  3  0  0  0  0  0  0
   40.9450   32.7520   38.0470 C   0  0  0  0  0  0  0  0  0  0  0  0
   42.2560   33.6130   37.2670 Cl  0  0  0  0  0  0  0  0  0  0  0  0
   40.5130   31.5240   37.5540 C   0  0  0  0  0  0  0  0  0  0  0  0
   40.9980   31.1070   36.6800 H   0  0  0  0  0  0  0  0  0  0  0  0
   37.6740   28.0020   42.7040 C   0  0  0  0  0  0  0  0  0  0  0  0
   37.4330   28.7410   43.6260 O   0  0  0  0  0  0  0  0  0  0  0  0
   38.1050   26.7220   42.1240 C   0  0  0  0  0  0  0  0  0  0  0  0
   39.2550   26.0810   42.3730 C   0  0  0  0  0  0  0  0  0  0  0  0
   39.4590   24.9420   41.6190 C   0  0  0  0  0  0  0  0  0  0  0  0
   38.4730   24.5670   40.6890 N   0  0  0  0  0  0  0  0  0  0  0  0
   37.3650   25.2490   40.5040 C   0  0  0  0  0  0  0  0  0  0  0  0
   37.1300   26.3930   41.2390 N   0  0  0  0  0  0  0  0  0  0  0  0
   40.3320   24.3060   41.6870 H   0  0  0  0  0  0  0  0  0  0  0  0
   36.6950   24.8370   39.7540 H   0  0  0  0  0  0  0  0  0  0  0  0
   40.1930   26.3970   43.3960 C   0  0  0  0  0  0  0  0  0  0  0  0
   41.3820   25.8020   43.6800 C   0  0  0  0  0  0  0  0  0  0  0  0
   41.5370   27.1020   42.9350 C   0  0  0  0  0  0  0  0  0  0  0  0
   39.7260   26.8280   44.3000 H   0  0  0  0  0  0  0  0  0  0  0  0
   41.9570   25.7820   44.6320 H   0  0  0  0  0  0  0  0  0  0  0  0
   41.7280   24.9190   43.0640 H   0  0  0  0  0  0  0  0  0  0  0  0
   41.6820   28.0520   43.4700 H   0  0  0  0  0  0  0  0  0  0  0  0
   41.6670   27.0800   41.8390 H   0  0  0  0  0  0  0  0  0  0  0  0
  2  1  1  0  0  0  0
  2  3  1  0  0  0  0
  3 21  1  0  0  0  0
  4  8  1  0  0  0  0
  4  3  2  0  0  0  0
  5  4  1  0  0  0  0
  6  7  1  0  0  0  0
  6  5  2  0  0  0  0
  7  2  2  0  0  0  0
  9  5  1  0  0  0  0
 10  6  1  0  0  0  0
 11 12  1  0  0  0  0
 12 13  1  0  0  0  0
 13 14  2  0  0  0  0
 13  7  1  0  0  0  0
 14 15  1  0  0  0  0
 16 14  1  0  0  0  0
 17 16  2  0  0  0  0
 18 17  1  0  0  0  0
 19 17  1  0  0  0  0
 19 12  2  0  0  0  0
 20 19  1  0  0  0  0
 21 22  2  0  0  0  0
 23 24  1  0  0  0  0
 23 21  1  0  0  0  0
 24 31  1  0  0  0  0
 25 29  1  0  0  0  0
 25 24  2  0  0  0  0
 26 25  1  0  0  0  0
 27 26  2  0  0  0  0
 27 28  1  0  0  0  0
 28 23  2  0  0  0  0
 30 27  1  0  0  0  0
 31 32  1  0  0  0  0
 31 34  1  0  0  0  0
 32 35  1  0  0  0  0
 33 31  1  0  0  0  0
 33 37  1  0  0  0  0
 33 32  1  0  0  0  0
 36 32  1  0  0  0  0
 38 33  1  0  0  0  0
M  END
>  <minimizedAffinity>
-5.68673611

$$$$

 OpenBabel03242523213D

 38 41  0  0  0  0  0  0  0  0999 V2000
   39.3790   27.4180   39.8420 Cl  0  0  0  0  0  0  0  0  0  0  0  0
   38.5010   27.7350   41.3390 C   0  0  0  0  0  0  0  0  0  0  0  0
   38.8460   28.9310   42.0000 C   0  0  0  0  0  0  0  0  0  0  0  0
   38.0970   29.0790   43.1560 C   0  0  0  0  0  0  0  0  0  0  0  0
   37.1550   28.2840   43.6790 C   0  0  0  0  0  0  0  0  0  0  0  0
   36.8800   27.1460   42.9760 C   0  0  0  0  0  0  0  0  0  0  0  0
   37.5280   26.8580   41.8290 C   0  0  0  0  0  0  0  0  0  0  0  0
   38.2700   29.9570   43.8150 H   0  0  0  0  0  0  0  0  0  0  0  0
   36.5990   28.4520   44.5880 H   0  0  0  0  0  0  0  0  0  0  0  0
   36.1530   26.3910   43.2470 H   0  0  0  0  0  0  0  0  0  0  0  0
   39.1280   24.6030   42.8170 Cl  0  0  0  0  0  0  0  0  0  0  0  0
   38.0630   24.5770   41.4080 C   0  0  0  0  0  0  0  0  0  0  0  0
   37.3270   25.6600   40.9750 C   0  0  0  0  0  0  0  0  0  0  0  0
   36.5120   25.5760   39.8650 C   0  0  0  0  0  0  0  0  0  0  0  0
   35.9790   26.4850   39.6130 H   0  0  0  0  0  0  0  0  0  0  0  0
   36.4530   24.3670   39.1930 C   0  0  0  0  0  3  0  0  0  0  0  0
   37.2000   23.2820   39.6380 C   0  0  0  0  0  0  0  0  0  0  0  0
   37.0700   21.7880   38.7340 Cl  0  0  0  0  0  0  0  0  0  0  0  0
   38.0230   23.3620   40.7580 C   0  0  0  0  0  0  0  0  0  0  0  0
   38.5840   22.4870   41.0630 H   0  0  0  0  0  0  0  0  0  0  0  0
   39.8520   29.9380   41.5550 C   0  0  0  0  0  0  0  0  0  0  0  0
   40.7610   29.5980   42.2720 O   0  0  0  0  0  0  0  0  0  0  0  0
   39.2410   30.7840   40.5200 C   0  0  0  0  0  0  0  0  0  0  0  0
   39.7380   31.0410   39.3030 C   0  0  0  0  0  0  0  0  0  0  0  0
   39.0120   31.9500   38.5600 C   0  0  0  0  0  0  0  0  0  0  0  0
   37.8510   32.5060   39.1260 N   0  0  0  0  0  0  0  0  0  0  0  0
   37.4240   32.2010   40.3310 C   0  0  0  0  0  0  0  0  0  0  0  0
   38.1260   31.2980   41.1020 N   0  0  0  0  0  0  0  0  0  0  0  0
   39.2700   32.2740   37.5600 H   0  0  0  0  0  0  0  0  0  0  0  0
   36.5120   32.7080   40.6350 H   0  0  0  0  0  0  0  0  0  0  0  0
   40.8440   30.3880   38.6890 C   0  0  0  0  0  0  0  0  0  0  0  0
   41.5710   30.7730   37.6080 C   0  0  0  0  0  0  0  0  0  0  0  0
   42.2700   31.0430   38.9140 C   0  0  0  0  0  0  0  0  0  0  0  0
   40.8140   29.2880   38.7910 H   0  0  0  0  0  0  0  0  0  0  0  0
   42.1870   30.1610   36.9100 H   0  0  0  0  0  0  0  0  0  0  0  0
   41.3060   31.7290   37.0640 H   0  0  0  0  0  0  0  0  0  0  0  0
   42.9710   30.3140   39.3480 H   0  0  0  0  0  0  0  0  0  0  0  0
   42.2030   32.0510   39.3590 H   0  0  0  0  0  0  0  0  0  0  0  0
  1  2  1  0  0  0  0
  2  7  2  0  0  0  0
  2  3  1  0  0  0  0
  3  4  2  0  0  0  0
  4  5  1  0  0  0  0
  4  8  1  0  0  0  0
  5  9  1  0  0  0  0
  6 10  1  0  0  0  0
  6  5  2  0  0  0  0
  7  6  1  0  0  0  0
 12 11  1  0  0  0  0
 13 12  1  0  0  0  0
 13  7  1  0  0  0  0
 14 13  2  0  0  0  0
 15 14  1  0  0  0  0
 16 17  2  0  0  0  0
 16 14  1  0  0  0  0
 17 19  1  0  0  0  0
 18 17  1  0  0  0  0
 19 20  1  0  0  0  0
 19 12  2  0  0  0  0
 21  3  1  0  0  0  0
 21 22  2  0  0  0  0
 23 28  1  0  0  0  0
 23 21  1  0  0  0  0
 24 23  2  0  0  0  0
 25 26  2  0  0  0  0
 25 24  1  0  0  0  0
 26 27  1  0  0  0  0
 27 30  1  0  0  0  0
 27 28  2  0  0  0  0
 29 25  1  0  0  0  0
 31 34  1  0  0  0  0
 31 33  1  0  0  0  0
 31 24  1  0  0  0  0
 32 31  1  0  0  0  0
 32 33  1  0  0  0  0
 33 37  1  0  0  0  0
 33 38  1  0  0  0  0
 35 32  1  0  0  0  0
 36 32  1  0  0  0  0
M  END
>  <minimizedAffinity>
-5.66769886

$$$$
