
 OpenBabel03252507583D

 28 30  0  0  1  0  0  0  0  0999 V2000
   46.4090   32.9720   46.6020 C   0  0  1  0  0  0  0  0  0  0  0  0
   45.4360   32.6490   47.6910 C   0  0  0  0  0  0  0  0  0  0  0  0
   45.6780   31.6650   46.6220 C   0  0  2  0  0  0  0  0  0  0  0  0
   47.4800   32.9620   46.8150 H   0  0  0  0  0  0  0  0  0  0  0  0
   44.5300   33.3240   47.6600 H   0  0  0  0  0  0  0  0  0  0  0  0
   45.8870   32.6500   48.6850 H   0  0  0  0  0  0  0  0  0  0  0  0
   44.7980   31.5410   45.9120 H   0  0  0  0  0  0  0  0  0  0  0  0
   44.3240   28.8540   46.4580 Cl  0  0  0  0  0  0  0  0  0  0  0  0
   45.9940   29.1020   46.9200 C   0  0  0  0  0  0  0  0  0  0  0  0
   46.3790   30.4180   46.9120 C   0  0  0  0  0  0  0  0  0  0  0  0
   47.7120   30.6780   47.2620 C   0  0  0  0  0  0  0  0  0  0  0  0
   48.2060   31.6620   47.3130 H   0  0  0  0  0  0  0  0  0  0  0  0
   48.5970   29.6470   47.5990 C   0  0  0  0  0  3  0  0  0  0  0  0
   48.1700   28.3380   47.5950 C   0  0  0  0  0  0  0  0  0  0  0  0
   49.1680   26.9580   47.9960 Cl  0  0  0  0  0  0  0  0  0  0  0  0
   46.8710   28.0930   47.2540 C   0  0  0  0  0  0  0  0  0  0  0  0
   46.3790   27.1090   47.2020 H   0  0  0  0  0  0  0  0  0  0  0  0
   46.3230   34.6330   43.3300 C   0  0  0  0  0  0  0  0  0  0  0  0
   45.2530   35.5530   43.4610 C   0  0  0  0  0  0  0  0  0  0  0  0
   44.5710   35.5820   44.6810 C   0  0  0  0  0  0  0  0  0  0  0  0
   44.9710   34.7330   45.6600 N   0  0  0  0  0  0  0  0  0  0  0  0
   46.0080   33.8680   45.4740 C   0  0  0  0  0  0  0  0  0  0  0  0
   46.6940   33.7970   44.3330 N   0  0  0  0  0  0  0  0  0  0  0  0
   44.9750   36.2030   42.6630 H   0  0  0  0  0  0  0  0  0  0  0  0
   43.7610   36.2630   44.8080 H   0  0  0  0  0  0  0  0  0  0  0  0
   46.9900   34.6580   42.0620 C   0  0  0  0  0  0  0  0  0  0  0  0
   47.9980   35.3790   41.7840 O   0  0  0  0  0  0  0  0  0  0  0  0
   46.8140   34.1240   41.1260 H   0  0  0  0  0  0  0  0  0  0  0  0
  1  3  1  0  0  0  0
  1  4  1  1  0  0  0
  1  2  1  0  0  0  0
  2  6  1  0  0  0  0
  3  7  1  6  0  0  0
  3 10  1  0  0  0  0
  3  2  1  0  0  0  0
  5  2  1  0  0  0  0
  8  9  1  0  0  0  0
  9 16  1  0  0  0  0
 10  9  2  0  0  0  0
 10 11  1  0  0  0  0
 11 12  1  0  0  0  0
 11 13  2  0  0  0  0
 14 13  1  0  0  0  0
 14 15  1  0  0  0  0
 16 14  2  0  0  0  0
 17 16  1  0  0  0  0
 18 19  2  0  0  0  0
 18 23  1  0  0  0  0
 19 20  1  0  0  0  0
 20 25  1  0  0  0  0
 20 21  2  0  0  0  0
 22 21  1  0  0  0  0
 22  1  1  0  0  0  0
 23 22  2  0  0  0  0
 24 19  1  0  0  0  0
 26 18  1  0  0  0  0
 27 26  2  0  0  0  0
 28 26  1  0  0  0  0
M  END
>  <minimizedAffinity>
-4.9798727

>  <minimizedRMSD>
2.85944247

$$$$
