
 OpenBabel03252507583D

 28 30  0  0  1  0  0  0  0  0999 V2000
   46.2940   32.8200   46.4820 C   0  0  1  0  0  0  0  0  0  0  0  0
   45.4150   32.6360   47.6770 C   0  0  0  0  0  0  0  0  0  0  0  0
   45.3390   31.6680   46.5680 C   0  0  2  0  0  0  0  0  0  0  0  0
   47.3620   32.6050   46.5590 H   0  0  0  0  0  0  0  0  0  0  0  0
   44.6540   33.4650   47.7720 H   0  0  0  0  0  0  0  0  0  0  0  0
   45.9730   32.5130   48.6070 H   0  0  0  0  0  0  0  0  0  0  0  0
   44.3740   31.7370   45.9710 H   0  0  0  0  0  0  0  0  0  0  0  0
   47.8210   30.5190   45.0600 Cl  0  0  0  0  0  0  0  0  0  0  0  0
   46.8610   29.5950   46.1930 C   0  0  0  0  0  0  0  0  0  0  0  0
   45.8260   30.3030   46.7460 C   0  0  0  0  0  0  0  0  0  0  0  0
   45.0260   29.6190   47.6730 C   0  0  0  0  0  0  0  0  0  0  0  0
   44.1560   30.0130   48.2210 H   0  0  0  0  0  0  0  0  0  0  0  0
   45.2770   28.2820   48.0110 C   0  0  0  0  0  3  0  0  0  0  0  0
   46.3270   27.6070   47.4320 C   0  0  0  0  0  0  0  0  0  0  0  0
   46.7500   25.9410   47.7630 Cl  0  0  0  0  0  0  0  0  0  0  0  0
   47.1000   28.2800   46.5310 C   0  0  0  0  0  0  0  0  0  0  0  0
   47.9690   27.8840   45.9850 H   0  0  0  0  0  0  0  0  0  0  0  0
   46.2770   34.7260   43.3450 C   0  0  0  0  0  0  0  0  0  0  0  0
   45.2620   35.6930   43.5580 C   0  0  0  0  0  0  0  0  0  0  0  0
   44.5920   35.6670   44.7850 C   0  0  0  0  0  0  0  0  0  0  0  0
   44.9510   34.7250   45.6930 N   0  0  0  0  0  0  0  0  0  0  0  0
   45.9360   33.8200   45.4290 C   0  0  0  0  0  0  0  0  0  0  0  0
   46.6070   33.7970   44.2780 N   0  0  0  0  0  0  0  0  0  0  0  0
   45.0150   36.4160   42.8150 H   0  0  0  0  0  0  0  0  0  0  0  0
   43.8240   36.3820   44.9740 H   0  0  0  0  0  0  0  0  0  0  0  0
   46.9330   34.8100   42.0740 C   0  0  0  0  0  0  0  0  0  0  0  0
   48.0000   35.4610   41.8480 O   0  0  0  0  0  0  0  0  0  0  0  0
   46.7030   34.3830   41.0960 H   0  0  0  0  0  0  0  0  0  0  0  0
  1  4  1  1  0  0  0
  1  3  1  0  0  0  0
  1  2  1  0  0  0  0
  2  5  1  0  0  0  0
  2  6  1  0  0  0  0
  3  7  1  6  0  0  0
  3 10  1  0  0  0  0
  3  2  1  0  0  0  0
  8  9  1  0  0  0  0
  9 16  2  0  0  0  0
  9 10  1  0  0  0  0
 10 11  2  0  0  0  0
 11 13  1  0  0  0  0
 11 12  1  0  0  0  0
 14 15  1  0  0  0  0
 14 13  2  0  0  0  0
 16 14  1  0  0  0  0
 17 16  1  0  0  0  0
 18 19  2  0  0  0  0
 18 23  1  0  0  0  0
 19 20  1  0  0  0  0
 20 25  1  0  0  0  0
 20 21  2  0  0  0  0
 22 21  1  0  0  0  0
 22  1  1  0  0  0  0
 23 22  2  0  0  0  0
 24 19  1  0  0  0  0
 26 18  1  0  0  0  0
 27 26  2  0  0  0  0
 28 26  1  0  0  0  0
M  END
>  <minimizedAffinity>
-4.77327633

>  <minimizedRMSD>
2.46651387

$$$$
