
 OpenBabel03242523533D

 46 49  0  0  1  0  0  0  0  0999 V2000
   42.7980   34.4690   38.7480 C   0  0  1  0  0  0  0  0  0  0  0  0
   42.9850   35.1630   40.0880 C   0  0  1  0  0  0  0  0  0  0  0  0
   41.7060   35.4420   40.6190 O   0  0  0  0  0  0  0  0  0  0  0  0
   40.7770   35.7840   39.6340 C   0  0  0  0  0  0  0  0  0  0  0  0
   40.4230   34.6050   38.7490 C   0  0  2  0  0  0  0  0  0  0  0  0
   41.6050   33.5860   38.8970 C   0  0  1  0  0  0  0  0  0  0  0  0
   43.7200   33.9220   38.4580 H   0  0  0  0  0  0  0  0  0  0  0  0
   43.5980   36.0700   40.0280 H   0  0  0  0  0  0  0  0  0  0  0  0
   41.1000   36.6630   39.0400 H   0  0  0  0  0  0  0  0  0  0  0  0
   39.8660   36.0590   40.1820 H   0  0  0  0  0  0  0  0  0  0  0  0
   39.4840   34.0980   39.0460 H   0  0  0  0  0  0  0  0  0  0  0  0
   41.3960   33.3650   39.9940 H   0  0  0  0  0  0  0  0  0  0  0  0
   42.5990   35.4080   37.7240 O   0  0  0  0  0  0  0  0  0  0  0  0
   43.2550   36.1450   37.8050 H   0  0  0  0  0  0  0  0  0  0  0  0
   40.4370   34.9900   37.4200 O   0  0  0  0  0  0  0  0  0  0  0  0
   39.6080   35.4810   37.2190 H   0  0  0  0  0  0  0  0  0  0  0  0
   43.4940   34.1780   40.9480 O   0  0  0  0  0  0  0  0  0  0  0  0
   44.5980   34.3110   41.6920 C   0  0  0  0  0  0  0  0  0  0  0  0
   45.8610   34.4320   41.0950 C   0  0  0  0  0  0  0  0  0  0  0  0
   46.9740   34.5670   41.9050 C   0  0  0  0  0  0  0  0  0  0  0  0
   46.8100   34.5790   43.2770 N   0  0  0  0  0  0  0  0  0  0  0  0
   45.5760   34.4590   43.8220 C   0  0  0  0  0  0  0  0  0  0  0  0
   44.4800   34.3250   43.0310 N   0  0  0  0  0  0  0  0  0  0  0  0
   45.9980   34.4240   40.0120 H   0  0  0  0  0  0  0  0  0  0  0  0
   45.4930   34.4720   44.8980 H   0  0  0  0  0  0  0  0  0  0  0  0
   48.3540   34.6790   41.3350 C   0  0  0  0  0  0  0  0  0  0  0  0
   49.0640   36.0190   41.5200 C   0  0  0  0  0  0  0  0  0  0  0  0
   49.5000   34.7000   42.1880 C   0  0  0  0  0  0  0  0  0  0  0  0
   48.4270   34.2410   40.3040 H   0  0  0  0  0  0  0  0  0  0  0  0
   49.7240   36.3020   40.6790 H   0  0  0  0  0  0  0  0  0  0  0  0
   48.5660   36.7820   42.1330 H   0  0  0  0  0  0  0  0  0  0  0  0
   50.4890   34.2980   41.9380 H   0  0  0  0  0  0  0  0  0  0  0  0
   49.3260   34.7200   43.2950 H   0  0  0  0  0  0  0  0  0  0  0  0
   41.4280   32.6220   37.9780 O   0  0  0  0  0  0  0  0  0  0  0  0
   40.7110   31.4950   37.9960 C   0  0  0  0  0  0  0  0  0  0  0  0
   39.5160   31.4370   37.4100 O   0  0  0  0  0  0  0  0  0  0  0  0
   39.9580   31.0160   40.8880 Cl  0  0  0  0  0  0  0  0  0  0  0  0
   40.6760   29.7630   39.8770 C   0  0  0  0  0  0  0  0  0  0  0  0
   40.9730   30.1280   38.5830 C   0  0  0  0  0  0  0  0  0  0  0  0
   41.5280   29.1020   37.8640 C   0  0  0  0  0  0  0  0  0  0  0  0
   41.8140   29.2440   36.8220 H   0  0  0  0  0  0  0  0  0  0  0  0
   41.7570   27.8640   38.3740 C   0  0  0  0  0  3  0  0  0  0  0  0
   41.4350   27.5800   39.6660 C   0  0  0  0  0  0  0  0  0  0  0  0
   41.7300   25.9950   40.3140 Cl  0  0  0  0  0  0  0  0  0  0  0  0
   40.8720   28.5440   40.4720 C   0  0  0  0  0  0  0  0  0  0  0  0
   40.6020   28.3730   41.4900 H   0  0  0  0  0  0  0  0  0  0  0  0
  1  7  1  6  0  0  0
  1  6  1  0  0  0  0
  1  2  1  0  0  0  0
  2  8  1  6  0  0  0
  2  3  1  0  0  0  0
  2 17  1  0  0  0  0
  4 10  1  0  0  0  0
  4  3  1  0  0  0  0
  5  6  1  0  0  0  0
  5 11  1  1  0  0  0
  5  4  1  0  0  0  0
  6 12  1  1  0  0  0
  9  4  1  0  0  0  0
 13 14  1  0  0  0  0
 13  1  1  0  0  0  0
 15  5  1  0  0  0  0
 16 15  1  0  0  0  0
 17 18  1  0  0  0  0
 18 23  1  0  0  0  0
 19 18  2  0  0  0  0
 19 20  1  0  0  0  0
 20 21  2  0  0  0  0
 21 22  1  0  0  0  0
 22 25  1  0  0  0  0
 23 22  2  0  0  0  0
 24 19  1  0  0  0  0
 26 27  1  0  0  0  0
 26 20  1  0  0  0  0
 26 28  1  0  0  0  0
 27 31  1  0  0  0  0
 27 28  1  0  0  0  0
 28 33  1  0  0  0  0
 29 26  1  0  0  0  0
 30 27  1  0  0  0  0
 32 28  1  0  0  0  0
 34 35  1  0  0  0  0
 34  6  1  0  0  0  0
 35 39  1  0  0  0  0
 36 35  2  0  0  0  0
 38 45  1  0  0  0  0
 38 37  1  0  0  0  0
 39 38  2  0  0  0  0
 40 42  2  0  0  0  0
 40 39  1  0  0  0  0
 41 40  1  0  0  0  0
 42 43  1  0  0  0  0
 43 44  1  0  0  0  0
 43 45  2  0  0  0  0
 45 46  1  0  0  0  0
M  END
>  <minimizedAffinity>
-5.82307291

>  <minimizedRMSD>
0.464891911

$$$$
