
 OpenBabel03252501553D

 22 23  0  0  0  0  0  0  0  0999 V2000
   44.6650   35.3600   45.1410 C   0  0  0  0  0  0  0  0  0  0  0  0
   45.3140   35.4350   43.9170 C   0  0  0  0  0  0  0  0  0  0  0  0
   46.3020   34.5010   43.6250 C   0  0  0  0  0  0  0  0  0  0  0  0
   46.5720   33.5640   44.5600 N   0  0  0  0  0  0  0  0  0  0  0  0
   45.9240   33.5150   45.7390 C   0  0  0  0  0  0  0  0  0  0  0  0
   44.9650   34.4050   46.0480 N   0  0  0  0  0  0  0  0  0  0  0  0
   43.8830   36.0560   45.4300 H   0  0  0  0  0  0  0  0  0  0  0  0
   46.2950   32.6990   46.3420 H   0  0  0  0  0  0  0  0  0  0  0  0
   44.7810   32.9260   41.7110 Cl  0  0  0  0  0  0  0  0  0  0  0  0
   46.2610   33.8380   41.3700 C   0  0  0  0  0  0  0  0  0  0  0  0
   46.9140   34.5850   42.3300 C   0  0  0  0  0  0  0  0  0  0  0  0
   48.0490   35.2620   41.9480 C   0  0  0  0  0  0  0  0  0  0  0  0
   48.5390   35.8430   42.7360 H   0  0  0  0  0  0  0  0  0  0  0  0
   48.5150   35.1900   40.6430 C   0  0  0  0  0  0  0  0  0  0  0  0
   47.8480   34.4320   39.6920 C   0  0  0  0  0  0  0  0  0  0  0  0
   48.4540   34.3580   38.0310 Cl  0  0  0  0  0  0  0  0  0  0  0  0
   46.6970   33.7470   40.0760 C   0  0  0  0  0  0  0  0  0  0  0  0
   46.2000   33.1740   39.3200 H   0  0  0  0  0  0  0  0  0  0  0  0
   44.8320   36.5290   43.0130 C   0  0  0  0  0  0  0  0  0  0  0  0
   45.6180   36.7780   42.2720 H   0  0  0  0  0  0  0  0  0  0  0  0
   43.9480   36.1990   42.4260 H   0  0  0  0  0  0  0  0  0  0  0  0
   44.6200   37.4320   43.6010 H   0  0  0  0  0  0  0  0  0  0  0  0
  1  7  1  0  0  0  0
  1  6  1  0  0  0  0
  2  1  2  0  0  0  0
  3  2  1  0  0  0  0
  3  4  2  0  0  0  0
  4  5  1  0  0  0  0
  5  6  2  0  0  0  0
  5  8  1  0  0  0  0
 10  9  1  0  0  0  0
 10 11  1  0  0  0  0
 11  3  1  0  0  0  0
 12 11  2  0  0  0  0
 12 13  1  0  0  0  0
 14 12  1  0  0  0  0
 15 17  1  0  0  0  0
 15 14  2  0  0  0  0
 16 15  1  0  0  0  0
 17 10  2  0  0  0  0
 18 17  1  0  0  0  0
 19 22  1  0  0  0  0
 19  2  1  0  0  0  0
 20 19  1  0  0  0  0
 21 19  1  0  0  0  0
M  END
>  <minimizedAffinity>
-5.24098539

>  <minimizedRMSD>
2.4572475

$$$$
