
 OpenBabel03252509113D

 32 35  0  0  0  0  0  0  0  0999 V2000
   42.5470   28.4590   40.7410 C   0  0  0  0  0  0  0  0  0  0  0  0
   42.2860   29.7870   40.4900 C   0  0  0  0  0  0  0  0  0  0  0  0
   41.6470   30.5860   41.4160 C   0  0  0  0  0  0  0  0  0  0  0  0
   41.2370   30.0860   42.6440 C   0  0  0  0  0  0  0  0  0  0  0  0
   40.6060   30.5630   43.7490 N   0  0  0  0  0  0  0  0  0  0  0  0
   40.4900   29.5440   44.6450 C   0  0  0  0  0  0  0  0  0  0  0  0
   41.0540   28.4390   44.0810 N   0  0  0  0  0  0  0  0  0  0  0  0
   41.5150   28.7570   42.8550 C   0  0  0  0  0  0  0  0  0  0  0  0
   42.1500   27.9200   41.9650 C   0  0  0  0  0  0  0  0  0  0  0  0
   43.0490   27.8050   40.0310 H   0  0  0  0  0  0  0  0  0  0  0  0
   40.2920   31.5580   43.8280 H   0  0  0  0  0  0  0  0  0  0  0  0
   40.0080   29.7220   45.6080 H   0  0  0  0  0  0  0  0  0  0  0  0
   42.3450   26.8730   42.1860 H   0  0  0  0  0  0  0  0  0  0  0  0
   43.8210   32.5790   42.2100 Cl  0  0  0  0  0  0  0  0  0  0  0  0
   42.2790   33.0010   41.4980 C   0  0  0  0  0  0  0  0  0  0  0  0
   41.3560   32.0070   41.1720 C   0  0  0  0  0  0  0  0  0  0  0  0
   40.1520   32.4140   40.6100 C   0  0  0  0  0  0  0  0  0  0  0  0
   39.3920   31.6750   40.3350 H   0  0  0  0  0  0  0  0  0  0  0  0
   39.8450   33.7410   40.3660 C   0  0  0  0  0  3  0  0  0  0  0  0
   40.7690   34.7090   40.6940 C   0  0  0  0  0  0  0  0  0  0  0  0
   40.3210   36.3710   40.3620 Cl  0  0  0  0  0  0  0  0  0  0  0  0
   41.9650   34.3200   41.2520 C   0  0  0  0  0  0  0  0  0  0  0  0
   42.6590   35.1130   41.4920 H   0  0  0  0  0  0  0  0  0  0  0  0
   42.1930   30.9400   36.9980 C   0  0  0  0  0  0  0  0  0  0  0  0
   43.4610   31.5210   36.8460 C   0  0  0  0  0  0  0  0  0  0  0  0
   44.3340   31.5120   37.9390 C   0  0  0  0  0  0  0  0  0  0  0  0
   43.9020   30.9340   39.1070 N   0  0  0  0  0  0  0  0  0  0  0  0
   42.6830   30.3840   39.2250 C   0  0  0  0  0  0  0  0  0  0  0  0
   41.8390   30.3890   38.1820 N   0  0  0  0  0  0  0  0  0  0  0  0
   41.5400   30.9630   36.1340 H   0  0  0  0  0  0  0  0  0  0  0  0
   43.8210   31.9800   35.9440 H   0  0  0  0  0  0  0  0  0  0  0  0
   45.3290   31.9400   37.8990 H   0  0  0  0  0  0  0  0  0  0  0  0
  1  9  1  0  0  0  0
  2  1  2  0  0  0  0
  2  3  1  0  0  0  0
  3  4  2  0  0  0  0
  4  8  1  0  0  0  0
  4  5  1  0  0  0  0
  5 11  1  0  0  0  0
  5  6  1  0  0  0  0
  6 12  1  0  0  0  0
  7  6  2  0  0  0  0
  8  7  1  0  0  0  0
  9 13  1  0  0  0  0
  9  8  2  0  0  0  0
 10  1  1  0  0  0  0
 15 14  1  0  0  0  0
 16  3  1  0  0  0  0
 16 15  2  0  0  0  0
 17 16  1  0  0  0  0
 18 17  1  0  0  0  0
 19 17  2  0  0  0  0
 19 20  1  0  0  0  0
 20 22  2  0  0  0  0
 21 20  1  0  0  0  0
 22 23  1  0  0  0  0
 22 15  1  0  0  0  0
 24 29  1  0  0  0  0
 25 24  2  0  0  0  0
 25 26  1  0  0  0  0
 26 27  2  0  0  0  0
 27 28  1  0  0  0  0
 28  2  1  0  0  0  0
 29 28  2  0  0  0  0
 30 24  1  0  0  0  0
 31 25  1  0  0  0  0
 32 26  1  0  0  0  0
M  END
>  <minimizedAffinity>
-3.98063183

>  <minimizedRMSD>
7.24168444

$$$$
