
 OpenBabel03252507593D

 28 30  0  0  1  0  0  0  0  0999 V2000
   36.7330   30.8840   39.5130 C   0  0  1  0  0  0  0  0  0  0  0  0
   37.3980   31.2340   38.2200 C   0  0  0  0  0  0  0  0  0  0  0  0
   36.8460   29.8800   38.4060 C   0  0  2  0  0  0  0  0  0  0  0  0
   35.7430   31.2870   39.7380 H   0  0  0  0  0  0  0  0  0  0  0  0
   38.5020   31.4300   38.3540 H   0  0  0  0  0  0  0  0  0  0  0  0
   36.9160   32.0640   37.6990 H   0  0  0  0  0  0  0  0  0  0  0  0
   37.6430   29.0750   38.5030 H   0  0  0  0  0  0  0  0  0  0  0  0
   34.1530   29.0630   39.7610 Cl  0  0  0  0  0  0  0  0  0  0  0  0
   34.4120   29.0470   38.0320 C   0  0  0  0  0  0  0  0  0  0  0  0
   35.6670   29.4550   37.6570 C   0  0  0  0  0  0  0  0  0  0  0  0
   35.9300   29.4760   36.2800 C   0  0  0  0  0  0  0  0  0  0  0  0
   36.8710   29.7720   35.7870 H   0  0  0  0  0  0  0  0  0  0  0  0
   34.9620   29.0970   35.3420 C   0  0  0  0  0  3  0  0  0  0  0  0
   33.7140   28.6930   35.7590 C   0  0  0  0  0  0  0  0  0  0  0  0
   32.4150   28.1970   34.6970 Cl  0  0  0  0  0  0  0  0  0  0  0  0
   33.4640   28.6760   37.1020 C   0  0  0  0  0  0  0  0  0  0  0  0
   32.5250   28.3810   37.5930 H   0  0  0  0  0  0  0  0  0  0  0  0
   37.8330   29.3720   42.6720 C   0  0  0  0  0  0  0  0  0  0  0  0
   39.0820   29.9960   42.9130 C   0  0  0  0  0  0  0  0  0  0  0  0
   39.5310   30.9290   41.9730 C   0  0  0  0  0  0  0  0  0  0  0  0
   38.7480   31.1800   40.8940 N   0  0  0  0  0  0  0  0  0  0  0  0
   37.5550   30.5460   40.7160 C   0  0  0  0  0  0  0  0  0  0  0  0
   37.0780   29.6480   41.5790 N   0  0  0  0  0  0  0  0  0  0  0  0
   39.6630   29.7680   43.7770 H   0  0  0  0  0  0  0  0  0  0  0  0
   40.4670   31.4150   42.1270 H   0  0  0  0  0  0  0  0  0  0  0  0
   37.4230   28.4340   43.6750 C   0  0  0  0  0  0  0  0  0  0  0  0
   36.5010   27.5730   43.5310 O   0  0  0  0  0  0  0  0  0  0  0  0
   37.7640   28.2500   44.6950 H   0  0  0  0  0  0  0  0  0  0  0  0
  1  4  1  1  0  0  0
  1 22  1  0  0  0  0
  2  5  1  0  0  0  0
  2  3  1  0  0  0  0
  2  1  1  0  0  0  0
  3  7  1  1  0  0  0
  3  1  1  0  0  0  0
  6  2  1  0  0  0  0
  9  8  1  0  0  0  0
 10  9  1  0  0  0  0
 10  3  1  0  0  0  0
 11 10  2  0  0  0  0
 12 11  1  0  0  0  0
 13 14  2  0  0  0  0
 13 11  1  0  0  0  0
 14 16  1  0  0  0  0
 15 14  1  0  0  0  0
 16 17  1  0  0  0  0
 16  9  2  0  0  0  0
 18 19  1  0  0  0  0
 18 26  1  0  0  0  0
 19 24  1  0  0  0  0
 20 25  1  0  0  0  0
 20 19  2  0  0  0  0
 21 20  1  0  0  0  0
 22 21  2  0  0  0  0
 22 23  1  0  0  0  0
 23 18  2  0  0  0  0
 26 28  1  0  0  0  0
 27 26  2  0  0  0  0
M  END
>  <minimizedAffinity>
-4.97932863

$$$$

 OpenBabel03252507593D

 28 30  0  0  1  0  0  0  0  0999 V2000
   37.3400   27.8570   42.2770 C   0  0  1  0  0  0  0  0  0  0  0  0
   38.2450   28.4160   43.3280 C   0  0  0  0  0  0  0  0  0  0  0  0
   38.5180   28.7060   41.9090 C   0  0  2  0  0  0  0  0  0  0  0  0
   36.3430   28.2800   42.1420 H   0  0  0  0  0  0  0  0  0  0  0  0
   38.8130   27.6040   43.8700 H   0  0  0  0  0  0  0  0  0  0  0  0
   37.7310   29.0690   44.0360 H   0  0  0  0  0  0  0  0  0  0  0  0
   39.4440   28.1800   41.5090 H   0  0  0  0  0  0  0  0  0  0  0  0
   40.4040   31.0940   42.6140 Cl  0  0  0  0  0  0  0  0  0  0  0  0
   39.0140   31.2340   41.5620 C   0  0  0  0  0  0  0  0  0  0  0  0
   38.3350   30.0560   41.3840 C   0  0  0  0  0  0  0  0  0  0  0  0
   37.2170   30.1020   40.5390 C   0  0  0  0  0  0  0  0  0  0  0  0
   36.5490   29.2670   40.2720 H   0  0  0  0  0  0  0  0  0  0  0  0
   36.8170   31.2910   39.9160 C   0  0  0  0  0  3  0  0  0  0  0  0
   37.5260   32.4530   40.1220 C   0  0  0  0  0  0  0  0  0  0  0  0
   37.1370   34.0020   39.4070 Cl  0  0  0  0  0  0  0  0  0  0  0  0
   38.6140   32.4000   40.9450 C   0  0  0  0  0  0  0  0  0  0  0  0
   39.2800   33.2350   41.2100 H   0  0  0  0  0  0  0  0  0  0  0  0
   36.9540   24.7320   40.3910 C   0  0  0  0  0  0  0  0  0  0  0  0
   37.7200   23.8040   41.1400 C   0  0  0  0  0  0  0  0  0  0  0  0
   38.3660   24.2750   42.2870 C   0  0  0  0  0  0  0  0  0  0  0  0
   38.2220   25.5840   42.6120 N   0  0  0  0  0  0  0  0  0  0  0  0
   37.4720   26.4290   41.8500 C   0  0  0  0  0  0  0  0  0  0  0  0
   36.8340   26.0360   40.7480 N   0  0  0  0  0  0  0  0  0  0  0  0
   37.8030   22.7830   40.8460 H   0  0  0  0  0  0  0  0  0  0  0  0
   38.9490   23.6000   42.8690 H   0  0  0  0  0  0  0  0  0  0  0  0
   36.3080   24.1870   39.2330 C   0  0  0  0  0  0  0  0  0  0  0  0
   35.4600   24.8030   38.5160 O   0  0  0  0  0  0  0  0  0  0  0  0
   36.3770   23.2170   38.7390 H   0  0  0  0  0  0  0  0  0  0  0  0
  1  4  1  6  0  0  0
  1  2  1  0  0  0  0
  2  5  1  0  0  0  0
  2  6  1  0  0  0  0
  3  7  1  6  0  0  0
  3  1  1  0  0  0  0
  3  2  1  0  0  0  0
  9  8  1  0  0  0  0
 10  9  1  0  0  0  0
 10  3  1  0  0  0  0
 11 10  2  0  0  0  0
 12 11  1  0  0  0  0
 13 14  2  0  0  0  0
 13 11  1  0  0  0  0
 14 16  1  0  0  0  0
 15 14  1  0  0  0  0
 16 17  1  0  0  0  0
 16  9  2  0  0  0  0
 18 23  2  0  0  0  0
 18 19  1  0  0  0  0
 19 20  2  0  0  0  0
 20 21  1  0  0  0  0
 20 25  1  0  0  0  0
 22  1  1  0  0  0  0
 22 21  2  0  0  0  0
 23 22  1  0  0  0  0
 24 19  1  0  0  0  0
 26 18  1  0  0  0  0
 27 26  2  0  0  0  0
 28 26  1  0  0  0  0
M  END
>  <minimizedAffinity>
-4.89153767

$$$$

 OpenBabel03252507593D

 28 30  0  0  1  0  0  0  0  0999 V2000
   36.6170   30.7860   39.5360 C   0  0  1  0  0  0  0  0  0  0  0  0
   37.2870   31.2030   38.2670 C   0  0  0  0  0  0  0  0  0  0  0  0
   36.7680   29.8300   38.3930 C   0  0  2  0  0  0  0  0  0  0  0  0
   35.6140   31.1550   39.7650 H   0  0  0  0  0  0  0  0  0  0  0  0
   38.3840   31.4220   38.4220 H   0  0  0  0  0  0  0  0  0  0  0  0
   36.7900   32.0410   37.7730 H   0  0  0  0  0  0  0  0  0  0  0  0
   37.5850   29.0420   38.4680 H   0  0  0  0  0  0  0  0  0  0  0  0
   36.8140   29.5110   35.2870 Cl  0  0  0  0  0  0  0  0  0  0  0  0
   35.4000   29.2130   36.2710 C   0  0  0  0  0  0  0  0  0  0  0  0
   35.6100   29.4050   37.6130 C   0  0  0  0  0  0  0  0  0  0  0  0
   34.5150   29.1680   38.4550 C   0  0  0  0  0  0  0  0  0  0  0  0
   34.4860   29.2650   39.5530 H   0  0  0  0  0  0  0  0  0  0  0  0
   33.2740   28.7610   37.9490 C   0  0  0  0  0  3  0  0  0  0  0  0
   33.1040   28.5800   36.5950 C   0  0  0  0  0  0  0  0  0  0  0  0
   31.6130   28.0750   35.8320 Cl  0  0  0  0  0  0  0  0  0  0  0  0
   34.1760   28.8120   35.7800 C   0  0  0  0  0  0  0  0  0  0  0  0
   34.2030   28.7140   34.6840 H   0  0  0  0  0  0  0  0  0  0  0  0
   37.6890   29.2270   42.6820 C   0  0  0  0  0  0  0  0  0  0  0  0
   38.9520   29.8230   42.9260 C   0  0  0  0  0  0  0  0  0  0  0  0
   39.4180   30.7540   41.9920 C   0  0  0  0  0  0  0  0  0  0  0  0
   38.6400   31.0290   40.9170 N   0  0  0  0  0  0  0  0  0  0  0  0
   37.4330   30.4220   40.7360 C   0  0  0  0  0  0  0  0  0  0  0  0
   36.9380   29.5280   41.5920 N   0  0  0  0  0  0  0  0  0  0  0  0
   39.5290   29.5760   43.7870 H   0  0  0  0  0  0  0  0  0  0  0  0
   40.3650   31.2180   42.1490 H   0  0  0  0  0  0  0  0  0  0  0  0
   37.2610   28.2910   43.6790 C   0  0  0  0  0  0  0  0  0  0  0  0
   36.3830   27.3900   43.5010 O   0  0  0  0  0  0  0  0  0  0  0  0
   37.5500   28.1380   44.7200 H   0  0  0  0  0  0  0  0  0  0  0  0
  1  4  1  1  0  0  0
  1 22  1  0  0  0  0
  2  3  1  0  0  0  0
  2  5  1  0  0  0  0
  2  1  1  0  0  0  0
  3  7  1  1  0  0  0
  3  1  1  0  0  0  0
  6  2  1  0  0  0  0
  8  9  1  0  0  0  0
  9 10  1  0  0  0  0
 10  3  1  0  0  0  0
 10 11  2  0  0  0  0
 11 12  1  0  0  0  0
 13 11  1  0  0  0  0
 14 13  2  0  0  0  0
 15 14  1  0  0  0  0
 16  9  2  0  0  0  0
 16 14  1  0  0  0  0
 17 16  1  0  0  0  0
 18 19  1  0  0  0  0
 18 26  1  0  0  0  0
 19 24  1  0  0  0  0
 20 25  1  0  0  0  0
 20 19  2  0  0  0  0
 21 20  1  0  0  0  0
 22 21  2  0  0  0  0
 22 23  1  0  0  0  0
 23 18  2  0  0  0  0
 26 28  1  0  0  0  0
 27 26  2  0  0  0  0
M  END
>  <minimizedAffinity>
-4.83153343

$$$$

 OpenBabel03252507593D

 28 30  0  0  1  0  0  0  0  0999 V2000
   38.6110   28.3830   42.7370 C   0  0  1  0  0  0  0  0  0  0  0  0
   39.8310   29.2370   42.8720 C   0  0  0  0  0  0  0  0  0  0  0  0
   39.1970   29.0860   41.5510 C   0  0  2  0  0  0  0  0  0  0  0  0
   37.6540   28.7430   43.1230 H   0  0  0  0  0  0  0  0  0  0  0  0
   40.7420   28.6290   43.1480 H   0  0  0  0  0  0  0  0  0  0  0  0
   39.6970   30.0720   43.5630 H   0  0  0  0  0  0  0  0  0  0  0  0
   39.8110   28.4670   40.8210 H   0  0  0  0  0  0  0  0  0  0  0  0
   36.5680   28.7860   39.8910 Cl  0  0  0  0  0  0  0  0  0  0  0  0
   37.3740   30.3140   40.1640 C   0  0  0  0  0  0  0  0  0  0  0  0
   38.5060   30.2130   40.9310 C   0  0  0  0  0  0  0  0  0  0  0  0
   39.1890   31.4080   41.1950 C   0  0  0  0  0  0  0  0  0  0  0  0
   40.1100   31.5310   41.7880 H   0  0  0  0  0  0  0  0  0  0  0  0
   38.7360   32.6370   40.6990 C   0  0  0  0  0  3  0  0  0  0  0  0
   37.5950   32.6960   39.9330 C   0  0  0  0  0  0  0  0  0  0  0  0
   36.9200   34.1610   39.2530 Cl  0  0  0  0  0  0  0  0  0  0  0  0
   36.9340   31.5280   39.6790 C   0  0  0  0  0  0  0  0  0  0  0  0
   36.0140   31.4070   39.0880 H   0  0  0  0  0  0  0  0  0  0  0  0
   37.9220   24.8540   41.9990 C   0  0  0  0  0  0  0  0  0  0  0  0
   38.9960   24.1760   42.6270 C   0  0  0  0  0  0  0  0  0  0  0  0
   39.9490   24.9510   43.2940 C   0  0  0  0  0  0  0  0  0  0  0  0
   39.7900   26.2980   43.3000 N   0  0  0  0  0  0  0  0  0  0  0  0
   38.7350   26.8940   42.6760 C   0  0  0  0  0  0  0  0  0  0  0  0
   37.7970   26.2050   42.0260 N   0  0  0  0  0  0  0  0  0  0  0  0
   39.0790   23.1130   42.5980 H   0  0  0  0  0  0  0  0  0  0  0  0
   40.7680   24.4680   43.7750 H   0  0  0  0  0  0  0  0  0  0  0  0
   36.9730   24.0050   41.3420 C   0  0  0  0  0  0  0  0  0  0  0  0
   36.2650   24.3420   40.3420 O   0  0  0  0  0  0  0  0  0  0  0  0
   36.6580   22.9760   41.5200 H   0  0  0  0  0  0  0  0  0  0  0  0
  1  2  1  0  0  0  0
  1  4  1  1  0  0  0
  2  5  1  0  0  0  0
  2  6  1  0  0  0  0
  3  7  1  6  0  0  0
  3  1  1  0  0  0  0
  3  2  1  0  0  0  0
  8  9  1  0  0  0  0
  9 10  1  0  0  0  0
 10 11  2  0  0  0  0
 10  3  1  0  0  0  0
 11 12  1  0  0  0  0
 13 11  1  0  0  0  0
 14 13  2  0  0  0  0
 15 14  1  0  0  0  0
 16 14  1  0  0  0  0
 16  9  2  0  0  0  0
 17 16  1  0  0  0  0
 18 23  2  0  0  0  0
 18 19  1  0  0  0  0
 19 20  2  0  0  0  0
 20 21  1  0  0  0  0
 20 25  1  0  0  0  0
 22  1  1  0  0  0  0
 22 21  2  0  0  0  0
 23 22  1  0  0  0  0
 24 19  1  0  0  0  0
 26 28  1  0  0  0  0
 26 18  1  0  0  0  0
 27 26  2  0  0  0  0
M  END
>  <minimizedAffinity>
-4.71614933

$$$$

 OpenBabel03252507593D

 28 30  0  0  1  0  0  0  0  0999 V2000
   34.6510   28.5530   37.6570 C   0  0  1  0  0  0  0  0  0  0  0  0
   36.0360   28.6630   37.1050 C   0  0  0  0  0  0  0  0  0  0  0  0
   35.5860   29.6250   38.1260 C   0  0  2  0  0  0  0  0  0  0  0  0
   34.4080   27.7460   38.3510 H   0  0  0  0  0  0  0  0  0  0  0  0
   36.0330   28.9400   36.0100 H   0  0  0  0  0  0  0  0  0  0  0  0
   36.6400   27.7700   37.2780 H   0  0  0  0  0  0  0  0  0  0  0  0
   35.4300   30.6760   37.7210 H   0  0  0  0  0  0  0  0  0  0  0  0
   36.9150   32.0990   39.4930 Cl  0  0  0  0  0  0  0  0  0  0  0  0
   36.7810   30.5280   40.2500 C   0  0  0  0  0  0  0  0  0  0  0  0
   36.1510   29.5910   39.4720 C   0  0  0  0  0  0  0  0  0  0  0  0
   36.0010   28.3140   40.0310 C   0  0  0  0  0  0  0  0  0  0  0  0
   35.5250   27.4350   39.5660 H   0  0  0  0  0  0  0  0  0  0  0  0
   36.4740   28.0160   41.3150 C   0  0  0  0  0  3  0  0  0  0  0  0
   37.1020   28.9850   42.0650 C   0  0  0  0  0  0  0  0  0  0  0  0
   37.7370   28.7470   43.6780 Cl  0  0  0  0  0  0  0  0  0  0  0  0
   37.2430   30.2260   41.5130 C   0  0  0  0  0  0  0  0  0  0  0  0
   37.7180   31.1030   41.9790 H   0  0  0  0  0  0  0  0  0  0  0  0
   31.3260   29.8540   36.8060 C   0  0  0  0  0  0  0  0  0  0  0  0
   31.3770   29.9790   35.3950 C   0  0  0  0  0  0  0  0  0  0  0  0
   32.5670   29.6160   34.7570 C   0  0  0  0  0  0  0  0  0  0  0  0
   33.5940   29.1690   35.5210 N   0  0  0  0  0  0  0  0  0  0  0  0
   33.4850   29.0720   36.8760 C   0  0  0  0  0  0  0  0  0  0  0  0
   32.3760   29.4030   37.5370 N   0  0  0  0  0  0  0  0  0  0  0  0
   30.5430   30.3350   34.8350 H   0  0  0  0  0  0  0  0  0  0  0  0
   32.6350   29.7000   33.6970 H   0  0  0  0  0  0  0  0  0  0  0  0
   30.0780   30.2310   37.4010 C   0  0  0  0  0  0  0  0  0  0  0  0
   29.9300   31.1580   38.2560 O   0  0  0  0  0  0  0  0  0  0  0  0
   29.0600   29.8550   37.2790 H   0  0  0  0  0  0  0  0  0  0  0  0
  1  3  1  0  0  0  0
  1  4  1  1  0  0  0
  2  6  1  0  0  0  0
  2  1  1  0  0  0  0
  2  3  1  0  0  0  0
  3  7  1  6  0  0  0
  3 10  1  0  0  0  0
  5  2  1  0  0  0  0
  8  9  1  0  0  0  0
  9 16  1  0  0  0  0
 10 11  1  0  0  0  0
 10  9  2  0  0  0  0
 11 13  2  0  0  0  0
 12 11  1  0  0  0  0
 13 14  1  0  0  0  0
 14 15  1  0  0  0  0
 16 17  1  0  0  0  0
 16 14  2  0  0  0  0
 18 26  1  0  0  0  0
 18 23  1  0  0  0  0
 19 18  2  0  0  0  0
 20 19  1  0  0  0  0
 20 21  2  0  0  0  0
 21 22  1  0  0  0  0
 22 23  2  0  0  0  0
 22  1  1  0  0  0  0
 24 19  1  0  0  0  0
 25 20  1  0  0  0  0
 26 27  2  0  0  0  0
 28 26  1  0  0  0  0
M  END
>  <minimizedAffinity>
-4.64032698

$$$$

 OpenBabel03252507593D

 28 30  0  0  1  0  0  0  0  0999 V2000
   37.4640   27.3160   39.6140 C   0  0  1  0  0  0  0  0  0  0  0  0
   36.1330   27.8420   39.1820 C   0  0  0  0  0  0  0  0  0  0  0  0
   36.7540   28.3670   40.4110 C   0  0  2  0  0  0  0  0  0  0  0  0
   38.3640   27.6080   39.0680 H   0  0  0  0  0  0  0  0  0  0  0  0
   35.3300   27.0500   39.2350 H   0  0  0  0  0  0  0  0  0  0  0  0
   36.1540   28.3080   38.1950 H   0  0  0  0  0  0  0  0  0  0  0  0
   36.2240   28.0400   41.3620 H   0  0  0  0  0  0  0  0  0  0  0  0
   38.8340   29.3660   42.5150 Cl  0  0  0  0  0  0  0  0  0  0  0  0
   38.1370   30.3890   41.2790 C   0  0  0  0  0  0  0  0  0  0  0  0
   37.2540   29.7380   40.4570 C   0  0  0  0  0  0  0  0  0  0  0  0
   36.6720   30.5040   39.4370 C   0  0  0  0  0  0  0  0  0  0  0  0
   35.9460   30.1630   38.6800 H   0  0  0  0  0  0  0  0  0  0  0  0
   36.9770   31.8600   39.2730 C   0  0  0  0  0  3  0  0  0  0  0  0
   37.8690   32.4770   40.1210 C   0  0  0  0  0  0  0  0  0  0  0  0
   38.3380   34.1600   40.0280 Cl  0  0  0  0  0  0  0  0  0  0  0  0
   38.4320   31.7250   41.1120 C   0  0  0  0  0  0  0  0  0  0  0  0
   39.1580   32.0660   41.8660 H   0  0  0  0  0  0  0  0  0  0  0  0
   38.5700   24.6380   41.8690 C   0  0  0  0  0  0  0  0  0  0  0  0
   37.7210   23.5560   41.5290 C   0  0  0  0  0  0  0  0  0  0  0  0
   36.7700   23.7710   40.5260 C   0  0  0  0  0  0  0  0  0  0  0  0
   36.7180   24.9930   39.9420 N   0  0  0  0  0  0  0  0  0  0  0  0
   37.5630   25.9970   40.3130 C   0  0  0  0  0  0  0  0  0  0  0  0
   38.4880   25.8490   41.2620 N   0  0  0  0  0  0  0  0  0  0  0  0
   37.7990   22.6110   42.0150 H   0  0  0  0  0  0  0  0  0  0  0  0
   36.1170   22.9750   40.2500 H   0  0  0  0  0  0  0  0  0  0  0  0
   39.5290   24.3540   42.8950 C   0  0  0  0  0  0  0  0  0  0  0  0
   40.7610   24.6590   42.8430 O   0  0  0  0  0  0  0  0  0  0  0  0
   39.4470   23.8600   43.8640 H   0  0  0  0  0  0  0  0  0  0  0  0
  1  4  1  6  0  0  0
  1 22  1  0  0  0  0
  1  3  1  0  0  0  0
  2  5  1  0  0  0  0
  2  1  1  0  0  0  0
  2  3  1  0  0  0  0
  3 10  1  0  0  0  0
  3  7  1  1  0  0  0
  6  2  1  0  0  0  0
  9  8  1  0  0  0  0
 10  9  2  0  0  0  0
 11 10  1  0  0  0  0
 12 11  1  0  0  0  0
 13 11  2  0  0  0  0
 13 14  1  0  0  0  0
 14 16  2  0  0  0  0
 15 14  1  0  0  0  0
 16  9  1  0  0  0  0
 16 17  1  0  0  0  0
 18 26  1  0  0  0  0
 19 18  1  0  0  0  0
 19 24  1  0  0  0  0
 20 19  2  0  0  0  0
 21 22  2  0  0  0  0
 21 20  1  0  0  0  0
 22 23  1  0  0  0  0
 23 18  2  0  0  0  0
 25 20  1  0  0  0  0
 26 28  1  0  0  0  0
 27 26  2  0  0  0  0
M  END
>  <minimizedAffinity>
-4.63706684

$$$$

 OpenBabel03252507593D

 28 30  0  0  1  0  0  0  0  0999 V2000
   35.6490   28.6060   40.8210 C   0  0  1  0  0  0  0  0  0  0  0  0
   35.5390   29.9050   40.0880 C   0  0  0  0  0  0  0  0  0  0  0  0
   35.9670   28.6980   39.3590 C   0  0  2  0  0  0  0  0  0  0  0  0
   34.7430   28.0720   41.1140 H   0  0  0  0  0  0  0  0  0  0  0  0
   36.2970   30.6590   40.4520 H   0  0  0  0  0  0  0  0  0  0  0  0
   34.5320   30.3260   40.1090 H   0  0  0  0  0  0  0  0  0  0  0  0
   37.0640   28.7160   39.0580 H   0  0  0  0  0  0  0  0  0  0  0  0
   36.1430   25.6930   38.5270 Cl  0  0  0  0  0  0  0  0  0  0  0  0
   34.9990   26.8240   37.8410 C   0  0  0  0  0  0  0  0  0  0  0  0
   35.0920   28.0890   38.3620 C   0  0  0  0  0  0  0  0  0  0  0  0
   34.1900   29.0380   37.8600 C   0  0  0  0  0  0  0  0  0  0  0  0
   34.1080   30.0980   38.1520 H   0  0  0  0  0  0  0  0  0  0  0  0
   33.2490   28.7070   36.8780 C   0  0  0  0  0  3  0  0  0  0  0  0
   33.1880   27.4250   36.3800 C   0  0  0  0  0  0  0  0  0  0  0  0
   32.0630   26.8790   35.1560 Cl  0  0  0  0  0  0  0  0  0  0  0  0
   34.0690   26.5060   36.8740 C   0  0  0  0  0  0  0  0  0  0  0  0
   34.1490   25.4480   36.5820 H   0  0  0  0  0  0  0  0  0  0  0  0
   38.3520   26.8320   42.5600 C   0  0  0  0  0  0  0  0  0  0  0  0
   39.0000   27.8610   43.2870 C   0  0  0  0  0  0  0  0  0  0  0  0
   38.4950   29.1590   43.1610 C   0  0  0  0  0  0  0  0  0  0  0  0
   37.4230   29.3540   42.3550 N   0  0  0  0  0  0  0  0  0  0  0  0
   36.8420   28.3230   41.6780 C   0  0  0  0  0  0  0  0  0  0  0  0
   37.2800   27.0670   41.7610 N   0  0  0  0  0  0  0  0  0  0  0  0
   39.8410   27.6590   43.9110 H   0  0  0  0  0  0  0  0  0  0  0  0
   38.9630   29.9530   43.6960 H   0  0  0  0  0  0  0  0  0  0  0  0
   38.9070   25.5230   42.7380 C   0  0  0  0  0  0  0  0  0  0  0  0
   39.8780   25.2440   43.5090 O   0  0  0  0  0  0  0  0  0  0  0  0
   38.6620   24.5530   42.3040 H   0  0  0  0  0  0  0  0  0  0  0  0
  1  4  1  1  0  0  0
  1 22  1  0  0  0  0
  2  6  1  0  0  0  0
  2  5  1  0  0  0  0
  2  1  1  0  0  0  0
  3  7  1  6  0  0  0
  3  2  1  0  0  0  0
  3  1  1  0  0  0  0
  9 10  1  0  0  0  0
  9  8  1  0  0  0  0
 10  3  1  0  0  0  0
 11 12  1  0  0  0  0
 11 10  2  0  0  0  0
 13 11  1  0  0  0  0
 14 16  1  0  0  0  0
 14 13  2  0  0  0  0
 15 14  1  0  0  0  0
 16  9  2  0  0  0  0
 17 16  1  0  0  0  0
 18 26  1  0  0  0  0
 18 19  1  0  0  0  0
 19 24  1  0  0  0  0
 20 19  2  0  0  0  0
 20 25  1  0  0  0  0
 21 20  1  0  0  0  0
 22 23  1  0  0  0  0
 22 21  2  0  0  0  0
 23 18  2  0  0  0  0
 26 27  2  0  0  0  0
 28 26  1  0  0  0  0
M  END
>  <minimizedAffinity>
-4.63135958

$$$$

 OpenBabel03252507593D

 28 30  0  0  1  0  0  0  0  0999 V2000
   40.8700   29.8720   41.3280 C   0  0  1  0  0  0  0  0  0  0  0  0
   41.4270   29.2410   42.5630 C   0  0  0  0  0  0  0  0  0  0  0  0
   39.9810   29.5120   42.4790 C   0  0  2  0  0  0  0  0  0  0  0  0
   40.7830   29.2830   40.4120 H   0  0  0  0  0  0  0  0  0  0  0  0
   42.1150   29.9420   43.1210 H   0  0  0  0  0  0  0  0  0  0  0  0
   41.9190   28.2840   42.3730 H   0  0  0  0  0  0  0  0  0  0  0  0
   39.6380   30.3530   43.1640 H   0  0  0  0  0  0  0  0  0  0  0  0
   36.9660   29.9110   41.7710 Cl  0  0  0  0  0  0  0  0  0  0  0  0
   37.6870   28.3520   42.0980 C   0  0  0  0  0  0  0  0  0  0  0  0
   39.0290   28.4110   42.3760 C   0  0  0  0  0  0  0  0  0  0  0  0
   39.6660   27.1890   42.6330 C   0  0  0  0  0  0  0  0  0  0  0  0
   40.7310   27.0310   42.8730 H   0  0  0  0  0  0  0  0  0  0  0  0
   38.9660   25.9770   42.6090 C   0  0  0  0  0  3  0  0  0  0  0  0
   37.6190   25.9600   42.3260 C   0  0  0  0  0  0  0  0  0  0  0  0
   36.6260   24.5200   42.2630 Cl  0  0  0  0  0  0  0  0  0  0  0  0
   37.0050   27.1540   42.0760 C   0  0  0  0  0  0  0  0  0  0  0  0
   35.9420   27.3100   41.8360 H   0  0  0  0  0  0  0  0  0  0  0  0
   40.1070   33.3420   40.4050 C   0  0  0  0  0  0  0  0  0  0  0  0
   41.3140   34.0270   40.6940 C   0  0  0  0  0  0  0  0  0  0  0  0
   42.3740   33.2780   41.2130 C   0  0  0  0  0  0  0  0  0  0  0  0
   42.1870   31.9490   41.4050 N   0  0  0  0  0  0  0  0  0  0  0  0
   41.0020   31.3450   41.1080 C   0  0  0  0  0  0  0  0  0  0  0  0
   39.9570   32.0090   40.6120 N   0  0  0  0  0  0  0  0  0  0  0  0
   41.4150   35.0740   40.5250 H   0  0  0  0  0  0  0  0  0  0  0  0
   43.2940   33.7670   41.4400 H   0  0  0  0  0  0  0  0  0  0  0  0
   39.0620   34.1610   39.8670 C   0  0  0  0  0  0  0  0  0  0  0  0
   37.8210   33.9820   40.0700 O   0  0  0  0  0  0  0  0  0  0  0  0
   39.0730   35.0410   39.2220 H   0  0  0  0  0  0  0  0  0  0  0  0
  1  4  1  6  0  0  0
  1  3  1  0  0  0  0
  1  2  1  0  0  0  0
  2  5  1  0  0  0  0
  3  2  1  0  0  0  0
  3  7  1  1  0  0  0
  6  2  1  0  0  0  0
  8  9  1  0  0  0  0
  9 10  1  0  0  0  0
 10  3  1  0  0  0  0
 10 11  2  0  0  0  0
 11 12  1  0  0  0  0
 13 11  1  0  0  0  0
 14 13  2  0  0  0  0
 15 14  1  0  0  0  0
 16  9  2  0  0  0  0
 16 14  1  0  0  0  0
 17 16  1  0  0  0  0
 18 23  2  0  0  0  0
 18 19  1  0  0  0  0
 19 20  2  0  0  0  0
 20 21  1  0  0  0  0
 20 25  1  0  0  0  0
 22  1  1  0  0  0  0
 22 21  2  0  0  0  0
 23 22  1  0  0  0  0
 24 19  1  0  0  0  0
 26 27  2  0  0  0  0
 26 18  1  0  0  0  0
 28 26  1  0  0  0  0
M  END
>  <minimizedAffinity>
-4.5558877

$$$$

 OpenBabel03252507593D

 28 30  0  0  1  0  0  0  0  0999 V2000
   36.9060   27.5560   38.5960 C   0  0  1  0  0  0  0  0  0  0  0  0
   35.9390   28.2880   37.7220 C   0  0  0  0  0  0  0  0  0  0  0  0
   36.0430   28.6500   39.1470 C   0  0  2  0  0  0  0  0  0  0  0  0
   37.9760   27.7500   38.4990 H   0  0  0  0  0  0  0  0  0  0  0  0
   35.1090   27.6160   37.3570 H   0  0  0  0  0  0  0  0  0  0  0  0
   36.4180   28.8030   36.8870 H   0  0  0  0  0  0  0  0  0  0  0  0
   35.1330   28.3470   39.7590 H   0  0  0  0  0  0  0  0  0  0  0  0
   36.9480   29.2980   42.0650 Cl  0  0  0  0  0  0  0  0  0  0  0  0
   37.0640   30.4330   40.7390 C   0  0  0  0  0  0  0  0  0  0  0  0
   36.6190   29.9320   39.5430 C   0  0  0  0  0  0  0  0  0  0  0  0
   36.6990   30.7920   38.4380 C   0  0  0  0  0  0  0  0  0  0  0  0
   36.3950   30.5740   37.4010 H   0  0  0  0  0  0  0  0  0  0  0  0
   37.2060   32.0920   38.5560 C   0  0  0  0  0  3  0  0  0  0  0  0
   37.6430   32.5570   39.7760 C   0  0  0  0  0  0  0  0  0  0  0  0
   38.2970   34.1550   40.0620 Cl  0  0  0  0  0  0  0  0  0  0  0  0
   37.5620   31.7140   40.8470 C   0  0  0  0  0  0  0  0  0  0  0  0
   37.8670   31.9320   41.8820 H   0  0  0  0  0  0  0  0  0  0  0  0
   36.7620   24.5900   40.7540 C   0  0  0  0  0  0  0  0  0  0  0  0
   35.9410   23.6960   40.0230 C   0  0  0  0  0  0  0  0  0  0  0  0
   35.4410   24.1360   38.7930 C   0  0  0  0  0  0  0  0  0  0  0  0
   35.7710   25.3840   38.3760 N   0  0  0  0  0  0  0  0  0  0  0  0
   36.5660   26.1990   39.1250 C   0  0  0  0  0  0  0  0  0  0  0  0
   37.0700   25.8330   40.3040 N   0  0  0  0  0  0  0  0  0  0  0  0
   35.7090   22.7230   40.3910 H   0  0  0  0  0  0  0  0  0  0  0  0
   34.8210   23.4860   38.2210 H   0  0  0  0  0  0  0  0  0  0  0  0
   37.2520   24.0790   42.0000 C   0  0  0  0  0  0  0  0  0  0  0  0
   38.4410   24.2140   42.4250 O   0  0  0  0  0  0  0  0  0  0  0  0
   36.7760   23.5100   42.8010 H   0  0  0  0  0  0  0  0  0  0  0  0
  1  4  1  6  0  0  0
  1 22  1  0  0  0  0
  1  3  1  0  0  0  0
  2  1  1  0  0  0  0
  2  3  1  0  0  0  0
  3 10  1  0  0  0  0
  3  7  1  1  0  0  0
  5  2  1  0  0  0  0
  6  2  1  0  0  0  0
  9 16  1  0  0  0  0
  9  8  1  0  0  0  0
 10  9  2  0  0  0  0
 11 13  2  0  0  0  0
 11 10  1  0  0  0  0
 12 11  1  0  0  0  0
 13 14  1  0  0  0  0
 14 15  1  0  0  0  0
 14 16  2  0  0  0  0
 16 17  1  0  0  0  0
 18 26  1  0  0  0  0
 19 24  1  0  0  0  0
 19 18  2  0  0  0  0
 20 19  1  0  0  0  0
 21 20  2  0  0  0  0
 21 22  1  0  0  0  0
 22 23  2  0  0  0  0
 23 18  1  0  0  0  0
 25 20  1  0  0  0  0
 26 27  2  0  0  0  0
 26 28  1  0  0  0  0
M  END
>  <minimizedAffinity>
-4.48861074

$$$$
