
 OpenBabel03252509163D

 26 28  0  0  0  0  0  0  0  0999 V2000
   46.0510   32.9450   45.9520 C   0  0  0  0  0  0  0  0  0  0  0  0
   45.6510   32.7180   47.2970 C   0  0  0  0  0  0  0  0  0  0  0  0
   46.1080   31.6210   47.9400 C   0  0  0  0  0  0  0  0  0  0  0  0
   46.9670   30.7350   47.2610 C   0  0  0  0  0  0  0  0  0  0  0  0
   47.1120   31.5290   45.6280 S   0  0  0  0  0  0  0  0  0  0  0  0
   44.9780   33.4670   47.7430 H   0  0  0  0  0  0  0  0  0  0  0  0
   45.8070   31.4520   48.9510 H   0  0  0  0  0  0  0  0  0  0  0  0
   45.7170   28.0420   46.4690 Cl  0  0  0  0  0  0  0  0  0  0  0  0
   47.2370   28.2560   47.3050 C   0  0  0  0  0  0  0  0  0  0  0  0
   47.6170   29.5550   47.5660 C   0  0  0  0  0  0  0  0  0  0  0  0
   48.8460   29.5810   48.2350 C   0  0  0  0  0  0  0  0  0  0  0  0
   49.3190   30.5280   48.5310 H   0  0  0  0  0  0  0  0  0  0  0  0
   49.5730   28.4720   48.5850 C   0  0  0  0  0  3  0  0  0  0  0  0
   49.0880   27.2280   48.2690 C   0  0  0  0  0  0  0  0  0  0  0  0
   50.0100   25.8200   48.7140 Cl  0  0  0  0  0  0  0  0  0  0  0  0
   47.8880   27.1000   47.6120 C   0  0  0  0  0  0  0  0  0  0  0  0
   47.5270   26.1240   47.3760 H   0  0  0  0  0  0  0  0  0  0  0  0
   44.4870   36.0350   44.6240 C   0  0  0  0  0  0  0  0  0  0  0  0
   45.0890   36.0820   43.3420 C   0  0  0  0  0  0  0  0  0  0  0  0
   45.9940   35.0640   42.9930 C   0  0  0  0  0  0  0  0  0  0  0  0
   46.2440   34.0770   43.9220 N   0  0  0  0  0  0  0  0  0  0  0  0
   45.6390   34.0840   45.1310 C   0  0  0  0  0  0  0  0  0  0  0  0
   44.7610   35.0560   45.4900 N   0  0  0  0  0  0  0  0  0  0  0  0
   43.7950   36.8090   44.8970 H   0  0  0  0  0  0  0  0  0  0  0  0
   44.8830   36.8600   42.6280 H   0  0  0  0  0  0  0  0  0  0  0  0
   46.4990   35.0210   42.0380 H   0  0  0  0  0  0  0  0  0  0  0  0
  1  2  2  0  0  0  0
  2  6  1  0  0  0  0
  2  3  1  0  0  0  0
  3  7  1  0  0  0  0
  4 10  1  0  0  0  0
  4  3  2  0  0  0  0
  5  1  1  0  0  0  0
  5  4  1  0  0  0  0
  8  9  1  0  0  0  0
  9 10  2  0  0  0  0
  9 16  1  0  0  0  0
 10 11  1  0  0  0  0
 11 12  1  0  0  0  0
 11 13  2  0  0  0  0
 14 13  1  0  0  0  0
 14 15  1  0  0  0  0
 16 14  2  0  0  0  0
 17 16  1  0  0  0  0
 18 24  1  0  0  0  0
 18 23  1  0  0  0  0
 19 18  2  0  0  0  0
 20 19  1  0  0  0  0
 20 21  2  0  0  0  0
 21 22  1  0  0  0  0
 22 23  2  0  0  0  0
 22  1  1  0  0  0  0
 25 19  1  0  0  0  0
 26 20  1  0  0  0  0
M  END
>  <minimizedAffinity>
-4.83932638

>  <minimizedRMSD>
1.4724493

$$$$
