
 OpenBabel03242518123D

 32 34  0  0  0  0  0  0  0  0999 V2000
   49.0450   33.1630   41.9410 C   0  0  0  0  0  0  0  0  0  0  0  0
   48.6830   32.2700   40.8870 C   0  0  0  0  0  0  0  0  0  0  0  0
   49.6800   31.5390   40.2960 C   0  0  0  0  0  0  0  0  0  0  0  0
   51.0390   31.7040   40.7630 C   0  0  0  0  0  0  0  0  0  0  0  0
   50.9070   32.9340   42.0840 S   0  0  0  0  0  0  0  0  0  0  0  0
   47.6490   32.2170   40.6120 H   0  0  0  0  0  0  0  0  0  0  0  0
   49.5230   30.8560   39.5110 H   0  0  0  0  0  0  0  0  0  0  0  0
   52.0980   29.7000   42.7420 Cl  0  0  0  0  0  0  0  0  0  0  0  0
   52.7800   30.1660   41.1770 C   0  0  0  0  0  0  0  0  0  0  0  0
   52.2030   31.1030   40.3490 C   0  0  0  0  0  0  0  0  0  0  0  0
   52.7700   31.4270   39.1500 C   0  0  0  0  0  0  0  0  0  0  0  0
   52.2990   32.1620   38.5220 H   0  0  0  0  0  0  0  0  0  0  0  0
   53.9570   30.7930   38.7620 C   0  0  0  0  0  0  0  0  0  0  0  0
   54.5410   29.8420   39.6020 C   0  0  0  0  0  0  0  0  0  0  0  0
   56.0160   29.0900   39.0620 Cl  0  0  0  0  0  0  0  0  0  0  0  0
   53.9610   29.5140   40.8240 C   0  0  0  0  0  0  0  0  0  0  0  0
   54.4120   28.7800   41.4730 H   0  0  0  0  0  0  0  0  0  0  0  0
   48.3680   34.0880   42.7940 C   0  0  0  0  0  0  0  0  0  0  0  0
   49.0930   34.4820   43.5490 H   0  0  0  0  0  0  0  0  0  0  0  0
   47.5590   33.5920   43.3770 H   0  0  0  0  0  0  0  0  0  0  0  0
   47.7490   35.2880   42.1130 C   0  0  0  0  0  0  0  0  0  0  0  0
   48.1370   35.5100   41.1240 H   0  0  0  0  0  0  0  0  0  0  0  0
   47.9840   36.1820   42.7560 H   0  0  0  0  0  0  0  0  0  0  0  0
   46.2980   35.1360   42.1240 C   0  0  0  0  0  0  0  0  0  0  0  0
   45.5060   35.6670   43.1410 C   0  0  0  0  0  0  0  0  0  0  0  0
   44.1370   35.4800   43.0820 C   0  0  0  0  0  0  0  0  0  0  0  0
   43.6340   34.7870   42.0340 N   0  0  0  0  0  0  0  0  0  0  0  0
   44.4170   34.2830   41.0650 C   0  0  0  0  0  0  0  0  0  0  0  0
   45.7190   34.4650   41.1250 N   0  0  0  0  0  0  0  0  0  0  0  0
   46.0360   36.1970   43.9150 H   0  0  0  0  0  0  0  0  0  0  0  0
   43.5400   35.9000   43.8810 H   0  0  0  0  0  0  0  0  0  0  0  0
   43.9090   33.7440   40.2720 H   0  0  0  0  0  0  0  0  0  0  0  0
  1  5  1  0  0  0  0
  1 18  1  0  0  0  0
  2  1  2  0  0  0  0
  3  4  2  0  0  0  0
  3  2  1  0  0  0  0
  4  5  1  0  0  0  0
  6  2  1  0  0  0  0
  7  3  1  0  0  0  0
  9  8  1  0  0  0  0
 10  4  1  0  0  0  0
 10  9  2  0  0  0  0
 11 10  1  0  0  0  0
 12 11  1  0  0  0  0
 13 11  2  0  0  0  0
 13 14  1  0  0  0  0
 14 16  2  0  0  0  0
 15 14  1  0  0  0  0
 16  9  1  0  0  0  0
 16 17  1  0  0  0  0
 18 20  1  0  0  0  0
 18 19  1  0  0  0  0
 21 24  1  0  0  0  0
 21 23  1  0  0  0  0
 21 18  1  0  0  0  0
 22 21  1  0  0  0  0
 24 25  1  0  0  0  0
 25 30  1  0  0  0  0
 26 25  2  0  0  0  0
 26 31  1  0  0  0  0
 27 26  1  0  0  0  0
 28 29  1  0  0  0  0
 28 27  2  0  0  0  0
 29 24  2  0  0  0  0
 32 28  1  0  0  0  0
M  END
>  <minimizedAffinity>
-4.25739956

>  <minimizedRMSD>
1.75774384

$$$$
