
 OpenBabel03252508323D

 33 35  0  0  1  0  0  0  0  0999 V2000
   45.5300   33.7630   42.9580 N   0  0  0  0  0  0  0  0  0  0  0  0
   45.8530   33.2170   41.6900 C   0  0  1  0  0  0  0  0  0  0  0  0
   45.4750   34.0590   40.5250 C   0  0  0  0  0  0  0  0  0  0  0  0
   44.3170   34.8260   40.6320 N   0  0  0  0  0  0  0  0  0  0  0  0
   43.8500   35.1780   41.9030 C   0  0  0  0  0  0  0  0  0  0  0  0
   44.9860   35.0860   42.9090 C   0  0  0  0  0  0  0  0  0  0  0  0
   45.3430   32.2320   41.5840 H   0  0  0  0  0  0  0  0  0  0  0  0
   46.3380   34.7520   40.2980 H   0  0  0  0  0  0  0  0  0  0  0  0
   45.4200   33.4090   39.6100 H   0  0  0  0  0  0  0  0  0  0  0  0
   43.6440   34.8080   39.8670 H   0  0  0  0  0  0  0  0  0  0  0  0
   43.0840   34.4150   42.2190 H   0  0  0  0  0  0  0  0  0  0  0  0
   43.3590   36.1490   42.0140 H   0  0  0  0  0  0  0  0  0  0  0  0
   45.7980   35.8070   42.5980 H   0  0  0  0  0  0  0  0  0  0  0  0
   44.5820   35.4850   43.8410 H   0  0  0  0  0  0  0  0  0  0  0  0
   47.8350   35.4900   42.0160 Cl  0  0  0  0  0  0  0  0  0  0  0  0
   48.3680   33.8590   41.6550 C   0  0  0  0  0  0  0  0  0  0  0  0
   47.3280   32.9450   41.5400 C   0  0  0  0  0  0  0  0  0  0  0  0
   47.6770   31.6240   41.2540 C   0  0  0  0  0  0  0  0  0  0  0  0
   47.0070   30.7890   41.1310 H   0  0  0  0  0  0  0  0  0  0  0  0
   48.9960   31.2430   41.0920 C   0  0  0  0  0  3  0  0  0  0  0  0
   50.0120   32.1680   41.2120 C   0  0  0  0  0  0  0  0  0  0  0  0
   51.7180   31.8240   41.0320 Cl  0  0  0  0  0  0  0  0  0  0  0  0
   49.6590   33.4660   41.4940 C   0  0  0  0  0  0  0  0  0  0  0  0
   50.3490   34.3070   41.6170 H   0  0  0  0  0  0  0  0  0  0  0  0
   46.2820   33.6570   45.2260 C   0  0  0  0  0  0  0  0  0  0  0  0
   45.7750   32.9620   44.1100 C   0  0  0  0  0  0  0  0  0  0  0  0
   45.5630   31.5980   44.2260 C   0  0  0  0  0  0  0  0  0  0  0  0
   45.8500   30.9900   45.3990 N   0  0  0  0  0  0  0  0  0  0  0  0
   46.3380   31.6740   46.4660 C   0  0  0  0  0  0  0  0  0  0  0  0
   46.5490   33.0010   46.3690 N   0  0  0  0  0  0  0  0  0  0  0  0
   46.5110   34.7060   45.3300 H   0  0  0  0  0  0  0  0  0  0  0  0
   45.1720   31.0930   43.3610 H   0  0  0  0  0  0  0  0  0  0  0  0
   46.5140   31.0390   47.3270 H   0  0  0  0  0  0  0  0  0  0  0  0
  1 26  1  0  0  0  0
  2  7  1  6  0  0  0
  2  1  1  0  0  0  0
  3  4  1  0  0  0  0
  3  2  1  0  0  0  0
  4  5  1  0  0  0  0
  5 12  1  0  0  0  0
  5 11  1  0  0  0  0
  5  6  1  0  0  0  0
  6  1  1  0  0  0  0
  6 14  1  0  0  0  0
  8  3  1  0  0  0  0
  9  3  1  0  0  0  0
 10  4  1  0  0  0  0
 13  6  1  0  0  0  0
 16 15  1  0  0  0  0
 17 16  1  0  0  0  0
 17  2  1  0  0  0  0
 18 17  2  0  0  0  0
 19 18  1  0  0  0  0
 20 21  2  0  0  0  0
 20 18  1  0  0  0  0
 21 23  1  0  0  0  0
 22 21  1  0  0  0  0
 23 24  1  0  0  0  0
 23 16  2  0  0  0  0
 25 31  1  0  0  0  0
 25 30  1  0  0  0  0
 26 27  1  0  0  0  0
 26 25  2  0  0  0  0
 27 28  2  0  0  0  0
 28 29  1  0  0  0  0
 29 33  1  0  0  0  0
 30 29  2  0  0  0  0
 32 27  1  0  0  0  0
M  END
>  <minimizedAffinity>
-4.50093937

>  <minimizedRMSD>
1.97137046

$$$$
