
 OpenBabel03252502473D

 46 49  0  0  1  0  0  0  0  0999 V2000
   47.6460   35.6290   41.9280 C   0  0  0  0  0  0  0  0  0  0  0  0
   47.7550   35.9960   42.9730 H   0  0  0  0  0  0  0  0  0  0  0  0
   47.4130   36.5510   41.3400 H   0  0  0  0  0  0  0  0  0  0  0  0
   48.9060   34.9620   41.4810 C   0  0  1  0  0  0  0  0  0  0  0  0
   50.0460   34.8840   42.4540 C   0  0  0  0  0  0  0  0  0  0  0  0
   49.2440   33.6820   42.0840 C   0  0  2  0  0  0  0  0  0  0  0  0
   49.2000   35.2160   40.4670 H   0  0  0  0  0  0  0  0  0  0  0  0
   51.0930   35.0190   42.1290 H   0  0  0  0  0  0  0  0  0  0  0  0
   49.8670   35.3670   43.4540 H   0  0  0  0  0  0  0  0  0  0  0  0
   48.7270   33.2160   42.9190 H   0  0  0  0  0  0  0  0  0  0  0  0
   49.9540   32.7830   41.1830 N   0  0  0  0  0  0  0  0  0  0  0  0
   49.1470   32.2170   40.1700 C   0  0  0  0  0  0  0  0  0  0  0  0
   50.0650   31.3230   39.3550 C   0  0  0  0  0  0  0  0  0  0  0  0
   50.6000   30.2630   40.1350 N   0  0  0  0  0  0  0  0  0  0  0  0
   50.7050   30.5520   41.5530 C   0  0  0  0  0  0  0  0  0  0  0  0
   51.0010   32.0400   41.7360 C   0  0  0  0  0  0  0  0  0  0  0  0
   48.6570   32.9620   39.5470 H   0  0  0  0  0  0  0  0  0  0  0  0
   48.3920   31.5530   40.6310 H   0  0  0  0  0  0  0  0  0  0  0  0
   50.8080   31.9780   38.8590 H   0  0  0  0  0  0  0  0  0  0  0  0
   49.4250   30.9130   38.5410 H   0  0  0  0  0  0  0  0  0  0  0  0
   51.5070   29.9300   39.7340 H   0  0  0  0  0  0  0  0  0  0  0  0
   51.6030   29.9730   41.9050 H   0  0  0  0  0  0  0  0  0  0  0  0
   49.7750   30.2650   42.0470 H   0  0  0  0  0  0  0  0  0  0  0  0
   51.2440   32.2890   42.7660 H   0  0  0  0  0  0  0  0  0  0  0  0
   51.9260   32.2090   41.1130 H   0  0  0  0  0  0  0  0  0  0  0  0
   46.5540   34.6040   41.8490 C   0  0  0  0  0  0  0  0  0  0  0  0
   46.7310   33.7330   41.2390 H   0  0  0  0  0  0  0  0  0  0  0  0
   45.6690   35.1160   41.3690 H   0  0  0  0  0  0  0  0  0  0  0  0
   44.9370   34.9940   45.2120 C   0  0  0  0  0  0  0  0  0  0  0  0
   45.3790   35.2960   43.8980 C   0  0  0  0  0  0  0  0  0  0  0  0
   46.0700   34.3190   43.2400 C   0  0  0  0  0  0  0  0  0  0  0  0
   46.3000   33.1290   43.8510 N   0  0  0  0  0  0  0  0  0  0  0  0
   45.8860   32.8640   45.0690 C   0  0  0  0  0  0  0  0  0  0  0  0
   45.2000   33.7920   45.7610 N   0  0  0  0  0  0  0  0  0  0  0  0
   44.3970   35.7550   45.7310 H   0  0  0  0  0  0  0  0  0  0  0  0
   45.1970   36.2360   43.4150 H   0  0  0  0  0  0  0  0  0  0  0  0
   45.2620   32.6730   48.0390 Cl  0  0  0  0  0  0  0  0  0  0  0  0
   45.8940   31.3790   47.0590 C   0  0  0  0  0  0  0  0  0  0  0  0
   46.1390   31.5810   45.7170 C   0  0  0  0  0  0  0  0  0  0  0  0
   46.6400   30.4970   45.0260 C   0  0  0  0  0  0  0  0  0  0  0  0
   46.8540   30.5960   43.9580 H   0  0  0  0  0  0  0  0  0  0  0  0
   46.9010   29.2580   45.5820 C   0  0  0  0  0  3  0  0  0  0  0  0
   46.6320   29.1270   46.9290 C   0  0  0  0  0  0  0  0  0  0  0  0
   46.9680   27.5430   47.6280 Cl  0  0  0  0  0  0  0  0  0  0  0  0
   46.1240   30.1730   47.7060 C   0  0  0  0  0  0  0  0  0  0  0  0
   45.9500   29.9720   48.7370 H   0  0  0  0  0  0  0  0  0  0  0  0
  1  2  1  0  0  0  0
  3  1  1  0  0  0  0
  4  7  1  6  0  0  0
  4  1  1  0  0  0  0
  4  6  1  0  0  0  0
  4  5  1  0  0  0  0
  5  9  1  0  0  0  0
  6  5  1  0  0  0  0
  6 10  1  1  0  0  0
  8  5  1  0  0  0  0
 11 16  1  0  0  0  0
 11  6  1  0  0  0  0
 12 18  1  0  0  0  0
 12 11  1  0  0  0  0
 13 14  1  0  0  0  0
 13 12  1  0  0  0  0
 14 15  1  0  0  0  0
 15 16  1  0  0  0  0
 15 22  1  0  0  0  0
 15 23  1  0  0  0  0
 16 24  1  0  0  0  0
 17 12  1  0  0  0  0
 19 13  1  0  0  0  0
 20 13  1  0  0  0  0
 21 14  1  0  0  0  0
 25 16  1  0  0  0  0
 26  1  1  0  0  0  0
 26 31  1  0  0  0  0
 27 26  1  0  0  0  0
 28 26  1  0  0  0  0
 29 35  1  0  0  0  0
 29 34  1  0  0  0  0
 30 29  2  0  0  0  0
 31 32  2  0  0  0  0
 31 30  1  0  0  0  0
 32 33  1  0  0  0  0
 33 39  1  0  0  0  0
 33 34  2  0  0  0  0
 36 30  1  0  0  0  0
 38 45  1  0  0  0  0
 38 37  1  0  0  0  0
 39 38  2  0  0  0  0
 40 42  2  0  0  0  0
 40 39  1  0  0  0  0
 41 40  1  0  0  0  0
 42 43  1  0  0  0  0
 43 44  1  0  0  0  0
 43 45  2  0  0  0  0
 45 46  1  0  0  0  0
M  END
>  <minimizedAffinity>
-5.17917442

>  <minimizedRMSD>
1.68922842

$$$$
