
 OpenBabel03252502473D

 46 49  0  0  1  0  0  0  0  0999 V2000
   46.7120   34.2280   40.5620 C   0  0  0  0  0  0  0  0  0  0  0  0
   46.8010   34.7420   39.5780 H   0  0  0  0  0  0  0  0  0  0  0  0
   45.6110   34.0710   40.6870 H   0  0  0  0  0  0  0  0  0  0  0  0
   47.4790   32.9470   40.5470 C   0  0  1  0  0  0  0  0  0  0  0  0
   47.8210   32.3450   39.2150 C   0  0  0  0  0  0  0  0  0  0  0  0
   48.8550   32.9880   40.0760 C   0  0  2  0  0  0  0  0  0  0  0  0
   47.1480   32.2280   41.2910 H   0  0  0  0  0  0  0  0  0  0  0  0
   47.7860   31.2530   39.0490 H   0  0  0  0  0  0  0  0  0  0  0  0
   47.4400   32.9030   38.3160 H   0  0  0  0  0  0  0  0  0  0  0  0
   49.3450   33.8440   39.6190 H   0  0  0  0  0  0  0  0  0  0  0  0
   49.7260   32.0220   40.7340 N   0  0  0  0  0  0  0  0  0  0  0  0
   50.1310   32.3950   42.0350 C   0  0  0  0  0  0  0  0  0  0  0  0
   51.0220   31.2710   42.5340 C   0  0  0  0  0  0  0  0  0  0  0  0
   52.1870   31.1240   41.7340 N   0  0  0  0  0  0  0  0  0  0  0  0
   52.0340   31.5660   40.3610 C   0  0  0  0  0  0  0  0  0  0  0  0
   50.5980   31.3030   39.9110 C   0  0  0  0  0  0  0  0  0  0  0  0
   49.2960   32.5740   42.7090 H   0  0  0  0  0  0  0  0  0  0  0  0
   50.7690   33.2970   41.9750 H   0  0  0  0  0  0  0  0  0  0  0  0
   50.3880   30.3680   42.6320 H   0  0  0  0  0  0  0  0  0  0  0  0
   51.3040   31.5620   43.5710 H   0  0  0  0  0  0  0  0  0  0  0  0
   52.5560   30.1470   41.7940 H   0  0  0  0  0  0  0  0  0  0  0  0
   52.7140   30.8990   39.7610 H   0  0  0  0  0  0  0  0  0  0  0  0
   52.2870   32.6260   40.2950 H   0  0  0  0  0  0  0  0  0  0  0  0
   50.4620   31.4680   38.8450 H   0  0  0  0  0  0  0  0  0  0  0  0
   50.4500   30.2030   40.1110 H   0  0  0  0  0  0  0  0  0  0  0  0
   47.2990   35.0810   41.6460 C   0  0  0  0  0  0  0  0  0  0  0  0
   47.4210   36.1330   41.4430 H   0  0  0  0  0  0  0  0  0  0  0  0
   48.3470   34.7000   41.8220 H   0  0  0  0  0  0  0  0  0  0  0  0
   44.8430   35.1420   44.4820 C   0  0  0  0  0  0  0  0  0  0  0  0
   45.4780   35.4690   43.2560 C   0  0  0  0  0  0  0  0  0  0  0  0
   46.6000   34.7590   42.9340 C   0  0  0  0  0  0  0  0  0  0  0  0
   47.0510   33.7940   43.7750 N   0  0  0  0  0  0  0  0  0  0  0  0
   46.4530   33.5020   44.9070 C   0  0  0  0  0  0  0  0  0  0  0  0
   45.3440   34.1720   45.2720 N   0  0  0  0  0  0  0  0  0  0  0  0
   43.9670   35.6940   44.7390 H   0  0  0  0  0  0  0  0  0  0  0  0
   45.1220   36.2320   42.5910 H   0  0  0  0  0  0  0  0  0  0  0  0
   47.1800   30.8300   43.6510 Cl  0  0  0  0  0  0  0  0  0  0  0  0
   47.3070   31.2120   45.3460 C   0  0  0  0  0  0  0  0  0  0  0  0
   46.9460   32.4620   45.8050 C   0  0  0  0  0  0  0  0  0  0  0  0
   47.0820   32.6690   47.1610 C   0  0  0  0  0  0  0  0  0  0  0  0
   46.8120   33.6390   47.5840 H   0  0  0  0  0  0  0  0  0  0  0  0
   47.5410   31.7240   48.0620 C   0  0  0  0  0  3  0  0  0  0  0  0
   47.8830   30.4950   47.5330 C   0  0  0  0  0  0  0  0  0  0  0  0
   48.4690   29.3010   48.6900 Cl  0  0  0  0  0  0  0  0  0  0  0  0
   47.7780   30.2010   46.1710 C   0  0  0  0  0  0  0  0  0  0  0  0
   48.0670   29.2240   45.8620 H   0  0  0  0  0  0  0  0  0  0  0  0
  1  3  1  0  0  0  0
  1 26  1  0  0  0  0
  2  1  1  0  0  0  0
  4  1  1  0  0  0  0
  4  7  1  1  0  0  0
  5  6  1  0  0  0  0
  5  4  1  0  0  0  0
  6 10  1  6  0  0  0
  6  4  1  0  0  0  0
  6 11  1  0  0  0  0
  8  5  1  0  0  0  0
  9  5  1  0  0  0  0
 11 12  1  0  0  0  0
 12 13  1  0  0  0  0
 12 17  1  0  0  0  0
 13 19  1  0  0  0  0
 13 20  1  0  0  0  0
 14 21  1  0  0  0  0
 14 13  1  0  0  0  0
 15 14  1  0  0  0  0
 16 25  1  0  0  0  0
 16 15  1  0  0  0  0
 16 11  1  0  0  0  0
 18 12  1  0  0  0  0
 22 15  1  0  0  0  0
 23 15  1  0  0  0  0
 24 16  1  0  0  0  0
 26 28  1  0  0  0  0
 26 31  1  0  0  0  0
 27 26  1  0  0  0  0
 29 35  1  0  0  0  0
 29 34  1  0  0  0  0
 30 29  2  0  0  0  0
 31 30  1  0  0  0  0
 31 32  2  0  0  0  0
 32 33  1  0  0  0  0
 33 34  2  0  0  0  0
 33 39  1  0  0  0  0
 36 30  1  0  0  0  0
 37 38  1  0  0  0  0
 38 39  2  0  0  0  0
 38 45  1  0  0  0  0
 39 40  1  0  0  0  0
 40 41  1  0  0  0  0
 40 42  2  0  0  0  0
 43 42  1  0  0  0  0
 43 44  1  0  0  0  0
 45 43  2  0  0  0  0
 46 45  1  0  0  0  0
M  END
>  <minimizedAffinity>
-5.25305319

>  <minimizedRMSD>
2.48975587

$$$$
