
 OpenBabel03252502083D

 49 53  0  0  0  0  0  0  0  0999 V2000
   45.7120   33.8160   45.2870 C   0  0  0  0  0  0  0  0  0  0  0  0
   44.8350   34.7600   45.6580 N   0  0  0  0  0  0  0  0  0  0  0  0
   44.5050   35.8220   44.9310 C   0  0  0  0  0  0  0  0  0  0  0  0
   45.0710   36.0110   43.7120 N   0  0  0  0  0  0  0  0  0  0  0  0
   45.9550   35.1390   43.2400 C   0  0  0  0  0  0  0  0  0  0  0  0
   46.5430   35.3220   41.9970 C   0  0  0  0  0  0  0  0  0  0  0  0
   47.4650   34.4330   41.4890 C   0  0  0  0  0  0  0  0  0  0  0  0
   47.7810   33.3480   42.2690 C   0  0  0  0  0  0  0  0  0  0  0  0
   47.1660   33.2030   43.5130 C   0  0  0  0  0  0  0  0  0  0  0  0
   46.2600   34.0520   44.0420 C   0  0  0  0  0  0  0  0  0  0  0  0
   43.7880   36.5490   45.2890 H   0  0  0  0  0  0  0  0  0  0  0  0
   46.2600   36.1930   41.4240 H   0  0  0  0  0  0  0  0  0  0  0  0
   47.8760   34.6340   40.5290 H   0  0  0  0  0  0  0  0  0  0  0  0
   47.5870   32.0290   47.8130 C   0  0  0  0  0  0  0  0  0  0  0  0
   47.0720   30.7280   47.8320 C   0  0  0  0  0  0  0  0  0  0  0  0
   46.0460   30.4550   46.9700 C   0  0  0  0  0  0  0  0  0  0  0  0
   45.5910   31.4130   46.1650 N   0  0  0  0  0  0  0  0  0  0  0  0
   46.0590   32.6430   46.1240 C   0  0  0  0  0  0  0  0  0  0  0  0
   47.0710   32.9360   46.9700 N   0  0  0  0  0  0  0  0  0  0  0  0
   45.4800   29.2020   46.9620 N   0  0  0  0  0  0  0  0  0  0  0  0
   44.2550   28.8450   46.1930 C   0  0  0  0  0  0  0  0  0  0  0  0
   44.1600   27.3510   46.2460 C   0  0  0  0  0  0  0  0  0  0  0  0
   44.8770   27.0010   47.4960 C   0  0  0  0  0  0  0  0  0  0  0  0
   45.9270   28.0430   47.6670 C   0  0  0  0  0  0  0  0  0  0  0  0
   48.4080   32.2980   48.4880 H   0  0  0  0  0  0  0  0  0  0  0  0
   44.5470   29.1230   45.1420 H   0  0  0  0  0  0  0  0  0  0  0  0
   43.3780   29.3690   46.5660 H   0  0  0  0  0  0  0  0  0  0  0  0
   44.6090   26.8720   45.3450 H   0  0  0  0  0  0  0  0  0  0  0  0
   43.0830   27.0820   46.3370 H   0  0  0  0  0  0  0  0  0  0  0  0
   44.1720   26.8950   48.3340 H   0  0  0  0  0  0  0  0  0  0  0  0
   45.3830   26.0110   47.3620 H   0  0  0  0  0  0  0  0  0  0  0  0
   45.9040   28.2760   48.7520 H   0  0  0  0  0  0  0  0  0  0  0  0
   46.9210   27.6670   47.3900 H   0  0  0  0  0  0  0  0  0  0  0  0
   47.6660   29.8270   48.6800 N   0  0  0  0  0  0  0  0  0  0  0  0
   48.3860   29.0830   48.5660 H   0  0  0  0  0  0  0  0  0  0  0  0
   47.5560   29.6450   49.7210 H   0  0  0  0  0  0  0  0  0  0  0  0
   50.7320   34.0630   42.5750 Cl  0  0  0  0  0  0  0  0  0  0  0  0
   50.1210   32.6220   41.7640 C   0  0  0  0  0  0  0  0  0  0  0  0
   48.7550   32.4320   41.7040 C   0  0  0  0  0  0  0  0  0  0  0  0
   48.2380   31.3010   41.0680 C   0  0  0  0  0  0  0  0  0  0  0  0
   47.1830   31.0790   40.9780 H   0  0  0  0  0  0  0  0  0  0  0  0
   49.1430   30.4140   40.5220 C   0  0  0  0  0  0  0  0  0  0  0  0
   50.5080   30.6060   40.5830 C   0  0  0  0  0  0  0  0  0  0  0  0
   51.5330   29.4030   39.8510 Cl  0  0  0  0  0  0  0  0  0  0  0  0
   51.0290   31.7370   41.2190 C   0  0  0  0  0  0  0  0  0  0  0  0
   52.0930   31.8830   41.2650 H   0  0  0  0  0  0  0  0  0  0  0  0
   47.6160   32.0080   44.1610 N   0  0  0  0  0  0  0  0  0  0  0  0
   46.9640   31.2640   43.7670 H   0  0  0  0  0  0  0  0  0  0  0  0
   48.3460   31.7660   44.8300 H   0  0  0  0  0  0  0  0  0  0  0  0
  1  2  1  0  0  0  0
  1 18  1  0  0  0  0
  3 11  1  0  0  0  0
  3  2  2  0  0  0  0
  4  3  1  0  0  0  0
  5  4  2  0  0  0  0
  5 10  1  0  0  0  0
  6  5  1  0  0  0  0
  7  6  2  0  0  0  0
  7  8  1  0  0  0  0
  8  9  2  0  0  0  0
  9 10  1  0  0  0  0
  9 47  1  0  0  0  0
 10  1  2  0  0  0  0
 12  6  1  0  0  0  0
 13  7  1  0  0  0  0
 14 15  1  0  0  0  0
 14 25  1  0  0  0  0
 15 34  1  0  0  0  0
 16 15  2  0  0  0  0
 17 16  1  0  0  0  0
 18 17  2  0  0  0  0
 18 19  1  0  0  0  0
 19 14  2  0  0  0  0
 20 16  1  0  0  0  0
 20 24  1  0  0  0  0
 21 22  1  0  0  0  0
 21 27  1  0  0  0  0
 21 20  1  0  0  0  0
 22 29  1  0  0  0  0
 22 23  1  0  0  0  0
 23 24  1  0  0  0  0
 23 30  1  0  0  0  0
 24 32  1  0  0  0  0
 26 21  1  0  0  0  0
 28 22  1  0  0  0  0
 31 23  1  0  0  0  0
 33 24  1  0  0  0  0
 34 36  1  0  0  0  0
 35 34  1  0  0  0  0
 38 37  1  0  0  0  0
 39 38  1  0  0  0  0
 39  8  1  0  0  0  0
 40 39  2  0  0  0  0
 41 40  1  0  0  0  0
 42 43  2  0  0  0  0
 42 40  1  0  0  0  0
 43 45  1  0  0  0  0
 44 43  1  0  0  0  0
 45 46  1  0  0  0  0
 45 38  2  0  0  0  0
 47 49  1  0  0  0  0
 48 47  1  0  0  0  0
M  END
>  <minimizedAffinity>
-7.4312048

>  <minimizedRMSD>
0.496990472

$$$$
