
 OpenBabel03242514373D

 34 36  0  0  0  0  0  0  0  0999 V2000
   47.8920   33.9030   39.5530 C   0  0  0  0  0  0  0  0  0  0  0  0
   46.6330   33.7210   39.7250 O   0  0  0  0  0  0  0  0  0  0  0  0
   48.2580   33.1490   38.3460 C   0  0  0  0  0  0  0  0  0  0  0  0
   48.5770   31.7710   38.2340 C   0  0  0  0  0  0  0  0  0  0  0  0
   48.8820   31.3310   36.9930 C   0  0  0  0  0  0  0  0  0  0  0  0
   48.8850   32.1520   35.9270 C   0  0  0  0  0  0  0  0  0  0  0  0
   48.3920   33.8050   36.7140 S   0  0  0  0  0  0  0  0  0  0  0  0
   48.5510   31.1850   39.1400 H   0  0  0  0  0  0  0  0  0  0  0  0
   49.1410   30.3000   36.7910 H   0  0  0  0  0  0  0  0  0  0  0  0
   51.3580   30.5850   35.0700 Cl  0  0  0  0  0  0  0  0  0  0  0  0
   50.2180   31.4030   34.0240 C   0  0  0  0  0  0  0  0  0  0  0  0
   49.1350   32.0780   34.5460 C   0  0  0  0  0  0  0  0  0  0  0  0
   48.2080   32.7370   33.7720 C   0  0  0  0  0  0  0  0  0  0  0  0
   47.3590   33.2680   34.1680 H   0  0  0  0  0  0  0  0  0  0  0  0
   48.3400   32.7420   32.3770 C   0  0  0  0  0  0  0  0  0  0  0  0
   49.4170   32.0710   31.8260 C   0  0  0  0  0  0  0  0  0  0  0  0
   49.6390   32.0390   30.0930 Cl  0  0  0  0  0  0  0  0  0  0  0  0
   50.3390   31.4140   32.6290 C   0  0  0  0  0  0  0  0  0  0  0  0
   51.1750   30.8950   32.1840 H   0  0  0  0  0  0  0  0  0  0  0  0
   48.4120   34.6890   40.5030 O   0  0  0  0  0  0  0  0  0  0  0  0
   49.5750   35.4680   42.6650 O   0  0  0  0  0  0  0  0  0  0  0  0
   49.0740   34.2450   41.9610 P   0  0  2  0  0  0  0  0  0  0  0  0
   50.3800   33.2330   41.6680 O   0  0  0  0  0  0  0  0  0  0  0  0
   50.0640   32.2980   41.7570 H   0  0  0  0  0  0  0  0  0  0  0  0
   47.8830   33.4400   42.9060 O   0  0  0  0  0  0  0  0  0  0  0  0
   46.3030   35.2430   42.7400 C   0  0  0  0  0  0  0  0  0  0  0  0
   46.8140   34.1560   43.4440 C   0  0  0  0  0  0  0  0  0  0  0  0
   46.2360   33.8150   44.6790 C   0  0  0  0  0  0  0  0  0  0  0  0
   45.1930   34.5800   45.1200 N   0  0  0  0  0  0  0  0  0  0  0  0
   44.7300   35.6200   44.4070 C   0  0  0  0  0  0  0  0  0  0  0  0
   45.2770   35.9500   43.2310 N   0  0  0  0  0  0  0  0  0  0  0  0
   46.6800   35.5710   41.7970 H   0  0  0  0  0  0  0  0  0  0  0  0
   46.6570   32.9720   45.1910 H   0  0  0  0  0  0  0  0  0  0  0  0
   43.8910   36.1770   44.8360 H   0  0  0  0  0  0  0  0  0  0  0  0
  1  2  2  0  0  0  0
  1 20  1  0  0  0  0
  3  1  1  0  0  0  0
  4  3  2  0  0  0  0
  4  8  1  0  0  0  0
  5  4  1  0  0  0  0
  6  7  1  0  0  0  0
  6  5  2  0  0  0  0
  7  3  1  0  0  0  0
  9  5  1  0  0  0  0
 11 12  1  0  0  0  0
 11 10  1  0  0  0  0
 12  6  1  0  0  0  0
 13 14  1  0  0  0  0
 13 12  2  0  0  0  0
 15 13  1  0  0  0  0
 16 15  2  0  0  0  0
 16 18  1  0  0  0  0
 17 16  1  0  0  0  0
 18 11  2  0  0  0  0
 19 18  1  0  0  0  0
 20 22  1  0  0  0  0
 22 21  2  1  0  0  0
 22 25  1  0  0  0  0
 23 24  1  0  0  0  0
 23 22  1  0  0  0  0
 25 27  1  0  0  0  0
 26 31  2  0  0  0  0
 26 27  1  0  0  0  0
 27 28  2  0  0  0  0
 28 29  1  0  0  0  0
 28 33  1  0  0  0  0
 30 34  1  0  0  0  0
 30 29  2  0  0  0  0
 31 30  1  0  0  0  0
 32 26  1  0  0  0  0
M  END
>  <minimizedAffinity>
-5.64332104

>  <minimizedRMSD>
1.97127211

$$$$
