
 OpenBabel03252502473D

 46 49  0  0  1  0  0  0  0  0999 V2000
   46.7060   35.4730   42.3020 C   0  0  0  0  0  0  0  0  0  0  0  0
   47.0070   35.9480   43.2630 H   0  0  0  0  0  0  0  0  0  0  0  0
   46.1210   36.2710   41.7770 H   0  0  0  0  0  0  0  0  0  0  0  0
   47.9140   35.0450   41.5350 C   0  0  1  0  0  0  0  0  0  0  0  0
   49.1350   35.9150   41.6000 C   0  0  0  0  0  0  0  0  0  0  0  0
   49.0710   34.5960   42.2940 C   0  0  2  0  0  0  0  0  0  0  0  0
   47.6910   34.6600   40.5440 H   0  0  0  0  0  0  0  0  0  0  0  0
   49.7700   36.0860   40.7120 H   0  0  0  0  0  0  0  0  0  0  0  0
   49.0330   36.8540   42.2110 H   0  0  0  0  0  0  0  0  0  0  0  0
   49.1860   34.6540   43.3730 H   0  0  0  0  0  0  0  0  0  0  0  0
   49.8460   33.5620   41.6180 N   0  0  0  0  0  0  0  0  0  0  0  0
   49.0750   32.6830   40.8230 C   0  0  0  0  0  0  0  0  0  0  0  0
   50.0580   31.6960   40.2200 C   0  0  0  0  0  0  0  0  0  0  0  0
   50.7160   30.9270   41.2160 N   0  0  0  0  0  0  0  0  0  0  0  0
   50.8250   31.5810   42.5060 C   0  0  0  0  0  0  0  0  0  0  0  0
   50.9750   33.0860   42.2900 C   0  0  0  0  0  0  0  0  0  0  0  0
   48.4980   33.1940   40.0570 H   0  0  0  0  0  0  0  0  0  0  0  0
   48.4020   32.0960   41.4760 H   0  0  0  0  0  0  0  0  0  0  0  0
   50.7190   32.2660   39.5360 H   0  0  0  0  0  0  0  0  0  0  0  0
   49.4420   31.0330   39.5700 H   0  0  0  0  0  0  0  0  0  0  0  0
   51.6420   30.5860   40.8690 H   0  0  0  0  0  0  0  0  0  0  0  0
   51.7860   31.1960   42.9500 H   0  0  0  0  0  0  0  0  0  0  0  0
   49.9410   31.3490   43.1030 H   0  0  0  0  0  0  0  0  0  0  0  0
   51.2170   33.6140   43.2090 H   0  0  0  0  0  0  0  0  0  0  0  0
   51.8630   33.1720   41.5990 H   0  0  0  0  0  0  0  0  0  0  0  0
   45.8910   34.2420   42.5650 C   0  0  0  0  0  0  0  0  0  0  0  0
   46.1770   33.3360   42.0540 H   0  0  0  0  0  0  0  0  0  0  0  0
   44.8480   34.4630   42.1940 H   0  0  0  0  0  0  0  0  0  0  0  0
   44.6460   34.7630   46.0660 C   0  0  0  0  0  0  0  0  0  0  0  0
   44.7970   34.9180   44.6630 C   0  0  0  0  0  0  0  0  0  0  0  0
   45.7040   34.1040   44.0460 C   0  0  0  0  0  0  0  0  0  0  0  0
   46.4070   33.2030   44.7790 N   0  0  0  0  0  0  0  0  0  0  0  0
   46.2580   33.0720   46.0770 C   0  0  0  0  0  0  0  0  0  0  0  0
   45.3770   33.8490   46.7330 N   0  0  0  0  0  0  0  0  0  0  0  0
   43.9380   35.3970   46.5520 H   0  0  0  0  0  0  0  0  0  0  0  0
   44.2410   35.6300   44.0840 H   0  0  0  0  0  0  0  0  0  0  0  0
   46.3460   30.2220   45.0180 Cl  0  0  0  0  0  0  0  0  0  0  0  0
   47.1290   30.7790   46.4720 C   0  0  0  0  0  0  0  0  0  0  0  0
   47.0190   32.1000   46.8550 C   0  0  0  0  0  0  0  0  0  0  0  0
   47.6750   32.4450   48.0200 C   0  0  0  0  0  0  0  0  0  0  0  0
   47.6250   33.4760   48.3750 H   0  0  0  0  0  0  0  0  0  0  0  0
   48.4110   31.5710   48.8000 C   0  0  0  0  0  0  0  0  0  0  0  0
   48.4770   30.2670   48.3550 C   0  0  0  0  0  0  0  0  0  0  0  0
   49.4190   29.1640   49.3580 Cl  0  0  0  0  0  0  0  0  0  0  0  0
   47.8440   29.8310   47.1880 C   0  0  0  0  0  0  0  0  0  0  0  0
   47.9550   28.8040   46.9300 H   0  0  0  0  0  0  0  0  0  0  0  0
  1 26  1  0  0  0  0
  1  2  1  0  0  0  0
  3  1  1  0  0  0  0
  4  7  1  6  0  0  0
  4  5  1  0  0  0  0
  4  6  1  0  0  0  0
  4  1  1  0  0  0  0
  5  9  1  0  0  0  0
  5  6  1  0  0  0  0
  6 10  1  1  0  0  0
  8  5  1  0  0  0  0
 11 16  1  0  0  0  0
 11  6  1  0  0  0  0
 12 18  1  0  0  0  0
 12 11  1  0  0  0  0
 13 12  1  0  0  0  0
 13 14  1  0  0  0  0
 14 15  1  0  0  0  0
 15 22  1  0  0  0  0
 15 23  1  0  0  0  0
 16 15  1  0  0  0  0
 16 24  1  0  0  0  0
 17 12  1  0  0  0  0
 19 13  1  0  0  0  0
 20 13  1  0  0  0  0
 21 14  1  0  0  0  0
 25 16  1  0  0  0  0
 26 31  1  0  0  0  0
 27 26  1  0  0  0  0
 28 26  1  0  0  0  0
 29 35  1  0  0  0  0
 29 34  1  0  0  0  0
 30 29  2  0  0  0  0
 31 30  1  0  0  0  0
 31 32  2  0  0  0  0
 32 33  1  0  0  0  0
 33 34  2  0  0  0  0
 33 39  1  0  0  0  0
 36 30  1  0  0  0  0
 37 38  1  0  0  0  0
 38 39  2  0  0  0  0
 38 45  1  0  0  0  0
 39 40  1  0  0  0  0
 40 41  1  0  0  0  0
 40 42  2  0  0  0  0
 43 42  1  0  0  0  0
 43 44  1  0  0  0  0
 45 43  2  0  0  0  0
 46 45  1  0  0  0  0
M  END
>  <minimizedAffinity>
-5.71850538

>  <minimizedRMSD>
1.75930929

$$$$
