
 OpenBabel03252500363D

 47 50  0  0  1  0  0  0  0  0999 V2000
   45.7550   34.9130   44.2850 C   0  0  1  0  0  0  0  0  0  0  0  0
   44.8030   34.7870   45.3020 C   0  0  0  0  0  0  0  0  0  0  0  0
   46.0260   33.9920   45.5090 C   0  0  1  0  0  0  0  0  0  0  0  0
   46.4070   35.8270   44.2270 H   0  0  0  0  0  0  0  0  0  0  0  0
   44.5860   35.6080   45.9980 H   0  0  0  0  0  0  0  0  0  0  0  0
   43.8770   34.1710   45.1120 H   0  0  0  0  0  0  0  0  0  0  0  0
   46.9050   34.3560   46.0640 H   0  0  0  0  0  0  0  0  0  0  0  0
   44.4510   33.8470   42.4450 C   0  0  0  0  0  0  0  0  0  0  0  0
   45.7300   34.2440   42.9480 C   0  0  0  0  0  0  0  0  0  0  0  0
   46.8480   34.0050   42.2160 C   0  0  0  0  0  0  0  0  0  0  0  0
   46.6830   33.3810   41.0070 N   0  0  0  0  0  0  0  0  0  0  0  0
   45.4720   33.0090   40.5390 C   0  0  0  0  0  0  0  0  0  0  0  0
   44.3120   33.2320   41.2480 N   0  0  0  0  0  0  0  0  0  0  0  0
   43.5720   34.0520   43.0550 H   0  0  0  0  0  0  0  0  0  0  0  0
   47.8200   34.3000   42.5840 H   0  0  0  0  0  0  0  0  0  0  0  0
   45.7160   30.0000   40.5930 Cl  0  0  0  0  0  0  0  0  0  0  0  0
   45.5100   30.9740   39.1420 C   0  0  0  0  0  0  0  0  0  0  0  0
   45.4090   32.3500   39.2350 C   0  0  0  0  0  0  0  0  0  0  0  0
   45.2470   33.1480   38.1340 C   0  0  0  0  0  0  0  0  0  0  0  0
   45.1620   34.2290   38.1370 H   0  0  0  0  0  0  0  0  0  0  0  0
   45.1840   32.5540   36.8760 C   0  0  0  0  0  3  0  0  0  0  0  0
   45.2880   31.1730   36.8090 C   0  0  0  0  0  0  0  0  0  0  0  0
   45.2090   30.4250   35.2400 Cl  0  0  0  0  0  0  0  0  0  0  0  0
   45.4510   30.3470   37.9080 C   0  0  0  0  0  0  0  0  0  0  0  0
   45.5290   29.2840   37.8310 H   0  0  0  0  0  0  0  0  0  0  0  0
   46.0030   32.5190   45.3260 C   0  0  0  0  0  0  0  0  0  0  0  0
   45.1800   32.2490   44.6120 H   0  0  0  0  0  0  0  0  0  0  0  0
   46.9710   32.1100   44.9660 H   0  0  0  0  0  0  0  0  0  0  0  0
   45.7330   31.9420   46.5940 N   0  0  0  0  0  0  0  0  0  0  0  0
   46.2190   32.5950   47.7320 C   0  0  0  0  0  0  0  0  0  0  0  0
   47.6250   32.0810   48.1130 C   0  0  0  0  0  0  0  0  0  0  0  0
   47.4420   30.6630   48.5750 C   0  0  0  0  0  0  0  0  0  0  0  0
   46.8960   29.9020   47.3870 C   0  0  0  0  0  0  0  0  0  0  0  0
   45.7130   30.5480   46.7250 C   0  0  2  0  0  0  0  0  0  0  0  0
   45.5850   32.2150   48.5930 H   0  0  0  0  0  0  0  0  0  0  0  0
   46.1240   33.6740   47.8190 H   0  0  0  0  0  0  0  0  0  0  0  0
   47.9990   32.6750   48.9720 H   0  0  0  0  0  0  0  0  0  0  0  0
   48.3160   32.1650   47.2530 H   0  0  0  0  0  0  0  0  0  0  0  0
   46.6650   30.6780   49.3700 H   0  0  0  0  0  0  0  0  0  0  0  0
   48.3630   30.1650   48.8820 H   0  0  0  0  0  0  0  0  0  0  0  0
   46.5970   28.8710   47.7000 H   0  0  0  0  0  0  0  0  0  0  0  0
   47.6950   29.7880   46.6280 H   0  0  0  0  0  0  0  0  0  0  0  0
   44.8200   30.2620   47.3210 H   0  0  0  0  0  0  0  0  0  0  0  0
   45.5380   29.8500   45.3840 C   0  0  0  0  0  0  0  0  0  0  0  0
   45.4090   28.7780   45.5550 H   0  0  0  0  0  0  0  0  0  0  0  0
   44.6280   30.2750   44.8730 H   0  0  0  0  0  0  0  0  0  0  0  0
   46.4440   29.9910   44.7500 H   0  0  0  0  0  0  0  0  0  0  0  0
  1  4  1  1  0  0  0
  1  2  1  0  0  0  0
  1  3  1  0  0  0  0
  2  3  1  0  0  0  0
  2  5  1  0  0  0  0
  3  7  1  1  0  0  0
  6  2  1  0  0  0  0
  8  9  1  0  0  0  0
  8 14  1  0  0  0  0
  9  1  1  0  0  0  0
 10 15  1  0  0  0  0
 10  9  2  0  0  0  0
 11 10  1  0  0  0  0
 12 11  2  0  0  0  0
 12 13  1  0  0  0  0
 13  8  2  0  0  0  0
 17 18  1  0  0  0  0
 17 16  1  0  0  0  0
 18 12  1  0  0  0  0
 19 20  1  0  0  0  0
 19 18  2  0  0  0  0
 21 19  1  0  0  0  0
 22 21  2  0  0  0  0
 22 24  1  0  0  0  0
 23 22  1  0  0  0  0
 24 17  2  0  0  0  0
 25 24  1  0  0  0  0
 26  3  1  0  0  0  0
 26 29  1  0  0  0  0
 27 26  1  0  0  0  0
 28 26  1  0  0  0  0
 29 34  1  0  0  0  0
 29 30  1  0  0  0  0
 30 36  1  0  0  0  0
 30 31  1  0  0  0  0
 30 35  1  0  0  0  0
 31 32  1  0  0  0  0
 31 37  1  0  0  0  0
 32 40  1  0  0  0  0
 32 39  1  0  0  0  0
 33 41  1  0  0  0  0
 33 32  1  0  0  0  0
 34 43  1  1  0  0  0
 34 33  1  0  0  0  0
 38 31  1  0  0  0  0
 42 33  1  0  0  0  0
 44 45  1  0  0  0  0
 44 34  1  0  0  0  0
 46 44  1  0  0  0  0
 47 44  1  0  0  0  0
M  END
>  <minimizedAffinity>
-4.16329908

>  <minimizedRMSD>
0.993575454

$$$$
