
 OpenBabel03252500363D

 47 50  0  0  1  0  0  0  0  0999 V2000
   46.0970   34.3800   44.0380 C   0  0  1  0  0  0  0  0  0  0  0  0
   45.1030   34.5250   45.0100 C   0  0  0  0  0  0  0  0  0  0  0  0
   46.2130   33.6390   45.4010 C   0  0  1  0  0  0  0  0  0  0  0  0
   46.8560   35.1940   43.8750 H   0  0  0  0  0  0  0  0  0  0  0  0
   44.9610   35.4650   45.5600 H   0  0  0  0  0  0  0  0  0  0  0  0
   44.1170   33.9960   44.8680 H   0  0  0  0  0  0  0  0  0  0  0  0
   47.1090   33.9850   45.9400 H   0  0  0  0  0  0  0  0  0  0  0  0
   44.7510   33.3040   42.2350 C   0  0  0  0  0  0  0  0  0  0  0  0
   46.0390   33.5150   42.8200 C   0  0  0  0  0  0  0  0  0  0  0  0
   47.1360   32.9370   42.2660 C   0  0  0  0  0  0  0  0  0  0  0  0
   46.9400   32.1650   41.1510 N   0  0  0  0  0  0  0  0  0  0  0  0
   45.7200   31.9710   40.6040 C   0  0  0  0  0  0  0  0  0  0  0  0
   44.5820   32.5380   41.1330 N   0  0  0  0  0  0  0  0  0  0  0  0
   43.8890   33.7810   42.7020 H   0  0  0  0  0  0  0  0  0  0  0  0
   48.1140   33.0880   42.6980 H   0  0  0  0  0  0  0  0  0  0  0  0
   46.5650   33.2780   38.0170 Cl  0  0  0  0  0  0  0  0  0  0  0  0
   45.9850   31.6240   38.1750 C   0  0  0  0  0  0  0  0  0  0  0  0
   45.6240   31.1280   39.4130 C   0  0  0  0  0  0  0  0  0  0  0  0
   45.1680   29.8470   39.5840 C   0  0  0  0  0  0  0  0  0  0  0  0
   44.8690   29.3960   40.5250 H   0  0  0  0  0  0  0  0  0  0  0  0
   45.0640   29.0160   38.4720 C   0  0  0  0  0  3  0  0  0  0  0  0
   45.4320   29.5370   37.2400 C   0  0  0  0  0  0  0  0  0  0  0  0
   45.3050   28.5040   35.8470 Cl  0  0  0  0  0  0  0  0  0  0  0  0
   45.8950   30.8270   37.0440 C   0  0  0  0  0  0  0  0  0  0  0  0
   46.1740   31.2070   36.0850 H   0  0  0  0  0  0  0  0  0  0  0  0
   46.0200   32.1680   45.4450 C   0  0  0  0  0  0  0  0  0  0  0  0
   45.1290   31.8950   44.8200 H   0  0  0  0  0  0  0  0  0  0  0  0
   46.9130   31.6010   45.1050 H   0  0  0  0  0  0  0  0  0  0  0  0
   45.7710   31.8170   46.7980 N   0  0  0  0  0  0  0  0  0  0  0  0
   46.3620   32.5950   47.8000 C   0  0  0  0  0  0  0  0  0  0  0  0
   47.7420   32.0330   48.2030 C   0  0  0  0  0  0  0  0  0  0  0  0
   47.4770   30.7220   48.8880 C   0  0  0  0  0  0  0  0  0  0  0  0
   46.8170   29.8350   47.8560 C   0  0  0  0  0  0  0  0  0  0  0  0
   45.6540   30.4660   47.1460 C   0  0  2  0  0  0  0  0  0  0  0  0
   45.7450   32.4050   48.7330 H   0  0  0  0  0  0  0  0  0  0  0  0
   46.3520   33.6790   47.7190 H   0  0  0  0  0  0  0  0  0  0  0  0
   48.2020   32.7180   48.9430 H   0  0  0  0  0  0  0  0  0  0  0  0
   48.3940   31.9270   47.3140 H   0  0  0  0  0  0  0  0  0  0  0  0
   46.7450   30.9230   49.7000 H   0  0  0  0  0  0  0  0  0  0  0  0
   48.3730   30.2040   49.2340 H   0  0  0  0  0  0  0  0  0  0  0  0
   46.4580   28.8920   48.3380 H   0  0  0  0  0  0  0  0  0  0  0  0
   47.5660   29.5410   47.0940 H   0  0  0  0  0  0  0  0  0  0  0  0
   44.7730   30.3490   47.8130 H   0  0  0  0  0  0  0  0  0  0  0  0
   45.3600   29.5870   45.9390 C   0  0  0  0  0  0  0  0  0  0  0  0
   45.1600   28.5680   46.2810 H   0  0  0  0  0  0  0  0  0  0  0  0
   44.4600   30.0020   45.4020 H   0  0  0  0  0  0  0  0  0  0  0  0
   46.2400   29.5540   45.2560 H   0  0  0  0  0  0  0  0  0  0  0  0
  1  4  1  6  0  0  0
  1  2  1  0  0  0  0
  1  3  1  0  0  0  0
  2  3  1  0  0  0  0
  2  5  1  0  0  0  0
  3 26  1  0  0  0  0
  3  7  1  1  0  0  0
  6  2  1  0  0  0  0
  8 14  1  0  0  0  0
  8  9  1  0  0  0  0
  9  1  1  0  0  0  0
 10 15  1  0  0  0  0
 10  9  2  0  0  0  0
 11 10  1  0  0  0  0
 12 13  1  0  0  0  0
 12 11  2  0  0  0  0
 13  8  2  0  0  0  0
 16 17  1  0  0  0  0
 17 18  1  0  0  0  0
 18 19  2  0  0  0  0
 18 12  1  0  0  0  0
 19 20  1  0  0  0  0
 21 19  1  0  0  0  0
 22 21  2  0  0  0  0
 23 22  1  0  0  0  0
 24 22  1  0  0  0  0
 24 17  2  0  0  0  0
 25 24  1  0  0  0  0
 26 29  1  0  0  0  0
 27 26  1  0  0  0  0
 28 26  1  0  0  0  0
 29 34  1  0  0  0  0
 29 30  1  0  0  0  0
 30 31  1  0  0  0  0
 30 35  1  0  0  0  0
 31 32  1  0  0  0  0
 31 37  1  0  0  0  0
 32 40  1  0  0  0  0
 32 39  1  0  0  0  0
 33 41  1  0  0  0  0
 33 32  1  0  0  0  0
 34 43  1  1  0  0  0
 34 33  1  0  0  0  0
 36 30  1  0  0  0  0
 38 31  1  0  0  0  0
 42 33  1  0  0  0  0
 44 45  1  0  0  0  0
 44 34  1  0  0  0  0
 46 44  1  0  0  0  0
 47 44  1  0  0  0  0
M  END
>  <minimizedAffinity>
-4.02989292

>  <minimizedRMSD>
0.341245055

$$$$
