
 OpenBabel03252508323D

 33 35  0  0  1  0  0  0  0  0999 V2000
   44.8580   33.7550   41.6940 N   0  0  0  0  0  0  0  0  0  0  0  0
   45.3480   32.4750   41.3310 C   0  0  1  0  0  0  0  0  0  0  0  0
   45.1800   32.1170   39.8990 C   0  0  0  0  0  0  0  0  0  0  0  0
   44.0470   32.5950   39.2430 N   0  0  0  0  0  0  0  0  0  0  0  0
   43.4070   33.7370   39.7350 C   0  0  0  0  0  0  0  0  0  0  0  0
   44.3750   34.5350   40.5940 C   0  0  0  0  0  0  0  0  0  0  0  0
   44.8240   31.7050   41.9430 H   0  0  0  0  0  0  0  0  0  0  0  0
   46.0910   32.4780   39.3370 H   0  0  0  0  0  0  0  0  0  0  0  0
   45.2390   31.0000   39.7940 H   0  0  0  0  0  0  0  0  0  0  0  0
   43.4960   31.9480   38.6800 H   0  0  0  0  0  0  0  0  0  0  0  0
   42.5750   33.4060   40.4190 H   0  0  0  0  0  0  0  0  0  0  0  0
   42.9400   34.4110   39.0120 H   0  0  0  0  0  0  0  0  0  0  0  0
   45.2500   34.8470   39.9520 H   0  0  0  0  0  0  0  0  0  0  0  0
   43.8500   35.4590   40.8420 H   0  0  0  0  0  0  0  0  0  0  0  0
   47.3330   34.4220   40.1190 Cl  0  0  0  0  0  0  0  0  0  0  0  0
   47.8580   33.1110   41.1590 C   0  0  0  0  0  0  0  0  0  0  0  0
   46.8170   32.3180   41.6250 C   0  0  0  0  0  0  0  0  0  0  0  0
   47.1590   31.2520   42.4600 C   0  0  0  0  0  0  0  0  0  0  0  0
   46.4880   30.5390   42.9100 H   0  0  0  0  0  0  0  0  0  0  0  0
   48.4740   30.9990   42.8070 C   0  0  0  0  0  3  0  0  0  0  0  0
   49.4920   31.7990   42.3320 C   0  0  0  0  0  0  0  0  0  0  0  0
   51.1910   31.5930   42.6910 Cl  0  0  0  0  0  0  0  0  0  0  0  0
   49.1450   32.8460   41.5110 C   0  0  0  0  0  0  0  0  0  0  0  0
   49.8360   33.5640   41.0600 H   0  0  0  0  0  0  0  0  0  0  0  0
   44.4550   35.4240   43.3580 C   0  0  0  0  0  0  0  0  0  0  0  0
   44.8980   34.1180   43.0710 C   0  0  0  0  0  0  0  0  0  0  0  0
   45.3200   33.3210   44.1210 C   0  0  0  0  0  0  0  0  0  0  0  0
   45.2930   33.8250   45.3760 N   0  0  0  0  0  0  0  0  0  0  0  0
   44.8630   35.0860   45.6360 C   0  0  0  0  0  0  0  0  0  0  0  0
   44.4480   35.8740   44.6260 N   0  0  0  0  0  0  0  0  0  0  0  0
   44.0930   36.1860   42.6860 H   0  0  0  0  0  0  0  0  0  0  0  0
   45.6500   32.3270   43.8740 H   0  0  0  0  0  0  0  0  0  0  0  0
   44.9040   35.3340   46.6920 H   0  0  0  0  0  0  0  0  0  0  0  0
  1 26  1  0  0  0  0
  2 17  1  0  0  0  0
  2  1  1  0  0  0  0
  2  7  1  1  0  0  0
  3  2  1  0  0  0  0
  4  5  1  0  0  0  0
  4  3  1  0  0  0  0
  5 11  1  0  0  0  0
  5  6  1  0  0  0  0
  6 14  1  0  0  0  0
  6  1  1  0  0  0  0
  8  3  1  0  0  0  0
  9  3  1  0  0  0  0
 10  4  1  0  0  0  0
 12  5  1  0  0  0  0
 13  6  1  0  0  0  0
 15 16  1  0  0  0  0
 16 23  2  0  0  0  0
 16 17  1  0  0  0  0
 17 18  2  0  0  0  0
 18 20  1  0  0  0  0
 18 19  1  0  0  0  0
 21 22  1  0  0  0  0
 21 20  2  0  0  0  0
 23 21  1  0  0  0  0
 24 23  1  0  0  0  0
 25 30  1  0  0  0  0
 26 25  2  0  0  0  0
 26 27  1  0  0  0  0
 27 28  2  0  0  0  0
 28 29  1  0  0  0  0
 29 33  1  0  0  0  0
 30 29  2  0  0  0  0
 31 25  1  0  0  0  0
 32 27  1  0  0  0  0
M  END
>  <minimizedAffinity>
-4.1972599

>  <minimizedRMSD>
1.7611289

$$$$
