
 OpenBabel03242514503D

 45 48  0  0  1  0  0  0  0  0999 V2000
   45.3510   34.6970   41.9100 C   0  0  0  0  0  0  0  0  0  0  0  0
   45.9490   34.3090   41.1050 H   0  0  0  0  0  0  0  0  0  0  0  0
   45.6180   35.8020   41.9470 H   0  0  0  0  0  0  0  0  0  0  0  0
   43.9160   32.2210   41.6280 F   0  0  0  0  0  0  0  0  0  0  0  0
   43.2820   33.3830   41.4960 C   0  0  0  0  0  0  0  0  0  0  0  0
   43.9120   34.6000   41.6200 C   0  0  0  0  0  0  0  0  0  0  0  0
   43.1820   35.7570   41.4720 C   0  0  0  0  0  0  0  0  0  0  0  0
   41.8320   35.6360   41.2020 C   0  0  0  0  0  0  0  0  0  0  0  0
   41.1480   34.4490   41.0670 C   0  0  0  0  0  0  0  0  0  0  0  0
   41.9160   33.2980   41.2230 C   0  0  0  0  0  0  0  0  0  0  0  0
   43.6330   36.7290   41.5610 H   0  0  0  0  0  0  0  0  0  0  0  0
   41.2760   36.5720   41.0890 H   0  0  0  0  0  0  0  0  0  0  0  0
   40.0970   34.4520   40.8570 H   0  0  0  0  0  0  0  0  0  0  0  0
   41.8340   32.0460   38.4730 Cl  0  0  0  0  0  0  0  0  0  0  0  0
   41.1200   31.3010   39.9120 C   0  0  0  0  0  0  0  0  0  0  0  0
   41.2460   32.0060   41.0910 C   0  0  0  0  0  0  0  0  0  0  0  0
   40.7190   31.5090   42.2850 C   0  0  0  0  0  0  0  0  0  0  0  0
   40.7980   32.0320   43.2280 H   0  0  0  0  0  0  0  0  0  0  0  0
   40.0710   30.2810   42.2160 C   0  0  0  0  0  0  0  0  0  0  0  0
   39.9400   29.5680   41.0430 C   0  0  0  0  0  0  0  0  0  0  0  0
   39.1380   28.0320   40.9200 Cl  0  0  0  0  0  0  0  0  0  0  0  0
   40.4750   30.0830   39.8570 C   0  0  0  0  0  0  0  0  0  0  0  0
   40.4270   29.6070   38.8860 H   0  0  0  0  0  0  0  0  0  0  0  0
   45.7050   34.2340   43.2790 C   0  0  0  0  0  0  0  0  0  0  0  0
   46.8460   33.4630   43.4130 C   0  0  0  0  0  0  0  0  0  0  0  0
   47.1770   33.0490   44.7180 C   0  0  0  0  0  0  0  0  0  0  0  0
   46.3850   33.4150   45.7560 N   0  0  0  0  0  0  0  0  0  0  0  0
   45.2890   34.1660   45.5630 C   0  0  0  0  0  0  0  0  0  0  0  0
   44.9640   34.5630   44.3450 N   0  0  0  0  0  0  0  0  0  0  0  0
   48.0620   32.4360   44.9140 H   0  0  0  0  0  0  0  0  0  0  0  0
   44.6190   34.4900   46.3490 H   0  0  0  0  0  0  0  0  0  0  0  0
   48.8950   33.9640   42.0800 C   0  0  2  0  0  0  0  0  0  0  0  0
   47.6840   33.0090   42.2660 C   0  0  1  0  0  0  0  0  0  0  0  0
   48.1250   31.7460   42.3190 O   0  0  0  0  0  0  0  0  0  0  0  0
   49.4900   31.7200   42.5010 C   0  0  0  0  0  0  0  0  0  0  0  0
   49.9700   32.9100   41.7210 C   0  0  1  0  0  0  0  0  0  0  0  0
   48.8650   34.6100   41.2160 H   0  0  0  0  0  0  0  0  0  0  0  0
   47.3400   33.1860   41.2910 H   0  0  0  0  0  0  0  0  0  0  0  0
   49.8650   30.7940   41.9830 H   0  0  0  0  0  0  0  0  0  0  0  0
   49.7960   31.7060   43.5550 H   0  0  0  0  0  0  0  0  0  0  0  0
   50.9620   33.2910   42.0320 H   0  0  0  0  0  0  0  0  0  0  0  0
   49.2490   34.6550   43.1660 O   0  0  0  0  0  0  0  0  0  0  0  0
   49.5300   34.0950   43.9150 H   0  0  0  0  0  0  0  0  0  0  0  0
   49.9100   32.5670   40.3880 O   0  0  0  0  0  0  0  0  0  0  0  0
   50.4320   33.1470   39.7920 H   0  0  0  0  0  0  0  0  0  0  0  0
  1  3  1  0  0  0  0
  1 24  1  0  0  0  0
  2  1  1  0  0  0  0
  5  6  1  0  0  0  0
  5  4  1  0  0  0  0
  6  1  1  0  0  0  0
  7 11  1  0  0  0  0
  7  6  2  0  0  0  0
  8  7  1  0  0  0  0
  9  8  2  0  0  0  0
  9 10  1  0  0  0  0
 10  5  2  0  0  0  0
 12  8  1  0  0  0  0
 13  9  1  0  0  0  0
 14 15  1  0  0  0  0
 15 16  1  0  0  0  0
 16 10  1  0  0  0  0
 16 17  2  0  0  0  0
 17 18  1  0  0  0  0
 19 17  1  0  0  0  0
 20 19  2  0  0  0  0
 21 20  1  0  0  0  0
 22 15  2  0  0  0  0
 22 20  1  0  0  0  0
 23 22  1  0  0  0  0
 24 25  2  0  0  0  0
 24 29  1  0  0  0  0
 25 26  1  0  0  0  0
 26 30  1  0  0  0  0
 26 27  2  0  0  0  0
 28 27  1  0  0  0  0
 28 31  1  0  0  0  0
 29 28  2  0  0  0  0
 32 37  1  6  0  0  0
 32 33  1  0  0  0  0
 32 42  1  0  0  0  0
 33 38  1  6  0  0  0
 33 34  1  0  0  0  0
 33 25  1  0  0  0  0
 34 35  1  0  0  0  0
 35 40  1  0  0  0  0
 36 41  1  1  0  0  0
 36 32  1  0  0  0  0
 36 35  1  0  0  0  0
 39 35  1  0  0  0  0
 42 43  1  0  0  0  0
 44 36  1  0  0  0  0
 45 44  1  0  0  0  0
M  END
>  <minimizedAffinity>
-6.19295359

>  <minimizedRMSD>
2.56387329

$$$$
