
 OpenBabel03252508333D

 33 35  0  0  1  0  0  0  0  0999 V2000
   38.4970   30.8630   40.9140 N   0  0  0  0  0  0  0  0  0  0  0  0
   37.2070   31.3880   40.6530 C   0  0  1  0  0  0  0  0  0  0  0  0
   37.1880   32.7370   40.0310 C   0  0  0  0  0  0  0  0  0  0  0  0
   38.1970   33.6280   40.3900 N   0  0  0  0  0  0  0  0  0  0  0  0
   39.4060   33.1240   40.8780 C   0  0  0  0  0  0  0  0  0  0  0  0
   39.5730   31.6780   40.4360 C   0  0  0  0  0  0  0  0  0  0  0  0
   36.6420   31.4430   41.6120 H   0  0  0  0  0  0  0  0  0  0  0  0
   37.2150   32.6070   38.9080 H   0  0  0  0  0  0  0  0  0  0  0  0
   36.1820   33.2060   40.2100 H   0  0  0  0  0  0  0  0  0  0  0  0
   37.9410   34.5810   40.6470 H   0  0  0  0  0  0  0  0  0  0  0  0
   39.3530   33.1080   42.0030 H   0  0  0  0  0  0  0  0  0  0  0  0
   40.3210   33.6730   40.6370 H   0  0  0  0  0  0  0  0  0  0  0  0
   39.5850   31.6480   39.3080 H   0  0  0  0  0  0  0  0  0  0  0  0
   40.5800   31.3940   40.7480 H   0  0  0  0  0  0  0  0  0  0  0  0
   37.9380   31.2070   37.7160 Cl  0  0  0  0  0  0  0  0  0  0  0  0
   36.5920   30.3000   38.3780 C   0  0  0  0  0  0  0  0  0  0  0  0
   36.4000   30.5020   39.7400 C   0  0  0  0  0  0  0  0  0  0  0  0
   35.3450   29.8120   40.3380 C   0  0  0  0  0  0  0  0  0  0  0  0
   35.0510   29.8470   41.3750 H   0  0  0  0  0  0  0  0  0  0  0  0
   34.5280   28.9650   39.6090 C   0  0  0  0  0  3  0  0  0  0  0  0
   34.7370   28.7810   38.2580 C   0  0  0  0  0  0  0  0  0  0  0  0
   33.7840   27.7450   37.2210 Cl  0  0  0  0  0  0  0  0  0  0  0  0
   35.7780   29.4650   37.6780 C   0  0  0  0  0  0  0  0  0  0  0  0
   36.0680   29.4200   36.6230 H   0  0  0  0  0  0  0  0  0  0  0  0
   39.1940   28.5760   40.8760 C   0  0  0  0  0  0  0  0  0  0  0  0
   38.5840   29.6180   41.6010 C   0  0  0  0  0  0  0  0  0  0  0  0
   38.1350   29.3510   42.8830 C   0  0  0  0  0  0  0  0  0  0  0  0
   38.2980   28.1070   43.3870 N   0  0  0  0  0  0  0  0  0  0  0  0
   38.8880   27.1130   42.6740 C   0  0  0  0  0  0  0  0  0  0  0  0
   39.3310   27.3560   41.4260 N   0  0  0  0  0  0  0  0  0  0  0  0
   39.6030   28.5870   39.8770 H   0  0  0  0  0  0  0  0  0  0  0  0
   37.6760   30.1650   43.4150 H   0  0  0  0  0  0  0  0  0  0  0  0
   38.9410   26.1780   43.2220 H   0  0  0  0  0  0  0  0  0  0  0  0
  1 26  1  0  0  0  0
  2  1  1  0  0  0  0
  2  7  1  1  0  0  0
  3  9  1  0  0  0  0
  3  4  1  0  0  0  0
  3  2  1  0  0  0  0
  4 10  1  0  0  0  0
  4  5  1  0  0  0  0
  5 11  1  0  0  0  0
  6 14  1  0  0  0  0
  6  5  1  0  0  0  0
  6  1  1  0  0  0  0
  8  3  1  0  0  0  0
 12  5  1  0  0  0  0
 13  6  1  0  0  0  0
 15 16  1  0  0  0  0
 16 17  1  0  0  0  0
 17 18  2  0  0  0  0
 17  2  1  0  0  0  0
 18 19  1  0  0  0  0
 20 18  1  0  0  0  0
 21 20  2  0  0  0  0
 22 21  1  0  0  0  0
 23 21  1  0  0  0  0
 23 16  2  0  0  0  0
 24 23  1  0  0  0  0
 25 30  2  0  0  0  0
 25 26  1  0  0  0  0
 26 27  2  0  0  0  0
 27 28  1  0  0  0  0
 27 32  1  0  0  0  0
 29 33  1  0  0  0  0
 29 28  2  0  0  0  0
 30 29  1  0  0  0  0
 31 25  1  0  0  0  0
M  END
>  <minimizedAffinity>
-5.44017982

$$$$

 OpenBabel03252508333D

 33 35  0  0  1  0  0  0  0  0999 V2000
   38.2600   30.8570   40.5330 N   0  0  0  0  0  0  0  0  0  0  0  0
   37.0420   31.3180   39.9750 C   0  0  1  0  0  0  0  0  0  0  0  0
   37.0510   32.7320   39.5180 C   0  0  0  0  0  0  0  0  0  0  0  0
   37.8260   33.6380   40.2380 N   0  0  0  0  0  0  0  0  0  0  0  0
   38.9040   33.1620   40.9920 C   0  0  0  0  0  0  0  0  0  0  0  0
   39.3340   31.8020   40.4660 C   0  0  0  0  0  0  0  0  0  0  0  0
   36.2350   31.2070   40.7360 H   0  0  0  0  0  0  0  0  0  0  0  0
   37.3960   32.7500   38.4420 H   0  0  0  0  0  0  0  0  0  0  0  0
   35.9910   33.1000   39.4540 H   0  0  0  0  0  0  0  0  0  0  0  0
   37.4120   34.5280   40.5120 H   0  0  0  0  0  0  0  0  0  0  0  0
   38.5490   32.9960   42.0480 H   0  0  0  0  0  0  0  0  0  0  0  0
   39.7870   33.8010   41.0770 H   0  0  0  0  0  0  0  0  0  0  0  0
   39.6550   31.9190   39.3900 H   0  0  0  0  0  0  0  0  0  0  0  0
   40.2420   31.5510   41.0170 H   0  0  0  0  0  0  0  0  0  0  0  0
   34.8040   29.2930   40.2810 Cl  0  0  0  0  0  0  0  0  0  0  0  0
   35.6100   29.5380   38.7440 C   0  0  0  0  0  0  0  0  0  0  0  0
   36.6100   30.5020   38.7840 C   0  0  0  0  0  0  0  0  0  0  0  0
   37.2960   30.7520   37.5950 C   0  0  0  0  0  0  0  0  0  0  0  0
   38.0940   31.4600   37.4420 H   0  0  0  0  0  0  0  0  0  0  0  0
   36.9940   30.0710   36.4290 C   0  0  0  0  0  3  0  0  0  0  0  0
   35.9990   29.1160   36.4120 C   0  0  0  0  0  0  0  0  0  0  0  0
   35.5160   28.1840   35.0140 Cl  0  0  0  0  0  0  0  0  0  0  0  0
   35.3280   28.8780   37.5880 C   0  0  0  0  0  0  0  0  0  0  0  0
   34.5170   28.1560   37.7310 H   0  0  0  0  0  0  0  0  0  0  0  0
   37.6880   29.4110   42.3500 C   0  0  0  0  0  0  0  0  0  0  0  0
   38.2870   29.5430   41.0820 C   0  0  0  0  0  0  0  0  0  0  0  0
   38.8340   28.4150   40.4930 C   0  0  0  0  0  0  0  0  0  0  0  0
   38.7730   27.2370   41.1560 N   0  0  0  0  0  0  0  0  0  0  0  0
   38.1910   27.1270   42.3780 C   0  0  0  0  0  0  0  0  0  0  0  0
   37.6540   28.2150   42.9640 N   0  0  0  0  0  0  0  0  0  0  0  0
   37.2140   30.1620   42.9620 H   0  0  0  0  0  0  0  0  0  0  0  0
   39.2830   28.5430   39.5240 H   0  0  0  0  0  0  0  0  0  0  0  0
   38.2260   26.1160   42.7700 H   0  0  0  0  0  0  0  0  0  0  0  0
  1 26  1  0  0  0  0
  2  1  1  0  0  0  0
  2  7  1  1  0  0  0
  3  2  1  0  0  0  0
  3  4  1  0  0  0  0
  4 10  1  0  0  0  0
  4  5  1  0  0  0  0
  5 12  1  0  0  0  0
  5 11  1  0  0  0  0
  6  1  1  0  0  0  0
  6  5  1  0  0  0  0
  6 14  1  0  0  0  0
  8  3  1  0  0  0  0
  9  3  1  0  0  0  0
 13  6  1  0  0  0  0
 16 17  1  0  0  0  0
 16 15  1  0  0  0  0
 17  2  1  0  0  0  0
 18 17  2  0  0  0  0
 19 18  1  0  0  0  0
 20 18  1  0  0  0  0
 21 20  2  0  0  0  0
 21 23  1  0  0  0  0
 22 21  1  0  0  0  0
 23 24  1  0  0  0  0
 23 16  2  0  0  0  0
 25 31  1  0  0  0  0
 25 30  1  0  0  0  0
 26 25  2  0  0  0  0
 27 26  1  0  0  0  0
 27 28  2  0  0  0  0
 28 29  1  0  0  0  0
 29 33  1  0  0  0  0
 29 30  2  0  0  0  0
 32 27  1  0  0  0  0
M  END
>  <minimizedAffinity>
-5.32135963

$$$$

 OpenBabel03252508333D

 33 35  0  0  1  0  0  0  0  0999 V2000
   38.9760   30.8400   40.7680 N   0  0  0  0  0  0  0  0  0  0  0  0
   37.8070   30.5360   41.5090 C   0  0  1  0  0  0  0  0  0  0  0  0
   36.5510   31.1280   40.9790 C   0  0  0  0  0  0  0  0  0  0  0  0
   36.6340   32.3780   40.3700 N   0  0  0  0  0  0  0  0  0  0  0  0
   37.8580   32.7940   39.8360 C   0  0  0  0  0  0  0  0  0  0  0  0
   38.7370   31.5830   39.5680 C   0  0  0  0  0  0  0  0  0  0  0  0
   37.9430   30.8950   42.5550 H   0  0  0  0  0  0  0  0  0  0  0  0
   36.1070   30.4020   40.2350 H   0  0  0  0  0  0  0  0  0  0  0  0
   35.7860   31.1530   41.8020 H   0  0  0  0  0  0  0  0  0  0  0  0
   35.9620   33.0980   40.6350 H   0  0  0  0  0  0  0  0  0  0  0  0
   38.3920   33.4070   40.6160 H   0  0  0  0  0  0  0  0  0  0  0  0
   37.8360   33.4190   38.9390 H   0  0  0  0  0  0  0  0  0  0  0  0
   38.2120   30.9190   38.8210 H   0  0  0  0  0  0  0  0  0  0  0  0
   39.6150   31.9710   39.0480 H   0  0  0  0  0  0  0  0  0  0  0  0
   37.2040   28.9590   38.9900 Cl  0  0  0  0  0  0  0  0  0  0  0  0
   37.2670   28.1810   40.5590 C   0  0  0  0  0  0  0  0  0  0  0  0
   37.5560   29.0530   41.6030 C   0  0  0  0  0  0  0  0  0  0  0  0
   37.6230   28.5040   42.8840 C   0  0  0  0  0  0  0  0  0  0  0  0
   37.8340   29.0260   43.8040 H   0  0  0  0  0  0  0  0  0  0  0  0
   37.4120   27.1550   43.1060 C   0  0  0  0  0  3  0  0  0  0  0  0
   37.1250   26.3080   42.0550 C   0  0  0  0  0  0  0  0  0  0  0  0
   36.8380   24.5890   42.1920 Cl  0  0  0  0  0  0  0  0  0  0  0  0
   37.0620   26.8580   40.7970 C   0  0  0  0  0  0  0  0  0  0  0  0
   36.8470   26.3170   39.8690 H   0  0  0  0  0  0  0  0  0  0  0  0
   40.6660   31.0360   42.4490 C   0  0  0  0  0  0  0  0  0  0  0  0
   40.2260   30.3860   41.2790 C   0  0  0  0  0  0  0  0  0  0  0  0
   41.0230   29.3890   40.7420 C   0  0  0  0  0  0  0  0  0  0  0  0
   42.1870   29.0800   41.3570 N   0  0  0  0  0  0  0  0  0  0  0  0
   42.5970   29.7160   42.4850 C   0  0  0  0  0  0  0  0  0  0  0  0
   41.8330   30.6880   43.0200 N   0  0  0  0  0  0  0  0  0  0  0  0
   40.1930   31.8270   43.0100 H   0  0  0  0  0  0  0  0  0  0  0  0
   40.6620   28.9070   39.8510 H   0  0  0  0  0  0  0  0  0  0  0  0
   43.5500   29.3500   42.8510 H   0  0  0  0  0  0  0  0  0  0  0  0
  1 26  1  0  0  0  0
  1  2  1  0  0  0  0
  2 17  1  0  0  0  0
  2  7  1  1  0  0  0
  3  2  1  0  0  0  0
  3  9  1  0  0  0  0
  4 10  1  0  0  0  0
  4  3  1  0  0  0  0
  5  4  1  0  0  0  0
  5 11  1  0  0  0  0
  6  5  1  0  0  0  0
  6  1  1  0  0  0  0
  8  3  1  0  0  0  0
 12  5  1  0  0  0  0
 13  6  1  0  0  0  0
 14  6  1  0  0  0  0
 15 16  1  0  0  0  0
 16 23  2  0  0  0  0
 16 17  1  0  0  0  0
 17 18  2  0  0  0  0
 18 20  1  0  0  0  0
 18 19  1  0  0  0  0
 21 22  1  0  0  0  0
 21 20  2  0  0  0  0
 23 21  1  0  0  0  0
 24 23  1  0  0  0  0
 25 31  1  0  0  0  0
 25 30  1  0  0  0  0
 26 25  2  0  0  0  0
 27 26  1  0  0  0  0
 27 28  2  0  0  0  0
 28 29  1  0  0  0  0
 29 33  1  0  0  0  0
 29 30  2  0  0  0  0
 32 27  1  0  0  0  0
M  END
>  <minimizedAffinity>
-5.22031355

$$$$

 OpenBabel03252508333D

 33 35  0  0  1  0  0  0  0  0999 V2000
   38.2940   31.0150   40.5840 N   0  0  0  0  0  0  0  0  0  0  0  0
   37.0730   31.4400   40.0020 C   0  0  1  0  0  0  0  0  0  0  0  0
   37.0620   32.8410   39.5070 C   0  0  0  0  0  0  0  0  0  0  0  0
   37.8140   33.7790   40.2110 N   0  0  0  0  0  0  0  0  0  0  0  0
   38.8920   33.3430   40.9880 C   0  0  0  0  0  0  0  0  0  0  0  0
   39.3510   31.9770   40.5030 C   0  0  0  0  0  0  0  0  0  0  0  0
   36.2610   31.3350   40.7570 H   0  0  0  0  0  0  0  0  0  0  0  0
   37.4180   32.8380   38.4340 H   0  0  0  0  0  0  0  0  0  0  0  0
   35.9970   33.1890   39.4230 H   0  0  0  0  0  0  0  0  0  0  0  0
   37.3820   34.6690   40.4570 H   0  0  0  0  0  0  0  0  0  0  0  0
   38.5290   33.1980   42.0440 H   0  0  0  0  0  0  0  0  0  0  0  0
   39.7630   34.0000   41.0650 H   0  0  0  0  0  0  0  0  0  0  0  0
   39.6820   32.0720   39.4270 H   0  0  0  0  0  0  0  0  0  0  0  0
   40.2580   31.7570   41.0690 H   0  0  0  0  0  0  0  0  0  0  0  0
   34.8660   29.3860   40.3380 Cl  0  0  0  0  0  0  0  0  0  0  0  0
   35.6840   29.6030   38.8030 C   0  0  0  0  0  0  0  0  0  0  0  0
   36.6670   30.5860   38.8280 C   0  0  0  0  0  0  0  0  0  0  0  0
   37.3620   30.8160   37.6400 C   0  0  0  0  0  0  0  0  0  0  0  0
   38.1500   31.5330   37.4770 H   0  0  0  0  0  0  0  0  0  0  0  0
   37.0850   30.0990   36.4890 C   0  0  0  0  0  3  0  0  0  0  0  0
   36.1060   29.1270   36.4880 C   0  0  0  0  0  0  0  0  0  0  0  0
   35.6540   28.1500   35.1090 Cl  0  0  0  0  0  0  0  0  0  0  0  0
   35.4270   28.9090   37.6620 C   0  0  0  0  0  0  0  0  0  0  0  0
   34.6270   28.1770   37.8160 H   0  0  0  0  0  0  0  0  0  0  0  0
   39.1260   28.7760   40.4760 C   0  0  0  0  0  0  0  0  0  0  0  0
   38.3370   29.7160   41.1670 C   0  0  0  0  0  0  0  0  0  0  0  0
   37.6920   29.3100   42.3230 C   0  0  0  0  0  0  0  0  0  0  0  0
   37.8420   28.0320   42.7400 N   0  0  0  0  0  0  0  0  0  0  0  0
   38.6070   27.1380   42.0620 C   0  0  0  0  0  0  0  0  0  0  0  0
   39.2410   27.5180   40.9360 N   0  0  0  0  0  0  0  0  0  0  0  0
   39.6980   28.8990   39.5690 H   0  0  0  0  0  0  0  0  0  0  0  0
   37.1000   30.0490   42.8330 H   0  0  0  0  0  0  0  0  0  0  0  0
   38.6220   26.1590   42.5300 H   0  0  0  0  0  0  0  0  0  0  0  0
  1 26  1  0  0  0  0
  2  1  1  0  0  0  0
  2  7  1  1  0  0  0
  3  2  1  0  0  0  0
  3  4  1  0  0  0  0
  4 10  1  0  0  0  0
  4  5  1  0  0  0  0
  5 12  1  0  0  0  0
  5 11  1  0  0  0  0
  6  1  1  0  0  0  0
  6  5  1  0  0  0  0
  6 14  1  0  0  0  0
  8  3  1  0  0  0  0
  9  3  1  0  0  0  0
 13  6  1  0  0  0  0
 16 17  1  0  0  0  0
 16 15  1  0  0  0  0
 17  2  1  0  0  0  0
 18 17  2  0  0  0  0
 19 18  1  0  0  0  0
 20 18  1  0  0  0  0
 21 20  2  0  0  0  0
 21 23  1  0  0  0  0
 22 21  1  0  0  0  0
 23 24  1  0  0  0  0
 23 16  2  0  0  0  0
 25 30  2  0  0  0  0
 25 26  1  0  0  0  0
 26 27  2  0  0  0  0
 27 28  1  0  0  0  0
 27 32  1  0  0  0  0
 29 33  1  0  0  0  0
 29 28  2  0  0  0  0
 30 29  1  0  0  0  0
 31 25  1  0  0  0  0
M  END
>  <minimizedAffinity>
-5.21962023

$$$$

 OpenBabel03252508333D

 33 35  0  0  1  0  0  0  0  0999 V2000
   38.3500   29.6890   40.7520 N   0  0  0  0  0  0  0  0  0  0  0  0
   37.2540   29.1170   41.4460 C   0  0  1  0  0  0  0  0  0  0  0  0
   35.9290   29.7180   41.1400 C   0  0  0  0  0  0  0  0  0  0  0  0
   35.8890   31.0830   40.8620 N   0  0  0  0  0  0  0  0  0  0  0  0
   37.0450   31.7160   40.3950 C   0  0  0  0  0  0  0  0  0  0  0  0
   37.9840   30.6850   39.7900 C   0  0  0  0  0  0  0  0  0  0  0  0
   37.4320   29.2160   42.5410 H   0  0  0  0  0  0  0  0  0  0  0  0
   35.4880   29.1660   40.2580 H   0  0  0  0  0  0  0  0  0  0  0  0
   35.2180   29.4760   41.9760 H   0  0  0  0  0  0  0  0  0  0  0  0
   35.1880   31.6580   41.3290 H   0  0  0  0  0  0  0  0  0  0  0  0
   37.5860   32.1580   41.2790 H   0  0  0  0  0  0  0  0  0  0  0  0
   36.9230   32.5400   39.6860 H   0  0  0  0  0  0  0  0  0  0  0  0
   37.4570   30.1850   38.9250 H   0  0  0  0  0  0  0  0  0  0  0  0
   38.7990   31.2590   39.3460 H   0  0  0  0  0  0  0  0  0  0  0  0
   37.8800   27.1240   43.6440 Cl  0  0  0  0  0  0  0  0  0  0  0  0
   37.3510   26.5970   42.0590 C   0  0  0  0  0  0  0  0  0  0  0  0
   37.1090   27.6420   41.1750 C   0  0  0  0  0  0  0  0  0  0  0  0
   36.6830   27.2980   39.8910 C   0  0  0  0  0  0  0  0  0  0  0  0
   36.4500   27.9720   39.0820 H   0  0  0  0  0  0  0  0  0  0  0  0
   36.5100   25.9780   39.5150 C   0  0  0  0  0  3  0  0  0  0  0  0
   36.7570   24.9570   40.4090 C   0  0  0  0  0  0  0  0  0  0  0  0
   36.5800   23.2510   40.0680 Cl  0  0  0  0  0  0  0  0  0  0  0  0
   37.1750   25.3050   41.6710 C   0  0  0  0  0  0  0  0  0  0  0  0
   37.4080   24.6110   42.4850 H   0  0  0  0  0  0  0  0  0  0  0  0
   40.1270   29.5990   42.3500 C   0  0  0  0  0  0  0  0  0  0  0  0
   39.6570   29.2260   41.0750 C   0  0  0  0  0  0  0  0  0  0  0  0
   40.4830   28.4620   40.2680 C   0  0  0  0  0  0  0  0  0  0  0  0
   41.7030   28.1050   40.7330 N   0  0  0  0  0  0  0  0  0  0  0  0
   42.1400   28.4730   41.9640 C   0  0  0  0  0  0  0  0  0  0  0  0
   41.3490   29.2160   42.7620 N   0  0  0  0  0  0  0  0  0  0  0  0
   39.6380   30.1840   43.1130 H   0  0  0  0  0  0  0  0  0  0  0  0
   40.0990   28.1880   39.3020 H   0  0  0  0  0  0  0  0  0  0  0  0
   43.1370   28.1060   42.1820 H   0  0  0  0  0  0  0  0  0  0  0  0
  1 26  1  0  0  0  0
  1  2  1  0  0  0  0
  2  7  1  1  0  0  0
  3  2  1  0  0  0  0
  3  9  1  0  0  0  0
  4  3  1  0  0  0  0
  4 10  1  0  0  0  0
  5  4  1  0  0  0  0
  5 11  1  0  0  0  0
  6  5  1  0  0  0  0
  6  1  1  0  0  0  0
  8  3  1  0  0  0  0
 12  5  1  0  0  0  0
 13  6  1  0  0  0  0
 14  6  1  0  0  0  0
 16 15  1  0  0  0  0
 17  2  1  0  0  0  0
 17 16  2  0  0  0  0
 18 17  1  0  0  0  0
 19 18  1  0  0  0  0
 20 18  2  0  0  0  0
 20 21  1  0  0  0  0
 21 23  2  0  0  0  0
 22 21  1  0  0  0  0
 23 16  1  0  0  0  0
 23 24  1  0  0  0  0
 25 30  1  0  0  0  0
 25 31  1  0  0  0  0
 26 25  2  0  0  0  0
 27 28  2  0  0  0  0
 27 26  1  0  0  0  0
 28 29  1  0  0  0  0
 29 33  1  0  0  0  0
 29 30  2  0  0  0  0
 32 27  1  0  0  0  0
M  END
>  <minimizedAffinity>
-5.05306101

$$$$

 OpenBabel03252508333D

 33 35  0  0  1  0  0  0  0  0999 V2000
   38.7620   30.5060   40.6560 N   0  0  0  0  0  0  0  0  0  0  0  0
   38.0380   29.9810   41.7550 C   0  0  1  0  0  0  0  0  0  0  0  0
   36.5590   30.0230   41.6170 C   0  0  0  0  0  0  0  0  0  0  0  0
   36.0070   31.0970   40.9210 N   0  0  0  0  0  0  0  0  0  0  0  0
   36.7950   31.7820   39.9910 C   0  0  0  0  0  0  0  0  0  0  0  0
   37.9470   30.8950   39.5450 C   0  0  0  0  0  0  0  0  0  0  0  0
   38.3150   30.5510   42.6720 H   0  0  0  0  0  0  0  0  0  0  0  0
   36.2260   29.0680   41.1120 H   0  0  0  0  0  0  0  0  0  0  0  0
   36.0960   29.9500   42.6380 H   0  0  0  0  0  0  0  0  0  0  0  0
   35.2190   31.5950   41.3330 H   0  0  0  0  0  0  0  0  0  0  0  0
   37.2600   32.6690   40.5090 H   0  0  0  0  0  0  0  0  0  0  0  0
   36.3000   32.1880   39.1050 H   0  0  0  0  0  0  0  0  0  0  0  0
   37.5180   29.9700   39.0600 H   0  0  0  0  0  0  0  0  0  0  0  0
   38.4420   31.4440   38.7420 H   0  0  0  0  0  0  0  0  0  0  0  0
   37.2290   27.8340   39.7720 Cl  0  0  0  0  0  0  0  0  0  0  0  0
   38.0930   27.4360   41.2440 C   0  0  0  0  0  0  0  0  0  0  0  0
   38.3840   28.5410   42.0370 C   0  0  0  0  0  0  0  0  0  0  0  0
   39.0720   28.3020   43.2270 C   0  0  0  0  0  0  0  0  0  0  0  0
   39.3790   29.0320   43.9580 H   0  0  0  0  0  0  0  0  0  0  0  0
   39.4480   27.0240   43.6010 C   0  0  0  0  0  3  0  0  0  0  0  0
   39.1480   25.9420   42.7990 C   0  0  0  0  0  0  0  0  0  0  0  0
   39.5620   24.2790   43.1490 Cl  0  0  0  0  0  0  0  0  0  0  0  0
   38.4700   26.1880   41.6290 C   0  0  0  0  0  0  0  0  0  0  0  0
   38.1650   25.4370   40.8930 H   0  0  0  0  0  0  0  0  0  0  0  0
   40.6530   31.4670   41.7610 C   0  0  0  0  0  0  0  0  0  0  0  0
   40.1800   30.5860   40.7690 C   0  0  0  0  0  0  0  0  0  0  0  0
   41.1070   29.8920   40.0110 C   0  0  0  0  0  0  0  0  0  0  0  0
   42.4240   30.0860   40.2500 N   0  0  0  0  0  0  0  0  0  0  0  0
   42.8640   30.9390   41.2100 C   0  0  0  0  0  0  0  0  0  0  0  0
   41.9740   31.6220   41.9570 N   0  0  0  0  0  0  0  0  0  0  0  0
   40.0950   32.0890   42.4440 H   0  0  0  0  0  0  0  0  0  0  0  0
   40.7190   29.2230   39.2630 H   0  0  0  0  0  0  0  0  0  0  0  0
   43.9460   30.9790   41.2730 H   0  0  0  0  0  0  0  0  0  0  0  0
  1 26  1  0  0  0  0
  1  2  1  0  0  0  0
  2 17  1  0  0  0  0
  2  7  1  1  0  0  0
  3  2  1  0  0  0  0
  3  9  1  0  0  0  0
  4 10  1  0  0  0  0
  4  3  1  0  0  0  0
  5 11  1  0  0  0  0
  5  4  1  0  0  0  0
  6  5  1  0  0  0  0
  6  1  1  0  0  0  0
  8  3  1  0  0  0  0
 12  5  1  0  0  0  0
 13  6  1  0  0  0  0
 14  6  1  0  0  0  0
 15 16  1  0  0  0  0
 16 23  2  0  0  0  0
 16 17  1  0  0  0  0
 17 18  2  0  0  0  0
 18 20  1  0  0  0  0
 18 19  1  0  0  0  0
 21 22  1  0  0  0  0
 21 20  2  0  0  0  0
 23 21  1  0  0  0  0
 24 23  1  0  0  0  0
 25 30  1  0  0  0  0
 25 31  1  0  0  0  0
 26 25  2  0  0  0  0
 27 28  2  0  0  0  0
 27 26  1  0  0  0  0
 28 29  1  0  0  0  0
 29 33  1  0  0  0  0
 29 30  2  0  0  0  0
 32 27  1  0  0  0  0
M  END
>  <minimizedAffinity>
-5.00453472

$$$$

 OpenBabel03252508333D

 33 35  0  0  1  0  0  0  0  0999 V2000
   37.8040   29.6880   41.3290 N   0  0  0  0  0  0  0  0  0  0  0  0
   37.7490   28.6090   40.4110 C   0  0  1  0  0  0  0  0  0  0  0  0
   37.5110   27.2740   41.0190 C   0  0  0  0  0  0  0  0  0  0  0  0
   38.0520   27.0340   42.2810 N   0  0  0  0  0  0  0  0  0  0  0  0
   38.3340   28.1190   43.1170 C   0  0  0  0  0  0  0  0  0  0  0  0
   37.5150   29.3250   42.6830 C   0  0  0  0  0  0  0  0  0  0  0  0
   38.7110   28.5660   39.8510 H   0  0  0  0  0  0  0  0  0  0  0  0
   36.3950   27.1070   41.0760 H   0  0  0  0  0  0  0  0  0  0  0  0
   37.8530   26.4810   40.3000 H   0  0  0  0  0  0  0  0  0  0  0  0
   38.5650   26.1680   42.4380 H   0  0  0  0  0  0  0  0  0  0  0  0
   39.4150   28.4020   42.9740 H   0  0  0  0  0  0  0  0  0  0  0  0
   38.2090   27.9780   44.1940 H   0  0  0  0  0  0  0  0  0  0  0  0
   36.4200   29.0640   42.7700 H   0  0  0  0  0  0  0  0  0  0  0  0
   37.6960   30.0870   43.4440 H   0  0  0  0  0  0  0  0  0  0  0  0
   38.5150   29.1160   37.5210 Cl  0  0  0  0  0  0  0  0  0  0  0  0
   36.8360   29.0260   38.0170 C   0  0  0  0  0  0  0  0  0  0  0  0
   36.6680   28.7880   39.3770 C   0  0  0  0  0  0  0  0  0  0  0  0
   35.3570   28.7030   39.8460 C   0  0  0  0  0  0  0  0  0  0  0  0
   35.0410   28.5240   40.8610 H   0  0  0  0  0  0  0  0  0  0  0  0
   34.2740   28.8490   38.9970 C   0  0  0  0  0  3  0  0  0  0  0  0
   34.4640   29.0860   37.6520 C   0  0  0  0  0  0  0  0  0  0  0  0
   33.1900   29.2900   36.4710 Cl  0  0  0  0  0  0  0  0  0  0  0  0
   35.7590   29.1680   37.1990 C   0  0  0  0  0  0  0  0  0  0  0  0
   36.0680   29.3490   36.1640 H   0  0  0  0  0  0  0  0  0  0  0  0
   39.5060   31.2430   40.6950 C   0  0  0  0  0  0  0  0  0  0  0  0
   38.1280   30.9790   40.8210 C   0  0  0  0  0  0  0  0  0  0  0  0
   37.2330   31.9660   40.4490 C   0  0  0  0  0  0  0  0  0  0  0  0
   37.7130   33.1420   39.9830 N   0  0  0  0  0  0  0  0  0  0  0  0
   39.0440   33.3820   39.8670 C   0  0  0  0  0  0  0  0  0  0  0  0
   39.9290   32.4300   40.2240 N   0  0  0  0  0  0  0  0  0  0  0  0
   40.3470   30.6100   40.9290 H   0  0  0  0  0  0  0  0  0  0  0  0
   36.1870   31.7370   40.5520 H   0  0  0  0  0  0  0  0  0  0  0  0
   39.2610   34.3710   39.4780 H   0  0  0  0  0  0  0  0  0  0  0  0
  1  6  1  0  0  0  0
  2  7  1  6  0  0  0
  2  3  1  0  0  0  0
  2  1  1  0  0  0  0
  3  8  1  0  0  0  0
  3  4  1  0  0  0  0
  4 10  1  0  0  0  0
  4  5  1  0  0  0  0
  5 12  1  0  0  0  0
  6 13  1  0  0  0  0
  6  5  1  0  0  0  0
  6 14  1  0  0  0  0
  9  3  1  0  0  0  0
 11  5  1  0  0  0  0
 15 16  1  0  0  0  0
 16 17  1  0  0  0  0
 17 18  2  0  0  0  0
 17  2  1  0  0  0  0
 18 19  1  0  0  0  0
 20 18  1  0  0  0  0
 21 20  2  0  0  0  0
 22 21  1  0  0  0  0
 23 21  1  0  0  0  0
 23 16  2  0  0  0  0
 24 23  1  0  0  0  0
 25 26  1  0  0  0  0
 25 31  1  0  0  0  0
 26  1  1  0  0  0  0
 27 32  1  0  0  0  0
 27 26  2  0  0  0  0
 28 27  1  0  0  0  0
 29 28  2  0  0  0  0
 29 30  1  0  0  0  0
 30 25  2  0  0  0  0
 33 29  1  0  0  0  0
M  END
>  <minimizedAffinity>
-4.85011864

$$$$

 OpenBabel03252508333D

 33 35  0  0  1  0  0  0  0  0999 V2000
   36.4750   28.3630   40.9990 N   0  0  0  0  0  0  0  0  0  0  0  0
   36.9640   29.6350   41.3910 C   0  0  1  0  0  0  0  0  0  0  0  0
   37.7020   29.6570   42.6810 C   0  0  0  0  0  0  0  0  0  0  0  0
   37.2840   28.7800   43.6790 N   0  0  0  0  0  0  0  0  0  0  0  0
   36.5850   27.6240   43.3190 C   0  0  0  0  0  0  0  0  0  0  0  0
   36.8660   27.2900   41.8620 C   0  0  0  0  0  0  0  0  0  0  0  0
   36.1050   30.3390   41.4730 H   0  0  0  0  0  0  0  0  0  0  0  0
   38.7930   29.4530   42.4660 H   0  0  0  0  0  0  0  0  0  0  0  0
   37.7120   30.7100   43.0760 H   0  0  0  0  0  0  0  0  0  0  0  0
   37.1530   29.1390   44.6240 H   0  0  0  0  0  0  0  0  0  0  0  0
   35.4820   27.8440   43.3870 H   0  0  0  0  0  0  0  0  0  0  0  0
   36.7410   26.7250   43.9220 H   0  0  0  0  0  0  0  0  0  0  0  0
   37.9740   27.1060   41.7450 H   0  0  0  0  0  0  0  0  0  0  0  0
   36.3890   26.3230   41.6890 H   0  0  0  0  0  0  0  0  0  0  0  0
   39.5950   28.2520   40.7880 Cl  0  0  0  0  0  0  0  0  0  0  0  0
   39.1360   29.7340   39.9740 C   0  0  0  0  0  0  0  0  0  0  0  0
   37.9000   30.2300   40.3710 C   0  0  0  0  0  0  0  0  0  0  0  0
   37.4670   31.4100   39.7650 C   0  0  0  0  0  0  0  0  0  0  0  0
   36.5430   31.9340   39.9480 H   0  0  0  0  0  0  0  0  0  0  0  0
   38.2340   32.0570   38.8110 C   0  0  0  0  0  3  0  0  0  0  0  0
   39.4580   31.5470   38.4320 C   0  0  0  0  0  0  0  0  0  0  0  0
   40.5250   32.2590   37.2440 Cl  0  0  0  0  0  0  0  0  0  0  0  0
   39.8750   30.3840   39.0350 C   0  0  0  0  0  0  0  0  0  0  0  0
   40.8170   29.8610   38.8390 H   0  0  0  0  0  0  0  0  0  0  0  0
   36.0840   27.3310   38.8780 C   0  0  0  0  0  0  0  0  0  0  0  0
   35.6740   28.2910   39.8240 C   0  0  0  0  0  0  0  0  0  0  0  0
   34.5580   29.0590   39.5390 C   0  0  0  0  0  0  0  0  0  0  0  0
   33.9090   28.8600   38.3690 N   0  0  0  0  0  0  0  0  0  0  0  0
   34.3170   27.9300   37.4680 C   0  0  0  0  0  0  0  0  0  0  0  0
   35.4010   27.1740   37.7300 N   0  0  0  0  0  0  0  0  0  0  0  0
   36.9170   26.6460   38.9170 H   0  0  0  0  0  0  0  0  0  0  0  0
   34.2650   29.7820   40.2800 H   0  0  0  0  0  0  0  0  0  0  0  0
   33.6880   27.8980   36.5840 H   0  0  0  0  0  0  0  0  0  0  0  0
  1  2  1  0  0  0  0
  1  6  1  0  0  0  0
  2  7  1  1  0  0  0
  2  3  1  0  0  0  0
  3  9  1  0  0  0  0
  3  4  1  0  0  0  0
  4 10  1  0  0  0  0
  5 11  1  0  0  0  0
  5  4  1  0  0  0  0
  5 12  1  0  0  0  0
  6  5  1  0  0  0  0
  8  3  1  0  0  0  0
 13  6  1  0  0  0  0
 14  6  1  0  0  0  0
 16 17  1  0  0  0  0
 16 15  1  0  0  0  0
 17  2  1  0  0  0  0
 18 19  1  0  0  0  0
 18 17  2  0  0  0  0
 20 18  1  0  0  0  0
 21 20  2  0  0  0  0
 21 23  1  0  0  0  0
 22 21  1  0  0  0  0
 23 16  2  0  0  0  0
 24 23  1  0  0  0  0
 25 31  1  0  0  0  0
 25 26  1  0  0  0  0
 26  1  1  0  0  0  0
 27 26  2  0  0  0  0
 27 32  1  0  0  0  0
 28 27  1  0  0  0  0
 29 30  1  0  0  0  0
 29 28  2  0  0  0  0
 30 25  2  0  0  0  0
 33 29  1  0  0  0  0
M  END
>  <minimizedAffinity>
-4.84685612

$$$$

 OpenBabel03252508333D

 33 35  0  0  1  0  0  0  0  0999 V2000
   39.4010   25.6180   41.7090 N   0  0  0  0  0  0  0  0  0  0  0  0
   39.1520   26.5920   42.7080 C   0  0  1  0  0  0  0  0  0  0  0  0
   40.3530   27.0550   43.4520 C   0  0  0  0  0  0  0  0  0  0  0  0
   41.3690   26.1280   43.6790 N   0  0  0  0  0  0  0  0  0  0  0  0
   41.4820   25.0230   42.8300 C   0  0  0  0  0  0  0  0  0  0  0  0
   40.7870   25.3190   41.5100 C   0  0  0  0  0  0  0  0  0  0  0  0
   38.4310   26.1720   43.4460 H   0  0  0  0  0  0  0  0  0  0  0  0
   40.7940   27.9330   42.8950 H   0  0  0  0  0  0  0  0  0  0  0  0
   40.0240   27.5080   44.4270 H   0  0  0  0  0  0  0  0  0  0  0  0
   41.7590   26.0490   44.6170 H   0  0  0  0  0  0  0  0  0  0  0  0
   40.9240   24.1630   43.2960 H   0  0  0  0  0  0  0  0  0  0  0  0
   42.4860   24.6420   42.6210 H   0  0  0  0  0  0  0  0  0  0  0  0
   41.2920   26.2090   41.0320 H   0  0  0  0  0  0  0  0  0  0  0  0
   41.0170   24.4700   40.8640 H   0  0  0  0  0  0  0  0  0  0  0  0
   36.3600   27.3600   43.6090 Cl  0  0  0  0  0  0  0  0  0  0  0  0
   37.2450   28.3340   42.4510 C   0  0  0  0  0  0  0  0  0  0  0  0
   38.5080   27.8350   42.1520 C   0  0  0  0  0  0  0  0  0  0  0  0
   39.2730   28.5590   41.2360 C   0  0  0  0  0  0  0  0  0  0  0  0
   40.2660   28.3230   40.8900 H   0  0  0  0  0  0  0  0  0  0  0  0
   38.7960   29.7200   40.6530 C   0  0  0  0  0  3  0  0  0  0  0  0
   37.5390   30.1960   40.9640 C   0  0  0  0  0  0  0  0  0  0  0  0
   36.8160   31.6440   40.3030 Cl  0  0  0  0  0  0  0  0  0  0  0  0
   36.7940   29.4760   41.8670 C   0  0  0  0  0  0  0  0  0  0  0  0
   35.7860   29.7270   42.2130 H   0  0  0  0  0  0  0  0  0  0  0  0
   38.3340   25.1410   39.6230 C   0  0  0  0  0  0  0  0  0  0  0  0
   38.2810   25.0600   41.0280 C   0  0  0  0  0  0  0  0  0  0  0  0
   37.1780   24.4610   41.6120 C   0  0  0  0  0  0  0  0  0  0  0  0
   36.1970   23.9800   40.8140 N   0  0  0  0  0  0  0  0  0  0  0  0
   36.2630   24.0650   39.4600 C   0  0  0  0  0  0  0  0  0  0  0  0
   37.3300   24.6450   38.8770 N   0  0  0  0  0  0  0  0  0  0  0  0
   39.0990   25.5650   38.9920 H   0  0  0  0  0  0  0  0  0  0  0  0
   37.1650   24.4100   42.6860 H   0  0  0  0  0  0  0  0  0  0  0  0
   35.3980   23.6320   38.9700 H   0  0  0  0  0  0  0  0  0  0  0  0
  1  2  1  0  0  0  0
  2  7  1  1  0  0  0
  2  3  1  0  0  0  0
  3  4  1  0  0  0  0
  3  9  1  0  0  0  0
  4 10  1  0  0  0  0
  5 11  1  0  0  0  0
  5  4  1  0  0  0  0
  6  1  1  0  0  0  0
  6  5  1  0  0  0  0
  8  3  1  0  0  0  0
 12  5  1  0  0  0  0
 13  6  1  0  0  0  0
 14  6  1  0  0  0  0
 16 15  1  0  0  0  0
 17 16  1  0  0  0  0
 17  2  1  0  0  0  0
 18 17  2  0  0  0  0
 19 18  1  0  0  0  0
 20 21  2  0  0  0  0
 20 18  1  0  0  0  0
 21 23  1  0  0  0  0
 22 21  1  0  0  0  0
 23 24  1  0  0  0  0
 23 16  2  0  0  0  0
 25 26  1  0  0  0  0
 26 27  2  0  0  0  0
 26  1  1  0  0  0  0
 27 32  1  0  0  0  0
 28 27  1  0  0  0  0
 29 28  2  0  0  0  0
 30 29  1  0  0  0  0
 30 25  2  0  0  0  0
 31 25  1  0  0  0  0
 33 29  1  0  0  0  0
M  END
>  <minimizedAffinity>
-4.80796862

$$$$
