
 OpenBabel03242511433D

 35 37  0  0  0  0  0  0  0  0999 V2000
   38.7350   31.7300   40.4420 C   0  0  0  0  0  0  0  0  0  0  0  0
   39.1060   32.9840   40.9040 C   0  0  0  0  0  0  0  0  0  0  0  0
   38.5130   34.1500   40.5060 C   0  0  0  0  0  0  0  0  0  0  0  0
   37.4950   34.0410   39.5950 C   0  0  0  0  0  0  0  0  0  0  0  0
   37.1170   32.7800   39.1290 C   0  0  0  0  0  0  0  0  0  0  0  0
   37.7230   31.6040   39.5400 C   0  0  0  0  0  0  0  0  0  0  0  0
   39.9270   32.8690   41.6150 H   0  0  0  0  0  0  0  0  0  0  0  0
   38.9770   34.9820   41.0060 H   0  0  0  0  0  0  0  0  0  0  0  0
   37.1300   35.0600   39.3800 H   0  0  0  0  0  0  0  0  0  0  0  0
   36.3080   33.0350   38.4400 H   0  0  0  0  0  0  0  0  0  0  0  0
   35.4770   29.6630   40.6580 Cl  0  0  0  0  0  0  0  0  0  0  0  0
   35.9190   29.7600   38.9670 C   0  0  0  0  0  0  0  0  0  0  0  0
   36.9450   30.6570   38.7470 C   0  0  0  0  0  0  0  0  0  0  0  0
   37.4170   30.7880   37.4270 C   0  0  0  0  0  0  0  0  0  0  0  0
   38.2050   31.4200   37.0190 H   0  0  0  0  0  0  0  0  0  0  0  0
   36.8870   30.0590   36.3790 C   0  0  0  0  0  3  0  0  0  0  0  0
   35.8610   29.1720   36.6240 C   0  0  0  0  0  0  0  0  0  0  0  0
   35.0860   28.1790   35.4090 Cl  0  0  0  0  0  0  0  0  0  0  0  0
   35.4050   29.0470   37.9170 C   0  0  0  0  0  0  0  0  0  0  0  0
   34.5960   28.3800   38.2540 H   0  0  0  0  0  0  0  0  0  0  0  0
   39.3200   30.4200   40.8190 C   0  0  0  0  0  0  0  0  0  0  0  0
   40.3990   30.4220   40.5660 H   0  0  0  0  0  0  0  0  0  0  0  0
   38.8280   29.6860   40.1900 H   0  0  0  0  0  0  0  0  0  0  0  0
   39.1820   30.1630   42.2930 C   0  0  0  0  0  0  0  0  0  0  0  0
   38.3590   30.8660   42.6600 H   0  0  0  0  0  0  0  0  0  0  0  0
   40.0740   30.1500   42.8830 H   0  0  0  0  0  0  0  0  0  0  0  0
   37.7340   26.8400   41.6220 C   0  0  0  0  0  0  0  0  0  0  0  0
   36.8640   26.6740   42.7390 C   0  0  0  0  0  0  0  0  0  0  0  0
   36.8320   27.6920   43.6790 C   0  0  0  0  0  0  0  0  0  0  0  0
   37.6030   28.7750   43.5110 N   0  0  0  0  0  0  0  0  0  0  0  0
   38.4140   28.8820   42.4270 C   0  0  0  0  0  0  0  0  0  0  0  0
   38.4890   27.9490   41.5010 N   0  0  0  0  0  0  0  0  0  0  0  0
   37.8300   26.1000   40.8330 H   0  0  0  0  0  0  0  0  0  0  0  0
   36.2920   25.7670   42.7710 H   0  0  0  0  0  0  0  0  0  0  0  0
   36.1670   27.5560   44.5250 H   0  0  0  0  0  0  0  0  0  0  0  0
  1 21  1  0  0  0  0
  1  2  1  0  0  0  0
  2  7  1  0  0  0  0
  3  2  2  0  0  0  0
  3  8  1  0  0  0  0
  4  3  1  0  0  0  0
  5  6  1  0  0  0  0
  5  4  2  0  0  0  0
  6  1  2  0  0  0  0
  9  4  1  0  0  0  0
 10  5  1  0  0  0  0
 12 11  1  0  0  0  0
 13 12  1  0  0  0  0
 13  6  1  0  0  0  0
 14 13  2  0  0  0  0
 15 14  1  0  0  0  0
 16 17  2  0  0  0  0
 16 14  1  0  0  0  0
 17 19  1  0  0  0  0
 18 17  1  0  0  0  0
 19 20  1  0  0  0  0
 19 12  2  0  0  0  0
 21 24  1  0  0  0  0
 22 21  1  0  0  0  0
 23 21  1  0  0  0  0
 24 31  1  0  0  0  0
 24 25  1  0  0  0  0
 24 26  1  0  0  0  0
 27 28  1  0  0  0  0
 28 34  1  0  0  0  0
 28 29  2  0  0  0  0
 29 35  1  0  0  0  0
 30 29  1  0  0  0  0
 31 30  2  0  0  0  0
 32 27  2  0  0  0  0
 32 31  1  0  0  0  0
 33 27  1  0  0  0  0
M  END
>  <minimizedAffinity>
-5.83440304

$$$$

 OpenBabel03242511433D

 35 37  0  0  0  0  0  0  0  0999 V2000
   36.1100   30.0410   38.9410 C   0  0  0  0  0  0  0  0  0  0  0  0
   35.4460   29.4130   37.8980 C   0  0  0  0  0  0  0  0  0  0  0  0
   35.8880   29.4100   36.6050 C   0  0  0  0  0  0  0  0  0  0  0  0
   37.0610   30.0740   36.3550 C   0  0  0  0  0  0  0  0  0  0  0  0
   37.7340   30.7050   37.4040 C   0  0  0  0  0  0  0  0  0  0  0  0
   37.2770   30.7020   38.7110 C   0  0  0  0  0  0  0  0  0  0  0  0
   34.5400   28.9440   38.2880 H   0  0  0  0  0  0  0  0  0  0  0  0
   35.2020   28.8580   35.9870 H   0  0  0  0  0  0  0  0  0  0  0  0
   37.2760   29.9770   35.2770 H   0  0  0  0  0  0  0  0  0  0  0  0
   38.5990   31.1260   36.8850 H   0  0  0  0  0  0  0  0  0  0  0  0
   37.1140   33.7830   39.4480 Cl  0  0  0  0  0  0  0  0  0  0  0  0
   38.5130   32.7820   39.7730 C   0  0  0  0  0  0  0  0  0  0  0  0
   38.3430   31.4880   39.3270 C   0  0  0  0  0  0  0  0  0  0  0  0
   39.4230   30.5990   39.4930 C   0  0  0  0  0  0  0  0  0  0  0  0
   39.5190   29.5480   39.2220 H   0  0  0  0  0  0  0  0  0  0  0  0
   40.6130   30.9870   40.0800 C   0  0  0  0  0  3  0  0  0  0  0  0
   40.7570   32.2850   40.5200 C   0  0  0  0  0  0  0  0  0  0  0  0
   42.1950   32.9290   41.2810 Cl  0  0  0  0  0  0  0  0  0  0  0  0
   39.6980   33.1500   40.3520 C   0  0  0  0  0  0  0  0  0  0  0  0
   39.6760   34.2080   40.6550 H   0  0  0  0  0  0  0  0  0  0  0  0
   35.7030   30.0940   40.3670 C   0  0  0  0  0  0  0  0  0  0  0  0
   34.7090   30.5780   40.4390 H   0  0  0  0  0  0  0  0  0  0  0  0
   36.4280   30.7380   40.8560 H   0  0  0  0  0  0  0  0  0  0  0  0
   35.6020   28.7170   40.9600 C   0  0  0  0  0  0  0  0  0  0  0  0
   35.9010   27.9930   40.1260 H   0  0  0  0  0  0  0  0  0  0  0  0
   34.7070   28.4660   41.4890 H   0  0  0  0  0  0  0  0  0  0  0  0
   38.6170   29.3760   42.9750 C   0  0  0  0  0  0  0  0  0  0  0  0
   39.0790   28.0540   43.2440 C   0  0  0  0  0  0  0  0  0  0  0  0
   38.3250   27.0030   42.7470 C   0  0  0  0  0  0  0  0  0  0  0  0
   37.2130   27.2560   42.0450 N   0  0  0  0  0  0  0  0  0  0  0  0
   36.8190   28.5370   41.8170 C   0  0  0  0  0  0  0  0  0  0  0  0
   37.4910   29.5760   42.2630 N   0  0  0  0  0  0  0  0  0  0  0  0
   39.1360   30.2650   43.3210 H   0  0  0  0  0  0  0  0  0  0  0  0
   39.9820   27.9680   43.8160 H   0  0  0  0  0  0  0  0  0  0  0  0
   38.6840   26.0010   42.9580 H   0  0  0  0  0  0  0  0  0  0  0  0
  1 21  1  0  0  0  0
  2  7  1  0  0  0  0
  2  1  2  0  0  0  0
  3  2  1  0  0  0  0
  4  3  2  0  0  0  0
  4  5  1  0  0  0  0
  5  6  2  0  0  0  0
  6  1  1  0  0  0  0
  6 13  1  0  0  0  0
  8  3  1  0  0  0  0
  9  4  1  0  0  0  0
 10  5  1  0  0  0  0
 11 12  1  0  0  0  0
 12 19  1  0  0  0  0
 13 14  1  0  0  0  0
 13 12  2  0  0  0  0
 14 16  2  0  0  0  0
 15 14  1  0  0  0  0
 16 17  1  0  0  0  0
 17 18  1  0  0  0  0
 19 17  2  0  0  0  0
 19 20  1  0  0  0  0
 21 22  1  0  0  0  0
 21 23  1  0  0  0  0
 21 24  1  0  0  0  0
 24 26  1  0  0  0  0
 24 31  1  0  0  0  0
 25 24  1  0  0  0  0
 27 28  1  0  0  0  0
 27 33  1  0  0  0  0
 28 34  1  0  0  0  0
 29 35  1  0  0  0  0
 29 28  2  0  0  0  0
 30 29  1  0  0  0  0
 31 30  2  0  0  0  0
 31 32  1  0  0  0  0
 32 27  2  0  0  0  0
M  END
>  <minimizedAffinity>
-5.66559982

$$$$

 OpenBabel03242511433D

 35 37  0  0  0  0  0  0  0  0999 V2000
   36.9640   26.3210   41.9700 C   0  0  0  0  0  0  0  0  0  0  0  0
   36.8310   24.9500   42.1260 C   0  0  0  0  0  0  0  0  0  0  0  0
   36.7550   24.0680   41.0840 C   0  0  0  0  0  0  0  0  0  0  0  0
   36.8160   24.6000   39.8220 C   0  0  0  0  0  0  0  0  0  0  0  0
   36.9510   25.9810   39.6620 C   0  0  0  0  0  0  0  0  0  0  0  0
   37.0290   26.8660   40.7240 C   0  0  0  0  0  0  0  0  0  0  0  0
   36.7990   24.7180   43.1920 H   0  0  0  0  0  0  0  0  0  0  0  0
   36.6570   23.0660   41.4630 H   0  0  0  0  0  0  0  0  0  0  0  0
   36.7410   23.7650   39.1050 H   0  0  0  0  0  0  0  0  0  0  0  0
   36.9670   26.0730   38.5730 H   0  0  0  0  0  0  0  0  0  0  0  0
   34.7590   29.0580   40.3970 Cl  0  0  0  0  0  0  0  0  0  0  0  0
   36.3640   29.2160   39.7150 C   0  0  0  0  0  0  0  0  0  0  0  0
   37.1510   28.1130   39.9730 C   0  0  0  0  0  0  0  0  0  0  0  0
   38.4520   28.1060   39.4350 C   0  0  0  0  0  0  0  0  0  0  0  0
   39.2400   27.3570   39.5030 H   0  0  0  0  0  0  0  0  0  0  0  0
   38.9420   29.1540   38.6780 C   0  0  0  0  0  3  0  0  0  0  0  0
   38.1360   30.2470   38.4370 C   0  0  0  0  0  0  0  0  0  0  0  0
   38.6080   31.6490   37.5020 Cl  0  0  0  0  0  0  0  0  0  0  0  0
   36.8650   30.2460   38.9650 C   0  0  0  0  0  0  0  0  0  0  0  0
   36.1200   31.0490   38.8510 H   0  0  0  0  0  0  0  0  0  0  0  0
   37.0540   27.3470   43.0390 C   0  0  0  0  0  0  0  0  0  0  0  0
   36.3010   27.1180   43.8200 H   0  0  0  0  0  0  0  0  0  0  0  0
   36.7780   28.2860   42.5700 H   0  0  0  0  0  0  0  0  0  0  0  0
   38.4130   27.3520   43.6790 C   0  0  0  0  0  0  0  0  0  0  0  0
   38.9930   26.4930   43.1950 H   0  0  0  0  0  0  0  0  0  0  0  0
   38.4610   27.3950   44.7470 H   0  0  0  0  0  0  0  0  0  0  0  0
   39.3000   30.6220   42.2290 C   0  0  0  0  0  0  0  0  0  0  0  0
   40.6270   30.3820   41.7660 C   0  0  0  0  0  0  0  0  0  0  0  0
   41.1630   29.1240   41.9940 C   0  0  0  0  0  0  0  0  0  0  0  0
   40.4340   28.1960   42.6270 N   0  0  0  0  0  0  0  0  0  0  0  0
   39.1730   28.4780   43.0460 C   0  0  0  0  0  0  0  0  0  0  0  0
   38.6090   29.6530   42.8610 N   0  0  0  0  0  0  0  0  0  0  0  0
   38.7920   31.5730   42.0980 H   0  0  0  0  0  0  0  0  0  0  0  0
   41.1170   31.1970   41.2710 H   0  0  0  0  0  0  0  0  0  0  0  0
   42.1740   28.9520   41.6380 H   0  0  0  0  0  0  0  0  0  0  0  0
  1  2  1  0  0  0  0
  1 21  1  0  0  0  0
  2  7  1  0  0  0  0
  3  8  1  0  0  0  0
  3  2  2  0  0  0  0
  4  3  1  0  0  0  0
  5  4  2  0  0  0  0
  5  6  1  0  0  0  0
  6  1  2  0  0  0  0
  9  4  1  0  0  0  0
 10  5  1  0  0  0  0
 12 13  1  0  0  0  0
 12 11  1  0  0  0  0
 13  6  1  0  0  0  0
 14 15  1  0  0  0  0
 14 13  2  0  0  0  0
 16 14  1  0  0  0  0
 17 16  2  0  0  0  0
 17 19  1  0  0  0  0
 18 17  1  0  0  0  0
 19 12  2  0  0  0  0
 20 19  1  0  0  0  0
 21 24  1  0  0  0  0
 21 22  1  0  0  0  0
 23 21  1  0  0  0  0
 24 26  1  0  0  0  0
 25 24  1  0  0  0  0
 27 32  1  0  0  0  0
 28 29  1  0  0  0  0
 28 27  2  0  0  0  0
 29 30  2  0  0  0  0
 30 31  1  0  0  0  0
 31 24  1  0  0  0  0
 32 31  2  0  0  0  0
 33 27  1  0  0  0  0
 34 28  1  0  0  0  0
 35 29  1  0  0  0  0
M  END
>  <minimizedAffinity>
-5.4677968

$$$$

 OpenBabel03242511433D

 35 37  0  0  0  0  0  0  0  0999 V2000
   38.7430   27.9770   41.3390 C   0  0  0  0  0  0  0  0  0  0  0  0
   39.1810   27.7730   42.6390 C   0  0  0  0  0  0  0  0  0  0  0  0
   38.3570   27.4470   43.6790 C   0  0  0  0  0  0  0  0  0  0  0  0
   37.0230   27.3210   43.3900 C   0  0  0  0  0  0  0  0  0  0  0  0
   36.5780   27.5240   42.0820 C   0  0  0  0  0  0  0  0  0  0  0  0
   37.4220   27.8530   41.0350 C   0  0  0  0  0  0  0  0  0  0  0  0
   40.2640   27.9170   42.6720 H   0  0  0  0  0  0  0  0  0  0  0  0
   38.9350   27.3410   44.5810 H   0  0  0  0  0  0  0  0  0  0  0  0
   36.5030   27.0590   44.3270 H   0  0  0  0  0  0  0  0  0  0  0  0
   35.5040   27.3550   42.1890 H   0  0  0  0  0  0  0  0  0  0  0  0
   37.2800   25.9590   38.4940 Cl  0  0  0  0  0  0  0  0  0  0  0  0
   36.1310   27.2410   38.8120 C   0  0  0  0  0  0  0  0  0  0  0  0
   36.4330   27.9380   39.9640 C   0  0  0  0  0  0  0  0  0  0  0  0
   35.6020   29.0240   40.2990 C   0  0  0  0  0  0  0  0  0  0  0  0
   35.6450   29.7100   41.1440 H   0  0  0  0  0  0  0  0  0  0  0  0
   34.5210   29.3930   39.5210 C   0  0  0  0  0  3  0  0  0  0  0  0
   34.2380   28.6780   38.3760 C   0  0  0  0  0  0  0  0  0  0  0  0
   32.9100   29.0170   37.2880 Cl  0  0  0  0  0  0  0  0  0  0  0  0
   35.0560   27.6190   38.0530 C   0  0  0  0  0  0  0  0  0  0  0  0
   34.9470   26.9660   37.1720 H   0  0  0  0  0  0  0  0  0  0  0  0
   39.5640   28.3320   40.1550 C   0  0  0  0  0  0  0  0  0  0  0  0
   38.9350   28.2550   39.2460 H   0  0  0  0  0  0  0  0  0  0  0  0
   40.3370   27.5730   40.0950 H   0  0  0  0  0  0  0  0  0  0  0  0
   40.0850   29.7380   40.2510 C   0  0  0  0  0  0  0  0  0  0  0  0
   40.7840   29.8770   39.3570 H   0  0  0  0  0  0  0  0  0  0  0  0
   40.4720   30.0630   41.1940 H   0  0  0  0  0  0  0  0  0  0  0  0
   37.6710   31.5050   38.0980 C   0  0  0  0  0  0  0  0  0  0  0  0
   37.0540   32.3950   39.0260 C   0  0  0  0  0  0  0  0  0  0  0  0
   37.4740   32.3300   40.3460 C   0  0  0  0  0  0  0  0  0  0  0  0
   38.4240   31.4550   40.6980 N   0  0  0  0  0  0  0  0  0  0  0  0
   38.9800   30.6300   39.7720 C   0  0  0  0  0  0  0  0  0  0  0  0
   38.6230   30.6430   38.5050 N   0  0  0  0  0  0  0  0  0  0  0  0
   37.4120   31.4790   37.0440 H   0  0  0  0  0  0  0  0  0  0  0  0
   36.3050   33.0540   38.6340 H   0  0  0  0  0  0  0  0  0  0  0  0
   36.9980   33.0110   41.0440 H   0  0  0  0  0  0  0  0  0  0  0  0
  1  2  1  0  0  0  0
  2  7  1  0  0  0  0
  2  3  2  0  0  0  0
  3  8  1  0  0  0  0
  4  3  1  0  0  0  0
  4  9  1  0  0  0  0
  5 10  1  0  0  0  0
  5  4  2  0  0  0  0
  6  1  2  0  0  0  0
  6  5  1  0  0  0  0
 11 12  1  0  0  0  0
 12 13  1  0  0  0  0
 13 14  2  0  0  0  0
 13  6  1  0  0  0  0
 14 15  1  0  0  0  0
 16 14  1  0  0  0  0
 17 16  2  0  0  0  0
 18 17  1  0  0  0  0
 19 17  1  0  0  0  0
 19 12  2  0  0  0  0
 20 19  1  0  0  0  0
 21 24  1  0  0  0  0
 21  1  1  0  0  0  0
 22 21  1  0  0  0  0
 23 21  1  0  0  0  0
 24 26  1  0  0  0  0
 25 24  1  0  0  0  0
 27 32  2  0  0  0  0
 27 28  1  0  0  0  0
 28 29  2  0  0  0  0
 29 30  1  0  0  0  0
 29 35  1  0  0  0  0
 31 24  1  0  0  0  0
 31 30  2  0  0  0  0
 32 31  1  0  0  0  0
 33 27  1  0  0  0  0
 34 28  1  0  0  0  0
M  END
>  <minimizedAffinity>
-5.37396002

$$$$

 OpenBabel03242511433D

 35 37  0  0  0  0  0  0  0  0999 V2000
   36.9310   27.3870   41.7230 C   0  0  0  0  0  0  0  0  0  0  0  0
   37.1370   26.2800   42.5330 C   0  0  0  0  0  0  0  0  0  0  0  0
   37.1010   24.9890   42.0840 C   0  0  0  0  0  0  0  0  0  0  0  0
   36.8440   24.8100   40.7490 C   0  0  0  0  0  0  0  0  0  0  0  0
   36.6380   25.9230   39.9300 C   0  0  0  0  0  0  0  0  0  0  0  0
   36.6780   27.2270   40.3950 C   0  0  0  0  0  0  0  0  0  0  0  0
   37.3240   26.6200   43.5540 H   0  0  0  0  0  0  0  0  0  0  0  0
   37.2920   24.3150   42.9000 H   0  0  0  0  0  0  0  0  0  0  0  0
   36.8490   23.7250   40.5520 H   0  0  0  0  0  0  0  0  0  0  0  0
   36.4650   25.4500   38.9600 H   0  0  0  0  0  0  0  0  0  0  0  0
   34.2140   29.1520   39.8610 Cl  0  0  0  0  0  0  0  0  0  0  0  0
   35.4570   28.8170   38.6740 C   0  0  0  0  0  0  0  0  0  0  0  0
   36.3980   27.9240   39.1430 C   0  0  0  0  0  0  0  0  0  0  0  0
   37.4260   27.5430   38.2590 C   0  0  0  0  0  0  0  0  0  0  0  0
   38.2640   26.8630   38.4030 H   0  0  0  0  0  0  0  0  0  0  0  0
   37.5080   28.0350   36.9690 C   0  0  0  0  0  3  0  0  0  0  0  0
   36.5560   28.9280   36.5250 C   0  0  0  0  0  0  0  0  0  0  0  0
   36.5220   29.6400   34.9270 Cl  0  0  0  0  0  0  0  0  0  0  0  0
   35.5540   29.2950   37.3950 C   0  0  0  0  0  0  0  0  0  0  0  0
   34.7330   29.9960   37.1730 H   0  0  0  0  0  0  0  0  0  0  0  0
   36.9520   28.8150   42.1250 C   0  0  0  0  0  0  0  0  0  0  0  0
   36.7100   28.8880   43.2040 H   0  0  0  0  0  0  0  0  0  0  0  0
   36.1520   29.2900   41.5670 H   0  0  0  0  0  0  0  0  0  0  0  0
   38.3070   29.4260   41.9030 C   0  0  0  0  0  0  0  0  0  0  0  0
   38.9150   28.6450   41.3310 H   0  0  0  0  0  0  0  0  0  0  0  0
   38.7990   29.8690   42.7430 H   0  0  0  0  0  0  0  0  0  0  0  0
   37.0030   32.0860   39.7100 C   0  0  0  0  0  0  0  0  0  0  0  0
   37.9100   32.0260   38.6120 C   0  0  0  0  0  0  0  0  0  0  0  0
   38.9370   31.0980   38.6850 C   0  0  0  0  0  0  0  0  0  0  0  0
   39.0410   30.3060   39.7600 N   0  0  0  0  0  0  0  0  0  0  0  0
   38.1480   30.4050   40.7790 C   0  0  0  0  0  0  0  0  0  0  0  0
   37.1530   31.2670   40.7690 N   0  0  0  0  0  0  0  0  0  0  0  0
   36.1670   32.7790   39.7480 H   0  0  0  0  0  0  0  0  0  0  0  0
   37.7310   32.7070   37.8030 H   0  0  0  0  0  0  0  0  0  0  0  0
   39.6220   31.0600   37.8440 H   0  0  0  0  0  0  0  0  0  0  0  0
  1 21  1  0  0  0  0
  1  2  1  0  0  0  0
  2  7  1  0  0  0  0
  3  2  2  0  0  0  0
  3  8  1  0  0  0  0
  4  3  1  0  0  0  0
  5  6  1  0  0  0  0
  5  4  2  0  0  0  0
  6  1  2  0  0  0  0
  9  4  1  0  0  0  0
 10  5  1  0  0  0  0
 12 13  1  0  0  0  0
 12 11  1  0  0  0  0
 13  6  1  0  0  0  0
 14 15  1  0  0  0  0
 14 13  2  0  0  0  0
 16 14  1  0  0  0  0
 17 16  2  0  0  0  0
 17 19  1  0  0  0  0
 18 17  1  0  0  0  0
 19 12  2  0  0  0  0
 20 19  1  0  0  0  0
 21 22  1  0  0  0  0
 23 21  1  0  0  0  0
 24 21  1  0  0  0  0
 24 26  1  0  0  0  0
 25 24  1  0  0  0  0
 27 33  1  0  0  0  0
 27 32  1  0  0  0  0
 28 29  1  0  0  0  0
 28 27  2  0  0  0  0
 29 30  2  0  0  0  0
 30 31  1  0  0  0  0
 31 24  1  0  0  0  0
 32 31  2  0  0  0  0
 34 28  1  0  0  0  0
 35 29  1  0  0  0  0
M  END
>  <minimizedAffinity>
-5.34492159

$$$$

 OpenBabel03242511433D

 35 37  0  0  0  0  0  0  0  0999 V2000
   34.8810   28.4360   36.8540 C   0  0  0  0  0  0  0  0  0  0  0  0
   35.0760   27.4320   35.9180 C   0  0  0  0  0  0  0  0  0  0  0  0
   36.3060   26.9850   35.5240 C   0  0  0  0  0  0  0  0  0  0  0  0
   37.3930   27.5850   36.1060 C   0  0  0  0  0  0  0  0  0  0  0  0
   37.2000   28.5950   37.0510 C   0  0  0  0  0  0  0  0  0  0  0  0
   35.9490   29.0390   37.4440 C   0  0  0  0  0  0  0  0  0  0  0  0
   34.1020   27.0820   35.5680 H   0  0  0  0  0  0  0  0  0  0  0  0
   36.1920   26.2050   34.7920 H   0  0  0  0  0  0  0  0  0  0  0  0
   38.2980   27.1160   35.6840 H   0  0  0  0  0  0  0  0  0  0  0  0
   38.2310   28.8510   37.3100 H   0  0  0  0  0  0  0  0  0  0  0  0
   35.1700   29.1080   40.5190 Cl  0  0  0  0  0  0  0  0  0  0  0  0
   36.2040   30.2970   39.7540 C   0  0  0  0  0  0  0  0  0  0  0  0
   36.3610   30.0600   38.4040 C   0  0  0  0  0  0  0  0  0  0  0  0
   37.1370   30.9780   37.6720 C   0  0  0  0  0  0  0  0  0  0  0  0
   37.3950   30.9980   36.6140 H   0  0  0  0  0  0  0  0  0  0  0  0
   37.7290   32.0780   38.2630 C   0  0  0  0  0  3  0  0  0  0  0  0
   37.5600   32.2920   39.6150 C   0  0  0  0  0  0  0  0  0  0  0  0
   38.2420   33.6330   40.5090 Cl  0  0  0  0  0  0  0  0  0  0  0  0
   36.7980   31.3910   40.3240 C   0  0  0  0  0  0  0  0  0  0  0  0
   36.5810   31.4390   41.4030 H   0  0  0  0  0  0  0  0  0  0  0  0
   33.5870   28.9800   37.3380 C   0  0  0  0  0  0  0  0  0  0  0  0
   33.7340   30.0330   37.6490 H   0  0  0  0  0  0  0  0  0  0  0  0
   33.3360   28.3990   38.2200 H   0  0  0  0  0  0  0  0  0  0  0  0
   32.5420   28.9480   36.2590 C   0  0  0  0  0  0  0  0  0  0  0  0
   31.8920   28.0330   36.4770 H   0  0  0  0  0  0  0  0  0  0  0  0
   32.8680   29.0500   35.2450 H   0  0  0  0  0  0  0  0  0  0  0  0
   30.4230   31.9630   36.2050 C   0  0  0  0  0  0  0  0  0  0  0  0
   29.7720   31.8810   37.4710 C   0  0  0  0  0  0  0  0  0  0  0  0
   30.0690   30.7880   38.2700 C   0  0  0  0  0  0  0  0  0  0  0  0
   30.9380   29.8660   37.8370 N   0  0  0  0  0  0  0  0  0  0  0  0
   31.5310   29.9940   36.6210 C   0  0  0  0  0  0  0  0  0  0  0  0
   31.2890   31.0070   35.8170 N   0  0  0  0  0  0  0  0  0  0  0  0
   30.2570   32.7790   35.5080 H   0  0  0  0  0  0  0  0  0  0  0  0
   29.0950   32.6760   37.7150 H   0  0  0  0  0  0  0  0  0  0  0  0
   29.5680   30.7340   39.2310 H   0  0  0  0  0  0  0  0  0  0  0  0
  1 21  1  0  0  0  0
  1  6  1  0  0  0  0
  2  1  2  0  0  0  0
  3  2  1  0  0  0  0
  3  4  2  0  0  0  0
  4  5  1  0  0  0  0
  5 10  1  0  0  0  0
  5  6  2  0  0  0  0
  6 13  1  0  0  0  0
  7  2  1  0  0  0  0
  8  3  1  0  0  0  0
  9  4  1  0  0  0  0
 12 19  1  0  0  0  0
 12 11  1  0  0  0  0
 13 12  2  0  0  0  0
 14 16  2  0  0  0  0
 14 13  1  0  0  0  0
 15 14  1  0  0  0  0
 16 17  1  0  0  0  0
 17 19  2  0  0  0  0
 17 18  1  0  0  0  0
 19 20  1  0  0  0  0
 21 22  1  0  0  0  0
 21 23  1  0  0  0  0
 24 25  1  0  0  0  0
 24 31  1  0  0  0  0
 24 21  1  0  0  0  0
 26 24  1  0  0  0  0
 27 28  1  0  0  0  0
 28 34  1  0  0  0  0
 28 29  2  0  0  0  0
 29 35  1  0  0  0  0
 30 29  1  0  0  0  0
 31 30  2  0  0  0  0
 32 27  2  0  0  0  0
 32 31  1  0  0  0  0
 33 27  1  0  0  0  0
M  END
>  <minimizedAffinity>
-5.30005121

$$$$

 OpenBabel03242511433D

 35 37  0  0  0  0  0  0  0  0999 V2000
   36.2150   29.6130   40.1490 C   0  0  0  0  0  0  0  0  0  0  0  0
   35.0140   28.9640   39.9050 C   0  0  0  0  0  0  0  0  0  0  0  0
   34.4770   28.7990   38.6590 C   0  0  0  0  0  0  0  0  0  0  0  0
   35.1910   29.3150   37.6090 C   0  0  0  0  0  0  0  0  0  0  0  0
   36.4020   29.9670   37.8510 C   0  0  0  0  0  0  0  0  0  0  0  0
   36.9380   30.1290   39.1180 C   0  0  0  0  0  0  0  0  0  0  0  0
   34.5960   28.6270   40.8560 H   0  0  0  0  0  0  0  0  0  0  0  0
   33.5460   28.2660   38.7330 H   0  0  0  0  0  0  0  0  0  0  0  0
   34.6270   29.1000   36.6850 H   0  0  0  0  0  0  0  0  0  0  0  0
   36.7040   30.2490   36.8390 H   0  0  0  0  0  0  0  0  0  0  0  0
   37.4480   33.2250   39.5860 Cl  0  0  0  0  0  0  0  0  0  0  0  0
   38.6330   32.1420   38.8850 C   0  0  0  0  0  0  0  0  0  0  0  0
   38.1530   30.8550   38.7600 C   0  0  0  0  0  0  0  0  0  0  0  0
   39.0030   29.9030   38.1660 C   0  0  0  0  0  0  0  0  0  0  0  0
   38.8450   28.8440   37.9640 H   0  0  0  0  0  0  0  0  0  0  0  0
   40.2730   30.2230   37.7220 C   0  0  0  0  0  3  0  0  0  0  0  0
   40.7300   31.5170   37.8600 C   0  0  0  0  0  0  0  0  0  0  0  0
   42.3070   32.0800   37.3510 Cl  0  0  0  0  0  0  0  0  0  0  0  0
   39.8930   32.4430   38.4400 C   0  0  0  0  0  0  0  0  0  0  0  0
   40.1280   33.5050   38.6130 H   0  0  0  0  0  0  0  0  0  0  0  0
   36.8690   29.8370   41.4630 C   0  0  0  0  0  0  0  0  0  0  0  0
   36.3570   30.6710   41.9820 H   0  0  0  0  0  0  0  0  0  0  0  0
   37.8830   30.1510   41.2370 H   0  0  0  0  0  0  0  0  0  0  0  0
   36.7810   28.6150   42.3330 C   0  0  0  0  0  0  0  0  0  0  0  0
   36.5480   27.7430   41.6300 H   0  0  0  0  0  0  0  0  0  0  0  0
   36.1750   28.6720   43.2130 H   0  0  0  0  0  0  0  0  0  0  0  0
   39.7260   26.8540   43.6800 C   0  0  0  0  0  0  0  0  0  0  0  0
   40.7860   27.7240   43.2890 C   0  0  0  0  0  0  0  0  0  0  0  0
   40.4460   28.8550   42.5630 C   0  0  0  0  0  0  0  0  0  0  0  0
   39.1630   29.0900   42.2600 N   0  0  0  0  0  0  0  0  0  0  0  0
   38.1920   28.2270   42.6590 C   0  0  0  0  0  0  0  0  0  0  0  0
   38.4510   27.1360   43.3490 N   0  0  0  0  0  0  0  0  0  0  0  0
   39.8890   25.9440   44.2490 H   0  0  0  0  0  0  0  0  0  0  0  0
   41.7760   27.4380   43.5860 H   0  0  0  0  0  0  0  0  0  0  0  0
   41.2600   29.5100   42.2690 H   0  0  0  0  0  0  0  0  0  0  0  0
  1 21  1  0  0  0  0
  2  1  1  0  0  0  0
  2  7  1  0  0  0  0
  3  8  1  0  0  0  0
  3  2  2  0  0  0  0
  4  5  2  0  0  0  0
  4  3  1  0  0  0  0
  5  6  1  0  0  0  0
  6  1  2  0  0  0  0
  9  4  1  0  0  0  0
 10  5  1  0  0  0  0
 12 11  1  0  0  0  0
 13 12  1  0  0  0  0
 13  6  1  0  0  0  0
 14 13  2  0  0  0  0
 15 14  1  0  0  0  0
 16 17  2  0  0  0  0
 16 14  1  0  0  0  0
 17 19  1  0  0  0  0
 18 17  1  0  0  0  0
 19 20  1  0  0  0  0
 19 12  2  0  0  0  0
 21 22  1  0  0  0  0
 21 24  1  0  0  0  0
 23 21  1  0  0  0  0
 24 31  1  0  0  0  0
 24 26  1  0  0  0  0
 25 24  1  0  0  0  0
 27 33  1  0  0  0  0
 28 34  1  0  0  0  0
 28 27  2  0  0  0  0
 29 28  1  0  0  0  0
 30 29  2  0  0  0  0
 30 31  1  0  0  0  0
 31 32  2  0  0  0  0
 32 27  1  0  0  0  0
 35 29  1  0  0  0  0
M  END
>  <minimizedAffinity>
-5.27084541

$$$$

 OpenBabel03242511433D

 35 37  0  0  0  0  0  0  0  0999 V2000
   36.9450   27.1840   41.8660 C   0  0  0  0  0  0  0  0  0  0  0  0
   36.9230   26.0370   42.6450 C   0  0  0  0  0  0  0  0  0  0  0  0
   37.0000   24.7690   42.1390 C   0  0  0  0  0  0  0  0  0  0  0  0
   37.1050   24.6570   40.7770 C   0  0  0  0  0  0  0  0  0  0  0  0
   37.1300   25.8100   39.9890 C   0  0  0  0  0  0  0  0  0  0  0  0
   37.0520   27.0900   40.5120 C   0  0  0  0  0  0  0  0  0  0  0  0
   36.8340   26.3260   43.6950 H   0  0  0  0  0  0  0  0  0  0  0  0
   36.9630   24.0550   42.9430 H   0  0  0  0  0  0  0  0  0  0  0  0
   37.1560   23.5820   40.5350 H   0  0  0  0  0  0  0  0  0  0  0  0
   37.2170   25.3860   38.9860 H   0  0  0  0  0  0  0  0  0  0  0  0
   39.6850   28.3080   39.2270 Cl  0  0  0  0  0  0  0  0  0  0  0  0
   38.1000   28.4340   38.4920 C   0  0  0  0  0  0  0  0  0  0  0  0
   37.1190   27.8500   39.2670 C   0  0  0  0  0  0  0  0  0  0  0  0
   35.7930   27.9270   38.7990 C   0  0  0  0  0  0  0  0  0  0  0  0
   34.8690   27.5480   39.2320 H   0  0  0  0  0  0  0  0  0  0  0  0
   35.4670   28.5570   37.6120 C   0  0  0  0  0  3  0  0  0  0  0  0
   36.4660   29.1300   36.8550 C   0  0  0  0  0  0  0  0  0  0  0  0
   36.2170   29.9600   35.3340 Cl  0  0  0  0  0  0  0  0  0  0  0  0
   37.7600   29.0520   37.3190 C   0  0  0  0  0  0  0  0  0  0  0  0
   38.6500   29.4640   36.8190 H   0  0  0  0  0  0  0  0  0  0  0  0
   36.8670   28.5910   42.3300 C   0  0  0  0  0  0  0  0  0  0  0  0
   36.3220   28.6220   43.2940 H   0  0  0  0  0  0  0  0  0  0  0  0
   36.2700   29.1120   41.5890 H   0  0  0  0  0  0  0  0  0  0  0  0
   38.2360   29.1750   42.5410 C   0  0  0  0  0  0  0  0  0  0  0  0
   38.9460   28.5550   41.8940 H   0  0  0  0  0  0  0  0  0  0  0  0
   38.5570   29.3410   43.5480 H   0  0  0  0  0  0  0  0  0  0  0  0
   39.3660   32.3290   41.0060 C   0  0  0  0  0  0  0  0  0  0  0  0
   38.1870   32.7590   40.3290 C   0  0  0  0  0  0  0  0  0  0  0  0
   37.0720   31.9390   40.4080 C   0  0  0  0  0  0  0  0  0  0  0  0
   37.1370   30.7960   41.1030 N   0  0  0  0  0  0  0  0  0  0  0  0
   38.2860   30.4350   41.7300 C   0  0  0  0  0  0  0  0  0  0  0  0
   39.3780   31.1690   41.6910 N   0  0  0  0  0  0  0  0  0  0  0  0
   40.2890   32.9000   41.0040 H   0  0  0  0  0  0  0  0  0  0  0  0
   38.2490   33.6920   39.8030 H   0  0  0  0  0  0  0  0  0  0  0  0
   36.1800   32.2750   39.8890 H   0  0  0  0  0  0  0  0  0  0  0  0
  1 21  1  0  0  0  0
  1  2  1  0  0  0  0
  2  7  1  0  0  0  0
  3  2  2  0  0  0  0
  3  8  1  0  0  0  0
  4  3  1  0  0  0  0
  5  6  1  0  0  0  0
  5  4  2  0  0  0  0
  6  1  2  0  0  0  0
  9  4  1  0  0  0  0
 10  5  1  0  0  0  0
 12 11  1  0  0  0  0
 12 13  1  0  0  0  0
 13  6  1  0  0  0  0
 14 15  1  0  0  0  0
 14 13  2  0  0  0  0
 16 14  1  0  0  0  0
 17 19  1  0  0  0  0
 17 16  2  0  0  0  0
 18 17  1  0  0  0  0
 19 12  2  0  0  0  0
 20 19  1  0  0  0  0
 21 24  1  0  0  0  0
 21 22  1  0  0  0  0
 23 21  1  0  0  0  0
 24 26  1  0  0  0  0
 25 24  1  0  0  0  0
 27 32  1  0  0  0  0
 28 29  1  0  0  0  0
 28 27  2  0  0  0  0
 29 30  2  0  0  0  0
 30 31  1  0  0  0  0
 31 24  1  0  0  0  0
 32 31  2  0  0  0  0
 33 27  1  0  0  0  0
 34 28  1  0  0  0  0
 35 29  1  0  0  0  0
M  END
>  <minimizedAffinity>
-5.26223087

$$$$

 OpenBabel03242511433D

 35 37  0  0  0  0  0  0  0  0999 V2000
   35.7640   28.9760   38.0390 C   0  0  0  0  0  0  0  0  0  0  0  0
   35.1090   28.4830   36.9210 C   0  0  0  0  0  0  0  0  0  0  0  0
   35.3750   28.8850   35.6420 C   0  0  0  0  0  0  0  0  0  0  0  0
   36.3520   29.8330   35.4870 C   0  0  0  0  0  0  0  0  0  0  0  0
   37.0160   30.3310   36.6100 C   0  0  0  0  0  0  0  0  0  0  0  0
   36.7400   29.9160   37.9020 C   0  0  0  0  0  0  0  0  0  0  0  0
   34.3710   27.7450   37.2420 H   0  0  0  0  0  0  0  0  0  0  0  0
   34.7370   28.3560   34.9550 H   0  0  0  0  0  0  0  0  0  0  0  0
   36.4420   30.0450   34.4080 H   0  0  0  0  0  0  0  0  0  0  0  0
   37.7080   31.0440   36.1560 H   0  0  0  0  0  0  0  0  0  0  0  0
   39.6020   28.9920   38.9110 Cl  0  0  0  0  0  0  0  0  0  0  0  0
   38.9800   30.6160   39.1170 C   0  0  0  0  0  0  0  0  0  0  0  0
   37.7000   30.7500   38.6200 C   0  0  0  0  0  0  0  0  0  0  0  0
   37.0760   32.0040   38.7690 C   0  0  0  0  0  0  0  0  0  0  0  0
   36.0870   32.3400   38.4620 H   0  0  0  0  0  0  0  0  0  0  0  0
   37.7050   33.0710   39.3830 C   0  0  0  0  0  3  0  0  0  0  0  0
   38.9850   32.9110   39.8700 C   0  0  0  0  0  0  0  0  0  0  0  0
   39.9130   34.1610   40.6700 Cl  0  0  0  0  0  0  0  0  0  0  0  0
   39.5880   31.6820   39.7220 C   0  0  0  0  0  0  0  0  0  0  0  0
   40.6020   31.4170   40.0620 H   0  0  0  0  0  0  0  0  0  0  0  0
   35.5410   28.5980   39.4570 C   0  0  0  0  0  0  0  0  0  0  0  0
   34.4580   28.4230   39.6150 H   0  0  0  0  0  0  0  0  0  0  0  0
   35.8320   29.4640   40.0420 H   0  0  0  0  0  0  0  0  0  0  0  0
   36.2790   27.3370   39.8100 C   0  0  0  0  0  0  0  0  0  0  0  0
   37.2040   27.3160   39.1380 H   0  0  0  0  0  0  0  0  0  0  0  0
   35.7190   26.4270   39.8520 H   0  0  0  0  0  0  0  0  0  0  0  0
   38.1210   26.9100   42.9730 C   0  0  0  0  0  0  0  0  0  0  0  0
   38.1120   28.2380   43.4940 C   0  0  0  0  0  0  0  0  0  0  0  0
   37.5010   29.2180   42.7270 C   0  0  0  0  0  0  0  0  0  0  0  0
   36.9500   28.8940   41.5510 N   0  0  0  0  0  0  0  0  0  0  0  0
   36.9860   27.6120   41.1030 C   0  0  0  0  0  0  0  0  0  0  0  0
   37.5520   26.6380   41.7830 N   0  0  0  0  0  0  0  0  0  0  0  0
   38.5740   26.0740   43.4970 H   0  0  0  0  0  0  0  0  0  0  0  0
   38.5830   28.3830   44.4470 H   0  0  0  0  0  0  0  0  0  0  0  0
   37.5000   30.2250   43.1320 H   0  0  0  0  0  0  0  0  0  0  0  0
  1 21  1  0  0  0  0
  2  7  1  0  0  0  0
  2  1  2  0  0  0  0
  3  2  1  0  0  0  0
  4  3  2  0  0  0  0
  4  5  1  0  0  0  0
  5  6  2  0  0  0  0
  6  1  1  0  0  0  0
  6 13  1  0  0  0  0
  8  3  1  0  0  0  0
  9  4  1  0  0  0  0
 10  5  1  0  0  0  0
 11 12  1  0  0  0  0
 12 19  1  0  0  0  0
 13 14  1  0  0  0  0
 13 12  2  0  0  0  0
 14 16  2  0  0  0  0
 15 14  1  0  0  0  0
 16 17  1  0  0  0  0
 17 18  1  0  0  0  0
 19 17  2  0  0  0  0
 19 20  1  0  0  0  0
 21 22  1  0  0  0  0
 21 24  1  0  0  0  0
 21 23  1  0  0  0  0
 24 26  1  0  0  0  0
 24 31  1  0  0  0  0
 25 24  1  0  0  0  0
 27 28  1  0  0  0  0
 27 33  1  0  0  0  0
 28 34  1  0  0  0  0
 29 35  1  0  0  0  0
 29 28  2  0  0  0  0
 30 29  1  0  0  0  0
 31 30  2  0  0  0  0
 31 32  1  0  0  0  0
 32 27  2  0  0  0  0
M  END
>  <minimizedAffinity>
-5.2559495

$$$$
