
 OpenBabel03252501423D

 46 49  0  0  0  0  0  0  0  0999 V2000
   44.1790   34.5710   40.8670 C   0  0  0  0  0  0  0  0  0  0  0  0
   44.3720   33.3750   41.3030 O   0  0  0  0  0  0  0  0  0  0  0  0
   44.8060   35.5510   41.6900 N   0  0  0  0  0  0  0  0  0  0  0  0
   44.7960   36.5450   41.4940 H   0  0  0  0  0  0  0  0  0  0  0  0
   45.4390   34.9000   42.8160 C   0  0  0  0  0  0  0  0  0  0  0  0
   44.9990   34.9080   44.1020 C   0  0  0  0  0  0  0  0  0  0  0  0
   45.7400   34.2280   45.0330 C   0  0  0  0  0  0  0  0  0  0  0  0
   46.8660   33.5950   44.5890 N   0  0  0  0  0  0  0  0  0  0  0  0
   47.2750   33.6040   43.3140 C   0  0  0  0  0  0  0  0  0  0  0  0
   46.5510   34.2720   42.3880 N   0  0  0  0  0  0  0  0  0  0  0  0
   45.4140   34.2190   46.0560 H   0  0  0  0  0  0  0  0  0  0  0  0
   49.6560   35.3000   42.4460 Cl  0  0  0  0  0  0  0  0  0  0  0  0
   49.6420   33.5530   42.5650 C   0  0  0  0  0  0  0  0  0  0  0  0
   48.5090   32.8800   42.9700 C   0  0  0  0  0  0  0  0  0  0  0  0
   48.4640   31.5040   43.0740 C   0  0  0  0  0  0  0  0  0  0  0  0
   47.5790   30.9480   43.3910 H   0  0  0  0  0  0  0  0  0  0  0  0
   49.6070   30.7660   42.7590 C   0  0  0  0  0  0  0  0  0  0  0  0
   50.7650   31.4140   42.3480 C   0  0  0  0  0  0  0  0  0  0  0  0
   52.1880   30.5040   41.9540 Cl  0  0  0  0  0  0  0  0  0  0  0  0
   50.7590   32.8040   42.2590 C   0  0  0  0  0  0  0  0  0  0  0  0
   51.6340   33.3620   41.9440 H   0  0  0  0  0  0  0  0  0  0  0  0
   43.8160   35.6150   44.3770 N   0  0  0  0  0  0  0  0  0  0  0  0
   43.0010   35.0820   44.7830 H   0  0  0  0  0  0  0  0  0  0  0  0
   43.7870   36.6480   44.1660 H   0  0  0  0  0  0  0  0  0  0  0  0
   43.4550   34.9520   39.7330 O   0  0  0  0  0  0  0  0  0  0  0  0
   42.5970   32.3520   38.5720 Cl  0  0  0  0  0  0  0  0  0  0  0  0
   41.5610   33.6020   39.2430 C   0  0  0  0  0  0  0  0  0  0  0  0
   42.0580   34.7920   39.7670 C   0  0  0  0  0  0  0  0  0  0  0  0
   41.2120   35.7300   40.2760 C   0  0  0  0  0  0  0  0  0  0  0  0
   39.8400   35.5690   40.3070 C   0  0  0  0  0  0  0  0  0  0  0  0
   39.3080   34.3750   39.7850 C   0  0  0  0  0  0  0  0  0  0  0  0
   37.5790   34.0780   39.7790 Cl  0  0  0  0  0  0  0  0  0  0  0  0
   40.1960   33.4520   39.2790 C   0  0  0  0  0  0  0  0  0  0  0  0
   41.6570   36.6290   40.6670 H   0  0  0  0  0  0  0  0  0  0  0  0
   39.1690   36.3130   40.7110 H   0  0  0  0  0  0  0  0  0  0  0  0
   39.8980   31.2730   40.8930 F   0  0  0  0  0  0  0  0  0  0  0  0
   39.5210   31.1150   39.5790 C   0  0  0  0  0  0  0  0  0  0  0  0
   39.6600   32.2050   38.7320 C   0  0  0  0  0  0  0  0  0  0  0  0
   39.2660   32.0040   37.4060 C   0  0  0  0  0  0  0  0  0  0  0  0
   38.7730   30.7600   37.0280 C   0  0  0  0  0  0  0  0  0  0  0  0
   38.6600   29.7060   37.9310 C   0  0  0  0  0  0  0  0  0  0  0  0
   39.0430   29.8710   39.2610 C   0  0  0  0  0  0  0  0  0  0  0  0
   39.3750   32.8460   36.7540 H   0  0  0  0  0  0  0  0  0  0  0  0
   38.4930   30.6910   35.9880 H   0  0  0  0  0  0  0  0  0  0  0  0
   38.2680   28.7560   37.5820 H   0  0  0  0  0  0  0  0  0  0  0  0
   38.9690   29.0860   39.9780 H   0  0  0  0  0  0  0  0  0  0  0  0
  1  2  2  0  0  0  0
  1  3  1  0  0  0  0
  3  5  1  0  0  0  0
  4  3  1  0  0  0  0
  5  6  1  0  0  0  0
  6 22  1  0  0  0  0
  6  7  2  0  0  0  0
  7 11  1  0  0  0  0
  8  7  1  0  0  0  0
  9  8  2  0  0  0  0
 10  5  2  0  0  0  0
 10  9  1  0  0  0  0
 12 13  1  0  0  0  0
 13 14  1  0  0  0  0
 14 15  2  0  0  0  0
 14  9  1  0  0  0  0
 15 16  1  0  0  0  0
 17 15  1  0  0  0  0
 18 17  2  0  0  0  0
 19 18  1  0  0  0  0
 20 18  1  0  0  0  0
 20 13  2  0  0  0  0
 21 20  1  0  0  0  0
 22 23  1  0  0  0  0
 24 22  1  0  0  0  0
 25 28  1  0  0  0  0
 25  1  1  0  0  0  0
 26 27  1  0  0  0  0
 27 33  2  0  0  0  0
 27 28  1  0  0  0  0
 28 29  2  0  0  0  0
 29 30  1  0  0  0  0
 29 34  1  0  0  0  0
 30 35  1  0  0  0  0
 31 30  2  0  0  0  0
 32 31  1  0  0  0  0
 33 31  1  0  0  0  0
 37 36  1  0  0  0  0
 38 33  1  0  0  0  0
 38 37  2  0  0  0  0
 39 38  1  0  0  0  0
 40 39  2  0  0  0  0
 40 41  1  0  0  0  0
 41 42  2  0  0  0  0
 42 37  1  0  0  0  0
 42 46  1  0  0  0  0
 43 39  1  0  0  0  0
 44 40  1  0  0  0  0
 45 41  1  0  0  0  0
M  END
>  <minimizedAffinity>
-7.06659603

>  <minimizedRMSD>
1.41932285

$$$$
