
 OpenBabel03252502493D

 46 49  0  0  1  0  0  0  0  0999 V2000
   38.9920   29.8320   42.9010 C   0  0  0  0  0  0  0  0  0  0  0  0
   37.9990   30.3350   42.9150 H   0  0  0  0  0  0  0  0  0  0  0  0
   39.5490   30.3080   43.7470 H   0  0  0  0  0  0  0  0  0  0  0  0
   38.8270   28.3570   43.0770 C   0  0  1  0  0  0  0  0  0  0  0  0
   37.5450   27.8590   43.6790 C   0  0  0  0  0  0  0  0  0  0  0  0
   37.8550   27.6810   42.2310 C   0  0  2  0  0  0  0  0  0  0  0  0
   39.7180   27.8570   43.4430 H   0  0  0  0  0  0  0  0  0  0  0  0
   37.5330   27.0120   44.3890 H   0  0  0  0  0  0  0  0  0  0  0  0
   36.8080   28.6520   43.9820 H   0  0  0  0  0  0  0  0  0  0  0  0
   37.1480   28.1650   41.5610 H   0  0  0  0  0  0  0  0  0  0  0  0
   38.2280   26.3130   41.8950 N   0  0  0  0  0  0  0  0  0  0  0  0
   37.2160   25.3570   42.1390 C   0  0  0  0  0  0  0  0  0  0  0  0
   37.7990   24.0160   41.7320 C   0  0  0  0  0  0  0  0  0  0  0  0
   38.9310   23.6700   42.5190 N   0  0  0  0  0  0  0  0  0  0  0  0
   39.6560   24.8040   43.0610 C   0  0  0  0  0  0  0  0  0  0  0  0
   39.5710   25.9670   42.0740 C   0  0  0  0  0  0  0  0  0  0  0  0
   36.2900   25.5690   41.6090 H   0  0  0  0  0  0  0  0  0  0  0  0
   37.0240   25.2970   43.2280 H   0  0  0  0  0  0  0  0  0  0  0  0
   37.9660   24.0490   40.6370 H   0  0  0  0  0  0  0  0  0  0  0  0
   36.9800   23.2800   41.8970 H   0  0  0  0  0  0  0  0  0  0  0  0
   39.5580   23.0160   41.9960 H   0  0  0  0  0  0  0  0  0  0  0  0
   40.7300   24.4680   43.1110 H   0  0  0  0  0  0  0  0  0  0  0  0
   39.2320   25.0700   44.0310 H   0  0  0  0  0  0  0  0  0  0  0  0
   40.2230   26.7910   42.3510 H   0  0  0  0  0  0  0  0  0  0  0  0
   39.9570   25.5300   41.1090 H   0  0  0  0  0  0  0  0  0  0  0  0
   39.6620   30.0450   41.5780 C   0  0  0  0  0  0  0  0  0  0  0  0
   40.1660   29.2020   41.1310 H   0  0  0  0  0  0  0  0  0  0  0  0
   40.4780   30.8070   41.7500 H   0  0  0  0  0  0  0  0  0  0  0  0
   37.6530   32.7680   39.9580 C   0  0  0  0  0  0  0  0  0  0  0  0
   38.5650   32.1160   40.8280 C   0  0  0  0  0  0  0  0  0  0  0  0
   38.7090   30.7670   40.6730 C   0  0  0  0  0  0  0  0  0  0  0  0
   37.9950   30.1190   39.7180 N   0  0  0  0  0  0  0  0  0  0  0  0
   37.1530   30.7360   38.9190 C   0  0  0  0  0  0  0  0  0  0  0  0
   36.9740   32.0650   39.0310 N   0  0  0  0  0  0  0  0  0  0  0  0
   37.5360   33.8220   40.0760 H   0  0  0  0  0  0  0  0  0  0  0  0
   39.1290   32.6280   41.5830 H   0  0  0  0  0  0  0  0  0  0  0  0
   34.6820   29.2210   39.8410 Cl  0  0  0  0  0  0  0  0  0  0  0  0
   35.2520   29.3100   38.1960 C   0  0  0  0  0  0  0  0  0  0  0  0
   36.3900   30.0300   37.8950 C   0  0  0  0  0  0  0  0  0  0  0  0
   36.7610   30.0420   36.5660 C   0  0  0  0  0  0  0  0  0  0  0  0
   37.6530   30.5950   36.2660 H   0  0  0  0  0  0  0  0  0  0  0  0
   36.0800   29.3930   35.5510 C   0  0  0  0  0  3  0  0  0  0  0  0
   34.9520   28.6940   35.9250 C   0  0  0  0  0  0  0  0  0  0  0  0
   34.0930   27.8730   34.6220 Cl  0  0  0  0  0  0  0  0  0  0  0  0
   34.5040   28.6290   37.2480 C   0  0  0  0  0  0  0  0  0  0  0  0
   33.6220   28.0620   37.4340 H   0  0  0  0  0  0  0  0  0  0  0  0
  1  2  1  0  0  0  0
  1  4  1  0  0  0  0
  1  3  1  0  0  0  0
  4  7  1  1  0  0  0
  4  5  1  0  0  0  0
  5  9  1  0  0  0  0
  5  8  1  0  0  0  0
  6 10  1  6  0  0  0
  6  4  1  0  0  0  0
  6  5  1  0  0  0  0
 11 16  1  0  0  0  0
 11 12  1  0  0  0  0
 11  6  1  0  0  0  0
 12 18  1  0  0  0  0
 13 20  1  0  0  0  0
 13 12  1  0  0  0  0
 13 14  1  0  0  0  0
 14 15  1  0  0  0  0
 15 22  1  0  0  0  0
 15 23  1  0  0  0  0
 16 24  1  0  0  0  0
 16 15  1  0  0  0  0
 17 12  1  0  0  0  0
 19 13  1  0  0  0  0
 21 14  1  0  0  0  0
 25 16  1  0  0  0  0
 26 28  1  0  0  0  0
 26  1  1  0  0  0  0
 27 26  1  0  0  0  0
 29 35  1  0  0  0  0
 29 30  1  0  0  0  0
 30 36  1  0  0  0  0
 31 30  2  0  0  0  0
 31 26  1  0  0  0  0
 32 31  1  0  0  0  0
 33 34  1  0  0  0  0
 33 32  2  0  0  0  0
 34 29  2  0  0  0  0
 38 37  1  0  0  0  0
 39 38  1  0  0  0  0
 39 33  1  0  0  0  0
 40 39  2  0  0  0  0
 41 40  1  0  0  0  0
 42 43  2  0  0  0  0
 42 40  1  0  0  0  0
 43 45  1  0  0  0  0
 44 43  1  0  0  0  0
 45 46  1  0  0  0  0
 45 38  2  0  0  0  0
M  END
>  <minimizedAffinity>
-5.98402548

$$$$

 OpenBabel03252502493D

 46 49  0  0  1  0  0  0  0  0999 V2000
   39.2880   28.7610   42.9420 C   0  0  0  0  0  0  0  0  0  0  0  0
   39.7960   28.1400   42.1710 H   0  0  0  0  0  0  0  0  0  0  0  0
   39.9370   28.6530   43.8470 H   0  0  0  0  0  0  0  0  0  0  0  0
   39.1770   30.1760   42.4760 C   0  0  1  0  0  0  0  0  0  0  0  0
   40.4040   31.0370   42.5410 C   0  0  0  0  0  0  0  0  0  0  0  0
   39.8620   30.5370   41.2450 C   0  0  2  0  0  0  0  0  0  0  0  0
   38.2640   30.6710   42.7930 H   0  0  0  0  0  0  0  0  0  0  0  0
   40.3470   32.1010   42.8350 H   0  0  0  0  0  0  0  0  0  0  0  0
   41.3210   30.5480   42.9700 H   0  0  0  0  0  0  0  0  0  0  0  0
   40.5500   29.9040   40.6890 H   0  0  0  0  0  0  0  0  0  0  0  0
   39.1780   31.5720   40.4790 N   0  0  0  0  0  0  0  0  0  0  0  0
   39.0640   32.8120   41.1490 C   0  0  0  0  0  0  0  0  0  0  0  0
   38.3290   33.7360   40.1960 C   0  0  0  0  0  0  0  0  0  0  0  0
   37.0190   33.2680   39.9080 N   0  0  0  0  0  0  0  0  0  0  0  0
   36.8540   31.8310   40.0240 C   0  0  0  0  0  0  0  0  0  0  0  0
   38.1600   31.1480   39.6210 C   0  0  0  0  0  0  0  0  0  0  0  0
   40.0240   33.2260   41.4500 H   0  0  0  0  0  0  0  0  0  0  0  0
   38.4110   32.6910   42.0340 H   0  0  0  0  0  0  0  0  0  0  0  0
   38.9870   33.8940   39.3180 H   0  0  0  0  0  0  0  0  0  0  0  0
   38.2780   34.7160   40.7220 H   0  0  0  0  0  0  0  0  0  0  0  0
   36.6920   33.6280   38.9820 H   0  0  0  0  0  0  0  0  0  0  0  0
   36.0720   31.5630   39.2600 H   0  0  0  0  0  0  0  0  0  0  0  0
   36.5720   31.5830   41.0490 H   0  0  0  0  0  0  0  0  0  0  0  0
   38.0520   30.0690   39.5370 H   0  0  0  0  0  0  0  0  0  0  0  0
   38.3710   31.5540   38.5900 H   0  0  0  0  0  0  0  0  0  0  0  0
   37.8930   28.2620   43.1710 C   0  0  0  0  0  0  0  0  0  0  0  0
   37.1550   28.9770   43.4990 H   0  0  0  0  0  0  0  0  0  0  0  0
   37.9550   27.5090   44.0110 H   0  0  0  0  0  0  0  0  0  0  0  0
   36.8890   25.3290   41.0570 C   0  0  0  0  0  0  0  0  0  0  0  0
   37.2670   26.0920   42.1920 C   0  0  0  0  0  0  0  0  0  0  0  0
   37.4880   27.4250   41.9940 C   0  0  0  0  0  0  0  0  0  0  0  0
   37.3410   27.9550   40.7530 N   0  0  0  0  0  0  0  0  0  0  0  0
   36.9900   27.2360   39.7110 C   0  0  0  0  0  0  0  0  0  0  0  0
   36.7600   25.9180   39.8530 N   0  0  0  0  0  0  0  0  0  0  0  0
   36.7150   24.2870   41.2070 H   0  0  0  0  0  0  0  0  0  0  0  0
   37.3840   25.6740   43.1730 H   0  0  0  0  0  0  0  0  0  0  0  0
   34.5520   28.9960   39.2500 Cl  0  0  0  0  0  0  0  0  0  0  0  0
   35.7680   28.6290   38.0560 C   0  0  0  0  0  0  0  0  0  0  0  0
   36.8340   27.8150   38.3800 C   0  0  0  0  0  0  0  0  0  0  0  0
   37.7440   27.5840   37.3690 C   0  0  0  0  0  0  0  0  0  0  0  0
   38.6100   26.9480   37.5650 H   0  0  0  0  0  0  0  0  0  0  0  0
   37.6510   28.1030   36.0900 C   0  0  0  0  0  3  0  0  0  0  0  0
   36.5600   28.9080   35.8380 C   0  0  0  0  0  0  0  0  0  0  0  0
   36.4540   29.5640   34.2040 Cl  0  0  0  0  0  0  0  0  0  0  0  0
   35.5910   29.1950   36.8030 C   0  0  0  0  0  0  0  0  0  0  0  0
   34.7850   29.8270   36.5090 H   0  0  0  0  0  0  0  0  0  0  0  0
  1 26  1  0  0  0  0
  1  3  1  0  0  0  0
  2  1  1  0  0  0  0
  4  5  1  0  0  0  0
  4  7  1  1  0  0  0
  4  1  1  0  0  0  0
  5  8  1  0  0  0  0
  5  9  1  0  0  0  0
  6 10  1  6  0  0  0
  6  4  1  0  0  0  0
  6  5  1  0  0  0  0
 11 12  1  0  0  0  0
 11  6  1  0  0  0  0
 12 17  1  0  0  0  0
 12 18  1  0  0  0  0
 13 20  1  0  0  0  0
 13 12  1  0  0  0  0
 14 15  1  0  0  0  0
 14 13  1  0  0  0  0
 15 23  1  0  0  0  0
 16 15  1  0  0  0  0
 16 11  1  0  0  0  0
 19 13  1  0  0  0  0
 21 14  1  0  0  0  0
 22 15  1  0  0  0  0
 24 16  1  0  0  0  0
 25 16  1  0  0  0  0
 26 27  1  0  0  0  0
 26 28  1  0  0  0  0
 29 35  1  0  0  0  0
 29 30  1  0  0  0  0
 30 36  1  0  0  0  0
 31 30  2  0  0  0  0
 31 26  1  0  0  0  0
 32 31  1  0  0  0  0
 33 34  1  0  0  0  0
 33 32  2  0  0  0  0
 34 29  2  0  0  0  0
 38 39  1  0  0  0  0
 38 37  1  0  0  0  0
 39 33  1  0  0  0  0
 40 41  1  0  0  0  0
 40 39  2  0  0  0  0
 42 40  1  0  0  0  0
 43 42  2  0  0  0  0
 43 45  1  0  0  0  0
 44 43  1  0  0  0  0
 45 38  2  0  0  0  0
 46 45  1  0  0  0  0
M  END
>  <minimizedAffinity>
-5.75995111

$$$$

 OpenBabel03252502493D

 46 49  0  0  1  0  0  0  0  0999 V2000
   38.4090   24.4630   39.7160 C   0  0  0  0  0  0  0  0  0  0  0  0
   38.6990   25.3360   39.0890 H   0  0  0  0  0  0  0  0  0  0  0  0
   39.2280   23.7210   39.5440 H   0  0  0  0  0  0  0  0  0  0  0  0
   38.2910   24.8710   41.1480 C   0  0  1  0  0  0  0  0  0  0  0  0
   39.4700   24.6360   42.0470 C   0  0  0  0  0  0  0  0  0  0  0  0
   39.0840   26.0050   41.5950 C   0  0  2  0  0  0  0  0  0  0  0  0
   37.3310   24.6280   41.5950 H   0  0  0  0  0  0  0  0  0  0  0  0
   39.3410   24.3010   43.0920 H   0  0  0  0  0  0  0  0  0  0  0  0
   40.3560   24.1380   41.5670 H   0  0  0  0  0  0  0  0  0  0  0  0
   39.8500   26.5140   41.0150 H   0  0  0  0  0  0  0  0  0  0  0  0
   38.4430   26.7880   42.6440 N   0  0  0  0  0  0  0  0  0  0  0  0
   37.0420   26.9120   42.5040 C   0  0  0  0  0  0  0  0  0  0  0  0
   36.5770   27.7540   43.6780 C   0  0  0  0  0  0  0  0  0  0  0  0
   37.1400   29.0580   43.6500 N   0  0  0  0  0  0  0  0  0  0  0  0
   38.4180   29.1480   42.9700 C   0  0  0  0  0  0  0  0  0  0  0  0
   39.1860   27.8430   43.1810 C   0  0  0  0  0  0  0  0  0  0  0  0
   36.5290   25.9530   42.4690 H   0  0  0  0  0  0  0  0  0  0  0  0
   36.8150   27.4950   41.5910 H   0  0  0  0  0  0  0  0  0  0  0  0
   36.7670   27.1670   44.5990 H   0  0  0  0  0  0  0  0  0  0  0  0
   35.4700   27.8130   43.5740 H   0  0  0  0  0  0  0  0  0  0  0  0
   37.1770   29.4650   44.6130 H   0  0  0  0  0  0  0  0  0  0  0  0
   38.9760   29.9690   43.5010 H   0  0  0  0  0  0  0  0  0  0  0  0
   38.2480   29.3450   41.9100 H   0  0  0  0  0  0  0  0  0  0  0  0
   40.2120   27.9070   42.8280 H   0  0  0  0  0  0  0  0  0  0  0  0
   39.2130   27.7250   44.3020 H   0  0  0  0  0  0  0  0  0  0  0  0
   37.0660   23.9460   39.2930 C   0  0  0  0  0  0  0  0  0  0  0  0
   36.5260   23.3290   39.9930 H   0  0  0  0  0  0  0  0  0  0  0  0
   37.2460   23.2780   38.4010 H   0  0  0  0  0  0  0  0  0  0  0  0
   34.5110   25.8930   37.3540 C   0  0  0  0  0  0  0  0  0  0  0  0
   35.2310   24.7930   37.8890 C   0  0  0  0  0  0  0  0  0  0  0  0
   36.2810   25.0840   38.7120 C   0  0  0  0  0  0  0  0  0  0  0  0
   36.5870   26.3790   38.9810 N   0  0  0  0  0  0  0  0  0  0  0  0
   35.9110   27.3880   38.4780 C   0  0  0  0  0  0  0  0  0  0  0  0
   34.8670   27.1540   37.6610 N   0  0  0  0  0  0  0  0  0  0  0  0
   33.6890   25.6700   36.7110 H   0  0  0  0  0  0  0  0  0  0  0  0
   34.9890   23.7690   37.6770 H   0  0  0  0  0  0  0  0  0  0  0  0
   37.5090   28.8960   36.3750 Cl  0  0  0  0  0  0  0  0  0  0  0  0
   36.9690   29.5580   37.8940 C   0  0  0  0  0  0  0  0  0  0  0  0
   36.2480   28.7770   38.7730 C   0  0  0  0  0  0  0  0  0  0  0  0
   35.8640   29.3900   39.9480 C   0  0  0  0  0  0  0  0  0  0  0  0
   35.2910   28.8230   40.6840 H   0  0  0  0  0  0  0  0  0  0  0  0
   36.1520   30.7010   40.2850 C   0  0  0  0  0  3  0  0  0  0  0  0
   36.8760   31.4220   39.3580 C   0  0  0  0  0  0  0  0  0  0  0  0
   37.2360   33.0910   39.7990 Cl  0  0  0  0  0  0  0  0  0  0  0  0
   37.3040   30.8800   38.1430 C   0  0  0  0  0  0  0  0  0  0  0  0
   37.8580   31.5180   37.4950 H   0  0  0  0  0  0  0  0  0  0  0  0
  1  4  1  0  0  0  0
  2  1  1  0  0  0  0
  3  1  1  0  0  0  0
  4  6  1  0  0  0  0
  4  7  1  1  0  0  0
  4  5  1  0  0  0  0
  5  8  1  0  0  0  0
  6 10  1  6  0  0  0
  6  5  1  0  0  0  0
  6 11  1  0  0  0  0
  9  5  1  0  0  0  0
 11 16  1  0  0  0  0
 12 11  1  0  0  0  0
 12 13  1  0  0  0  0
 13 19  1  0  0  0  0
 14 13  1  0  0  0  0
 14 21  1  0  0  0  0
 15 16  1  0  0  0  0
 15 22  1  0  0  0  0
 15 14  1  0  0  0  0
 16 25  1  0  0  0  0
 17 12  1  0  0  0  0
 18 12  1  0  0  0  0
 20 13  1  0  0  0  0
 23 15  1  0  0  0  0
 24 16  1  0  0  0  0
 26  1  1  0  0  0  0
 26 27  1  0  0  0  0
 28 26  1  0  0  0  0
 29 34  2  0  0  0  0
 29 30  1  0  0  0  0
 30 31  2  0  0  0  0
 31 32  1  0  0  0  0
 31 26  1  0  0  0  0
 33 39  1  0  0  0  0
 33 32  2  0  0  0  0
 34 33  1  0  0  0  0
 35 29  1  0  0  0  0
 36 30  1  0  0  0  0
 37 38  1  0  0  0  0
 38 45  2  0  0  0  0
 38 39  1  0  0  0  0
 39 40  2  0  0  0  0
 40 42  1  0  0  0  0
 40 41  1  0  0  0  0
 43 44  1  0  0  0  0
 43 42  2  0  0  0  0
 45 43  1  0  0  0  0
 46 45  1  0  0  0  0
M  END
>  <minimizedAffinity>
-5.62053728

$$$$

 OpenBabel03252502493D

 46 49  0  0  1  0  0  0  0  0999 V2000
   37.3310   32.7860   39.9510 C   0  0  0  0  0  0  0  0  0  0  0  0
   37.3470   32.4200   41.0020 H   0  0  0  0  0  0  0  0  0  0  0  0
   36.4990   33.5340   39.9380 H   0  0  0  0  0  0  0  0  0  0  0  0
   38.6510   33.3850   39.5920 C   0  0  1  0  0  0  0  0  0  0  0  0
   39.3840   34.1600   40.6480 C   0  0  0  0  0  0  0  0  0  0  0  0
   39.8410   32.8120   40.2000 C   0  0  2  0  0  0  0  0  0  0  0  0
   38.6720   33.8420   38.6060 H   0  0  0  0  0  0  0  0  0  0  0  0
   39.9410   35.0830   40.4050 H   0  0  0  0  0  0  0  0  0  0  0  0
   38.8590   34.2530   41.6380 H   0  0  0  0  0  0  0  0  0  0  0  0
   39.8560   32.0630   40.9880 H   0  0  0  0  0  0  0  0  0  0  0  0
   41.0190   32.8690   39.3440 N   0  0  0  0  0  0  0  0  0  0  0  0
   41.3140   34.1580   38.8440 C   0  0  0  0  0  0  0  0  0  0  0  0
   42.5550   33.9990   37.9850 C   0  0  0  0  0  0  0  0  0  0  0  0
   42.3270   33.1390   36.8770 N   0  0  0  0  0  0  0  0  0  0  0  0
   41.2850   32.1510   37.0880 C   0  0  0  0  0  0  0  0  0  0  0  0
   41.2790   31.7410   38.5600 C   0  0  0  0  0  0  0  0  0  0  0  0
   41.4600   34.8980   39.6270 H   0  0  0  0  0  0  0  0  0  0  0  0
   40.5020   34.4810   38.1640 H   0  0  0  0  0  0  0  0  0  0  0  0
   43.3860   33.7080   38.6580 H   0  0  0  0  0  0  0  0  0  0  0  0
   42.7950   35.0270   37.6270 H   0  0  0  0  0  0  0  0  0  0  0  0
   43.2230   32.7040   36.5570 H   0  0  0  0  0  0  0  0  0  0  0  0
   41.6010   31.2580   36.4790 H   0  0  0  0  0  0  0  0  0  0  0  0
   40.3250   32.5730   36.7850 H   0  0  0  0  0  0  0  0  0  0  0  0
   40.6260   30.8930   38.7490 H   0  0  0  0  0  0  0  0  0  0  0  0
   42.3400   31.4110   38.7520 H   0  0  0  0  0  0  0  0  0  0  0  0
   37.0940   31.6450   39.0090 C   0  0  0  0  0  0  0  0  0  0  0  0
   37.7770   31.5310   38.1810 H   0  0  0  0  0  0  0  0  0  0  0  0
   36.0890   31.8300   38.5270 H   0  0  0  0  0  0  0  0  0  0  0  0
   35.3890   28.8090   40.7770 C   0  0  0  0  0  0  0  0  0  0  0  0
   35.5750   29.9860   40.0060 C   0  0  0  0  0  0  0  0  0  0  0  0
   36.8610   30.4030   39.8160 C   0  0  0  0  0  0  0  0  0  0  0  0
   37.8850   29.6940   40.3560 N   0  0  0  0  0  0  0  0  0  0  0  0
   37.6990   28.6060   41.0680 C   0  0  0  0  0  0  0  0  0  0  0  0
   36.4500   28.1530   41.2850 N   0  0  0  0  0  0  0  0  0  0  0  0
   34.3860   28.4790   40.9280 H   0  0  0  0  0  0  0  0  0  0  0  0
   34.7650   30.5460   39.5790 H   0  0  0  0  0  0  0  0  0  0  0  0
   38.6910   26.1980   39.4970 Cl  0  0  0  0  0  0  0  0  0  0  0  0
   39.3400   26.7420   41.0210 C   0  0  0  0  0  0  0  0  0  0  0  0
   38.8070   27.8510   41.6440 C   0  0  0  0  0  0  0  0  0  0  0  0
   39.3880   28.2040   42.8450 C   0  0  0  0  0  0  0  0  0  0  0  0
   39.0090   29.0740   43.3860 H   0  0  0  0  0  0  0  0  0  0  0  0
   40.4380   27.5300   43.4410 C   0  0  0  0  0  3  0  0  0  0  0  0
   40.9200   26.4310   42.7620 C   0  0  0  0  0  0  0  0  0  0  0  0
   42.2600   25.5810   43.5330 Cl  0  0  0  0  0  0  0  0  0  0  0  0
   40.3920   26.0040   41.5410 C   0  0  0  0  0  0  0  0  0  0  0  0
   40.8330   25.1430   41.0950 H   0  0  0  0  0  0  0  0  0  0  0  0
  1  2  1  0  0  0  0
  3  1  1  0  0  0  0
  4  7  1  6  0  0  0
  4  1  1  0  0  0  0
  4  6  1  0  0  0  0
  4  5  1  0  0  0  0
  5  9  1  0  0  0  0
  6  5  1  0  0  0  0
  6 10  1  1  0  0  0
  8  5  1  0  0  0  0
 11  6  1  0  0  0  0
 12 11  1  0  0  0  0
 12 17  1  0  0  0  0
 13 19  1  0  0  0  0
 13 12  1  0  0  0  0
 14 15  1  0  0  0  0
 14 13  1  0  0  0  0
 15 16  1  0  0  0  0
 16 24  1  0  0  0  0
 16 25  1  0  0  0  0
 16 11  1  0  0  0  0
 18 12  1  0  0  0  0
 20 13  1  0  0  0  0
 21 14  1  0  0  0  0
 22 15  1  0  0  0  0
 23 15  1  0  0  0  0
 26 31  1  0  0  0  0
 26  1  1  0  0  0  0
 27 26  1  0  0  0  0
 28 26  1  0  0  0  0
 29 35  1  0  0  0  0
 29 34  1  0  0  0  0
 30 29  2  0  0  0  0
 31 30  1  0  0  0  0
 31 32  2  0  0  0  0
 32 33  1  0  0  0  0
 33 34  2  0  0  0  0
 33 39  1  0  0  0  0
 36 30  1  0  0  0  0
 37 38  1  0  0  0  0
 38 45  2  0  0  0  0
 38 39  1  0  0  0  0
 39 40  2  0  0  0  0
 40 41  1  0  0  0  0
 40 42  1  0  0  0  0
 43 42  2  0  0  0  0
 43 44  1  0  0  0  0
 45 43  1  0  0  0  0
 46 45  1  0  0  0  0
M  END
>  <minimizedAffinity>
-5.57794666

$$$$

 OpenBabel03252502493D

 46 49  0  0  1  0  0  0  0  0999 V2000
   40.7010   30.0130   42.3300 C   0  0  0  0  0  0  0  0  0  0  0  0
   40.5700   28.9140   42.2140 H   0  0  0  0  0  0  0  0  0  0  0  0
   41.4300   30.1120   43.1740 H   0  0  0  0  0  0  0  0  0  0  0  0
   41.2070   30.6110   41.0580 C   0  0  1  0  0  0  0  0  0  0  0  0
   42.5930   30.2470   40.6110 C   0  0  0  0  0  0  0  0  0  0  0  0
   41.3810   29.7250   39.9170 C   0  0  2  0  0  0  0  0  0  0  0  0
   40.9590   31.6610   40.9380 H   0  0  0  0  0  0  0  0  0  0  0  0
   43.2650   30.9930   40.1470 H   0  0  0  0  0  0  0  0  0  0  0  0
   43.1630   29.5620   41.2970 H   0  0  0  0  0  0  0  0  0  0  0  0
   41.2910   28.6410   39.9330 H   0  0  0  0  0  0  0  0  0  0  0  0
   41.1390   30.3730   38.6340 N   0  0  0  0  0  0  0  0  0  0  0  0
   41.9250   31.5250   38.4070 C   0  0  0  0  0  0  0  0  0  0  0  0
   41.5220   32.0420   37.0370 C   0  0  0  0  0  0  0  0  0  0  0  0
   40.1550   32.4260   36.9970 N   0  0  0  0  0  0  0  0  0  0  0  0
   39.3070   31.7300   37.9460 C   0  0  0  0  0  0  0  0  0  0  0  0
   39.8350   30.3090   38.1360 C   0  0  0  0  0  0  0  0  0  0  0  0
   42.9940   31.3320   38.4650 H   0  0  0  0  0  0  0  0  0  0  0  0
   41.6420   32.3100   39.1330 H   0  0  0  0  0  0  0  0  0  0  0  0
   41.8310   31.2800   36.2940 H   0  0  0  0  0  0  0  0  0  0  0  0
   42.1740   32.9270   36.8570 H   0  0  0  0  0  0  0  0  0  0  0  0
   39.7840   32.3680   36.0210 H   0  0  0  0  0  0  0  0  0  0  0  0
   38.3000   31.6640   37.4450 H   0  0  0  0  0  0  0  0  0  0  0  0
   39.2930   32.2820   38.8880 H   0  0  0  0  0  0  0  0  0  0  0  0
   39.1530   29.6900   38.7140 H   0  0  0  0  0  0  0  0  0  0  0  0
   39.8730   29.8940   37.0880 H   0  0  0  0  0  0  0  0  0  0  0  0
   39.3840   30.6630   42.6280 C   0  0  0  0  0  0  0  0  0  0  0  0
   39.1640   31.5960   42.1340 H   0  0  0  0  0  0  0  0  0  0  0  0
   39.3930   30.9170   43.7280 H   0  0  0  0  0  0  0  0  0  0  0  0
   37.0480   27.8550   43.4870 C   0  0  0  0  0  0  0  0  0  0  0  0
   38.0700   28.8300   43.6150 C   0  0  0  0  0  0  0  0  0  0  0  0
   38.3080   29.6230   42.5290 C   0  0  0  0  0  0  0  0  0  0  0  0
   37.5760   29.4520   41.3980 N   0  0  0  0  0  0  0  0  0  0  0  0
   36.6330   28.5440   41.2930 C   0  0  0  0  0  0  0  0  0  0  0  0
   36.3590   27.7380   42.3350 N   0  0  0  0  0  0  0  0  0  0  0  0
   36.8580   27.2340   44.3340 H   0  0  0  0  0  0  0  0  0  0  0  0
   38.6490   28.9660   44.5090 H   0  0  0  0  0  0  0  0  0  0  0  0
   37.5410   26.3630   39.3760 Cl  0  0  0  0  0  0  0  0  0  0  0  0
   36.1690   27.4110   39.1320 C   0  0  0  0  0  0  0  0  0  0  0  0
   35.8520   28.3680   40.0730 C   0  0  0  0  0  0  0  0  0  0  0  0
   34.7490   29.1480   39.7900 C   0  0  0  0  0  0  0  0  0  0  0  0
   34.4470   29.9230   40.4980 H   0  0  0  0  0  0  0  0  0  0  0  0
   33.9690   29.0300   38.6530 C   0  0  0  0  0  3  0  0  0  0  0  0
   34.3460   28.0520   37.7560 C   0  0  0  0  0  0  0  0  0  0  0  0
   33.3440   27.9120   36.3110 Cl  0  0  0  0  0  0  0  0  0  0  0  0
   35.4480   27.2180   37.9630 C   0  0  0  0  0  0  0  0  0  0  0  0
   35.6570   26.4940   37.2100 H   0  0  0  0  0  0  0  0  0  0  0  0
  1 26  1  0  0  0  0
  1  3  1  0  0  0  0
  2  1  1  0  0  0  0
  4  7  1  6  0  0  0
  4  1  1  0  0  0  0
  5  4  1  0  0  0  0
  5  9  1  0  0  0  0
  6 10  1  1  0  0  0
  6  5  1  0  0  0  0
  6  4  1  0  0  0  0
  8  5  1  0  0  0  0
 11  6  1  0  0  0  0
 12 17  1  0  0  0  0
 12 11  1  0  0  0  0
 12 18  1  0  0  0  0
 13 12  1  0  0  0  0
 14 13  1  0  0  0  0
 14 15  1  0  0  0  0
 15 16  1  0  0  0  0
 15 23  1  0  0  0  0
 16 11  1  0  0  0  0
 16 24  1  0  0  0  0
 19 13  1  0  0  0  0
 20 13  1  0  0  0  0
 21 14  1  0  0  0  0
 22 15  1  0  0  0  0
 25 16  1  0  0  0  0
 26 28  1  0  0  0  0
 27 26  1  0  0  0  0
 29 30  1  0  0  0  0
 29 35  1  0  0  0  0
 30 36  1  0  0  0  0
 31 26  1  0  0  0  0
 31 30  2  0  0  0  0
 32 31  1  0  0  0  0
 33 32  2  0  0  0  0
 33 34  1  0  0  0  0
 34 29  2  0  0  0  0
 38 37  1  0  0  0  0
 38 39  1  0  0  0  0
 39 33  1  0  0  0  0
 40 39  2  0  0  0  0
 40 41  1  0  0  0  0
 42 40  1  0  0  0  0
 43 45  1  0  0  0  0
 43 42  2  0  0  0  0
 44 43  1  0  0  0  0
 45 38  2  0  0  0  0
 46 45  1  0  0  0  0
M  END
>  <minimizedAffinity>
-5.48593473

$$$$

 OpenBabel03252502493D

 46 49  0  0  1  0  0  0  0  0999 V2000
   36.2210   30.0540   38.4830 C   0  0  0  0  0  0  0  0  0  0  0  0
   35.1460   30.3360   38.5350 H   0  0  0  0  0  0  0  0  0  0  0  0
   36.7060   30.9260   37.9770 H   0  0  0  0  0  0  0  0  0  0  0  0
   36.7590   29.8080   39.8540 C   0  0  1  0  0  0  0  0  0  0  0  0
   36.2150   30.6350   40.9830 C   0  0  0  0  0  0  0  0  0  0  0  0
   35.8720   29.1920   40.8280 C   0  0  2  0  0  0  0  0  0  0  0  0
   37.8350   29.6640   39.8840 H   0  0  0  0  0  0  0  0  0  0  0  0
   36.8680   31.0040   41.7950 H   0  0  0  0  0  0  0  0  0  0  0  0
   35.4500   31.4080   40.6960 H   0  0  0  0  0  0  0  0  0  0  0  0
   34.8110   28.9990   40.6890 H   0  0  0  0  0  0  0  0  0  0  0  0
   36.5620   28.3390   41.7880 N   0  0  0  0  0  0  0  0  0  0  0  0
   37.3800   29.0380   42.7040 C   0  0  0  0  0  0  0  0  0  0  0  0
   38.0010   27.9820   43.6000 C   0  0  0  0  0  0  0  0  0  0  0  0
   38.8260   27.0860   42.8690 N   0  0  0  0  0  0  0  0  0  0  0  0
   38.4600   26.9340   41.4730 C   0  0  0  0  0  0  0  0  0  0  0  0
   36.9440   27.0720   41.3390 C   0  0  0  0  0  0  0  0  0  0  0  0
   36.8360   29.7840   43.2810 H   0  0  0  0  0  0  0  0  0  0  0  0
   38.2150   29.5170   42.1590 H   0  0  0  0  0  0  0  0  0  0  0  0
   37.1790   27.5160   44.1790 H   0  0  0  0  0  0  0  0  0  0  0  0
   38.6130   28.5490   44.3380 H   0  0  0  0  0  0  0  0  0  0  0  0
   38.8970   26.1640   43.3590 H   0  0  0  0  0  0  0  0  0  0  0  0
   38.7380   25.8750   41.2100 H   0  0  0  0  0  0  0  0  0  0  0  0
   38.9840   27.6870   40.8800 H   0  0  0  0  0  0  0  0  0  0  0  0
   36.5930   26.8140   40.3430 H   0  0  0  0  0  0  0  0  0  0  0  0
   36.5390   26.3030   42.0570 H   0  0  0  0  0  0  0  0  0  0  0  0
   36.3840   28.7780   37.7110 C   0  0  0  0  0  0  0  0  0  0  0  0
   36.9680   27.9930   38.1640 H   0  0  0  0  0  0  0  0  0  0  0  0
   36.9440   29.0440   36.7670 H   0  0  0  0  0  0  0  0  0  0  0  0
   33.4660   26.6580   36.6790 C   0  0  0  0  0  0  0  0  0  0  0  0
   34.7460   27.0230   37.1700 C   0  0  0  0  0  0  0  0  0  0  0  0
   35.0390   28.3570   37.2010 C   0  0  0  0  0  0  0  0  0  0  0  0
   34.1180   29.2580   36.7730 N   0  0  0  0  0  0  0  0  0  0  0  0
   32.9360   28.9050   36.3200 C   0  0  0  0  0  0  0  0  0  0  0  0
   32.5990   27.6030   36.2690 N   0  0  0  0  0  0  0  0  0  0  0  0
   33.2330   25.6170   36.6540 H   0  0  0  0  0  0  0  0  0  0  0  0
   35.4740   26.3110   37.5090 H   0  0  0  0  0  0  0  0  0  0  0  0
   30.9810   29.9690   38.3930 Cl  0  0  0  0  0  0  0  0  0  0  0  0
   31.0170   30.4330   36.7130 C   0  0  0  0  0  0  0  0  0  0  0  0
   31.9530   29.8820   35.8630 C   0  0  0  0  0  0  0  0  0  0  0  0
   31.9030   30.3120   34.5520 C   0  0  0  0  0  0  0  0  0  0  0  0
   32.6180   29.9120   33.8310 H   0  0  0  0  0  0  0  0  0  0  0  0
   30.9960   31.2340   34.0590 C   0  0  0  0  0  3  0  0  0  0  0  0
   30.0910   31.7430   34.9650 C   0  0  0  0  0  0  0  0  0  0  0  0
   28.9420   32.9170   34.3240 Cl  0  0  0  0  0  0  0  0  0  0  0  0
   30.0710   31.3630   36.3110 C   0  0  0  0  0  0  0  0  0  0  0  0
   29.3320   31.8130   36.9310 H   0  0  0  0  0  0  0  0  0  0  0  0
  1  2  1  0  0  0  0
  1  4  1  0  0  0  0
  3  1  1  0  0  0  0
  4  7  1  1  0  0  0
  4  6  1  0  0  0  0
  4  5  1  0  0  0  0
  5  8  1  0  0  0  0
  6 10  1  6  0  0  0
  6  5  1  0  0  0  0
  6 11  1  0  0  0  0
  9  5  1  0  0  0  0
 11 12  1  0  0  0  0
 12 17  1  0  0  0  0
 12 13  1  0  0  0  0
 13 19  1  0  0  0  0
 13 20  1  0  0  0  0
 14 21  1  0  0  0  0
 14 13  1  0  0  0  0
 15 14  1  0  0  0  0
 16 15  1  0  0  0  0
 16 11  1  0  0  0  0
 16 25  1  0  0  0  0
 18 12  1  0  0  0  0
 22 15  1  0  0  0  0
 23 15  1  0  0  0  0
 24 16  1  0  0  0  0
 26 27  1  0  0  0  0
 26  1  1  0  0  0  0
 28 26  1  0  0  0  0
 29 30  1  0  0  0  0
 30 31  2  0  0  0  0
 30 36  1  0  0  0  0
 31 26  1  0  0  0  0
 32 31  1  0  0  0  0
 33 32  2  0  0  0  0
 34 33  1  0  0  0  0
 34 29  2  0  0  0  0
 35 29  1  0  0  0  0
 38 37  1  0  0  0  0
 39 33  1  0  0  0  0
 39 38  2  0  0  0  0
 40 39  1  0  0  0  0
 41 40  1  0  0  0  0
 42 40  2  0  0  0  0
 42 43  1  0  0  0  0
 43 45  2  0  0  0  0
 44 43  1  0  0  0  0
 45 38  1  0  0  0  0
 45 46  1  0  0  0  0
M  END
>  <minimizedAffinity>
-5.40625525

$$$$

 OpenBabel03252502493D

 46 49  0  0  1  0  0  0  0  0999 V2000
   36.4500   28.3970   41.9780 C   0  0  0  0  0  0  0  0  0  0  0  0
   35.6080   28.7320   42.6240 H   0  0  0  0  0  0  0  0  0  0  0  0
   36.2510   27.3080   41.8160 H   0  0  0  0  0  0  0  0  0  0  0  0
   36.4670   29.1770   40.7040 C   0  0  1  0  0  0  0  0  0  0  0  0
   35.1490   29.5430   40.0850 C   0  0  0  0  0  0  0  0  0  0  0  0
   36.0160   30.5590   40.7520 C   0  0  2  0  0  0  0  0  0  0  0  0
   37.2170   28.8410   39.9940 H   0  0  0  0  0  0  0  0  0  0  0  0
   35.0000   29.5210   38.9900 H   0  0  0  0  0  0  0  0  0  0  0  0
   34.2360   29.1710   40.6260 H   0  0  0  0  0  0  0  0  0  0  0  0
   35.5520   31.0480   41.6050 H   0  0  0  0  0  0  0  0  0  0  0  0
   36.7010   31.4290   39.8040 N   0  0  0  0  0  0  0  0  0  0  0  0
   37.1000   30.7880   38.6090 C   0  0  0  0  0  0  0  0  0  0  0  0
   37.7880   31.8520   37.7730 C   0  0  0  0  0  0  0  0  0  0  0  0
   38.9520   32.3570   38.4130 N   0  0  0  0  0  0  0  0  0  0  0  0
   38.9280   32.2710   39.8610 C   0  0  0  0  0  0  0  0  0  0  0  0
   37.4900   32.4470   40.3460 C   0  0  0  0  0  0  0  0  0  0  0  0
   36.2730   30.3290   38.0730 H   0  0  0  0  0  0  0  0  0  0  0  0
   37.8690   30.0260   38.8420 H   0  0  0  0  0  0  0  0  0  0  0  0
   37.0210   32.6050   37.5040 H   0  0  0  0  0  0  0  0  0  0  0  0
   38.0650   31.3420   36.8230 H   0  0  0  0  0  0  0  0  0  0  0  0
   39.1660   33.3250   38.0790 H   0  0  0  0  0  0  0  0  0  0  0  0
   39.5260   33.1570   40.2170 H   0  0  0  0  0  0  0  0  0  0  0  0
   39.3410   31.3090   40.1710 H   0  0  0  0  0  0  0  0  0  0  0  0
   37.4280   32.5480   41.4260 H   0  0  0  0  0  0  0  0  0  0  0  0
   37.1690   33.4270   39.8880 H   0  0  0  0  0  0  0  0  0  0  0  0
   37.7600   28.6470   42.6640 C   0  0  0  0  0  0  0  0  0  0  0  0
   37.7340   29.1310   43.6270 H   0  0  0  0  0  0  0  0  0  0  0  0
   38.3390   29.3560   42.0030 H   0  0  0  0  0  0  0  0  0  0  0  0
   40.1290   25.8870   43.5850 C   0  0  0  0  0  0  0  0  0  0  0  0
   39.3700   27.0830   43.6730 C   0  0  0  0  0  0  0  0  0  0  0  0
   38.5730   27.3880   42.6070 C   0  0  0  0  0  0  0  0  0  0  0  0
   38.5360   26.5570   41.5350 N   0  0  0  0  0  0  0  0  0  0  0  0
   39.2440   25.4520   41.4670 C   0  0  0  0  0  0  0  0  0  0  0  0
   40.0460   25.1070   42.4910 N   0  0  0  0  0  0  0  0  0  0  0  0
   40.7540   25.6450   44.4160 H   0  0  0  0  0  0  0  0  0  0  0  0
   39.3990   27.7410   44.5210 H   0  0  0  0  0  0  0  0  0  0  0  0
   36.6560   23.9230   41.0050 Cl  0  0  0  0  0  0  0  0  0  0  0  0
   38.0770   23.8230   40.0010 C   0  0  0  0  0  0  0  0  0  0  0  0
   39.1980   24.5650   40.3090 C   0  0  0  0  0  0  0  0  0  0  0  0
   40.2710   24.4190   39.4550 C   0  0  0  0  0  0  0  0  0  0  0  0
   41.1870   24.9810   39.6470 H   0  0  0  0  0  0  0  0  0  0  0  0
   40.2880   23.5960   38.3430 C   0  0  0  0  0  3  0  0  0  0  0  0
   39.1340   22.8840   38.0950 C   0  0  0  0  0  0  0  0  0  0  0  0
   39.1680   21.8390   36.6750 Cl  0  0  0  0  0  0  0  0  0  0  0  0
   38.0000   22.9720   38.9080 C   0  0  0  0  0  0  0  0  0  0  0  0
   37.1580   22.3810   38.6330 H   0  0  0  0  0  0  0  0  0  0  0  0
  1  2  1  0  0  0  0
  1 26  1  0  0  0  0
  3  1  1  0  0  0  0
  4  7  1  6  0  0  0
  4  6  1  0  0  0  0
  4  1  1  0  0  0  0
  5  9  1  0  0  0  0
  5  4  1  0  0  0  0
  5  6  1  0  0  0  0
  6 10  1  1  0  0  0
  8  5  1  0  0  0  0
 11 16  1  0  0  0  0
 11  6  1  0  0  0  0
 12 18  1  0  0  0  0
 12 11  1  0  0  0  0
 13 14  1  0  0  0  0
 13 12  1  0  0  0  0
 14 15  1  0  0  0  0
 15 23  1  0  0  0  0
 15 22  1  0  0  0  0
 15 16  1  0  0  0  0
 16 24  1  0  0  0  0
 17 12  1  0  0  0  0
 19 13  1  0  0  0  0
 20 13  1  0  0  0  0
 21 14  1  0  0  0  0
 25 16  1  0  0  0  0
 26 27  1  0  0  0  0
 28 26  1  0  0  0  0
 29 30  1  0  0  0  0
 29 35  1  0  0  0  0
 30 36  1  0  0  0  0
 31 26  1  0  0  0  0
 31 30  2  0  0  0  0
 32 31  1  0  0  0  0
 33 32  2  0  0  0  0
 33 34  1  0  0  0  0
 34 29  2  0  0  0  0
 38 39  1  0  0  0  0
 38 37  1  0  0  0  0
 39 33  1  0  0  0  0
 40 41  1  0  0  0  0
 40 39  2  0  0  0  0
 42 40  1  0  0  0  0
 43 42  2  0  0  0  0
 43 45  1  0  0  0  0
 44 43  1  0  0  0  0
 45 38  2  0  0  0  0
 46 45  1  0  0  0  0
M  END
>  <minimizedAffinity>
-5.39330339

$$$$

 OpenBabel03252502493D

 46 49  0  0  1  0  0  0  0  0999 V2000
   38.1700   26.8930   43.1930 C   0  0  0  0  0  0  0  0  0  0  0  0
   38.3100   26.5250   44.2350 H   0  0  0  0  0  0  0  0  0  0  0  0
   38.8490   27.7800   43.1260 H   0  0  0  0  0  0  0  0  0  0  0  0
   38.5230   25.8210   42.2150 C   0  0  1  0  0  0  0  0  0  0  0  0
   39.2530   24.6130   42.7250 C   0  0  0  0  0  0  0  0  0  0  0  0
   37.8190   24.5520   42.3200 C   0  0  2  0  0  0  0  0  0  0  0  0
   38.8900   26.1980   41.2650 H   0  0  0  0  0  0  0  0  0  0  0  0
   40.0550   24.1320   42.1360 H   0  0  0  0  0  0  0  0  0  0  0  0
   39.5070   24.6240   43.8210 H   0  0  0  0  0  0  0  0  0  0  0  0
   37.1420   24.2640   43.1200 H   0  0  0  0  0  0  0  0  0  0  0  0
   37.6210   23.8880   41.0370 N   0  0  0  0  0  0  0  0  0  0  0  0
   38.6920   24.0450   40.1280 C   0  0  0  0  0  0  0  0  0  0  0  0
   38.2890   23.2920   38.8740 C   0  0  0  0  0  0  0  0  0  0  0  0
   37.1220   23.8400   38.2780 N   0  0  0  0  0  0  0  0  0  0  0  0
   36.2360   24.5190   39.2040 C   0  0  0  0  0  0  0  0  0  0  0  0
   36.3080   23.8220   40.5620 C   0  0  0  0  0  0  0  0  0  0  0  0
   39.6420   23.6910   40.5220 H   0  0  0  0  0  0  0  0  0  0  0  0
   38.7750   25.1100   39.8410 H   0  0  0  0  0  0  0  0  0  0  0  0
   38.2350   22.2170   39.1380 H   0  0  0  0  0  0  0  0  0  0  0  0
   39.1560   23.3940   38.1820 H   0  0  0  0  0  0  0  0  0  0  0  0
   36.6210   23.1170   37.7130 H   0  0  0  0  0  0  0  0  0  0  0  0
   35.2020   24.3640   38.7880 H   0  0  0  0  0  0  0  0  0  0  0  0
   36.5280   25.5690   39.2770 H   0  0  0  0  0  0  0  0  0  0  0  0
   35.5520   24.1860   41.2540 H   0  0  0  0  0  0  0  0  0  0  0  0
   36.0690   22.7460   40.3260 H   0  0  0  0  0  0  0  0  0  0  0  0
   36.7330   27.2490   42.9580 C   0  0  0  0  0  0  0  0  0  0  0  0
   36.0990   27.3630   43.8240 H   0  0  0  0  0  0  0  0  0  0  0  0
   36.2790   26.3890   42.3830 H   0  0  0  0  0  0  0  0  0  0  0  0
   37.2520   30.5930   41.3400 C   0  0  0  0  0  0  0  0  0  0  0  0
   37.3270   29.5410   42.2890 C   0  0  0  0  0  0  0  0  0  0  0  0
   36.6780   28.3810   41.9770 C   0  0  0  0  0  0  0  0  0  0  0  0
   36.0060   28.2800   40.8010 N   0  0  0  0  0  0  0  0  0  0  0  0
   35.9460   29.2630   39.9320 C   0  0  0  0  0  0  0  0  0  0  0  0
   36.5670   30.4280   40.1920 N   0  0  0  0  0  0  0  0  0  0  0  0
   37.7570   31.5020   41.5800 H   0  0  0  0  0  0  0  0  0  0  0  0
   37.8570   29.6200   43.2180 H   0  0  0  0  0  0  0  0  0  0  0  0
   37.6070   29.2240   37.3840 Cl  0  0  0  0  0  0  0  0  0  0  0  0
   35.8680   29.1170   37.4530 C   0  0  0  0  0  0  0  0  0  0  0  0
   35.2200   29.1450   38.6710 C   0  0  0  0  0  0  0  0  0  0  0  0
   33.8440   29.0540   38.6220 C   0  0  0  0  0  0  0  0  0  0  0  0
   33.2750   29.0710   39.5540 H   0  0  0  0  0  0  0  0  0  0  0  0
   33.1010   28.9400   37.4610 C   0  0  0  0  0  3  0  0  0  0  0  0
   33.8150   28.9180   36.2810 C   0  0  0  0  0  0  0  0  0  0  0  0
   32.8570   28.7730   34.8080 Cl  0  0  0  0  0  0  0  0  0  0  0  0
   35.2100   29.0050   36.2380 C   0  0  0  0  0  0  0  0  0  0  0  0
   35.6680   28.9790   35.2770 H   0  0  0  0  0  0  0  0  0  0  0  0
  1  2  1  0  0  0  0
  3  1  1  0  0  0  0
  4  7  1  6  0  0  0
  4  6  1  0  0  0  0
  4  5  1  0  0  0  0
  4  1  1  0  0  0  0
  5  9  1  0  0  0  0
  6  5  1  0  0  0  0
  6 10  1  1  0  0  0
  8  5  1  0  0  0  0
 11  6  1  0  0  0  0
 12 17  1  0  0  0  0
 12 11  1  0  0  0  0
 13 19  1  0  0  0  0
 13 12  1  0  0  0  0
 14 13  1  0  0  0  0
 14 15  1  0  0  0  0
 15 23  1  0  0  0  0
 15 16  1  0  0  0  0
 16 11  1  0  0  0  0
 16 24  1  0  0  0  0
 18 12  1  0  0  0  0
 20 13  1  0  0  0  0
 21 14  1  0  0  0  0
 22 15  1  0  0  0  0
 25 16  1  0  0  0  0
 26  1  1  0  0  0  0
 26 27  1  0  0  0  0
 28 26  1  0  0  0  0
 29 35  1  0  0  0  0
 29 30  1  0  0  0  0
 30 36  1  0  0  0  0
 31 30  2  0  0  0  0
 31 26  1  0  0  0  0
 32 31  1  0  0  0  0
 33 34  1  0  0  0  0
 33 32  2  0  0  0  0
 34 29  2  0  0  0  0
 37 38  1  0  0  0  0
 38 39  1  0  0  0  0
 39 33  1  0  0  0  0
 40 39  2  0  0  0  0
 40 41  1  0  0  0  0
 42 40  1  0  0  0  0
 43 42  2  0  0  0  0
 44 43  1  0  0  0  0
 45 43  1  0  0  0  0
 45 38  2  0  0  0  0
 46 45  1  0  0  0  0
M  END
>  <minimizedAffinity>
-5.38453007

$$$$

 OpenBabel03252502493D

 46 49  0  0  1  0  0  0  0  0999 V2000
   41.4070   28.7360   40.9920 C   0  0  0  0  0  0  0  0  0  0  0  0
   40.8610   27.9520   40.4200 H   0  0  0  0  0  0  0  0  0  0  0  0
   42.4840   28.4560   40.8740 H   0  0  0  0  0  0  0  0  0  0  0  0
   41.0980   30.0890   40.4400 C   0  0  1  0  0  0  0  0  0  0  0  0
   41.4370   30.3570   39.0020 C   0  0  0  0  0  0  0  0  0  0  0  0
   40.0280   30.1900   39.4610 C   0  0  2  0  0  0  0  0  0  0  0  0
   41.3390   30.9040   41.1160 H   0  0  0  0  0  0  0  0  0  0  0  0
   41.8420   31.3330   38.6770 H   0  0  0  0  0  0  0  0  0  0  0  0
   41.9320   29.5100   38.4520 H   0  0  0  0  0  0  0  0  0  0  0  0
   39.5050   29.3560   38.9990 H   0  0  0  0  0  0  0  0  0  0  0  0
   39.2990   31.4520   39.5220 N   0  0  0  0  0  0  0  0  0  0  0  0
   39.3200   32.0740   40.7910 C   0  0  0  0  0  0  0  0  0  0  0  0
   38.5130   33.3520   40.6430 C   0  0  0  0  0  0  0  0  0  0  0  0
   37.1590   33.0860   40.3040 N   0  0  0  0  0  0  0  0  0  0  0  0
   36.9500   31.8400   39.5920 C   0  0  0  0  0  0  0  0  0  0  0  0
   38.1660   31.5610   38.7110 C   0  0  0  0  0  0  0  0  0  0  0  0
   40.3260   32.2750   41.1520 H   0  0  0  0  0  0  0  0  0  0  0  0
   38.7750   31.4420   41.5180 H   0  0  0  0  0  0  0  0  0  0  0  0
   39.0640   34.0100   39.9420 H   0  0  0  0  0  0  0  0  0  0  0  0
   38.5680   33.8480   41.6380 H   0  0  0  0  0  0  0  0  0  0  0  0
   36.7360   33.9020   39.8030 H   0  0  0  0  0  0  0  0  0  0  0  0
   36.0690   32.0320   38.9180 H   0  0  0  0  0  0  0  0  0  0  0  0
   36.7850   31.0370   40.3130 H   0  0  0  0  0  0  0  0  0  0  0  0
   38.0040   30.7240   38.0360 H   0  0  0  0  0  0  0  0  0  0  0  0
   38.2660   32.4940   38.0850 H   0  0  0  0  0  0  0  0  0  0  0  0
   40.9650   28.7340   42.4250 C   0  0  0  0  0  0  0  0  0  0  0  0
   41.2670   29.5660   43.0410 H   0  0  0  0  0  0  0  0  0  0  0  0
   41.4450   27.8320   42.9070 H   0  0  0  0  0  0  0  0  0  0  0  0
   37.3240   28.7950   43.3260 C   0  0  0  0  0  0  0  0  0  0  0  0
   38.7020   29.1320   43.3050 C   0  0  0  0  0  0  0  0  0  0  0  0
   39.5030   28.4060   42.4700 C   0  0  0  0  0  0  0  0  0  0  0  0
   38.9640   27.4170   41.7130 N   0  0  0  0  0  0  0  0  0  0  0  0
   37.6860   27.1150   41.7430 C   0  0  0  0  0  0  0  0  0  0  0  0
   36.8540   27.8000   42.5490 N   0  0  0  0  0  0  0  0  0  0  0  0
   36.6950   29.3600   43.9770 H   0  0  0  0  0  0  0  0  0  0  0  0
   39.1280   29.9140   43.9040 H   0  0  0  0  0  0  0  0  0  0  0  0
   36.8670   27.8430   38.9060 Cl  0  0  0  0  0  0  0  0  0  0  0  0
   36.7100   26.2630   39.6240 C   0  0  0  0  0  0  0  0  0  0  0  0
   37.1170   26.0490   40.9250 C   0  0  0  0  0  0  0  0  0  0  0  0
   36.9530   24.7650   41.4040 C   0  0  0  0  0  0  0  0  0  0  0  0
   37.2560   24.5340   42.4270 H   0  0  0  0  0  0  0  0  0  0  0  0
   36.4200   23.7140   40.6780 C   0  0  0  0  0  3  0  0  0  0  0  0
   36.0360   24.0010   39.3850 C   0  0  0  0  0  0  0  0  0  0  0  0
   35.3600   22.6530   38.4710 Cl  0  0  0  0  0  0  0  0  0  0  0  0
   36.1660   25.2720   38.8200 C   0  0  0  0  0  0  0  0  0  0  0  0
   35.8390   25.3920   37.8130 H   0  0  0  0  0  0  0  0  0  0  0  0
  1 26  1  0  0  0  0
  2  1  1  0  0  0  0
  3  1  1  0  0  0  0
  4  1  1  0  0  0  0
  4  7  1  1  0  0  0
  5  6  1  0  0  0  0
  5  4  1  0  0  0  0
  6 10  1  6  0  0  0
  6 11  1  0  0  0  0
  6  4  1  0  0  0  0
  8  5  1  0  0  0  0
  9  5  1  0  0  0  0
 11 12  1  0  0  0  0
 12 17  1  0  0  0  0
 12 18  1  0  0  0  0
 13 12  1  0  0  0  0
 13 20  1  0  0  0  0
 14 13  1  0  0  0  0
 15 14  1  0  0  0  0
 15 23  1  0  0  0  0
 16 11  1  0  0  0  0
 16 15  1  0  0  0  0
 19 13  1  0  0  0  0
 21 14  1  0  0  0  0
 22 15  1  0  0  0  0
 24 16  1  0  0  0  0
 25 16  1  0  0  0  0
 26 31  1  0  0  0  0
 26 28  1  0  0  0  0
 26 27  1  0  0  0  0
 29 35  1  0  0  0  0
 30 29  1  0  0  0  0
 30 36  1  0  0  0  0
 31 30  2  0  0  0  0
 32 33  2  0  0  0  0
 32 31  1  0  0  0  0
 33 34  1  0  0  0  0
 34 29  2  0  0  0  0
 37 38  1  0  0  0  0
 38 39  1  0  0  0  0
 39 40  2  0  0  0  0
 39 33  1  0  0  0  0
 40 41  1  0  0  0  0
 42 40  1  0  0  0  0
 43 42  2  0  0  0  0
 44 43  1  0  0  0  0
 45 43  1  0  0  0  0
 45 38  2  0  0  0  0
 46 45  1  0  0  0  0
M  END
>  <minimizedAffinity>
-5.36841011

$$$$
