
 OpenBabel03242511193D

 40 43  0  0  1  0  0  0  0  0999 V2000
   50.1820   32.2300   41.7670 C   0  0  0  0  0  0  0  0  0  0  0  0
   49.4100   31.7040   42.3980 H   0  0  0  0  0  0  0  0  0  0  0  0
   51.1450   31.9490   42.1880 H   0  0  0  0  0  0  0  0  0  0  0  0
   49.9450   31.9330   40.3670 C   0  0  0  0  0  0  0  0  0  0  0  0
   50.9130   31.5360   39.6000 C   0  0  0  0  0  0  0  0  0  0  0  0
   50.7130   31.2270   38.2400 N   0  0  0  0  0  0  0  0  0  0  0  0
   50.9370   30.3090   37.1550 C   0  0  0  0  0  0  0  0  0  0  0  0
   51.8290   29.4590   36.8680 O   0  0  0  0  0  0  0  0  0  0  0  0
   49.6440   30.8590   36.5950 C   0  0  0  0  0  0  0  0  0  0  0  0
   49.9540   32.1290   37.3410 C   0  0  1  0  0  0  0  0  0  0  0  0
   48.6050   32.8760   38.2490 S   0  0  0  0  0  0  0  0  0  0  0  0
   48.5520   32.1120   39.8960 C   0  0  0  0  0  0  0  0  0  0  0  0
   49.7060   30.9300   35.4900 H   0  0  0  0  0  0  0  0  0  0  0  0
   48.7930   30.3270   37.0200 H   0  0  0  0  0  0  0  0  0  0  0  0
   50.6410   32.8100   36.8140 H   0  0  0  0  0  0  0  0  0  0  0  0
   47.9500   32.7670   40.5230 H   0  0  0  0  0  0  0  0  0  0  0  0
   48.0760   31.1050   39.7760 H   0  0  0  0  0  0  0  0  0  0  0  0
   52.2680   31.4010   40.1620 C   0  0  0  0  0  0  0  0  0  0  0  0
   53.3450   31.3830   39.4830 O   0  0  0  0  0  0  0  0  0  0  0  0
   53.3550   31.2660   40.9590 O   0  0  0  0  0  0  0  0  0  0  0  0
   53.4290   31.4590   41.9520 H   0  0  0  0  0  0  0  0  0  0  0  0
   49.9080   34.0250   42.0840 S   0  0  0  0  0  0  0  0  0  0  0  0
   46.0020   35.0360   42.4440 C   0  0  0  0  0  0  0  0  0  0  0  0
   47.3150   34.9250   41.9190 C   0  0  0  0  0  0  0  0  0  0  0  0
   48.2490   34.1920   42.7020 C   0  0  0  0  0  0  0  0  0  0  0  0
   47.8470   33.6510   43.8770 N   0  0  0  0  0  0  0  0  0  0  0  0
   46.5980   33.7850   44.3270 C   0  0  0  0  0  0  0  0  0  0  0  0
   45.6670   34.4710   43.6250 N   0  0  0  0  0  0  0  0  0  0  0  0
   45.2420   35.5770   41.9050 H   0  0  0  0  0  0  0  0  0  0  0  0
   47.5480   35.3810   40.9860 H   0  0  0  0  0  0  0  0  0  0  0  0
   44.5810   35.2480   45.8750 Cl  0  0  0  0  0  0  0  0  0  0  0  0
   45.3350   33.7680   46.4200 C   0  0  0  0  0  0  0  0  0  0  0  0
   46.2780   33.1620   45.6010 C   0  0  0  0  0  0  0  0  0  0  0  0
   46.9020   32.0080   45.9670 C   0  0  0  0  0  0  0  0  0  0  0  0
   47.6500   31.4940   45.3570 H   0  0  0  0  0  0  0  0  0  0  0  0
   46.5550   31.4680   47.1870 C   0  0  0  0  0  0  0  0  0  0  0  0
   45.6260   32.0520   48.0080 C   0  0  0  0  0  0  0  0  0  0  0  0
   45.2170   31.3390   49.5370 Cl  0  0  0  0  0  0  0  0  0  0  0  0
   45.0040   33.2190   47.6250 C   0  0  0  0  0  0  0  0  0  0  0  0
   44.2740   33.7300   48.2070 H   0  0  0  0  0  0  0  0  0  0  0  0
  1 22  1  0  0  0  0
  1  3  1  0  0  0  0
  1  2  1  0  0  0  0
  4  1  1  0  0  0  0
  5 18  1  0  0  0  0
  5  4  2  0  0  0  0
  6  5  1  0  0  0  0
  7  6  1  0  0  0  0
  8  7  2  0  0  0  0
  9 14  1  0  0  0  0
  9  7  1  0  0  0  0
  9 10  1  0  0  0  0
 10 15  1  6  0  0  0
 10  6  1  0  0  0  0
 10 11  1  0  0  0  0
 11 12  1  0  0  0  0
 12  4  1  0  0  0  0
 12 16  1  0  0  0  0
 13  9  1  0  0  0  0
 17 12  1  0  0  0  0
 18 20  1  0  0  0  0
 19 18  2  0  0  0  0
 20 21  1  0  0  0  0
 22 25  1  0  0  0  0
 23 28  1  0  0  0  0
 24 23  2  0  0  0  0
 24 25  1  0  0  0  0
 25 26  2  0  0  0  0
 26 27  1  0  0  0  0
 27 33  1  0  0  0  0
 28 27  2  0  0  0  0
 29 23  1  0  0  0  0
 30 24  1  0  0  0  0
 31 32  1  0  0  0  0
 32 39  1  0  0  0  0
 33 34  1  0  0  0  0
 33 32  2  0  0  0  0
 34 36  2  0  0  0  0
 35 34  1  0  0  0  0
 36 37  1  0  0  0  0
 37 38  1  0  0  0  0
 39 37  2  0  0  0  0
 39 40  1  0  0  0  0
M  END
>  <minimizedAffinity>
-6.04994488

>  <minimizedRMSD>
1.85688686

$$$$
