
 OpenBabel03252502473D

 46 49  0  0  1  0  0  0  0  0999 V2000
   46.3340   34.8740   42.1650 C   0  0  0  0  0  0  0  0  0  0  0  0
   46.5190   35.3790   43.1390 H   0  0  0  0  0  0  0  0  0  0  0  0
   45.6530   35.5760   41.6210 H   0  0  0  0  0  0  0  0  0  0  0  0
   47.6230   34.6480   41.4460 C   0  0  1  0  0  0  0  0  0  0  0  0
   48.7050   35.6770   41.5970 C   0  0  0  0  0  0  0  0  0  0  0  0
   48.7970   34.3370   42.2460 C   0  0  2  0  0  0  0  0  0  0  0  0
   47.5010   34.2720   40.4340 H   0  0  0  0  0  0  0  0  0  0  0  0
   49.3480   35.9680   40.7470 H   0  0  0  0  0  0  0  0  0  0  0  0
   48.4440   36.5690   42.2310 H   0  0  0  0  0  0  0  0  0  0  0  0
   48.8550   34.3710   43.3310 H   0  0  0  0  0  0  0  0  0  0  0  0
   49.7400   33.4480   41.5770 N   0  0  0  0  0  0  0  0  0  0  0  0
   49.1380   32.4980   40.7220 C   0  0  0  0  0  0  0  0  0  0  0  0
   50.2760   31.6820   40.1360 C   0  0  0  0  0  0  0  0  0  0  0  0
   50.9930   30.9780   41.1400 N   0  0  0  0  0  0  0  0  0  0  0  0
   50.9530   31.5940   42.4530 C   0  0  0  0  0  0  0  0  0  0  0  0
   50.8960   33.1120   42.2880 C   0  0  0  0  0  0  0  0  0  0  0  0
   48.5270   32.9510   39.9430 H   0  0  0  0  0  0  0  0  0  0  0  0
   48.5270   31.7990   41.3230 H   0  0  0  0  0  0  0  0  0  0  0  0
   50.8780   32.3630   39.5030 H   0  0  0  0  0  0  0  0  0  0  0  0
   49.7890   30.9630   39.4390 H   0  0  0  0  0  0  0  0  0  0  0  0
   51.9720   30.7830   40.8270 H   0  0  0  0  0  0  0  0  0  0  0  0
   51.9380   31.3330   42.9300 H   0  0  0  0  0  0  0  0  0  0  0  0
   50.0860   31.2180   43.0000 H   0  0  0  0  0  0  0  0  0  0  0  0
   51.0210   33.6350   43.2330 H   0  0  0  0  0  0  0  0  0  0  0  0
   51.7910   33.3470   41.6430 H   0  0  0  0  0  0  0  0  0  0  0  0
   45.7120   33.5280   42.3890 C   0  0  0  0  0  0  0  0  0  0  0  0
   46.0660   32.7090   41.7840 H   0  0  0  0  0  0  0  0  0  0  0  0
   44.6200   33.6310   42.1210 H   0  0  0  0  0  0  0  0  0  0  0  0
   45.4360   34.0240   46.0970 C   0  0  0  0  0  0  0  0  0  0  0  0
   45.4600   34.3120   44.7080 C   0  0  0  0  0  0  0  0  0  0  0  0
   45.6770   33.2610   43.8640 C   0  0  0  0  0  0  0  0  0  0  0  0
   45.8560   32.0150   44.3720 N   0  0  0  0  0  0  0  0  0  0  0  0
   45.8310   31.7630   45.6610 C   0  0  0  0  0  0  0  0  0  0  0  0
   45.6210   32.7640   46.5350 N   0  0  0  0  0  0  0  0  0  0  0  0
   45.2670   34.8430   46.7610 H   0  0  0  0  0  0  0  0  0  0  0  0
   45.3190   35.2960   44.3060 H   0  0  0  0  0  0  0  0  0  0  0  0
   48.3350   30.2760   44.7840 Cl  0  0  0  0  0  0  0  0  0  0  0  0
   47.1230   29.6520   45.8690 C   0  0  0  0  0  0  0  0  0  0  0  0
   46.0240   30.4190   46.1970 C   0  0  0  0  0  0  0  0  0  0  0  0
   45.1200   29.8390   47.0630 C   0  0  0  0  0  0  0  0  0  0  0  0
   44.2300   30.3970   47.3600 H   0  0  0  0  0  0  0  0  0  0  0  0
   45.2480   28.5720   47.6030 C   0  0  0  0  0  3  0  0  0  0  0  0
   46.3710   27.8610   47.2320 C   0  0  0  0  0  0  0  0  0  0  0  0
   46.5220   26.2470   47.9280 Cl  0  0  0  0  0  0  0  0  0  0  0  0
   47.3370   28.3720   46.3600 C   0  0  0  0  0  0  0  0  0  0  0  0
   48.1670   27.7460   46.1350 H   0  0  0  0  0  0  0  0  0  0  0  0
  1 26  1  0  0  0  0
  1  2  1  0  0  0  0
  3  1  1  0  0  0  0
  4  7  1  6  0  0  0
  4  5  1  0  0  0  0
  4  1  1  0  0  0  0
  4  6  1  0  0  0  0
  5  9  1  0  0  0  0
  5  6  1  0  0  0  0
  6 10  1  1  0  0  0
  8  5  1  0  0  0  0
 11  6  1  0  0  0  0
 11 16  1  0  0  0  0
 12 18  1  0  0  0  0
 12 11  1  0  0  0  0
 13 12  1  0  0  0  0
 13 14  1  0  0  0  0
 14 15  1  0  0  0  0
 15 22  1  0  0  0  0
 15 23  1  0  0  0  0
 16 15  1  0  0  0  0
 16 24  1  0  0  0  0
 17 12  1  0  0  0  0
 19 13  1  0  0  0  0
 20 13  1  0  0  0  0
 21 14  1  0  0  0  0
 25 16  1  0  0  0  0
 26 31  1  0  0  0  0
 27 26  1  0  0  0  0
 28 26  1  0  0  0  0
 29 34  1  0  0  0  0
 29 35  1  0  0  0  0
 30 29  2  0  0  0  0
 31 32  2  0  0  0  0
 31 30  1  0  0  0  0
 32 33  1  0  0  0  0
 33 39  1  0  0  0  0
 33 34  2  0  0  0  0
 36 30  1  0  0  0  0
 37 38  1  0  0  0  0
 38 39  2  0  0  0  0
 38 45  1  0  0  0  0
 39 40  1  0  0  0  0
 40 41  1  0  0  0  0
 40 42  2  0  0  0  0
 43 42  1  0  0  0  0
 43 44  1  0  0  0  0
 45 43  2  0  0  0  0
 46 45  1  0  0  0  0
M  END
>  <minimizedAffinity>
-5.11848307

>  <minimizedRMSD>
2.61415505

$$$$
