
 OpenBabel03252502473D

 46 49  0  0  1  0  0  0  0  0999 V2000
   48.2660   35.6530   41.6760 C   0  0  0  0  0  0  0  0  0  0  0  0
   48.3030   36.1250   42.6840 H   0  0  0  0  0  0  0  0  0  0  0  0
   48.2620   36.5220   40.9700 H   0  0  0  0  0  0  0  0  0  0  0  0
   49.4440   34.7560   41.4800 C   0  0  1  0  0  0  0  0  0  0  0  0
   50.3600   34.5310   42.6480 C   0  0  0  0  0  0  0  0  0  0  0  0
   49.4330   33.4690   42.1590 C   0  0  2  0  0  0  0  0  0  0  0  0
   49.9540   34.9030   40.5330 H   0  0  0  0  0  0  0  0  0  0  0  0
   51.4550   34.4650   42.5180 H   0  0  0  0  0  0  0  0  0  0  0  0
   50.0960   35.0880   43.5890 H   0  0  0  0  0  0  0  0  0  0  0  0
   48.7010   33.1440   42.8940 H   0  0  0  0  0  0  0  0  0  0  0  0
   50.1180   32.4160   41.4210 N   0  0  0  0  0  0  0  0  0  0  0  0
   49.5380   32.1100   40.1690 C   0  0  0  0  0  0  0  0  0  0  0  0
   50.3880   31.0020   39.5730 C   0  0  0  0  0  0  0  0  0  0  0  0
   50.3590   29.8260   40.3710 N   0  0  0  0  0  0  0  0  0  0  0  0
   50.1000   30.0600   41.7790 C   0  0  0  0  0  0  0  0  0  0  0  0
   50.7100   31.4030   42.1800 C   0  0  0  0  0  0  0  0  0  0  0  0
   49.4770   32.9690   39.5050 H   0  0  0  0  0  0  0  0  0  0  0  0
   48.5300   31.6810   40.3270 H   0  0  0  0  0  0  0  0  0  0  0  0
   51.3920   31.4270   39.3780 H   0  0  0  0  0  0  0  0  0  0  0  0
   49.9410   30.7970   38.5740 H   0  0  0  0  0  0  0  0  0  0  0  0
   51.2230   29.2560   40.2190 H   0  0  0  0  0  0  0  0  0  0  0  0
   50.6610   29.2480   42.3190 H   0  0  0  0  0  0  0  0  0  0  0  0
   49.0220   30.0420   41.9540 H   0  0  0  0  0  0  0  0  0  0  0  0
   50.6860   31.5620   43.2550 H   0  0  0  0  0  0  0  0  0  0  0  0
   51.7910   31.3110   41.8700 H   0  0  0  0  0  0  0  0  0  0  0  0
   47.0380   34.8030   41.5470 C   0  0  0  0  0  0  0  0  0  0  0  0
   47.1670   33.7900   41.2000 H   0  0  0  0  0  0  0  0  0  0  0  0
   46.3890   35.2930   40.7640 H   0  0  0  0  0  0  0  0  0  0  0  0
   44.6110   36.1060   44.0940 C   0  0  0  0  0  0  0  0  0  0  0  0
   45.3600   35.9980   42.8940 C   0  0  0  0  0  0  0  0  0  0  0  0
   46.2270   34.9470   42.8000 C   0  0  0  0  0  0  0  0  0  0  0  0
   46.3350   34.0690   43.8300 N   0  0  0  0  0  0  0  0  0  0  0  0
   45.6340   34.1820   44.9360 C   0  0  0  0  0  0  0  0  0  0  0  0
   44.7660   35.2000   45.0780 N   0  0  0  0  0  0  0  0  0  0  0  0
   43.9320   36.9260   44.1710 H   0  0  0  0  0  0  0  0  0  0  0  0
   45.2760   36.6910   42.0790 H   0  0  0  0  0  0  0  0  0  0  0  0
   47.3700   31.7300   44.4570 Cl  0  0  0  0  0  0  0  0  0  0  0  0
   46.5180   32.0860   45.9340 C   0  0  0  0  0  0  0  0  0  0  0  0
   45.7570   33.2320   46.0370 C   0  0  0  0  0  0  0  0  0  0  0  0
   45.1210   33.4270   47.2460 C   0  0  0  0  0  0  0  0  0  0  0  0
   44.5040   34.3170   47.3890 H   0  0  0  0  0  0  0  0  0  0  0  0
   45.1990   32.5660   48.3260 C   0  0  0  0  0  3  0  0  0  0  0  0
   45.9770   31.4390   48.1520 C   0  0  0  0  0  0  0  0  0  0  0  0
   46.0680   30.3500   49.5360 Cl  0  0  0  0  0  0  0  0  0  0  0  0
   46.6560   31.1640   46.9620 C   0  0  0  0  0  0  0  0  0  0  0  0
   47.2300   30.2690   46.9270 H   0  0  0  0  0  0  0  0  0  0  0  0
  1  2  1  0  0  0  0
  3  1  1  0  0  0  0
  4  7  1  6  0  0  0
  4  1  1  0  0  0  0
  4  6  1  0  0  0  0
  4  5  1  0  0  0  0
  5  9  1  0  0  0  0
  6  5  1  0  0  0  0
  6 10  1  1  0  0  0
  8  5  1  0  0  0  0
 11  6  1  0  0  0  0
 11 16  1  0  0  0  0
 12 18  1  0  0  0  0
 12 11  1  0  0  0  0
 13 12  1  0  0  0  0
 13 14  1  0  0  0  0
 14 15  1  0  0  0  0
 15 23  1  0  0  0  0
 15 16  1  0  0  0  0
 15 22  1  0  0  0  0
 16 24  1  0  0  0  0
 17 12  1  0  0  0  0
 19 13  1  0  0  0  0
 20 13  1  0  0  0  0
 21 14  1  0  0  0  0
 25 16  1  0  0  0  0
 26  1  1  0  0  0  0
 26 31  1  0  0  0  0
 27 26  1  0  0  0  0
 28 26  1  0  0  0  0
 29 35  1  0  0  0  0
 29 34  1  0  0  0  0
 30 29  2  0  0  0  0
 31 30  1  0  0  0  0
 31 32  2  0  0  0  0
 32 33  1  0  0  0  0
 33 34  2  0  0  0  0
 33 39  1  0  0  0  0
 36 30  1  0  0  0  0
 37 38  1  0  0  0  0
 38 39  2  0  0  0  0
 38 45  1  0  0  0  0
 39 40  1  0  0  0  0
 40 41  1  0  0  0  0
 40 42  2  0  0  0  0
 43 42  1  0  0  0  0
 43 44  1  0  0  0  0
 45 43  2  0  0  0  0
 46 45  1  0  0  0  0
M  END
>  <minimizedAffinity>
-5.53266144

>  <minimizedRMSD>
0.884828568

$$$$
