
 OpenBabel03242523533D

 46 49  0  0  1  0  0  0  0  0999 V2000
   42.8280   34.4450   38.8180 C   0  0  1  0  0  0  0  0  0  0  0  0
   42.9610   35.1530   40.1570 C   0  0  1  0  0  0  0  0  0  0  0  0
   41.6620   35.3870   40.6600 O   0  0  0  0  0  0  0  0  0  0  0  0
   40.7420   35.6910   39.6530 C   0  0  0  0  0  0  0  0  0  0  0  0
   40.4500   34.4950   38.7680 C   0  0  2  0  0  0  0  0  0  0  0  0
   41.6640   33.5200   38.9460 C   0  0  1  0  0  0  0  0  0  0  0  0
   43.7750   33.9300   38.5500 H   0  0  0  0  0  0  0  0  0  0  0  0
   43.5420   36.0800   40.1050 H   0  0  0  0  0  0  0  0  0  0  0  0
   41.0460   36.5770   39.0610 H   0  0  0  0  0  0  0  0  0  0  0  0
   39.8110   35.9350   40.1800 H   0  0  0  0  0  0  0  0  0  0  0  0
   39.5230   33.9560   39.0480 H   0  0  0  0  0  0  0  0  0  0  0  0
   41.4410   33.2970   40.0400 H   0  0  0  0  0  0  0  0  0  0  0  0
   42.6170   35.3710   37.7840 O   0  0  0  0  0  0  0  0  0  0  0  0
   43.2430   36.1320   37.8750 H   0  0  0  0  0  0  0  0  0  0  0  0
   40.4780   34.8740   37.4370 O   0  0  0  0  0  0  0  0  0  0  0  0
   39.6370   35.3330   37.2160 H   0  0  0  0  0  0  0  0  0  0  0  0
   43.4870   34.1910   41.0330 O   0  0  0  0  0  0  0  0  0  0  0  0
   44.6040   34.3440   41.7530 C   0  0  0  0  0  0  0  0  0  0  0  0
   45.8560   34.4520   41.1310 C   0  0  0  0  0  0  0  0  0  0  0  0
   46.9830   34.6100   41.9170 C   0  0  0  0  0  0  0  0  0  0  0  0
   46.8430   34.6570   43.2910 N   0  0  0  0  0  0  0  0  0  0  0  0
   45.6190   34.5480   43.8610 C   0  0  0  0  0  0  0  0  0  0  0  0
   44.5100   34.3930   43.0930 N   0  0  0  0  0  0  0  0  0  0  0  0
   45.9730   34.4160   40.0470 H   0  0  0  0  0  0  0  0  0  0  0  0
   45.5560   34.5900   44.9380 H   0  0  0  0  0  0  0  0  0  0  0  0
   48.3530   34.7090   41.3200 C   0  0  0  0  0  0  0  0  0  0  0  0
   49.0860   36.0350   41.5090 C   0  0  0  0  0  0  0  0  0  0  0  0
   49.5160   34.7010   42.1490 C   0  0  0  0  0  0  0  0  0  0  0  0
   48.3970   34.2840   40.2820 H   0  0  0  0  0  0  0  0  0  0  0  0
   49.7330   36.3210   40.6580 H   0  0  0  0  0  0  0  0  0  0  0  0
   48.6120   36.7970   42.1420 H   0  0  0  0  0  0  0  0  0  0  0  0
   50.4940   34.2870   41.8730 H   0  0  0  0  0  0  0  0  0  0  0  0
   49.3650   34.7070   43.2600 H   0  0  0  0  0  0  0  0  0  0  0  0
   41.5430   32.5460   38.0290 O   0  0  0  0  0  0  0  0  0  0  0  0
   40.8850   31.3830   38.0480 C   0  0  0  0  0  0  0  0  0  0  0  0
   40.6930   30.7240   39.1890 O   0  0  0  0  0  0  0  0  0  0  0  0
   42.6670   29.6850   36.2850 Cl  0  0  0  0  0  0  0  0  0  0  0  0
   40.9160   29.7390   36.0880 C   0  0  0  0  0  0  0  0  0  0  0  0
   40.2360   30.5610   36.9590 C   0  0  0  0  0  0  0  0  0  0  0  0
   38.8830   30.5480   36.7410 C   0  0  0  0  0  0  0  0  0  0  0  0
   38.2160   31.1510   37.3540 H   0  0  0  0  0  0  0  0  0  0  0  0
   38.2840   29.8050   35.7750 C   0  0  0  0  0  0  0  0  0  0  0  0
   39.0270   29.0140   34.9540 C   0  0  0  0  0  0  0  0  0  0  0  0
   38.2560   28.0640   33.7190 Cl  0  0  0  0  0  0  0  0  0  0  0  0
   40.3970   28.9570   35.0900 C   0  0  0  0  0  0  0  0  0  0  0  0
   41.0230   28.3550   34.4720 H   0  0  0  0  0  0  0  0  0  0  0  0
  1  7  1  6  0  0  0
  1  6  1  0  0  0  0
  1  2  1  0  0  0  0
  2  8  1  6  0  0  0
  2  3  1  0  0  0  0
  2 17  1  0  0  0  0
  4 10  1  0  0  0  0
  4  3  1  0  0  0  0
  5  6  1  0  0  0  0
  5 11  1  1  0  0  0
  5  4  1  0  0  0  0
  6 12  1  1  0  0  0
  9  4  1  0  0  0  0
 13 14  1  0  0  0  0
 13  1  1  0  0  0  0
 15  5  1  0  0  0  0
 16 15  1  0  0  0  0
 17 18  1  0  0  0  0
 18 23  1  0  0  0  0
 19 18  2  0  0  0  0
 19 20  1  0  0  0  0
 20 21  2  0  0  0  0
 21 22  1  0  0  0  0
 22 25  1  0  0  0  0
 23 22  2  0  0  0  0
 24 19  1  0  0  0  0
 26 27  1  0  0  0  0
 26 20  1  0  0  0  0
 26 28  1  0  0  0  0
 27 31  1  0  0  0  0
 27 28  1  0  0  0  0
 28 33  1  0  0  0  0
 29 26  1  0  0  0  0
 30 27  1  0  0  0  0
 32 28  1  0  0  0  0
 34 35  1  0  0  0  0
 34  6  1  0  0  0  0
 35 36  2  0  0  0  0
 38 37  1  0  0  0  0
 38 39  1  0  0  0  0
 39 35  1  0  0  0  0
 40 39  2  0  0  0  0
 40 41  1  0  0  0  0
 42 40  1  0  0  0  0
 43 45  1  0  0  0  0
 43 42  2  0  0  0  0
 44 43  1  0  0  0  0
 45 38  2  0  0  0  0
 46 45  1  0  0  0  0
M  END
>  <minimizedAffinity>
-6.37048531

>  <minimizedRMSD>
2.4821136

$$$$
