
 OpenBabel03252506423D

 41 44  0  0  1  0  0  0  0  0999 V2000
   49.2490   33.3670   41.2020 N   0  0  1  0  0  0  0  0  0  0  0  0
   50.5230   32.9910   41.7520 C   0  0  0  0  0  0  0  0  0  0  0  0
   51.0580   31.6820   41.2970 C   0  0  0  0  0  0  0  0  0  0  0  0
   50.1450   30.5670   41.7570 C   0  0  0  0  0  0  0  0  0  0  0  0
   48.7330   31.0200   41.7360 C   0  0  0  0  0  0  0  0  0  0  0  0
   48.5060   32.1780   40.8280 C   0  0  2  0  0  0  0  0  0  0  0  0
   50.4560   32.9410   42.8690 H   0  0  0  0  0  0  0  0  0  0  0  0
   51.2740   33.8140   41.5780 H   0  0  0  0  0  0  0  0  0  0  0  0
   52.0170   31.5330   41.8840 H   0  0  0  0  0  0  0  0  0  0  0  0
   51.3460   31.5760   40.2600 H   0  0  0  0  0  0  0  0  0  0  0  0
   50.2770   29.7300   41.0210 H   0  0  0  0  0  0  0  0  0  0  0  0
   50.4680   30.1300   42.7350 H   0  0  0  0  0  0  0  0  0  0  0  0
   48.4790   31.3770   42.7680 H   0  0  0  0  0  0  0  0  0  0  0  0
   47.9980   30.2340   41.5210 H   0  0  0  0  0  0  0  0  0  0  0  0
   47.4370   32.4920   41.0820 H   0  0  0  0  0  0  0  0  0  0  0  0
   48.3110   34.4030   38.5930 Cl  0  0  0  0  0  0  0  0  0  0  0  0
   48.4280   32.7110   38.2690 C   0  0  0  0  0  0  0  0  0  0  0  0
   48.4680   31.9120   39.3920 C   0  0  0  0  0  0  0  0  0  0  0  0
   48.5210   30.5310   39.1560 C   0  0  0  0  0  0  0  0  0  0  0  0
   48.5570   29.6940   39.8670 H   0  0  0  0  0  0  0  0  0  0  0  0
   48.5340   30.0350   37.8460 C   0  0  0  0  0  3  0  0  0  0  0  0
   48.4950   30.8830   36.7580 C   0  0  0  0  0  0  0  0  0  0  0  0
   48.5100   30.3060   35.1040 Cl  0  0  0  0  0  0  0  0  0  0  0  0
   48.4420   32.2360   36.9960 C   0  0  0  0  0  0  0  0  0  0  0  0
   48.4080   32.9660   36.1980 H   0  0  0  0  0  0  0  0  0  0  0  0
   47.2500   34.8250   41.9530 C   0  0  1  0  0  0  0  0  0  0  0  0
   48.4540   35.6180   41.8370 C   0  0  0  0  0  0  0  0  0  0  0  0
   48.6000   34.1700   42.2020 C   0  0  2  0  0  0  0  0  0  0  0  0
   46.7480   34.3390   41.0630 H   0  0  0  0  0  0  0  0  0  0  0  0
   48.7100   35.9490   40.7980 H   0  0  0  0  0  0  0  0  0  0  0  0
   48.6320   36.4150   42.5810 H   0  0  0  0  0  0  0  0  0  0  0  0
   48.8360   33.9540   43.2580 H   0  0  0  0  0  0  0  0  0  0  0  0
   45.4760   36.1000   43.1940 C   0  0  0  0  0  0  0  0  0  0  0  0
   46.3290   34.9650   43.1000 C   0  0  0  0  0  0  0  0  0  0  0  0
   46.2590   34.0230   44.1080 C   0  0  0  0  0  0  0  0  0  0  0  0
   45.3810   34.2360   45.1290 N   0  0  0  0  0  0  0  0  0  0  0  0
   44.5800   35.3150   45.2030 C   0  0  0  0  0  0  0  0  0  0  0  0
   44.6150   36.2660   44.2340 N   0  0  0  0  0  0  0  0  0  0  0  0
   45.5760   36.8110   42.3680 H   0  0  0  0  0  0  0  0  0  0  0  0
   46.8870   33.1410   44.0840 H   0  0  0  0  0  0  0  0  0  0  0  0
   43.8900   35.4580   46.0260 H   0  0  0  0  0  0  0  0  0  0  0  0
  1  2  1  1  0  0  0
  1 28  1  0  0  0  0
  2  7  1  0  0  0  0
  3  2  1  0  0  0  0
  3  4  1  0  0  0  0
  3  9  1  0  0  0  0
  4 12  1  0  0  0  0
  5  4  1  0  0  0  0
  5 13  1  0  0  0  0
  6 15  1  1  0  0  0
  6  1  1  0  0  0  0
  6  5  1  0  0  0  0
  8  2  1  0  0  0  0
 10  3  1  0  0  0  0
 11  4  1  0  0  0  0
 14  5  1  0  0  0  0
 17 16  1  0  0  0  0
 17 18  1  0  0  0  0
 18  6  1  0  0  0  0
 19 18  2  0  0  0  0
 19 20  1  0  0  0  0
 21 19  1  0  0  0  0
 22 24  1  0  0  0  0
 22 21  2  0  0  0  0
 23 22  1  0  0  0  0
 24 17  2  0  0  0  0
 25 24  1  0  0  0  0
 26 29  1  6  0  0  0
 26 28  1  0  0  0  0
 26 34  1  0  0  0  0
 27 26  1  0  0  0  0
 27 28  1  0  0  0  0
 27 31  1  0  0  0  0
 28 32  1  1  0  0  0
 30 27  1  0  0  0  0
 33 38  1  0  0  0  0
 34 33  2  0  0  0  0
 34 35  1  0  0  0  0
 35 36  2  0  0  0  0
 36 37  1  0  0  0  0
 37 41  1  0  0  0  0
 38 37  2  0  0  0  0
 39 33  1  0  0  0  0
 40 35  1  0  0  0  0
M  END
>  <minimizedAffinity>
-5.1965065

>  <minimizedRMSD>
0.889136374

$$$$
