
 OpenBabel03242523533D

 46 49  0  0  1  0  0  0  0  0999 V2000
   42.7810   34.3790   38.8840 C   0  0  1  0  0  0  0  0  0  0  0  0
   43.0410   35.1820   40.1480 C   0  0  1  0  0  0  0  0  0  0  0  0
   41.7970   35.6240   40.6500 O   0  0  0  0  0  0  0  0  0  0  0  0
   40.8920   35.9500   39.6360 C   0  0  0  0  0  0  0  0  0  0  0  0
   40.4270   34.7250   38.8720 C   0  0  2  0  0  0  0  0  0  0  0  0
   41.5150   33.6250   39.1190 C   0  0  1  0  0  0  0  0  0  0  0  0
   43.6470   33.7260   38.6480 H   0  0  0  0  0  0  0  0  0  0  0  0
   43.7310   36.0200   39.9980 H   0  0  0  0  0  0  0  0  0  0  0  0
   41.2870   36.7330   38.9580 H   0  0  0  0  0  0  0  0  0  0  0  0
   40.0150   36.3570   40.1550 H   0  0  0  0  0  0  0  0  0  0  0  0
   39.4490   34.3360   39.2180 H   0  0  0  0  0  0  0  0  0  0  0  0
   41.2980   33.5320   40.2330 H   0  0  0  0  0  0  0  0  0  0  0  0
   42.6560   35.2260   37.7710 O   0  0  0  0  0  0  0  0  0  0  0  0
   43.3750   35.9070   37.7790 H   0  0  0  0  0  0  0  0  0  0  0  0
   40.4620   34.9750   37.5120 O   0  0  0  0  0  0  0  0  0  0  0  0
   39.6790   35.5160   37.2640 H   0  0  0  0  0  0  0  0  0  0  0  0
   43.4690   34.2450   41.1000 O   0  0  0  0  0  0  0  0  0  0  0  0
   44.5960   34.3420   41.8130 C   0  0  0  0  0  0  0  0  0  0  0  0
   45.8420   34.4710   41.1810 C   0  0  0  0  0  0  0  0  0  0  0  0
   46.9810   34.5670   41.9600 C   0  0  0  0  0  0  0  0  0  0  0  0
   46.8590   34.5350   43.3370 N   0  0  0  0  0  0  0  0  0  0  0  0
   45.6410   34.4090   43.9150 C   0  0  0  0  0  0  0  0  0  0  0  0
   44.5200   34.3130   43.1550 N   0  0  0  0  0  0  0  0  0  0  0  0
   45.9450   34.4970   40.0960 H   0  0  0  0  0  0  0  0  0  0  0  0
   45.5920   34.3880   44.9940 H   0  0  0  0  0  0  0  0  0  0  0  0
   48.3440   34.6850   41.3510 C   0  0  0  0  0  0  0  0  0  0  0  0
   49.0580   36.0230   41.5270 C   0  0  0  0  0  0  0  0  0  0  0  0
   49.5140   34.6990   42.1710 C   0  0  0  0  0  0  0  0  0  0  0  0
   48.3870   34.2550   40.3150 H   0  0  0  0  0  0  0  0  0  0  0  0
   49.6940   36.3130   40.6690 H   0  0  0  0  0  0  0  0  0  0  0  0
   48.5780   36.7810   42.1600 H   0  0  0  0  0  0  0  0  0  0  0  0
   50.4960   34.2990   41.8890 H   0  0  0  0  0  0  0  0  0  0  0  0
   49.3720   34.7100   43.2830 H   0  0  0  0  0  0  0  0  0  0  0  0
   41.2450   32.5940   38.3000 O   0  0  0  0  0  0  0  0  0  0  0  0
   40.2960   31.6560   38.3330 C   0  0  0  0  0  0  0  0  0  0  0  0
   39.3100   31.6480   37.4370 O   0  0  0  0  0  0  0  0  0  0  0  0
   38.6820   32.0930   40.8560 Cl  0  0  0  0  0  0  0  0  0  0  0  0
   39.3420   30.5200   40.4170 C   0  0  0  0  0  0  0  0  0  0  0  0
   40.0620   30.4730   39.2440 C   0  0  0  0  0  0  0  0  0  0  0  0
   40.5420   29.2180   38.9740 C   0  0  0  0  0  0  0  0  0  0  0  0
   41.1290   29.0280   38.0780 H   0  0  0  0  0  0  0  0  0  0  0  0
   40.3290   28.1420   39.7760 C   0  0  0  0  0  3  0  0  0  0  0  0
   39.6050   28.2700   40.9230 C   0  0  0  0  0  0  0  0  0  0  0  0
   39.3350   26.8920   41.9460 Cl  0  0  0  0  0  0  0  0  0  0  0  0
   39.0790   29.4910   41.2840 C   0  0  0  0  0  0  0  0  0  0  0  0
   38.5060   29.6430   42.1700 H   0  0  0  0  0  0  0  0  0  0  0  0
  1  7  1  6  0  0  0
  1  6  1  0  0  0  0
  1  2  1  0  0  0  0
  2  8  1  6  0  0  0
  2  3  1  0  0  0  0
  2 17  1  0  0  0  0
  4 10  1  0  0  0  0
  4  3  1  0  0  0  0
  5  6  1  0  0  0  0
  5 11  1  1  0  0  0
  5  4  1  0  0  0  0
  6 12  1  1  0  0  0
  9  4  1  0  0  0  0
 13 14  1  0  0  0  0
 13  1  1  0  0  0  0
 15  5  1  0  0  0  0
 16 15  1  0  0  0  0
 17 18  1  0  0  0  0
 18 23  1  0  0  0  0
 19 18  2  0  0  0  0
 19 20  1  0  0  0  0
 20 21  2  0  0  0  0
 21 22  1  0  0  0  0
 22 25  1  0  0  0  0
 23 22  2  0  0  0  0
 24 19  1  0  0  0  0
 26 27  1  0  0  0  0
 26 20  1  0  0  0  0
 26 28  1  0  0  0  0
 27 31  1  0  0  0  0
 27 28  1  0  0  0  0
 28 33  1  0  0  0  0
 29 26  1  0  0  0  0
 30 27  1  0  0  0  0
 32 28  1  0  0  0  0
 34 35  1  0  0  0  0
 34  6  1  0  0  0  0
 35 39  1  0  0  0  0
 36 35  2  0  0  0  0
 38 37  1  0  0  0  0
 38 45  1  0  0  0  0
 39 38  2  0  0  0  0
 40 39  1  0  0  0  0
 40 42  2  0  0  0  0
 41 40  1  0  0  0  0
 42 43  1  0  0  0  0
 43 45  2  0  0  0  0
 43 44  1  0  0  0  0
 45 46  1  0  0  0  0
M  END
>  <minimizedAffinity>
-6.25723076

>  <minimizedRMSD>
1.56966865

$$$$
