
 OpenBabel03252502443D

 32 34  0  0  1  0  0  0  0  0999 V2000
   46.2220   34.5740   41.7030 C   0  0  1  0  0  0  0  0  0  0  0  0
   47.1360   35.5160   42.4060 C   0  0  0  0  0  0  0  0  0  0  0  0
   47.1190   34.0610   42.7330 C   0  0  2  0  0  0  0  0  0  0  0  0
   46.3810   34.3410   40.6140 H   0  0  0  0  0  0  0  0  0  0  0  0
   46.7720   36.2970   43.1040 H   0  0  0  0  0  0  0  0  0  0  0  0
   47.8860   35.9610   41.7220 H   0  0  0  0  0  0  0  0  0  0  0  0
   46.9420   33.5660   43.6620 H   0  0  0  0  0  0  0  0  0  0  0  0
   46.7970   31.6920   40.7070 Cl  0  0  0  0  0  0  0  0  0  0  0  0
   48.3210   32.3170   41.2950 C   0  0  0  0  0  0  0  0  0  0  0  0
   48.3240   33.3780   42.1690 C   0  0  0  0  0  0  0  0  0  0  0  0
   49.4820   33.9380   42.6600 C   0  0  0  0  0  0  0  0  0  0  0  0
   49.5730   34.7660   43.3440 H   0  0  0  0  0  0  0  0  0  0  0  0
   50.7280   33.4340   42.2790 C   0  0  0  0  0  3  0  0  0  0  0  0
   50.7410   32.3580   41.3940 C   0  0  0  0  0  0  0  0  0  0  0  0
   52.1930   31.5670   40.7840 Cl  0  0  0  0  0  0  0  0  0  0  0  0
   49.5550   31.8230   40.9230 C   0  0  0  0  0  0  0  0  0  0  0  0
   49.5180   30.9740   40.2230 H   0  0  0  0  0  0  0  0  0  0  0  0
   44.7630   34.6500   42.0380 C   0  0  0  0  0  0  0  0  0  0  0  0
   44.4940   35.5060   42.6540 H   0  0  0  0  0  0  0  0  0  0  0  0
   44.5630   33.6850   42.6030 H   0  0  0  0  0  0  0  0  0  0  0  0
   44.0280   34.5870   40.7030 C   0  0  0  0  0  0  0  0  0  0  0  0
   44.1950   35.4280   40.0480 H   0  0  0  0  0  0  0  0  0  0  0  0
   44.2770   33.5750   40.2560 H   0  0  0  0  0  0  0  0  0  0  0  0
   40.3550   34.9450   41.4100 C   0  0  0  0  0  0  0  0  0  0  0  0
   41.7000   35.2870   41.1030 C   0  0  0  0  0  0  0  0  0  0  0  0
   42.5980   34.2610   40.9770 C   0  0  0  0  0  0  0  0  0  0  0  0
   42.1690   32.9790   41.1440 N   0  0  0  0  0  0  0  0  0  0  0  0
   40.9150   32.6770   41.4290 C   0  0  0  0  0  0  0  0  0  0  0  0
   40.0050   33.6460   41.5630 N   0  0  0  0  0  0  0  0  0  0  0  0
   39.5710   35.6800   41.5310 H   0  0  0  0  0  0  0  0  0  0  0  0
   41.8230   36.3480   40.9990 H   0  0  0  0  0  0  0  0  0  0  0  0
   40.7440   31.6180   41.5290 H   0  0  0  0  0  0  0  0  0  0  0  0
  1  4  1  6  0  0  0
  1 18  1  0  0  0  0
  1  2  1  0  0  0  0
  1  3  1  0  0  0  0
  2  3  1  0  0  0  0
  2  5  1  0  0  0  0
  3  7  1  1  0  0  0
  6  2  1  0  0  0  0
  8  9  1  0  0  0  0
  9 10  1  0  0  0  0
 10 11  2  0  0  0  0
 10  3  1  0  0  0  0
 11 12  1  0  0  0  0
 13 11  1  0  0  0  0
 14 13  2  0  0  0  0
 15 14  1  0  0  0  0
 16  9  2  0  0  0  0
 16 14  1  0  0  0  0
 17 16  1  0  0  0  0
 18 20  1  0  0  0  0
 18 19  1  0  0  0  0
 21 26  1  0  0  0  0
 21 18  1  0  0  0  0
 22 21  1  0  0  0  0
 23 21  1  0  0  0  0
 24 30  1  0  0  0  0
 24 29  1  0  0  0  0
 25 24  2  0  0  0  0
 26 25  1  0  0  0  0
 26 27  2  0  0  0  0
 27 28  1  0  0  0  0
 28 32  1  0  0  0  0
 28 29  2  0  0  0  0
 31 25  1  0  0  0  0
M  END
>  <minimizedAffinity>
-4.56569242

>  <minimizedRMSD>
3.96309066

$$$$
