
 OpenBabel03242518143D

 32 34  0  0  0  0  0  0  0  0999 V2000
   37.2710   26.7080   42.6390 C   0  0  0  0  0  0  0  0  0  0  0  0
   37.3020   27.6240   43.7330 C   0  0  0  0  0  0  0  0  0  0  0  0
   37.6990   28.9110   43.4830 C   0  0  0  0  0  0  0  0  0  0  0  0
   38.0660   29.2780   42.1320 C   0  0  0  0  0  0  0  0  0  0  0  0
   37.8410   27.7550   41.1820 S   0  0  0  0  0  0  0  0  0  0  0  0
   37.0110   27.2570   44.6980 H   0  0  0  0  0  0  0  0  0  0  0  0
   37.7590   29.6630   44.2170 H   0  0  0  0  0  0  0  0  0  0  0  0
   35.8910   30.7880   40.7040 Cl  0  0  0  0  0  0  0  0  0  0  0  0
   37.5800   31.2580   40.9440 C   0  0  0  0  0  0  0  0  0  0  0  0
   38.4920   30.4800   41.6190 C   0  0  0  0  0  0  0  0  0  0  0  0
   39.7860   30.8890   41.7780 C   0  0  0  0  0  0  0  0  0  0  0  0
   40.4790   30.2620   42.3100 H   0  0  0  0  0  0  0  0  0  0  0  0
   40.1840   32.1190   41.2410 C   0  0  0  0  0  3  0  0  0  0  0  0
   39.2570   32.9080   40.5560 C   0  0  0  0  0  0  0  0  0  0  0  0
   39.8140   34.4280   39.9130 Cl  0  0  0  0  0  0  0  0  0  0  0  0
   37.9400   32.4890   40.3970 C   0  0  0  0  0  0  0  0  0  0  0  0
   37.2230   33.0980   39.8680 H   0  0  0  0  0  0  0  0  0  0  0  0
   36.9480   25.3290   42.4490 C   0  0  0  0  0  0  0  0  0  0  0  0
   36.0930   25.2530   41.7330 H   0  0  0  0  0  0  0  0  0  0  0  0
   36.5990   24.8560   43.3950 H   0  0  0  0  0  0  0  0  0  0  0  0
   38.0570   24.4580   41.9020 C   0  0  0  0  0  0  0  0  0  0  0  0
   38.6340   23.9210   42.6480 H   0  0  0  0  0  0  0  0  0  0  0  0
   38.7780   25.1450   41.3750 H   0  0  0  0  0  0  0  0  0  0  0  0
   37.5000   23.5770   40.8820 C   0  0  0  0  0  0  0  0  0  0  0  0
   36.2490   23.8040   40.3100 C   0  0  0  0  0  0  0  0  0  0  0  0
   35.7880   22.9220   39.3500 C   0  0  0  0  0  0  0  0  0  0  0  0
   36.5810   21.8770   39.0130 N   0  0  0  0  0  0  0  0  0  0  0  0
   37.7840   21.6770   39.5790 C   0  0  0  0  0  0  0  0  0  0  0  0
   38.2170   22.5200   40.4910 N   0  0  0  0  0  0  0  0  0  0  0  0
   35.7230   24.6730   40.6700 H   0  0  0  0  0  0  0  0  0  0  0  0
   34.8160   23.1150   38.9180 H   0  0  0  0  0  0  0  0  0  0  0  0
   38.3350   20.8090   39.2340 H   0  0  0  0  0  0  0  0  0  0  0  0
  1  2  2  0  0  0  0
  2  6  1  0  0  0  0
  3  2  1  0  0  0  0
  3  7  1  0  0  0  0
  4  3  2  0  0  0  0
  5  4  1  0  0  0  0
  5  1  1  0  0  0  0
  8  9  1  0  0  0  0
  9 10  1  0  0  0  0
 10 11  2  0  0  0  0
 10  4  1  0  0  0  0
 11 12  1  0  0  0  0
 13 11  1  0  0  0  0
 14 13  2  0  0  0  0
 15 14  1  0  0  0  0
 16 14  1  0  0  0  0
 16  9  2  0  0  0  0
 17 16  1  0  0  0  0
 18  1  1  0  0  0  0
 18 20  1  0  0  0  0
 19 18  1  0  0  0  0
 21 18  1  0  0  0  0
 21 22  1  0  0  0  0
 23 21  1  0  0  0  0
 24 21  1  0  0  0  0
 25 30  1  0  0  0  0
 25 24  2  0  0  0  0
 26 25  1  0  0  0  0
 27 26  2  0  0  0  0
 27 28  1  0  0  0  0
 28 29  2  0  0  0  0
 29 24  1  0  0  0  0
 31 26  1  0  0  0  0
 32 28  1  0  0  0  0
M  END
>  <minimizedAffinity>
-5.42008066

$$$$

 OpenBabel03242518143D

 32 34  0  0  0  0  0  0  0  0999 V2000
   38.5120   29.1020   42.6990 C   0  0  0  0  0  0  0  0  0  0  0  0
   37.5150   28.4220   43.4630 C   0  0  0  0  0  0  0  0  0  0  0  0
   37.1170   27.1820   43.0390 C   0  0  0  0  0  0  0  0  0  0  0  0
   37.7190   26.6240   41.8480 C   0  0  0  0  0  0  0  0  0  0  0  0
   38.8900   27.8930   41.3070 S   0  0  0  0  0  0  0  0  0  0  0  0
   37.1290   28.9190   44.3310 H   0  0  0  0  0  0  0  0  0  0  0  0
   36.3900   26.5980   43.5260 H   0  0  0  0  0  0  0  0  0  0  0  0
   39.3840   24.3880   42.9800 Cl  0  0  0  0  0  0  0  0  0  0  0  0
   38.2130   24.3250   41.6550 C   0  0  0  0  0  0  0  0  0  0  0  0
   37.5040   25.4210   41.2190 C   0  0  0  0  0  0  0  0  0  0  0  0
   36.6100   25.3190   40.1910 C   0  0  0  0  0  0  0  0  0  0  0  0
   36.0690   26.1920   39.8700 H   0  0  0  0  0  0  0  0  0  0  0  0
   36.4170   24.0770   39.5750 C   0  0  0  0  0  3  0  0  0  0  0  0
   37.1360   22.9650   40.0170 C   0  0  0  0  0  0  0  0  0  0  0  0
   36.8510   21.4490   39.2100 Cl  0  0  0  0  0  0  0  0  0  0  0  0
   38.0460   23.0720   41.0650 C   0  0  0  0  0  0  0  0  0  0  0  0
   38.6020   22.2130   41.4080 H   0  0  0  0  0  0  0  0  0  0  0  0
   39.1870   30.3600   42.7610 C   0  0  0  0  0  0  0  0  0  0  0  0
   39.9860   30.3030   43.5400 H   0  0  0  0  0  0  0  0  0  0  0  0
   38.5020   31.1770   43.0820 H   0  0  0  0  0  0  0  0  0  0  0  0
   39.8520   30.8180   41.4820 C   0  0  0  0  0  0  0  0  0  0  0  0
   40.1510   30.0250   40.8060 H   0  0  0  0  0  0  0  0  0  0  0  0
   40.7970   31.3530   41.7840 H   0  0  0  0  0  0  0  0  0  0  0  0
   38.9990   31.8110   40.8400 C   0  0  0  0  0  0  0  0  0  0  0  0
   37.8640   31.4530   40.1140 C   0  0  0  0  0  0  0  0  0  0  0  0
   37.1050   32.4530   39.5320 C   0  0  0  0  0  0  0  0  0  0  0  0
   37.5070   33.7350   39.6980 N   0  0  0  0  0  0  0  0  0  0  0  0
   38.6070   34.0570   40.4020 C   0  0  0  0  0  0  0  0  0  0  0  0
   39.3240   33.1020   40.9540 N   0  0  0  0  0  0  0  0  0  0  0  0
   37.6590   30.3970   40.0610 H   0  0  0  0  0  0  0  0  0  0  0  0
   36.2280   32.1550   38.9730 H   0  0  0  0  0  0  0  0  0  0  0  0
   38.8360   35.1140   40.4710 H   0  0  0  0  0  0  0  0  0  0  0  0
  1 18  1  0  0  0  0
  1  2  2  0  0  0  0
  2  6  1  0  0  0  0
  3  2  1  0  0  0  0
  3  7  1  0  0  0  0
  4  3  2  0  0  0  0
  5  4  1  0  0  0  0
  5  1  1  0  0  0  0
  9  8  1  0  0  0  0
 10  9  1  0  0  0  0
 10  4  1  0  0  0  0
 11 10  2  0  0  0  0
 12 11  1  0  0  0  0
 13 14  2  0  0  0  0
 13 11  1  0  0  0  0
 14 16  1  0  0  0  0
 15 14  1  0  0  0  0
 16 17  1  0  0  0  0
 16  9  2  0  0  0  0
 18 20  1  0  0  0  0
 18 19  1  0  0  0  0
 21 23  1  0  0  0  0
 21 18  1  0  0  0  0
 22 21  1  0  0  0  0
 24 29  1  0  0  0  0
 24 21  1  0  0  0  0
 25 24  2  0  0  0  0
 26 27  2  0  0  0  0
 26 25  1  0  0  0  0
 27 28  1  0  0  0  0
 28 32  1  0  0  0  0
 28 29  2  0  0  0  0
 30 25  1  0  0  0  0
 31 26  1  0  0  0  0
M  END
>  <minimizedAffinity>
-5.41757011

$$$$

 OpenBabel03242518143D

 32 34  0  0  0  0  0  0  0  0999 V2000
   37.0760   26.4970   42.5330 C   0  0  0  0  0  0  0  0  0  0  0  0
   37.1070   27.3890   43.6480 C   0  0  0  0  0  0  0  0  0  0  0  0
   37.3910   28.7070   43.4070 C   0  0  0  0  0  0  0  0  0  0  0  0
   37.6450   29.1300   42.0470 C   0  0  0  0  0  0  0  0  0  0  0  0
   37.4750   27.6140   41.0730 S   0  0  0  0  0  0  0  0  0  0  0  0
   36.9050   26.9800   44.6180 H   0  0  0  0  0  0  0  0  0  0  0  0
   37.4410   29.4450   44.1550 H   0  0  0  0  0  0  0  0  0  0  0  0
   40.4790   29.9710   42.6060 Cl  0  0  0  0  0  0  0  0  0  0  0  0
   39.2200   30.8600   41.7370 C   0  0  0  0  0  0  0  0  0  0  0  0
   37.9480   30.3710   41.5410 C   0  0  0  0  0  0  0  0  0  0  0  0
   37.0100   31.0980   40.8630 C   0  0  0  0  0  0  0  0  0  0  0  0
   36.0240   30.6930   40.7240 H   0  0  0  0  0  0  0  0  0  0  0  0
   37.3560   32.3580   40.3620 C   0  0  0  0  0  3  0  0  0  0  0  0
   38.6460   32.8540   40.5600 C   0  0  0  0  0  0  0  0  0  0  0  0
   39.0120   34.4280   39.9130 Cl  0  0  0  0  0  0  0  0  0  0  0  0
   39.5990   32.1110   41.2520 C   0  0  0  0  0  0  0  0  0  0  0  0
   40.5960   32.4930   41.4060 H   0  0  0  0  0  0  0  0  0  0  0  0
   36.8450   25.1020   42.3280 C   0  0  0  0  0  0  0  0  0  0  0  0
   35.9130   24.9750   41.7230 H   0  0  0  0  0  0  0  0  0  0  0  0
   36.6620   24.5700   43.2890 H   0  0  0  0  0  0  0  0  0  0  0  0
   37.9410   24.3480   41.6080 C   0  0  0  0  0  0  0  0  0  0  0  0
   38.6700   23.8650   42.2500 H   0  0  0  0  0  0  0  0  0  0  0  0
   38.5070   25.1060   40.9960 H   0  0  0  0  0  0  0  0  0  0  0  0
   37.3290   23.4220   40.6610 C   0  0  0  0  0  0  0  0  0  0  0  0
   37.9730   22.2610   40.2390 C   0  0  0  0  0  0  0  0  0  0  0  0
   37.3280   21.4330   39.3370 C   0  0  0  0  0  0  0  0  0  0  0  0
   36.0960   21.7970   38.9090 N   0  0  0  0  0  0  0  0  0  0  0  0
   35.4940   22.9230   39.3300 C   0  0  0  0  0  0  0  0  0  0  0  0
   36.1120   23.7050   40.1880 N   0  0  0  0  0  0  0  0  0  0  0  0
   38.9510   22.0920   40.6580 H   0  0  0  0  0  0  0  0  0  0  0  0
   37.8450   20.5370   39.0220 H   0  0  0  0  0  0  0  0  0  0  0  0
   34.5070   23.1170   38.9230 H   0  0  0  0  0  0  0  0  0  0  0  0
  1  2  2  0  0  0  0
  2  6  1  0  0  0  0
  3  2  1  0  0  0  0
  3  7  1  0  0  0  0
  4  3  2  0  0  0  0
  5  4  1  0  0  0  0
  5  1  1  0  0  0  0
  9  8  1  0  0  0  0
 10  9  1  0  0  0  0
 10  4  1  0  0  0  0
 11 10  2  0  0  0  0
 12 11  1  0  0  0  0
 13 14  2  0  0  0  0
 13 11  1  0  0  0  0
 14 16  1  0  0  0  0
 15 14  1  0  0  0  0
 16 17  1  0  0  0  0
 16  9  2  0  0  0  0
 18  1  1  0  0  0  0
 18 20  1  0  0  0  0
 19 18  1  0  0  0  0
 21 22  1  0  0  0  0
 21 18  1  0  0  0  0
 23 21  1  0  0  0  0
 24 21  1  0  0  0  0
 25 30  1  0  0  0  0
 25 24  1  0  0  0  0
 26 25  2  0  0  0  0
 27 28  2  0  0  0  0
 27 26  1  0  0  0  0
 28 29  1  0  0  0  0
 29 24  2  0  0  0  0
 31 26  1  0  0  0  0
 32 28  1  0  0  0  0
M  END
>  <minimizedAffinity>
-5.40838957

$$$$

 OpenBabel03242518143D

 32 34  0  0  0  0  0  0  0  0999 V2000
   36.8290   29.3830   41.3060 C   0  0  0  0  0  0  0  0  0  0  0  0
   36.1610   30.4090   40.5720 C   0  0  0  0  0  0  0  0  0  0  0  0
   36.9300   31.3370   39.9200 C   0  0  0  0  0  0  0  0  0  0  0  0
   38.3710   31.2330   40.0050 C   0  0  0  0  0  0  0  0  0  0  0  0
   38.6500   29.7750   41.0400 S   0  0  0  0  0  0  0  0  0  0  0  0
   35.0890   30.4020   40.5690 H   0  0  0  0  0  0  0  0  0  0  0  0
   36.5390   32.1340   39.3550 H   0  0  0  0  0  0  0  0  0  0  0  0
   39.6220   30.0120   37.5570 Cl  0  0  0  0  0  0  0  0  0  0  0  0
   39.9980   31.5590   38.3280 C   0  0  0  0  0  0  0  0  0  0  0  0
   39.3550   32.0190   39.4550 C   0  0  0  0  0  0  0  0  0  0  0  0
   39.6830   33.2220   40.0130 C   0  0  0  0  0  0  0  0  0  0  0  0
   39.1640   33.5580   40.8930 H   0  0  0  0  0  0  0  0  0  0  0  0
   40.6910   33.9940   39.4240 C   0  0  0  0  0  3  0  0  0  0  0  0
   41.3440   33.5280   38.2810 C   0  0  0  0  0  0  0  0  0  0  0  0
   42.5890   34.5360   37.5970 Cl  0  0  0  0  0  0  0  0  0  0  0  0
   41.0070   32.3020   37.7150 C   0  0  0  0  0  0  0  0  0  0  0  0
   41.5110   31.9410   36.8320 H   0  0  0  0  0  0  0  0  0  0  0  0
   36.4450   28.2660   42.1090 C   0  0  0  0  0  0  0  0  0  0  0  0
   36.5490   27.3320   41.5040 H   0  0  0  0  0  0  0  0  0  0  0  0
   35.3730   28.3220   42.4050 H   0  0  0  0  0  0  0  0  0  0  0  0
   37.2420   28.0560   43.3780 C   0  0  0  0  0  0  0  0  0  0  0  0
   36.6590   28.0280   44.2920 H   0  0  0  0  0  0  0  0  0  0  0  0
   37.9380   28.9380   43.4710 H   0  0  0  0  0  0  0  0  0  0  0  0
   38.0830   26.8770   43.2120 C   0  0  0  0  0  0  0  0  0  0  0  0
   39.3250   26.7590   43.8370 C   0  0  0  0  0  0  0  0  0  0  0  0
   40.0660   25.6090   43.6300 C   0  0  0  0  0  0  0  0  0  0  0  0
   39.5440   24.6520   42.8270 N   0  0  0  0  0  0  0  0  0  0  0  0
   38.3450   24.7880   42.2340 C   0  0  0  0  0  0  0  0  0  0  0  0
   37.6450   25.8830   42.4350 N   0  0  0  0  0  0  0  0  0  0  0  0
   39.6190   27.5950   44.4490 H   0  0  0  0  0  0  0  0  0  0  0  0
   41.0260   25.5370   44.1230 H   0  0  0  0  0  0  0  0  0  0  0  0
   38.0240   23.9600   41.6120 H   0  0  0  0  0  0  0  0  0  0  0  0
  1 18  1  0  0  0  0
  2  1  2  0  0  0  0
  3  4  2  0  0  0  0
  3  2  1  0  0  0  0
  4  5  1  0  0  0  0
  5  1  1  0  0  0  0
  6  2  1  0  0  0  0
  7  3  1  0  0  0  0
  8  9  1  0  0  0  0
  9 10  1  0  0  0  0
 10  4  1  0  0  0  0
 10 11  2  0  0  0  0
 11 12  1  0  0  0  0
 13 11  1  0  0  0  0
 14 13  2  0  0  0  0
 15 14  1  0  0  0  0
 16 14  1  0  0  0  0
 16  9  2  0  0  0  0
 17 16  1  0  0  0  0
 18 20  1  0  0  0  0
 18 21  1  0  0  0  0
 19 18  1  0  0  0  0
 21 23  1  0  0  0  0
 21 22  1  0  0  0  0
 24 21  1  0  0  0  0
 24 25  1  0  0  0  0
 25 30  1  0  0  0  0
 26 25  2  0  0  0  0
 26 31  1  0  0  0  0
 27 26  1  0  0  0  0
 28 29  1  0  0  0  0
 28 27  2  0  0  0  0
 29 24  2  0  0  0  0
 32 28  1  0  0  0  0
M  END
>  <minimizedAffinity>
-5.39362621

$$$$

 OpenBabel03242518143D

 32 34  0  0  0  0  0  0  0  0999 V2000
   37.1170   26.3710   41.9910 C   0  0  0  0  0  0  0  0  0  0  0  0
   36.9800   27.1830   43.1580 C   0  0  0  0  0  0  0  0  0  0  0  0
   37.2300   28.5250   43.0390 C   0  0  0  0  0  0  0  0  0  0  0  0
   37.6170   29.0520   41.7480 C   0  0  0  0  0  0  0  0  0  0  0  0
   37.6270   27.6030   40.6630 S   0  0  0  0  0  0  0  0  0  0  0  0
   36.6890   26.6990   44.0690 H   0  0  0  0  0  0  0  0  0  0  0  0
   37.1620   29.2090   43.8350 H   0  0  0  0  0  0  0  0  0  0  0  0
   40.4270   29.8630   42.4520 Cl  0  0  0  0  0  0  0  0  0  0  0  0
   39.1800   30.8160   41.6350 C   0  0  0  0  0  0  0  0  0  0  0  0
   37.9180   30.3360   41.3640 C   0  0  0  0  0  0  0  0  0  0  0  0
   36.9900   31.1130   40.7300 C   0  0  0  0  0  0  0  0  0  0  0  0
   36.0120   30.7130   40.5300 H   0  0  0  0  0  0  0  0  0  0  0  0
   37.3340   32.4160   40.3530 C   0  0  0  0  0  3  0  0  0  0  0  0
   38.6140   32.9030   40.6280 C   0  0  0  0  0  0  0  0  0  0  0  0
   38.9780   34.5320   40.1340 Cl  0  0  0  0  0  0  0  0  0  0  0  0
   39.5570   32.1090   41.2740 C   0  0  0  0  0  0  0  0  0  0  0  0
   40.5460   32.4840   41.4870 H   0  0  0  0  0  0  0  0  0  0  0  0
   36.9740   24.9870   41.6680 C   0  0  0  0  0  0  0  0  0  0  0  0
   37.0960   24.8580   40.5640 H   0  0  0  0  0  0  0  0  0  0  0  0
   35.9540   24.6130   41.9100 H   0  0  0  0  0  0  0  0  0  0  0  0
   37.9570   24.0470   42.3310 C   0  0  0  0  0  0  0  0  0  0  0  0
   37.8150   22.9950   42.1070 H   0  0  0  0  0  0  0  0  0  0  0  0
   37.8120   24.1590   43.4420 H   0  0  0  0  0  0  0  0  0  0  0  0
   39.3110   24.5040   42.0390 C   0  0  0  0  0  0  0  0  0  0  0  0
   40.2050   24.8630   43.0460 C   0  0  0  0  0  0  0  0  0  0  0  0
   41.4720   25.2880   42.6900 C   0  0  0  0  0  0  0  0  0  0  0  0
   41.7800   25.3350   41.3720 N   0  0  0  0  0  0  0  0  0  0  0  0
   40.9010   24.9860   40.4170 C   0  0  0  0  0  0  0  0  0  0  0  0
   39.6970   24.5810   40.7620 N   0  0  0  0  0  0  0  0  0  0  0  0
   39.8300   24.7780   44.0530 H   0  0  0  0  0  0  0  0  0  0  0  0
   42.1510   25.5620   43.4860 H   0  0  0  0  0  0  0  0  0  0  0  0
   41.2520   25.0620   39.3940 H   0  0  0  0  0  0  0  0  0  0  0  0
  1  2  2  0  0  0  0
  2  6  1  0  0  0  0
  3  2  1  0  0  0  0
  3  7  1  0  0  0  0
  4  3  2  0  0  0  0
  5  4  1  0  0  0  0
  5  1  1  0  0  0  0
  9  8  1  0  0  0  0
 10  9  1  0  0  0  0
 10  4  1  0  0  0  0
 11 10  2  0  0  0  0
 12 11  1  0  0  0  0
 13 14  2  0  0  0  0
 13 11  1  0  0  0  0
 14 16  1  0  0  0  0
 15 14  1  0  0  0  0
 16 17  1  0  0  0  0
 16  9  2  0  0  0  0
 18 20  1  0  0  0  0
 18  1  1  0  0  0  0
 18 21  1  0  0  0  0
 19 18  1  0  0  0  0
 21 23  1  0  0  0  0
 22 21  1  0  0  0  0
 24 21  1  0  0  0  0
 24 25  1  0  0  0  0
 25 30  1  0  0  0  0
 26 25  2  0  0  0  0
 26 31  1  0  0  0  0
 27 26  1  0  0  0  0
 28 29  1  0  0  0  0
 28 27  2  0  0  0  0
 29 24  2  0  0  0  0
 32 28  1  0  0  0  0
M  END
>  <minimizedAffinity>
-5.38908291

$$$$

 OpenBabel03242518143D

 32 34  0  0  0  0  0  0  0  0999 V2000
   38.7710   32.9800   40.2150 C   0  0  0  0  0  0  0  0  0  0  0  0
   37.3710   32.7530   40.0510 C   0  0  0  0  0  0  0  0  0  0  0  0
   36.8830   31.5090   40.3530 C   0  0  0  0  0  0  0  0  0  0  0  0
   37.8000   30.4930   40.8200 C   0  0  0  0  0  0  0  0  0  0  0  0
   39.4090   31.3220   40.8350 S   0  0  0  0  0  0  0  0  0  0  0  0
   36.7720   33.5700   39.7000 H   0  0  0  0  0  0  0  0  0  0  0  0
   35.8700   31.2370   40.2660 H   0  0  0  0  0  0  0  0  0  0  0  0
   38.0350   28.5680   38.5200 Cl  0  0  0  0  0  0  0  0  0  0  0  0
   37.6560   28.2180   40.2120 C   0  0  0  0  0  0  0  0  0  0  0  0
   37.5740   29.1880   41.1860 C   0  0  0  0  0  0  0  0  0  0  0  0
   37.2770   28.8650   42.4790 C   0  0  0  0  0  0  0  0  0  0  0  0
   37.2200   29.6420   43.2210 H   0  0  0  0  0  0  0  0  0  0  0  0
   37.0530   27.5240   42.8140 C   0  0  0  0  0  3  0  0  0  0  0  0
   37.1370   26.5400   41.8270 C   0  0  0  0  0  0  0  0  0  0  0  0
   36.8470   24.8920   42.3070 Cl  0  0  0  0  0  0  0  0  0  0  0  0
   37.4390   26.8720   40.5090 C   0  0  0  0  0  0  0  0  0  0  0  0
   37.5030   26.1130   39.7460 H   0  0  0  0  0  0  0  0  0  0  0  0
   39.6750   34.0690   40.0180 C   0  0  0  0  0  0  0  0  0  0  0  0
   39.2120   35.0020   40.4250 H   0  0  0  0  0  0  0  0  0  0  0  0
   39.8550   34.2620   38.9370 H   0  0  0  0  0  0  0  0  0  0  0  0
   41.0310   33.9310   40.6740 C   0  0  0  0  0  0  0  0  0  0  0  0
   41.1230   33.1120   41.3790 H   0  0  0  0  0  0  0  0  0  0  0  0
   41.2040   34.8780   41.2610 H   0  0  0  0  0  0  0  0  0  0  0  0
   42.0520   33.8930   39.6340 C   0  0  0  0  0  0  0  0  0  0  0  0
   43.3990   33.6800   39.9260 C   0  0  0  0  0  0  0  0  0  0  0  0
   44.3090   33.6590   38.8850 C   0  0  0  0  0  0  0  0  0  0  0  0
   43.8430   33.8480   37.6280 N   0  0  0  0  0  0  0  0  0  0  0  0
   42.5390   34.0530   37.3700 C   0  0  0  0  0  0  0  0  0  0  0  0
   41.6780   34.0710   38.3640 N   0  0  0  0  0  0  0  0  0  0  0  0
   43.6330   33.5450   40.9690 H   0  0  0  0  0  0  0  0  0  0  0  0
   45.3490   33.4930   39.1320 H   0  0  0  0  0  0  0  0  0  0  0  0
   42.2750   34.1930   36.3270 H   0  0  0  0  0  0  0  0  0  0  0  0
  1  5  1  0  0  0  0
  2  1  2  0  0  0  0
  2  3  1  0  0  0  0
  3  4  2  0  0  0  0
  4  5  1  0  0  0  0
  4 10  1  0  0  0  0
  6  2  1  0  0  0  0
  7  3  1  0  0  0  0
  8  9  1  0  0  0  0
  9 16  2  0  0  0  0
  9 10  1  0  0  0  0
 10 11  2  0  0  0  0
 11 13  1  0  0  0  0
 11 12  1  0  0  0  0
 14 15  1  0  0  0  0
 14 13  2  0  0  0  0
 16 14  1  0  0  0  0
 17 16  1  0  0  0  0
 18  1  1  0  0  0  0
 18 19  1  0  0  0  0
 18 21  1  0  0  0  0
 20 18  1  0  0  0  0
 21 23  1  0  0  0  0
 21 22  1  0  0  0  0
 24 25  1  0  0  0  0
 24 21  1  0  0  0  0
 25 30  1  0  0  0  0
 26 31  1  0  0  0  0
 26 25  2  0  0  0  0
 27 26  1  0  0  0  0
 28 27  2  0  0  0  0
 28 29  1  0  0  0  0
 29 24  2  0  0  0  0
 32 28  1  0  0  0  0
M  END
>  <minimizedAffinity>
-5.23640013

$$$$

 OpenBabel03242518143D

 32 34  0  0  0  0  0  0  0  0999 V2000
   37.3420   29.4160   41.9030 C   0  0  0  0  0  0  0  0  0  0  0  0
   37.0150   30.6930   41.3550 C   0  0  0  0  0  0  0  0  0  0  0  0
   36.2920   30.7260   40.1920 C   0  0  0  0  0  0  0  0  0  0  0  0
   35.8960   29.4770   39.5800 C   0  0  0  0  0  0  0  0  0  0  0  0
   36.5670   28.2100   40.6840 S   0  0  0  0  0  0  0  0  0  0  0  0
   37.3540   31.5630   41.8830 H   0  0  0  0  0  0  0  0  0  0  0  0
   36.0010   31.6120   39.7040 H   0  0  0  0  0  0  0  0  0  0  0  0
   37.5760   29.6160   37.0870 Cl  0  0  0  0  0  0  0  0  0  0  0  0
   35.8460   29.2710   37.2300 C   0  0  0  0  0  0  0  0  0  0  0  0
   35.1790   29.2340   38.4330 C   0  0  0  0  0  0  0  0  0  0  0  0
   33.8410   28.9630   38.4890 C   0  0  0  0  0  0  0  0  0  0  0  0
   33.3440   28.9400   39.4420 H   0  0  0  0  0  0  0  0  0  0  0  0
   33.1440   28.7200   37.2990 C   0  0  0  0  0  3  0  0  0  0  0  0
   33.8210   28.7580   36.0790 C   0  0  0  0  0  0  0  0  0  0  0  0
   32.8970   28.4480   34.6360 Cl  0  0  0  0  0  0  0  0  0  0  0  0
   35.1840   29.0340   36.0250 C   0  0  0  0  0  0  0  0  0  0  0  0
   35.7090   29.0630   35.0830 H   0  0  0  0  0  0  0  0  0  0  0  0
   38.0570   28.9280   43.0400 C   0  0  0  0  0  0  0  0  0  0  0  0
   37.9230   29.6450   43.8870 H   0  0  0  0  0  0  0  0  0  0  0  0
   39.1530   28.8830   42.8470 H   0  0  0  0  0  0  0  0  0  0  0  0
   37.6420   27.5650   43.5490 C   0  0  0  0  0  0  0  0  0  0  0  0
   36.6930   27.1990   43.1710 H   0  0  0  0  0  0  0  0  0  0  0  0
   37.5250   27.6590   44.6660 H   0  0  0  0  0  0  0  0  0  0  0  0
   38.7350   26.6270   43.3220 C   0  0  0  0  0  0  0  0  0  0  0  0
   40.0030   26.8220   43.8670 C   0  0  0  0  0  0  0  0  0  0  0  0
   40.9900   25.8880   43.6050 C   0  0  0  0  0  0  0  0  0  0  0  0
   40.6700   24.8270   42.8270 N   0  0  0  0  0  0  0  0  0  0  0  0
   39.4400   24.6600   42.3100 C   0  0  0  0  0  0  0  0  0  0  0  0
   38.5060   25.5510   42.5640 N   0  0  0  0  0  0  0  0  0  0  0  0
   40.1210   27.7090   44.4680 H   0  0  0  0  0  0  0  0  0  0  0  0
   41.9670   26.0570   44.0370 H   0  0  0  0  0  0  0  0  0  0  0  0
   39.2940   23.7750   41.7010 H   0  0  0  0  0  0  0  0  0  0  0  0
  1 18  1  0  0  0  0
  2  6  1  0  0  0  0
  2  1  2  0  0  0  0
  3  2  1  0  0  0  0
  4  3  2  0  0  0  0
  4  5  1  0  0  0  0
  5  1  1  0  0  0  0
  7  3  1  0  0  0  0
  8  9  1  0  0  0  0
  9 10  1  0  0  0  0
 10 11  2  0  0  0  0
 10  4  1  0  0  0  0
 11 12  1  0  0  0  0
 13 11  1  0  0  0  0
 14 13  2  0  0  0  0
 15 14  1  0  0  0  0
 16 14  1  0  0  0  0
 16  9  2  0  0  0  0
 17 16  1  0  0  0  0
 18 21  1  0  0  0  0
 18 19  1  0  0  0  0
 20 18  1  0  0  0  0
 21 23  1  0  0  0  0
 22 21  1  0  0  0  0
 24 21  1  0  0  0  0
 24 25  1  0  0  0  0
 25 30  1  0  0  0  0
 26 25  2  0  0  0  0
 26 31  1  0  0  0  0
 27 26  1  0  0  0  0
 28 29  1  0  0  0  0
 28 27  2  0  0  0  0
 29 24  2  0  0  0  0
 32 28  1  0  0  0  0
M  END
>  <minimizedAffinity>
-5.21306038

$$$$

 OpenBabel03242518143D

 32 34  0  0  0  0  0  0  0  0999 V2000
   37.0440   30.9900   40.3250 C   0  0  0  0  0  0  0  0  0  0  0  0
   35.8220   30.4270   40.8030 C   0  0  0  0  0  0  0  0  0  0  0  0
   35.7380   29.0630   40.8990 C   0  0  0  0  0  0  0  0  0  0  0  0
   36.8810   28.2630   40.5170 C   0  0  0  0  0  0  0  0  0  0  0  0
   38.1200   29.4800   40.0040 S   0  0  0  0  0  0  0  0  0  0  0  0
   35.0300   31.1020   41.0610 H   0  0  0  0  0  0  0  0  0  0  0  0
   34.8840   28.5470   41.2360 H   0  0  0  0  0  0  0  0  0  0  0  0
   37.8980   27.2100   43.1460 Cl  0  0  0  0  0  0  0  0  0  0  0  0
   37.5200   26.3070   41.6710 C   0  0  0  0  0  0  0  0  0  0  0  0
   37.0570   26.9010   40.5190 C   0  0  0  0  0  0  0  0  0  0  0  0
   36.7800   26.1580   39.4060 C   0  0  0  0  0  0  0  0  0  0  0  0
   36.4200   26.6470   38.5180 H   0  0  0  0  0  0  0  0  0  0  0  0
   36.9720   24.7720   39.4450 C   0  0  0  0  0  3  0  0  0  0  0  0
   37.4410   24.1700   40.6150 C   0  0  0  0  0  0  0  0  0  0  0  0
   37.6580   22.4420   40.5990 Cl  0  0  0  0  0  0  0  0  0  0  0  0
   37.7230   24.9290   41.7470 C   0  0  0  0  0  0  0  0  0  0  0  0
   38.0850   24.4650   42.6510 H   0  0  0  0  0  0  0  0  0  0  0  0
   37.5490   32.3000   40.0640 C   0  0  0  0  0  0  0  0  0  0  0  0
   36.7740   33.0510   40.3540 H   0  0  0  0  0  0  0  0  0  0  0  0
   37.7390   32.4580   38.9790 H   0  0  0  0  0  0  0  0  0  0  0  0
   38.8190   32.6780   40.7940 C   0  0  0  0  0  0  0  0  0  0  0  0
   39.1950   31.9320   41.4860 H   0  0  0  0  0  0  0  0  0  0  0  0
   38.5800   33.5920   41.4080 H   0  0  0  0  0  0  0  0  0  0  0  0
   39.8190   33.0860   39.8130 C   0  0  0  0  0  0  0  0  0  0  0  0
   40.6200   34.2120   39.9970 C   0  0  0  0  0  0  0  0  0  0  0  0
   41.5450   34.5350   39.0210 C   0  0  0  0  0  0  0  0  0  0  0  0
   41.6250   33.7370   37.9300 N   0  0  0  0  0  0  0  0  0  0  0  0
   40.8410   32.6550   37.7740 C   0  0  0  0  0  0  0  0  0  0  0  0
   39.9640   32.3520   38.7060 N   0  0  0  0  0  0  0  0  0  0  0  0
   40.4520   34.7590   40.9100 H   0  0  0  0  0  0  0  0  0  0  0  0
   42.1570   35.4130   39.1820 H   0  0  0  0  0  0  0  0  0  0  0  0
   40.9890   32.0860   36.8630 H   0  0  0  0  0  0  0  0  0  0  0  0
  1  2  2  0  0  0  0
  2  3  1  0  0  0  0
  2  6  1  0  0  0  0
  3  7  1  0  0  0  0
  4 10  1  0  0  0  0
  4  3  2  0  0  0  0
  5  1  1  0  0  0  0
  5  4  1  0  0  0  0
  9 16  1  0  0  0  0
  9  8  1  0  0  0  0
 10  9  2  0  0  0  0
 11 13  2  0  0  0  0
 11 10  1  0  0  0  0
 12 11  1  0  0  0  0
 13 14  1  0  0  0  0
 14 16  2  0  0  0  0
 15 14  1  0  0  0  0
 16 17  1  0  0  0  0
 18  1  1  0  0  0  0
 18 19  1  0  0  0  0
 18 21  1  0  0  0  0
 20 18  1  0  0  0  0
 21 23  1  0  0  0  0
 21 22  1  0  0  0  0
 24 25  1  0  0  0  0
 24 21  1  0  0  0  0
 25 30  1  0  0  0  0
 26 31  1  0  0  0  0
 26 25  2  0  0  0  0
 27 26  1  0  0  0  0
 28 27  2  0  0  0  0
 28 29  1  0  0  0  0
 29 24  2  0  0  0  0
 32 28  1  0  0  0  0
M  END
>  <minimizedAffinity>
-5.16452456

$$$$

 OpenBabel03242518143D

 32 34  0  0  0  0  0  0  0  0999 V2000
   37.0390   31.0400   39.8920 C   0  0  0  0  0  0  0  0  0  0  0  0
   36.9820   31.4460   38.5240 C   0  0  0  0  0  0  0  0  0  0  0  0
   38.1480   31.8410   37.9230 C   0  0  0  0  0  0  0  0  0  0  0  0
   39.3710   31.8260   38.6940 C   0  0  0  0  0  0  0  0  0  0  0  0
   38.8590   31.2340   40.3260 S   0  0  0  0  0  0  0  0  0  0  0  0
   36.0270   31.4220   38.0380 H   0  0  0  0  0  0  0  0  0  0  0  0
   38.2150   32.1610   36.9230 H   0  0  0  0  0  0  0  0  0  0  0  0
   40.2020   34.5300   39.7200 Cl  0  0  0  0  0  0  0  0  0  0  0  0
   41.1420   33.3840   38.7530 C   0  0  0  0  0  0  0  0  0  0  0  0
   40.6540   32.1660   38.3370 C   0  0  0  0  0  0  0  0  0  0  0  0
   41.4210   31.3170   37.5920 C   0  0  0  0  0  0  0  0  0  0  0  0
   41.0160   30.3710   37.2800 H   0  0  0  0  0  0  0  0  0  0  0  0
   42.7230   31.6980   37.2480 C   0  0  0  0  0  3  0  0  0  0  0  0
   43.2190   32.9340   37.6700 C   0  0  0  0  0  0  0  0  0  0  0  0
   44.8460   33.3490   37.2090 Cl  0  0  0  0  0  0  0  0  0  0  0  0
   42.4350   33.7970   38.4290 C   0  0  0  0  0  0  0  0  0  0  0  0
   42.8160   34.7520   38.7560 H   0  0  0  0  0  0  0  0  0  0  0  0
   36.1110   30.5830   40.8780 C   0  0  0  0  0  0  0  0  0  0  0  0
   35.1700   31.1820   40.7930 H   0  0  0  0  0  0  0  0  0  0  0  0
   36.4910   30.7540   41.9100 H   0  0  0  0  0  0  0  0  0  0  0  0
   35.7130   29.1270   40.7890 C   0  0  0  0  0  0  0  0  0  0  0  0
   35.6270   28.7310   39.7820 H   0  0  0  0  0  0  0  0  0  0  0  0
   34.6890   29.0420   41.2520 H   0  0  0  0  0  0  0  0  0  0  0  0
   36.6150   28.3430   41.6240 C   0  0  0  0  0  0  0  0  0  0  0  0
   36.9450   27.0230   41.3220 C   0  0  0  0  0  0  0  0  0  0  0  0
   37.8060   26.3430   42.1650 C   0  0  0  0  0  0  0  0  0  0  0  0
   38.2870   27.0000   43.2470 N   0  0  0  0  0  0  0  0  0  0  0  0
   37.9540   28.2740   43.5190 C   0  0  0  0  0  0  0  0  0  0  0  0
   37.1350   28.9150   42.7130 N   0  0  0  0  0  0  0  0  0  0  0  0
   36.4910   26.6210   40.4310 H   0  0  0  0  0  0  0  0  0  0  0  0
   38.0500   25.3200   41.9130 H   0  0  0  0  0  0  0  0  0  0  0  0
   38.3970   28.7030   44.4110 H   0  0  0  0  0  0  0  0  0  0  0  0
  1  5  1  0  0  0  0
  1 18  1  0  0  0  0
  2  1  2  0  0  0  0
  3  2  1  0  0  0  0
  3  4  2  0  0  0  0
  4  5  1  0  0  0  0
  6  2  1  0  0  0  0
  7  3  1  0  0  0  0
  9  8  1  0  0  0  0
 10  4  1  0  0  0  0
 10  9  2  0  0  0  0
 11 10  1  0  0  0  0
 12 11  1  0  0  0  0
 13 11  2  0  0  0  0
 13 14  1  0  0  0  0
 14 16  2  0  0  0  0
 15 14  1  0  0  0  0
 16  9  1  0  0  0  0
 16 17  1  0  0  0  0
 18 20  1  0  0  0  0
 19 18  1  0  0  0  0
 21 18  1  0  0  0  0
 21 23  1  0  0  0  0
 21 24  1  0  0  0  0
 22 21  1  0  0  0  0
 24 29  1  0  0  0  0
 25 24  2  0  0  0  0
 25 26  1  0  0  0  0
 26 27  2  0  0  0  0
 27 28  1  0  0  0  0
 28 32  1  0  0  0  0
 29 28  2  0  0  0  0
 30 25  1  0  0  0  0
 31 26  1  0  0  0  0
M  END
>  <minimizedAffinity>
-5.09931946

$$$$
