
 OpenBabel03252502473D

 46 49  0  0  1  0  0  0  0  0999 V2000
   47.6420   35.6270   41.9230 C   0  0  0  0  0  0  0  0  0  0  0  0
   47.7490   35.9970   42.9680 H   0  0  0  0  0  0  0  0  0  0  0  0
   47.4070   36.5490   41.3330 H   0  0  0  0  0  0  0  0  0  0  0  0
   48.9030   34.9620   41.4780 C   0  0  1  0  0  0  0  0  0  0  0  0
   50.0420   34.8860   42.4520 C   0  0  0  0  0  0  0  0  0  0  0  0
   49.2420   33.6830   42.0820 C   0  0  2  0  0  0  0  0  0  0  0  0
   49.1970   35.2150   40.4630 H   0  0  0  0  0  0  0  0  0  0  0  0
   51.0900   35.0220   42.1270 H   0  0  0  0  0  0  0  0  0  0  0  0
   49.8620   35.3700   43.4510 H   0  0  0  0  0  0  0  0  0  0  0  0
   48.7250   33.2170   42.9180 H   0  0  0  0  0  0  0  0  0  0  0  0
   49.9540   32.7840   41.1820 N   0  0  0  0  0  0  0  0  0  0  0  0
   49.1480   32.2160   40.1690 C   0  0  0  0  0  0  0  0  0  0  0  0
   50.0670   31.3220   39.3560 C   0  0  0  0  0  0  0  0  0  0  0  0
   50.6030   30.2630   40.1380 N   0  0  0  0  0  0  0  0  0  0  0  0
   50.7060   30.5540   41.5550 C   0  0  0  0  0  0  0  0  0  0  0  0
   51.0010   32.0430   41.7370 C   0  0  0  0  0  0  0  0  0  0  0  0
   48.6580   32.9600   39.5460 H   0  0  0  0  0  0  0  0  0  0  0  0
   48.3930   31.5520   40.6310 H   0  0  0  0  0  0  0  0  0  0  0  0
   50.8100   31.9780   38.8600 H   0  0  0  0  0  0  0  0  0  0  0  0
   49.4280   30.9110   38.5420 H   0  0  0  0  0  0  0  0  0  0  0  0
   51.5110   29.9320   39.7370 H   0  0  0  0  0  0  0  0  0  0  0  0
   51.6050   29.9760   41.9090 H   0  0  0  0  0  0  0  0  0  0  0  0
   49.7760   30.2670   42.0490 H   0  0  0  0  0  0  0  0  0  0  0  0
   51.2430   32.2920   42.7670 H   0  0  0  0  0  0  0  0  0  0  0  0
   51.9260   32.2120   41.1140 H   0  0  0  0  0  0  0  0  0  0  0  0
   46.5510   34.6010   41.8470 C   0  0  0  0  0  0  0  0  0  0  0  0
   46.7290   33.7290   41.2380 H   0  0  0  0  0  0  0  0  0  0  0  0
   45.6650   35.1110   41.3670 H   0  0  0  0  0  0  0  0  0  0  0  0
   44.9380   34.9940   45.2110 C   0  0  0  0  0  0  0  0  0  0  0  0
   45.3780   35.2950   43.8960 C   0  0  0  0  0  0  0  0  0  0  0  0
   46.0680   34.3170   43.2370 C   0  0  0  0  0  0  0  0  0  0  0  0
   46.2990   33.1280   43.8490 N   0  0  0  0  0  0  0  0  0  0  0  0
   45.8850   32.8630   45.0680 C   0  0  0  0  0  0  0  0  0  0  0  0
   45.2010   33.7930   45.7600 N   0  0  0  0  0  0  0  0  0  0  0  0
   44.3980   35.7550   45.7290 H   0  0  0  0  0  0  0  0  0  0  0  0
   45.1960   36.2350   43.4120 H   0  0  0  0  0  0  0  0  0  0  0  0
   45.2620   32.6740   48.0380 Cl  0  0  0  0  0  0  0  0  0  0  0  0
   45.8940   31.3780   47.0590 C   0  0  0  0  0  0  0  0  0  0  0  0
   46.1380   31.5800   45.7160 C   0  0  0  0  0  0  0  0  0  0  0  0
   46.6380   30.4960   45.0250 C   0  0  0  0  0  0  0  0  0  0  0  0
   46.8530   30.5950   43.9590 H   0  0  0  0  0  0  0  0  0  0  0  0
   46.9000   29.2570   45.5830 C   0  0  0  0  0  3  0  0  0  0  0  0
   46.6310   29.1270   46.9300 C   0  0  0  0  0  0  0  0  0  0  0  0
   46.9690   27.5430   47.6280 Cl  0  0  0  0  0  0  0  0  0  0  0  0
   46.1240   30.1720   47.7060 C   0  0  0  0  0  0  0  0  0  0  0  0
   45.9490   29.9720   48.7360 H   0  0  0  0  0  0  0  0  0  0  0  0
  1  2  1  0  0  0  0
  3  1  1  0  0  0  0
  4  7  1  6  0  0  0
  4  1  1  0  0  0  0
  4  6  1  0  0  0  0
  4  5  1  0  0  0  0
  5  9  1  0  0  0  0
  6  5  1  0  0  0  0
  6 10  1  1  0  0  0
  8  5  1  0  0  0  0
 11 16  1  0  0  0  0
 11  6  1  0  0  0  0
 12 18  1  0  0  0  0
 12 11  1  0  0  0  0
 13 14  1  0  0  0  0
 13 12  1  0  0  0  0
 14 15  1  0  0  0  0
 15 16  1  0  0  0  0
 15 22  1  0  0  0  0
 15 23  1  0  0  0  0
 16 24  1  0  0  0  0
 17 12  1  0  0  0  0
 19 13  1  0  0  0  0
 20 13  1  0  0  0  0
 21 14  1  0  0  0  0
 25 16  1  0  0  0  0
 26  1  1  0  0  0  0
 26 31  1  0  0  0  0
 27 26  1  0  0  0  0
 28 26  1  0  0  0  0
 29 35  1  0  0  0  0
 29 34  1  0  0  0  0
 30 29  2  0  0  0  0
 31 32  2  0  0  0  0
 31 30  1  0  0  0  0
 32 33  1  0  0  0  0
 33 39  1  0  0  0  0
 33 34  2  0  0  0  0
 36 30  1  0  0  0  0
 38 45  1  0  0  0  0
 38 37  1  0  0  0  0
 39 38  2  0  0  0  0
 40 42  2  0  0  0  0
 40 39  1  0  0  0  0
 41 40  1  0  0  0  0
 42 43  1  0  0  0  0
 43 44  1  0  0  0  0
 43 45  2  0  0  0  0
 45 46  1  0  0  0  0
M  END
>  <minimizedAffinity>
-5.17669392

>  <minimizedRMSD>
1.69126105

$$$$
