
 OpenBabel03252500363D

 47 50  0  0  1  0  0  0  0  0999 V2000
   45.7710   34.8800   44.2710 C   0  0  1  0  0  0  0  0  0  0  0  0
   44.8290   34.7810   45.2990 C   0  0  0  0  0  0  0  0  0  0  0  0
   46.0420   33.9700   45.5040 C   0  0  1  0  0  0  0  0  0  0  0  0
   46.4370   35.7830   44.1940 H   0  0  0  0  0  0  0  0  0  0  0  0
   44.6310   35.6140   45.9880 H   0  0  0  0  0  0  0  0  0  0  0  0
   43.8920   34.1770   45.1280 H   0  0  0  0  0  0  0  0  0  0  0  0
   46.9320   34.3280   46.0450 H   0  0  0  0  0  0  0  0  0  0  0  0
   44.4320   33.8260   42.4500 C   0  0  0  0  0  0  0  0  0  0  0  0
   45.7230   34.1940   42.9440 C   0  0  0  0  0  0  0  0  0  0  0  0
   46.8310   33.9140   42.2110 C   0  0  0  0  0  0  0  0  0  0  0  0
   46.6430   33.2790   41.0110 N   0  0  0  0  0  0  0  0  0  0  0  0
   45.4200   32.9350   40.5530 C   0  0  0  0  0  0  0  0  0  0  0  0
   44.2700   33.2000   41.2620 N   0  0  0  0  0  0  0  0  0  0  0  0
   43.5600   34.0640   43.0610 H   0  0  0  0  0  0  0  0  0  0  0  0
   47.8120   34.1860   42.5710 H   0  0  0  0  0  0  0  0  0  0  0  0
   45.5610   29.9200   40.6470 Cl  0  0  0  0  0  0  0  0  0  0  0  0
   45.3880   30.8810   39.1830 C   0  0  0  0  0  0  0  0  0  0  0  0
   45.3340   32.2600   39.2570 C   0  0  0  0  0  0  0  0  0  0  0  0
   45.2000   33.0490   38.1450 C   0  0  0  0  0  0  0  0  0  0  0  0
   45.1510   34.1330   38.1340 H   0  0  0  0  0  0  0  0  0  0  0  0
   45.1150   32.4410   36.8960 C   0  0  0  0  0  3  0  0  0  0  0  0
   45.1720   31.0560   36.8470 C   0  0  0  0  0  0  0  0  0  0  0  0
   45.0660   30.2900   35.2900 Cl  0  0  0  0  0  0  0  0  0  0  0  0
   45.3070   30.2400   37.9580 C   0  0  0  0  0  0  0  0  0  0  0  0
   45.3480   29.1730   37.8950 H   0  0  0  0  0  0  0  0  0  0  0  0
   45.9950   32.4960   45.3410 C   0  0  0  0  0  0  0  0  0  0  0  0
   45.1610   32.2290   44.6400 H   0  0  0  0  0  0  0  0  0  0  0  0
   46.9530   32.0680   44.9760 H   0  0  0  0  0  0  0  0  0  0  0  0
   45.7310   31.9390   46.6200 N   0  0  0  0  0  0  0  0  0  0  0  0
   46.2250   32.6090   47.7450 C   0  0  0  0  0  0  0  0  0  0  0  0
   47.6310   32.0970   48.1260 C   0  0  0  0  0  0  0  0  0  0  0  0
   47.4470   30.6870   48.6110 C   0  0  0  0  0  0  0  0  0  0  0  0
   46.8940   29.9090   47.4380 C   0  0  0  0  0  0  0  0  0  0  0  0
   45.7080   30.5480   46.7720 C   0  0  2  0  0  0  0  0  0  0  0  0
   45.5950   32.2440   48.6150 H   0  0  0  0  0  0  0  0  0  0  0  0
   46.1330   33.6890   47.8150 H   0  0  0  0  0  0  0  0  0  0  0  0
   48.0120   32.7030   48.9730 H   0  0  0  0  0  0  0  0  0  0  0  0
   48.3180   32.1660   47.2600 H   0  0  0  0  0  0  0  0  0  0  0  0
   46.6760   30.7170   49.4100 H   0  0  0  0  0  0  0  0  0  0  0  0
   48.3690   30.1920   48.9200 H   0  0  0  0  0  0  0  0  0  0  0  0
   46.5940   28.8840   47.7680 H   0  0  0  0  0  0  0  0  0  0  0  0
   47.6870   29.7810   46.6760 H   0  0  0  0  0  0  0  0  0  0  0  0
   44.8180   30.2730   47.3770 H   0  0  0  0  0  0  0  0  0  0  0  0
   45.5240   29.8290   45.4440 C   0  0  0  0  0  0  0  0  0  0  0  0
   45.3930   28.7600   45.6310 H   0  0  0  0  0  0  0  0  0  0  0  0
   44.6120   30.2490   44.9310 H   0  0  0  0  0  0  0  0  0  0  0  0
   46.4260   29.9580   44.8020 H   0  0  0  0  0  0  0  0  0  0  0  0
  1  4  1  1  0  0  0
  1  2  1  0  0  0  0
  1  3  1  0  0  0  0
  2  3  1  0  0  0  0
  2  5  1  0  0  0  0
  3  7  1  1  0  0  0
  6  2  1  0  0  0  0
  8  9  1  0  0  0  0
  8 14  1  0  0  0  0
  9  1  1  0  0  0  0
 10 15  1  0  0  0  0
 10  9  2  0  0  0  0
 11 10  1  0  0  0  0
 12 11  2  0  0  0  0
 12 13  1  0  0  0  0
 13  8  2  0  0  0  0
 17 18  1  0  0  0  0
 17 16  1  0  0  0  0
 18 12  1  0  0  0  0
 19 18  2  0  0  0  0
 20 19  1  0  0  0  0
 21 19  1  0  0  0  0
 22 21  2  0  0  0  0
 22 24  1  0  0  0  0
 23 22  1  0  0  0  0
 24 17  2  0  0  0  0
 25 24  1  0  0  0  0
 26  3  1  0  0  0  0
 26 29  1  0  0  0  0
 27 26  1  0  0  0  0
 28 26  1  0  0  0  0
 29 34  1  0  0  0  0
 29 30  1  0  0  0  0
 30 36  1  0  0  0  0
 30 31  1  0  0  0  0
 30 35  1  0  0  0  0
 31 32  1  0  0  0  0
 31 37  1  0  0  0  0
 32 40  1  0  0  0  0
 32 39  1  0  0  0  0
 33 41  1  0  0  0  0
 33 32  1  0  0  0  0
 34 43  1  1  0  0  0
 34 33  1  0  0  0  0
 38 31  1  0  0  0  0
 42 33  1  0  0  0  0
 44 45  1  0  0  0  0
 44 34  1  0  0  0  0
 46 44  1  0  0  0  0
 47 44  1  0  0  0  0
M  END
>  <minimizedAffinity>
-4.16666222

>  <minimizedRMSD>
0.914947093

$$$$
