
 OpenBabel03242520173D

 26 28  0  0  0  0  0  0  0  0999 V2000
   40.8180   32.8150   39.3870 C   0  0  0  0  0  0  0  0  0  0  0  0
   40.2510   31.6780   40.0020 C   0  0  0  0  0  0  0  0  0  0  0  0
   39.1310   31.8370   40.8400 C   0  0  0  0  0  0  0  0  0  0  0  0
   38.6650   33.1080   40.9960 N   0  0  0  0  0  0  0  0  0  0  0  0
   39.2300   34.1610   40.3970 C   0  0  0  0  0  0  0  0  0  0  0  0
   40.3080   34.0270   39.5890 N   0  0  0  0  0  0  0  0  0  0  0  0
   40.6760   30.7220   39.8280 H   0  0  0  0  0  0  0  0  0  0  0  0
   38.7900   35.1420   40.5810 H   0  0  0  0  0  0  0  0  0  0  0  0
   36.6050   30.8170   39.4690 Cl  0  0  0  0  0  0  0  0  0  0  0  0
   37.3590   30.1880   40.9330 C   0  0  0  0  0  0  0  0  0  0  0  0
   38.5050   30.7010   41.4990 C   0  0  0  0  0  0  0  0  0  0  0  0
   38.9590   30.0870   42.6480 C   0  0  0  0  0  0  0  0  0  0  0  0
   39.8570   30.4790   43.1020 H   0  0  0  0  0  0  0  0  0  0  0  0
   38.3560   29.0230   43.2470 C   0  0  0  0  0  3  0  0  0  0  0  0
   37.1990   28.5250   42.6540 C   0  0  0  0  0  0  0  0  0  0  0  0
   36.4340   27.1500   43.4430 Cl  0  0  0  0  0  0  0  0  0  0  0  0
   36.7110   29.1070   41.5070 C   0  0  0  0  0  0  0  0  0  0  0  0
   35.8080   28.6490   41.1230 H   0  0  0  0  0  0  0  0  0  0  0  0
   41.9890   32.6000   38.5110 C   0  0  0  0  0  0  0  0  0  0  0  0
   41.6040   32.1320   37.0850 C   0  0  0  0  0  0  0  0  0  0  0  0
   42.3200   33.4180   37.3680 C   0  0  0  0  0  0  0  0  0  0  0  0
   42.7770   31.9750   39.0040 H   0  0  0  0  0  0  0  0  0  0  0  0
   42.1950   31.2680   36.7350 H   0  0  0  0  0  0  0  0  0  0  0  0
   40.5550   32.1580   36.7900 H   0  0  0  0  0  0  0  0  0  0  0  0
   43.3910   33.5490   37.0850 H   0  0  0  0  0  0  0  0  0  0  0  0
   41.6990   34.3350   37.1580 H   0  0  0  0  0  0  0  0  0  0  0  0
  1  6  2  0  0  0  0
  1  2  1  0  0  0  0
  2  3  2  0  0  0  0
  3  4  1  0  0  0  0
  3 11  1  0  0  0  0
  5  8  1  0  0  0  0
  5  4  2  0  0  0  0
  6  5  1  0  0  0  0
  7  2  1  0  0  0  0
  9 10  1  0  0  0  0
 10 11  2  0  0  0  0
 10 17  1  0  0  0  0
 11 12  1  0  0  0  0
 12 13  1  0  0  0  0
 12 14  2  0  0  0  0
 15 14  1  0  0  0  0
 15 16  1  0  0  0  0
 17 15  2  0  0  0  0
 18 17  1  0  0  0  0
 19 22  1  0  0  0  0
 19  1  1  0  0  0  0
 20 21  1  0  0  0  0
 20 19  1  0  0  0  0
 21 19  1  0  0  0  0
 23 20  1  0  0  0  0
 24 20  1  0  0  0  0
 25 21  1  0  0  0  0
 26 21  1  0  0  0  0
M  END
>  <minimizedAffinity>
-4.9817543

$$$$

 OpenBabel03242520173D

 26 28  0  0  0  0  0  0  0  0999 V2000
   37.3110   26.7670   41.6280 C   0  0  0  0  0  0  0  0  0  0  0  0
   37.9460   27.9320   41.1480 C   0  0  0  0  0  0  0  0  0  0  0  0
   38.0810   29.0420   42.0010 C   0  0  0  0  0  0  0  0  0  0  0  0
   37.5770   28.9060   43.2610 N   0  0  0  0  0  0  0  0  0  0  0  0
   36.9810   27.7850   43.6800 C   0  0  0  0  0  0  0  0  0  0  0  0
   36.8420   26.7080   42.8720 N   0  0  0  0  0  0  0  0  0  0  0  0
   38.3100   27.9560   40.1520 H   0  0  0  0  0  0  0  0  0  0  0  0
   36.6070   27.7660   44.7040 H   0  0  0  0  0  0  0  0  0  0  0  0
   36.1790   31.1220   40.8350 Cl  0  0  0  0  0  0  0  0  0  0  0  0
   37.9270   31.2530   41.0220 C   0  0  0  0  0  0  0  0  0  0  0  0
   38.7270   30.2700   41.5600 C   0  0  0  0  0  0  0  0  0  0  0  0
   40.0780   30.5380   41.6320 C   0  0  0  0  0  0  0  0  0  0  0  0
   40.7170   29.7750   42.0520 H   0  0  0  0  0  0  0  0  0  0  0  0
   40.6610   31.6950   41.2130 C   0  0  0  0  0  3  0  0  0  0  0  0
   39.8300   32.6720   40.6740 C   0  0  0  0  0  0  0  0  0  0  0  0
   40.6000   34.1610   40.1370 Cl  0  0  0  0  0  0  0  0  0  0  0  0
   38.4760   32.4460   40.5820 C   0  0  0  0  0  0  0  0  0  0  0  0
   37.9140   33.2650   40.1490 H   0  0  0  0  0  0  0  0  0  0  0  0
   37.1970   25.6230   40.7000 C   0  0  0  0  0  0  0  0  0  0  0  0
   38.1160   24.4350   41.0820 C   0  0  0  0  0  0  0  0  0  0  0  0
   36.6210   24.3430   41.0400 C   0  0  0  0  0  0  0  0  0  0  0  0
   37.2750   25.9390   39.6290 H   0  0  0  0  0  0  0  0  0  0  0  0
   38.6910   24.0360   40.2290 H   0  0  0  0  0  0  0  0  0  0  0  0
   38.6240   24.4550   42.0470 H   0  0  0  0  0  0  0  0  0  0  0  0
   36.1080   23.7490   40.2480 H   0  0  0  0  0  0  0  0  0  0  0  0
   36.1490   24.2120   42.0560 H   0  0  0  0  0  0  0  0  0  0  0  0
  1  6  1  0  0  0  0
  2  1  2  0  0  0  0
  2  3  1  0  0  0  0
  3  4  2  0  0  0  0
  4  5  1  0  0  0  0
  5  8  1  0  0  0  0
  6  5  2  0  0  0  0
  7  2  1  0  0  0  0
  9 10  1  0  0  0  0
 10 11  1  0  0  0  0
 11 12  2  0  0  0  0
 11  3  1  0  0  0  0
 12 13  1  0  0  0  0
 14 12  1  0  0  0  0
 15 14  2  0  0  0  0
 16 15  1  0  0  0  0
 17 15  1  0  0  0  0
 17 10  2  0  0  0  0
 18 17  1  0  0  0  0
 19 21  1  0  0  0  0
 19 20  1  0  0  0  0
 19  1  1  0  0  0  0
 20 24  1  0  0  0  0
 21 20  1  0  0  0  0
 21 26  1  0  0  0  0
 22 19  1  0  0  0  0
 23 20  1  0  0  0  0
 25 21  1  0  0  0  0
M  END
>  <minimizedAffinity>
-4.72718096

$$$$

 OpenBabel03242520173D

 26 28  0  0  0  0  0  0  0  0999 V2000
   37.0900   28.8420   41.6120 C   0  0  0  0  0  0  0  0  0  0  0  0
   36.3550   28.4890   40.4600 C   0  0  0  0  0  0  0  0  0  0  0  0
   35.8940   29.5050   39.6020 C   0  0  0  0  0  0  0  0  0  0  0  0
   36.2010   30.7850   39.9540 N   0  0  0  0  0  0  0  0  0  0  0  0
   36.9000   31.0800   41.0550 C   0  0  0  0  0  0  0  0  0  0  0  0
   37.3510   30.1160   41.8920 N   0  0  0  0  0  0  0  0  0  0  0  0
   36.1580   27.4670   40.2590 H   0  0  0  0  0  0  0  0  0  0  0  0
   37.0990   32.1330   41.2590 H   0  0  0  0  0  0  0  0  0  0  0  0
   37.5290   29.5350   37.0270 Cl  0  0  0  0  0  0  0  0  0  0  0  0
   35.8080   29.1950   37.2000 C   0  0  0  0  0  0  0  0  0  0  0  0
   35.1310   29.1990   38.4000 C   0  0  0  0  0  0  0  0  0  0  0  0
   33.7830   28.9110   38.3540 C   0  0  0  0  0  0  0  0  0  0  0  0
   33.2400   28.9110   39.2880 H   0  0  0  0  0  0  0  0  0  0  0  0
   33.0910   28.6270   37.2170 C   0  0  0  0  0  3  0  0  0  0  0  0
   33.7980   28.6300   36.0180 C   0  0  0  0  0  0  0  0  0  0  0  0
   32.8870   28.2610   34.5580 Cl  0  0  0  0  0  0  0  0  0  0  0  0
   35.1450   28.9120   36.0180 C   0  0  0  0  0  0  0  0  0  0  0  0
   35.6060   28.8900   35.0380 H   0  0  0  0  0  0  0  0  0  0  0  0
   37.5600   27.7430   42.4810 C   0  0  0  0  0  0  0  0  0  0  0  0
   36.5740   27.4110   43.6290 C   0  0  0  0  0  0  0  0  0  0  0  0
   36.9500   26.4370   42.5550 C   0  0  0  0  0  0  0  0  0  0  0  0
   38.6200   27.8900   42.8110 H   0  0  0  0  0  0  0  0  0  0  0  0
   37.0650   27.3220   44.6140 H   0  0  0  0  0  0  0  0  0  0  0  0
   35.5830   27.8650   43.6170 H   0  0  0  0  0  0  0  0  0  0  0  0
   37.5880   25.5510   42.7850 H   0  0  0  0  0  0  0  0  0  0  0  0
   36.1030   26.1920   41.8520 H   0  0  0  0  0  0  0  0  0  0  0  0
  1  6  1  0  0  0  0
  1 19  1  0  0  0  0
  2  1  2  0  0  0  0
  3  4  2  0  0  0  0
  3  2  1  0  0  0  0
  4  5  1  0  0  0  0
  5  8  1  0  0  0  0
  5  6  2  0  0  0  0
  7  2  1  0  0  0  0
  9 10  1  0  0  0  0
 10 11  1  0  0  0  0
 11  3  1  0  0  0  0
 12 11  2  0  0  0  0
 12 13  1  0  0  0  0
 14 12  1  0  0  0  0
 15 14  2  0  0  0  0
 16 15  1  0  0  0  0
 17 15  1  0  0  0  0
 17 10  2  0  0  0  0
 18 17  1  0  0  0  0
 19 21  1  0  0  0  0
 19 22  1  0  0  0  0
 19 20  1  0  0  0  0
 20 23  1  0  0  0  0
 21 25  1  0  0  0  0
 21 20  1  0  0  0  0
 24 20  1  0  0  0  0
 26 21  1  0  0  0  0
M  END
>  <minimizedAffinity>
-4.7006011

$$$$

 OpenBabel03242520173D

 26 28  0  0  0  0  0  0  0  0999 V2000
   37.7770   29.7430   42.1110 C   0  0  0  0  0  0  0  0  0  0  0  0
   38.8260   30.3670   41.4040 C   0  0  0  0  0  0  0  0  0  0  0  0
   38.5180   31.1980   40.3100 C   0  0  0  0  0  0  0  0  0  0  0  0
   37.1960   31.3430   40.0100 N   0  0  0  0  0  0  0  0  0  0  0  0
   36.2300   30.7340   40.7050 C   0  0  0  0  0  0  0  0  0  0  0  0
   36.5080   29.9300   41.7590 N   0  0  0  0  0  0  0  0  0  0  0  0
   39.8300   30.2000   41.7020 H   0  0  0  0  0  0  0  0  0  0  0  0
   35.1990   30.9070   40.3930 H   0  0  0  0  0  0  0  0  0  0  0  0
   38.8590   34.1580   40.9630 Cl  0  0  0  0  0  0  0  0  0  0  0  0
   39.7680   33.2070   39.7890 C   0  0  0  0  0  0  0  0  0  0  0  0
   39.5590   31.8680   39.5440 C   0  0  0  0  0  0  0  0  0  0  0  0
   40.3610   31.2780   38.5900 C   0  0  0  0  0  0  0  0  0  0  0  0
   40.2090   30.2270   38.3890 H   0  0  0  0  0  0  0  0  0  0  0  0
   41.3300   31.9250   37.8860 C   0  0  0  0  0  3  0  0  0  0  0  0
   41.5210   33.2780   38.1530 C   0  0  0  0  0  0  0  0  0  0  0  0
   42.7780   34.0980   37.2330 Cl  0  0  0  0  0  0  0  0  0  0  0  0
   40.7420   33.9060   39.0970 C   0  0  0  0  0  0  0  0  0  0  0  0
   40.9650   34.9580   39.2330 H   0  0  0  0  0  0  0  0  0  0  0  0
   38.1460   28.8840   43.2560 C   0  0  0  0  0  0  0  0  0  0  0  0
   37.8850   27.3790   42.9970 C   0  0  0  0  0  0  0  0  0  0  0  0
   39.2460   27.9480   43.2600 C   0  0  0  0  0  0  0  0  0  0  0  0
   37.7270   29.2650   44.2220 H   0  0  0  0  0  0  0  0  0  0  0  0
   37.3570   26.8790   43.8270 H   0  0  0  0  0  0  0  0  0  0  0  0
   37.6250   27.0580   41.9880 H   0  0  0  0  0  0  0  0  0  0  0  0
   39.7780   27.7380   44.2170 H   0  0  0  0  0  0  0  0  0  0  0  0
   39.9310   27.9110   42.3650 H   0  0  0  0  0  0  0  0  0  0  0  0
  1 19  1  0  0  0  0
  2  7  1  0  0  0  0
  2  1  2  0  0  0  0
  3  2  1  0  0  0  0
  4  3  2  0  0  0  0
  4  5  1  0  0  0  0
  5  6  2  0  0  0  0
  6  1  1  0  0  0  0
  8  5  1  0  0  0  0
 10  9  1  0  0  0  0
 11 10  1  0  0  0  0
 11  3  1  0  0  0  0
 12 11  2  0  0  0  0
 13 12  1  0  0  0  0
 14 15  2  0  0  0  0
 14 12  1  0  0  0  0
 15 17  1  0  0  0  0
 16 15  1  0  0  0  0
 17 18  1  0  0  0  0
 17 10  2  0  0  0  0
 19 21  1  0  0  0  0
 19 22  1  0  0  0  0
 20 19  1  0  0  0  0
 20 21  1  0  0  0  0
 20 23  1  0  0  0  0
 21 25  1  0  0  0  0
 24 20  1  0  0  0  0
 26 21  1  0  0  0  0
M  END
>  <minimizedAffinity>
-4.6746521

$$$$

 OpenBabel03242520173D

 26 28  0  0  0  0  0  0  0  0999 V2000
   37.3280   26.2330   41.6960 C   0  0  0  0  0  0  0  0  0  0  0  0
   37.6130   27.5080   41.1610 C   0  0  0  0  0  0  0  0  0  0  0  0
   37.3890   28.6500   41.9530 C   0  0  0  0  0  0  0  0  0  0  0  0
   36.9050   28.4340   43.2090 N   0  0  0  0  0  0  0  0  0  0  0  0
   36.6470   27.2100   43.6800 C   0  0  0  0  0  0  0  0  0  0  0  0
   36.8550   26.1000   42.9320 N   0  0  0  0  0  0  0  0  0  0  0  0
   37.9880   27.5890   40.1730 H   0  0  0  0  0  0  0  0  0  0  0  0
   36.2600   27.1320   44.6970 H   0  0  0  0  0  0  0  0  0  0  0  0
   40.2020   29.6660   42.5540 Cl  0  0  0  0  0  0  0  0  0  0  0  0
   38.9180   30.5110   41.6900 C   0  0  0  0  0  0  0  0  0  0  0  0
   37.6660   29.9900   41.4540 C   0  0  0  0  0  0  0  0  0  0  0  0
   36.7800   30.7880   40.7620 C   0  0  0  0  0  0  0  0  0  0  0  0
   35.7940   30.3910   40.5690 H   0  0  0  0  0  0  0  0  0  0  0  0
   37.0610   32.0390   40.3030 C   0  0  0  0  0  3  0  0  0  0  0  0
   38.3340   32.5420   40.5550 C   0  0  0  0  0  0  0  0  0  0  0  0
   38.6800   34.1610   39.9560 Cl  0  0  0  0  0  0  0  0  0  0  0  0
   39.2490   31.7790   41.2430 C   0  0  0  0  0  0  0  0  0  0  0  0
   40.2100   32.2570   41.3890 H   0  0  0  0  0  0  0  0  0  0  0  0
   37.5840   25.0620   40.8320 C   0  0  0  0  0  0  0  0  0  0  0  0
   38.6810   24.1210   41.3910 C   0  0  0  0  0  0  0  0  0  0  0  0
   37.2590   23.6980   41.1790 C   0  0  0  0  0  0  0  0  0  0  0  0
   37.7280   25.3510   39.7600 H   0  0  0  0  0  0  0  0  0  0  0  0
   39.4330   23.8300   40.6380 H   0  0  0  0  0  0  0  0  0  0  0  0
   39.0440   24.2850   42.4060 H   0  0  0  0  0  0  0  0  0  0  0  0
   36.9910   22.9800   40.3700 H   0  0  0  0  0  0  0  0  0  0  0  0
   36.7000   23.5010   42.1380 H   0  0  0  0  0  0  0  0  0  0  0  0
  1  6  1  0  0  0  0
  2  1  2  0  0  0  0
  2  3  1  0  0  0  0
  3  4  2  0  0  0  0
  4  5  1  0  0  0  0
  5  8  1  0  0  0  0
  6  5  2  0  0  0  0
  7  2  1  0  0  0  0
 10  9  1  0  0  0  0
 11 10  1  0  0  0  0
 11  3  1  0  0  0  0
 12 11  2  0  0  0  0
 13 12  1  0  0  0  0
 14 15  2  0  0  0  0
 14 12  1  0  0  0  0
 15 17  1  0  0  0  0
 16 15  1  0  0  0  0
 17 18  1  0  0  0  0
 17 10  2  0  0  0  0
 19 21  1  0  0  0  0
 19 20  1  0  0  0  0
 19  1  1  0  0  0  0
 20 24  1  0  0  0  0
 21 20  1  0  0  0  0
 21 26  1  0  0  0  0
 22 19  1  0  0  0  0
 23 20  1  0  0  0  0
 25 21  1  0  0  0  0
M  END
>  <minimizedAffinity>
-4.67125273

$$$$

 OpenBabel03242520173D

 26 28  0  0  0  0  0  0  0  0999 V2000
   38.3860   29.5620   42.5970 C   0  0  0  0  0  0  0  0  0  0  0  0
   37.6500   29.4590   41.3980 C   0  0  0  0  0  0  0  0  0  0  0  0
   36.6000   28.5260   41.3150 C   0  0  0  0  0  0  0  0  0  0  0  0
   36.3650   27.7740   42.4270 N   0  0  0  0  0  0  0  0  0  0  0  0
   37.0850   27.9000   43.5450 C   0  0  0  0  0  0  0  0  0  0  0  0
   38.1000   28.7910   43.6430 N   0  0  0  0  0  0  0  0  0  0  0  0
   37.8980   30.0830   40.5770 H   0  0  0  0  0  0  0  0  0  0  0  0
   36.8270   27.2550   44.3870 H   0  0  0  0  0  0  0  0  0  0  0  0
   37.5300   26.2880   39.4630 Cl  0  0  0  0  0  0  0  0  0  0  0  0
   36.1700   27.3840   39.2210 C   0  0  0  0  0  0  0  0  0  0  0  0
   35.8060   28.3770   40.1030 C   0  0  0  0  0  0  0  0  0  0  0  0
   34.7150   29.1460   39.7570 C   0  0  0  0  0  0  0  0  0  0  0  0
   34.4180   29.9290   40.4410 H   0  0  0  0  0  0  0  0  0  0  0  0
   33.9860   28.9880   38.6180 C   0  0  0  0  0  3  0  0  0  0  0  0
   34.3760   27.9770   37.7440 C   0  0  0  0  0  0  0  0  0  0  0  0
   33.4230   27.7880   36.2760 Cl  0  0  0  0  0  0  0  0  0  0  0  0
   35.4590   27.1870   38.0490 C   0  0  0  0  0  0  0  0  0  0  0  0
   35.6840   26.4290   37.3080 H   0  0  0  0  0  0  0  0  0  0  0  0
   39.4760   30.5600   42.6420 C   0  0  0  0  0  0  0  0  0  0  0  0
   40.8840   29.9310   42.4890 C   0  0  0  0  0  0  0  0  0  0  0  0
   40.3090   30.9170   41.5180 C   0  0  0  0  0  0  0  0  0  0  0  0
   39.3750   31.2560   43.5130 H   0  0  0  0  0  0  0  0  0  0  0  0
   41.6070   30.2930   43.2390 H   0  0  0  0  0  0  0  0  0  0  0  0
   40.9610   28.8820   42.2030 H   0  0  0  0  0  0  0  0  0  0  0  0
   40.7150   31.9540   41.4500 H   0  0  0  0  0  0  0  0  0  0  0  0
   40.0780   30.4730   40.5080 H   0  0  0  0  0  0  0  0  0  0  0  0
  1 19  1  0  0  0  0
  1  6  1  0  0  0  0
  2  1  2  0  0  0  0
  3  2  1  0  0  0  0
  3  4  2  0  0  0  0
  4  5  1  0  0  0  0
  5  6  2  0  0  0  0
  5  8  1  0  0  0  0
  7  2  1  0  0  0  0
 10  9  1  0  0  0  0
 10 11  1  0  0  0  0
 11  3  1  0  0  0  0
 12 11  2  0  0  0  0
 12 13  1  0  0  0  0
 14 12  1  0  0  0  0
 15 17  1  0  0  0  0
 15 14  2  0  0  0  0
 16 15  1  0  0  0  0
 17 10  2  0  0  0  0
 18 17  1  0  0  0  0
 19 22  1  0  0  0  0
 20 19  1  0  0  0  0
 20 23  1  0  0  0  0
 21 20  1  0  0  0  0
 21 19  1  0  0  0  0
 24 20  1  0  0  0  0
 25 21  1  0  0  0  0
 26 21  1  0  0  0  0
M  END
>  <minimizedAffinity>
-4.4853301

$$$$

 OpenBabel03242520173D

 26 28  0  0  0  0  0  0  0  0999 V2000
   39.3560   27.1280   43.4070 C   0  0  0  0  0  0  0  0  0  0  0  0
   40.1880   28.1220   42.8500 C   0  0  0  0  0  0  0  0  0  0  0  0
   39.6510   29.3950   42.5810 C   0  0  0  0  0  0  0  0  0  0  0  0
   38.3350   29.5780   42.8880 N   0  0  0  0  0  0  0  0  0  0  0  0
   37.5790   28.6100   43.4150 C   0  0  0  0  0  0  0  0  0  0  0  0
   38.0780   27.3790   43.6800 N   0  0  0  0  0  0  0  0  0  0  0  0
   41.2020   27.8970   42.6400 H   0  0  0  0  0  0  0  0  0  0  0  0
   36.5350   28.8450   43.6280 H   0  0  0  0  0  0  0  0  0  0  0  0
   38.9920   30.0600   39.6780 Cl  0  0  0  0  0  0  0  0  0  0  0  0
   40.2180   30.8110   40.6990 C   0  0  0  0  0  0  0  0  0  0  0  0
   40.4630   30.4590   42.0070 C   0  0  0  0  0  0  0  0  0  0  0  0
   41.4610   31.1500   42.6610 C   0  0  0  0  0  0  0  0  0  0  0  0
   41.6630   30.8840   43.6890 H   0  0  0  0  0  0  0  0  0  0  0  0
   42.2070   32.1430   42.1040 C   0  0  0  0  0  3  0  0  0  0  0  0
   41.9390   32.4800   40.7800 C   0  0  0  0  0  0  0  0  0  0  0  0
   42.9140   33.7660   40.0760 Cl  0  0  0  0  0  0  0  0  0  0  0  0
   40.9520   31.8150   40.0900 C   0  0  0  0  0  0  0  0  0  0  0  0
   40.8190   32.1480   39.0670 H   0  0  0  0  0  0  0  0  0  0  0  0
   39.9630   25.8080   43.6800 C   0  0  0  0  0  0  0  0  0  0  0  0
   39.6420   24.7540   42.5900 C   0  0  0  0  0  0  0  0  0  0  0  0
   41.0310   25.2200   42.9060 C   0  0  0  0  0  0  0  0  0  0  0  0
   39.7690   25.4620   44.7270 H   0  0  0  0  0  0  0  0  0  0  0  0
   39.3070   23.7870   43.0030 H   0  0  0  0  0  0  0  0  0  0  0  0
   39.1650   25.0830   41.6670 H   0  0  0  0  0  0  0  0  0  0  0  0
   41.7600   24.5430   43.4110 H   0  0  0  0  0  0  0  0  0  0  0  0
   41.5010   25.8270   42.0800 H   0  0  0  0  0  0  0  0  0  0  0  0
  1  6  1  0  0  0  0
  1 19  1  0  0  0  0
  2  1  2  0  0  0  0
  3  2  1  0  0  0  0
  3  4  2  0  0  0  0
  4  5  1  0  0  0  0
  5  8  1  0  0  0  0
  5  6  2  0  0  0  0
  7  2  1  0  0  0  0
  9 10  1  0  0  0  0
 10 11  1  0  0  0  0
 11  3  1  0  0  0  0
 11 12  2  0  0  0  0
 12 13  1  0  0  0  0
 14 12  1  0  0  0  0
 15 14  2  0  0  0  0
 16 15  1  0  0  0  0
 17 10  2  0  0  0  0
 17 15  1  0  0  0  0
 18 17  1  0  0  0  0
 19 22  1  0  0  0  0
 20 21  1  0  0  0  0
 20 23  1  0  0  0  0
 20 19  1  0  0  0  0
 21 25  1  0  0  0  0
 21 19  1  0  0  0  0
 24 20  1  0  0  0  0
 26 21  1  0  0  0  0
M  END
>  <minimizedAffinity>
-4.40269089

$$$$

 OpenBabel03242520173D

 26 28  0  0  0  0  0  0  0  0999 V2000
   33.3640   29.0270   36.5860 C   0  0  0  0  0  0  0  0  0  0  0  0
   33.8800   28.9980   37.8990 C   0  0  0  0  0  0  0  0  0  0  0  0
   35.2720   29.0730   38.0910 C   0  0  0  0  0  0  0  0  0  0  0  0
   36.0370   29.1730   36.9670 N   0  0  0  0  0  0  0  0  0  0  0  0
   35.5100   29.1960   35.7390 C   0  0  0  0  0  0  0  0  0  0  0  0
   34.1730   29.1240   35.5350 N   0  0  0  0  0  0  0  0  0  0  0  0
   33.2150   28.9180   38.7210 H   0  0  0  0  0  0  0  0  0  0  0  0
   36.1980   29.2770   34.8970 H   0  0  0  0  0  0  0  0  0  0  0  0
   36.1750   26.3120   39.0220 Cl  0  0  0  0  0  0  0  0  0  0  0  0
   36.2910   27.8330   39.9060 C   0  0  0  0  0  0  0  0  0  0  0  0
   35.8610   29.0480   39.4230 C   0  0  0  0  0  0  0  0  0  0  0  0
   36.0270   30.1400   40.2490 C   0  0  0  0  0  0  0  0  0  0  0  0
   35.6940   31.1000   39.8810 H   0  0  0  0  0  0  0  0  0  0  0  0
   36.5810   30.0930   41.4910 C   0  0  0  0  0  3  0  0  0  0  0  0
   37.0080   28.8520   41.9560 C   0  0  0  0  0  0  0  0  0  0  0  0
   37.7220   28.8100   43.5650 Cl  0  0  0  0  0  0  0  0  0  0  0  0
   36.8610   27.7360   41.1650 C   0  0  0  0  0  0  0  0  0  0  0  0
   37.2220   26.8190   41.6140 H   0  0  0  0  0  0  0  0  0  0  0  0
   31.8960   28.9530   36.4320 C   0  0  0  0  0  0  0  0  0  0  0  0
   31.2110   30.3430   36.4440 C   0  0  0  0  0  0  0  0  0  0  0  0
   31.1680   29.4110   35.2720 C   0  0  0  0  0  0  0  0  0  0  0  0
   31.4350   28.2060   37.1270 H   0  0  0  0  0  0  0  0  0  0  0  0
   30.3320   30.3900   37.1100 H   0  0  0  0  0  0  0  0  0  0  0  0
   31.8350   31.2350   36.3960 H   0  0  0  0  0  0  0  0  0  0  0  0
   30.2200   28.8970   34.9860 H   0  0  0  0  0  0  0  0  0  0  0  0
   31.7470   29.7830   34.3790 H   0  0  0  0  0  0  0  0  0  0  0  0
  1  2  1  0  0  0  0
  2  3  2  0  0  0  0
  2  7  1  0  0  0  0
  3 11  1  0  0  0  0
  4  3  1  0  0  0  0
  5  4  2  0  0  0  0
  6  5  1  0  0  0  0
  6  1  2  0  0  0  0
  8  5  1  0  0  0  0
  9 10  1  0  0  0  0
 10 17  1  0  0  0  0
 11 10  2  0  0  0  0
 11 12  1  0  0  0  0
 12 14  2  0  0  0  0
 13 12  1  0  0  0  0
 14 15  1  0  0  0  0
 15 16  1  0  0  0  0
 17 18  1  0  0  0  0
 17 15  2  0  0  0  0
 19 20  1  0  0  0  0
 19  1  1  0  0  0  0
 19 22  1  0  0  0  0
 20 23  1  0  0  0  0
 21 19  1  0  0  0  0
 21 20  1  0  0  0  0
 24 20  1  0  0  0  0
 25 21  1  0  0  0  0
 26 21  1  0  0  0  0
M  END
>  <minimizedAffinity>
-4.38183928

$$$$

 OpenBabel03242520173D

 26 28  0  0  0  0  0  0  0  0999 V2000
   38.8770   25.6800   41.7370 C   0  0  0  0  0  0  0  0  0  0  0  0
   38.5560   26.9190   41.1420 C   0  0  0  0  0  0  0  0  0  0  0  0
   38.7330   28.1030   41.8820 C   0  0  0  0  0  0  0  0  0  0  0  0
   39.2140   27.9610   43.1500 N   0  0  0  0  0  0  0  0  0  0  0  0
   39.5050   26.7690   43.6800 C   0  0  0  0  0  0  0  0  0  0  0  0
   39.3410   25.6200   42.9830 N   0  0  0  0  0  0  0  0  0  0  0  0
   38.1860   26.9410   40.1480 H   0  0  0  0  0  0  0  0  0  0  0  0
   39.8840   26.7510   44.7020 H   0  0  0  0  0  0  0  0  0  0  0  0
   35.7620   28.5860   41.3920 Cl  0  0  0  0  0  0  0  0  0  0  0  0
   37.0950   29.6940   41.0720 C   0  0  0  0  0  0  0  0  0  0  0  0
   38.4200   29.4080   41.3190 C   0  0  0  0  0  0  0  0  0  0  0  0
   39.3360   30.3910   41.0090 C   0  0  0  0  0  0  0  0  0  0  0  0
   40.3790   30.1800   41.1980 H   0  0  0  0  0  0  0  0  0  0  0  0
   39.0190   31.6060   40.4830 C   0  0  0  0  0  3  0  0  0  0  0  0
   37.6740   31.8700   40.2440 C   0  0  0  0  0  0  0  0  0  0  0  0
   37.2830   33.4460   39.5630 Cl  0  0  0  0  0  0  0  0  0  0  0  0
   36.7260   30.9170   40.5380 C   0  0  0  0  0  0  0  0  0  0  0  0
   35.7080   31.2150   40.3160 H   0  0  0  0  0  0  0  0  0  0  0  0
   38.6830   24.4640   40.9200 C   0  0  0  0  0  0  0  0  0  0  0  0
   37.2540   23.8750   41.0350 C   0  0  0  0  0  0  0  0  0  0  0  0
   37.8380   24.3850   39.7520 C   0  0  0  0  0  0  0  0  0  0  0  0
   39.5020   23.7160   41.0740 H   0  0  0  0  0  0  0  0  0  0  0  0
   37.2430   22.7860   41.2100 H   0  0  0  0  0  0  0  0  0  0  0  0
   36.4860   24.4600   41.5420 H   0  0  0  0  0  0  0  0  0  0  0  0
   38.1100   23.6820   38.9300 H   0  0  0  0  0  0  0  0  0  0  0  0
   37.3440   25.3260   39.3750 H   0  0  0  0  0  0  0  0  0  0  0  0
  1  6  1  0  0  0  0
  2  1  2  0  0  0  0
  2  3  1  0  0  0  0
  3  4  2  0  0  0  0
  4  5  1  0  0  0  0
  5  8  1  0  0  0  0
  6  5  2  0  0  0  0
  7  2  1  0  0  0  0
 10 11  1  0  0  0  0
 10  9  1  0  0  0  0
 11  3  1  0  0  0  0
 12 13  1  0  0  0  0
 12 11  2  0  0  0  0
 14 12  1  0  0  0  0
 15 14  2  0  0  0  0
 15 17  1  0  0  0  0
 16 15  1  0  0  0  0
 17 10  2  0  0  0  0
 18 17  1  0  0  0  0
 19 20  1  0  0  0  0
 19 22  1  0  0  0  0
 19  1  1  0  0  0  0
 20 23  1  0  0  0  0
 20 24  1  0  0  0  0
 21 19  1  0  0  0  0
 21 20  1  0  0  0  0
 25 21  1  0  0  0  0
 26 21  1  0  0  0  0
M  END
>  <minimizedAffinity>
-4.37969732

$$$$
