
 OpenBabel03252501013D

 26 28  0  0  1  0  0  0  0  0999 V2000
   47.0690   35.0220   41.6190 C   0  0  1  0  0  0  0  0  0  0  0  0
   48.5060   35.4620   41.8100 C   0  0  0  0  0  0  0  0  0  0  0  0
   48.1170   34.0200   41.4490 C   0  0  2  0  0  0  0  0  0  0  0  0
   46.5890   35.5530   40.7680 H   0  0  0  0  0  0  0  0  0  0  0  0
   48.9630   36.0850   41.0500 H   0  0  0  0  0  0  0  0  0  0  0  0
   48.8860   35.6590   42.8370 H   0  0  0  0  0  0  0  0  0  0  0  0
   48.3510   33.2950   42.2280 H   0  0  0  0  0  0  0  0  0  0  0  0
   49.6960   31.4640   41.2200 Cl  0  0  0  0  0  0  0  0  0  0  0  0
   49.0910   32.4040   39.8870 C   0  0  0  0  0  0  0  0  0  0  0  0
   48.3730   33.5690   40.0590 C   0  0  0  0  0  0  0  0  0  0  0  0
   47.9410   34.2370   38.9310 C   0  0  0  0  0  0  0  0  0  0  0  0
   47.3770   35.1500   39.0580 H   0  0  0  0  0  0  0  0  0  0  0  0
   48.1930   33.7950   37.6500 C   0  0  0  0  0  0  0  0  0  0  0  0
   48.9060   32.6380   37.4710 C   0  0  0  0  0  0  0  0  0  0  0  0
   49.2600   32.0250   35.8840 Cl  0  0  0  0  0  0  0  0  0  0  0  0
   49.3530   31.9470   38.5950 C   0  0  0  0  0  0  0  0  0  0  0  0
   49.9230   31.0240   38.4320 H   0  0  0  0  0  0  0  0  0  0  0  0
   44.6070   35.8370   44.3620 C   0  0  0  0  0  0  0  0  0  0  0  0
   45.3040   35.9490   43.1430 C   0  0  0  0  0  0  0  0  0  0  0  0
   46.2890   35.0010   42.9040 C   0  0  0  0  0  0  0  0  0  0  0  0
   46.5360   34.0200   43.8360 N   0  0  0  0  0  0  0  0  0  0  0  0
   45.8440   33.9460   44.9950 C   0  0  0  0  0  0  0  0  0  0  0  0
   44.8890   34.8570   45.2400 N   0  0  0  0  0  0  0  0  0  0  0  0
   43.8520   36.6030   44.4960 H   0  0  0  0  0  0  0  0  0  0  0  0
   45.0820   36.7330   42.4360 H   0  0  0  0  0  0  0  0  0  0  0  0
   46.0900   33.1480   45.6820 H   0  0  0  0  0  0  0  0  0  0  0  0
  1  4  1  6  0  0  0
  1  2  1  0  0  0  0
  1 20  1  0  0  0  0
  2  6  1  0  0  0  0
  3  1  1  0  0  0  0
  3  2  1  0  0  0  0
  3  7  1  1  0  0  0
  5  2  1  0  0  0  0
  9 10  1  0  0  0  0
  9  8  1  0  0  0  0
 10  3  1  0  0  0  0
 11 12  1  0  0  0  0
 11 10  2  0  0  0  0
 13 11  1  0  0  0  0
 14 13  2  0  0  0  0
 14 16  1  0  0  0  0
 15 14  1  0  0  0  0
 16  9  2  0  0  0  0
 17 16  1  0  0  0  0
 18 24  1  0  0  0  0
 18 23  1  0  0  0  0
 19 18  2  0  0  0  0
 20 19  1  0  0  0  0
 20 21  2  0  0  0  0
 21 22  1  0  0  0  0
 22 23  2  0  0  0  0
 22 26  1  0  0  0  0
 25 19  1  0  0  0  0
M  END
>  <minimizedAffinity>
-5.14864588

>  <minimizedRMSD>
0.87168926

$$$$
