
 OpenBabel03252505163D

 26 28  0  0  0  0  0  0  0  0999 V2000
   39.5100   34.1540   40.3740 C   0  0  0  0  0  0  0  0  0  0  0  0
   40.6350   33.9900   39.5480 C   0  0  0  0  0  0  0  0  0  0  0  0
   41.0590   32.6840   39.3550 C   0  0  0  0  0  0  0  0  0  0  0  0
   40.4050   31.6450   39.9450 N   0  0  0  0  0  0  0  0  0  0  0  0
   39.3130   31.8500   40.7430 C   0  0  0  0  0  0  0  0  0  0  0  0
   38.8880   33.1120   40.9400 N   0  0  0  0  0  0  0  0  0  0  0  0
   39.1740   35.1680   40.5300 H   0  0  0  0  0  0  0  0  0  0  0  0
   41.1790   34.7760   39.0640 H   0  0  0  0  0  0  0  0  0  0  0  0
   36.6680   30.9350   39.5020 Cl  0  0  0  0  0  0  0  0  0  0  0  0
   37.3800   30.2700   40.9290 C   0  0  0  0  0  0  0  0  0  0  0  0
   38.5790   30.7690   41.3910 C   0  0  0  0  0  0  0  0  0  0  0  0
   39.0660   30.1740   42.5370 C   0  0  0  0  0  0  0  0  0  0  0  0
   40.0000   30.5170   42.9530 H   0  0  0  0  0  0  0  0  0  0  0  0
   38.4020   29.1500   43.1790 C   0  0  0  0  0  3  0  0  0  0  0  0
   37.2050   28.6800   42.6850 C   0  0  0  0  0  0  0  0  0  0  0  0
   36.4060   27.3780   43.5420 Cl  0  0  0  0  0  0  0  0  0  0  0  0
   36.6830   29.2470   41.5410 C   0  0  0  0  0  0  0  0  0  0  0  0
   35.7360   28.8740   41.1500 H   0  0  0  0  0  0  0  0  0  0  0  0
   42.2350   32.3770   38.4760 C   0  0  0  0  0  0  0  0  0  0  0  0
   41.8390   31.9430   37.0800 C   0  0  0  0  0  0  0  0  0  0  0  0
   42.5510   33.2810   37.3790 C   0  0  0  0  0  0  0  0  0  0  0  0
   43.0030   31.8010   38.9940 H   0  0  0  0  0  0  0  0  0  0  0  0
   42.4570   31.1030   36.7050 H   0  0  0  0  0  0  0  0  0  0  0  0
   40.7790   31.9380   36.8220 H   0  0  0  0  0  0  0  0  0  0  0  0
   43.5640   33.3100   36.9330 H   0  0  0  0  0  0  0  0  0  0  0  0
   41.8920   34.1330   37.1150 H   0  0  0  0  0  0  0  0  0  0  0  0
  1  7  1  0  0  0  0
  1  6  1  0  0  0  0
  2  1  2  0  0  0  0
  3  2  1  0  0  0  0
  3  4  2  0  0  0  0
  4  5  1  0  0  0  0
  5  6  2  0  0  0  0
  5 11  1  0  0  0  0
  8  2  1  0  0  0  0
  9 10  1  0  0  0  0
 10 11  2  0  0  0  0
 10 17  1  0  0  0  0
 11 12  1  0  0  0  0
 12 13  1  0  0  0  0
 12 14  2  0  0  0  0
 15 14  1  0  0  0  0
 15 16  1  0  0  0  0
 17 15  2  0  0  0  0
 18 17  1  0  0  0  0
 19 22  1  0  0  0  0
 19  3  1  0  0  0  0
 20 21  1  0  0  0  0
 20 19  1  0  0  0  0
 21 19  1  0  0  0  0
 23 20  1  0  0  0  0
 24 20  1  0  0  0  0
 25 21  1  0  0  0  0
 26 21  1  0  0  0  0
M  END
>  <minimizedAffinity>
-4.91714668

$$$$

 OpenBabel03252505163D

 26 28  0  0  0  0  0  0  0  0999 V2000
   40.2010   27.0380   43.6800 C   0  0  0  0  0  0  0  0  0  0  0  0
   39.6320   25.7780   43.4270 C   0  0  0  0  0  0  0  0  0  0  0  0
   38.5950   25.7560   42.5060 C   0  0  0  0  0  0  0  0  0  0  0  0
   38.1750   26.9020   41.9030 N   0  0  0  0  0  0  0  0  0  0  0  0
   38.7570   28.1090   42.1790 C   0  0  0  0  0  0  0  0  0  0  0  0
   39.7660   28.1470   43.0690 N   0  0  0  0  0  0  0  0  0  0  0  0
   41.0090   27.0640   44.3950 H   0  0  0  0  0  0  0  0  0  0  0  0
   39.9310   24.8520   43.8770 H   0  0  0  0  0  0  0  0  0  0  0  0
   35.8130   28.4500   41.4100 Cl  0  0  0  0  0  0  0  0  0  0  0  0
   37.0500   29.6320   41.1630 C   0  0  0  0  0  0  0  0  0  0  0  0
   38.3430   29.3600   41.5540 C   0  0  0  0  0  0  0  0  0  0  0  0
   39.2580   30.3650   41.3130 C   0  0  0  0  0  0  0  0  0  0  0  0
   40.2890   30.2170   41.5930 H   0  0  0  0  0  0  0  0  0  0  0  0
   38.9060   31.5600   40.7230 C   0  0  0  0  0  3  0  0  0  0  0  0
   37.6010   31.7930   40.3470 C   0  0  0  0  0  0  0  0  0  0  0  0
   37.2130   33.3300   39.6020 Cl  0  0  0  0  0  0  0  0  0  0  0  0
   36.6550   30.8140   40.5700 C   0  0  0  0  0  0  0  0  0  0  0  0
   35.6220   31.0000   40.2730 H   0  0  0  0  0  0  0  0  0  0  0  0
   37.9220   24.4680   42.1350 C   0  0  0  0  0  0  0  0  0  0  0  0
   36.7830   24.6510   41.1550 C   0  0  0  0  0  0  0  0  0  0  0  0
   38.1050   23.9380   40.7910 C   0  0  0  0  0  0  0  0  0  0  0  0
   37.7580   23.8200   42.9980 H   0  0  0  0  0  0  0  0  0  0  0  0
   35.9060   24.0180   41.3990 H   0  0  0  0  0  0  0  0  0  0  0  0
   36.5840   25.6530   40.7740 H   0  0  0  0  0  0  0  0  0  0  0  0
   37.9400   22.8660   40.5690 H   0  0  0  0  0  0  0  0  0  0  0  0
   38.6430   24.5070   40.0060 H   0  0  0  0  0  0  0  0  0  0  0  0
  1  7  1  0  0  0  0
  2  1  1  0  0  0  0
  2  8  1  0  0  0  0
  3  2  2  0  0  0  0
  4  5  2  0  0  0  0
  4  3  1  0  0  0  0
  5  6  1  0  0  0  0
  6  1  2  0  0  0  0
 10  9  1  0  0  0  0
 10 11  1  0  0  0  0
 11  5  1  0  0  0  0
 12 11  2  0  0  0  0
 12 13  1  0  0  0  0
 14 12  1  0  0  0  0
 15 17  1  0  0  0  0
 15 14  2  0  0  0  0
 16 15  1  0  0  0  0
 17 10  2  0  0  0  0
 18 17  1  0  0  0  0
 19  3  1  0  0  0  0
 19 22  1  0  0  0  0
 20 23  1  0  0  0  0
 20 19  1  0  0  0  0
 21 20  1  0  0  0  0
 21 19  1  0  0  0  0
 24 20  1  0  0  0  0
 25 21  1  0  0  0  0
 26 21  1  0  0  0  0
M  END
>  <minimizedAffinity>
-4.87332821

$$$$

 OpenBabel03252505163D

 26 28  0  0  0  0  0  0  0  0999 V2000
   39.2200   31.2100   41.2810 C   0  0  0  0  0  0  0  0  0  0  0  0
   39.0340   30.4600   42.4550 C   0  0  0  0  0  0  0  0  0  0  0  0
   38.1040   29.4350   42.3770 C   0  0  0  0  0  0  0  0  0  0  0  0
   37.4270   29.1950   41.2200 N   0  0  0  0  0  0  0  0  0  0  0  0
   37.6390   29.9500   40.0990 C   0  0  0  0  0  0  0  0  0  0  0  0
   38.5390   30.9490   40.1580 N   0  0  0  0  0  0  0  0  0  0  0  0
   39.9420   32.0100   41.3320 H   0  0  0  0  0  0  0  0  0  0  0  0
   39.5440   30.6130   43.3840 H   0  0  0  0  0  0  0  0  0  0  0  0
   34.6760   29.1840   40.1900 Cl  0  0  0  0  0  0  0  0  0  0  0  0
   35.6100   29.3780   38.7490 C   0  0  0  0  0  0  0  0  0  0  0  0
   36.9410   29.7270   38.8380 C   0  0  0  0  0  0  0  0  0  0  0  0
   37.6010   29.8560   37.6330 C   0  0  0  0  0  0  0  0  0  0  0  0
   38.6450   30.1260   37.6310 H   0  0  0  0  0  0  0  0  0  0  0  0
   36.9770   29.6520   36.4210 C   0  0  0  0  0  3  0  0  0  0  0  0
   35.6440   29.3040   36.3750 C   0  0  0  0  0  0  0  0  0  0  0  0
   34.9030   29.0570   34.8070 Cl  0  0  0  0  0  0  0  0  0  0  0  0
   34.9470   29.1650   37.5570 C   0  0  0  0  0  0  0  0  0  0  0  0
   33.8920   28.8900   37.5200 H   0  0  0  0  0  0  0  0  0  0  0  0
   37.8340   28.5490   43.5560 C   0  0  0  0  0  0  0  0  0  0  0  0
   36.7460   27.5280   43.2990 C   0  0  0  0  0  0  0  0  0  0  0  0
   38.2310   27.1490   43.4940 C   0  0  0  0  0  0  0  0  0  0  0  0
   37.8050   29.1040   44.4960 H   0  0  0  0  0  0  0  0  0  0  0  0
   36.0640   27.4060   44.1650 H   0  0  0  0  0  0  0  0  0  0  0  0
   36.3010   27.4860   42.3040 H   0  0  0  0  0  0  0  0  0  0  0  0
   38.3800   26.5540   44.4160 H   0  0  0  0  0  0  0  0  0  0  0  0
   38.6350   26.6970   42.5660 H   0  0  0  0  0  0  0  0  0  0  0  0
  1  7  1  0  0  0  0
  1  2  1  0  0  0  0
  2  8  1  0  0  0  0
  3  2  2  0  0  0  0
  3 19  1  0  0  0  0
  4  3  1  0  0  0  0
  5  6  1  0  0  0  0
  5  4  2  0  0  0  0
  6  1  2  0  0  0  0
 10 11  1  0  0  0  0
 10  9  1  0  0  0  0
 11  5  1  0  0  0  0
 12 11  2  0  0  0  0
 13 12  1  0  0  0  0
 14 12  1  0  0  0  0
 15 14  2  0  0  0  0
 15 17  1  0  0  0  0
 16 15  1  0  0  0  0
 17 10  2  0  0  0  0
 18 17  1  0  0  0  0
 19 22  1  0  0  0  0
 20 21  1  0  0  0  0
 20 19  1  0  0  0  0
 20 23  1  0  0  0  0
 21 19  1  0  0  0  0
 21 25  1  0  0  0  0
 24 20  1  0  0  0  0
 26 21  1  0  0  0  0
M  END
>  <minimizedAffinity>
-4.86336184

$$$$

 OpenBabel03252505163D

 26 28  0  0  0  0  0  0  0  0999 V2000
   36.9740   27.7790   43.6800 C   0  0  0  0  0  0  0  0  0  0  0  0
   36.9060   26.6130   42.8980 C   0  0  0  0  0  0  0  0  0  0  0  0
   37.4430   26.7070   41.6230 C   0  0  0  0  0  0  0  0  0  0  0  0
   37.9940   27.8730   41.1830 N   0  0  0  0  0  0  0  0  0  0  0  0
   38.0390   28.9860   41.9780 C   0  0  0  0  0  0  0  0  0  0  0  0
   37.5220   28.9100   43.2190 N   0  0  0  0  0  0  0  0  0  0  0  0
   36.5580   27.7150   44.6730 H   0  0  0  0  0  0  0  0  0  0  0  0
   36.4840   25.6770   43.2020 H   0  0  0  0  0  0  0  0  0  0  0  0
   36.2160   31.0550   40.6470 Cl  0  0  0  0  0  0  0  0  0  0  0  0
   37.9070   31.2610   40.9420 C   0  0  0  0  0  0  0  0  0  0  0  0
   38.6220   30.2520   41.5510 C   0  0  0  0  0  0  0  0  0  0  0  0
   39.9650   30.5100   41.7410 C   0  0  0  0  0  0  0  0  0  0  0  0
   40.5830   29.7630   42.2120 H   0  0  0  0  0  0  0  0  0  0  0  0
   40.5530   31.6940   41.3510 C   0  0  0  0  0  3  0  0  0  0  0  0
   39.8030   32.6780   40.7440 C   0  0  0  0  0  0  0  0  0  0  0  0
   40.6040   34.1610   40.2690 Cl  0  0  0  0  0  0  0  0  0  0  0  0
   38.4560   32.4600   40.5350 C   0  0  0  0  0  0  0  0  0  0  0  0
   37.8630   33.2390   40.0560 H   0  0  0  0  0  0  0  0  0  0  0  0
   37.4520   25.5240   40.7010 C   0  0  0  0  0  0  0  0  0  0  0  0
   38.2200   24.3420   41.2550 C   0  0  0  0  0  0  0  0  0  0  0  0
   36.6870   24.3400   41.0650 C   0  0  0  0  0  0  0  0  0  0  0  0
   37.6250   25.8080   39.6610 H   0  0  0  0  0  0  0  0  0  0  0  0
   38.8360   23.8370   40.4830 H   0  0  0  0  0  0  0  0  0  0  0  0
   38.6430   24.4240   42.2560 H   0  0  0  0  0  0  0  0  0  0  0  0
   36.3730   23.6020   40.3010 H   0  0  0  0  0  0  0  0  0  0  0  0
   36.1800   24.2500   42.0470 H   0  0  0  0  0  0  0  0  0  0  0  0
  1  7  1  0  0  0  0
  2  8  1  0  0  0  0
  2  1  2  0  0  0  0
  3  2  1  0  0  0  0
  4  3  2  0  0  0  0
  4  5  1  0  0  0  0
  5  6  2  0  0  0  0
  6  1  1  0  0  0  0
  9 10  1  0  0  0  0
 10 11  1  0  0  0  0
 11 12  2  0  0  0  0
 11  5  1  0  0  0  0
 12 13  1  0  0  0  0
 14 12  1  0  0  0  0
 15 14  2  0  0  0  0
 16 15  1  0  0  0  0
 17 15  1  0  0  0  0
 17 10  2  0  0  0  0
 18 17  1  0  0  0  0
 19 21  1  0  0  0  0
 19 20  1  0  0  0  0
 19  3  1  0  0  0  0
 20 24  1  0  0  0  0
 21 20  1  0  0  0  0
 21 26  1  0  0  0  0
 22 19  1  0  0  0  0
 23 20  1  0  0  0  0
 25 21  1  0  0  0  0
M  END
>  <minimizedAffinity>
-4.82095003

$$$$

 OpenBabel03252505163D

 26 28  0  0  0  0  0  0  0  0999 V2000
   36.1750   30.1450   40.0960 C   0  0  0  0  0  0  0  0  0  0  0  0
   36.3360   29.4870   41.3270 C   0  0  0  0  0  0  0  0  0  0  0  0
   37.5810   29.6150   41.9240 C   0  0  0  0  0  0  0  0  0  0  0  0
   38.5680   30.3390   41.3280 N   0  0  0  0  0  0  0  0  0  0  0  0
   38.3680   30.9650   40.1270 C   0  0  0  0  0  0  0  0  0  0  0  0
   37.1650   30.8500   39.5350 N   0  0  0  0  0  0  0  0  0  0  0  0
   35.2090   30.0500   39.6240 H   0  0  0  0  0  0  0  0  0  0  0  0
   35.5880   28.9080   41.8320 H   0  0  0  0  0  0  0  0  0  0  0  0
   38.7730   33.8720   40.9970 Cl  0  0  0  0  0  0  0  0  0  0  0  0
   39.6700   33.0710   39.7570 C   0  0  0  0  0  0  0  0  0  0  0  0
   39.3940   31.7540   39.4550 C   0  0  0  0  0  0  0  0  0  0  0  0
   40.1620   31.2030   38.4500 C   0  0  0  0  0  0  0  0  0  0  0  0
   39.9980   30.1770   38.1630 H   0  0  0  0  0  0  0  0  0  0  0  0
   41.1400   31.9170   37.7900 C   0  0  0  0  0  3  0  0  0  0  0  0
   41.3860   33.2320   38.1210 C   0  0  0  0  0  0  0  0  0  0  0  0
   42.6400   34.0890   37.2500 Cl  0  0  0  0  0  0  0  0  0  0  0  0
   40.6390   33.8210   39.1210 C   0  0  0  0  0  0  0  0  0  0  0  0
   40.8340   34.8620   39.3840 H   0  0  0  0  0  0  0  0  0  0  0  0
   37.8680   28.9780   43.2510 C   0  0  0  0  0  0  0  0  0  0  0  0
   36.9630   27.8030   43.5580 C   0  0  0  0  0  0  0  0  0  0  0  0
   38.4760   27.6550   43.2830 C   0  0  0  0  0  0  0  0  0  0  0  0
   38.0370   29.7150   44.0390 H   0  0  0  0  0  0  0  0  0  0  0  0
   36.6270   27.7900   44.6140 H   0  0  0  0  0  0  0  0  0  0  0  0
   36.2420   27.4950   42.8000 H   0  0  0  0  0  0  0  0  0  0  0  0
   39.0180   27.2940   44.1790 H   0  0  0  0  0  0  0  0  0  0  0  0
   38.6420   27.0660   42.3580 H   0  0  0  0  0  0  0  0  0  0  0  0
  1  2  1  0  0  0  0
  2  8  1  0  0  0  0
  2  3  2  0  0  0  0
  3 19  1  0  0  0  0
  4  3  1  0  0  0  0
  5  4  2  0  0  0  0
  6  1  2  0  0  0  0
  6  5  1  0  0  0  0
  7  1  1  0  0  0  0
 10  9  1  0  0  0  0
 11 10  1  0  0  0  0
 11  5  1  0  0  0  0
 12 11  2  0  0  0  0
 13 12  1  0  0  0  0
 14 15  2  0  0  0  0
 14 12  1  0  0  0  0
 15 17  1  0  0  0  0
 16 15  1  0  0  0  0
 17 18  1  0  0  0  0
 17 10  2  0  0  0  0
 19 21  1  0  0  0  0
 19 20  1  0  0  0  0
 19 22  1  0  0  0  0
 20 23  1  0  0  0  0
 21 20  1  0  0  0  0
 21 25  1  0  0  0  0
 24 20  1  0  0  0  0
 26 21  1  0  0  0  0
M  END
>  <minimizedAffinity>
-4.80484343

$$$$

 OpenBabel03252505163D

 26 28  0  0  0  0  0  0  0  0999 V2000
   39.7790   30.4310   42.2620 C   0  0  0  0  0  0  0  0  0  0  0  0
   38.9920   31.4180   41.6450 C   0  0  0  0  0  0  0  0  0  0  0  0
   37.9360   30.9550   40.8740 C   0  0  0  0  0  0  0  0  0  0  0  0
   37.7020   29.6200   40.7410 N   0  0  0  0  0  0  0  0  0  0  0  0
   38.4950   28.6920   41.3600 C   0  0  0  0  0  0  0  0  0  0  0  0
   39.5230   29.1250   42.1120 N   0  0  0  0  0  0  0  0  0  0  0  0
   40.6030   30.7820   42.8640 H   0  0  0  0  0  0  0  0  0  0  0  0
   39.1380   32.4760   41.7220 H   0  0  0  0  0  0  0  0  0  0  0  0
   36.4900   27.3680   43.2580 Cl  0  0  0  0  0  0  0  0  0  0  0  0
   37.4060   26.5450   42.0460 C   0  0  0  0  0  0  0  0  0  0  0  0
   38.2800   27.2540   41.2500 C   0  0  0  0  0  0  0  0  0  0  0  0
   38.9660   26.5080   40.3130 C   0  0  0  0  0  0  0  0  0  0  0  0
   39.6660   27.0010   39.6580 H   0  0  0  0  0  0  0  0  0  0  0  0
   38.7910   25.1470   40.1780 C   0  0  0  0  0  3  0  0  0  0  0  0
   37.9070   24.4750   40.9940 C   0  0  0  0  0  0  0  0  0  0  0  0
   37.7260   22.7460   40.7780 Cl  0  0  0  0  0  0  0  0  0  0  0  0
   37.2010   25.1840   41.9450 C   0  0  0  0  0  0  0  0  0  0  0  0
   36.5010   24.6510   42.5900 H   0  0  0  0  0  0  0  0  0  0  0  0
   37.0090   31.9120   40.1830 C   0  0  0  0  0  0  0  0  0  0  0  0
   37.6610   33.2370   39.8500 C   0  0  0  0  0  0  0  0  0  0  0  0
   37.2280   32.2140   38.7760 C   0  0  0  0  0  0  0  0  0  0  0  0
   36.0150   31.9270   40.6340 H   0  0  0  0  0  0  0  0  0  0  0  0
   36.9900   34.1000   40.0400 H   0  0  0  0  0  0  0  0  0  0  0  0
   38.7180   33.3660   40.0820 H   0  0  0  0  0  0  0  0  0  0  0  0
   36.4120   32.6130   38.1410 H   0  0  0  0  0  0  0  0  0  0  0  0
   38.1150   31.8370   38.2280 H   0  0  0  0  0  0  0  0  0  0  0  0
  1  7  1  0  0  0  0
  2  8  1  0  0  0  0
  2  1  2  0  0  0  0
  3  2  1  0  0  0  0
  4  3  2  0  0  0  0
  4  5  1  0  0  0  0
  5  6  2  0  0  0  0
  6  1  1  0  0  0  0
 10  9  1  0  0  0  0
 11  5  1  0  0  0  0
 11 10  2  0  0  0  0
 12 11  1  0  0  0  0
 13 12  1  0  0  0  0
 14 12  2  0  0  0  0
 14 15  1  0  0  0  0
 15 17  2  0  0  0  0
 16 15  1  0  0  0  0
 17 10  1  0  0  0  0
 17 18  1  0  0  0  0
 19 22  1  0  0  0  0
 19  3  1  0  0  0  0
 20 23  1  0  0  0  0
 20 24  1  0  0  0  0
 20 19  1  0  0  0  0
 21 20  1  0  0  0  0
 21 19  1  0  0  0  0
 25 21  1  0  0  0  0
 26 21  1  0  0  0  0
M  END
>  <minimizedAffinity>
-4.74514103

$$$$

 OpenBabel03252505163D

 26 28  0  0  0  0  0  0  0  0999 V2000
   36.6110   26.9800   43.2840 C   0  0  0  0  0  0  0  0  0  0  0  0
   36.9120   25.8490   42.5070 C   0  0  0  0  0  0  0  0  0  0  0  0
   37.4940   26.1000   41.2730 C   0  0  0  0  0  0  0  0  0  0  0  0
   37.7440   27.3750   40.8670 N   0  0  0  0  0  0  0  0  0  0  0  0
   37.4340   28.4490   41.6570 C   0  0  0  0  0  0  0  0  0  0  0  0
   36.8700   28.2220   42.8570 N   0  0  0  0  0  0  0  0  0  0  0  0
   36.1580   26.7940   44.2460 H   0  0  0  0  0  0  0  0  0  0  0  0
   36.7340   24.8300   42.7860 H   0  0  0  0  0  0  0  0  0  0  0  0
   40.0700   29.7480   42.5180 Cl  0  0  0  0  0  0  0  0  0  0  0  0
   38.8340   30.5240   41.5920 C   0  0  0  0  0  0  0  0  0  0  0  0
   37.6880   29.8310   41.2660 C   0  0  0  0  0  0  0  0  0  0  0  0
   36.7600   30.5370   40.5260 C   0  0  0  0  0  0  0  0  0  0  0  0
   35.8400   30.0540   40.2370 H   0  0  0  0  0  0  0  0  0  0  0  0
   36.9630   31.8440   40.1380 C   0  0  0  0  0  3  0  0  0  0  0  0
   38.1230   32.5010   40.4850 C   0  0  0  0  0  0  0  0  0  0  0  0
   38.3260   34.1610   39.9640 Cl  0  0  0  0  0  0  0  0  0  0  0  0
   39.0770   31.8320   41.2240 C   0  0  0  0  0  0  0  0  0  0  0  0
   39.9950   32.3530   41.4980 H   0  0  0  0  0  0  0  0  0  0  0  0
   37.8830   24.9740   40.3620 C   0  0  0  0  0  0  0  0  0  0  0  0
   37.9590   23.6360   41.0650 C   0  0  0  0  0  0  0  0  0  0  0  0
   36.8850   23.9750   40.0080 C   0  0  0  0  0  0  0  0  0  0  0  0
   38.6970   25.2470   39.6870 H   0  0  0  0  0  0  0  0  0  0  0  0
   38.8310   23.0330   40.7400 H   0  0  0  0  0  0  0  0  0  0  0  0
   37.6870   23.5900   42.1200 H   0  0  0  0  0  0  0  0  0  0  0  0
   36.9960   23.3480   39.1010 H   0  0  0  0  0  0  0  0  0  0  0  0
   35.8770   23.9660   40.4700 H   0  0  0  0  0  0  0  0  0  0  0  0
  1  7  1  0  0  0  0
  2  8  1  0  0  0  0
  2  1  2  0  0  0  0
  3  2  1  0  0  0  0
  4  3  2  0  0  0  0
  4  5  1  0  0  0  0
  5  6  2  0  0  0  0
  6  1  1  0  0  0  0
 10  9  1  0  0  0  0
 11 10  1  0  0  0  0
 11  5  1  0  0  0  0
 12 11  2  0  0  0  0
 13 12  1  0  0  0  0
 14 15  2  0  0  0  0
 14 12  1  0  0  0  0
 15 17  1  0  0  0  0
 16 15  1  0  0  0  0
 17 18  1  0  0  0  0
 17 10  2  0  0  0  0
 19 20  1  0  0  0  0
 19  3  1  0  0  0  0
 20 24  1  0  0  0  0
 21 19  1  0  0  0  0
 21 26  1  0  0  0  0
 21 20  1  0  0  0  0
 22 19  1  0  0  0  0
 23 20  1  0  0  0  0
 25 21  1  0  0  0  0
M  END
>  <minimizedAffinity>
-4.65344858

$$$$

 OpenBabel03252505163D

 26 28  0  0  0  0  0  0  0  0999 V2000
   37.0290   30.3120   41.6950 C   0  0  0  0  0  0  0  0  0  0  0  0
   37.3220   29.1760   42.4680 C   0  0  0  0  0  0  0  0  0  0  0  0
   36.9000   27.9630   41.9440 C   0  0  0  0  0  0  0  0  0  0  0  0
   36.2430   27.9090   40.7520 N   0  0  0  0  0  0  0  0  0  0  0  0
   35.9780   29.0420   40.0310 C   0  0  0  0  0  0  0  0  0  0  0  0
   36.3820   30.2270   40.5260 N   0  0  0  0  0  0  0  0  0  0  0  0
   37.3530   31.2610   42.0950 H   0  0  0  0  0  0  0  0  0  0  0  0
   37.8350   29.1710   43.4080 H   0  0  0  0  0  0  0  0  0  0  0  0
   37.6440   29.2130   37.4680 Cl  0  0  0  0  0  0  0  0  0  0  0  0
   35.9200   29.1040   37.5290 C   0  0  0  0  0  0  0  0  0  0  0  0
   35.2830   29.0320   38.7490 C   0  0  0  0  0  0  0  0  0  0  0  0
   33.9060   28.9490   38.6950 C   0  0  0  0  0  0  0  0  0  0  0  0
   33.3450   28.8910   39.6130 H   0  0  0  0  0  0  0  0  0  0  0  0
   33.2130   28.9380   37.5030 C   0  0  0  0  0  3  0  0  0  0  0  0
   33.8880   29.0120   36.3040 C   0  0  0  0  0  0  0  0  0  0  0  0
   32.9540   28.9930   34.8220 Cl  0  0  0  0  0  0  0  0  0  0  0  0
   35.2650   29.0960   36.3150 C   0  0  0  0  0  0  0  0  0  0  0  0
   35.7980   29.1530   35.3650 H   0  0  0  0  0  0  0  0  0  0  0  0
   37.1740   26.6760   42.6640 C   0  0  0  0  0  0  0  0  0  0  0  0
   37.1290   25.4640   41.7570 C   0  0  0  0  0  0  0  0  0  0  0  0
   38.4290   25.9810   42.4140 C   0  0  0  0  0  0  0  0  0  0  0  0
   36.6580   26.6180   43.6240 H   0  0  0  0  0  0  0  0  0  0  0  0
   36.6220   24.5990   42.2290 H   0  0  0  0  0  0  0  0  0  0  0  0
   36.9600   25.6220   40.6910 H   0  0  0  0  0  0  0  0  0  0  0  0
   38.8340   25.2500   43.1410 H   0  0  0  0  0  0  0  0  0  0  0  0
   39.1420   26.3220   41.6360 H   0  0  0  0  0  0  0  0  0  0  0  0
  1  7  1  0  0  0  0
  1  2  1  0  0  0  0
  2  8  1  0  0  0  0
  3  2  2  0  0  0  0
  3 19  1  0  0  0  0
  4  3  1  0  0  0  0
  5  6  1  0  0  0  0
  5  4  2  0  0  0  0
  6  1  2  0  0  0  0
  9 10  1  0  0  0  0
 10 11  1  0  0  0  0
 11  5  1  0  0  0  0
 12 11  2  0  0  0  0
 12 13  1  0  0  0  0
 14 12  1  0  0  0  0
 15 17  1  0  0  0  0
 15 14  2  0  0  0  0
 16 15  1  0  0  0  0
 17 10  2  0  0  0  0
 18 17  1  0  0  0  0
 19 22  1  0  0  0  0
 20 23  1  0  0  0  0
 20 21  1  0  0  0  0
 20 19  1  0  0  0  0
 21 19  1  0  0  0  0
 21 25  1  0  0  0  0
 24 20  1  0  0  0  0
 26 21  1  0  0  0  0
M  END
>  <minimizedAffinity>
-4.58137894

$$$$

 OpenBabel03252505163D

 26 28  0  0  0  0  0  0  0  0999 V2000
   35.9110   30.4780   40.4280 C   0  0  0  0  0  0  0  0  0  0  0  0
   36.9480   31.3670   40.7620 C   0  0  0  0  0  0  0  0  0  0  0  0
   38.1520   30.7830   41.1240 C   0  0  0  0  0  0  0  0  0  0  0  0
   38.2910   29.4290   41.1470 N   0  0  0  0  0  0  0  0  0  0  0  0
   37.2540   28.5990   40.8150 C   0  0  0  0  0  0  0  0  0  0  0  0
   36.0790   29.1500   40.4600 N   0  0  0  0  0  0  0  0  0  0  0  0
   34.9700   30.9240   40.1450 H   0  0  0  0  0  0  0  0  0  0  0  0
   36.8840   32.4360   40.7560 H   0  0  0  0  0  0  0  0  0  0  0  0
   36.5380   27.0980   43.3850 Cl  0  0  0  0  0  0  0  0  0  0  0  0
   37.0640   26.3580   41.9150 C   0  0  0  0  0  0  0  0  0  0  0  0
   37.3580   27.1440   40.8210 C   0  0  0  0  0  0  0  0  0  0  0  0
   37.7720   26.4620   39.6950 C   0  0  0  0  0  0  0  0  0  0  0  0
   38.0190   27.0160   38.8040 H   0  0  0  0  0  0  0  0  0  0  0  0
   37.8840   25.0880   39.6620 C   0  0  0  0  0  3  0  0  0  0  0  0
   37.5810   24.3380   40.7780 C   0  0  0  0  0  0  0  0  0  0  0  0
   37.7420   22.5970   40.6780 Cl  0  0  0  0  0  0  0  0  0  0  0  0
   37.1630   24.9820   41.9250 C   0  0  0  0  0  0  0  0  0  0  0  0
   36.9220   24.3870   42.8070 H   0  0  0  0  0  0  0  0  0  0  0  0
   39.3410   31.6260   41.4790 C   0  0  0  0  0  0  0  0  0  0  0  0
   40.1530   31.0600   42.6240 C   0  0  0  0  0  0  0  0  0  0  0  0
   40.6750   31.1310   41.1710 C   0  0  0  0  0  0  0  0  0  0  0  0
   39.1050   32.6920   41.4940 H   0  0  0  0  0  0  0  0  0  0  0  0
   40.4930   31.8420   43.3320 H   0  0  0  0  0  0  0  0  0  0  0  0
   39.8530   30.1000   43.0460 H   0  0  0  0  0  0  0  0  0  0  0  0
   41.5370   31.8210   41.0820 H   0  0  0  0  0  0  0  0  0  0  0  0
   40.8420   30.1090   40.7740 H   0  0  0  0  0  0  0  0  0  0  0  0
  1  6  2  0  0  0  0
  1  2  1  0  0  0  0
  2  3  2  0  0  0  0
  3  4  1  0  0  0  0
  3 19  1  0  0  0  0
  5 11  1  0  0  0  0
  5  4  2  0  0  0  0
  6  5  1  0  0  0  0
  7  1  1  0  0  0  0
  8  2  1  0  0  0  0
 10 17  1  0  0  0  0
 10  9  1  0  0  0  0
 11 10  2  0  0  0  0
 12 11  1  0  0  0  0
 13 12  1  0  0  0  0
 14 12  2  0  0  0  0
 14 15  1  0  0  0  0
 15 17  2  0  0  0  0
 16 15  1  0  0  0  0
 17 18  1  0  0  0  0
 19 22  1  0  0  0  0
 19 20  1  0  0  0  0
 20 24  1  0  0  0  0
 20 23  1  0  0  0  0
 21 19  1  0  0  0  0
 21 20  1  0  0  0  0
 25 21  1  0  0  0  0
 26 21  1  0  0  0  0
M  END
>  <minimizedAffinity>
-4.54318953

$$$$
