
 OpenBabel03252503583D

 21 22  0  0  0  0  0  0  0  0999 V2000
   40.6720   32.5880   39.1910 C   0  0  0  0  0  0  0  0  0  0  0  0
   40.3960   33.9200   39.4920 C   0  0  0  0  0  0  0  0  0  0  0  0
   39.4380   34.1610   40.4700 C   0  0  0  0  0  0  0  0  0  0  0  0
   38.8400   33.0970   41.0610 N   0  0  0  0  0  0  0  0  0  0  0  0
   39.1350   31.8140   40.7400 C   0  0  0  0  0  0  0  0  0  0  0  0
   40.0620   31.5710   39.7950 N   0  0  0  0  0  0  0  0  0  0  0  0
   40.8730   34.7720   39.0220 H   0  0  0  0  0  0  0  0  0  0  0  0
   39.1650   35.1800   40.7630 H   0  0  0  0  0  0  0  0  0  0  0  0
   36.6130   30.9660   39.4420 Cl  0  0  0  0  0  0  0  0  0  0  0  0
   37.2700   30.2310   40.8780 C   0  0  0  0  0  0  0  0  0  0  0  0
   38.4600   30.7010   41.4100 C   0  0  0  0  0  0  0  0  0  0  0  0
   39.0200   30.1490   42.5470 C   0  0  0  0  0  0  0  0  0  0  0  0
   39.9340   30.5360   42.9270 H   0  0  0  0  0  0  0  0  0  0  0  0
   38.4000   29.0880   43.2060 C   0  0  0  0  0  3  0  0  0  0  0  0
   37.2170   28.6440   42.6520 C   0  0  0  0  0  0  0  0  0  0  0  0
   36.3980   27.2990   43.4570 Cl  0  0  0  0  0  0  0  0  0  0  0  0
   36.6270   29.1670   41.5200 C   0  0  0  0  0  0  0  0  0  0  0  0
   35.7030   28.7780   41.1340 H   0  0  0  0  0  0  0  0  0  0  0  0
   41.6730   32.3920   38.1720 C   0  0  0  0  0  0  0  0  0  0  0  0
   41.4650   32.1940   36.9410 O   0  0  0  0  0  0  0  0  0  0  0  0
   42.7430   32.3960   38.3710 H   0  0  0  0  0  0  0  0  0  0  0  0
  1  2  2  0  0  0  0
  1  6  1  0  0  0  0
  2  3  1  0  0  0  0
  3  8  1  0  0  0  0
  3  4  2  0  0  0  0
  5  4  1  0  0  0  0
  5 11  1  0  0  0  0
  6  5  2  0  0  0  0
  7  2  1  0  0  0  0
  9 10  1  0  0  0  0
 10 11  2  0  0  0  0
 10 17  1  0  0  0  0
 11 12  1  0  0  0  0
 12 13  1  0  0  0  0
 12 14  2  0  0  0  0
 15 14  1  0  0  0  0
 15 16  1  0  0  0  0
 17 15  2  0  0  0  0
 18 17  1  0  0  0  0
 19 21  1  0  0  0  0
 19  1  1  0  0  0  0
 20 19  2  0  0  0  0
M  END
>  <minimizedAffinity>
-4.70043373

$$$$

 OpenBabel03252503583D

 21 22  0  0  0  0  0  0  0  0999 V2000
   38.5880   31.6570   40.4340 C   0  0  0  0  0  0  0  0  0  0  0  0
   37.2530   32.0560   40.4150 C   0  0  0  0  0  0  0  0  0  0  0  0
   36.3140   31.1470   40.8900 C   0  0  0  0  0  0  0  0  0  0  0  0
   36.7530   29.9440   41.3350 N   0  0  0  0  0  0  0  0  0  0  0  0
   38.0600   29.5910   41.3380 C   0  0  0  0  0  0  0  0  0  0  0  0
   38.9770   30.4650   40.8810 N   0  0  0  0  0  0  0  0  0  0  0  0
   36.9000   33.0170   40.0600 H   0  0  0  0  0  0  0  0  0  0  0  0
   35.2460   31.3860   40.9080 H   0  0  0  0  0  0  0  0  0  0  0  0
   38.1020   27.4720   39.2700 Cl  0  0  0  0  0  0  0  0  0  0  0  0
   38.5320   27.2200   40.9390 C   0  0  0  0  0  0  0  0  0  0  0  0
   38.4810   28.2780   41.8310 C   0  0  0  0  0  0  0  0  0  0  0  0
   38.8140   28.1260   43.1650 C   0  0  0  0  0  0  0  0  0  0  0  0
   38.7610   28.9610   43.8210 H   0  0  0  0  0  0  0  0  0  0  0  0
   39.2170   26.8880   43.6630 C   0  0  0  0  0  3  0  0  0  0  0  0
   39.2580   25.8550   42.7500 C   0  0  0  0  0  0  0  0  0  0  0  0
   39.7650   24.2670   43.3410 Cl  0  0  0  0  0  0  0  0  0  0  0  0
   38.9350   25.9660   41.4140 C   0  0  0  0  0  0  0  0  0  0  0  0
   38.9860   25.1250   40.7480 H   0  0  0  0  0  0  0  0  0  0  0  0
   39.5200   32.6350   39.9320 C   0  0  0  0  0  0  0  0  0  0  0  0
   39.5040   33.8770   40.1610 O   0  0  0  0  0  0  0  0  0  0  0  0
   40.3590   32.3880   39.2840 H   0  0  0  0  0  0  0  0  0  0  0  0
  1  6  1  0  0  0  0
  2  1  2  0  0  0  0
  2  3  1  0  0  0  0
  3  8  1  0  0  0  0
  3  4  2  0  0  0  0
  4  5  1  0  0  0  0
  5 11  1  0  0  0  0
  6  5  2  0  0  0  0
  7  2  1  0  0  0  0
  9 10  1  0  0  0  0
 10 17  2  0  0  0  0
 10 11  1  0  0  0  0
 11 12  2  0  0  0  0
 12 14  1  0  0  0  0
 12 13  1  0  0  0  0
 15 16  1  0  0  0  0
 15 14  2  0  0  0  0
 17 15  1  0  0  0  0
 18 17  1  0  0  0  0
 19 20  2  0  0  0  0
 19  1  1  0  0  0  0
 21 19  1  0  0  0  0
M  END
>  <minimizedAffinity>
-4.36794376

$$$$

 OpenBabel03252503583D

 21 22  0  0  0  0  0  0  0  0999 V2000
   37.6240   26.4340   41.7290 C   0  0  0  0  0  0  0  0  0  0  0  0
   36.9370   26.2210   42.9220 C   0  0  0  0  0  0  0  0  0  0  0  0
   36.5930   27.3470   43.6630 C   0  0  0  0  0  0  0  0  0  0  0  0
   36.9450   28.5650   43.1820 N   0  0  0  0  0  0  0  0  0  0  0  0
   37.6130   28.7320   42.0160 C   0  0  0  0  0  0  0  0  0  0  0  0
   37.9500   27.6480   41.2910 N   0  0  0  0  0  0  0  0  0  0  0  0
   36.6550   25.2500   43.3090 H   0  0  0  0  0  0  0  0  0  0  0  0
   36.0540   27.2630   44.6110 H   0  0  0  0  0  0  0  0  0  0  0  0
   35.5250   30.0300   40.3660 Cl  0  0  0  0  0  0  0  0  0  0  0  0
   37.0560   30.7610   40.7600 C   0  0  0  0  0  0  0  0  0  0  0  0
   37.9680   30.0710   41.5410 C   0  0  0  0  0  0  0  0  0  0  0  0
   39.1960   30.6110   41.8800 C   0  0  0  0  0  0  0  0  0  0  0  0
   39.8710   30.0510   42.4810 H   0  0  0  0  0  0  0  0  0  0  0  0
   39.5610   31.8830   41.4420 C   0  0  0  0  0  3  0  0  0  0  0  0
   38.6310   32.5440   40.6670 C   0  0  0  0  0  0  0  0  0  0  0  0
   39.0560   34.1610   40.0910 Cl  0  0  0  0  0  0  0  0  0  0  0  0
   37.3990   32.0400   40.3080 C   0  0  0  0  0  0  0  0  0  0  0  0
   36.7140   32.6030   39.7010 H   0  0  0  0  0  0  0  0  0  0  0  0
   37.9560   25.2360   40.9990 C   0  0  0  0  0  0  0  0  0  0  0  0
   37.2610   24.1830   40.9250 O   0  0  0  0  0  0  0  0  0  0  0  0
   38.8690   25.1190   40.4200 H   0  0  0  0  0  0  0  0  0  0  0  0
  1  2  1  0  0  0  0
  2  7  1  0  0  0  0
  2  3  2  0  0  0  0
  3  8  1  0  0  0  0
  4  3  1  0  0  0  0
  5  4  2  0  0  0  0
  6  1  2  0  0  0  0
  6  5  1  0  0  0  0
  9 10  1  0  0  0  0
 10 11  1  0  0  0  0
 11 12  2  0  0  0  0
 11  5  1  0  0  0  0
 12 13  1  0  0  0  0
 14 12  1  0  0  0  0
 15 14  2  0  0  0  0
 16 15  1  0  0  0  0
 17 15  1  0  0  0  0
 17 10  2  0  0  0  0
 18 17  1  0  0  0  0
 19  1  1  0  0  0  0
 20 19  2  0  0  0  0
 21 19  1  0  0  0  0
M  END
>  <minimizedAffinity>
-4.32183743

$$$$

 OpenBabel03252503583D

 21 22  0  0  0  0  0  0  0  0999 V2000
   39.2000   31.6300   39.1650 C   0  0  0  0  0  0  0  0  0  0  0  0
   38.2720   32.6580   39.3170 C   0  0  0  0  0  0  0  0  0  0  0  0
   37.0790   32.3420   39.9580 C   0  0  0  0  0  0  0  0  0  0  0  0
   36.8980   31.0690   40.3890 N   0  0  0  0  0  0  0  0  0  0  0  0
   37.8250   30.0950   40.2220 C   0  0  0  0  0  0  0  0  0  0  0  0
   38.9840   30.3920   39.6030 N   0  0  0  0  0  0  0  0  0  0  0  0
   38.4140   33.6750   38.9740 H   0  0  0  0  0  0  0  0  0  0  0  0
   36.3000   33.0940   40.1160 H   0  0  0  0  0  0  0  0  0  0  0  0
   38.5900   29.6580   43.0490 Cl  0  0  0  0  0  0  0  0  0  0  0  0
   37.9060   28.4320   42.0190 C   0  0  0  0  0  0  0  0  0  0  0  0
   37.5800   28.7360   40.7070 C   0  0  0  0  0  0  0  0  0  0  0  0
   37.0340   27.7960   39.8530 C   0  0  0  0  0  0  0  0  0  0  0  0
   36.7970   28.0660   38.8520 H   0  0  0  0  0  0  0  0  0  0  0  0
   36.7890   26.4940   40.2870 C   0  0  0  0  0  3  0  0  0  0  0  0
   37.1250   26.2220   41.5970 C   0  0  0  0  0  0  0  0  0  0  0  0
   36.8300   24.5820   42.1880 Cl  0  0  0  0  0  0  0  0  0  0  0  0
   37.6700   27.1310   42.4790 C   0  0  0  0  0  0  0  0  0  0  0  0
   37.9100   26.8620   43.4910 H   0  0  0  0  0  0  0  0  0  0  0  0
   40.4190   32.0090   38.4940 C   0  0  0  0  0  0  0  0  0  0  0  0
   40.5280   32.4140   37.3020 O   0  0  0  0  0  0  0  0  0  0  0  0
   41.3980   31.9820   38.9670 H   0  0  0  0  0  0  0  0  0  0  0  0
  1  2  2  0  0  0  0
  1  6  1  0  0  0  0
  2  3  1  0  0  0  0
  3  8  1  0  0  0  0
  3  4  2  0  0  0  0
  5  4  1  0  0  0  0
  5 11  1  0  0  0  0
  6  5  2  0  0  0  0
  7  2  1  0  0  0  0
 10 17  1  0  0  0  0
 10  9  1  0  0  0  0
 11 10  2  0  0  0  0
 12 14  2  0  0  0  0
 12 11  1  0  0  0  0
 13 12  1  0  0  0  0
 14 15  1  0  0  0  0
 15 16  1  0  0  0  0
 15 17  2  0  0  0  0
 17 18  1  0  0  0  0
 19 21  1  0  0  0  0
 19  1  1  0  0  0  0
 20 19  2  0  0  0  0
M  END
>  <minimizedAffinity>
-4.29635715

$$$$

 OpenBabel03252503583D

 21 22  0  0  0  0  0  0  0  0999 V2000
   39.6000   32.2760   40.6820 C   0  0  0  0  0  0  0  0  0  0  0  0
   38.6350   33.1690   40.2190 C   0  0  0  0  0  0  0  0  0  0  0  0
   37.3340   32.6920   40.1050 C   0  0  0  0  0  0  0  0  0  0  0  0
   37.0900   31.4030   40.4490 N   0  0  0  0  0  0  0  0  0  0  0  0
   38.0550   30.5640   40.8960 C   0  0  0  0  0  0  0  0  0  0  0  0
   39.3180   31.0170   41.0090 N   0  0  0  0  0  0  0  0  0  0  0  0
   38.8270   34.1990   39.9440 H   0  0  0  0  0  0  0  0  0  0  0  0
   36.5210   33.3310   39.7490 H   0  0  0  0  0  0  0  0  0  0  0  0
   38.2780   28.6460   38.6510 Cl  0  0  0  0  0  0  0  0  0  0  0  0
   37.8130   28.2070   40.2700 C   0  0  0  0  0  0  0  0  0  0  0  0
   37.7380   29.1800   41.2540 C   0  0  0  0  0  0  0  0  0  0  0  0
   37.3740   28.8790   42.5530 C   0  0  0  0  0  0  0  0  0  0  0  0
   37.3260   29.6530   43.2810 H   0  0  0  0  0  0  0  0  0  0  0  0
   37.0660   27.5710   42.9240 C   0  0  0  0  0  3  0  0  0  0  0  0
   37.1490   26.6250   41.9220 C   0  0  0  0  0  0  0  0  0  0  0  0
   36.7660   24.9530   42.3500 Cl  0  0  0  0  0  0  0  0  0  0  0  0
   37.5080   26.8850   40.6170 C   0  0  0  0  0  0  0  0  0  0  0  0
   37.5570   26.1060   39.8780 H   0  0  0  0  0  0  0  0  0  0  0  0
   40.9310   32.8200   40.7820 C   0  0  0  0  0  0  0  0  0  0  0  0
   41.4920   33.5920   39.9540 O   0  0  0  0  0  0  0  0  0  0  0  0
   41.6050   32.6100   41.6090 H   0  0  0  0  0  0  0  0  0  0  0  0
  1 19  1  0  0  0  0
  1  6  1  0  0  0  0
  2  1  2  0  0  0  0
  3  2  1  0  0  0  0
  3  4  2  0  0  0  0
  4  5  1  0  0  0  0
  5  6  2  0  0  0  0
  5 11  1  0  0  0  0
  7  2  1  0  0  0  0
  8  3  1  0  0  0  0
  9 10  1  0  0  0  0
 10 17  2  0  0  0  0
 10 11  1  0  0  0  0
 11 12  2  0  0  0  0
 12 14  1  0  0  0  0
 12 13  1  0  0  0  0
 15 16  1  0  0  0  0
 15 14  2  0  0  0  0
 17 15  1  0  0  0  0
 18 17  1  0  0  0  0
 19 21  1  0  0  0  0
 20 19  2  0  0  0  0
M  END
>  <minimizedAffinity>
-4.26874733

$$$$

 OpenBabel03252503583D

 21 22  0  0  0  0  0  0  0  0999 V2000
   38.4300   29.7960   42.0030 C   0  0  0  0  0  0  0  0  0  0  0  0
   38.2600   29.1410   43.2210 C   0  0  0  0  0  0  0  0  0  0  0  0
   37.2380   28.2010   43.2960 C   0  0  0  0  0  0  0  0  0  0  0  0
   36.4820   27.9840   42.1910 N   0  0  0  0  0  0  0  0  0  0  0  0
   36.6780   28.6410   41.0230 C   0  0  0  0  0  0  0  0  0  0  0  0
   37.6650   29.5530   40.9410 N   0  0  0  0  0  0  0  0  0  0  0  0
   38.8630   29.3130   44.1050 H   0  0  0  0  0  0  0  0  0  0  0  0
   37.0410   27.6450   44.2180 H   0  0  0  0  0  0  0  0  0  0  0  0
   37.5960   26.3700   39.3600 Cl  0  0  0  0  0  0  0  0  0  0  0  0
   36.1800   27.3240   39.0180 C   0  0  0  0  0  0  0  0  0  0  0  0
   35.8330   28.3680   39.8600 C   0  0  0  0  0  0  0  0  0  0  0  0
   34.7170   29.1520   39.6290 C   0  0  0  0  0  0  0  0  0  0  0  0
   34.4820   29.9460   40.2960 H   0  0  0  0  0  0  0  0  0  0  0  0
   33.8930   28.9160   38.5290 C   0  0  0  0  0  3  0  0  0  0  0  0
   34.2660   27.8700   37.7100 C   0  0  0  0  0  0  0  0  0  0  0  0
   33.2480   27.5370   36.3040 Cl  0  0  0  0  0  0  0  0  0  0  0  0
   35.3700   27.0660   37.9060 C   0  0  0  0  0  0  0  0  0  0  0  0
   35.6100   26.2640   37.2340 H   0  0  0  0  0  0  0  0  0  0  0  0
   39.5020   30.7600   41.9770 C   0  0  0  0  0  0  0  0  0  0  0  0
   40.2450   31.0840   42.9460 O   0  0  0  0  0  0  0  0  0  0  0  0
   39.7840   31.3210   41.0890 H   0  0  0  0  0  0  0  0  0  0  0  0
  1  2  1  0  0  0  0
  2  3  2  0  0  0  0
  2  7  1  0  0  0  0
  3  8  1  0  0  0  0
  4  3  1  0  0  0  0
  5  4  2  0  0  0  0
  6  5  1  0  0  0  0
  6  1  2  0  0  0  0
 10  9  1  0  0  0  0
 10 11  1  0  0  0  0
 11  5  1  0  0  0  0
 12 11  2  0  0  0  0
 12 13  1  0  0  0  0
 14 12  1  0  0  0  0
 15 17  1  0  0  0  0
 15 14  2  0  0  0  0
 16 15  1  0  0  0  0
 17 10  2  0  0  0  0
 18 17  1  0  0  0  0
 19  1  1  0  0  0  0
 19 20  2  0  0  0  0
 21 19  1  0  0  0  0
M  END
>  <minimizedAffinity>
-4.1893959

$$$$

 OpenBabel03252503583D

 21 22  0  0  0  0  0  0  0  0999 V2000
   39.9860   32.5380   40.1160 C   0  0  0  0  0  0  0  0  0  0  0  0
   39.5770   33.8560   40.3110 C   0  0  0  0  0  0  0  0  0  0  0  0
   38.2550   34.1600   40.0010 C   0  0  0  0  0  0  0  0  0  0  0  0
   37.4600   33.1670   39.5330 N   0  0  0  0  0  0  0  0  0  0  0  0
   37.8940   31.8960   39.3560 C   0  0  0  0  0  0  0  0  0  0  0  0
   39.1710   31.5910   39.6550 N   0  0  0  0  0  0  0  0  0  0  0  0
   40.2100   34.6510   40.6840 H   0  0  0  0  0  0  0  0  0  0  0  0
   37.8590   35.1720   40.1270 H   0  0  0  0  0  0  0  0  0  0  0  0
   36.2040   30.6320   41.4340 Cl  0  0  0  0  0  0  0  0  0  0  0  0
   36.1600   30.2090   39.7450 C   0  0  0  0  0  0  0  0  0  0  0  0
   36.9930   30.8600   38.8490 C   0  0  0  0  0  0  0  0  0  0  0  0
   36.9920   30.5580   37.4990 C   0  0  0  0  0  0  0  0  0  0  0  0
   37.6460   31.0790   36.8420 H   0  0  0  0  0  0  0  0  0  0  0  0
   36.1450   29.5760   36.9880 C   0  0  0  0  0  3  0  0  0  0  0  0
   35.3290   28.9460   37.9050 C   0  0  0  0  0  0  0  0  0  0  0  0
   34.2390   27.6950   37.2970 Cl  0  0  0  0  0  0  0  0  0  0  0  0
   35.3000   29.2190   39.2560 C   0  0  0  0  0  0  0  0  0  0  0  0
   34.6410   28.6950   39.9240 H   0  0  0  0  0  0  0  0  0  0  0  0
   41.3620   32.2750   40.4520 C   0  0  0  0  0  0  0  0  0  0  0  0
   42.0620   32.8960   41.3020 O   0  0  0  0  0  0  0  0  0  0  0  0
   41.9540   31.4880   39.9900 H   0  0  0  0  0  0  0  0  0  0  0  0
  1  2  1  0  0  0  0
  1 19  1  0  0  0  0
  2  7  1  0  0  0  0
  3  8  1  0  0  0  0
  3  2  2  0  0  0  0
  4  3  1  0  0  0  0
  5  4  2  0  0  0  0
  5  6  1  0  0  0  0
  6  1  2  0  0  0  0
 10  9  1  0  0  0  0
 11  5  1  0  0  0  0
 11 10  2  0  0  0  0
 12 11  1  0  0  0  0
 13 12  1  0  0  0  0
 14 12  2  0  0  0  0
 14 15  1  0  0  0  0
 15 17  2  0  0  0  0
 16 15  1  0  0  0  0
 17 10  1  0  0  0  0
 17 18  1  0  0  0  0
 19 20  2  0  0  0  0
 21 19  1  0  0  0  0
M  END
>  <minimizedAffinity>
-4.16459751

$$$$

 OpenBabel03252503583D

 21 22  0  0  0  0  0  0  0  0999 V2000
   35.4090   29.2310   35.7780 C   0  0  0  0  0  0  0  0  0  0  0  0
   34.0400   29.0530   35.5870 C   0  0  0  0  0  0  0  0  0  0  0  0
   33.2640   28.8510   36.7240 C   0  0  0  0  0  0  0  0  0  0  0  0
   33.8830   28.8410   37.9300 N   0  0  0  0  0  0  0  0  0  0  0  0
   35.2180   29.0180   38.0760 C   0  0  0  0  0  0  0  0  0  0  0  0
   35.9770   29.2150   36.9810 N   0  0  0  0  0  0  0  0  0  0  0  0
   33.5430   29.0610   34.6240 H   0  0  0  0  0  0  0  0  0  0  0  0
   32.1820   28.7030   36.6570 H   0  0  0  0  0  0  0  0  0  0  0  0
   36.1110   26.3380   38.9620 Cl  0  0  0  0  0  0  0  0  0  0  0  0
   36.2870   27.7900   39.9060 C   0  0  0  0  0  0  0  0  0  0  0  0
   35.8360   28.9990   39.4030 C   0  0  0  0  0  0  0  0  0  0  0  0
   35.9540   30.1780   40.1160 C   0  0  0  0  0  0  0  0  0  0  0  0
   35.5960   31.0880   39.6970 H   0  0  0  0  0  0  0  0  0  0  0  0
   36.5380   30.1910   41.3820 C   0  0  0  0  0  3  0  0  0  0  0  0
   36.9760   28.9710   41.8560 C   0  0  0  0  0  0  0  0  0  0  0  0
   37.7230   28.9430   43.4580 Cl  0  0  0  0  0  0  0  0  0  0  0  0
   36.8770   27.7760   41.1760 C   0  0  0  0  0  0  0  0  0  0  0  0
   37.2370   26.8550   41.5960 H   0  0  0  0  0  0  0  0  0  0  0  0
   36.1670   29.4370   34.5690 C   0  0  0  0  0  0  0  0  0  0  0  0
   36.1960   30.4880   33.8680 O   0  0  0  0  0  0  0  0  0  0  0  0
   36.8110   28.6790   34.1270 H   0  0  0  0  0  0  0  0  0  0  0  0
  1  6  1  0  0  0  0
  2  1  2  0  0  0  0
  2  3  1  0  0  0  0
  3  4  2  0  0  0  0
  4  5  1  0  0  0  0
  5 11  1  0  0  0  0
  6  5  2  0  0  0  0
  7  2  1  0  0  0  0
  8  3  1  0  0  0  0
  9 10  1  0  0  0  0
 10 17  1  0  0  0  0
 11 10  2  0  0  0  0
 11 12  1  0  0  0  0
 12 14  2  0  0  0  0
 13 12  1  0  0  0  0
 14 15  1  0  0  0  0
 15 16  1  0  0  0  0
 17 18  1  0  0  0  0
 17 15  2  0  0  0  0
 19  1  1  0  0  0  0
 20 19  2  0  0  0  0
 21 19  1  0  0  0  0
M  END
>  <minimizedAffinity>
-4.07106304

$$$$

 OpenBabel03252503583D

 21 22  0  0  0  0  0  0  0  0999 V2000
   39.1010   28.8070   42.1290 C   0  0  0  0  0  0  0  0  0  0  0  0
   38.3690   29.2330   43.2350 C   0  0  0  0  0  0  0  0  0  0  0  0
   37.3330   28.4100   43.6640 C   0  0  0  0  0  0  0  0  0  0  0  0
   37.1050   27.2580   42.9850 N   0  0  0  0  0  0  0  0  0  0  0  0
   37.8390   26.8770   41.9120 C   0  0  0  0  0  0  0  0  0  0  0  0
   38.8440   27.6670   41.4900 N   0  0  0  0  0  0  0  0  0  0  0  0
   38.5490   30.1520   43.7790 H   0  0  0  0  0  0  0  0  0  0  0  0
   36.7130   28.6750   44.5250 H   0  0  0  0  0  0  0  0  0  0  0  0
   39.3260   24.5380   42.9550 Cl  0  0  0  0  0  0  0  0  0  0  0  0
   38.1980   24.4700   41.6300 C   0  0  0  0  0  0  0  0  0  0  0  0
   37.5500   25.6220   41.2150 C   0  0  0  0  0  0  0  0  0  0  0  0
   36.6460   25.6160   40.1690 C   0  0  0  0  0  0  0  0  0  0  0  0
   36.1690   26.5210   39.8780 H   0  0  0  0  0  0  0  0  0  0  0  0
   36.3520   24.4370   39.4860 C   0  0  0  0  0  3  0  0  0  0  0  0
   37.0130   23.3070   39.9220 C   0  0  0  0  0  0  0  0  0  0  0  0
   36.6680   21.7890   39.0840 Cl  0  0  0  0  0  0  0  0  0  0  0  0
   37.9200   23.2720   40.9610 C   0  0  0  0  0  0  0  0  0  0  0  0
   38.4040   22.3600   41.2570 H   0  0  0  0  0  0  0  0  0  0  0  0
   40.1620   29.6950   41.7250 C   0  0  0  0  0  0  0  0  0  0  0  0
   40.9790   30.2870   42.4870 O   0  0  0  0  0  0  0  0  0  0  0  0
   40.3700   29.9510   40.6880 H   0  0  0  0  0  0  0  0  0  0  0  0
  1  2  1  0  0  0  0
  2  3  2  0  0  0  0
  2  7  1  0  0  0  0
  3  8  1  0  0  0  0
  4  3  1  0  0  0  0
  5  4  2  0  0  0  0
  6  5  1  0  0  0  0
  6  1  2  0  0  0  0
 10  9  1  0  0  0  0
 11 10  1  0  0  0  0
 11  5  1  0  0  0  0
 12 11  2  0  0  0  0
 13 12  1  0  0  0  0
 14 15  2  0  0  0  0
 14 12  1  0  0  0  0
 15 17  1  0  0  0  0
 16 15  1  0  0  0  0
 17 18  1  0  0  0  0
 17 10  2  0  0  0  0
 19  1  1  0  0  0  0
 19 20  2  0  0  0  0
 21 19  1  0  0  0  0
M  END
>  <minimizedAffinity>
-4.04980183

$$$$
