
 OpenBabel03252502473D

 46 49  0  0  1  0  0  0  0  0999 V2000
   48.4000   35.5300   41.8430 C   0  0  0  0  0  0  0  0  0  0  0  0
   48.4730   35.8560   42.9050 H   0  0  0  0  0  0  0  0  0  0  0  0
   48.5400   36.4740   41.2590 H   0  0  0  0  0  0  0  0  0  0  0  0
   49.4460   34.5060   41.5440 C   0  0  1  0  0  0  0  0  0  0  0  0
   50.5180   34.2740   42.5680 C   0  0  0  0  0  0  0  0  0  0  0  0
   49.4330   33.2790   42.3250 C   0  0  2  0  0  0  0  0  0  0  0  0
   49.8040   34.5320   40.5190 H   0  0  0  0  0  0  0  0  0  0  0  0
   51.5670   34.0880   42.2740 H   0  0  0  0  0  0  0  0  0  0  0  0
   50.4640   34.9210   43.4860 H   0  0  0  0  0  0  0  0  0  0  0  0
   48.8070   33.0830   43.1920 H   0  0  0  0  0  0  0  0  0  0  0  0
   49.8920   32.1110   41.5830 N   0  0  0  0  0  0  0  0  0  0  0  0
   49.5540   32.1240   40.2110 C   0  0  0  0  0  0  0  0  0  0  0  0
   50.1120   30.8360   39.6310 C   0  0  0  0  0  0  0  0  0  0  0  0
   49.5170   29.6890   40.2200 N   0  0  0  0  0  0  0  0  0  0  0  0
   49.0260   29.8920   41.5700 C   0  0  0  0  0  0  0  0  0  0  0  0
   49.9280   30.9000   42.2810 C   0  0  0  0  0  0  0  0  0  0  0  0
   49.9330   32.9980   39.6850 H   0  0  0  0  0  0  0  0  0  0  0  0
   48.4540   32.0650   40.1040 H   0  0  0  0  0  0  0  0  0  0  0  0
   51.2170   30.8960   39.7000 H   0  0  0  0  0  0  0  0  0  0  0  0
   49.8700   30.8770   38.5450 H   0  0  0  0  0  0  0  0  0  0  0  0
   50.1590   28.8650   40.1550 H   0  0  0  0  0  0  0  0  0  0  0  0
   49.1500   28.8950   42.0800 H   0  0  0  0  0  0  0  0  0  0  0  0
   47.9920   30.2390   41.5280 H   0  0  0  0  0  0  0  0  0  0  0  0
   49.7050   30.9770   43.3420 H   0  0  0  0  0  0  0  0  0  0  0  0
   50.9610   30.4600   42.1760 H   0  0  0  0  0  0  0  0  0  0  0  0
   47.0700   34.8870   41.5890 C   0  0  0  0  0  0  0  0  0  0  0  0
   47.0660   33.9090   41.1360 H   0  0  0  0  0  0  0  0  0  0  0  0
   46.5310   35.5470   40.8480 H   0  0  0  0  0  0  0  0  0  0  0  0
   44.6290   36.1860   44.1250 C   0  0  0  0  0  0  0  0  0  0  0  0
   45.4020   36.0930   42.9390 C   0  0  0  0  0  0  0  0  0  0  0  0
   46.2350   35.0170   42.8280 C   0  0  0  0  0  0  0  0  0  0  0  0
   46.2900   34.1020   43.8300 N   0  0  0  0  0  0  0  0  0  0  0  0
   45.5690   34.2020   44.9230 C   0  0  0  0  0  0  0  0  0  0  0  0
   44.7320   35.2440   45.0810 N   0  0  0  0  0  0  0  0  0  0  0  0
   43.9760   37.0260   44.2160 H   0  0  0  0  0  0  0  0  0  0  0  0
   45.3590   36.8160   42.1470 H   0  0  0  0  0  0  0  0  0  0  0  0
   46.8980   31.5470   44.2660 Cl  0  0  0  0  0  0  0  0  0  0  0  0
   46.2150   31.9740   45.8110 C   0  0  0  0  0  0  0  0  0  0  0  0
   45.6350   33.2130   45.9940 C   0  0  0  0  0  0  0  0  0  0  0  0
   45.1220   33.4570   47.2510 C   0  0  0  0  0  0  0  0  0  0  0  0
   44.6500   34.4210   47.4570 H   0  0  0  0  0  0  0  0  0  0  0  0
   45.1550   32.5620   48.3050 C   0  0  0  0  0  3  0  0  0  0  0  0
   45.7510   31.3430   48.0510 C   0  0  0  0  0  0  0  0  0  0  0  0
   45.7860   30.2120   49.4020 Cl  0  0  0  0  0  0  0  0  0  0  0  0
   46.2950   31.0120   46.8070 C   0  0  0  0  0  0  0  0  0  0  0  0
   46.7330   30.0460   46.7110 H   0  0  0  0  0  0  0  0  0  0  0  0
  1  2  1  0  0  0  0
  3  1  1  0  0  0  0
  4  7  1  6  0  0  0
  4  1  1  0  0  0  0
  4  6  1  0  0  0  0
  4  5  1  0  0  0  0
  5  9  1  0  0  0  0
  6  5  1  0  0  0  0
  6 10  1  1  0  0  0
  8  5  1  0  0  0  0
 11 16  1  0  0  0  0
 11  6  1  0  0  0  0
 12 11  1  0  0  0  0
 13 19  1  0  0  0  0
 13 12  1  0  0  0  0
 13 14  1  0  0  0  0
 14 15  1  0  0  0  0
 15 22  1  0  0  0  0
 15 16  1  0  0  0  0
 16 24  1  0  0  0  0
 17 12  1  0  0  0  0
 18 12  1  0  0  0  0
 20 13  1  0  0  0  0
 21 14  1  0  0  0  0
 23 15  1  0  0  0  0
 25 16  1  0  0  0  0
 26  1  1  0  0  0  0
 26 31  1  0  0  0  0
 27 26  1  0  0  0  0
 28 26  1  0  0  0  0
 29 35  1  0  0  0  0
 29 34  1  0  0  0  0
 30 29  2  0  0  0  0
 31 30  1  0  0  0  0
 31 32  2  0  0  0  0
 32 33  1  0  0  0  0
 33 34  2  0  0  0  0
 33 39  1  0  0  0  0
 36 30  1  0  0  0  0
 37 38  1  0  0  0  0
 38 39  2  0  0  0  0
 38 45  1  0  0  0  0
 39 40  1  0  0  0  0
 40 41  1  0  0  0  0
 40 42  2  0  0  0  0
 43 42  1  0  0  0  0
 43 44  1  0  0  0  0
 45 43  2  0  0  0  0
 46 45  1  0  0  0  0
M  END
>  <minimizedAffinity>
-5.49622774

>  <minimizedRMSD>
1.03948486

$$$$
