
 OpenBabel03252509173D

 26 28  0  0  0  0  0  0  0  0999 V2000
   37.8130   30.2270   40.8780 C   0  0  0  0  0  0  0  0  0  0  0  0
   36.7930   29.7270   41.7330 C   0  0  0  0  0  0  0  0  0  0  0  0
   36.6330   28.3900   41.8500 C   0  0  0  0  0  0  0  0  0  0  0  0
   37.4810   27.5320   41.1240 C   0  0  0  0  0  0  0  0  0  0  0  0
   38.5460   28.7140   40.2390 S   0  0  0  0  0  0  0  0  0  0  0  0
   36.1820   30.4770   42.2590 H   0  0  0  0  0  0  0  0  0  0  0  0
   35.8660   28.0160   42.4930 H   0  0  0  0  0  0  0  0  0  0  0  0
   39.2430   25.9620   43.0930 Cl  0  0  0  0  0  0  0  0  0  0  0  0
   38.3570   25.2820   41.7470 C   0  0  0  0  0  0  0  0  0  0  0  0
   37.6250   26.1650   40.9850 C   0  0  0  0  0  0  0  0  0  0  0  0
   36.9690   25.4900   39.9480 C   0  0  0  0  0  0  0  0  0  0  0  0
   36.3310   26.0240   39.2270 H   0  0  0  0  0  0  0  0  0  0  0  0
   37.0430   24.1400   39.7200 C   0  0  0  0  0  3  0  0  0  0  0  0
   37.8090   23.3620   40.5530 C   0  0  0  0  0  0  0  0  0  0  0  0
   37.9020   21.6480   40.2630 Cl  0  0  0  0  0  0  0  0  0  0  0  0
   38.4900   23.9350   41.5990 C   0  0  0  0  0  0  0  0  0  0  0  0
   39.0810   23.3130   42.2360 H   0  0  0  0  0  0  0  0  0  0  0  0
   39.2960   33.6260   40.8400 C   0  0  0  0  0  0  0  0  0  0  0  0
   38.3440   34.2990   40.0330 C   0  0  0  0  0  0  0  0  0  0  0  0
   37.2480   33.5660   39.5430 C   0  0  0  0  0  0  0  0  0  0  0  0
   37.1640   32.2310   39.8780 N   0  0  0  0  0  0  0  0  0  0  0  0
   38.1040   31.6430   40.6520 C   0  0  0  0  0  0  0  0  0  0  0  0
   39.1700   32.3300   41.1370 N   0  0  0  0  0  0  0  0  0  0  0  0
   40.1350   34.1800   41.2160 H   0  0  0  0  0  0  0  0  0  0  0  0
   38.4240   35.3410   39.7810 H   0  0  0  0  0  0  0  0  0  0  0  0
   36.4760   33.9970   38.9230 H   0  0  0  0  0  0  0  0  0  0  0  0
  1  2  2  0  0  0  0
  2  3  1  0  0  0  0
  2  6  1  0  0  0  0
  3  7  1  0  0  0  0
  4  3  2  0  0  0  0
  5  1  1  0  0  0  0
  5  4  1  0  0  0  0
  9  8  1  0  0  0  0
 10  4  1  0  0  0  0
 10  9  2  0  0  0  0
 11 10  1  0  0  0  0
 12 11  1  0  0  0  0
 13 11  2  0  0  0  0
 13 14  1  0  0  0  0
 14 16  2  0  0  0  0
 15 14  1  0  0  0  0
 16  9  1  0  0  0  0
 16 17  1  0  0  0  0
 18 23  1  0  0  0  0
 18 24  1  0  0  0  0
 19 18  2  0  0  0  0
 20 21  2  0  0  0  0
 20 19  1  0  0  0  0
 21 22  1  0  0  0  0
 22  1  1  0  0  0  0
 22 23  2  0  0  0  0
 25 19  1  0  0  0  0
 26 20  1  0  0  0  0
M  END
>  <minimizedAffinity>
-5.10704708

$$$$

 OpenBabel03252509173D

 26 28  0  0  0  0  0  0  0  0999 V2000
   37.5500   30.3850   40.3850 C   0  0  0  0  0  0  0  0  0  0  0  0
   36.2330   30.0680   40.8150 C   0  0  0  0  0  0  0  0  0  0  0  0
   35.8220   28.7810   40.7730 C   0  0  0  0  0  0  0  0  0  0  0  0
   36.7090   27.7930   40.3060 C   0  0  0  0  0  0  0  0  0  0  0  0
   38.1930   28.7720   39.9130 S   0  0  0  0  0  0  0  0  0  0  0  0
   35.6140   30.9100   41.1640 H   0  0  0  0  0  0  0  0  0  0  0  0
   34.8310   28.5450   41.0970 H   0  0  0  0  0  0  0  0  0  0  0  0
   37.5640   25.9020   42.5730 Cl  0  0  0  0  0  0  0  0  0  0  0  0
   36.9940   25.4130   40.9940 C   0  0  0  0  0  0  0  0  0  0  0  0
   36.6610   26.4240   40.1210 C   0  0  0  0  0  0  0  0  0  0  0  0
   36.2230   25.8940   38.9010 C   0  0  0  0  0  0  0  0  0  0  0  0
   35.9100   26.5450   38.0700 H   0  0  0  0  0  0  0  0  0  0  0  0
   36.1360   24.5570   38.6120 C   0  0  0  0  0  3  0  0  0  0  0  0
   36.4980   23.6410   39.5700 C   0  0  0  0  0  0  0  0  0  0  0  0
   36.3880   21.9430   39.2030 Cl  0  0  0  0  0  0  0  0  0  0  0  0
   36.9410   24.0660   40.7980 C   0  0  0  0  0  0  0  0  0  0  0  0
   37.2190   23.3390   41.5300 H   0  0  0  0  0  0  0  0  0  0  0  0
   39.7670   33.3400   40.7190 C   0  0  0  0  0  0  0  0  0  0  0  0
   38.9080   34.3480   40.2130 C   0  0  0  0  0  0  0  0  0  0  0  0
   37.6220   33.9750   39.7840 C   0  0  0  0  0  0  0  0  0  0  0  0
   37.2700   32.6450   39.8820 N   0  0  0  0  0  0  0  0  0  0  0  0
   38.1330   31.7280   40.3730 C   0  0  0  0  0  0  0  0  0  0  0  0
   39.3800   32.0640   40.7940 N   0  0  0  0  0  0  0  0  0  0  0  0
   40.7500   33.6180   41.0470 H   0  0  0  0  0  0  0  0  0  0  0  0
   39.1980   35.3820   40.1430 H   0  0  0  0  0  0  0  0  0  0  0  0
   36.9030   34.6760   39.3860 H   0  0  0  0  0  0  0  0  0  0  0  0
  1  2  2  0  0  0  0
  2  6  1  0  0  0  0
  3  2  1  0  0  0  0
  3  7  1  0  0  0  0
  4  3  2  0  0  0  0
  5  4  1  0  0  0  0
  5  1  1  0  0  0  0
  9  8  1  0  0  0  0
 10  4  1  0  0  0  0
 10  9  2  0  0  0  0
 11 10  1  0  0  0  0
 12 11  1  0  0  0  0
 13 11  2  0  0  0  0
 13 14  1  0  0  0  0
 14 16  2  0  0  0  0
 15 14  1  0  0  0  0
 16  9  1  0  0  0  0
 16 17  1  0  0  0  0
 18 23  1  0  0  0  0
 18 24  1  0  0  0  0
 19 18  2  0  0  0  0
 20 21  2  0  0  0  0
 20 19  1  0  0  0  0
 21 22  1  0  0  0  0
 22  1  1  0  0  0  0
 22 23  2  0  0  0  0
 25 19  1  0  0  0  0
 26 20  1  0  0  0  0
M  END
>  <minimizedAffinity>
-4.90131474

$$$$

 OpenBabel03252509173D

 26 28  0  0  0  0  0  0  0  0999 V2000
   37.7760   30.2610   40.6780 C   0  0  0  0  0  0  0  0  0  0  0  0
   36.8360   29.7810   41.6310 C   0  0  0  0  0  0  0  0  0  0  0  0
   36.6220   28.4500   41.7270 C   0  0  0  0  0  0  0  0  0  0  0  0
   37.3350   27.5780   40.8830 C   0  0  0  0  0  0  0  0  0  0  0  0
   38.3530   28.7370   39.9150 S   0  0  0  0  0  0  0  0  0  0  0  0
   36.3290   30.5410   42.2460 H   0  0  0  0  0  0  0  0  0  0  0  0
   35.9150   28.0920   42.4440 H   0  0  0  0  0  0  0  0  0  0  0  0
   35.9060   26.3040   38.4790 Cl  0  0  0  0  0  0  0  0  0  0  0  0
   36.8300   25.4460   39.6910 C   0  0  0  0  0  0  0  0  0  0  0  0
   37.3920   26.2110   40.6890 C   0  0  0  0  0  0  0  0  0  0  0  0
   38.0990   25.4020   41.5860 C   0  0  0  0  0  0  0  0  0  0  0  0
   38.6220   25.8270   42.4570 H   0  0  0  0  0  0  0  0  0  0  0  0
   38.2190   24.0390   41.4880 C   0  0  0  0  0  3  0  0  0  0  0  0
   37.6110   23.3880   40.4430 C   0  0  0  0  0  0  0  0  0  0  0  0
   37.7640   21.6590   40.3180 Cl  0  0  0  0  0  0  0  0  0  0  0  0
   36.8940   24.0980   39.5110 C   0  0  0  0  0  0  0  0  0  0  0  0
   36.4280   23.5740   38.7050 H   0  0  0  0  0  0  0  0  0  0  0  0
   37.7350   33.8750   39.8460 C   0  0  0  0  0  0  0  0  0  0  0  0
   39.0720   34.2160   40.1710 C   0  0  0  0  0  0  0  0  0  0  0  0
   39.9190   33.2030   40.6550 C   0  0  0  0  0  0  0  0  0  0  0  0
   39.3970   31.9340   40.7860 N   0  0  0  0  0  0  0  0  0  0  0  0
   38.1120   31.6680   40.4610 C   0  0  0  0  0  0  0  0  0  0  0  0
   37.2760   32.6290   39.9910 N   0  0  0  0  0  0  0  0  0  0  0  0
   37.0830   34.6430   39.4760 H   0  0  0  0  0  0  0  0  0  0  0  0
   39.4640   35.2110   40.0630 H   0  0  0  0  0  0  0  0  0  0  0  0
   40.9510   33.3730   40.9260 H   0  0  0  0  0  0  0  0  0  0  0  0
  1  2  2  0  0  0  0
  2  3  1  0  0  0  0
  2  6  1  0  0  0  0
  3  7  1  0  0  0  0
  4  3  2  0  0  0  0
  5  1  1  0  0  0  0
  5  4  1  0  0  0  0
  8  9  1  0  0  0  0
  9 10  1  0  0  0  0
 10  4  1  0  0  0  0
 10 11  2  0  0  0  0
 11 12  1  0  0  0  0
 13 11  1  0  0  0  0
 14 13  2  0  0  0  0
 15 14  1  0  0  0  0
 16  9  2  0  0  0  0
 16 14  1  0  0  0  0
 17 16  1  0  0  0  0
 18 23  2  0  0  0  0
 18 19  1  0  0  0  0
 19 20  2  0  0  0  0
 20 21  1  0  0  0  0
 20 26  1  0  0  0  0
 22  1  1  0  0  0  0
 22 21  2  0  0  0  0
 23 22  1  0  0  0  0
 24 18  1  0  0  0  0
 25 19  1  0  0  0  0
M  END
>  <minimizedAffinity>
-4.86901188

$$$$

 OpenBabel03252509173D

 26 28  0  0  0  0  0  0  0  0999 V2000
   35.1050   28.8850   38.5530 C   0  0  0  0  0  0  0  0  0  0  0  0
   34.6340   29.1010   39.8770 C   0  0  0  0  0  0  0  0  0  0  0  0
   35.4920   28.9510   40.9100 C   0  0  0  0  0  0  0  0  0  0  0  0
   36.8260   28.5860   40.6470 C   0  0  0  0  0  0  0  0  0  0  0  0
   36.8300   28.4560   38.8310 S   0  0  0  0  0  0  0  0  0  0  0  0
   33.5750   29.3840   39.9810 H   0  0  0  0  0  0  0  0  0  0  0  0
   35.1350   29.1140   41.9050 H   0  0  0  0  0  0  0  0  0  0  0  0
   36.5910   27.1320   43.3450 Cl  0  0  0  0  0  0  0  0  0  0  0  0
   38.0730   27.7190   42.6250 C   0  0  0  0  0  0  0  0  0  0  0  0
   37.9560   28.3460   41.4050 C   0  0  0  0  0  0  0  0  0  0  0  0
   39.2120   28.7640   40.9470 C   0  0  0  0  0  0  0  0  0  0  0  0
   39.3290   29.2870   39.9850 H   0  0  0  0  0  0  0  0  0  0  0  0
   40.3940   28.5760   41.6160 C   0  0  0  0  0  3  0  0  0  0  0  0
   40.3800   27.9350   42.8300 C   0  0  0  0  0  0  0  0  0  0  0  0
   41.8810   27.6980   43.6800 Cl  0  0  0  0  0  0  0  0  0  0  0  0
   39.1950   27.4890   43.3620 C   0  0  0  0  0  0  0  0  0  0  0  0
   39.2040   26.9920   44.3070 H   0  0  0  0  0  0  0  0  0  0  0  0
   32.3490   29.1990   36.0920 C   0  0  0  0  0  0  0  0  0  0  0  0
   33.0980   29.2370   34.8890 C   0  0  0  0  0  0  0  0  0  0  0  0
   34.5000   29.1550   34.9740 C   0  0  0  0  0  0  0  0  0  0  0  0
   35.0640   29.0410   36.2260 N   0  0  0  0  0  0  0  0  0  0  0  0
   34.2970   29.0100   37.3390 C   0  0  0  0  0  0  0  0  0  0  0  0
   32.9430   29.0870   37.2830 N   0  0  0  0  0  0  0  0  0  0  0  0
   31.2790   29.2620   36.0340 H   0  0  0  0  0  0  0  0  0  0  0  0
   32.6430   29.3260   33.9190 H   0  0  0  0  0  0  0  0  0  0  0  0
   35.1480   29.1760   34.1100 H   0  0  0  0  0  0  0  0  0  0  0  0
  1  5  1  0  0  0  0
  1  2  2  0  0  0  0
  2  6  1  0  0  0  0
  2  3  1  0  0  0  0
  3  7  1  0  0  0  0
  4  3  2  0  0  0  0
  4 10  1  0  0  0  0
  5  4  1  0  0  0  0
  9  8  1  0  0  0  0
  9 16  1  0  0  0  0
 10  9  2  0  0  0  0
 11 10  1  0  0  0  0
 11 13  2  0  0  0  0
 12 11  1  0  0  0  0
 13 14  1  0  0  0  0
 14 16  2  0  0  0  0
 14 15  1  0  0  0  0
 16 17  1  0  0  0  0
 18 23  1  0  0  0  0
 19 20  1  0  0  0  0
 19 18  2  0  0  0  0
 20 21  2  0  0  0  0
 21 22  1  0  0  0  0
 22  1  1  0  0  0  0
 23 22  2  0  0  0  0
 24 18  1  0  0  0  0
 25 19  1  0  0  0  0
 26 20  1  0  0  0  0
M  END
>  <minimizedAffinity>
-4.74626541

$$$$

 OpenBabel03252509173D

 26 28  0  0  0  0  0  0  0  0999 V2000
   36.1050   27.8680   39.9960 C   0  0  0  0  0  0  0  0  0  0  0  0
   36.0820   26.9460   38.9140 C   0  0  0  0  0  0  0  0  0  0  0  0
   35.2740   27.1940   37.8590 C   0  0  0  0  0  0  0  0  0  0  0  0
   34.4800   28.3570   37.8610 C   0  0  0  0  0  0  0  0  0  0  0  0
   34.9260   29.1150   39.4560 S   0  0  0  0  0  0  0  0  0  0  0  0
   36.7380   26.0660   39.0040 H   0  0  0  0  0  0  0  0  0  0  0  0
   35.2580   26.5000   37.0470 H   0  0  0  0  0  0  0  0  0  0  0  0
   35.1770   28.7200   34.8900 Cl  0  0  0  0  0  0  0  0  0  0  0  0
   33.6750   29.1880   35.6520 C   0  0  0  0  0  0  0  0  0  0  0  0
   33.5660   28.9350   37.0020 C   0  0  0  0  0  0  0  0  0  0  0  0
   32.3200   29.3570   37.4810 C   0  0  0  0  0  0  0  0  0  0  0  0
   32.0400   29.2410   38.5390 H   0  0  0  0  0  0  0  0  0  0  0  0
   31.3420   29.9400   36.7160 C   0  0  0  0  0  3  0  0  0  0  0  0
   31.5700   30.1400   35.3770 C   0  0  0  0  0  0  0  0  0  0  0  0
   30.3280   30.8810   34.4080 Cl  0  0  0  0  0  0  0  0  0  0  0  0
   32.7640   29.7590   34.8160 C   0  0  0  0  0  0  0  0  0  0  0  0
   32.9230   29.9230   33.7730 H   0  0  0  0  0  0  0  0  0  0  0  0
   38.2210   26.6310   42.7800 C   0  0  0  0  0  0  0  0  0  0  0  0
   38.4050   27.8370   43.5010 C   0  0  0  0  0  0  0  0  0  0  0  0
   37.8030   29.0080   43.0070 C   0  0  0  0  0  0  0  0  0  0  0  0
   37.0660   28.9140   41.8460 N   0  0  0  0  0  0  0  0  0  0  0  0
   36.9250   27.7340   41.2010 C   0  0  0  0  0  0  0  0  0  0  0  0
   37.4960   26.5900   41.6580 N   0  0  0  0  0  0  0  0  0  0  0  0
   38.6780   25.7340   43.1510 H   0  0  0  0  0  0  0  0  0  0  0  0
   38.9830   27.8940   44.4060 H   0  0  0  0  0  0  0  0  0  0  0  0
   37.8910   29.9700   43.4920 H   0  0  0  0  0  0  0  0  0  0  0  0
  1 22  1  0  0  0  0
  2  6  1  0  0  0  0
  2  1  2  0  0  0  0
  3  4  2  0  0  0  0
  3  2  1  0  0  0  0
  4  5  1  0  0  0  0
  5  1  1  0  0  0  0
  7  3  1  0  0  0  0
  8  9  1  0  0  0  0
  9 10  1  0  0  0  0
 10 11  2  0  0  0  0
 10  4  1  0  0  0  0
 11 12  1  0  0  0  0
 13 11  1  0  0  0  0
 14 13  2  0  0  0  0
 15 14  1  0  0  0  0
 16 14  1  0  0  0  0
 16  9  2  0  0  0  0
 17 16  1  0  0  0  0
 18 24  1  0  0  0  0
 18 19  1  0  0  0  0
 19 25  1  0  0  0  0
 20 26  1  0  0  0  0
 20 19  2  0  0  0  0
 21 20  1  0  0  0  0
 22 23  1  0  0  0  0
 22 21  2  0  0  0  0
 23 18  2  0  0  0  0
M  END
>  <minimizedAffinity>
-4.59977102

$$$$

 OpenBabel03252509173D

 26 28  0  0  0  0  0  0  0  0999 V2000
   37.4880   25.6940   40.8090 C   0  0  0  0  0  0  0  0  0  0  0  0
   37.2350   26.1880   42.1180 C   0  0  0  0  0  0  0  0  0  0  0  0
   37.3460   27.5140   42.3500 C   0  0  0  0  0  0  0  0  0  0  0  0
   37.7100   28.3680   41.2920 C   0  0  0  0  0  0  0  0  0  0  0  0
   37.8950   27.1980   39.9090 S   0  0  0  0  0  0  0  0  0  0  0  0
   36.9560   25.4420   42.8790 H   0  0  0  0  0  0  0  0  0  0  0  0
   37.1560   27.8840   43.3350 H   0  0  0  0  0  0  0  0  0  0  0  0
   35.5270   30.1280   40.0330 Cl  0  0  0  0  0  0  0  0  0  0  0  0
   37.0830   30.6830   40.6070 C   0  0  0  0  0  0  0  0  0  0  0  0
   37.9180   29.7260   41.1390 C   0  0  0  0  0  0  0  0  0  0  0  0
   39.1230   30.3040   41.5570 C   0  0  0  0  0  0  0  0  0  0  0  0
   39.9240   29.7010   42.0110 H   0  0  0  0  0  0  0  0  0  0  0  0
   39.4310   31.6360   41.4530 C   0  0  0  0  0  3  0  0  0  0  0  0
   38.5120   32.4940   40.9020 C   0  0  0  0  0  0  0  0  0  0  0  0
   38.9050   34.1850   40.7700 Cl  0  0  0  0  0  0  0  0  0  0  0  0
   37.3010   32.0190   40.4630 C   0  0  0  0  0  0  0  0  0  0  0  0
   36.5990   32.7020   40.0370 H   0  0  0  0  0  0  0  0  0  0  0  0
   38.0430   22.0580   40.3340 C   0  0  0  0  0  0  0  0  0  0  0  0
   36.9630   21.7570   39.4650 C   0  0  0  0  0  0  0  0  0  0  0  0
   36.1030   22.8030   39.0850 C   0  0  0  0  0  0  0  0  0  0  0  0
   36.3600   24.0620   39.5820 N   0  0  0  0  0  0  0  0  0  0  0  0
   37.4060   24.2890   40.4080 C   0  0  0  0  0  0  0  0  0  0  0  0
   38.2510   23.2960   40.7880 N   0  0  0  0  0  0  0  0  0  0  0  0
   38.7030   21.2650   40.6280 H   0  0  0  0  0  0  0  0  0  0  0  0
   36.7760   20.7680   39.0870 H   0  0  0  0  0  0  0  0  0  0  0  0
   35.2560   22.6640   38.4280 H   0  0  0  0  0  0  0  0  0  0  0  0
  1  2  2  0  0  0  0
  2  3  1  0  0  0  0
  2  6  1  0  0  0  0
  3  7  1  0  0  0  0
  4  3  2  0  0  0  0
  5  1  1  0  0  0  0
  5  4  1  0  0  0  0
  8  9  1  0  0  0  0
  9 10  1  0  0  0  0
 10  4  1  0  0  0  0
 10 11  2  0  0  0  0
 11 12  1  0  0  0  0
 13 11  1  0  0  0  0
 14 13  2  0  0  0  0
 15 14  1  0  0  0  0
 16  9  2  0  0  0  0
 16 14  1  0  0  0  0
 17 16  1  0  0  0  0
 18 24  1  0  0  0  0
 18 23  1  0  0  0  0
 19 18  2  0  0  0  0
 20 19  1  0  0  0  0
 20 21  2  0  0  0  0
 21 22  1  0  0  0  0
 22 23  2  0  0  0  0
 22  1  1  0  0  0  0
 25 19  1  0  0  0  0
 26 20  1  0  0  0  0
M  END
>  <minimizedAffinity>
-4.59893751

$$$$

 OpenBabel03252509173D

 26 28  0  0  0  0  0  0  0  0999 V2000
   39.4430   32.4120   39.1710 C   0  0  0  0  0  0  0  0  0  0  0  0
   38.1830   32.9680   39.5240 C   0  0  0  0  0  0  0  0  0  0  0  0
   37.0590   32.2730   39.2430 C   0  0  0  0  0  0  0  0  0  0  0  0
   37.1660   31.0200   38.6110 C   0  0  0  0  0  0  0  0  0  0  0  0
   38.9680   30.8480   38.4180 S   0  0  0  0  0  0  0  0  0  0  0  0
   38.2020   33.9540   40.0150 H   0  0  0  0  0  0  0  0  0  0  0  0
   36.1130   32.6940   39.5090 H   0  0  0  0  0  0  0  0  0  0  0  0
   35.4250   29.5070   40.6420 Cl  0  0  0  0  0  0  0  0  0  0  0  0
   35.4230   29.2620   38.9110 C   0  0  0  0  0  0  0  0  0  0  0  0
   36.2840   30.0490   38.1780 C   0  0  0  0  0  0  0  0  0  0  0  0
   36.1800   29.7500   36.8140 C   0  0  0  0  0  0  0  0  0  0  0  0
   36.7900   30.2740   36.0620 H   0  0  0  0  0  0  0  0  0  0  0  0
   35.3400   28.8080   36.2790 C   0  0  0  0  0  3  0  0  0  0  0  0
   34.5260   28.0850   37.1160 C   0  0  0  0  0  0  0  0  0  0  0  0
   33.4590   26.8890   36.4360 Cl  0  0  0  0  0  0  0  0  0  0  0  0
   34.5570   28.3070   38.4710 C   0  0  0  0  0  0  0  0  0  0  0  0
   33.9170   27.7360   39.1060 H   0  0  0  0  0  0  0  0  0  0  0  0
   42.6450   34.2610   38.8790 C   0  0  0  0  0  0  0  0  0  0  0  0
   43.1420   34.1000   40.1970 C   0  0  0  0  0  0  0  0  0  0  0  0
   42.3660   33.3720   41.1170 C   0  0  0  0  0  0  0  0  0  0  0  0
   41.1630   32.8570   40.6820 N   0  0  0  0  0  0  0  0  0  0  0  0
   40.7410   33.0440   39.4110 C   0  0  0  0  0  0  0  0  0  0  0  0
   41.4730   33.7420   38.5040 N   0  0  0  0  0  0  0  0  0  0  0  0
   43.2320   34.8150   38.1720 H   0  0  0  0  0  0  0  0  0  0  0  0
   44.0820   34.5080   40.5210 H   0  0  0  0  0  0  0  0  0  0  0  0
   42.6670   33.2000   42.1400 H   0  0  0  0  0  0  0  0  0  0  0  0
  1 22  1  0  0  0  0
  1  2  2  0  0  0  0
  2  6  1  0  0  0  0
  3  7  1  0  0  0  0
  3  2  1  0  0  0  0
  4  3  2  0  0  0  0
  5  4  1  0  0  0  0
  5  1  1  0  0  0  0
  9  8  1  0  0  0  0
 10  4  1  0  0  0  0
 10  9  2  0  0  0  0
 11 10  1  0  0  0  0
 12 11  1  0  0  0  0
 13 11  2  0  0  0  0
 13 14  1  0  0  0  0
 14 16  2  0  0  0  0
 15 14  1  0  0  0  0
 16  9  1  0  0  0  0
 16 17  1  0  0  0  0
 18 19  1  0  0  0  0
 19 25  1  0  0  0  0
 19 20  2  0  0  0  0
 20 26  1  0  0  0  0
 21 20  1  0  0  0  0
 22 21  2  0  0  0  0
 23 18  2  0  0  0  0
 23 22  1  0  0  0  0
 24 18  1  0  0  0  0
M  END
>  <minimizedAffinity>
-4.57597494

$$$$

 OpenBabel03252509173D

 26 28  0  0  0  0  0  0  0  0999 V2000
   39.2400   30.5700   41.2120 C   0  0  0  0  0  0  0  0  0  0  0  0
   38.4050   30.2040   42.3030 C   0  0  0  0  0  0  0  0  0  0  0  0
   38.0660   28.9050   42.4610 C   0  0  0  0  0  0  0  0  0  0  0  0
   38.5480   27.9530   41.5420 C   0  0  0  0  0  0  0  0  0  0  0  0
   39.5300   28.9870   40.4090 S   0  0  0  0  0  0  0  0  0  0  0  0
   38.0790   31.0190   42.9670 H   0  0  0  0  0  0  0  0  0  0  0  0
   37.4380   28.6310   43.2810 H   0  0  0  0  0  0  0  0  0  0  0  0
   39.7710   26.0350   43.6080 Cl  0  0  0  0  0  0  0  0  0  0  0  0
   38.8950   25.5650   42.1700 C   0  0  0  0  0  0  0  0  0  0  0  0
   38.4280   26.5870   41.3740 C   0  0  0  0  0  0  0  0  0  0  0  0
   37.7490   26.0720   40.2630 C   0  0  0  0  0  0  0  0  0  0  0  0
   37.3000   26.7330   39.5050 H   0  0  0  0  0  0  0  0  0  0  0  0
   37.5710   24.7380   40.0010 C   0  0  0  0  0  3  0  0  0  0  0  0
   38.0860   23.8110   40.8730 C   0  0  0  0  0  0  0  0  0  0  0  0
   37.8600   22.1180   40.5390 Cl  0  0  0  0  0  0  0  0  0  0  0  0
   38.7690   24.2210   41.9920 C   0  0  0  0  0  0  0  0  0  0  0  0
   39.1620   23.4850   42.6590 H   0  0  0  0  0  0  0  0  0  0  0  0
   39.4580   34.1840   40.4070 C   0  0  0  0  0  0  0  0  0  0  0  0
   40.8660   34.3460   40.3900 C   0  0  0  0  0  0  0  0  0  0  0  0
   41.6700   33.2220   40.6530 C   0  0  0  0  0  0  0  0  0  0  0  0
   41.0380   32.0250   40.9120 N   0  0  0  0  0  0  0  0  0  0  0  0
   39.6890   31.9310   40.9150 C   0  0  0  0  0  0  0  0  0  0  0  0
   38.8930   33.0010   40.6640 N   0  0  0  0  0  0  0  0  0  0  0  0
   38.8390   35.0380   40.2080 H   0  0  0  0  0  0  0  0  0  0  0  0
   41.3430   35.2880   40.1860 H   0  0  0  0  0  0  0  0  0  0  0  0
   42.7500   33.2540   40.6600 H   0  0  0  0  0  0  0  0  0  0  0  0
  1  2  2  0  0  0  0
  2  3  1  0  0  0  0
  2  6  1  0  0  0  0
  3  7  1  0  0  0  0
  4  3  2  0  0  0  0
  5  1  1  0  0  0  0
  5  4  1  0  0  0  0
  9  8  1  0  0  0  0
 10  4  1  0  0  0  0
 10  9  2  0  0  0  0
 11 10  1  0  0  0  0
 12 11  1  0  0  0  0
 13 11  2  0  0  0  0
 13 14  1  0  0  0  0
 14 16  2  0  0  0  0
 15 14  1  0  0  0  0
 16  9  1  0  0  0  0
 16 17  1  0  0  0  0
 18 23  1  0  0  0  0
 19 18  2  0  0  0  0
 19 20  1  0  0  0  0
 20 26  1  0  0  0  0
 20 21  2  0  0  0  0
 21 22  1  0  0  0  0
 22  1  1  0  0  0  0
 23 22  2  0  0  0  0
 24 18  1  0  0  0  0
 25 19  1  0  0  0  0
M  END
>  <minimizedAffinity>
-4.56424475

$$$$

 OpenBabel03252509173D

 26 28  0  0  0  0  0  0  0  0999 V2000
   37.2950   31.3450   39.3960 C   0  0  0  0  0  0  0  0  0  0  0  0
   36.4180   30.8130   40.3810 C   0  0  0  0  0  0  0  0  0  0  0  0
   35.5480   29.8410   40.0270 C   0  0  0  0  0  0  0  0  0  0  0  0
   35.5340   29.3840   38.6960 C   0  0  0  0  0  0  0  0  0  0  0  0
   36.8340   30.4050   37.9330 S   0  0  0  0  0  0  0  0  0  0  0  0
   36.5040   31.2350   41.3940 H   0  0  0  0  0  0  0  0  0  0  0  0
   34.8890   29.4430   40.7690 H   0  0  0  0  0  0  0  0  0  0  0  0
   36.4180   26.4400   38.7090 Cl  0  0  0  0  0  0  0  0  0  0  0  0
   35.0410   27.0900   37.8490 C   0  0  0  0  0  0  0  0  0  0  0  0
   34.8200   28.4440   37.9780 C   0  0  0  0  0  0  0  0  0  0  0  0
   33.6930   28.8280   37.2420 C   0  0  0  0  0  0  0  0  0  0  0  0
   33.3510   29.8740   37.2170 H   0  0  0  0  0  0  0  0  0  0  0  0
   32.9150   27.9790   36.4970 C   0  0  0  0  0  3  0  0  0  0  0  0
   33.2380   26.6460   36.4480 C   0  0  0  0  0  0  0  0  0  0  0  0
   32.2510   25.5690   35.5020 Cl  0  0  0  0  0  0  0  0  0  0  0  0
   34.3290   26.1740   37.1370 C   0  0  0  0  0  0  0  0  0  0  0  0
   34.5650   25.1340   37.0870 H   0  0  0  0  0  0  0  0  0  0  0  0
   39.1420   34.3460   40.5520 C   0  0  0  0  0  0  0  0  0  0  0  0
   40.3530   34.1790   39.8340 C   0  0  0  0  0  0  0  0  0  0  0  0
   40.4810   33.0570   38.9940 C   0  0  0  0  0  0  0  0  0  0  0  0
   39.4180   32.1840   38.9190 N   0  0  0  0  0  0  0  0  0  0  0  0
   38.2870   32.3950   39.6290 C   0  0  0  0  0  0  0  0  0  0  0  0
   38.1400   33.4700   40.4450 N   0  0  0  0  0  0  0  0  0  0  0  0
   39.0380   35.1990   41.1940 H   0  0  0  0  0  0  0  0  0  0  0  0
   41.1740   34.8700   39.9030 H   0  0  0  0  0  0  0  0  0  0  0  0
   41.3670   32.8520   38.4110 H   0  0  0  0  0  0  0  0  0  0  0  0
  1 22  1  0  0  0  0
  1  2  2  0  0  0  0
  2  6  1  0  0  0  0
  3  2  1  0  0  0  0
  3  7  1  0  0  0  0
  4  3  2  0  0  0  0
  5  4  1  0  0  0  0
  5  1  1  0  0  0  0
  9 10  1  0  0  0  0
  9  8  1  0  0  0  0
 10  4  1  0  0  0  0
 11 10  2  0  0  0  0
 12 11  1  0  0  0  0
 13 11  1  0  0  0  0
 14 13  2  0  0  0  0
 14 16  1  0  0  0  0
 15 14  1  0  0  0  0
 16  9  2  0  0  0  0
 17 16  1  0  0  0  0
 18 24  1  0  0  0  0
 19 25  1  0  0  0  0
 19 18  2  0  0  0  0
 20 19  1  0  0  0  0
 21 20  2  0  0  0  0
 21 22  1  0  0  0  0
 22 23  2  0  0  0  0
 23 18  1  0  0  0  0
 26 20  1  0  0  0  0
M  END
>  <minimizedAffinity>
-4.4808569

$$$$
