
 OpenBabel03252508333D

 33 35  0  0  1  0  0  0  0  0999 V2000
   45.5310   33.7630   42.9590 N   0  0  0  0  0  0  0  0  0  0  0  0
   45.8530   33.2180   41.6920 C   0  0  1  0  0  0  0  0  0  0  0  0
   45.4760   34.0600   40.5270 C   0  0  0  0  0  0  0  0  0  0  0  0
   44.3180   34.8280   40.6350 N   0  0  0  0  0  0  0  0  0  0  0  0
   43.8510   35.1790   41.9050 C   0  0  0  0  0  0  0  0  0  0  0  0
   44.9870   35.0870   42.9110 C   0  0  0  0  0  0  0  0  0  0  0  0
   45.3430   32.2330   41.5850 H   0  0  0  0  0  0  0  0  0  0  0  0
   46.3390   34.7530   40.3000 H   0  0  0  0  0  0  0  0  0  0  0  0
   45.4200   33.4110   39.6110 H   0  0  0  0  0  0  0  0  0  0  0  0
   43.6450   34.8100   39.8700 H   0  0  0  0  0  0  0  0  0  0  0  0
   43.0850   34.4170   42.2210 H   0  0  0  0  0  0  0  0  0  0  0  0
   43.3610   36.1510   42.0170 H   0  0  0  0  0  0  0  0  0  0  0  0
   45.7990   35.8080   42.6000 H   0  0  0  0  0  0  0  0  0  0  0  0
   44.5830   35.4850   43.8430 H   0  0  0  0  0  0  0  0  0  0  0  0
   47.8360   35.4900   42.0160 Cl  0  0  0  0  0  0  0  0  0  0  0  0
   48.3680   33.8590   41.6560 C   0  0  0  0  0  0  0  0  0  0  0  0
   47.3280   32.9450   41.5410 C   0  0  0  0  0  0  0  0  0  0  0  0
   47.6760   31.6230   41.2560 C   0  0  0  0  0  0  0  0  0  0  0  0
   47.0070   30.7890   41.1330 H   0  0  0  0  0  0  0  0  0  0  0  0
   48.9960   31.2430   41.0940 C   0  0  0  0  0  3  0  0  0  0  0  0
   50.0120   32.1670   41.2130 C   0  0  0  0  0  0  0  0  0  0  0  0
   51.7180   31.8230   41.0340 Cl  0  0  0  0  0  0  0  0  0  0  0  0
   49.6590   33.4660   41.4940 C   0  0  0  0  0  0  0  0  0  0  0  0
   50.3500   34.3060   41.6170 H   0  0  0  0  0  0  0  0  0  0  0  0
   46.2820   33.6560   45.2270 C   0  0  0  0  0  0  0  0  0  0  0  0
   45.7750   32.9620   44.1110 C   0  0  0  0  0  0  0  0  0  0  0  0
   45.5630   31.5990   44.2270 C   0  0  0  0  0  0  0  0  0  0  0  0
   45.8500   30.9890   45.4000 N   0  0  0  0  0  0  0  0  0  0  0  0
   46.3380   31.6740   46.4670 C   0  0  0  0  0  0  0  0  0  0  0  0
   46.5500   33.0000   46.3710 N   0  0  0  0  0  0  0  0  0  0  0  0
   46.5120   34.7050   45.3320 H   0  0  0  0  0  0  0  0  0  0  0  0
   45.1720   31.0930   43.3620 H   0  0  0  0  0  0  0  0  0  0  0  0
   46.5140   31.0380   47.3280 H   0  0  0  0  0  0  0  0  0  0  0  0
  1 26  1  0  0  0  0
  2  7  1  6  0  0  0
  2  1  1  0  0  0  0
  3  4  1  0  0  0  0
  3  2  1  0  0  0  0
  4  5  1  0  0  0  0
  5 12  1  0  0  0  0
  5 11  1  0  0  0  0
  5  6  1  0  0  0  0
  6  1  1  0  0  0  0
  6 14  1  0  0  0  0
  8  3  1  0  0  0  0
  9  3  1  0  0  0  0
 10  4  1  0  0  0  0
 13  6  1  0  0  0  0
 16 15  1  0  0  0  0
 17 16  1  0  0  0  0
 17  2  1  0  0  0  0
 18 17  2  0  0  0  0
 19 18  1  0  0  0  0
 20 21  2  0  0  0  0
 20 18  1  0  0  0  0
 21 23  1  0  0  0  0
 22 21  1  0  0  0  0
 23 24  1  0  0  0  0
 23 16  2  0  0  0  0
 25 31  1  0  0  0  0
 25 30  1  0  0  0  0
 26 27  1  0  0  0  0
 26 25  2  0  0  0  0
 27 28  2  0  0  0  0
 28 29  1  0  0  0  0
 29 33  1  0  0  0  0
 30 29  2  0  0  0  0
 32 27  1  0  0  0  0
M  END
>  <minimizedAffinity>
-4.50065088

>  <minimizedRMSD>
1.91400874

$$$$
