
 OpenBabel03252508253D

 42 46  0  0  1  0  0  0  0  0999 V2000
   46.3650   32.3390   46.0570 C   0  0  1  0  0  0  0  0  0  0  0  0
   46.8350   32.5530   47.4350 C   0  0  0  0  0  0  0  0  0  0  0  0
   45.4440   31.8870   47.0820 C   0  0  2  0  0  0  0  0  0  0  0  0
   47.1800   31.6960   45.5640 H   0  0  0  0  0  0  0  0  0  0  0  0
   47.4490   31.8340   48.0000 H   0  0  0  0  0  0  0  0  0  0  0  0
   46.8170   33.5460   47.9130 H   0  0  0  0  0  0  0  0  0  0  0  0
   44.7380   32.5790   47.6380 H   0  0  0  0  0  0  0  0  0  0  0  0
   45.2020   30.4880   47.4410 C   0  0  0  0  0  0  0  0  0  0  0  0
   45.0990   29.9620   48.6920 C   0  0  0  0  0  0  0  0  0  0  0  0
   44.9950   28.6130   49.0020 C   0  0  0  0  0  0  0  0  0  0  0  0
   44.9970   27.7230   47.9110 C   0  0  0  0  0  0  0  0  0  0  0  0
   45.0970   28.2330   46.6140 C   0  0  0  0  0  0  0  0  0  0  0  0
   45.0370   27.3250   45.5720 C   0  0  0  0  0  0  0  0  0  0  0  0
   45.0680   27.7960   44.2710 C   0  0  0  0  0  0  0  0  0  0  0  0
   45.1540   29.1500   44.0130 C   0  0  0  0  0  0  0  0  0  0  0  0
   45.2130   30.0080   45.0850 C   0  0  0  0  0  0  0  0  0  0  0  0
   45.1950   29.5890   46.4010 C   0  0  0  0  0  0  0  0  0  0  0  0
   45.1030   30.6800   49.5010 H   0  0  0  0  0  0  0  0  0  0  0  0
   44.9180   28.2750   50.0140 H   0  0  0  0  0  0  0  0  0  0  0  0
   44.9190   26.6940   48.1740 H   0  0  0  0  0  0  0  0  0  0  0  0
   44.9670   26.2660   45.8120 H   0  0  0  0  0  0  0  0  0  0  0  0
   45.0170   26.9830   43.5290 H   0  0  0  0  0  0  0  0  0  0  0  0
   45.1610   29.3120   42.9530 H   0  0  0  0  0  0  0  0  0  0  0  0
   45.1860   30.9610   44.6400 H   0  0  0  0  0  0  0  0  0  0  0  0
   44.8270   35.4810   44.8910 C   0  0  0  0  0  0  0  0  0  0  0  0
   45.2750   35.5560   43.5280 C   0  0  0  0  0  0  0  0  0  0  0  0
   46.0960   34.5180   43.0610 C   0  0  0  0  0  0  0  0  0  0  0  0
   46.4140   33.5280   43.9000 N   0  0  0  0  0  0  0  0  0  0  0  0
   45.9780   33.4830   45.1860 C   0  0  0  0  0  0  0  0  0  0  0  0
   45.1990   34.4420   45.6680 N   0  0  0  0  0  0  0  0  0  0  0  0
   44.1980   36.2680   45.2630 H   0  0  0  0  0  0  0  0  0  0  0  0
   45.0010   36.3760   42.9190 H   0  0  0  0  0  0  0  0  0  0  0  0
   44.7820   32.8000   40.7560 Cl  0  0  0  0  0  0  0  0  0  0  0  0
   46.2380   33.7450   40.6360 C   0  0  0  0  0  0  0  0  0  0  0  0
   46.6580   34.4230   41.7510 C   0  0  0  0  0  0  0  0  0  0  0  0
   47.8450   35.0930   41.4960 C   0  0  0  0  0  0  0  0  0  0  0  0
   48.3600   35.7040   42.2570 H   0  0  0  0  0  0  0  0  0  0  0  0
   48.5210   35.0920   40.2960 C   0  0  0  0  0  3  0  0  0  0  0  0
   48.0170   34.3800   39.2340 C   0  0  0  0  0  0  0  0  0  0  0  0
   48.8670   34.3710   37.7070 Cl  0  0  0  0  0  0  0  0  0  0  0  0
   46.8420   33.6890   39.4160 C   0  0  0  0  0  0  0  0  0  0  0  0
   46.4650   33.1410   38.5800 H   0  0  0  0  0  0  0  0  0  0  0  0
  1  4  1  6  0  0  0
  1  3  1  0  0  0  0
  1  2  1  0  0  0  0
  2  6  1  0  0  0  0
  2  5  1  0  0  0  0
  3  2  1  0  0  0  0
  3  8  1  0  0  0  0
  3  7  1  1  0  0  0
  8  9  1  0  0  0  0
  9 10  2  0  0  0  0
  9 18  1  0  0  0  0
 10 19  1  0  0  0  0
 11 20  1  0  0  0  0
 11 10  1  0  0  0  0
 12 11  2  0  0  0  0
 13 21  1  0  0  0  0
 13 12  1  0  0  0  0
 14 13  2  0  0  0  0
 15 14  1  0  0  0  0
 15 16  2  0  0  0  0
 16 17  1  0  0  0  0
 17 12  1  0  0  0  0
 17  8  2  0  0  0  0
 22 14  1  0  0  0  0
 23 15  1  0  0  0  0
 24 16  1  0  0  0  0
 25 31  1  0  0  0  0
 25 30  1  0  0  0  0
 26 25  2  0  0  0  0
 27 26  1  0  0  0  0
 27 28  2  0  0  0  0
 28 29  1  0  0  0  0
 29 30  2  0  0  0  0
 29  1  1  0  0  0  0
 32 26  1  0  0  0  0
 34 33  1  0  0  0  0
 34 35  1  0  0  0  0
 35 27  1  0  0  0  0
 36 35  2  0  0  0  0
 36 37  1  0  0  0  0
 38 36  1  0  0  0  0
 39 41  1  0  0  0  0
 39 38  2  0  0  0  0
 40 39  1  0  0  0  0
 41 34  2  0  0  0  0
 42 41  1  0  0  0  0
M  END
>  <minimizedAffinity>
-6.22475958

>  <minimizedRMSD>
0.683381557

$$$$
