
 OpenBabel03252500363D

 47 50  0  0  1  0  0  0  0  0999 V2000
   46.1490   35.1420   42.9900 C   0  0  1  0  0  0  0  0  0  0  0  0
   44.9810   34.8930   43.7180 C   0  0  0  0  0  0  0  0  0  0  0  0
   46.2000   34.3060   44.3020 C   0  0  1  0  0  0  0  0  0  0  0  0
   46.6520   36.1460   43.0500 H   0  0  0  0  0  0  0  0  0  0  0  0
   44.4620   35.6860   44.2720 H   0  0  0  0  0  0  0  0  0  0  0  0
   44.2440   34.1340   43.3270 H   0  0  0  0  0  0  0  0  0  0  0  0
   46.8270   34.8180   45.0480 H   0  0  0  0  0  0  0  0  0  0  0  0
   45.5720   34.0000   40.8500 C   0  0  0  0  0  0  0  0  0  0  0  0
   46.5950   34.4450   41.7460 C   0  0  0  0  0  0  0  0  0  0  0  0
   47.9000   34.2220   41.4450 C   0  0  0  0  0  0  0  0  0  0  0  0
   48.1680   33.5680   40.2710 N   0  0  0  0  0  0  0  0  0  0  0  0
   47.1960   33.1520   39.4300 C   0  0  0  0  0  0  0  0  0  0  0  0
   45.8610   33.3560   39.6960 N   0  0  0  0  0  0  0  0  0  0  0  0
   44.5330   34.1930   41.1180 H   0  0  0  0  0  0  0  0  0  0  0  0
   48.6820   34.5520   42.1130 H   0  0  0  0  0  0  0  0  0  0  0  0
   48.5180   34.8830   37.3390 Cl  0  0  0  0  0  0  0  0  0  0  0  0
   48.2090   33.1570   37.1790 C   0  0  0  0  0  0  0  0  0  0  0  0
   47.5950   32.4630   38.2030 C   0  0  0  0  0  0  0  0  0  0  0  0
   47.3340   31.1190   38.1230 C   0  0  0  0  0  0  0  0  0  0  0  0
   46.8570   30.5150   38.8880 H   0  0  0  0  0  0  0  0  0  0  0  0
   47.6990   30.4310   36.9700 C   0  0  0  0  0  3  0  0  0  0  0  0
   48.3140   31.1510   35.9550 C   0  0  0  0  0  0  0  0  0  0  0  0
   48.7730   30.2980   34.5130 Cl  0  0  0  0  0  0  0  0  0  0  0  0
   48.5870   32.5070   36.0160 C   0  0  0  0  0  0  0  0  0  0  0  0
   49.0620   33.0410   35.2200 H   0  0  0  0  0  0  0  0  0  0  0  0
   46.4420   32.8440   44.2190 C   0  0  0  0  0  0  0  0  0  0  0  0
   45.9530   32.4410   43.2940 H   0  0  0  0  0  0  0  0  0  0  0  0
   47.5210   32.5800   44.2280 H   0  0  0  0  0  0  0  0  0  0  0  0
   45.8430   32.2540   45.3630 N   0  0  0  0  0  0  0  0  0  0  0  0
   45.9560   32.9240   46.5860 C   0  0  0  0  0  0  0  0  0  0  0  0
   47.2120   32.4690   47.3590 C   0  0  0  0  0  0  0  0  0  0  0  0
   46.9620   31.0430   47.7640 C   0  0  0  0  0  0  0  0  0  0  0  0
   46.8120   30.2630   46.4770 C   0  0  0  0  0  0  0  0  0  0  0  0
   45.8430   30.8600   45.4960 C   0  0  2  0  0  0  0  0  0  0  0  0
   45.1170   32.5170   47.2330 H   0  0  0  0  0  0  0  0  0  0  0  0
   45.7960   33.9980   46.6310 H   0  0  0  0  0  0  0  0  0  0  0  0
   47.3000   33.0760   48.2830 H   0  0  0  0  0  0  0  0  0  0  0  0
   48.1170   32.5830   46.7330 H   0  0  0  0  0  0  0  0  0  0  0  0
   45.9900   31.0240   48.3020 H   0  0  0  0  0  0  0  0  0  0  0  0
   47.7760   30.5840   48.3270 H   0  0  0  0  0  0  0  0  0  0  0  0
   46.4770   29.2190   46.7010 H   0  0  0  0  0  0  0  0  0  0  0  0
   47.7980   30.1830   45.9800 H   0  0  0  0  0  0  0  0  0  0  0  0
   44.8290   30.5360   45.8140 H   0  0  0  0  0  0  0  0  0  0  0  0
   46.0880   30.1570   44.1690 C   0  0  0  0  0  0  0  0  0  0  0  0
   45.9600   29.0810   44.3060 H   0  0  0  0  0  0  0  0  0  0  0  0
   45.3470   30.5460   43.4140 H   0  0  0  0  0  0  0  0  0  0  0  0
   47.1310   30.3380   43.8200 H   0  0  0  0  0  0  0  0  0  0  0  0
  1  4  1  1  0  0  0
  1  2  1  0  0  0  0
  1  3  1  0  0  0  0
  2  5  1  0  0  0  0
  2  3  1  0  0  0  0
  3  7  1  1  0  0  0
  6  2  1  0  0  0  0
  8 14  1  0  0  0  0
  8  9  1  0  0  0  0
  9  1  1  0  0  0  0
 10  9  2  0  0  0  0
 10 15  1  0  0  0  0
 11 10  1  0  0  0  0
 12 13  1  0  0  0  0
 12 11  2  0  0  0  0
 13  8  2  0  0  0  0
 17 16  1  0  0  0  0
 17 18  1  0  0  0  0
 18 12  1  0  0  0  0
 19 18  2  0  0  0  0
 19 20  1  0  0  0  0
 21 19  1  0  0  0  0
 22 24  1  0  0  0  0
 22 21  2  0  0  0  0
 23 22  1  0  0  0  0
 24 17  2  0  0  0  0
 25 24  1  0  0  0  0
 26 28  1  0  0  0  0
 26  3  1  0  0  0  0
 26 29  1  0  0  0  0
 27 26  1  0  0  0  0
 29 34  1  0  0  0  0
 29 30  1  0  0  0  0
 30 36  1  0  0  0  0
 30 35  1  0  0  0  0
 30 31  1  0  0  0  0
 31 32  1  0  0  0  0
 31 37  1  0  0  0  0
 32 39  1  0  0  0  0
 32 40  1  0  0  0  0
 33 41  1  0  0  0  0
 33 32  1  0  0  0  0
 34 43  1  1  0  0  0
 34 33  1  0  0  0  0
 38 31  1  0  0  0  0
 42 33  1  0  0  0  0
 44 45  1  0  0  0  0
 44 34  1  0  0  0  0
 46 44  1  0  0  0  0
 47 44  1  0  0  0  0
M  END
>  <minimizedAffinity>
-4.92720079

>  <minimizedRMSD>
2.47084093

$$$$
