
 OpenBabel03252509163D

 26 28  0  0  0  0  0  0  0  0999 V2000
   46.0440   32.9370   46.0230 C   0  0  0  0  0  0  0  0  0  0  0  0
   45.6410   32.6920   47.3650 C   0  0  0  0  0  0  0  0  0  0  0  0
   46.1110   31.5950   48.0000 C   0  0  0  0  0  0  0  0  0  0  0  0
   46.9850   30.7280   47.3160 C   0  0  0  0  0  0  0  0  0  0  0  0
   47.1260   31.5390   45.6920 S   0  0  0  0  0  0  0  0  0  0  0  0
   44.9560   33.4280   47.8140 H   0  0  0  0  0  0  0  0  0  0  0  0
   45.8080   31.4130   49.0080 H   0  0  0  0  0  0  0  0  0  0  0  0
   45.7710   28.0240   46.5070 Cl  0  0  0  0  0  0  0  0  0  0  0  0
   47.2880   28.2530   47.3440 C   0  0  0  0  0  0  0  0  0  0  0  0
   47.6510   29.5550   47.6130 C   0  0  0  0  0  0  0  0  0  0  0  0
   48.8790   29.5920   48.2830 C   0  0  0  0  0  0  0  0  0  0  0  0
   49.3410   30.5440   48.5860 H   0  0  0  0  0  0  0  0  0  0  0  0
   49.6200   28.4910   48.6250 C   0  0  0  0  0  3  0  0  0  0  0  0
   49.1510   27.2410   48.3020 C   0  0  0  0  0  0  0  0  0  0  0  0
   50.0920   25.8440   48.7370 Cl  0  0  0  0  0  0  0  0  0  0  0  0
   47.9530   27.1040   47.6430 C   0  0  0  0  0  0  0  0  0  0  0  0
   47.6060   26.1240   47.4000 H   0  0  0  0  0  0  0  0  0  0  0  0
   44.4600   36.0290   44.7260 C   0  0  0  0  0  0  0  0  0  0  0  0
   45.0420   36.0790   43.4350 C   0  0  0  0  0  0  0  0  0  0  0  0
   45.9420   35.0620   43.0700 C   0  0  0  0  0  0  0  0  0  0  0  0
   46.2050   34.0720   43.9930 N   0  0  0  0  0  0  0  0  0  0  0  0
   45.6190   34.0780   45.2110 C   0  0  0  0  0  0  0  0  0  0  0  0
   44.7470   35.0490   45.5860 N   0  0  0  0  0  0  0  0  0  0  0  0
   43.7720   36.8030   45.0110 H   0  0  0  0  0  0  0  0  0  0  0  0
   44.8260   36.8580   42.7260 H   0  0  0  0  0  0  0  0  0  0  0  0
   46.4310   35.0200   42.1070 H   0  0  0  0  0  0  0  0  0  0  0  0
  1  2  2  0  0  0  0
  2  6  1  0  0  0  0
  2  3  1  0  0  0  0
  3  7  1  0  0  0  0
  4 10  1  0  0  0  0
  4  3  2  0  0  0  0
  5  1  1  0  0  0  0
  5  4  1  0  0  0  0
  8  9  1  0  0  0  0
  9 10  2  0  0  0  0
  9 16  1  0  0  0  0
 10 11  1  0  0  0  0
 11 12  1  0  0  0  0
 11 13  2  0  0  0  0
 14 13  1  0  0  0  0
 14 15  1  0  0  0  0
 16 14  2  0  0  0  0
 17 16  1  0  0  0  0
 18 24  1  0  0  0  0
 18 23  1  0  0  0  0
 19 18  2  0  0  0  0
 20 19  1  0  0  0  0
 20 21  2  0  0  0  0
 21 22  1  0  0  0  0
 22 23  2  0  0  0  0
 22  1  1  0  0  0  0
 25 19  1  0  0  0  0
 26 20  1  0  0  0  0
M  END
>  <minimizedAffinity>
-4.84925413

>  <minimizedRMSD>
1.48965144

$$$$
