
 OpenBabel03252508273D

 42 46  0  0  1  0  0  0  0  0999 V2000
   39.1940   29.6890   41.6760 C   0  0  1  0  0  0  0  0  0  0  0  0
   39.1970   29.9760   43.1190 C   0  0  0  0  0  0  0  0  0  0  0  0
   38.4380   28.7460   42.4760 C   0  0  2  0  0  0  0  0  0  0  0  0
   40.3030   29.5840   41.3930 H   0  0  0  0  0  0  0  0  0  0  0  0
   39.9580   29.6050   43.8240 H   0  0  0  0  0  0  0  0  0  0  0  0
   38.5840   30.7790   43.5580 H   0  0  0  0  0  0  0  0  0  0  0  0
   37.3830   28.9410   42.8440 H   0  0  0  0  0  0  0  0  0  0  0  0
   38.8660   27.3840   42.8020 C   0  0  0  0  0  0  0  0  0  0  0  0
   39.8230   27.0100   43.6950 C   0  0  0  0  0  0  0  0  0  0  0  0
   40.2940   25.7180   43.8890 C   0  0  0  0  0  0  0  0  0  0  0  0
   39.7180   24.7190   43.0830 C   0  0  0  0  0  0  0  0  0  0  0  0
   38.7310   25.0710   42.1590 C   0  0  0  0  0  0  0  0  0  0  0  0
   38.1540   24.0460   41.4300 C   0  0  0  0  0  0  0  0  0  0  0  0
   37.1270   24.3470   40.5510 C   0  0  0  0  0  0  0  0  0  0  0  0
   36.6810   25.6450   40.4050 C   0  0  0  0  0  0  0  0  0  0  0  0
   37.2900   26.6240   41.1530 C   0  0  0  0  0  0  0  0  0  0  0  0
   38.3230   26.3790   42.0360 C   0  0  0  0  0  0  0  0  0  0  0  0
   40.2390   27.8090   44.2940 H   0  0  0  0  0  0  0  0  0  0  0  0
   41.0510   25.5020   44.6130 H   0  0  0  0  0  0  0  0  0  0  0  0
   40.0980   23.7380   43.2480 H   0  0  0  0  0  0  0  0  0  0  0  0
   38.5290   23.0360   41.5720 H   0  0  0  0  0  0  0  0  0  0  0  0
   36.7500   23.4540   40.0260 H   0  0  0  0  0  0  0  0  0  0  0  0
   35.8850   25.6700   39.6880 H   0  0  0  0  0  0  0  0  0  0  0  0
   36.7290   27.4870   40.9340 H   0  0  0  0  0  0  0  0  0  0  0  0
   37.8920   32.7000   39.9910 C   0  0  0  0  0  0  0  0  0  0  0  0
   37.0980   32.1410   38.9310 C   0  0  0  0  0  0  0  0  0  0  0  0
   37.0440   30.7420   38.8350 C   0  0  0  0  0  0  0  0  0  0  0  0
   37.7260   30.0140   39.7230 N   0  0  0  0  0  0  0  0  0  0  0  0
   38.4720   30.5680   40.7150 C   0  0  0  0  0  0  0  0  0  0  0  0
   38.5490   31.8870   40.8440 N   0  0  0  0  0  0  0  0  0  0  0  0
   37.9420   33.7700   40.0770 H   0  0  0  0  0  0  0  0  0  0  0  0
   36.5940   32.7740   38.2490 H   0  0  0  0  0  0  0  0  0  0  0  0
   34.4100   29.1210   39.4800 Cl  0  0  0  0  0  0  0  0  0  0  0  0
   35.1860   29.2520   37.9290 C   0  0  0  0  0  0  0  0  0  0  0  0
   36.3320   30.0000   37.8440 C   0  0  0  0  0  0  0  0  0  0  0  0
   36.8380   29.9720   36.5530 C   0  0  0  0  0  0  0  0  0  0  0  0
   37.7570   30.5080   36.2620 H   0  0  0  0  0  0  0  0  0  0  0  0
   36.2820   29.2930   35.4910 C   0  0  0  0  0  3  0  0  0  0  0  0
   35.1280   28.5700   35.6780 C   0  0  0  0  0  0  0  0  0  0  0  0
   34.4130   27.7070   34.3380 Cl  0  0  0  0  0  0  0  0  0  0  0  0
   34.5700   28.5530   36.9350 C   0  0  0  0  0  0  0  0  0  0  0  0
   33.6730   27.9860   37.0610 H   0  0  0  0  0  0  0  0  0  0  0  0
  1  4  1  6  0  0  0
  1  3  1  0  0  0  0
  1  2  1  0  0  0  0
  2  6  1  0  0  0  0
  2  5  1  0  0  0  0
  3  8  1  0  0  0  0
  3  7  1  6  0  0  0
  3  2  1  0  0  0  0
  8  9  1  0  0  0  0
  9 10  2  0  0  0  0
  9 18  1  0  0  0  0
 10 19  1  0  0  0  0
 11 20  1  0  0  0  0
 11 10  1  0  0  0  0
 12 11  2  0  0  0  0
 13 21  1  0  0  0  0
 13 12  1  0  0  0  0
 14 13  2  0  0  0  0
 15 14  1  0  0  0  0
 15 16  2  0  0  0  0
 16 17  1  0  0  0  0
 17 12  1  0  0  0  0
 17  8  2  0  0  0  0
 22 14  1  0  0  0  0
 23 15  1  0  0  0  0
 24 16  1  0  0  0  0
 25 31  1  0  0  0  0
 25 30  1  0  0  0  0
 26 25  2  0  0  0  0
 27 26  1  0  0  0  0
 27 28  2  0  0  0  0
 28 29  1  0  0  0  0
 29 30  2  0  0  0  0
 29  1  1  0  0  0  0
 32 26  1  0  0  0  0
 34 33  1  0  0  0  0
 35 34  1  0  0  0  0
 35 27  1  0  0  0  0
 36 35  2  0  0  0  0
 37 36  1  0  0  0  0
 38 39  2  0  0  0  0
 38 36  1  0  0  0  0
 39 41  1  0  0  0  0
 40 39  1  0  0  0  0
 41 42  1  0  0  0  0
 41 34  2  0  0  0  0
M  END
>  <minimizedAffinity>
-7.05775166

$$$$

 OpenBabel03252508273D

 42 46  0  0  1  0  0  0  0  0999 V2000
   34.2970   28.8870   36.5670 C   0  0  1  0  0  0  0  0  0  0  0  0
   33.4150   27.7710   36.1950 C   0  0  0  0  0  0  0  0  0  0  0  0
   32.8960   29.1030   36.8730 C   0  0  2  0  0  0  0  0  0  0  0  0
   34.8200   29.1890   35.5890 H   0  0  0  0  0  0  0  0  0  0  0  0
   32.9400   27.6560   35.2080 H   0  0  0  0  0  0  0  0  0  0  0  0
   33.3600   26.8440   36.7900 H   0  0  0  0  0  0  0  0  0  0  0  0
   32.3840   28.6800   37.7920 H   0  0  0  0  0  0  0  0  0  0  0  0
   31.9980   29.9880   36.1290 C   0  0  0  0  0  0  0  0  0  0  0  0
   32.1650   30.4600   34.8630 C   0  0  0  0  0  0  0  0  0  0  0  0
   31.3600   31.3980   34.2310 C   0  0  0  0  0  0  0  0  0  0  0  0
   30.2770   31.8940   34.9820 C   0  0  0  0  0  0  0  0  0  0  0  0
   30.0770   31.4270   36.2830 C   0  0  0  0  0  0  0  0  0  0  0  0
   28.9680   31.9000   36.9610 C   0  0  0  0  0  0  0  0  0  0  0  0
   28.6990   31.4110   38.2280 C   0  0  0  0  0  0  0  0  0  0  0  0
   29.5210   30.4640   38.8080 C   0  0  0  0  0  0  0  0  0  0  0  0
   30.6090   30.0300   38.0910 C   0  0  0  0  0  0  0  0  0  0  0  0
   30.9270   30.4920   36.8290 C   0  0  0  0  0  0  0  0  0  0  0  0
   33.0090   30.0540   34.3210 H   0  0  0  0  0  0  0  0  0  0  0  0
   31.5550   31.7220   33.2300 H   0  0  0  0  0  0  0  0  0  0  0  0
   29.6760   32.6140   34.4780 H   0  0  0  0  0  0  0  0  0  0  0  0
   28.3420   32.6430   36.4730 H   0  0  0  0  0  0  0  0  0  0  0  0
   27.7950   31.8610   38.6690 H   0  0  0  0  0  0  0  0  0  0  0  0
   29.1450   30.2140   39.7800 H   0  0  0  0  0  0  0  0  0  0  0  0
   31.0150   29.2700   38.6950 H   0  0  0  0  0  0  0  0  0  0  0  0
   36.2500   27.4820   39.3620 C   0  0  0  0  0  0  0  0  0  0  0  0
   37.0710   28.5950   39.7550 C   0  0  0  0  0  0  0  0  0  0  0  0
   36.9210   29.7920   39.0370 C   0  0  0  0  0  0  0  0  0  0  0  0
   36.0350   29.8310   38.0370 N   0  0  0  0  0  0  0  0  0  0  0  0
   35.2730   28.7620   37.6850 C   0  0  0  0  0  0  0  0  0  0  0  0
   35.3810   27.6120   38.3380 N   0  0  0  0  0  0  0  0  0  0  0  0
   36.3530   26.5600   39.9030 H   0  0  0  0  0  0  0  0  0  0  0  0
   37.7660   28.4940   40.5450 H   0  0  0  0  0  0  0  0  0  0  0  0
   40.0790   29.8830   39.0790 Cl  0  0  0  0  0  0  0  0  0  0  0  0
   39.0060   31.2320   39.3060 C   0  0  0  0  0  0  0  0  0  0  0  0
   37.6560   30.9960   39.2590 C   0  0  0  0  0  0  0  0  0  0  0  0
   36.9480   32.1650   39.4920 C   0  0  0  0  0  0  0  0  0  0  0  0
   35.8450   32.2020   39.5000 H   0  0  0  0  0  0  0  0  0  0  0  0
   37.5040   33.4010   39.7380 C   0  0  0  0  0  3  0  0  0  0  0  0
   38.8710   33.5360   39.7640 C   0  0  0  0  0  0  0  0  0  0  0  0
   39.5870   35.0990   40.0740 Cl  0  0  0  0  0  0  0  0  0  0  0  0
   39.6380   32.4160   39.5410 C   0  0  0  0  0  0  0  0  0  0  0  0
   40.6990   32.5400   39.5650 H   0  0  0  0  0  0  0  0  0  0  0  0
  1  4  1  6  0  0  0
  1  3  1  0  0  0  0
  1 29  1  0  0  0  0
  2  1  1  0  0  0  0
  2  6  1  0  0  0  0
  2  3  1  0  0  0  0
  3  7  1  1  0  0  0
  5  2  1  0  0  0  0
  8 17  1  0  0  0  0
  8  3  1  0  0  0  0
  9  8  2  0  0  0  0
 10  9  1  0  0  0  0
 10 11  2  0  0  0  0
 11 12  1  0  0  0  0
 12 17  2  0  0  0  0
 12 13  1  0  0  0  0
 13 14  2  0  0  0  0
 14 22  1  0  0  0  0
 14 15  1  0  0  0  0
 15 23  1  0  0  0  0
 16 24  1  0  0  0  0
 16 15  2  0  0  0  0
 17 16  1  0  0  0  0
 18  9  1  0  0  0  0
 19 10  1  0  0  0  0
 20 11  1  0  0  0  0
 21 13  1  0  0  0  0
 25 26  1  0  0  0  0
 25 31  1  0  0  0  0
 26 32  1  0  0  0  0
 27 35  1  0  0  0  0
 27 26  2  0  0  0  0
 28 27  1  0  0  0  0
 29 28  2  0  0  0  0
 29 30  1  0  0  0  0
 30 25  2  0  0  0  0
 33 34  1  0  0  0  0
 34 41  1  0  0  0  0
 35 34  2  0  0  0  0
 35 36  1  0  0  0  0
 36 37  1  0  0  0  0
 36 38  2  0  0  0  0
 38 39  1  0  0  0  0
 39 40  1  0  0  0  0
 41 42  1  0  0  0  0
 41 39  2  0  0  0  0
M  END
>  <minimizedAffinity>
-6.97754288

$$$$

 OpenBabel03252508273D

 42 46  0  0  1  0  0  0  0  0999 V2000
   33.8210   28.7610   35.4790 C   0  0  1  0  0  0  0  0  0  0  0  0
   32.7350   27.8520   35.8780 C   0  0  0  0  0  0  0  0  0  0  0  0
   32.8120   29.3680   36.3250 C   0  0  2  0  0  0  0  0  0  0  0  0
   33.8070   28.7490   34.3300 H   0  0  0  0  0  0  0  0  0  0  0  0
   31.8140   27.6910   35.2960 H   0  0  0  0  0  0  0  0  0  0  0  0
   32.8700   27.0850   36.6580 H   0  0  0  0  0  0  0  0  0  0  0  0
   32.7880   29.2510   37.4530 H   0  0  0  0  0  0  0  0  0  0  0  0
   31.7840   30.3070   35.8700 C   0  0  0  0  0  0  0  0  0  0  0  0
   31.7500   30.9870   34.6910 C   0  0  0  0  0  0  0  0  0  0  0  0
   30.8290   31.9650   34.3420 C   0  0  0  0  0  0  0  0  0  0  0  0
   29.8490   32.2680   35.3060 C   0  0  0  0  0  0  0  0  0  0  0  0
   29.8550   31.5850   36.5250 C   0  0  0  0  0  0  0  0  0  0  0  0
   28.8390   31.8760   37.4180 C   0  0  0  0  0  0  0  0  0  0  0  0
   28.7740   31.1730   38.6090 C   0  0  0  0  0  0  0  0  0  0  0  0
   29.7040   30.1960   38.9040 C   0  0  0  0  0  0  0  0  0  0  0  0
   30.6930   29.9490   37.9820 C   0  0  0  0  0  0  0  0  0  0  0  0
   30.8080   30.6270   36.7840 C   0  0  0  0  0  0  0  0  0  0  0  0
   32.5210   30.7240   33.9790 H   0  0  0  0  0  0  0  0  0  0  0  0
   30.8660   32.4570   33.3930 H   0  0  0  0  0  0  0  0  0  0  0  0
   29.1560   33.0230   35.0170 H   0  0  0  0  0  0  0  0  0  0  0  0
   28.1230   32.6500   37.1520 H   0  0  0  0  0  0  0  0  0  0  0  0
   27.9270   31.4930   39.2380 H   0  0  0  0  0  0  0  0  0  0  0  0
   29.4820   29.7700   39.8610 H   0  0  0  0  0  0  0  0  0  0  0  0
   31.2080   29.1260   38.3880 H   0  0  0  0  0  0  0  0  0  0  0  0
   37.4810   28.3310   35.6180 C   0  0  0  0  0  0  0  0  0  0  0  0
   37.7280   28.2540   37.0320 C   0  0  0  0  0  0  0  0  0  0  0  0
   36.6200   28.3570   37.8870 C   0  0  0  0  0  0  0  0  0  0  0  0
   35.4090   28.5190   37.3470 N   0  0  0  0  0  0  0  0  0  0  0  0
   35.2030   28.5910   36.0050 C   0  0  0  0  0  0  0  0  0  0  0  0
   36.2220   28.4970   35.1610 N   0  0  0  0  0  0  0  0  0  0  0  0
   38.3190   28.2530   34.9510 H   0  0  0  0  0  0  0  0  0  0  0  0
   38.7140   28.1400   37.3970 H   0  0  0  0  0  0  0  0  0  0  0  0
   36.6020   30.9760   39.6540 Cl  0  0  0  0  0  0  0  0  0  0  0  0
   36.6550   29.3390   40.2380 C   0  0  0  0  0  0  0  0  0  0  0  0
   36.6610   28.3250   39.3140 C   0  0  0  0  0  0  0  0  0  0  0  0
   36.7400   27.0920   39.9440 C   0  0  0  0  0  0  0  0  0  0  0  0
   36.7590   26.1400   39.3870 H   0  0  0  0  0  0  0  0  0  0  0  0
   36.8030   26.8920   41.3050 C   0  0  0  0  0  3  0  0  0  0  0  0
   36.7890   27.9750   42.1510 C   0  0  0  0  0  0  0  0  0  0  0  0
   36.8670   27.7320   43.8790 Cl  0  0  0  0  0  0  0  0  0  0  0  0
   36.7130   29.2310   41.5950 C   0  0  0  0  0  0  0  0  0  0  0  0
   36.7030   30.0610   42.2680 H   0  0  0  0  0  0  0  0  0  0  0  0
  1  4  1  6  0  0  0
  1  2  1  0  0  0  0
  1 29  1  0  0  0  0
  1  3  1  0  0  0  0
  2  3  1  0  0  0  0
  2  6  1  0  0  0  0
  3  7  1  1  0  0  0
  5  2  1  0  0  0  0
  8  3  1  0  0  0  0
  8 17  1  0  0  0  0
  9  8  2  0  0  0  0
 10  9  1  0  0  0  0
 10 11  2  0  0  0  0
 11 12  1  0  0  0  0
 12 17  2  0  0  0  0
 12 13  1  0  0  0  0
 13 14  2  0  0  0  0
 14 15  1  0  0  0  0
 14 22  1  0  0  0  0
 15 23  1  0  0  0  0
 16 24  1  0  0  0  0
 16 15  2  0  0  0  0
 17 16  1  0  0  0  0
 18  9  1  0  0  0  0
 19 10  1  0  0  0  0
 20 11  1  0  0  0  0
 21 13  1  0  0  0  0
 25 26  1  0  0  0  0
 26 32  1  0  0  0  0
 26 27  2  0  0  0  0
 27 35  1  0  0  0  0
 28 27  1  0  0  0  0
 29 28  2  0  0  0  0
 30 25  2  0  0  0  0
 30 29  1  0  0  0  0
 31 25  1  0  0  0  0
 33 34  1  0  0  0  0
 34 41  1  0  0  0  0
 35 36  1  0  0  0  0
 35 34  2  0  0  0  0
 36 38  2  0  0  0  0
 37 36  1  0  0  0  0
 38 39  1  0  0  0  0
 39 40  1  0  0  0  0
 41 39  2  0  0  0  0
 41 42  1  0  0  0  0
M  END
>  <minimizedAffinity>
-6.93406439

$$$$

 OpenBabel03252508273D

 42 46  0  0  1  0  0  0  0  0999 V2000
   36.1960   26.6120   38.0880 C   0  0  1  0  0  0  0  0  0  0  0  0
   34.8220   26.9780   37.7080 C   0  0  0  0  0  0  0  0  0  0  0  0
   35.8080   27.9570   38.4640 C   0  0  2  0  0  0  0  0  0  0  0  0
   36.7060   26.3160   37.1020 H   0  0  0  0  0  0  0  0  0  0  0  0
   34.5430   27.4200   36.7390 H   0  0  0  0  0  0  0  0  0  0  0  0
   33.9430   26.6130   38.2640 H   0  0  0  0  0  0  0  0  0  0  0  0
   35.1930   28.1980   39.3860 H   0  0  0  0  0  0  0  0  0  0  0  0
   36.2600   29.1810   37.7990 C   0  0  0  0  0  0  0  0  0  0  0  0
   36.4680   29.3680   36.4660 C   0  0  0  0  0  0  0  0  0  0  0  0
   37.0170   30.5010   35.8790 C   0  0  0  0  0  0  0  0  0  0  0  0
   37.3860   31.5380   36.7560 C   0  0  0  0  0  0  0  0  0  0  0  0
   37.1820   31.3770   38.1290 C   0  0  0  0  0  0  0  0  0  0  0  0
   37.5070   32.4460   38.9460 C   0  0  0  0  0  0  0  0  0  0  0  0
   37.2600   32.3490   40.3040 C   0  0  0  0  0  0  0  0  0  0  0  0
   36.6950   31.2080   40.8390 C   0  0  0  0  0  0  0  0  0  0  0  0
   36.3930   30.1770   39.9830 C   0  0  0  0  0  0  0  0  0  0  0  0
   36.6280   30.2180   38.6230 C   0  0  0  0  0  0  0  0  0  0  0  0
   36.1710   28.5470   35.8280 H   0  0  0  0  0  0  0  0  0  0  0  0
   37.1490   30.5750   34.8200 H   0  0  0  0  0  0  0  0  0  0  0  0
   37.8070   32.3940   36.2830 H   0  0  0  0  0  0  0  0  0  0  0  0
   37.9480   33.3290   38.4900 H   0  0  0  0  0  0  0  0  0  0  0  0
   37.5610   33.2570   40.8510 H   0  0  0  0  0  0  0  0  0  0  0  0
   36.5810   31.3290   41.8980 H   0  0  0  0  0  0  0  0  0  0  0  0
   35.9070   29.4770   40.6010 H   0  0  0  0  0  0  0  0  0  0  0  0
   35.9800   23.5620   40.1500 C   0  0  0  0  0  0  0  0  0  0  0  0
   36.9710   23.8040   41.1630 C   0  0  0  0  0  0  0  0  0  0  0  0
   37.6810   25.0130   41.0950 C   0  0  0  0  0  0  0  0  0  0  0  0
   37.4010   25.8630   40.1030 N   0  0  0  0  0  0  0  0  0  0  0  0
   36.4600   25.6080   39.1560 C   0  0  0  0  0  0  0  0  0  0  0  0
   35.7640   24.4780   39.1840 N   0  0  0  0  0  0  0  0  0  0  0  0
   35.4290   22.6410   40.1900 H   0  0  0  0  0  0  0  0  0  0  0  0
   37.1570   23.0820   41.9130 H   0  0  0  0  0  0  0  0  0  0  0  0
   37.2530   27.2570   43.2770 Cl  0  0  0  0  0  0  0  0  0  0  0  0
   38.7170   26.3630   42.9910 C   0  0  0  0  0  0  0  0  0  0  0  0
   38.7140   25.4260   41.9900 C   0  0  0  0  0  0  0  0  0  0  0  0
   39.9630   24.8330   41.8730 C   0  0  0  0  0  0  0  0  0  0  0  0
   40.1820   24.0510   41.1270 H   0  0  0  0  0  0  0  0  0  0  0  0
   41.0640   25.1300   42.6450 C   0  0  0  0  0  3  0  0  0  0  0  0
   40.9650   26.0860   43.6270 C   0  0  0  0  0  0  0  0  0  0  0  0
   42.3560   26.4690   44.6130 Cl  0  0  0  0  0  0  0  0  0  0  0  0
   39.7560   26.7170   43.8000 C   0  0  0  0  0  0  0  0  0  0  0  0
   39.6980   27.4570   44.5680 H   0  0  0  0  0  0  0  0  0  0  0  0
  1  4  1  6  0  0  0
  1  3  1  0  0  0  0
  1 29  1  0  0  0  0
  2  1  1  0  0  0  0
  2  6  1  0  0  0  0
  2  3  1  0  0  0  0
  3  7  1  1  0  0  0
  5  2  1  0  0  0  0
  8  3  1  0  0  0  0
  8 17  1  0  0  0  0
  9  8  2  0  0  0  0
 10  9  1  0  0  0  0
 10 11  2  0  0  0  0
 11 12  1  0  0  0  0
 12 17  2  0  0  0  0
 12 13  1  0  0  0  0
 13 14  2  0  0  0  0
 14 15  1  0  0  0  0
 14 22  1  0  0  0  0
 15 23  1  0  0  0  0
 16 24  1  0  0  0  0
 16 15  2  0  0  0  0
 17 16  1  0  0  0  0
 18  9  1  0  0  0  0
 19 10  1  0  0  0  0
 20 11  1  0  0  0  0
 21 13  1  0  0  0  0
 25 31  1  0  0  0  0
 25 26  1  0  0  0  0
 26 32  1  0  0  0  0
 27 26  2  0  0  0  0
 27 35  1  0  0  0  0
 28 27  1  0  0  0  0
 29 30  1  0  0  0  0
 29 28  2  0  0  0  0
 30 25  2  0  0  0  0
 34 33  1  0  0  0  0
 34 41  1  0  0  0  0
 35 34  2  0  0  0  0
 36 35  1  0  0  0  0
 36 38  2  0  0  0  0
 37 36  1  0  0  0  0
 38 39  1  0  0  0  0
 39 41  2  0  0  0  0
 39 40  1  0  0  0  0
 41 42  1  0  0  0  0
M  END
>  <minimizedAffinity>
-6.79177141

$$$$

 OpenBabel03252508273D

 42 46  0  0  1  0  0  0  0  0999 V2000
   40.2310   30.0230   42.4400 C   0  0  1  0  0  0  0  0  0  0  0  0
   41.6550   29.7860   42.1550 C   0  0  0  0  0  0  0  0  0  0  0  0
   40.6910   30.5750   41.1810 C   0  0  2  0  0  0  0  0  0  0  0  0
   40.2200   30.5780   43.4470 H   0  0  0  0  0  0  0  0  0  0  0  0
   42.4720   30.4520   42.4760 H   0  0  0  0  0  0  0  0  0  0  0  0
   42.0300   28.8070   41.8160 H   0  0  0  0  0  0  0  0  0  0  0  0
   40.8090   29.9630   40.2340 H   0  0  0  0  0  0  0  0  0  0  0  0
   40.9320   31.9970   40.9220 C   0  0  0  0  0  0  0  0  0  0  0  0
   42.0950   32.6830   41.0980 C   0  0  0  0  0  0  0  0  0  0  0  0
   42.2580   34.0550   40.9640 C   0  0  0  0  0  0  0  0  0  0  0  0
   41.1070   34.7860   40.6140 C   0  0  0  0  0  0  0  0  0  0  0  0
   39.9000   34.1110   40.4230 C   0  0  0  0  0  0  0  0  0  0  0  0
   38.8100   34.8640   40.0240 C   0  0  0  0  0  0  0  0  0  0  0  0
   37.6120   34.2210   39.7620 C   0  0  0  0  0  0  0  0  0  0  0  0
   37.5040   32.8500   39.8920 C   0  0  0  0  0  0  0  0  0  0  0  0
   38.6160   32.1510   40.2930 C   0  0  0  0  0  0  0  0  0  0  0  0
   39.8310   32.7440   40.5750 C   0  0  0  0  0  0  0  0  0  0  0  0
   42.9530   32.0830   41.3670 H   0  0  0  0  0  0  0  0  0  0  0  0
   43.2070   34.5240   41.1190 H   0  0  0  0  0  0  0  0  0  0  0  0
   41.2570   35.8370   40.5200 H   0  0  0  0  0  0  0  0  0  0  0  0
   38.9320   35.9400   39.9300 H   0  0  0  0  0  0  0  0  0  0  0  0
   36.8190   34.9220   39.4560 H   0  0  0  0  0  0  0  0  0  0  0  0
   36.5070   32.5460   39.6430 H   0  0  0  0  0  0  0  0  0  0  0  0
   38.3110   31.1460   40.2340 H   0  0  0  0  0  0  0  0  0  0  0  0
   38.4580   26.9130   43.3250 C   0  0  0  0  0  0  0  0  0  0  0  0
   37.4140   26.8620   42.3380 C   0  0  0  0  0  0  0  0  0  0  0  0
   37.3590   27.9070   41.4020 C   0  0  0  0  0  0  0  0  0  0  0  0
   38.2690   28.8820   41.4800 N   0  0  0  0  0  0  0  0  0  0  0  0
   39.2450   28.9080   42.4260 C   0  0  0  0  0  0  0  0  0  0  0  0
   39.3350   27.9380   43.3280 N   0  0  0  0  0  0  0  0  0  0  0  0
   38.5130   26.1200   44.0460 H   0  0  0  0  0  0  0  0  0  0  0  0
   36.7140   26.0690   42.3400 H   0  0  0  0  0  0  0  0  0  0  0  0
   37.4470   26.2000   38.7450 Cl  0  0  0  0  0  0  0  0  0  0  0  0
   36.2610   27.4020   39.1590 C   0  0  0  0  0  0  0  0  0  0  0  0
   36.3910   28.0470   40.3630 C   0  0  0  0  0  0  0  0  0  0  0  0
   35.3880   28.9920   40.5200 C   0  0  0  0  0  0  0  0  0  0  0  0
   35.3050   29.6270   41.4180 H   0  0  0  0  0  0  0  0  0  0  0  0
   34.3920   29.2600   39.6070 C   0  0  0  0  0  3  0  0  0  0  0  0
   34.3470   28.5570   38.4270 C   0  0  0  0  0  0  0  0  0  0  0  0
   33.0860   28.8880   37.2630 Cl  0  0  0  0  0  0  0  0  0  0  0  0
   35.3110   27.6020   38.2030 C   0  0  0  0  0  0  0  0  0  0  0  0
   35.2590   27.0650   37.2810 H   0  0  0  0  0  0  0  0  0  0  0  0
  1  4  1  1  0  0  0
  2  1  1  0  0  0  0
  2  5  1  0  0  0  0
  3  7  1  6  0  0  0
  3  2  1  0  0  0  0
  3  1  1  0  0  0  0
  6  2  1  0  0  0  0
  8  9  1  0  0  0  0
  8  3  1  0  0  0  0
  9 18  1  0  0  0  0
 10  9  2  0  0  0  0
 10 19  1  0  0  0  0
 11 10  1  0  0  0  0
 12 17  1  0  0  0  0
 12 11  2  0  0  0  0
 13 12  1  0  0  0  0
 14 15  1  0  0  0  0
 14 13  2  0  0  0  0
 15 16  2  0  0  0  0
 16 17  1  0  0  0  0
 17  8  2  0  0  0  0
 20 11  1  0  0  0  0
 21 13  1  0  0  0  0
 22 14  1  0  0  0  0
 23 15  1  0  0  0  0
 24 16  1  0  0  0  0
 25 30  1  0  0  0  0
 25 31  1  0  0  0  0
 26 32  1  0  0  0  0
 26 25  2  0  0  0  0
 27 28  2  0  0  0  0
 27 26  1  0  0  0  0
 28 29  1  0  0  0  0
 29  1  1  0  0  0  0
 29 30  2  0  0  0  0
 33 34  1  0  0  0  0
 34 35  1  0  0  0  0
 35 36  2  0  0  0  0
 35 27  1  0  0  0  0
 36 37  1  0  0  0  0
 38 36  1  0  0  0  0
 39 38  2  0  0  0  0
 40 39  1  0  0  0  0
 41 39  1  0  0  0  0
 41 34  2  0  0  0  0
 42 41  1  0  0  0  0
M  END
>  <minimizedAffinity>
-6.69305038

$$$$

 OpenBabel03252508273D

 42 46  0  0  1  0  0  0  0  0999 V2000
   34.2800   28.5700   36.8820 C   0  0  1  0  0  0  0  0  0  0  0  0
   33.3300   27.4910   36.5690 C   0  0  0  0  0  0  0  0  0  0  0  0
   32.8900   28.9060   37.1230 C   0  0  2  0  0  0  0  0  0  0  0  0
   34.8500   28.7540   35.9020 H   0  0  0  0  0  0  0  0  0  0  0  0
   32.8760   27.3320   35.5780 H   0  0  0  0  0  0  0  0  0  0  0  0
   33.1910   26.6210   37.2320 H   0  0  0  0  0  0  0  0  0  0  0  0
   32.3230   28.5960   38.0540 H   0  0  0  0  0  0  0  0  0  0  0  0
   32.0790   29.7900   36.2820 C   0  0  0  0  0  0  0  0  0  0  0  0
   32.3410   30.1830   35.0050 C   0  0  0  0  0  0  0  0  0  0  0  0
   31.6190   31.1210   34.2790 C   0  0  0  0  0  0  0  0  0  0  0  0
   30.5220   31.7070   34.9390 C   0  0  0  0  0  0  0  0  0  0  0  0
   30.2260   31.3220   36.2480 C   0  0  0  0  0  0  0  0  0  0  0  0
   29.1050   31.8820   36.8350 C   0  0  0  0  0  0  0  0  0  0  0  0
   28.7430   31.4760   38.1070 C   0  0  0  0  0  0  0  0  0  0  0  0
   29.4830   30.5260   38.7830 C   0  0  0  0  0  0  0  0  0  0  0  0
   30.5870   30.0040   38.1550 C   0  0  0  0  0  0  0  0  0  0  0  0
   30.9970   30.3800   36.8910 C   0  0  0  0  0  0  0  0  0  0  0  0
   33.1920   29.7090   34.5360 H   0  0  0  0  0  0  0  0  0  0  0  0
   31.8860   31.3800   33.2760 H   0  0  0  0  0  0  0  0  0  0  0  0
   29.9860   32.4250   34.3630 H   0  0  0  0  0  0  0  0  0  0  0  0
   28.5450   32.6250   36.2730 H   0  0  0  0  0  0  0  0  0  0  0  0
   27.8380   31.9920   38.4700 H   0  0  0  0  0  0  0  0  0  0  0  0
   29.0410   30.3470   39.7430 H   0  0  0  0  0  0  0  0  0  0  0  0
   30.9200   29.2600   38.8200 H   0  0  0  0  0  0  0  0  0  0  0  0
   36.4740   29.4950   39.6980 C   0  0  0  0  0  0  0  0  0  0  0  0
   36.9510   28.2170   40.1500 C   0  0  0  0  0  0  0  0  0  0  0  0
   36.4950   27.0800   39.4660 C   0  0  0  0  0  0  0  0  0  0  0  0
   35.6500   27.2450   38.4450 N   0  0  0  0  0  0  0  0  0  0  0  0
   35.2120   28.4660   38.0390 C   0  0  0  0  0  0  0  0  0  0  0  0
   35.6200   29.5680   38.6560 N   0  0  0  0  0  0  0  0  0  0  0  0
   36.8160   30.3750   40.2110 H   0  0  0  0  0  0  0  0  0  0  0  0
   37.6080   28.1530   40.9770 H   0  0  0  0  0  0  0  0  0  0  0  0
   36.9230   26.0590   42.4260 Cl  0  0  0  0  0  0  0  0  0  0  0  0
   37.0510   25.1050   40.9780 C   0  0  0  0  0  0  0  0  0  0  0  0
   36.8350   25.7280   39.7750 C   0  0  0  0  0  0  0  0  0  0  0  0
   37.0090   24.8370   38.7270 C   0  0  0  0  0  0  0  0  0  0  0  0
   36.8840   25.1300   37.6710 H   0  0  0  0  0  0  0  0  0  0  0  0
   37.3520   23.5090   38.8550 C   0  0  0  0  0  3  0  0  0  0  0  0
   37.5470   22.9770   40.1070 C   0  0  0  0  0  0  0  0  0  0  0  0
   37.9810   21.2930   40.2800 Cl  0  0  0  0  0  0  0  0  0  0  0  0
   37.3910   23.8030   41.1950 C   0  0  0  0  0  0  0  0  0  0  0  0
   37.5460   23.3720   42.1600 H   0  0  0  0  0  0  0  0  0  0  0  0
  1  4  1  6  0  0  0
  1  3  1  0  0  0  0
  1 29  1  0  0  0  0
  2  1  1  0  0  0  0
  2  3  1  0  0  0  0
  2  6  1  0  0  0  0
  3  7  1  1  0  0  0
  5  2  1  0  0  0  0
  8 17  1  0  0  0  0
  8  3  1  0  0  0  0
  9  8  2  0  0  0  0
 10 11  2  0  0  0  0
 10  9  1  0  0  0  0
 11 12  1  0  0  0  0
 12 13  2  0  0  0  0
 12 17  1  0  0  0  0
 13 14  1  0  0  0  0
 14 22  1  0  0  0  0
 14 15  2  0  0  0  0
 15 23  1  0  0  0  0
 16 15  1  0  0  0  0
 16 24  1  0  0  0  0
 17 16  2  0  0  0  0
 18  9  1  0  0  0  0
 19 10  1  0  0  0  0
 20 11  1  0  0  0  0
 21 13  1  0  0  0  0
 25 26  1  0  0  0  0
 25 31  1  0  0  0  0
 26 32  1  0  0  0  0
 27 35  1  0  0  0  0
 27 26  2  0  0  0  0
 28 27  1  0  0  0  0
 29 28  2  0  0  0  0
 29 30  1  0  0  0  0
 30 25  2  0  0  0  0
 34 41  1  0  0  0  0
 34 33  1  0  0  0  0
 35 34  2  0  0  0  0
 36 38  2  0  0  0  0
 36 35  1  0  0  0  0
 37 36  1  0  0  0  0
 38 39  1  0  0  0  0
 39 40  1  0  0  0  0
 39 41  2  0  0  0  0
 41 42  1  0  0  0  0
M  END
>  <minimizedAffinity>
-6.67593527

$$$$

 OpenBabel03252508273D

 42 46  0  0  1  0  0  0  0  0999 V2000
   36.2140   28.8380   39.5660 C   0  0  1  0  0  0  0  0  0  0  0  0
   35.7890   29.9010   40.4900 C   0  0  0  0  0  0  0  0  0  0  0  0
   36.1480   28.4330   40.9570 C   0  0  2  0  0  0  0  0  0  0  0  0
   37.1440   29.2590   39.0390 H   0  0  0  0  0  0  0  0  0  0  0  0
   36.4750   30.6140   40.9740 H   0  0  0  0  0  0  0  0  0  0  0  0
   34.7370   30.2190   40.5740 H   0  0  0  0  0  0  0  0  0  0  0  0
   35.1840   28.1420   41.4800 H   0  0  0  0  0  0  0  0  0  0  0  0
   37.3050   28.2160   41.8280 C   0  0  0  0  0  0  0  0  0  0  0  0
   38.0950   29.1630   42.4040 C   0  0  0  0  0  0  0  0  0  0  0  0
   39.2600   28.9250   43.1210 C   0  0  0  0  0  0  0  0  0  0  0  0
   39.6430   27.5770   43.2550 C   0  0  0  0  0  0  0  0  0  0  0  0
   38.8510   26.5820   42.6780 C   0  0  0  0  0  0  0  0  0  0  0  0
   39.2360   25.2690   42.8850 C   0  0  0  0  0  0  0  0  0  0  0  0
   38.4410   24.2520   42.3840 C   0  0  0  0  0  0  0  0  0  0  0  0
   37.2810   24.5380   41.6920 C   0  0  0  0  0  0  0  0  0  0  0  0
   36.9470   25.8590   41.5140 C   0  0  0  0  0  0  0  0  0  0  0  0
   37.7090   26.9110   41.9850 C   0  0  0  0  0  0  0  0  0  0  0  0
   37.7650   30.1850   42.2760 H   0  0  0  0  0  0  0  0  0  0  0  0
   39.8300   29.7250   43.5460 H   0  0  0  0  0  0  0  0  0  0  0  0
   40.5400   27.4210   43.8060 H   0  0  0  0  0  0  0  0  0  0  0  0
   40.1540   25.0800   43.4360 H   0  0  0  0  0  0  0  0  0  0  0  0
   38.8490   23.2530   42.6080 H   0  0  0  0  0  0  0  0  0  0  0  0
   36.8100   23.6240   41.3930 H   0  0  0  0  0  0  0  0  0  0  0  0
   36.0050   25.8150   41.0470 H   0  0  0  0  0  0  0  0  0  0  0  0
   34.6170   26.4400   37.2640 C   0  0  0  0  0  0  0  0  0  0  0  0
   33.4940   27.1890   36.7700 C   0  0  0  0  0  0  0  0  0  0  0  0
   33.3280   28.4960   37.2530 C   0  0  0  0  0  0  0  0  0  0  0  0
   34.2110   28.9680   38.1370 N   0  0  0  0  0  0  0  0  0  0  0  0
   35.2640   28.2370   38.5900 C   0  0  0  0  0  0  0  0  0  0  0  0
   35.4600   26.9980   38.1580 N   0  0  0  0  0  0  0  0  0  0  0  0
   34.7580   25.4390   36.9020 H   0  0  0  0  0  0  0  0  0  0  0  0
   32.8210   26.7520   36.0820 H   0  0  0  0  0  0  0  0  0  0  0  0
   33.1640   29.9300   34.4420 Cl  0  0  0  0  0  0  0  0  0  0  0  0
   32.0260   30.0890   35.7480 C   0  0  0  0  0  0  0  0  0  0  0  0
   32.2690   29.3880   36.9020 C   0  0  0  0  0  0  0  0  0  0  0  0
   31.2900   29.6520   37.8480 C   0  0  0  0  0  0  0  0  0  0  0  0
   31.2920   29.1930   38.8500 H   0  0  0  0  0  0  0  0  0  0  0  0
   30.2160   30.4970   37.6720 C   0  0  0  0  0  3  0  0  0  0  0  0
   30.0590   31.1540   36.4750 C   0  0  0  0  0  0  0  0  0  0  0  0
   28.7000   32.2270   36.2420 Cl  0  0  0  0  0  0  0  0  0  0  0  0
   30.9940   30.9400   35.4900 C   0  0  0  0  0  0  0  0  0  0  0  0
   30.8560   31.4590   34.5670 H   0  0  0  0  0  0  0  0  0  0  0  0
  1  4  1  6  0  0  0
  1  2  1  0  0  0  0
  1  3  1  0  0  0  0
  2  6  1  0  0  0  0
  2  3  1  0  0  0  0
  2  5  1  0  0  0  0
  3  7  1  1  0  0  0
  3  8  1  0  0  0  0
  8 17  2  0  0  0  0
  8  9  1  0  0  0  0
  9 10  2  0  0  0  0
 10 11  1  0  0  0  0
 10 19  1  0  0  0  0
 11 20  1  0  0  0  0
 12 13  1  0  0  0  0
 12 11  2  0  0  0  0
 13 21  1  0  0  0  0
 14 22  1  0  0  0  0
 14 13  2  0  0  0  0
 15 14  1  0  0  0  0
 16 15  2  0  0  0  0
 16 17  1  0  0  0  0
 17 12  1  0  0  0  0
 18  9  1  0  0  0  0
 23 15  1  0  0  0  0
 24 16  1  0  0  0  0
 25 30  1  0  0  0  0
 26 27  1  0  0  0  0
 26 25  2  0  0  0  0
 27 28  2  0  0  0  0
 28 29  1  0  0  0  0
 29  1  1  0  0  0  0
 30 29  2  0  0  0  0
 31 25  1  0  0  0  0
 32 26  1  0  0  0  0
 33 34  1  0  0  0  0
 34 35  1  0  0  0  0
 35 27  1  0  0  0  0
 35 36  2  0  0  0  0
 36 37  1  0  0  0  0
 38 36  1  0  0  0  0
 39 38  2  0  0  0  0
 40 39  1  0  0  0  0
 41 34  2  0  0  0  0
 41 39  1  0  0  0  0
 42 41  1  0  0  0  0
M  END
>  <minimizedAffinity>
-6.56958437

$$$$

 OpenBabel03252508273D

 42 46  0  0  1  0  0  0  0  0999 V2000
   40.4890   29.4280   41.6360 C   0  0  1  0  0  0  0  0  0  0  0  0
   41.0200   29.1090   40.3010 C   0  0  0  0  0  0  0  0  0  0  0  0
   40.2970   30.4720   40.6490 C   0  0  2  0  0  0  0  0  0  0  0  0
   41.3910   29.3370   42.3420 H   0  0  0  0  0  0  0  0  0  0  0  0
   42.0520   29.3170   39.9780 H   0  0  0  0  0  0  0  0  0  0  0  0
   40.5020   28.4200   39.6140 H   0  0  0  0  0  0  0  0  0  0  0  0
   39.4610   30.4630   39.8820 H   0  0  0  0  0  0  0  0  0  0  0  0
   41.0530   31.7260   40.5890 C   0  0  0  0  0  0  0  0  0  0  0  0
   42.3950   31.8880   40.7450 C   0  0  0  0  0  0  0  0  0  0  0  0
   43.0660   33.1020   40.8090 C   0  0  0  0  0  0  0  0  0  0  0  0
   42.2700   34.2580   40.7010 C   0  0  0  0  0  0  0  0  0  0  0  0
   40.8890   34.1240   40.5370 C   0  0  0  0  0  0  0  0  0  0  0  0
   40.1550   35.2860   40.3770 C   0  0  0  0  0  0  0  0  0  0  0  0
   38.7940   35.1920   40.1470 C   0  0  0  0  0  0  0  0  0  0  0  0
   38.1740   33.9590   40.0740 C   0  0  0  0  0  0  0  0  0  0  0  0
   38.9490   32.8380   40.2410 C   0  0  0  0  0  0  0  0  0  0  0  0
   40.3090   32.8770   40.4820 C   0  0  0  0  0  0  0  0  0  0  0  0
   42.9690   30.9750   40.8250 H   0  0  0  0  0  0  0  0  0  0  0  0
   44.1270   33.1500   40.9330 H   0  0  0  0  0  0  0  0  0  0  0  0
   42.8060   35.1770   40.7550 H   0  0  0  0  0  0  0  0  0  0  0  0
   40.6760   36.2390   40.4380 H   0  0  0  0  0  0  0  0  0  0  0  0
   38.3170   36.1790   40.0400 H   0  0  0  0  0  0  0  0  0  0  0  0
   37.1280   34.0970   39.8880 H   0  0  0  0  0  0  0  0  0  0  0  0
   38.2810   32.0460   40.0600 H   0  0  0  0  0  0  0  0  0  0  0  0
   37.4990   28.6610   43.6540 C   0  0  0  0  0  0  0  0  0  0  0  0
   37.1300   27.3570   43.1750 C   0  0  0  0  0  0  0  0  0  0  0  0
   37.9280   26.7900   42.1680 C   0  0  0  0  0  0  0  0  0  0  0  0
   38.9730   27.4860   41.7140 N   0  0  0  0  0  0  0  0  0  0  0  0
   39.2990   28.7200   42.1840 C   0  0  0  0  0  0  0  0  0  0  0  0
   38.5740   29.2920   43.1360 N   0  0  0  0  0  0  0  0  0  0  0  0
   36.8990   29.1060   44.4250 H   0  0  0  0  0  0  0  0  0  0  0  0
   36.2790   26.8640   43.5650 H   0  0  0  0  0  0  0  0  0  0  0  0
   39.5760   24.2110   42.9510 Cl  0  0  0  0  0  0  0  0  0  0  0  0
   38.3160   24.3060   41.7560 C   0  0  0  0  0  0  0  0  0  0  0  0
   37.7140   25.5210   41.5490 C   0  0  0  0  0  0  0  0  0  0  0  0
   36.7630   25.4300   40.5450 C   0  0  0  0  0  0  0  0  0  0  0  0
   36.1590   26.2930   40.2180 H   0  0  0  0  0  0  0  0  0  0  0  0
   36.4500   24.2880   39.8420 C   0  0  0  0  0  3  0  0  0  0  0  0
   37.1100   23.1150   40.1240 C   0  0  0  0  0  0  0  0  0  0  0  0
   36.7190   21.6610   39.2390 Cl  0  0  0  0  0  0  0  0  0  0  0  0
   38.0680   23.1320   41.1100 C   0  0  0  0  0  0  0  0  0  0  0  0
   38.5710   22.2120   41.3150 H   0  0  0  0  0  0  0  0  0  0  0  0
  1 29  1  0  0  0  0
  1  4  1  1  0  0  0
  2  3  1  0  0  0  0
  2  1  1  0  0  0  0
  3  7  1  6  0  0  0
  3  1  1  0  0  0  0
  5  2  1  0  0  0  0
  6  2  1  0  0  0  0
  8  3  1  0  0  0  0
  8  9  1  0  0  0  0
  9 10  2  0  0  0  0
  9 18  1  0  0  0  0
 10 19  1  0  0  0  0
 11 20  1  0  0  0  0
 11 10  1  0  0  0  0
 12 11  2  0  0  0  0
 13 21  1  0  0  0  0
 13 12  1  0  0  0  0
 14 13  2  0  0  0  0
 15 14  1  0  0  0  0
 15 16  2  0  0  0  0
 16 17  1  0  0  0  0
 17 12  1  0  0  0  0
 17  8  2  0  0  0  0
 22 14  1  0  0  0  0
 23 15  1  0  0  0  0
 24 16  1  0  0  0  0
 25 31  1  0  0  0  0
 26 32  1  0  0  0  0
 26 25  1  0  0  0  0
 27 26  2  0  0  0  0
 28 27  1  0  0  0  0
 28 29  2  0  0  0  0
 29 30  1  0  0  0  0
 30 25  2  0  0  0  0
 34 33  1  0  0  0  0
 35 34  1  0  0  0  0
 35 27  1  0  0  0  0
 36 35  2  0  0  0  0
 37 36  1  0  0  0  0
 38 39  2  0  0  0  0
 38 36  1  0  0  0  0
 39 41  1  0  0  0  0
 40 39  1  0  0  0  0
 41 42  1  0  0  0  0
 41 34  2  0  0  0  0
M  END
>  <minimizedAffinity>
-6.5411334

$$$$

 OpenBabel03252508273D

 42 46  0  0  1  0  0  0  0  0999 V2000
   38.5730   30.0180   40.5350 C   0  0  1  0  0  0  0  0  0  0  0  0
   37.6620   30.9080   39.7990 C   0  0  0  0  0  0  0  0  0  0  0  0
   38.6160   31.4040   40.9600 C   0  0  2  0  0  0  0  0  0  0  0  0
   39.2420   29.5470   39.7280 H   0  0  0  0  0  0  0  0  0  0  0  0
   37.9240   31.4310   38.8650 H   0  0  0  0  0  0  0  0  0  0  0  0
   36.5760   30.9250   39.9910 H   0  0  0  0  0  0  0  0  0  0  0  0
   37.8580   31.8660   41.6650 H   0  0  0  0  0  0  0  0  0  0  0  0
   39.6950   32.3460   40.6540 C   0  0  0  0  0  0  0  0  0  0  0  0
   39.7080   33.3000   39.6830 C   0  0  0  0  0  0  0  0  0  0  0  0
   40.7940   34.0920   39.3360 C   0  0  0  0  0  0  0  0  0  0  0  0
   41.9790   33.8770   40.0650 C   0  0  0  0  0  0  0  0  0  0  0  0
   41.9950   32.9070   41.0710 C   0  0  0  0  0  0  0  0  0  0  0  0
   43.1640   32.7710   41.7980 C   0  0  0  0  0  0  0  0  0  0  0  0
   43.1990   31.8660   42.8450 C   0  0  0  0  0  0  0  0  0  0  0  0
   42.0870   31.1120   43.1640 C   0  0  0  0  0  0  0  0  0  0  0  0
   40.9530   31.2860   42.4080 C   0  0  0  0  0  0  0  0  0  0  0  0
   40.8680   32.1680   41.3480 C   0  0  0  0  0  0  0  0  0  0  0  0
   38.7780   33.4320   39.1470 H   0  0  0  0  0  0  0  0  0  0  0  0
   40.7280   34.8240   38.5590 H   0  0  0  0  0  0  0  0  0  0  0  0
   42.7980   34.4950   39.7790 H   0  0  0  0  0  0  0  0  0  0  0  0
   44.0200   33.3820   41.5210 H   0  0  0  0  0  0  0  0  0  0  0  0
   44.1800   31.8430   43.3470 H   0  0  0  0  0  0  0  0  0  0  0  0
   42.3120   30.4800   43.9990 H   0  0  0  0  0  0  0  0  0  0  0  0
   40.2400   30.6800   42.8890 H   0  0  0  0  0  0  0  0  0  0  0  0
   37.2380   28.4150   43.5760 C   0  0  0  0  0  0  0  0  0  0  0  0
   37.1240   27.0390   43.1750 C   0  0  0  0  0  0  0  0  0  0  0  0
   37.5100   26.7160   41.8650 C   0  0  0  0  0  0  0  0  0  0  0  0
   37.9570   27.6930   41.0710 N   0  0  0  0  0  0  0  0  0  0  0  0
   38.0530   28.9870   41.4750 C   0  0  0  0  0  0  0  0  0  0  0  0
   37.7000   29.3370   42.7060 N   0  0  0  0  0  0  0  0  0  0  0  0
   36.9460   28.6770   44.5760 H   0  0  0  0  0  0  0  0  0  0  0  0
   36.7460   26.3150   43.8470 H   0  0  0  0  0  0  0  0  0  0  0  0
   39.3630   24.3310   42.7950 Cl  0  0  0  0  0  0  0  0  0  0  0  0
   38.1590   24.2720   41.5420 C   0  0  0  0  0  0  0  0  0  0  0  0
   37.4520   25.4170   41.2740 C   0  0  0  0  0  0  0  0  0  0  0  0
   36.5620   25.2080   40.2310 C   0  0  0  0  0  0  0  0  0  0  0  0
   35.8940   25.9990   39.8520 H   0  0  0  0  0  0  0  0  0  0  0  0
   36.3970   24.0230   39.5470 C   0  0  0  0  0  3  0  0  0  0  0  0
   37.1540   22.9300   39.8930 C   0  0  0  0  0  0  0  0  0  0  0  0
   36.9500   21.4220   39.0330 Cl  0  0  0  0  0  0  0  0  0  0  0  0
   38.0580   23.0650   40.9200 C   0  0  0  0  0  0  0  0  0  0  0  0
   38.6370   22.2040   41.1740 H   0  0  0  0  0  0  0  0  0  0  0  0
  1  4  1  6  0  0  0
  1  3  1  0  0  0  0
  1 29  1  0  0  0  0
  2  6  1  0  0  0  0
  2  1  1  0  0  0  0
  2  3  1  0  0  0  0
  3  7  1  1  0  0  0
  5  2  1  0  0  0  0
  8  3  1  0  0  0  0
  8 17  1  0  0  0  0
  9  8  2  0  0  0  0
 10  9  1  0  0  0  0
 10 11  2  0  0  0  0
 11 12  1  0  0  0  0
 12 17  2  0  0  0  0
 12 13  1  0  0  0  0
 13 14  2  0  0  0  0
 14 15  1  0  0  0  0
 14 22  1  0  0  0  0
 15 23  1  0  0  0  0
 16 24  1  0  0  0  0
 16 15  2  0  0  0  0
 17 16  1  0  0  0  0
 18  9  1  0  0  0  0
 19 10  1  0  0  0  0
 20 11  1  0  0  0  0
 21 13  1  0  0  0  0
 25 31  1  0  0  0  0
 26 25  1  0  0  0  0
 26 32  1  0  0  0  0
 27 26  2  0  0  0  0
 28 29  2  0  0  0  0
 28 27  1  0  0  0  0
 29 30  1  0  0  0  0
 30 25  2  0  0  0  0
 34 33  1  0  0  0  0
 35 34  1  0  0  0  0
 35 27  1  0  0  0  0
 36 35  2  0  0  0  0
 37 36  1  0  0  0  0
 38 39  2  0  0  0  0
 38 36  1  0  0  0  0
 39 41  1  0  0  0  0
 40 39  1  0  0  0  0
 41 42  1  0  0  0  0
 41 34  2  0  0  0  0
M  END
>  <minimizedAffinity>
-6.36749697

$$$$
