
 OpenBabel03252507583D

 28 30  0  0  1  0  0  0  0  0999 V2000
   46.8260   32.4750   45.7520 C   0  0  1  0  0  0  0  0  0  0  0  0
   47.0550   32.8270   47.1870 C   0  0  0  0  0  0  0  0  0  0  0  0
   45.7770   32.2110   46.7880 C   0  0  2  0  0  0  0  0  0  0  0  0
   47.3430   31.6170   45.3170 H   0  0  0  0  0  0  0  0  0  0  0  0
   47.1350   33.9430   47.3400 H   0  0  0  0  0  0  0  0  0  0  0  0
   47.9130   32.3120   47.6250 H   0  0  0  0  0  0  0  0  0  0  0  0
   44.8940   32.9260   46.8400 H   0  0  0  0  0  0  0  0  0  0  0  0
   45.2010   31.4000   49.7480 Cl  0  0  0  0  0  0  0  0  0  0  0  0
   45.1850   30.2710   48.4130 C   0  0  0  0  0  0  0  0  0  0  0  0
   45.4550   30.8480   47.1980 C   0  0  0  0  0  0  0  0  0  0  0  0
   45.4440   29.9940   46.0870 C   0  0  0  0  0  0  0  0  0  0  0  0
   45.6340   30.2670   45.0360 H   0  0  0  0  0  0  0  0  0  0  0  0
   45.1730   28.6260   46.2150 C   0  0  0  0  0  0  0  0  0  0  0  0
   44.9080   28.0850   47.4530 C   0  0  0  0  0  0  0  0  0  0  0  0
   44.5540   26.3980   47.7540 Cl  0  0  0  0  0  0  0  0  0  0  0  0
   44.9200   28.9230   48.5310 C   0  0  0  0  0  0  0  0  0  0  0  0
   44.7290   28.6500   49.5800 H   0  0  0  0  0  0  0  0  0  0  0  0
   46.8730   34.7060   42.8370 C   0  0  0  0  0  0  0  0  0  0  0  0
   45.7180   35.5070   43.0230 C   0  0  0  0  0  0  0  0  0  0  0  0
   44.9350   35.2590   44.1540 C   0  0  0  0  0  0  0  0  0  0  0  0
   45.3230   34.2730   45.0010 N   0  0  0  0  0  0  0  0  0  0  0  0
   46.4450   33.5350   44.7670 C   0  0  0  0  0  0  0  0  0  0  0  0
   47.2290   33.7270   43.7070 N   0  0  0  0  0  0  0  0  0  0  0  0
   45.4520   36.2730   42.3310 H   0  0  0  0  0  0  0  0  0  0  0  0
   44.0600   35.8450   44.3200 H   0  0  0  0  0  0  0  0  0  0  0  0
   47.6400   35.0150   41.6670 C   0  0  0  0  0  0  0  0  0  0  0  0
   48.6470   35.7890   41.6410 O   0  0  0  0  0  0  0  0  0  0  0  0
   47.5570   34.6970   40.6270 H   0  0  0  0  0  0  0  0  0  0  0  0
  1  4  1  6  0  0  0
  1  3  1  0  0  0  0
  1  2  1  0  0  0  0
  2  5  1  0  0  0  0
  2  6  1  0  0  0  0
  3  7  1  6  0  0  0
  3  2  1  0  0  0  0
  3 10  1  0  0  0  0
  9 16  1  0  0  0  0
  9  8  1  0  0  0  0
 10  9  2  0  0  0  0
 11 13  2  0  0  0  0
 11 10  1  0  0  0  0
 12 11  1  0  0  0  0
 13 14  1  0  0  0  0
 14 15  1  0  0  0  0
 14 16  2  0  0  0  0
 16 17  1  0  0  0  0
 18 19  2  0  0  0  0
 18 23  1  0  0  0  0
 19 20  1  0  0  0  0
 20 25  1  0  0  0  0
 20 21  2  0  0  0  0
 22 21  1  0  0  0  0
 22  1  1  0  0  0  0
 23 22  2  0  0  0  0
 24 19  1  0  0  0  0
 26 18  1  0  0  0  0
 27 26  2  0  0  0  0
 28 26  1  0  0  0  0
M  END
>  <minimizedAffinity>
-5.26171541

>  <minimizedRMSD>
1.46170604

$$$$
