
 OpenBabel03252500363D

 47 50  0  0  1  0  0  0  0  0999 V2000
   46.0600   35.1800   42.9830 C   0  0  1  0  0  0  0  0  0  0  0  0
   44.9310   34.9250   43.7670 C   0  0  0  0  0  0  0  0  0  0  0  0
   46.1790   34.3380   44.2860 C   0  0  1  0  0  0  0  0  0  0  0  0
   46.5640   36.1850   43.0210 H   0  0  0  0  0  0  0  0  0  0  0  0
   44.4380   35.7140   44.3510 H   0  0  0  0  0  0  0  0  0  0  0  0
   44.1760   34.1660   43.4100 H   0  0  0  0  0  0  0  0  0  0  0  0
   46.8420   34.8480   45.0020 H   0  0  0  0  0  0  0  0  0  0  0  0
   45.3780   34.0600   40.8610 C   0  0  0  0  0  0  0  0  0  0  0  0
   46.4440   34.4890   41.7140 C   0  0  0  0  0  0  0  0  0  0  0  0
   47.7320   34.2590   41.3530 C   0  0  0  0  0  0  0  0  0  0  0  0
   47.9430   33.6120   40.1630 N   0  0  0  0  0  0  0  0  0  0  0  0
   46.9310   33.2110   39.3640 C   0  0  0  0  0  0  0  0  0  0  0  0
   45.6100   33.4230   39.6900 N   0  0  0  0  0  0  0  0  0  0  0  0
   44.3540   34.2580   41.1780 H   0  0  0  0  0  0  0  0  0  0  0  0
   48.5460   34.5780   41.9880 H   0  0  0  0  0  0  0  0  0  0  0  0
   48.4880   34.8540   37.3660 Cl  0  0  0  0  0  0  0  0  0  0  0  0
   47.9800   33.1860   37.1290 C   0  0  0  0  0  0  0  0  0  0  0  0
   47.2680   32.5290   38.1140 C   0  0  0  0  0  0  0  0  0  0  0  0
   46.8520   31.2300   37.9740 C   0  0  0  0  0  0  0  0  0  0  0  0
   46.2910   30.6580   38.7060 H   0  0  0  0  0  0  0  0  0  0  0  0
   47.1550   30.5500   36.7980 C   0  0  0  0  0  3  0  0  0  0  0  0
   47.8700   31.2330   35.8240 C   0  0  0  0  0  0  0  0  0  0  0  0
   48.2520   30.3880   34.3530 Cl  0  0  0  0  0  0  0  0  0  0  0  0
   48.3000   32.5430   35.9450 C   0  0  0  0  0  0  0  0  0  0  0  0
   48.8500   33.0470   35.1800 H   0  0  0  0  0  0  0  0  0  0  0  0
   46.4190   32.8770   44.1850 C   0  0  0  0  0  0  0  0  0  0  0  0
   45.9240   32.4850   43.2570 H   0  0  0  0  0  0  0  0  0  0  0  0
   47.4990   32.6120   44.1830 H   0  0  0  0  0  0  0  0  0  0  0  0
   45.8270   32.2730   45.3250 N   0  0  0  0  0  0  0  0  0  0  0  0
   45.9370   32.9350   46.5530 C   0  0  0  0  0  0  0  0  0  0  0  0
   47.1980   32.4830   47.3200 C   0  0  0  0  0  0  0  0  0  0  0  0
   46.9590   31.0520   47.7140 C   0  0  0  0  0  0  0  0  0  0  0  0
   46.8130   30.2810   46.4210 C   0  0  0  0  0  0  0  0  0  0  0  0
   45.8380   30.8790   45.4470 C   0  0  2  0  0  0  0  0  0  0  0  0
   45.1020   32.5160   47.1980 H   0  0  0  0  0  0  0  0  0  0  0  0
   45.7690   34.0070   46.6060 H   0  0  0  0  0  0  0  0  0  0  0  0
   47.2830   33.0840   48.2490 H   0  0  0  0  0  0  0  0  0  0  0  0
   48.1010   32.6090   46.6930 H   0  0  0  0  0  0  0  0  0  0  0  0
   45.9890   31.0220   48.2540 H   0  0  0  0  0  0  0  0  0  0  0  0
   47.7780   30.5950   48.2720 H   0  0  0  0  0  0  0  0  0  0  0  0
   46.4870   29.2330   46.6380 H   0  0  0  0  0  0  0  0  0  0  0  0
   47.7990   30.2130   45.9220 H   0  0  0  0  0  0  0  0  0  0  0  0
   44.8270   30.5440   45.7640 H   0  0  0  0  0  0  0  0  0  0  0  0
   46.0860   30.1880   44.1140 C   0  0  0  0  0  0  0  0  0  0  0  0
   45.9660   29.1100   44.2430 H   0  0  0  0  0  0  0  0  0  0  0  0
   45.3400   30.5770   43.3630 H   0  0  0  0  0  0  0  0  0  0  0  0
   47.1270   30.3790   43.7640 H   0  0  0  0  0  0  0  0  0  0  0  0
  1  4  1  1  0  0  0
  1  2  1  0  0  0  0
  1  3  1  0  0  0  0
  2  3  1  0  0  0  0
  2  5  1  0  0  0  0
  3  7  1  1  0  0  0
  6  2  1  0  0  0  0
  8 14  1  0  0  0  0
  8  9  1  0  0  0  0
  9  1  1  0  0  0  0
 10  9  2  0  0  0  0
 10 15  1  0  0  0  0
 11 10  1  0  0  0  0
 12 13  1  0  0  0  0
 12 11  2  0  0  0  0
 13  8  2  0  0  0  0
 17 16  1  0  0  0  0
 17 18  1  0  0  0  0
 18 12  1  0  0  0  0
 19 18  2  0  0  0  0
 19 20  1  0  0  0  0
 21 19  1  0  0  0  0
 22 24  1  0  0  0  0
 22 21  2  0  0  0  0
 23 22  1  0  0  0  0
 24 17  2  0  0  0  0
 25 24  1  0  0  0  0
 26  3  1  0  0  0  0
 26 29  1  0  0  0  0
 27 26  1  0  0  0  0
 28 26  1  0  0  0  0
 29 34  1  0  0  0  0
 29 30  1  0  0  0  0
 30 36  1  0  0  0  0
 30 35  1  0  0  0  0
 30 31  1  0  0  0  0
 31 32  1  0  0  0  0
 31 37  1  0  0  0  0
 32 39  1  0  0  0  0
 32 40  1  0  0  0  0
 33 41  1  0  0  0  0
 33 32  1  0  0  0  0
 34 43  1  1  0  0  0
 34 33  1  0  0  0  0
 38 31  1  0  0  0  0
 42 33  1  0  0  0  0
 44 45  1  0  0  0  0
 44 34  1  0  0  0  0
 46 44  1  0  0  0  0
 47 44  1  0  0  0  0
M  END
>  <minimizedAffinity>
-5.0287261

>  <minimizedRMSD>
2.38640952

$$$$
