
 OpenBabel03252509193D

 44 48  0  0  1  0  0  0  0  0999 V2000
   47.5680   27.1220   47.4260 C   0  0  1  0  0  0  0  0  0  0  0  0
   47.1340   26.1280   46.3870 C   0  0  0  0  0  0  0  0  0  0  0  0
   48.2120   25.1380   45.9970 C   0  0  0  0  0  0  0  0  0  0  0  0
   48.9270   24.5720   47.1860 C   0  0  0  0  0  0  0  0  0  0  0  0
   49.3240   25.6300   48.1660 C   0  0  0  0  0  0  0  0  0  0  0  0
   49.1050   27.0450   47.5630 C   0  0  2  0  0  0  0  0  0  0  0  0
   47.1690   26.8340   48.3990 H   0  0  0  0  0  0  0  0  0  0  0  0
   46.8230   26.6560   45.4750 H   0  0  0  0  0  0  0  0  0  0  0  0
   46.2800   25.5300   46.7670 H   0  0  0  0  0  0  0  0  0  0  0  0
   47.7020   24.3240   45.4840 H   0  0  0  0  0  0  0  0  0  0  0  0
   48.9100   25.5820   45.2380 H   0  0  0  0  0  0  0  0  0  0  0  0
   48.3200   23.7830   47.6610 H   0  0  0  0  0  0  0  0  0  0  0  0
   49.8480   24.0670   46.7780 H   0  0  0  0  0  0  0  0  0  0  0  0
   50.4100   25.5880   48.3810 H   0  0  0  0  0  0  0  0  0  0  0  0
   48.7620   25.6120   49.1080 H   0  0  0  0  0  0  0  0  0  0  0  0
   49.5660   27.0300   46.5480 H   0  0  0  0  0  0  0  0  0  0  0  0
   46.7210   30.8470   45.9510 C   0  0  0  0  0  0  0  0  0  0  0  0
   46.1240   30.6100   47.1870 C   0  0  0  0  0  0  0  0  0  0  0  0
   46.3370   29.4180   47.7570 C   0  0  0  0  0  0  0  0  0  0  0  0
   47.1420   28.4460   47.1170 C   0  0  0  0  0  0  0  0  0  0  0  0
   47.6360   29.2870   45.5730 S   0  0  0  0  0  0  0  0  0  0  0  0
   45.5120   31.3630   47.6640 H   0  0  0  0  0  0  0  0  0  0  0  0
   45.9530   29.0710   48.7030 H   0  0  0  0  0  0  0  0  0  0  0  0
   45.7570   34.1790   44.5990 C   0  0  0  0  0  0  0  0  0  0  0  0
   46.6820   34.3230   43.5680 C   0  0  0  0  0  0  0  0  0  0  0  0
   47.6090   33.2760   43.3740 C   0  0  0  0  0  0  0  0  0  0  0  0
   47.5360   32.1830   44.2140 N   0  0  0  0  0  0  0  0  0  0  0  0
   46.6180   32.1060   45.1910 C   0  0  0  0  0  0  0  0  0  0  0  0
   45.7220   33.1170   45.3800 N   0  0  0  0  0  0  0  0  0  0  0  0
   45.0360   34.9670   44.7700 H   0  0  0  0  0  0  0  0  0  0  0  0
   46.7300   35.1830   42.9160 H   0  0  0  0  0  0  0  0  0  0  0  0
   48.3640   33.2920   42.6020 H   0  0  0  0  0  0  0  0  0  0  0  0
   49.6200   28.0530   48.4450 C   0  0  1  0  0  3  0  0  0  0  0  0
   49.8490   27.8000   49.6250 O   0  0  0  0  0  0  0  0  0  0  0  0
   52.7420   28.7330   47.9740 Cl  0  0  0  0  0  0  0  0  0  0  0  0
   51.4280   29.7060   48.6800 C   0  0  0  0  0  0  0  0  0  0  0  0
   50.0920   29.2990   48.8660 C   0  0  1  0  0  0  0  0  0  0  0  0
   49.3300   30.2800   49.4470 C   0  0  0  0  0  3  0  0  0  0  0  0
   48.2980   30.1460   49.6190 H   0  0  0  0  0  0  0  0  0  0  0  0
   49.6220   31.5490   49.8720 C   0  0  0  0  0  3  0  0  0  0  0  0
   50.9440   31.8220   49.6400 C   0  0  0  0  0  0  0  0  0  0  0  0
   51.5700   33.4050   50.1020 Cl  0  0  0  0  0  0  0  0  0  0  0  0
   51.8680   30.9950   49.0750 C   0  0  0  0  0  0  0  0  0  0  0  0
   52.8960   31.2700   48.9180 H   0  0  0  0  0  0  0  0  0  0  0  0
  1  6  1  0  0  0  0
  1  7  1  1  0  0  0
  2  9  1  0  0  0  0
  2  1  1  0  0  0  0
  3  2  1  0  0  0  0
  3  4  1  0  0  0  0
  4 12  1  0  0  0  0
  4  5  1  0  0  0  0
  5 14  1  0  0  0  0
  5 15  1  0  0  0  0
  6 16  1  6  0  0  0
  6  5  1  0  0  0  0
  6 33  1  0  0  0  0
  8  2  1  0  0  0  0
 10  3  1  0  0  0  0
 11  3  1  0  0  0  0
 13  4  1  0  0  0  0
 17 18  2  0  0  0  0
 18 22  1  0  0  0  0
 18 19  1  0  0  0  0
 19 23  1  0  0  0  0
 20  1  1  0  0  0  0
 20 19  2  0  0  0  0
 21 17  1  0  0  0  0
 21 20  1  0  0  0  0
 24 30  1  0  0  0  0
 24 29  1  0  0  0  0
 25 24  2  0  0  0  0
 26 25  1  0  0  0  0
 26 27  2  0  0  0  0
 27 28  1  0  0  0  0
 28 29  2  0  0  0  0
 28 17  1  0  0  0  0
 31 25  1  0  0  0  0
 32 26  1  0  0  0  0
 33 37  1  0  0  0  0
 33 34  1  6  0  0  0
 35 36  1  0  0  0  0
 36 43  2  0  0  0  0
 37 36  1  6  0  0  0
 37 38  1  0  0  0  0
 37 34  1  0  0  0  0
 38 39  1  0  0  0  0
 38 40  1  0  0  0  0
 41 40  2  0  0  0  0
 41 42  1  0  0  0  0
 43 41  1  0  0  0  0
 44 43  1  0  0  0  0
M  END
>  <minimizedAffinity>
-4.47172022

>  <minimizedRMSD>
3.46597385

$$$$
