
 OpenBabel03252508493D

 29 31  0  0  0  0  0  0  0  0999 V2000
   44.2380   33.8030   40.7580 C   0  0  0  0  0  0  0  0  0  0  0  0
   45.3040   34.2650   41.5250 C   0  0  0  0  0  0  0  0  0  0  0  0
   46.5650   34.1780   40.9470 C   0  0  0  0  0  0  0  0  0  0  0  0
   46.6810   33.6540   39.6880 N   0  0  0  0  0  0  0  0  0  0  0  0
   45.6340   33.2240   38.9910 C   0  0  0  0  0  0  0  0  0  0  0  0
   44.3990   33.2960   39.5280 N   0  0  0  0  0  0  0  0  0  0  0  0
   47.4230   34.5280   41.5070 H   0  0  0  0  0  0  0  0  0  0  0  0
   45.7170   32.8090   37.9970 H   0  0  0  0  0  0  0  0  0  0  0  0
   45.0650   34.7990   42.8510 C   0  0  0  0  0  0  0  0  0  0  0  0
   44.9080   36.1390   43.1130 C   0  0  0  0  0  0  0  0  0  0  0  0
   44.7090   36.1800   44.4820 C   0  0  0  0  0  0  0  0  0  0  0  0
   44.7440   34.9310   45.0190 N   0  0  0  0  0  0  0  0  0  0  0  0
   44.9590   34.1260   44.0110 N   0  0  0  0  0  0  0  0  0  0  0  0
   44.9320   36.9680   42.4240 H   0  0  0  0  0  0  0  0  0  0  0  0
   44.5450   37.1100   45.0510 H   0  0  0  0  0  0  0  0  0  0  0  0
   44.6160   34.7300   46.0400 H   0  0  0  0  0  0  0  0  0  0  0  0
   42.9640   33.8700   41.2950 O   0  0  0  0  0  0  0  0  0  0  0  0
   41.9680   34.7430   40.9620 C   0  0  0  0  0  0  0  0  0  0  0  0
   41.7930   35.9310   41.4180 O   0  0  0  0  0  0  0  0  0  0  0  0
   39.7310   32.9220   41.8900 Cl  0  0  0  0  0  0  0  0  0  0  0  0
   39.8270   33.6000   40.2800 C   0  0  0  0  0  0  0  0  0  0  0  0
   40.8950   34.4170   39.9780 C   0  0  0  0  0  0  0  0  0  0  0  0
   40.8670   34.8930   38.6880 C   0  0  0  0  0  0  0  0  0  0  0  0
   41.6680   35.5470   38.3530 H   0  0  0  0  0  0  0  0  0  0  0  0
   39.8860   34.6010   37.7700 C   0  0  0  0  0  3  0  0  0  0  0  0
   38.8550   33.7790   38.1510 C   0  0  0  0  0  0  0  0  0  0  0  0
   37.6150   33.4150   36.9770 Cl  0  0  0  0  0  0  0  0  0  0  0  0
   38.8060   33.2580   39.4250 C   0  0  0  0  0  0  0  0  0  0  0  0
   37.9940   32.6110   39.7270 H   0  0  0  0  0  0  0  0  0  0  0  0
  1 17  1  0  0  0  0
  1  2  1  0  0  0  0
  2  9  1  0  0  0  0
  3  7  1  0  0  0  0
  3  2  2  0  0  0  0
  4  3  1  0  0  0  0
  5  6  1  0  0  0  0
  5  4  2  0  0  0  0
  6  1  2  0  0  0  0
  8  5  1  0  0  0  0
  9 10  1  0  0  0  0
  9 13  2  0  0  0  0
 10 11  2  0  0  0  0
 11 12  1  0  0  0  0
 11 15  1  0  0  0  0
 12 16  1  0  0  0  0
 13 12  1  0  0  0  0
 14 10  1  0  0  0  0
 18 17  1  0  0  0  0
 18 19  2  0  0  0  0
 21 20  1  0  0  0  0
 22 21  1  0  0  0  0
 22 18  1  0  0  0  0
 23 22  2  0  0  0  0
 24 23  1  0  0  0  0
 25 26  2  0  0  0  0
 25 23  1  0  0  0  0
 26 28  1  0  0  0  0
 27 26  1  0  0  0  0
 28 29  1  0  0  0  0
 28 21  2  0  0  0  0
M  END
>  <minimizedAffinity>
-6.13699389

>  <minimizedRMSD>
2.47816586

$$$$
