
 OpenBabel03252508503D

 29 31  0  0  0  0  0  0  0  0999 V2000
   45.9590   34.1920   41.0540 C   0  0  0  0  0  0  0  0  0  0  0  0
   46.5400   34.8130   42.1560 C   0  0  0  0  0  0  0  0  0  0  0  0
   47.8800   35.1630   42.0330 C   0  0  0  0  0  0  0  0  0  0  0  0
   48.5320   34.8820   40.8640 N   0  0  0  0  0  0  0  0  0  0  0  0
   47.9360   34.2850   39.8360 C   0  0  0  0  0  0  0  0  0  0  0  0
   46.6380   33.9350   39.9280 N   0  0  0  0  0  0  0  0  0  0  0  0
   48.3720   35.6490   42.8660 H   0  0  0  0  0  0  0  0  0  0  0  0
   48.4450   34.0600   38.9090 H   0  0  0  0  0  0  0  0  0  0  0  0
   45.7530   35.0600   43.3470 C   0  0  0  0  0  0  0  0  0  0  0  0
   45.0770   36.2340   43.5820 C   0  0  0  0  0  0  0  0  0  0  0  0
   44.4820   36.0240   44.8140 C   0  0  0  0  0  0  0  0  0  0  0  0
   44.7810   34.7890   45.2980 N   0  0  0  0  0  0  0  0  0  0  0  0
   45.5460   34.2370   44.3920 N   0  0  0  0  0  0  0  0  0  0  0  0
   45.0190   37.1130   42.9610 H   0  0  0  0  0  0  0  0  0  0  0  0
   43.8500   36.7690   45.3240 H   0  0  0  0  0  0  0  0  0  0  0  0
   44.4340   34.4220   46.2170 H   0  0  0  0  0  0  0  0  0  0  0  0
   44.6260   33.8260   41.1330 O   0  0  0  0  0  0  0  0  0  0  0  0
   43.5490   34.5010   40.6350 C   0  0  0  0  0  0  0  0  0  0  0  0
   43.3660   35.7730   40.6300 O   0  0  0  0  0  0  0  0  0  0  0  0
   43.9690   33.2610   37.9020 Cl  0  0  0  0  0  0  0  0  0  0  0  0
   42.4460   33.2200   38.7650 C   0  0  0  0  0  0  0  0  0  0  0  0
   42.3820   33.8200   40.0030 C   0  0  0  0  0  0  0  0  0  0  0  0
   41.1400   33.7280   40.5880 C   0  0  0  0  0  0  0  0  0  0  0  0
   40.9870   34.1710   41.5680 H   0  0  0  0  0  0  0  0  0  0  0  0
   40.0540   33.1040   40.0190 C   0  0  0  0  0  3  0  0  0  0  0  0
   40.2030   32.5300   38.7810 C   0  0  0  0  0  0  0  0  0  0  0  0
   38.8180   31.7420   38.0670 Cl  0  0  0  0  0  0  0  0  0  0  0  0
   41.4130   32.5780   38.1240 C   0  0  0  0  0  0  0  0  0  0  0  0
   41.5320   32.1250   37.1500 H   0  0  0  0  0  0  0  0  0  0  0  0
  1 17  1  0  0  0  0
  1  2  1  0  0  0  0
  2  9  1  0  0  0  0
  3  2  2  0  0  0  0
  3  7  1  0  0  0  0
  4  3  1  0  0  0  0
  5  6  1  0  0  0  0
  5  4  2  0  0  0  0
  6  1  2  0  0  0  0
  8  5  1  0  0  0  0
  9 10  1  0  0  0  0
  9 13  2  0  0  0  0
 10 11  2  0  0  0  0
 11 12  1  0  0  0  0
 11 15  1  0  0  0  0
 12 16  1  0  0  0  0
 13 12  1  0  0  0  0
 14 10  1  0  0  0  0
 18 17  1  0  0  0  0
 19 18  2  0  0  0  0
 20 21  1  0  0  0  0
 21 22  1  0  0  0  0
 22 23  2  0  0  0  0
 22 18  1  0  0  0  0
 23 24  1  0  0  0  0
 25 23  1  0  0  0  0
 26 25  2  0  0  0  0
 27 26  1  0  0  0  0
 28 21  2  0  0  0  0
 28 26  1  0  0  0  0
 29 28  1  0  0  0  0
M  END
>  <minimizedAffinity>
-5.6391449

>  <minimizedRMSD>
0.809103251

$$$$
