
 OpenBabel03252508503D

 29 31  0  0  0  0  0  0  0  0999 V2000
   45.8210   34.2070   41.0350 C   0  0  0  0  0  0  0  0  0  0  0  0
   46.4550   34.7730   42.1360 C   0  0  0  0  0  0  0  0  0  0  0  0
   47.8140   35.0350   42.0010 C   0  0  0  0  0  0  0  0  0  0  0  0
   48.4320   34.7280   40.8200 N   0  0  0  0  0  0  0  0  0  0  0  0
   47.7860   34.1860   39.7920 C   0  0  0  0  0  0  0  0  0  0  0  0
   46.4680   33.9210   39.8970 N   0  0  0  0  0  0  0  0  0  0  0  0
   48.3470   35.4780   42.8330 H   0  0  0  0  0  0  0  0  0  0  0  0
   48.2670   33.9390   38.8560 H   0  0  0  0  0  0  0  0  0  0  0  0
   45.7000   35.0550   43.3410 C   0  0  0  0  0  0  0  0  0  0  0  0
   45.0680   36.2530   43.5780 C   0  0  0  0  0  0  0  0  0  0  0  0
   44.4910   36.0740   44.8230 C   0  0  0  0  0  0  0  0  0  0  0  0
   44.7580   34.8330   45.3130 N   0  0  0  0  0  0  0  0  0  0  0  0
   45.4870   34.2490   44.3960 N   0  0  0  0  0  0  0  0  0  0  0  0
   45.0280   37.1290   42.9510 H   0  0  0  0  0  0  0  0  0  0  0  0
   43.8940   36.8430   45.3390 H   0  0  0  0  0  0  0  0  0  0  0  0
   44.4180   34.4860   46.2410 H   0  0  0  0  0  0  0  0  0  0  0  0
   44.4680   33.9280   41.1260 O   0  0  0  0  0  0  0  0  0  0  0  0
   43.4350   34.6470   40.5970 C   0  0  0  0  0  0  0  0  0  0  0  0
   43.2890   35.9240   40.6160 O   0  0  0  0  0  0  0  0  0  0  0  0
   40.6890   35.0120   41.8250 Cl  0  0  0  0  0  0  0  0  0  0  0  0
   40.9840   34.1100   40.3540 C   0  0  0  0  0  0  0  0  0  0  0  0
   42.2790   34.0170   39.8940 C   0  0  0  0  0  0  0  0  0  0  0  0
   42.3930   33.2880   38.7340 C   0  0  0  0  0  0  0  0  0  0  0  0
   43.3770   33.1560   38.2910 H   0  0  0  0  0  0  0  0  0  0  0  0
   41.3390   32.6990   38.0750 C   0  0  0  0  0  3  0  0  0  0  0  0
   40.0780   32.8390   38.6000 C   0  0  0  0  0  0  0  0  0  0  0  0
   38.7470   32.0890   37.7570 Cl  0  0  0  0  0  0  0  0  0  0  0  0
   39.8750   33.5550   39.7600 C   0  0  0  0  0  0  0  0  0  0  0  0
   38.8820   33.6660   40.1740 H   0  0  0  0  0  0  0  0  0  0  0  0
  1 17  1  0  0  0  0
  1  2  1  0  0  0  0
  2  9  1  0  0  0  0
  3  2  2  0  0  0  0
  3  7  1  0  0  0  0
  4  3  1  0  0  0  0
  5  6  1  0  0  0  0
  5  4  2  0  0  0  0
  6  1  2  0  0  0  0
  8  5  1  0  0  0  0
  9 10  1  0  0  0  0
  9 13  2  0  0  0  0
 10 11  2  0  0  0  0
 11 12  1  0  0  0  0
 11 15  1  0  0  0  0
 12 16  1  0  0  0  0
 13 12  1  0  0  0  0
 14 10  1  0  0  0  0
 18 19  2  0  0  0  0
 18 17  1  0  0  0  0
 21 20  1  0  0  0  0
 22 21  1  0  0  0  0
 22 18  1  0  0  0  0
 23 22  2  0  0  0  0
 24 23  1  0  0  0  0
 25 26  2  0  0  0  0
 25 23  1  0  0  0  0
 26 28  1  0  0  0  0
 27 26  1  0  0  0  0
 28 29  1  0  0  0  0
 28 21  2  0  0  0  0
M  END
>  <minimizedAffinity>
-5.8120904

>  <minimizedRMSD>
1.02277017

$$$$
