
 OpenBabel03242510223D

 39 42  0  0  1  0  0  0  0  0999 V2000
   48.0460   33.0900   43.3040 N   0  0  0  0  0  0  0  0  0  0  0  0
   49.1510   33.0540   42.4600 C   0  0  0  0  0  0  0  0  0  0  0  0
   50.2710   32.4920   42.6030 O   0  0  0  0  0  0  0  0  0  0  0  0
   47.6170   34.0410   43.3510 H   0  0  0  0  0  0  0  0  0  0  0  0
   46.1780   32.0150   44.5080 C   0  0  1  0  0  0  0  0  0  0  0  0
   46.3490   31.2790   43.3270 C   0  0  0  0  0  0  0  0  0  0  0  0
   47.5730   31.9540   44.0140 C   0  0  1  0  0  0  0  0  0  0  0  0
   45.9200   31.5430   45.4820 H   0  0  0  0  0  0  0  0  0  0  0  0
   46.1840   31.5590   42.2700 H   0  0  0  0  0  0  0  0  0  0  0  0
   46.2860   30.1510   43.4130 H   0  0  0  0  0  0  0  0  0  0  0  0
   48.2720   31.1700   44.3480 H   0  0  0  0  0  0  0  0  0  0  0  0
   45.0200   33.9220   43.1570 C   0  0  0  0  0  0  0  0  0  0  0  0
   45.4910   33.3870   44.4020 C   0  0  0  0  0  0  0  0  0  0  0  0
   45.3330   34.1630   45.5270 C   0  0  0  0  0  0  0  0  0  0  0  0
   44.7500   35.3780   45.4160 N   0  0  0  0  0  0  0  0  0  0  0  0
   44.3080   35.8730   44.2260 C   0  0  0  0  0  0  0  0  0  0  0  0
   44.4530   35.1090   43.0650 N   0  0  0  0  0  0  0  0  0  0  0  0
   45.1370   33.2880   42.3040 H   0  0  0  0  0  0  0  0  0  0  0  0
   45.6810   33.7780   46.4820 H   0  0  0  0  0  0  0  0  0  0  0  0
   43.8540   36.8550   44.2340 H   0  0  0  0  0  0  0  0  0  0  0  0
   49.0970   33.7740   41.1260 C   0  0  2  0  0  0  0  0  0  0  0  0
   48.5810   35.2550   41.1590 C   0  0  0  0  0  0  0  0  0  0  0  0
   47.8170   34.1430   40.5140 C   0  0  1  0  0  0  0  0  0  0  0  0
   49.9980   33.7250   40.4830 H   0  0  0  0  0  0  0  0  0  0  0  0
   49.0920   35.9990   40.5610 H   0  0  0  0  0  0  0  0  0  0  0  0
   48.2170   35.5850   42.1530 H   0  0  0  0  0  0  0  0  0  0  0  0
   46.9210   33.6540   40.9780 H   0  0  0  0  0  0  0  0  0  0  0  0
   47.7410   34.1330   39.0050 C   0  0  0  0  0  0  0  0  0  0  0  0
   48.5380   34.7940   38.3490 O   0  0  0  0  0  0  0  0  0  0  0  0
   48.7090   33.1040   36.3490 Cl  0  0  0  0  0  0  0  0  0  0  0  0
   47.1150   32.8440   37.0530 C   0  0  0  0  0  0  0  0  0  0  0  0
   46.7370   33.3520   38.2870 C   0  0  0  0  0  0  0  0  0  0  0  0
   45.4690   33.0650   38.6960 C   0  0  0  0  0  0  0  0  0  0  0  0
   45.1550   33.4410   39.6370 H   0  0  0  0  0  0  0  0  0  0  0  0
   44.5890   32.3150   37.9440 C   0  0  0  0  0  0  0  0  0  0  0  0
   44.9590   31.8080   36.7180 C   0  0  0  0  0  0  0  0  0  0  0  0
   43.8230   30.8590   35.7830 Cl  0  0  0  0  0  0  0  0  0  0  0  0
   46.2370   32.0830   36.2780 C   0  0  0  0  0  0  0  0  0  0  0  0
   46.5210   31.6880   35.3250 H   0  0  0  0  0  0  0  0  0  0  0  0
  1  4  1  0  0  0  0
  1  7  1  0  0  0  0
  2  3  2  0  0  0  0
  2  1  1  0  0  0  0
  5  8  1  1  0  0  0
  6 10  1  0  0  0  0
  6  7  1  0  0  0  0
  6  5  1  0  0  0  0
  7 11  1  1  0  0  0
  7  5  1  0  0  0  0
  9  6  1  0  0  0  0
 12 13  1  0  0  0  0
 13  5  1  0  0  0  0
 13 14  2  0  0  0  0
 14 19  1  0  0  0  0
 15 14  1  0  0  0  0
 16 20  1  0  0  0  0
 16 15  2  0  0  0  0
 17 12  2  0  0  0  0
 17 16  1  0  0  0  0
 18 12  1  0  0  0  0
 21 24  1  6  0  0  0
 21 22  1  0  0  0  0
 21  2  1  0  0  0  0
 22 26  1  0  0  0  0
 23 27  1  1  0  0  0
 23 21  1  0  0  0  0
 23 22  1  0  0  0  0
 25 22  1  0  0  0  0
 28 23  1  0  0  0  0
 29 28  2  0  0  0  0
 30 31  1  0  0  0  0
 31 32  1  0  0  0  0
 32 33  2  0  0  0  0
 32 28  1  0  0  0  0
 33 34  1  0  0  0  0
 35 33  1  0  0  0  0
 36 35  2  0  0  0  0
 37 36  1  0  0  0  0
 38 36  1  0  0  0  0
 38 31  2  0  0  0  0
 39 38  1  0  0  0  0
M  END
>  <minimizedAffinity>
-5.23166609

>  <minimizedRMSD>
0.593510687

$$$$
