
 OpenBabel03252508523D

 29 31  0  0  0  0  0  0  0  0999 V2000
   37.1170   30.2150   38.8220 C   0  0  0  0  0  0  0  0  0  0  0  0
   37.6320   31.4210   38.3560 C   0  0  0  0  0  0  0  0  0  0  0  0
   37.6260   31.6060   36.9780 C   0  0  0  0  0  0  0  0  0  0  0  0
   37.1240   30.6130   36.1800 N   0  0  0  0  0  0  0  0  0  0  0  0
   36.6420   29.4750   36.6690 C   0  0  0  0  0  0  0  0  0  0  0  0
   36.6370   29.2700   38.0010 N   0  0  0  0  0  0  0  0  0  0  0  0
   38.0160   32.5310   36.5720 H   0  0  0  0  0  0  0  0  0  0  0  0
   36.2450   28.6870   36.0460 H   0  0  0  0  0  0  0  0  0  0  0  0
   38.1400   32.4020   39.2940 C   0  0  0  0  0  0  0  0  0  0  0  0
   39.4570   32.4690   39.6850 C   0  0  0  0  0  0  0  0  0  0  0  0
   39.4780   33.5320   40.5700 C   0  0  0  0  0  0  0  0  0  0  0  0
   38.2410   34.0800   40.7080 N   0  0  0  0  0  0  0  0  0  0  0  0
   37.4620   33.3760   39.9270 N   0  0  0  0  0  0  0  0  0  0  0  0
   40.2820   31.8450   39.3790 H   0  0  0  0  0  0  0  0  0  0  0  0
   40.3870   33.8800   41.0880 H   0  0  0  0  0  0  0  0  0  0  0  0
   38.0300   34.8970   41.3290 H   0  0  0  0  0  0  0  0  0  0  0  0
   37.1050   29.9880   40.1870 O   0  0  0  0  0  0  0  0  0  0  0  0
   36.5060   28.9560   40.8520 C   0  0  0  0  0  0  0  0  0  0  0  0
   35.2510   28.8050   41.0800 O   0  0  0  0  0  0  0  0  0  0  0  0
   38.4320   29.5670   43.1110 Cl  0  0  0  0  0  0  0  0  0  0  0  0
   38.1710   27.9630   42.4630 C   0  0  0  0  0  0  0  0  0  0  0  0
   37.2670   27.8120   41.4340 C   0  0  0  0  0  0  0  0  0  0  0  0
   37.1420   26.5120   41.0050 C   0  0  0  0  0  0  0  0  0  0  0  0
   36.4520   26.2900   40.1960 H   0  0  0  0  0  0  0  0  0  0  0  0
   37.8370   25.4470   41.5300 C   0  0  0  0  0  3  0  0  0  0  0  0
   38.7190   25.6820   42.5550 C   0  0  0  0  0  0  0  0  0  0  0  0
   39.5960   24.3230   43.2140 Cl  0  0  0  0  0  0  0  0  0  0  0  0
   38.9050   26.9560   43.0450 C   0  0  0  0  0  0  0  0  0  0  0  0
   39.6000   27.1420   43.8520 H   0  0  0  0  0  0  0  0  0  0  0  0
  1 17  1  0  0  0  0
  2  1  1  0  0  0  0
  2  9  1  0  0  0  0
  3  2  2  0  0  0  0
  4  5  2  0  0  0  0
  4  3  1  0  0  0  0
  5  6  1  0  0  0  0
  6  1  2  0  0  0  0
  7  3  1  0  0  0  0
  8  5  1  0  0  0  0
  9 10  1  0  0  0  0
  9 13  2  0  0  0  0
 10 11  2  0  0  0  0
 11 12  1  0  0  0  0
 11 15  1  0  0  0  0
 12 16  1  0  0  0  0
 13 12  1  0  0  0  0
 14 10  1  0  0  0  0
 17 18  1  0  0  0  0
 18 19  2  0  0  0  0
 18 22  1  0  0  0  0
 21 28  1  0  0  0  0
 21 20  1  0  0  0  0
 22 21  2  0  0  0  0
 23 22  1  0  0  0  0
 23 25  2  0  0  0  0
 24 23  1  0  0  0  0
 25 26  1  0  0  0  0
 26 28  2  0  0  0  0
 26 27  1  0  0  0  0
 28 29  1  0  0  0  0
M  END
>  <minimizedAffinity>
-5.53293514

$$$$

 OpenBabel03252508523D

 29 31  0  0  0  0  0  0  0  0999 V2000
   36.6360   28.0530   40.2400 C   0  0  0  0  0  0  0  0  0  0  0  0
   37.0920   29.0590   39.3940 C   0  0  0  0  0  0  0  0  0  0  0  0
   37.2790   28.7100   38.0610 C   0  0  0  0  0  0  0  0  0  0  0  0
   37.0090   27.4270   37.6700 N   0  0  0  0  0  0  0  0  0  0  0  0
   36.5750   26.4960   38.5150 C   0  0  0  0  0  0  0  0  0  0  0  0
   36.3860   26.8080   39.8120 N   0  0  0  0  0  0  0  0  0  0  0  0
   37.6310   29.4620   37.3670 H   0  0  0  0  0  0  0  0  0  0  0  0
   36.3600   25.4800   38.2140 H   0  0  0  0  0  0  0  0  0  0  0  0
   37.3480   30.3860   39.9180 C   0  0  0  0  0  0  0  0  0  0  0  0
   38.5600   30.7770   40.4370 C   0  0  0  0  0  0  0  0  0  0  0  0
   38.3440   32.0920   40.8090 C   0  0  0  0  0  0  0  0  0  0  0  0
   37.0700   32.4770   40.5310 N   0  0  0  0  0  0  0  0  0  0  0  0
   36.5000   31.4270   39.9970 N   0  0  0  0  0  0  0  0  0  0  0  0
   39.4680   30.2030   40.5340 H   0  0  0  0  0  0  0  0  0  0  0  0
   39.1130   32.7330   41.2690 H   0  0  0  0  0  0  0  0  0  0  0  0
   36.6910   33.4330   40.7300 H   0  0  0  0  0  0  0  0  0  0  0  0
   36.4370   28.3570   41.5760 O   0  0  0  0  0  0  0  0  0  0  0  0
   36.8120   27.6160   42.6600 C   0  0  0  0  0  0  0  0  0  0  0  0
   36.0860   27.2970   43.6710 O   0  0  0  0  0  0  0  0  0  0  0  0
   37.1550   24.6350   42.2340 Cl  0  0  0  0  0  0  0  0  0  0  0  0
   38.4660   25.7130   42.6600 C   0  0  0  0  0  0  0  0  0  0  0  0
   38.1840   27.0520   42.8260 C   0  0  0  0  0  0  0  0  0  0  0  0
   39.2870   27.8030   43.1590 C   0  0  0  0  0  0  0  0  0  0  0  0
   39.1660   28.8720   43.3110 H   0  0  0  0  0  0  0  0  0  0  0  0
   40.5560   27.2980   43.3160 C   0  0  0  0  0  3  0  0  0  0  0  0
   40.7530   25.9520   43.1320 C   0  0  0  0  0  0  0  0  0  0  0  0
   42.3680   25.3210   43.3360 Cl  0  0  0  0  0  0  0  0  0  0  0  0
   39.7020   25.1260   42.7980 C   0  0  0  0  0  0  0  0  0  0  0  0
   39.8560   24.0660   42.6530 H   0  0  0  0  0  0  0  0  0  0  0  0
  1 17  1  0  0  0  0
  2  9  1  0  0  0  0
  2  1  2  0  0  0  0
  3  2  1  0  0  0  0
  4  3  2  0  0  0  0
  4  5  1  0  0  0  0
  5  6  2  0  0  0  0
  6  1  1  0  0  0  0
  7  3  1  0  0  0  0
  8  5  1  0  0  0  0
  9 13  2  0  0  0  0
  9 10  1  0  0  0  0
 10 14  1  0  0  0  0
 10 11  2  0  0  0  0
 11 15  1  0  0  0  0
 12 16  1  0  0  0  0
 12 11  1  0  0  0  0
 13 12  1  0  0  0  0
 17 18  1  0  0  0  0
 18 22  1  0  0  0  0
 18 19  2  0  0  0  0
 20 21  1  0  0  0  0
 21 28  2  0  0  0  0
 21 22  1  0  0  0  0
 22 23  2  0  0  0  0
 23 24  1  0  0  0  0
 23 25  1  0  0  0  0
 26 25  2  0  0  0  0
 26 27  1  0  0  0  0
 28 26  1  0  0  0  0
 29 28  1  0  0  0  0
M  END
>  <minimizedAffinity>
-5.50161362

$$$$

 OpenBabel03252508523D

 29 31  0  0  0  0  0  0  0  0999 V2000
   39.7230   31.8540   40.0620 C   0  0  0  0  0  0  0  0  0  0  0  0
   38.6330   31.5050   39.2710 C   0  0  0  0  0  0  0  0  0  0  0  0
   38.7900   31.6590   37.8980 C   0  0  0  0  0  0  0  0  0  0  0  0
   39.9810   32.1340   37.4180 N   0  0  0  0  0  0  0  0  0  0  0  0
   40.9970   32.4560   38.2130 C   0  0  0  0  0  0  0  0  0  0  0  0
   40.8710   32.3170   39.5470 N   0  0  0  0  0  0  0  0  0  0  0  0
   37.9680   31.3980   37.2440 H   0  0  0  0  0  0  0  0  0  0  0  0
   41.9400   32.8320   37.8410 H   0  0  0  0  0  0  0  0  0  0  0  0
   37.4170   31.0150   39.8880 C   0  0  0  0  0  0  0  0  0  0  0  0
   36.8190   29.8250   39.5470 C   0  0  0  0  0  0  0  0  0  0  0  0
   35.7100   29.7710   40.3740 C   0  0  0  0  0  0  0  0  0  0  0  0
   35.6410   30.8700   41.1730 N   0  0  0  0  0  0  0  0  0  0  0  0
   36.6820   31.5960   40.8540 N   0  0  0  0  0  0  0  0  0  0  0  0
   37.1310   29.1000   38.8120 H   0  0  0  0  0  0  0  0  0  0  0  0
   34.9860   28.9410   40.3750 H   0  0  0  0  0  0  0  0  0  0  0  0
   34.8820   31.0340   41.8760 H   0  0  0  0  0  0  0  0  0  0  0  0
   39.6100   31.7180   41.4350 O   0  0  0  0  0  0  0  0  0  0  0  0
   40.0170   30.6630   42.2010 C   0  0  0  0  0  0  0  0  0  0  0  0
   41.0650   30.6020   42.9420 O   0  0  0  0  0  0  0  0  0  0  0  0
   40.8060   28.4650   40.2700 Cl  0  0  0  0  0  0  0  0  0  0  0  0
   39.5310   28.3040   41.4570 C   0  0  0  0  0  0  0  0  0  0  0  0
   39.2660   29.3770   42.2810 C   0  0  0  0  0  0  0  0  0  0  0  0
   38.2470   29.1390   43.1740 C   0  0  0  0  0  0  0  0  0  0  0  0
   37.9630   29.9250   43.8680 H   0  0  0  0  0  0  0  0  0  0  0  0
   37.5460   27.9590   43.2600 C   0  0  0  0  0  3  0  0  0  0  0  0
   37.8720   26.9380   42.4020 C   0  0  0  0  0  0  0  0  0  0  0  0
   36.9740   25.4450   42.5190 Cl  0  0  0  0  0  0  0  0  0  0  0  0
   38.8800   27.0930   41.4760 C   0  0  0  0  0  0  0  0  0  0  0  0
   39.1380   26.2900   40.8000 H   0  0  0  0  0  0  0  0  0  0  0  0
  1 17  1  0  0  0  0
  2  9  1  0  0  0  0
  2  1  2  0  0  0  0
  3  2  1  0  0  0  0
  4  3  2  0  0  0  0
  4  5  1  0  0  0  0
  5  6  2  0  0  0  0
  6  1  1  0  0  0  0
  7  3  1  0  0  0  0
  8  5  1  0  0  0  0
  9 13  2  0  0  0  0
 10  9  1  0  0  0  0
 10 11  2  0  0  0  0
 11 15  1  0  0  0  0
 11 12  1  0  0  0  0
 12 16  1  0  0  0  0
 13 12  1  0  0  0  0
 14 10  1  0  0  0  0
 17 18  1  0  0  0  0
 18 22  1  0  0  0  0
 18 19  2  0  0  0  0
 20 21  1  0  0  0  0
 21 28  2  0  0  0  0
 21 22  1  0  0  0  0
 22 23  2  0  0  0  0
 23 25  1  0  0  0  0
 23 24  1  0  0  0  0
 26 27  1  0  0  0  0
 26 25  2  0  0  0  0
 28 26  1  0  0  0  0
 29 28  1  0  0  0  0
M  END
>  <minimizedAffinity>
-5.49069548

$$$$

 OpenBabel03252508523D

 29 31  0  0  0  0  0  0  0  0999 V2000
   39.8280   30.8570   40.0620 C   0  0  0  0  0  0  0  0  0  0  0  0
   38.6460   31.0370   39.3490 C   0  0  0  0  0  0  0  0  0  0  0  0
   38.7700   31.5550   38.0650 C   0  0  0  0  0  0  0  0  0  0  0  0
   40.0190   31.8500   37.5890 N   0  0  0  0  0  0  0  0  0  0  0  0
   41.1230   31.6620   38.3070 C   0  0  0  0  0  0  0  0  0  0  0  0
   41.0300   31.1620   39.5550 N   0  0  0  0  0  0  0  0  0  0  0  0
   37.8770   31.7090   37.4740 H   0  0  0  0  0  0  0  0  0  0  0  0
   42.1120   31.8930   37.9390 H   0  0  0  0  0  0  0  0  0  0  0  0
   37.3750   30.6910   39.9540 C   0  0  0  0  0  0  0  0  0  0  0  0
   36.6510   29.5730   39.6150 C   0  0  0  0  0  0  0  0  0  0  0  0
   35.5330   29.6520   40.4270 C   0  0  0  0  0  0  0  0  0  0  0  0
   35.5790   30.7580   41.2160 N   0  0  0  0  0  0  0  0  0  0  0  0
   36.6980   31.3600   40.9060 N   0  0  0  0  0  0  0  0  0  0  0  0
   36.8890   28.8110   38.8900 H   0  0  0  0  0  0  0  0  0  0  0  0
   34.7210   28.9080   40.4260 H   0  0  0  0  0  0  0  0  0  0  0  0
   34.8340   31.0140   41.9080 H   0  0  0  0  0  0  0  0  0  0  0  0
   39.7500   30.3450   41.3460 O   0  0  0  0  0  0  0  0  0  0  0  0
   40.1300   29.1030   41.7680 C   0  0  0  0  0  0  0  0  0  0  0  0
   41.2520   28.7750   42.3010 O   0  0  0  0  0  0  0  0  0  0  0  0
   37.7160   28.9700   43.5950 Cl  0  0  0  0  0  0  0  0  0  0  0  0
   38.1280   27.7250   42.4360 C   0  0  0  0  0  0  0  0  0  0  0  0
   39.2520   27.9020   41.6600 C   0  0  0  0  0  0  0  0  0  0  0  0
   39.4780   26.8640   40.7860 C   0  0  0  0  0  0  0  0  0  0  0  0
   40.3430   26.9100   40.1290 H   0  0  0  0  0  0  0  0  0  0  0  0
   38.6790   25.7500   40.6750 C   0  0  0  0  0  3  0  0  0  0  0  0
   37.5760   25.6510   41.4850 C   0  0  0  0  0  0  0  0  0  0  0  0
   36.5690   24.2320   41.3360 Cl  0  0  0  0  0  0  0  0  0  0  0  0
   37.2770   26.6470   42.3900 C   0  0  0  0  0  0  0  0  0  0  0  0
   36.4080   26.5700   43.0280 H   0  0  0  0  0  0  0  0  0  0  0  0
  1 17  1  0  0  0  0
  2  9  1  0  0  0  0
  2  1  2  0  0  0  0
  3  2  1  0  0  0  0
  4  3  2  0  0  0  0
  4  5  1  0  0  0  0
  5  6  2  0  0  0  0
  6  1  1  0  0  0  0
  7  3  1  0  0  0  0
  8  5  1  0  0  0  0
  9 13  2  0  0  0  0
 10  9  1  0  0  0  0
 10 11  2  0  0  0  0
 11 12  1  0  0  0  0
 12 16  1  0  0  0  0
 13 12  1  0  0  0  0
 14 10  1  0  0  0  0
 15 11  1  0  0  0  0
 17 18  1  0  0  0  0
 18 19  2  0  0  0  0
 21 20  1  0  0  0  0
 22 18  1  0  0  0  0
 22 21  2  0  0  0  0
 23 22  1  0  0  0  0
 24 23  1  0  0  0  0
 25 23  2  0  0  0  0
 25 26  1  0  0  0  0
 26 28  2  0  0  0  0
 27 26  1  0  0  0  0
 28 21  1  0  0  0  0
 28 29  1  0  0  0  0
M  END
>  <minimizedAffinity>
-5.32941961

$$$$

 OpenBabel03252508523D

 29 31  0  0  0  0  0  0  0  0999 V2000
   37.3140   25.6680   40.5900 C   0  0  0  0  0  0  0  0  0  0  0  0
   37.9260   25.9110   41.8160 C   0  0  0  0  0  0  0  0  0  0  0  0
   38.6890   24.8750   42.3440 C   0  0  0  0  0  0  0  0  0  0  0  0
   38.7900   23.7050   41.6420 N   0  0  0  0  0  0  0  0  0  0  0  0
   38.1870   23.5160   40.4720 C   0  0  0  0  0  0  0  0  0  0  0  0
   37.4410   24.5040   39.9380 N   0  0  0  0  0  0  0  0  0  0  0  0
   39.1840   25.0220   43.2960 H   0  0  0  0  0  0  0  0  0  0  0  0
   38.2620   22.5950   39.9120 H   0  0  0  0  0  0  0  0  0  0  0  0
   37.7470   27.1910   42.4730 C   0  0  0  0  0  0  0  0  0  0  0  0
   38.7460   28.1270   42.5980 C   0  0  0  0  0  0  0  0  0  0  0  0
   38.1350   29.1640   43.2810 C   0  0  0  0  0  0  0  0  0  0  0  0
   36.8360   28.8710   43.5550 N   0  0  0  0  0  0  0  0  0  0  0  0
   36.6360   27.6780   43.0560 N   0  0  0  0  0  0  0  0  0  0  0  0
   39.7660   28.0740   42.2500 H   0  0  0  0  0  0  0  0  0  0  0  0
   38.6460   30.0990   43.5600 H   0  0  0  0  0  0  0  0  0  0  0  0
   36.1860   29.5160   44.0650 H   0  0  0  0  0  0  0  0  0  0  0  0
   36.5440   26.6720   40.0280 O   0  0  0  0  0  0  0  0  0  0  0  0
   36.9300   27.5860   39.0900 C   0  0  0  0  0  0  0  0  0  0  0  0
   37.0670   27.3920   37.8280 O   0  0  0  0  0  0  0  0  0  0  0  0
   34.7280   29.2930   40.2830 Cl  0  0  0  0  0  0  0  0  0  0  0  0
   36.3470   29.8770   39.9670 C   0  0  0  0  0  0  0  0  0  0  0  0
   37.2620   29.0030   39.4220 C   0  0  0  0  0  0  0  0  0  0  0  0
   38.4990   29.5680   39.2170 C   0  0  0  0  0  0  0  0  0  0  0  0
   39.2900   28.9580   38.7900 H   0  0  0  0  0  0  0  0  0  0  0  0
   38.8200   30.8710   39.5160 C   0  0  0  0  0  3  0  0  0  0  0  0
   37.8500   31.6780   40.0570 C   0  0  0  0  0  0  0  0  0  0  0  0
   38.2690   33.3310   40.4330 Cl  0  0  0  0  0  0  0  0  0  0  0  0
   36.5830   31.1910   40.2950 C   0  0  0  0  0  0  0  0  0  0  0  0
   35.8190   31.8250   40.7220 H   0  0  0  0  0  0  0  0  0  0  0  0
  1  2  1  0  0  0  0
  2  3  2  0  0  0  0
  2  9  1  0  0  0  0
  3  7  1  0  0  0  0
  4  3  1  0  0  0  0
  5  4  2  0  0  0  0
  6  5  1  0  0  0  0
  6  1  2  0  0  0  0
  8  5  1  0  0  0  0
  9 10  1  0  0  0  0
  9 13  2  0  0  0  0
 10 11  2  0  0  0  0
 11 12  1  0  0  0  0
 11 15  1  0  0  0  0
 12 16  1  0  0  0  0
 13 12  1  0  0  0  0
 14 10  1  0  0  0  0
 17  1  1  0  0  0  0
 18 22  1  0  0  0  0
 18 17  1  0  0  0  0
 19 18  2  0  0  0  0
 21 20  1  0  0  0  0
 21 28  1  0  0  0  0
 22 21  2  0  0  0  0
 23 22  1  0  0  0  0
 23 25  2  0  0  0  0
 24 23  1  0  0  0  0
 25 26  1  0  0  0  0
 26 28  2  0  0  0  0
 26 27  1  0  0  0  0
 28 29  1  0  0  0  0
M  END
>  <minimizedAffinity>
-5.24324179

$$$$

 OpenBabel03252508523D

 29 31  0  0  0  0  0  0  0  0999 V2000
   37.5750   30.8890   40.8820 C   0  0  0  0  0  0  0  0  0  0  0  0
   38.9460   30.6640   40.8050 C   0  0  0  0  0  0  0  0  0  0  0  0
   39.6900   31.6080   40.1070 C   0  0  0  0  0  0  0  0  0  0  0  0
   39.0450   32.6780   39.5490 N   0  0  0  0  0  0  0  0  0  0  0  0
   37.7300   32.8520   39.6460 C   0  0  0  0  0  0  0  0  0  0  0  0
   36.9850   31.9520   40.3170 N   0  0  0  0  0  0  0  0  0  0  0  0
   40.7610   31.4730   40.0240 H   0  0  0  0  0  0  0  0  0  0  0  0
   37.2130   33.6940   39.2080 H   0  0  0  0  0  0  0  0  0  0  0  0
   39.5240   29.4920   41.4330 C   0  0  0  0  0  0  0  0  0  0  0  0
   40.0560   28.4380   40.7300 C   0  0  0  0  0  0  0  0  0  0  0  0
   40.4770   27.5680   41.7200 C   0  0  0  0  0  0  0  0  0  0  0  0
   40.2150   28.0690   42.9570 N   0  0  0  0  0  0  0  0  0  0  0  0
   39.6420   29.2260   42.7470 N   0  0  0  0  0  0  0  0  0  0  0  0
   40.1310   28.3100   39.6620 H   0  0  0  0  0  0  0  0  0  0  0  0
   40.9620   26.5980   41.5190 H   0  0  0  0  0  0  0  0  0  0  0  0
   40.4510   27.5740   43.8500 H   0  0  0  0  0  0  0  0  0  0  0  0
   36.7950   29.9730   41.5670 O   0  0  0  0  0  0  0  0  0  0  0  0
   36.0540   28.9550   41.0380 C   0  0  0  0  0  0  0  0  0  0  0  0
   34.8730   29.0350   40.5370 O   0  0  0  0  0  0  0  0  0  0  0  0
   36.5620   27.5300   43.6640 Cl  0  0  0  0  0  0  0  0  0  0  0  0
   36.8030   26.7930   42.0950 C   0  0  0  0  0  0  0  0  0  0  0  0
   36.5360   27.5450   40.9720 C   0  0  0  0  0  0  0  0  0  0  0  0
   36.7600   26.8660   39.7970 C   0  0  0  0  0  0  0  0  0  0  0  0
   36.5780   27.3750   38.8540 H   0  0  0  0  0  0  0  0  0  0  0  0
   37.2050   25.5670   39.7200 C   0  0  0  0  0  3  0  0  0  0  0  0
   37.4480   24.8870   40.8870 C   0  0  0  0  0  0  0  0  0  0  0  0
   38.0140   23.2390   40.7770 Cl  0  0  0  0  0  0  0  0  0  0  0  0
   37.2500   25.4930   42.1080 C   0  0  0  0  0  0  0  0  0  0  0  0
   37.4400   24.9580   43.0280 H   0  0  0  0  0  0  0  0  0  0  0  0
  1 17  1  0  0  0  0
  2  1  1  0  0  0  0
  2  9  1  0  0  0  0
  3  2  2  0  0  0  0
  4  5  2  0  0  0  0
  4  3  1  0  0  0  0
  5  6  1  0  0  0  0
  6  1  2  0  0  0  0
  7  3  1  0  0  0  0
  8  5  1  0  0  0  0
  9 13  2  0  0  0  0
 10  9  1  0  0  0  0
 10 11  2  0  0  0  0
 11 12  1  0  0  0  0
 12 16  1  0  0  0  0
 13 12  1  0  0  0  0
 14 10  1  0  0  0  0
 15 11  1  0  0  0  0
 18 17  1  0  0  0  0
 19 18  2  0  0  0  0
 21 28  1  0  0  0  0
 21 20  1  0  0  0  0
 22 18  1  0  0  0  0
 22 21  2  0  0  0  0
 23 22  1  0  0  0  0
 24 23  1  0  0  0  0
 25 23  2  0  0  0  0
 25 26  1  0  0  0  0
 26 28  2  0  0  0  0
 27 26  1  0  0  0  0
 28 29  1  0  0  0  0
M  END
>  <minimizedAffinity>
-5.20793724

$$$$

 OpenBabel03252508523D

 29 31  0  0  0  0  0  0  0  0999 V2000
   38.3100   31.3000   40.3330 C   0  0  0  0  0  0  0  0  0  0  0  0
   37.4170   31.6620   39.3290 C   0  0  0  0  0  0  0  0  0  0  0  0
   37.2290   33.0260   39.1310 C   0  0  0  0  0  0  0  0  0  0  0  0
   37.9160   33.9090   39.9170 N   0  0  0  0  0  0  0  0  0  0  0  0
   38.7600   33.5170   40.8680 C   0  0  0  0  0  0  0  0  0  0  0  0
   38.9610   32.2020   41.0810 N   0  0  0  0  0  0  0  0  0  0  0  0
   36.5440   33.3530   38.3580 H   0  0  0  0  0  0  0  0  0  0  0  0
   39.3060   34.2090   41.4930 H   0  0  0  0  0  0  0  0  0  0  0  0
   36.7410   30.6390   38.5570 C   0  0  0  0  0  0  0  0  0  0  0  0
   37.1680   30.2130   37.3210 C   0  0  0  0  0  0  0  0  0  0  0  0
   36.2370   29.2510   36.9710 C   0  0  0  0  0  0  0  0  0  0  0  0
   35.2960   29.1030   37.9420 N   0  0  0  0  0  0  0  0  0  0  0  0
   35.6300   29.9520   38.8800 N   0  0  0  0  0  0  0  0  0  0  0  0
   38.0230   30.5430   36.7540 H   0  0  0  0  0  0  0  0  0  0  0  0
   36.2650   28.6860   36.0250 H   0  0  0  0  0  0  0  0  0  0  0  0
   34.4970   28.4280   37.8830 H   0  0  0  0  0  0  0  0  0  0  0  0
   38.5270   29.9530   40.5650 O   0  0  0  0  0  0  0  0  0  0  0  0
   37.8980   29.1560   41.4790 C   0  0  0  0  0  0  0  0  0  0  0  0
   37.2760   29.5330   42.5380 O   0  0  0  0  0  0  0  0  0  0  0  0
   39.8860   27.5650   43.1210 Cl  0  0  0  0  0  0  0  0  0  0  0  0
   38.6990   26.8380   42.0600 C   0  0  0  0  0  0  0  0  0  0  0  0
   37.8470   27.6690   41.3660 C   0  0  0  0  0  0  0  0  0  0  0  0
   36.9580   26.9910   40.5650 C   0  0  0  0  0  0  0  0  0  0  0  0
   36.2440   27.5590   39.9760 H   0  0  0  0  0  0  0  0  0  0  0  0
   36.9000   25.6220   40.4500 C   0  0  0  0  0  3  0  0  0  0  0  0
   37.7840   24.8650   41.1770 C   0  0  0  0  0  0  0  0  0  0  0  0
   37.7030   23.1270   41.0220 Cl  0  0  0  0  0  0  0  0  0  0  0  0
   38.7090   25.4640   42.0040 C   0  0  0  0  0  0  0  0  0  0  0  0
   39.4060   24.8690   42.5770 H   0  0  0  0  0  0  0  0  0  0  0  0
  1 17  1  0  0  0  0
  1  6  1  0  0  0  0
  2  1  2  0  0  0  0
  3  2  1  0  0  0  0
  3  4  2  0  0  0  0
  4  5  1  0  0  0  0
  5  6  2  0  0  0  0
  5  8  1  0  0  0  0
  7  3  1  0  0  0  0
  9 13  2  0  0  0  0
  9  2  1  0  0  0  0
 10  9  1  0  0  0  0
 11 10  2  0  0  0  0
 11 12  1  0  0  0  0
 12 13  1  0  0  0  0
 14 10  1  0  0  0  0
 15 11  1  0  0  0  0
 16 12  1  0  0  0  0
 17 18  1  0  0  0  0
 18 19  2  0  0  0  0
 21 20  1  0  0  0  0
 22 18  1  0  0  0  0
 22 21  2  0  0  0  0
 23 22  1  0  0  0  0
 24 23  1  0  0  0  0
 25 23  2  0  0  0  0
 25 26  1  0  0  0  0
 26 28  2  0  0  0  0
 27 26  1  0  0  0  0
 28 21  1  0  0  0  0
 28 29  1  0  0  0  0
M  END
>  <minimizedAffinity>
-5.13269329

$$$$

 OpenBabel03252508523D

 29 31  0  0  0  0  0  0  0  0999 V2000
   39.0440   29.6220   42.0740 C   0  0  0  0  0  0  0  0  0  0  0  0
   39.4560   30.5070   41.0820 C   0  0  0  0  0  0  0  0  0  0  0  0
   40.8130   30.5090   40.7790 C   0  0  0  0  0  0  0  0  0  0  0  0
   41.6440   29.6610   41.4600 N   0  0  0  0  0  0  0  0  0  0  0  0
   41.2060   28.8320   42.4020 C   0  0  0  0  0  0  0  0  0  0  0  0
   39.8950   28.8090   42.7160 N   0  0  0  0  0  0  0  0  0  0  0  0
   41.1770   31.1810   40.0120 H   0  0  0  0  0  0  0  0  0  0  0  0
   41.8560   28.1590   42.9450 H   0  0  0  0  0  0  0  0  0  0  0  0
   38.4870   31.3630   40.4280 C   0  0  0  0  0  0  0  0  0  0  0  0
   37.9640   31.1060   39.1830 C   0  0  0  0  0  0  0  0  0  0  0  0
   37.1030   32.1670   38.9670 C   0  0  0  0  0  0  0  0  0  0  0  0
   37.1040   33.0210   40.0250 N   0  0  0  0  0  0  0  0  0  0  0  0
   37.9470   32.5080   40.8840 N   0  0  0  0  0  0  0  0  0  0  0  0
   38.1700   30.2770   38.5240 H   0  0  0  0  0  0  0  0  0  0  0  0
   36.5000   32.2920   38.0530 H   0  0  0  0  0  0  0  0  0  0  0  0
   36.5240   33.8930   40.0740 H   0  0  0  0  0  0  0  0  0  0  0  0
   37.7010   29.5870   42.4090 O   0  0  0  0  0  0  0  0  0  0  0  0
   36.8010   28.6010   42.1230 C   0  0  0  0  0  0  0  0  0  0  0  0
   36.3820   27.6800   42.9150 O   0  0  0  0  0  0  0  0  0  0  0  0
   38.0380   26.6270   40.1850 Cl  0  0  0  0  0  0  0  0  0  0  0  0
   36.6220   27.5880   39.8220 C   0  0  0  0  0  0  0  0  0  0  0  0
   36.1520   28.4520   40.7880 C   0  0  0  0  0  0  0  0  0  0  0  0
   35.0370   29.1540   40.3940 C   0  0  0  0  0  0  0  0  0  0  0  0
   34.5910   29.8610   41.0880 H   0  0  0  0  0  0  0  0  0  0  0  0
   34.4290   29.0280   39.1670 C   0  0  0  0  0  3  0  0  0  0  0  0
   34.9590   28.1440   38.2600 C   0  0  0  0  0  0  0  0  0  0  0  0
   34.1800   27.9930   36.7050 Cl  0  0  0  0  0  0  0  0  0  0  0  0
   36.0760   27.4010   38.5740 C   0  0  0  0  0  0  0  0  0  0  0  0
   36.4950   26.7050   37.8600 H   0  0  0  0  0  0  0  0  0  0  0  0
  1 17  1  0  0  0  0
  1  6  1  0  0  0  0
  2  1  2  0  0  0  0
  3  2  1  0  0  0  0
  3  4  2  0  0  0  0
  4  5  1  0  0  0  0
  5  6  2  0  0  0  0
  5  8  1  0  0  0  0
  7  3  1  0  0  0  0
  9 13  2  0  0  0  0
  9  2  1  0  0  0  0
 10  9  1  0  0  0  0
 11 10  2  0  0  0  0
 11 12  1  0  0  0  0
 12 16  1  0  0  0  0
 12 13  1  0  0  0  0
 14 10  1  0  0  0  0
 15 11  1  0  0  0  0
 18 17  1  0  0  0  0
 18 19  2  0  0  0  0
 21 20  1  0  0  0  0
 21 22  1  0  0  0  0
 22 18  1  0  0  0  0
 23 22  2  0  0  0  0
 23 24  1  0  0  0  0
 25 23  1  0  0  0  0
 26 28  1  0  0  0  0
 26 25  2  0  0  0  0
 27 26  1  0  0  0  0
 28 21  2  0  0  0  0
 29 28  1  0  0  0  0
M  END
>  <minimizedAffinity>
-5.0867238

$$$$

 OpenBabel03252508523D

 29 31  0  0  0  0  0  0  0  0999 V2000
   37.0980   25.9530   40.4310 C   0  0  0  0  0  0  0  0  0  0  0  0
   37.8190   26.0780   41.6150 C   0  0  0  0  0  0  0  0  0  0  0  0
   38.6140   24.9960   41.9740 C   0  0  0  0  0  0  0  0  0  0  0  0
   38.6400   23.8960   41.1600 N   0  0  0  0  0  0  0  0  0  0  0  0
   37.9340   23.8190   40.0360 C   0  0  0  0  0  0  0  0  0  0  0  0
   37.1540   24.8540   39.6650 N   0  0  0  0  0  0  0  0  0  0  0  0
   39.1920   25.0510   42.8880 H   0  0  0  0  0  0  0  0  0  0  0  0
   37.9490   22.9540   39.3880 H   0  0  0  0  0  0  0  0  0  0  0  0
   37.7130   27.2910   42.4030 C   0  0  0  0  0  0  0  0  0  0  0  0
   38.7520   28.1720   42.5840 C   0  0  0  0  0  0  0  0  0  0  0  0
   38.2060   29.1570   43.3880 C   0  0  0  0  0  0  0  0  0  0  0  0
   36.9050   28.8860   43.6780 N   0  0  0  0  0  0  0  0  0  0  0  0
   36.6420   27.7580   43.0700 N   0  0  0  0  0  0  0  0  0  0  0  0
   39.7570   28.1170   42.1960 H   0  0  0  0  0  0  0  0  0  0  0  0
   38.7630   30.0400   43.7400 H   0  0  0  0  0  0  0  0  0  0  0  0
   36.2990   29.5000   44.2720 H   0  0  0  0  0  0  0  0  0  0  0  0
   36.2930   27.0070   40.0370 O   0  0  0  0  0  0  0  0  0  0  0  0
   36.6000   27.9990   39.1500 C   0  0  0  0  0  0  0  0  0  0  0  0
   36.4930   27.9570   37.8700 O   0  0  0  0  0  0  0  0  0  0  0  0
   39.5640   28.5020   38.7710 Cl  0  0  0  0  0  0  0  0  0  0  0  0
   38.4580   29.6770   39.4470 C   0  0  0  0  0  0  0  0  0  0  0  0
   37.1300   29.3300   39.5680 C   0  0  0  0  0  0  0  0  0  0  0  0
   36.3540   30.3280   40.1100 C   0  0  0  0  0  0  0  0  0  0  0  0
   35.2910   30.1500   40.2470 H   0  0  0  0  0  0  0  0  0  0  0  0
   36.8270   31.5580   40.5010 C   0  0  0  0  0  3  0  0  0  0  0  0
   38.1650   31.8250   40.3470 C   0  0  0  0  0  0  0  0  0  0  0  0
   38.7550   33.3900   40.8470 Cl  0  0  0  0  0  0  0  0  0  0  0  0
   39.0130   30.8800   39.8120 C   0  0  0  0  0  0  0  0  0  0  0  0
   40.0670   31.0900   39.6890 H   0  0  0  0  0  0  0  0  0  0  0  0
  1  2  1  0  0  0  0
  2  3  2  0  0  0  0
  2  9  1  0  0  0  0
  3  7  1  0  0  0  0
  4  3  1  0  0  0  0
  5  4  2  0  0  0  0
  6  5  1  0  0  0  0
  6  1  2  0  0  0  0
  8  5  1  0  0  0  0
  9 10  1  0  0  0  0
  9 13  2  0  0  0  0
 10 11  2  0  0  0  0
 11 12  1  0  0  0  0
 11 15  1  0  0  0  0
 12 16  1  0  0  0  0
 13 12  1  0  0  0  0
 14 10  1  0  0  0  0
 17  1  1  0  0  0  0
 18 22  1  0  0  0  0
 18 17  1  0  0  0  0
 19 18  2  0  0  0  0
 20 21  1  0  0  0  0
 21 22  2  0  0  0  0
 21 28  1  0  0  0  0
 22 23  1  0  0  0  0
 23 24  1  0  0  0  0
 23 25  2  0  0  0  0
 26 25  1  0  0  0  0
 26 27  1  0  0  0  0
 28 26  2  0  0  0  0
 29 28  1  0  0  0  0
M  END
>  <minimizedAffinity>
-5.06096268

$$$$
