
 OpenBabel03252503583D

 35 38  0  0  1  0  0  0  0  0999 V2000
   46.5830   34.9630   42.7380 C   0  0  0  0  0  0  0  0  0  0  0  0
   45.7230   36.0740   42.7990 C   0  0  0  0  0  0  0  0  0  0  0  0
   44.8230   36.1580   43.8710 C   0  0  0  0  0  0  0  0  0  0  0  0
   44.8380   35.1550   44.7900 N   0  0  0  0  0  0  0  0  0  0  0  0
   45.6810   34.0980   44.7010 C   0  0  0  0  0  0  0  0  0  0  0  0
   46.5550   34.0050   43.6710 N   0  0  0  0  0  0  0  0  0  0  0  0
   45.7180   36.8730   42.0600 H   0  0  0  0  0  0  0  0  0  0  0  0
   44.1390   36.9640   43.9930 H   0  0  0  0  0  0  0  0  0  0  0  0
   46.0120   31.7540   45.2820 C   0  0  0  0  0  0  0  0  0  0  0  0
   45.6820   33.0290   45.6990 C   0  0  0  0  0  0  0  0  0  0  0  0
   45.3730   33.2500   47.0250 C   0  0  0  0  0  0  0  0  0  0  0  0
   45.3960   32.2120   47.9280 C   0  0  0  0  0  0  0  0  0  0  0  0
   45.1530   32.1090   49.2420 N   0  0  0  0  0  0  0  0  0  0  0  0
   45.3220   30.8400   49.6450 C   0  0  0  0  0  0  0  0  0  0  0  0
   45.6850   30.0680   48.5770 C   0  0  0  0  0  0  0  0  0  0  0  0
   45.7310   30.9260   47.5040 C   0  0  0  0  0  0  0  0  0  0  0  0
   46.0420   30.6990   46.1680 C   0  0  0  0  0  0  0  0  0  0  0  0
   46.2610   31.4520   44.2900 H   0  0  0  0  0  0  0  0  0  0  0  0
   45.1160   34.2280   47.3640 H   0  0  0  0  0  0  0  0  0  0  0  0
   44.8740   32.9620   49.8080 H   0  0  0  0  0  0  0  0  0  0  0  0
   45.1630   30.5980   50.6820 H   0  0  0  0  0  0  0  0  0  0  0  0
   45.8830   28.9950   48.6310 H   0  0  0  0  0  0  0  0  0  0  0  0
   46.2960   29.6730   45.8920 H   0  0  0  0  0  0  0  0  0  0  0  0
   47.4510   34.9710   41.5980 C   0  0  2  0  0  0  0  0  0  0  0  0
   48.5810   35.6040   41.5600 O   0  0  0  0  0  0  0  0  0  0  0  0
   45.1470   33.0450   40.9260 Cl  0  0  0  0  0  0  0  0  0  0  0  0
   46.3930   33.5100   39.8240 C   0  0  0  0  0  0  0  0  0  0  0  0
   47.3690   34.3550   40.2610 C   0  0  0  0  0  0  0  0  0  0  0  0
   48.3180   34.6290   39.2630 C   0  0  0  0  0  0  0  0  0  0  0  0
   49.1490   35.3050   39.5210 H   0  0  0  0  0  0  0  0  0  0  0  0
   48.3140   34.1310   37.9800 C   0  0  0  0  0  0  0  0  0  0  0  0
   47.2820   33.2850   37.6400 C   0  0  0  0  0  0  0  0  0  0  0  0
   47.2640   32.6470   36.0190 Cl  0  0  0  0  0  0  0  0  0  0  0  0
   46.3250   32.9750   38.5580 C   0  0  0  0  0  0  0  0  0  0  0  0
   45.5280   32.3080   38.2630 H   0  0  0  0  0  0  0  0  0  0  0  0
  1  2  2  0  0  0  0
  1  6  1  0  0  0  0
  2  3  1  0  0  0  0
  3  8  1  0  0  0  0
  3  4  2  0  0  0  0
  5  4  1  0  0  0  0
  5 10  1  0  0  0  0
  6  5  2  0  0  0  0
  7  2  1  0  0  0  0
  9 10  2  0  0  0  0
  9 17  1  0  0  0  0
 10 11  1  0  0  0  0
 11 19  1  0  0  0  0
 11 12  2  0  0  0  0
 12 13  1  0  0  0  0
 13 14  1  0  0  0  0
 13 20  1  0  0  0  0
 14 21  1  0  0  0  0
 15 22  1  0  0  0  0
 15 14  2  0  0  0  0
 16 12  1  0  0  0  0
 16 15  1  0  0  0  0
 17 16  2  0  0  0  0
 18  9  1  0  0  0  0
 23 17  1  0  0  0  0
 24 25  1  6  0  0  0
 24  1  1  0  0  0  0
 27 28  1  0  0  0  0
 27 26  1  0  0  0  0
 28 24  1  0  0  0  0
 29 30  1  0  0  0  0
 29 28  2  0  0  0  0
 31 29  1  0  0  0  0
 32 31  2  0  0  0  0
 32 34  1  0  0  0  0
 33 32  1  0  0  0  0
 34 27  2  0  0  0  0
 35 34  1  0  0  0  0
M  END
>  <minimizedAffinity>
-6.70341969

>  <minimizedRMSD>
0.82195437

$$$$
