
 OpenBabel03252503313D

 42 44  0  0  1  0  0  0  0  0999 V2000
   45.6310   33.7480   41.8660 C   0  0  0  0  0  0  0  0  0  0  0  0
   46.6790   34.5130   41.2790 C   0  0  0  0  0  0  0  0  0  0  0  0
   47.7930   34.7730   42.0950 C   0  0  0  0  0  0  0  0  0  0  0  0
   47.7820   34.2830   43.3550 N   0  0  0  0  0  0  0  0  0  0  0  0
   46.7620   33.5620   43.8630 C   0  0  0  0  0  0  0  0  0  0  0  0
   45.6790   33.2960   43.1050 N   0  0  0  0  0  0  0  0  0  0  0  0
   44.7180   32.4300   40.1490 C   0  0  0  0  0  0  0  0  0  0  0  0
   45.9020   31.9580   40.0590 O   0  0  0  0  0  0  0  0  0  0  0  0
   44.4600   33.4420   41.0950 N   0  0  0  0  0  0  0  0  0  0  0  0
   43.7380   31.8920   39.2820 N   0  0  0  0  0  0  0  0  0  0  0  0
   44.1580   31.0990   38.1100 C   0  0  0  0  0  0  0  0  0  0  0  0
   43.0710   31.3910   37.1240 C   0  0  0  0  0  0  0  0  0  0  0  0
   42.0610   32.2350   37.8490 C   0  0  0  0  0  0  0  0  0  0  0  0
   42.3070   31.9300   39.3060 C   0  0  1  0  0  0  0  0  0  0  0  0
   46.5170   34.8230   40.2580 H   0  0  0  0  0  0  0  0  0  0  0  0
   46.8290   33.2000   44.8950 H   0  0  0  0  0  0  0  0  0  0  0  0
   43.5060   33.8460   41.1420 H   0  0  0  0  0  0  0  0  0  0  0  0
   45.1610   31.3440   37.7650 H   0  0  0  0  0  0  0  0  0  0  0  0
   44.0340   30.0380   38.4340 H   0  0  0  0  0  0  0  0  0  0  0  0
   43.5560   31.9310   36.2710 H   0  0  0  0  0  0  0  0  0  0  0  0
   42.6280   30.4840   36.6640 H   0  0  0  0  0  0  0  0  0  0  0  0
   42.5500   33.2710   37.7830 H   0  0  0  0  0  0  0  0  0  0  0  0
   41.1200   32.4030   37.4410 H   0  0  0  0  0  0  0  0  0  0  0  0
   41.8840   32.7650   39.8530 H   0  0  0  0  0  0  0  0  0  0  0  0
   40.5710   30.4530   40.5080 C   0  0  0  0  0  0  0  0  0  0  0  0
   39.8840   31.5000   40.4570 O   0  0  0  0  0  0  0  0  0  0  0  0
   41.7970   30.6420   39.7540 N   0  0  0  0  0  0  0  0  0  0  0  0
   42.3750   29.7790   39.5060 H   0  0  0  0  0  0  0  0  0  0  0  0
   40.6900   30.3120   43.5530 Cl  0  0  0  0  0  0  0  0  0  0  0  0
   40.4250   28.9280   42.5080 C   0  0  0  0  0  0  0  0  0  0  0  0
   40.3950   29.1390   41.1450 C   0  0  0  0  0  0  0  0  0  0  0  0
   40.1860   28.0630   40.2950 C   0  0  0  0  0  0  0  0  0  0  0  0
   40.1580   28.1970   39.2270 H   0  0  0  0  0  0  0  0  0  0  0  0
   40.0070   26.7830   40.7530 C   0  0  0  0  0  3  0  0  0  0  0  0
   40.0380   26.5780   42.1140 C   0  0  0  0  0  0  0  0  0  0  0  0
   39.8220   24.9930   42.8090 Cl  0  0  0  0  0  0  0  0  0  0  0  0
   40.2440   27.6290   42.9990 C   0  0  0  0  0  0  0  0  0  0  0  0
   40.2820   27.5540   44.0790 H   0  0  0  0  0  0  0  0  0  0  0  0
   48.8490   35.5620   41.4600 C   0  0  0  0  0  0  0  0  0  0  0  0
   50.0840   34.9960   41.7980 F   0  0  0  0  0  0  0  0  0  0  0  0
   48.8440   36.8160   42.0710 F   0  0  0  0  0  0  0  0  0  0  0  0
   48.7590   35.6110   40.1080 F   0  0  0  0  0  0  0  0  0  0  0  0
  1  6  1  0  0  0  0
  2  1  2  0  0  0  0
  2  3  1  0  0  0  0
  3  4  2  0  0  0  0
  4  5  1  0  0  0  0
  5 16  1  0  0  0  0
  6  5  2  0  0  0  0
  7  9  1  0  0  0  0
  8  7  2  0  0  0  0
  9 17  1  0  0  0  0
  9  1  1  0  0  0  0
 10 14  1  0  0  0  0
 10  7  1  0  0  0  0
 11 19  1  0  0  0  0
 11 10  1  0  0  0  0
 12 13  1  0  0  0  0
 12 11  1  0  0  0  0
 13 14  1  0  0  0  0
 14 27  1  0  0  0  0
 14 24  1  1  0  0  0
 15  2  1  0  0  0  0
 18 11  1  0  0  0  0
 20 12  1  0  0  0  0
 21 12  1  0  0  0  0
 22 13  1  0  0  0  0
 23 13  1  0  0  0  0
 25 31  1  0  0  0  0
 26 25  2  0  0  0  0
 27 25  1  0  0  0  0
 28 27  1  0  0  0  0
 30 37  1  0  0  0  0
 30 29  1  0  0  0  0
 31 30  2  0  0  0  0
 32 34  2  0  0  0  0
 32 31  1  0  0  0  0
 33 32  1  0  0  0  0
 34 35  1  0  0  0  0
 35 36  1  0  0  0  0
 35 37  2  0  0  0  0
 37 38  1  0  0  0  0
 39 40  1  0  0  0  0
 39 41  1  0  0  0  0
 39  3  1  0  0  0  0
 42 39  1  0  0  0  0
M  END
>  <minimizedAffinity>
-5.28864193

>  <minimizedRMSD>
2.98221588

$$$$
