
 OpenBabel03252503333D

 42 44  0  0  1  0  0  0  0  0999 V2000
   39.5410   31.6480   41.1160 C   0  0  0  0  0  0  0  0  0  0  0  0
   39.6510   32.9030   40.4520 C   0  0  0  0  0  0  0  0  0  0  0  0
   40.9130   33.5200   40.4920 C   0  0  0  0  0  0  0  0  0  0  0  0
   41.9080   32.8820   41.1470 N   0  0  0  0  0  0  0  0  0  0  0  0
   41.7510   31.6920   41.7610 C   0  0  0  0  0  0  0  0  0  0  0  0
   40.5520   31.0740   41.7410 N   0  0  0  0  0  0  0  0  0  0  0  0
   38.0220   30.3590   39.8710 C   0  0  0  0  0  0  0  0  0  0  0  0
   38.8600   30.5260   38.9200 O   0  0  0  0  0  0  0  0  0  0  0  0
   38.2840   30.9560   41.1200 N   0  0  0  0  0  0  0  0  0  0  0  0
   36.8780   29.5740   39.5950 N   0  0  0  0  0  0  0  0  0  0  0  0
   36.5150   29.2800   38.1950 C   0  0  0  0  0  0  0  0  0  0  0  0
   35.0240   29.1810   38.2690 C   0  0  0  0  0  0  0  0  0  0  0  0
   34.6650   29.3130   39.7210 C   0  0  0  0  0  0  0  0  0  0  0  0
   35.9290   28.9250   40.4490 C   0  0  1  0  0  0  0  0  0  0  0  0
   38.7500   33.2630   39.9790 H   0  0  0  0  0  0  0  0  0  0  0  0
   42.6080   31.2390   42.2720 H   0  0  0  0  0  0  0  0  0  0  0  0
   37.5850   30.8460   41.8780 H   0  0  0  0  0  0  0  0  0  0  0  0
   36.8860   30.0230   37.4920 H   0  0  0  0  0  0  0  0  0  0  0  0
   36.9060   28.2490   38.0170 H   0  0  0  0  0  0  0  0  0  0  0  0
   34.6210   30.0190   37.6440 H   0  0  0  0  0  0  0  0  0  0  0  0
   34.6120   28.2630   37.8020 H   0  0  0  0  0  0  0  0  0  0  0  0
   34.7060   30.4520   39.8580 H   0  0  0  0  0  0  0  0  0  0  0  0
   33.7080   29.0820   40.0540 H   0  0  0  0  0  0  0  0  0  0  0  0
   35.8390   29.3570   41.4390 H   0  0  0  0  0  0  0  0  0  0  0  0
   36.9490   26.8140   41.5170 C   0  0  0  0  0  0  0  0  0  0  0  0
   37.0630   27.5690   42.5110 O   0  0  0  0  0  0  0  0  0  0  0  0
   36.2010   27.4950   40.4760 N   0  0  0  0  0  0  0  0  0  0  0  0
   35.8190   26.9130   39.6660 H   0  0  0  0  0  0  0  0  0  0  0  0
   39.7070   25.9570   42.5000 Cl  0  0  0  0  0  0  0  0  0  0  0  0
   38.6160   24.9280   41.5900 C   0  0  0  0  0  0  0  0  0  0  0  0
   37.3970   25.4480   41.2080 C   0  0  0  0  0  0  0  0  0  0  0  0
   36.5150   24.6560   40.4880 C   0  0  0  0  0  0  0  0  0  0  0  0
   35.5570   25.0340   40.1770 H   0  0  0  0  0  0  0  0  0  0  0  0
   36.8040   23.3630   40.1330 C   0  0  0  0  0  3  0  0  0  0  0  0
   38.0220   22.8490   40.5150 C   0  0  0  0  0  0  0  0  0  0  0  0
   38.4950   21.2180   40.1180 Cl  0  0  0  0  0  0  0  0  0  0  0  0
   38.9340   23.6090   41.2380 C   0  0  0  0  0  0  0  0  0  0  0  0
   39.9090   23.2820   41.5760 H   0  0  0  0  0  0  0  0  0  0  0  0
   40.9890   34.8070   39.8010 C   0  0  0  0  0  0  0  0  0  0  0  0
   41.8060   35.6610   40.5520 F   0  0  0  0  0  0  0  0  0  0  0  0
   39.7180   35.3770   39.8580 F   0  0  0  0  0  0  0  0  0  0  0  0
   41.4970   34.7260   38.5460 F   0  0  0  0  0  0  0  0  0  0  0  0
  1  9  1  0  0  0  0
  1  6  1  0  0  0  0
  2  3  1  0  0  0  0
  2  1  2  0  0  0  0
  3  4  2  0  0  0  0
  4  5  1  0  0  0  0
  5 16  1  0  0  0  0
  6  5  2  0  0  0  0
  7  9  1  0  0  0  0
  8  7  2  0  0  0  0
  9 17  1  0  0  0  0
 10  7  1  0  0  0  0
 10 14  1  0  0  0  0
 11 12  1  0  0  0  0
 11 10  1  0  0  0  0
 12 13  1  0  0  0  0
 13 22  1  0  0  0  0
 13 23  1  0  0  0  0
 13 14  1  0  0  0  0
 14 27  1  0  0  0  0
 14 24  1  1  0  0  0
 15  2  1  0  0  0  0
 18 11  1  0  0  0  0
 19 11  1  0  0  0  0
 20 12  1  0  0  0  0
 21 12  1  0  0  0  0
 25 26  2  0  0  0  0
 27 25  1  0  0  0  0
 28 27  1  0  0  0  0
 30 29  1  0  0  0  0
 31 25  1  0  0  0  0
 31 30  2  0  0  0  0
 32 31  1  0  0  0  0
 33 32  1  0  0  0  0
 34 32  2  0  0  0  0
 34 35  1  0  0  0  0
 35 37  2  0  0  0  0
 36 35  1  0  0  0  0
 37 38  1  0  0  0  0
 37 30  1  0  0  0  0
 39 41  1  0  0  0  0
 39  3  1  0  0  0  0
 39 40  1  0  0  0  0
 42 39  1  0  0  0  0
M  END
>  <minimizedAffinity>
-6.5843792

$$$$

 OpenBabel03252503333D

 42 44  0  0  1  0  0  0  0  0999 V2000
   39.4310   27.1460   40.6750 C   0  0  0  0  0  0  0  0  0  0  0  0
   38.2890   26.2970   40.6650 C   0  0  0  0  0  0  0  0  0  0  0  0
   38.3830   25.1170   41.4220 C   0  0  0  0  0  0  0  0  0  0  0  0
   39.5350   24.8840   42.0900 N   0  0  0  0  0  0  0  0  0  0  0  0
   40.5900   25.7230   42.0650 C   0  0  0  0  0  0  0  0  0  0  0  0
   40.5310   26.8640   41.3480 N   0  0  0  0  0  0  0  0  0  0  0  0
   38.6320   29.3520   40.5660 C   0  0  0  0  0  0  0  0  0  0  0  0
   38.0310   29.0500   41.6540 O   0  0  0  0  0  0  0  0  0  0  0  0
   39.4120   28.3690   39.9250 N   0  0  0  0  0  0  0  0  0  0  0  0
   38.4680   30.6710   40.0810 N   0  0  0  0  0  0  0  0  0  0  0  0
   37.3810   31.5150   40.6150 C   0  0  0  0  0  0  0  0  0  0  0  0
   37.0440   32.3780   39.4400 C   0  0  0  0  0  0  0  0  0  0  0  0
   38.0400   32.0360   38.3680 C   0  0  0  0  0  0  0  0  0  0  0  0
   39.2030   31.4420   39.1240 C   0  0  1  0  0  0  0  0  0  0  0  0
   37.4540   26.6410   40.0740 H   0  0  0  0  0  0  0  0  0  0  0  0
   41.4900   25.4640   42.6340 H   0  0  0  0  0  0  0  0  0  0  0  0
   39.8690   28.6090   39.0260 H   0  0  0  0  0  0  0  0  0  0  0  0
   36.5460   30.9380   41.0080 H   0  0  0  0  0  0  0  0  0  0  0  0
   37.8800   32.1670   41.3710 H   0  0  0  0  0  0  0  0  0  0  0  0
   35.9920   32.1230   39.1530 H   0  0  0  0  0  0  0  0  0  0  0  0
   37.0140   33.4620   39.6740 H   0  0  0  0  0  0  0  0  0  0  0  0
   37.5800   31.0780   37.9350 H   0  0  0  0  0  0  0  0  0  0  0  0
   38.1400   32.6380   37.5270 H   0  0  0  0  0  0  0  0  0  0  0  0
   39.7530   30.8560   38.3960 H   0  0  0  0  0  0  0  0  0  0  0  0
   41.4450   32.6360   39.5520 C   0  0  0  0  0  0  0  0  0  0  0  0
   41.7530   32.1040   38.4600 O   0  0  0  0  0  0  0  0  0  0  0  0
   40.0370   32.4100   39.8210 N   0  0  0  0  0  0  0  0  0  0  0  0
   39.5690   32.9920   40.5840 H   0  0  0  0  0  0  0  0  0  0  0  0
   41.0510   35.6610   39.6190 Cl  0  0  0  0  0  0  0  0  0  0  0  0
   42.1030   34.7750   40.7080 C   0  0  0  0  0  0  0  0  0  0  0  0
   42.1850   33.4060   40.5630 C   0  0  0  0  0  0  0  0  0  0  0  0
   43.0090   32.6800   41.4110 C   0  0  0  0  0  0  0  0  0  0  0  0
   43.0940   31.6110   41.3220 H   0  0  0  0  0  0  0  0  0  0  0  0
   43.7560   33.2700   42.3980 C   0  0  0  0  0  3  0  0  0  0  0  0
   43.6710   34.6370   42.5390 C   0  0  0  0  0  0  0  0  0  0  0  0
   44.5760   35.4920   43.7600 Cl  0  0  0  0  0  0  0  0  0  0  0  0
   42.8570   35.4000   41.7100 C   0  0  0  0  0  0  0  0  0  0  0  0
   42.7330   36.4750   41.7530 H   0  0  0  0  0  0  0  0  0  0  0  0
   37.1910   24.2680   41.3890 C   0  0  0  0  0  0  0  0  0  0  0  0
   36.3900   24.6770   40.3170 F   0  0  0  0  0  0  0  0  0  0  0  0
   36.4490   24.5630   42.5320 F   0  0  0  0  0  0  0  0  0  0  0  0
   37.4630   22.9480   41.2380 F   0  0  0  0  0  0  0  0  0  0  0  0
  1  6  1  0  0  0  0
  2  1  2  0  0  0  0
  2  3  1  0  0  0  0
  3  4  2  0  0  0  0
  5  4  1  0  0  0  0
  5 16  1  0  0  0  0
  6  5  2  0  0  0  0
  7  8  2  0  0  0  0
  9  7  1  0  0  0  0
  9  1  1  0  0  0  0
 10  7  1  0  0  0  0
 10 11  1  0  0  0  0
 11 18  1  0  0  0  0
 11 19  1  0  0  0  0
 12 21  1  0  0  0  0
 12 11  1  0  0  0  0
 13 14  1  0  0  0  0
 13 12  1  0  0  0  0
 14 24  1  6  0  0  0
 14 27  1  0  0  0  0
 14 10  1  0  0  0  0
 15  2  1  0  0  0  0
 17  9  1  0  0  0  0
 20 12  1  0  0  0  0
 22 13  1  0  0  0  0
 23 13  1  0  0  0  0
 25 27  1  0  0  0  0
 25 31  1  0  0  0  0
 26 25  2  0  0  0  0
 27 28  1  0  0  0  0
 29 30  1  0  0  0  0
 30 37  1  0  0  0  0
 31 30  2  0  0  0  0
 31 32  1  0  0  0  0
 32 34  2  0  0  0  0
 33 32  1  0  0  0  0
 34 35  1  0  0  0  0
 35 36  1  0  0  0  0
 37 38  1  0  0  0  0
 37 35  2  0  0  0  0
 39  3  1  0  0  0  0
 39 41  1  0  0  0  0
 40 39  1  0  0  0  0
 42 39  1  0  0  0  0
M  END
>  <minimizedAffinity>
-6.53295851

$$$$

 OpenBabel03252503333D

 42 44  0  0  1  0  0  0  0  0999 V2000
   42.0950   31.8300   42.4220 C   0  0  0  0  0  0  0  0  0  0  0  0
   42.5740   33.0870   41.9530 C   0  0  0  0  0  0  0  0  0  0  0  0
   43.9600   33.2960   42.0400 C   0  0  0  0  0  0  0  0  0  0  0  0
   44.7190   32.3030   42.5550 N   0  0  0  0  0  0  0  0  0  0  0  0
   44.2140   31.1290   42.9850 C   0  0  0  0  0  0  0  0  0  0  0  0
   42.8880   30.8970   42.9160 N   0  0  0  0  0  0  0  0  0  0  0  0
   40.2780   31.2490   41.0520 C   0  0  0  0  0  0  0  0  0  0  0  0
   41.1370   31.3110   40.1070 O   0  0  0  0  0  0  0  0  0  0  0  0
   40.6900   31.5420   42.3670 N   0  0  0  0  0  0  0  0  0  0  0  0
   38.9570   30.8830   40.7020 N   0  0  0  0  0  0  0  0  0  0  0  0
   38.5370   30.9290   39.2870 C   0  0  0  0  0  0  0  0  0  0  0  0
   37.0820   31.2570   39.4000 C   0  0  0  0  0  0  0  0  0  0  0  0
   36.7630   31.2600   40.8670 C   0  0  0  0  0  0  0  0  0  0  0  0
   37.8510   30.4130   41.4810 C   0  0  1  0  0  0  0  0  0  0  0  0
   41.8220   33.7630   41.5730 H   0  0  0  0  0  0  0  0  0  0  0  0
   44.8960   30.3730   43.3900 H   0  0  0  0  0  0  0  0  0  0  0  0
   39.9820   31.5230   43.1240 H   0  0  0  0  0  0  0  0  0  0  0  0
   39.1170   31.6320   38.6920 H   0  0  0  0  0  0  0  0  0  0  0  0
   38.6110   29.8700   38.9410 H   0  0  0  0  0  0  0  0  0  0  0  0
   36.9480   32.2620   38.9240 H   0  0  0  0  0  0  0  0  0  0  0  0
   36.4240   30.5830   38.8140 H   0  0  0  0  0  0  0  0  0  0  0  0
   37.1340   32.3020   41.1730 H   0  0  0  0  0  0  0  0  0  0  0  0
   35.7770   31.2670   41.1960 H   0  0  0  0  0  0  0  0  0  0  0  0
   37.8810   30.6930   42.5280 H   0  0  0  0  0  0  0  0  0  0  0  0
   37.5760   28.0020   42.3480 C   0  0  0  0  0  0  0  0  0  0  0  0
   37.3360   28.5900   43.4280 O   0  0  0  0  0  0  0  0  0  0  0  0
   37.6930   28.9800   41.2810 N   0  0  0  0  0  0  0  0  0  0  0  0
   37.6620   28.6310   40.2720 H   0  0  0  0  0  0  0  0  0  0  0  0
   39.6460   26.3540   43.8660 Cl  0  0  0  0  0  0  0  0  0  0  0  0
   38.6500   25.7340   42.5610 C   0  0  0  0  0  0  0  0  0  0  0  0
   37.7530   26.5940   41.9620 C   0  0  0  0  0  0  0  0  0  0  0  0
   36.9530   26.1310   40.9290 C   0  0  0  0  0  0  0  0  0  0  0  0
   36.2440   26.7780   40.4420 H   0  0  0  0  0  0  0  0  0  0  0  0
   37.0140   24.8400   40.4690 C   0  0  0  0  0  3  0  0  0  0  0  0
   37.9110   23.9860   41.0690 C   0  0  0  0  0  0  0  0  0  0  0  0
   38.0740   22.3240   40.5660 Cl  0  0  0  0  0  0  0  0  0  0  0  0
   38.7310   24.4110   42.1080 C   0  0  0  0  0  0  0  0  0  0  0  0
   39.4590   23.8060   42.6330 H   0  0  0  0  0  0  0  0  0  0  0  0
   44.4170   34.5970   41.5500 C   0  0  0  0  0  0  0  0  0  0  0  0
   43.3670   35.5120   41.6870 F   0  0  0  0  0  0  0  0  0  0  0  0
   44.6120   34.4690   40.1750 F   0  0  0  0  0  0  0  0  0  0  0  0
   45.4950   35.0840   42.2120 F   0  0  0  0  0  0  0  0  0  0  0  0
  1  6  1  0  0  0  0
  2  3  1  0  0  0  0
  2  1  2  0  0  0  0
  3  4  2  0  0  0  0
  4  5  1  0  0  0  0
  5 16  1  0  0  0  0
  6  5  2  0  0  0  0
  7  9  1  0  0  0  0
  8  7  2  0  0  0  0
  9  1  1  0  0  0  0
  9 17  1  0  0  0  0
 10  7  1  0  0  0  0
 10 14  1  0  0  0  0
 11 12  1  0  0  0  0
 11 10  1  0  0  0  0
 12 13  1  0  0  0  0
 13 22  1  0  0  0  0
 13 23  1  0  0  0  0
 13 14  1  0  0  0  0
 14 24  1  1  0  0  0
 15  2  1  0  0  0  0
 18 11  1  0  0  0  0
 19 11  1  0  0  0  0
 20 12  1  0  0  0  0
 21 12  1  0  0  0  0
 25 26  2  0  0  0  0
 27 14  1  0  0  0  0
 27 25  1  0  0  0  0
 28 27  1  0  0  0  0
 30 29  1  0  0  0  0
 31 25  1  0  0  0  0
 31 30  2  0  0  0  0
 32 31  1  0  0  0  0
 33 32  1  0  0  0  0
 34 32  2  0  0  0  0
 34 35  1  0  0  0  0
 35 37  2  0  0  0  0
 36 35  1  0  0  0  0
 37 30  1  0  0  0  0
 37 38  1  0  0  0  0
 39 40  1  0  0  0  0
 39  3  1  0  0  0  0
 39 42  1  0  0  0  0
 41 39  1  0  0  0  0
M  END
>  <minimizedAffinity>
-6.52687263

$$$$

 OpenBabel03252503333D

 42 44  0  0  1  0  0  0  0  0999 V2000
   40.3420   31.0200   39.8590 C   0  0  0  0  0  0  0  0  0  0  0  0
   40.4960   32.3010   40.4610 C   0  0  0  0  0  0  0  0  0  0  0  0
   40.6850   33.3830   39.5840 C   0  0  0  0  0  0  0  0  0  0  0  0
   40.7050   33.1240   38.2570 N   0  0  0  0  0  0  0  0  0  0  0  0
   40.5540   31.8890   37.7380 C   0  0  0  0  0  0  0  0  0  0  0  0
   40.3710   30.8310   38.5530 N   0  0  0  0  0  0  0  0  0  0  0  0
   38.8340   29.8220   41.2050 C   0  0  0  0  0  0  0  0  0  0  0  0
   38.0300   30.7770   40.9280 O   0  0  0  0  0  0  0  0  0  0  0  0
   40.1450   29.8660   40.6890 N   0  0  0  0  0  0  0  0  0  0  0  0
   38.3400   28.7750   42.0180 N   0  0  0  0  0  0  0  0  0  0  0  0
   37.0940   28.9720   42.7830 C   0  0  0  0  0  0  0  0  0  0  0  0
   37.3240   28.1150   43.9890 C   0  0  0  0  0  0  0  0  0  0  0  0
   38.6310   27.4110   43.7610 C   0  0  0  0  0  0  0  0  0  0  0  0
   38.8100   27.4440   42.2630 C   0  0  1  0  0  0  0  0  0  0  0  0
   40.4530   32.3210   41.5390 H   0  0  0  0  0  0  0  0  0  0  0  0
   40.5820   31.7620   36.6500 H   0  0  0  0  0  0  0  0  0  0  0  0
   40.8030   29.1070   40.9440 H   0  0  0  0  0  0  0  0  0  0  0  0
   36.8880   30.0180   43.0030 H   0  0  0  0  0  0  0  0  0  0  0  0
   36.3070   28.4720   42.1680 H   0  0  0  0  0  0  0  0  0  0  0  0
   37.3520   28.8090   44.8680 H   0  0  0  0  0  0  0  0  0  0  0  0
   36.4890   27.4190   44.2100 H   0  0  0  0  0  0  0  0  0  0  0  0
   39.3790   28.2280   44.0620 H   0  0  0  0  0  0  0  0  0  0  0  0
   38.9150   26.6130   44.3620 H   0  0  0  0  0  0  0  0  0  0  0  0
   39.8700   27.2990   42.0930 H   0  0  0  0  0  0  0  0  0  0  0  0
   38.2750   26.0000   40.1970 C   0  0  0  0  0  0  0  0  0  0  0  0
   39.4630   26.2670   39.9040 O   0  0  0  0  0  0  0  0  0  0  0  0
   37.9820   26.4970   41.5290 N   0  0  0  0  0  0  0  0  0  0  0  0
   37.0970   26.1490   42.0150 H   0  0  0  0  0  0  0  0  0  0  0  0
   37.7520   23.0700   40.8670 Cl  0  0  0  0  0  0  0  0  0  0  0  0
   36.8250   24.0000   39.7040 C   0  0  0  0  0  0  0  0  0  0  0  0
   37.1730   25.3190   39.5000 C   0  0  0  0  0  0  0  0  0  0  0  0
   36.4570   26.0790   38.5870 C   0  0  0  0  0  0  0  0  0  0  0  0
   36.7050   27.1100   38.4060 H   0  0  0  0  0  0  0  0  0  0  0  0
   35.4050   25.5700   37.8670 C   0  0  0  0  0  3  0  0  0  0  0  0
   35.0620   24.2530   38.0740 C   0  0  0  0  0  0  0  0  0  0  0  0
   33.7430   23.5030   37.2150 Cl  0  0  0  0  0  0  0  0  0  0  0  0
   35.7540   23.4590   38.9810 C   0  0  0  0  0  0  0  0  0  0  0  0
   35.5500   22.4190   39.2020 H   0  0  0  0  0  0  0  0  0  0  0  0
   40.8410   34.6830   40.2360 C   0  0  0  0  0  0  0  0  0  0  0  0
   39.6210   35.0260   40.8300 F   0  0  0  0  0  0  0  0  0  0  0  0
   41.0310   35.6250   39.2250 F   0  0  0  0  0  0  0  0  0  0  0  0
   41.8020   34.7050   41.1920 F   0  0  0  0  0  0  0  0  0  0  0  0
  1  2  1  0  0  0  0
  1  9  1  0  0  0  0
  2 15  1  0  0  0  0
  3 39  1  0  0  0  0
  3  2  2  0  0  0  0
  4  3  1  0  0  0  0
  5  4  2  0  0  0  0
  5  6  1  0  0  0  0
  6  1  2  0  0  0  0
  7 10  1  0  0  0  0
  8  7  2  0  0  0  0
  9 17  1  0  0  0  0
  9  7  1  0  0  0  0
 10 14  1  0  0  0  0
 10 11  1  0  0  0  0
 11 18  1  0  0  0  0
 11 12  1  0  0  0  0
 12 21  1  0  0  0  0
 12 20  1  0  0  0  0
 13 12  1  0  0  0  0
 13 22  1  0  0  0  0
 13 23  1  0  0  0  0
 14 24  1  6  0  0  0
 14 13  1  0  0  0  0
 16  5  1  0  0  0  0
 19 11  1  0  0  0  0
 25 27  1  0  0  0  0
 26 25  2  0  0  0  0
 27 28  1  0  0  0  0
 27 14  1  0  0  0  0
 30 29  1  0  0  0  0
 31 30  1  0  0  0  0
 31 25  1  0  0  0  0
 32 31  2  0  0  0  0
 33 32  1  0  0  0  0
 34 35  2  0  0  0  0
 34 32  1  0  0  0  0
 35 37  1  0  0  0  0
 36 35  1  0  0  0  0
 37 38  1  0  0  0  0
 37 30  2  0  0  0  0
 39 40  1  0  0  0  0
 39 42  1  0  0  0  0
 41 39  1  0  0  0  0
M  END
>  <minimizedAffinity>
-6.33895063

$$$$

 OpenBabel03252503333D

 42 44  0  0  1  0  0  0  0  0999 V2000
   40.3400   31.0790   40.3720 C   0  0  0  0  0  0  0  0  0  0  0  0
   40.0560   32.3890   40.8520 C   0  0  0  0  0  0  0  0  0  0  0  0
   40.2510   33.4420   39.9430 C   0  0  0  0  0  0  0  0  0  0  0  0
   40.6880   33.1320   38.7010 N   0  0  0  0  0  0  0  0  0  0  0  0
   40.9420   31.8710   38.2960 C   0  0  0  0  0  0  0  0  0  0  0  0
   40.7640   30.8390   39.1460 N   0  0  0  0  0  0  0  0  0  0  0  0
   38.8010   29.6360   41.4060 C   0  0  0  0  0  0  0  0  0  0  0  0
   37.9250   30.3690   40.8310 O   0  0  0  0  0  0  0  0  0  0  0  0
   40.1640   29.9520   41.2430 N   0  0  0  0  0  0  0  0  0  0  0  0
   38.3290   28.5440   42.1720 N   0  0  0  0  0  0  0  0  0  0  0  0
   36.9080   28.4890   42.5660 C   0  0  0  0  0  0  0  0  0  0  0  0
   36.9700   27.7660   43.8750 C   0  0  0  0  0  0  0  0  0  0  0  0
   38.4050   27.3670   44.0670 C   0  0  0  0  0  0  0  0  0  0  0  0
   38.9770   27.3680   42.6710 C   0  0  1  0  0  0  0  0  0  0  0  0
   39.7150   32.4500   41.8750 H   0  0  0  0  0  0  0  0  0  0  0  0
   41.2940   31.7020   37.2720 H   0  0  0  0  0  0  0  0  0  0  0  0
   40.8690   29.3750   41.7390 H   0  0  0  0  0  0  0  0  0  0  0  0
   36.4390   29.4700   42.6120 H   0  0  0  0  0  0  0  0  0  0  0  0
   36.4410   27.7950   41.8270 H   0  0  0  0  0  0  0  0  0  0  0  0
   36.6120   28.4890   44.6510 H   0  0  0  0  0  0  0  0  0  0  0  0
   36.2680   26.9100   43.9470 H   0  0  0  0  0  0  0  0  0  0  0  0
   38.8570   28.3460   44.4620 H   0  0  0  0  0  0  0  0  0  0  0  0
   38.6710   26.6840   44.8040 H   0  0  0  0  0  0  0  0  0  0  0  0
   40.0500   27.4590   42.7960 H   0  0  0  0  0  0  0  0  0  0  0  0
   39.3610   24.9960   41.7430 C   0  0  0  0  0  0  0  0  0  0  0  0
   40.2160   24.9510   42.6570 O   0  0  0  0  0  0  0  0  0  0  0  0
   38.5960   26.2240   41.8550 N   0  0  0  0  0  0  0  0  0  0  0  0
   37.6860   26.3040   41.3020 H   0  0  0  0  0  0  0  0  0  0  0  0
   41.1170   25.0150   39.2470 Cl  0  0  0  0  0  0  0  0  0  0  0  0
   39.6970   24.0050   39.4510 C   0  0  0  0  0  0  0  0  0  0  0  0
   38.9950   24.1000   40.6350 C   0  0  0  0  0  0  0  0  0  0  0  0
   37.8680   23.3130   40.8230 C   0  0  0  0  0  0  0  0  0  0  0  0
   37.3000   23.3660   41.7350 H   0  0  0  0  0  0  0  0  0  0  0  0
   37.4140   22.4350   39.8720 C   0  0  0  0  0  3  0  0  0  0  0  0
   38.1180   22.3440   38.6930 C   0  0  0  0  0  0  0  0  0  0  0  0
   37.6310   21.2600   37.4160 Cl  0  0  0  0  0  0  0  0  0  0  0  0
   39.2520   23.1140   38.4660 C   0  0  0  0  0  0  0  0  0  0  0  0
   39.8600   23.1040   37.5700 H   0  0  0  0  0  0  0  0  0  0  0  0
   39.9510   34.7740   40.4690 C   0  0  0  0  0  0  0  0  0  0  0  0
   39.8350   35.6570   39.3900 F   0  0  0  0  0  0  0  0  0  0  0  0
   41.0800   35.1990   41.1680 F   0  0  0  0  0  0  0  0  0  0  0  0
   38.8060   34.8310   41.1920 F   0  0  0  0  0  0  0  0  0  0  0  0
  1  2  1  0  0  0  0
  1  9  1  0  0  0  0
  2 15  1  0  0  0  0
  3 39  1  0  0  0  0
  3  2  2  0  0  0  0
  4  3  1  0  0  0  0
  5  4  2  0  0  0  0
  5  6  1  0  0  0  0
  6  1  2  0  0  0  0
  7 10  1  0  0  0  0
  8  7  2  0  0  0  0
  9  7  1  0  0  0  0
  9 17  1  0  0  0  0
 10 11  1  0  0  0  0
 10 14  1  0  0  0  0
 11 18  1  0  0  0  0
 11 12  1  0  0  0  0
 12 21  1  0  0  0  0
 12 13  1  0  0  0  0
 12 20  1  0  0  0  0
 13 22  1  0  0  0  0
 13 23  1  0  0  0  0
 14 24  1  1  0  0  0
 14 13  1  0  0  0  0
 16  5  1  0  0  0  0
 19 11  1  0  0  0  0
 25 27  1  0  0  0  0
 25 26  2  0  0  0  0
 27 14  1  0  0  0  0
 28 27  1  0  0  0  0
 29 30  1  0  0  0  0
 30 31  1  0  0  0  0
 31 32  2  0  0  0  0
 31 25  1  0  0  0  0
 32 33  1  0  0  0  0
 34 32  1  0  0  0  0
 35 34  2  0  0  0  0
 36 35  1  0  0  0  0
 37 35  1  0  0  0  0
 37 30  2  0  0  0  0
 38 37  1  0  0  0  0
 39 41  1  0  0  0  0
 39 42  1  0  0  0  0
 40 39  1  0  0  0  0
M  END
>  <minimizedAffinity>
-6.29208899

$$$$

 OpenBabel03252503333D

 42 44  0  0  1  0  0  0  0  0999 V2000
   37.2900   24.7500   39.1980 C   0  0  0  0  0  0  0  0  0  0  0  0
   37.6500   23.4240   39.5730 C   0  0  0  0  0  0  0  0  0  0  0  0
   38.1600   22.6050   38.5520 C   0  0  0  0  0  0  0  0  0  0  0  0
   38.2660   23.1320   37.3120 N   0  0  0  0  0  0  0  0  0  0  0  0
   37.9100   24.3970   37.0090 C   0  0  0  0  0  0  0  0  0  0  0  0
   37.4170   25.2080   37.9670 N   0  0  0  0  0  0  0  0  0  0  0  0
   37.7750   26.1250   41.0390 C   0  0  0  0  0  0  0  0  0  0  0  0
   38.9710   25.7010   40.8770 O   0  0  0  0  0  0  0  0  0  0  0  0
   36.7620   25.6470   40.1860 N   0  0  0  0  0  0  0  0  0  0  0  0
   37.5570   27.0600   42.0790 N   0  0  0  0  0  0  0  0  0  0  0  0
   38.5830   27.2430   43.1240 C   0  0  0  0  0  0  0  0  0  0  0  0
   37.7570   27.6100   44.3170 C   0  0  0  0  0  0  0  0  0  0  0  0
   36.3400   27.7190   43.8300 C   0  0  0  0  0  0  0  0  0  0  0  0
   36.4790   27.9640   42.3480 C   0  0  1  0  0  0  0  0  0  0  0  0
   37.4970   23.1730   40.6120 H   0  0  0  0  0  0  0  0  0  0  0  0
   38.0260   24.7500   35.9780 H   0  0  0  0  0  0  0  0  0  0  0  0
   35.7890   25.9680   40.3430 H   0  0  0  0  0  0  0  0  0  0  0  0
   39.2130   26.3670   43.2610 H   0  0  0  0  0  0  0  0  0  0  0  0
   39.1380   28.1590   42.8120 H   0  0  0  0  0  0  0  0  0  0  0  0
   37.8980   26.7870   45.0630 H   0  0  0  0  0  0  0  0  0  0  0  0
   38.1080   28.5230   44.8400 H   0  0  0  0  0  0  0  0  0  0  0  0
   36.0250   26.6150   43.8150 H   0  0  0  0  0  0  0  0  0  0  0  0
   35.6070   28.1530   44.4250 H   0  0  0  0  0  0  0  0  0  0  0  0
   35.5270   27.6770   41.9150 H   0  0  0  0  0  0  0  0  0  0  0  0
   37.0810   29.7880   40.6310 C   0  0  0  0  0  0  0  0  0  0  0  0
   36.5790   28.9690   39.8260 O   0  0  0  0  0  0  0  0  0  0  0  0
   36.8810   29.3170   41.9880 N   0  0  0  0  0  0  0  0  0  0  0  0
   37.0380   30.0050   42.7900 H   0  0  0  0  0  0  0  0  0  0  0  0
   40.0640   29.8440   41.2680 Cl  0  0  0  0  0  0  0  0  0  0  0  0
   39.1380   31.2360   40.7370 C   0  0  0  0  0  0  0  0  0  0  0  0
   37.7930   31.0660   40.4840 C   0  0  0  0  0  0  0  0  0  0  0  0
   37.0380   32.1500   40.0620 C   0  0  0  0  0  0  0  0  0  0  0  0
   35.9860   32.0490   39.8570 H   0  0  0  0  0  0  0  0  0  0  0  0
   37.5750   33.4000   39.8840 C   0  0  0  0  0  3  0  0  0  0  0  0
   38.9170   33.5650   40.1380 C   0  0  0  0  0  0  0  0  0  0  0  0
   39.7050   35.1090   39.9440 Cl  0  0  0  0  0  0  0  0  0  0  0  0
   39.7090   32.5040   40.5620 C   0  0  0  0  0  0  0  0  0  0  0  0
   40.7680   32.5480   40.7820 H   0  0  0  0  0  0  0  0  0  0  0  0
   38.5190   21.2500   38.9730 C   0  0  0  0  0  0  0  0  0  0  0  0
   38.4470   21.1900   40.3690 F   0  0  0  0  0  0  0  0  0  0  0  0
   39.8690   21.0740   38.6700 F   0  0  0  0  0  0  0  0  0  0  0  0
   37.7140   20.2860   38.4620 F   0  0  0  0  0  0  0  0  0  0  0  0
  1  2  1  0  0  0  0
  1  9  1  0  0  0  0
  2 15  1  0  0  0  0
  3 39  1  0  0  0  0
  3  2  2  0  0  0  0
  4  3  1  0  0  0  0
  5  4  2  0  0  0  0
  5  6  1  0  0  0  0
  6  1  2  0  0  0  0
  7 10  1  0  0  0  0
  8  7  2  0  0  0  0
  9 17  1  0  0  0  0
  9  7  1  0  0  0  0
 10 14  1  0  0  0  0
 10 11  1  0  0  0  0
 11 18  1  0  0  0  0
 11 12  1  0  0  0  0
 12 21  1  0  0  0  0
 12 20  1  0  0  0  0
 13 12  1  0  0  0  0
 13 23  1  0  0  0  0
 14 24  1  6  0  0  0
 14 13  1  0  0  0  0
 16  5  1  0  0  0  0
 19 11  1  0  0  0  0
 22 13  1  0  0  0  0
 25 27  1  0  0  0  0
 26 25  2  0  0  0  0
 27 14  1  0  0  0  0
 27 28  1  0  0  0  0
 30 29  1  0  0  0  0
 31 25  1  0  0  0  0
 31 30  2  0  0  0  0
 32 31  1  0  0  0  0
 33 32  1  0  0  0  0
 34 32  2  0  0  0  0
 34 35  1  0  0  0  0
 35 37  2  0  0  0  0
 36 35  1  0  0  0  0
 37 30  1  0  0  0  0
 37 38  1  0  0  0  0
 39 40  1  0  0  0  0
 41 39  1  0  0  0  0
 42 39  1  0  0  0  0
M  END
>  <minimizedAffinity>
-6.14297438

$$$$

 OpenBabel03252503333D

 42 44  0  0  1  0  0  0  0  0999 V2000
   39.8790   31.6000   41.1490 C   0  0  0  0  0  0  0  0  0  0  0  0
   39.9310   32.9110   40.5960 C   0  0  0  0  0  0  0  0  0  0  0  0
   41.1780   33.5560   40.6380 C   0  0  0  0  0  0  0  0  0  0  0  0
   42.2160   32.8900   41.1930 N   0  0  0  0  0  0  0  0  0  0  0  0
   42.1130   31.6470   41.7040 C   0  0  0  0  0  0  0  0  0  0  0  0
   40.9290   31.0010   41.6780 N   0  0  0  0  0  0  0  0  0  0  0  0
   38.3380   30.3860   39.8570 C   0  0  0  0  0  0  0  0  0  0  0  0
   39.1300   30.6580   38.8910 O   0  0  0  0  0  0  0  0  0  0  0  0
   38.6390   30.8770   41.1420 N   0  0  0  0  0  0  0  0  0  0  0  0
   37.2010   29.5980   39.5590 N   0  0  0  0  0  0  0  0  0  0  0  0
   36.7860   29.4180   38.1540 C   0  0  0  0  0  0  0  0  0  0  0  0
   35.3010   29.2740   38.2800 C   0  0  0  0  0  0  0  0  0  0  0  0
   35.0020   29.2670   39.7520 C   0  0  0  0  0  0  0  0  0  0  0  0
   36.3050   28.8500   40.3890 C   0  0  1  0  0  0  0  0  0  0  0  0
   39.0020   33.2880   40.1940 H   0  0  0  0  0  0  0  0  0  0  0  0
   43.0010   31.1740   42.1370 H   0  0  0  0  0  0  0  0  0  0  0  0
   37.9760   30.6820   41.9150 H   0  0  0  0  0  0  0  0  0  0  0  0
   37.1090   30.2300   37.5060 H   0  0  0  0  0  0  0  0  0  0  0  0
   37.1920   28.4180   37.8690 H   0  0  0  0  0  0  0  0  0  0  0  0
   34.8530   30.1520   37.7490 H   0  0  0  0  0  0  0  0  0  0  0  0
   34.8910   28.3890   37.7500 H   0  0  0  0  0  0  0  0  0  0  0  0
   35.0230   30.3910   39.9870 H   0  0  0  0  0  0  0  0  0  0  0  0
   34.0670   28.9820   40.1020 H   0  0  0  0  0  0  0  0  0  0  0  0
   36.2480   29.1910   41.4170 H   0  0  0  0  0  0  0  0  0  0  0  0
   37.7690   26.7860   40.8690 C   0  0  0  0  0  0  0  0  0  0  0  0
   38.2880   27.5500   41.7150 O   0  0  0  0  0  0  0  0  0  0  0  0
   36.6120   27.4320   40.2780 N   0  0  0  0  0  0  0  0  0  0  0  0
   35.9290   26.8310   39.7180 H   0  0  0  0  0  0  0  0  0  0  0  0
   36.5740   24.4110   42.3670 Cl  0  0  0  0  0  0  0  0  0  0  0  0
   37.6100   24.2740   40.9580 C   0  0  0  0  0  0  0  0  0  0  0  0
   38.0800   25.4340   40.3800 C   0  0  0  0  0  0  0  0  0  0  0  0
   38.9000   25.3540   39.2640 C   0  0  0  0  0  0  0  0  0  0  0  0
   39.2830   26.2420   38.7910 H   0  0  0  0  0  0  0  0  0  0  0  0
   39.2700   24.1580   38.7030 C   0  0  0  0  0  3  0  0  0  0  0  0
   38.7990   23.0030   39.2840 C   0  0  0  0  0  0  0  0  0  0  0  0
   39.2050   21.4280   38.6550 Cl  0  0  0  0  0  0  0  0  0  0  0  0
   37.9740   23.0400   40.4020 C   0  0  0  0  0  0  0  0  0  0  0  0
   37.5620   22.1820   40.9180 H   0  0  0  0  0  0  0  0  0  0  0  0
   41.1960   34.9010   40.0620 C   0  0  0  0  0  0  0  0  0  0  0  0
   41.7810   34.8280   38.7930 F   0  0  0  0  0  0  0  0  0  0  0  0
   42.0800   35.6610   40.8280 F   0  0  0  0  0  0  0  0  0  0  0  0
   39.9660   35.4570   39.9330 F   0  0  0  0  0  0  0  0  0  0  0  0
  1  6  1  0  0  0  0
  2  3  1  0  0  0  0
  2  1  2  0  0  0  0
  3  4  2  0  0  0  0
  4  5  1  0  0  0  0
  5 16  1  0  0  0  0
  6  5  2  0  0  0  0
  7  9  1  0  0  0  0
  8  7  2  0  0  0  0
  9  1  1  0  0  0  0
  9 17  1  0  0  0  0
 10  7  1  0  0  0  0
 10 14  1  0  0  0  0
 11 12  1  0  0  0  0
 11 10  1  0  0  0  0
 12 13  1  0  0  0  0
 13 22  1  0  0  0  0
 13 23  1  0  0  0  0
 13 14  1  0  0  0  0
 14 24  1  1  0  0  0
 15  2  1  0  0  0  0
 18 11  1  0  0  0  0
 19 11  1  0  0  0  0
 20 12  1  0  0  0  0
 21 12  1  0  0  0  0
 25 26  2  0  0  0  0
 27 14  1  0  0  0  0
 27 25  1  0  0  0  0
 28 27  1  0  0  0  0
 30 29  1  0  0  0  0
 31 25  1  0  0  0  0
 31 30  2  0  0  0  0
 32 31  1  0  0  0  0
 33 32  1  0  0  0  0
 34 32  2  0  0  0  0
 34 35  1  0  0  0  0
 35 37  2  0  0  0  0
 36 35  1  0  0  0  0
 37 38  1  0  0  0  0
 37 30  1  0  0  0  0
 39  3  1  0  0  0  0
 39 41  1  0  0  0  0
 40 39  1  0  0  0  0
 42 39  1  0  0  0  0
M  END
>  <minimizedAffinity>
-5.98511267

$$$$

 OpenBabel03252503333D

 42 44  0  0  1  0  0  0  0  0999 V2000
   37.5410   31.1630   40.4250 C   0  0  0  0  0  0  0  0  0  0  0  0
   37.6160   32.5460   40.0960 C   0  0  0  0  0  0  0  0  0  0  0  0
   38.7090   33.2540   40.6220 C   0  0  0  0  0  0  0  0  0  0  0  0
   39.5910   32.5750   41.3890 N   0  0  0  0  0  0  0  0  0  0  0  0
   39.4740   31.2610   41.6720 C   0  0  0  0  0  0  0  0  0  0  0  0
   38.4360   30.5540   41.1810 N   0  0  0  0  0  0  0  0  0  0  0  0
   36.6190   30.0760   38.5580 C   0  0  0  0  0  0  0  0  0  0  0  0
   37.6360   30.5490   37.9440 O   0  0  0  0  0  0  0  0  0  0  0  0
   36.4520   30.3730   39.9250 N   0  0  0  0  0  0  0  0  0  0  0  0
   35.7250   29.2750   37.8090 N   0  0  0  0  0  0  0  0  0  0  0  0
   35.7870   29.2960   36.3340 C   0  0  0  0  0  0  0  0  0  0  0  0
   34.3620   29.0400   35.9550 C   0  0  0  0  0  0  0  0  0  0  0  0
   33.6250   28.7790   37.2380 C   0  0  0  0  0  0  0  0  0  0  0  0
   34.7050   28.3490   38.2000 C   0  0  1  0  0  0  0  0  0  0  0  0
   36.8210   32.9230   39.4690 H   0  0  0  0  0  0  0  0  0  0  0  0
   40.2320   30.7830   42.3020 H   0  0  0  0  0  0  0  0  0  0  0  0
   35.6090   30.0160   40.4100 H   0  0  0  0  0  0  0  0  0  0  0  0
   36.2020   30.2200   35.9370 H   0  0  0  0  0  0  0  0  0  0  0  0
   36.3700   28.3830   36.0670 H   0  0  0  0  0  0  0  0  0  0  0  0
   34.0050   29.9610   35.4280 H   0  0  0  0  0  0  0  0  0  0  0  0
   34.2360   28.2270   35.2100 H   0  0  0  0  0  0  0  0  0  0  0  0
   33.4470   29.8500   37.6130 H   0  0  0  0  0  0  0  0  0  0  0  0
   32.6650   28.3830   37.2270 H   0  0  0  0  0  0  0  0  0  0  0  0
   34.2950   28.5170   39.1900 H   0  0  0  0  0  0  0  0  0  0  0  0
   36.1650   26.3300   38.8530 C   0  0  0  0  0  0  0  0  0  0  0  0
   36.3060   26.9790   39.9150 O   0  0  0  0  0  0  0  0  0  0  0  0
   35.1860   26.9890   38.0080 N   0  0  0  0  0  0  0  0  0  0  0  0
   34.7840   26.4440   37.1820 H   0  0  0  0  0  0  0  0  0  0  0  0
   36.1320   23.8410   40.6170 Cl  0  0  0  0  0  0  0  0  0  0  0  0
   36.8150   23.9010   39.0030 C   0  0  0  0  0  0  0  0  0  0  0  0
   36.7620   25.0960   38.3170 C   0  0  0  0  0  0  0  0  0  0  0  0
   37.2940   25.1720   37.0390 C   0  0  0  0  0  0  0  0  0  0  0  0
   37.2670   26.0910   36.4790 H   0  0  0  0  0  0  0  0  0  0  0  0
   37.8810   24.0990   36.4180 C   0  0  0  0  0  3  0  0  0  0  0  0
   37.9330   22.9080   37.1070 C   0  0  0  0  0  0  0  0  0  0  0  0
   38.6550   21.4790   36.4150 Cl  0  0  0  0  0  0  0  0  0  0  0  0
   37.4100   22.7910   38.3890 C   0  0  0  0  0  0  0  0  0  0  0  0
   37.4090   21.8940   38.9970 H   0  0  0  0  0  0  0  0  0  0  0  0
   38.7540   34.6720   40.2650 C   0  0  0  0  0  0  0  0  0  0  0  0
   39.8980   34.8930   39.4880 F   0  0  0  0  0  0  0  0  0  0  0  0
   38.9720   35.3830   41.4450 F   0  0  0  0  0  0  0  0  0  0  0  0
   37.6740   35.0940   39.5630 F   0  0  0  0  0  0  0  0  0  0  0  0
  1  6  1  0  0  0  0
  2  1  2  0  0  0  0
  2  3  1  0  0  0  0
  3  4  2  0  0  0  0
  4  5  1  0  0  0  0
  5 16  1  0  0  0  0
  6  5  2  0  0  0  0
  7  9  1  0  0  0  0
  8  7  2  0  0  0  0
  9 17  1  0  0  0  0
  9  1  1  0  0  0  0
 10 14  1  0  0  0  0
 10  7  1  0  0  0  0
 11 10  1  0  0  0  0
 12 11  1  0  0  0  0
 12 13  1  0  0  0  0
 13 22  1  0  0  0  0
 13 14  1  0  0  0  0
 14 24  1  1  0  0  0
 15  2  1  0  0  0  0
 18 11  1  0  0  0  0
 19 11  1  0  0  0  0
 20 12  1  0  0  0  0
 21 12  1  0  0  0  0
 23 13  1  0  0  0  0
 25 26  2  0  0  0  0
 27 14  1  0  0  0  0
 27 25  1  0  0  0  0
 28 27  1  0  0  0  0
 30 29  1  0  0  0  0
 31 25  1  0  0  0  0
 31 30  2  0  0  0  0
 32 31  1  0  0  0  0
 33 32  1  0  0  0  0
 34 32  2  0  0  0  0
 34 35  1  0  0  0  0
 35 37  2  0  0  0  0
 36 35  1  0  0  0  0
 37 38  1  0  0  0  0
 37 30  1  0  0  0  0
 39  3  1  0  0  0  0
 39 41  1  0  0  0  0
 40 39  1  0  0  0  0
 42 39  1  0  0  0  0
M  END
>  <minimizedAffinity>
-5.91331816

$$$$

 OpenBabel03252503333D

 42 44  0  0  1  0  0  0  0  0999 V2000
   39.2620   27.7930   42.7800 C   0  0  0  0  0  0  0  0  0  0  0  0
   40.6040   28.0550   43.1770 C   0  0  0  0  0  0  0  0  0  0  0  0
   41.3410   26.9550   43.6470 C   0  0  0  0  0  0  0  0  0  0  0  0
   40.7260   25.7520   43.6850 N   0  0  0  0  0  0  0  0  0  0  0  0
   39.4490   25.5570   43.2960 C   0  0  0  0  0  0  0  0  0  0  0  0
   38.7160   26.5920   42.8400 N   0  0  0  0  0  0  0  0  0  0  0  0
   38.8020   29.2230   40.9740 C   0  0  0  0  0  0  0  0  0  0  0  0
   39.7810   28.6180   40.4150 O   0  0  0  0  0  0  0  0  0  0  0  0
   38.4450   28.8660   42.2890 N   0  0  0  0  0  0  0  0  0  0  0  0
   38.1400   30.2180   40.2180 N   0  0  0  0  0  0  0  0  0  0  0  0
   38.7800   30.7600   39.0040 C   0  0  0  0  0  0  0  0  0  0  0  0
   38.2640   32.1640   38.9730 C   0  0  0  0  0  0  0  0  0  0  0  0
   37.2830   32.2760   40.1050 C   0  0  0  0  0  0  0  0  0  0  0  0
   36.8640   30.8510   40.3700 C   0  0  1  0  0  0  0  0  0  0  0  0
   40.9300   29.0790   43.0790 H   0  0  0  0  0  0  0  0  0  0  0  0
   39.0220   24.5500   43.3570 H   0  0  0  0  0  0  0  0  0  0  0  0
   37.6730   29.3820   42.7500 H   0  0  0  0  0  0  0  0  0  0  0  0
   39.8650   30.6760   39.0190 H   0  0  0  0  0  0  0  0  0  0  0  0
   38.2930   30.2100   38.1630 H   0  0  0  0  0  0  0  0  0  0  0  0
   39.1550   32.8300   39.1020 H   0  0  0  0  0  0  0  0  0  0  0  0
   37.8340   32.4620   37.9940 H   0  0  0  0  0  0  0  0  0  0  0  0
   37.9890   32.4390   40.9960 H   0  0  0  0  0  0  0  0  0  0  0  0
   36.6440   33.0930   40.1740 H   0  0  0  0  0  0  0  0  0  0  0  0
   36.4730   30.8470   41.3820 H   0  0  0  0  0  0  0  0  0  0  0  0
   35.0900   29.1380   39.6250 C   0  0  0  0  0  0  0  0  0  0  0  0
   35.0670   28.8710   40.8490 O   0  0  0  0  0  0  0  0  0  0  0  0
   35.9310   30.2990   39.3990 N   0  0  0  0  0  0  0  0  0  0  0  0
   35.8680   30.7920   38.4530 H   0  0  0  0  0  0  0  0  0  0  0  0
   36.2700   26.5420   38.5410 Cl  0  0  0  0  0  0  0  0  0  0  0  0
   34.8970   27.3750   37.8370 C   0  0  0  0  0  0  0  0  0  0  0  0
   34.4680   28.5430   38.4320 C   0  0  0  0  0  0  0  0  0  0  0  0
   33.3840   29.2220   37.8970 C   0  0  0  0  0  0  0  0  0  0  0  0
   33.0270   30.1360   38.3390 H   0  0  0  0  0  0  0  0  0  0  0  0
   32.7100   28.7800   36.7860 C   0  0  0  0  0  3  0  0  0  0  0  0
   33.1420   27.6140   36.1950 C   0  0  0  0  0  0  0  0  0  0  0  0
   32.3600   26.9590   34.7800 Cl  0  0  0  0  0  0  0  0  0  0  0  0
   34.2240   26.9040   36.7020 C   0  0  0  0  0  0  0  0  0  0  0  0
   34.6250   25.9820   36.2990 H   0  0  0  0  0  0  0  0  0  0  0  0
   42.7150   27.2600   44.0460 C   0  0  0  0  0  0  0  0  0  0  0  0
   42.7450   28.5650   44.5520 F   0  0  0  0  0  0  0  0  0  0  0  0
   43.4780   27.3040   42.8790 F   0  0  0  0  0  0  0  0  0  0  0  0
   43.2090   26.4240   44.9920 F   0  0  0  0  0  0  0  0  0  0  0  0
  1  6  2  0  0  0  0
  1  2  1  0  0  0  0
  2  3  2  0  0  0  0
  3  4  1  0  0  0  0
  3 39  1  0  0  0  0
  5 16  1  0  0  0  0
  5  4  2  0  0  0  0
  6  5  1  0  0  0  0
  7  9  1  0  0  0  0
  8  7  2  0  0  0  0
  9 17  1  0  0  0  0
  9  1  1  0  0  0  0
 10 14  1  0  0  0  0
 10  7  1  0  0  0  0
 11 18  1  0  0  0  0
 11 10  1  0  0  0  0
 12 11  1  0  0  0  0
 12 20  1  0  0  0  0
 12 13  1  0  0  0  0
 13 23  1  0  0  0  0
 13 14  1  0  0  0  0
 13 22  1  0  0  0  0
 14 24  1  1  0  0  0
 15  2  1  0  0  0  0
 19 11  1  0  0  0  0
 21 12  1  0  0  0  0
 25 26  2  0  0  0  0
 27 25  1  0  0  0  0
 27 14  1  0  0  0  0
 28 27  1  0  0  0  0
 30 31  1  0  0  0  0
 30 29  1  0  0  0  0
 31 25  1  0  0  0  0
 32 33  1  0  0  0  0
 32 31  2  0  0  0  0
 34 32  1  0  0  0  0
 35 37  1  0  0  0  0
 35 34  2  0  0  0  0
 36 35  1  0  0  0  0
 37 30  2  0  0  0  0
 38 37  1  0  0  0  0
 39 40  1  0  0  0  0
 39 42  1  0  0  0  0
 41 39  1  0  0  0  0
M  END
>  <minimizedAffinity>
-5.91054678

$$$$
