
 OpenBabel03252502273D

 36 38  0  0  0  0  0  0  0  0999 V2000
   45.0470   34.5370   41.3420 C   0  0  0  0  0  0  0  0  0  0  0  0
   45.4110   35.3060   42.4360 C   0  0  0  0  0  0  0  0  0  0  0  0
   46.7610   35.5770   42.6450 C   0  0  0  0  0  0  0  0  0  0  0  0
   47.6940   35.0860   41.7780 C   0  0  0  0  0  0  0  0  0  0  0  0
   47.3590   34.3180   40.6810 C   0  0  0  0  0  0  0  0  0  0  0  0
   45.9990   34.0640   40.4970 C   0  0  0  0  0  0  0  0  0  0  0  0
   44.6820   35.7020   43.1310 H   0  0  0  0  0  0  0  0  0  0  0  0
   47.0560   36.1710   43.4890 H   0  0  0  0  0  0  0  0  0  0  0  0
   48.7410   35.3140   41.9680 H   0  0  0  0  0  0  0  0  0  0  0  0
   48.0840   33.9160   39.9770 H   0  0  0  0  0  0  0  0  0  0  0  0
   41.3610   34.8780   40.6050 C   0  0  0  0  0  0  0  0  0  0  0  0
   42.7260   35.2250   40.7210 C   0  0  0  0  0  0  0  0  0  0  0  0
   43.6210   34.2960   41.1820 C   0  0  0  0  0  0  0  0  0  0  0  0
   43.1350   33.0720   41.5070 N   0  0  0  0  0  0  0  0  0  0  0  0
   41.8300   32.7410   41.3950 C   0  0  0  0  0  0  0  0  0  0  0  0
   40.9390   33.6420   40.9440 N   0  0  0  0  0  0  0  0  0  0  0  0
   43.0810   36.2020   40.4560 H   0  0  0  0  0  0  0  0  0  0  0  0
   41.4800   31.7470   41.6680 H   0  0  0  0  0  0  0  0  0  0  0  0
   40.3870   35.8680   40.1090 C   0  0  0  0  0  0  0  0  0  0  0  0
   39.1910   35.1930   39.8680 F   0  0  0  0  0  0  0  0  0  0  0  0
   40.8350   36.2920   38.8650 F   0  0  0  0  0  0  0  0  0  0  0  0
   40.1740   36.9060   40.9820 F   0  0  0  0  0  0  0  0  0  0  0  0
   45.6330   31.9560   38.9990 C   0  0  0  0  0  0  0  0  0  0  0  0
   46.2480   31.0700   39.5760 O   0  0  0  0  0  0  0  0  0  0  0  0
   45.5100   33.2990   39.4170 N   0  0  0  0  0  0  0  0  0  0  0  0
   44.9200   33.9560   38.8200 H   0  0  0  0  0  0  0  0  0  0  0  0
   47.4250   32.2690   36.6960 Cl  0  0  0  0  0  0  0  0  0  0  0  0
   45.7770   31.6590   36.6560 C   0  0  0  0  0  0  0  0  0  0  0  0
   44.9770   31.5320   37.7640 C   0  0  0  0  0  0  0  0  0  0  0  0
   43.6740   31.0400   37.6640 C   0  0  0  0  0  0  0  0  0  0  0  0
   43.1200   30.9750   38.5850 H   0  0  0  0  0  0  0  0  0  0  0  0
   43.1800   30.6750   36.4290 C   0  0  0  0  0  3  0  0  0  0  0  0
   43.9980   30.8110   35.3380 C   0  0  0  0  0  0  0  0  0  0  0  0
   43.3480   30.3420   33.7880 Cl  0  0  0  0  0  0  0  0  0  0  0  0
   45.2930   31.2970   35.4150 C   0  0  0  0  0  0  0  0  0  0  0  0
   45.9040   31.3880   34.5280 H   0  0  0  0  0  0  0  0  0  0  0  0
  1  2  1  0  0  0  0
  2  3  2  0  0  0  0
  2  7  1  0  0  0  0
  3  8  1  0  0  0  0
  4  9  1  0  0  0  0
  4  3  1  0  0  0  0
  5  4  2  0  0  0  0
  6  5  1  0  0  0  0
  6  1  2  0  0  0  0
 10  5  1  0  0  0  0
 11 12  2  0  0  0  0
 11 16  1  0  0  0  0
 12 13  1  0  0  0  0
 13  1  1  0  0  0  0
 13 14  2  0  0  0  0
 15 14  1  0  0  0  0
 15 18  1  0  0  0  0
 16 15  2  0  0  0  0
 17 12  1  0  0  0  0
 19 11  1  0  0  0  0
 19 22  1  0  0  0  0
 20 19  1  0  0  0  0
 21 19  1  0  0  0  0
 23 25  1  0  0  0  0
 23 24  2  0  0  0  0
 25  6  1  0  0  0  0
 26 25  1  0  0  0  0
 28 27  1  0  0  0  0
 28 29  1  0  0  0  0
 29 23  1  0  0  0  0
 30 29  2  0  0  0  0
 30 31  1  0  0  0  0
 32 30  1  0  0  0  0
 33 35  1  0  0  0  0
 33 32  2  0  0  0  0
 34 33  1  0  0  0  0
 35 28  2  0  0  0  0
 36 35  1  0  0  0  0
M  END
>  <minimizedAffinity>
-6.0573945

>  <minimizedRMSD>
0.558699965

$$$$
