
 OpenBabel03252503313D

 42 44  0  0  1  0  0  0  0  0999 V2000
   45.2860   33.7720   41.8260 C   0  0  0  0  0  0  0  0  0  0  0  0
   46.3080   34.6980   41.4720 C   0  0  0  0  0  0  0  0  0  0  0  0
   47.6300   34.2920   41.7230 C   0  0  0  0  0  0  0  0  0  0  0  0
   47.8240   33.0720   42.2720 N   0  0  0  0  0  0  0  0  0  0  0  0
   46.8180   32.2320   42.5890 C   0  0  0  0  0  0  0  0  0  0  0  0
   45.5390   32.5920   42.3610 N   0  0  0  0  0  0  0  0  0  0  0  0
   43.5750   34.0180   40.2360 C   0  0  0  0  0  0  0  0  0  0  0  0
   44.4860   33.7000   39.3970 O   0  0  0  0  0  0  0  0  0  0  0  0
   43.9110   34.1140   41.6010 N   0  0  0  0  0  0  0  0  0  0  0  0
   42.2770   34.2530   39.7240 N   0  0  0  0  0  0  0  0  0  0  0  0
   42.0910   34.4660   38.2750 C   0  0  0  0  0  0  0  0  0  0  0  0
   40.9140   35.3880   38.2400 C   0  0  0  0  0  0  0  0  0  0  0  0
   40.4520   35.5370   39.6610 C   0  0  0  0  0  0  0  0  0  0  0  0
   40.9910   34.3080   40.3520 C   0  0  1  0  0  0  0  0  0  0  0  0
   45.9690   35.6280   41.0430 H   0  0  0  0  0  0  0  0  0  0  0  0
   47.0580   31.2590   43.0320 H   0  0  0  0  0  0  0  0  0  0  0  0
   43.1770   34.4060   42.2730 H   0  0  0  0  0  0  0  0  0  0  0  0
   42.9830   34.8490   37.7820 H   0  0  0  0  0  0  0  0  0  0  0  0
   41.7480   33.4760   37.8900 H   0  0  0  0  0  0  0  0  0  0  0  0
   41.2800   36.3500   37.7990 H   0  0  0  0  0  0  0  0  0  0  0  0
   40.1060   35.0580   37.5530 H   0  0  0  0  0  0  0  0  0  0  0  0
   41.1930   36.3200   40.0550 H   0  0  0  0  0  0  0  0  0  0  0  0
   39.5320   35.9690   39.8770 H   0  0  0  0  0  0  0  0  0  0  0  0
   41.0110   34.5540   41.4080 H   0  0  0  0  0  0  0  0  0  0  0  0
   38.8180   32.9400   40.1360 C   0  0  0  0  0  0  0  0  0  0  0  0
   38.2900   34.0760   40.1770 O   0  0  0  0  0  0  0  0  0  0  0  0
   40.2620   33.0800   40.0700 N   0  0  0  0  0  0  0  0  0  0  0  0
   40.8400   32.2250   39.7950 H   0  0  0  0  0  0  0  0  0  0  0  0
   38.7250   31.4380   37.4810 Cl  0  0  0  0  0  0  0  0  0  0  0  0
   38.1980   30.7710   39.0170 C   0  0  0  0  0  0  0  0  0  0  0  0
   38.2980   31.5650   40.1400 C   0  0  0  0  0  0  0  0  0  0  0  0
   37.8890   31.0630   41.3670 C   0  0  0  0  0  0  0  0  0  0  0  0
   37.9550   31.6590   42.2600 H   0  0  0  0  0  0  0  0  0  0  0  0
   37.3840   29.7960   41.5150 C   0  0  0  0  0  3  0  0  0  0  0  0
   37.2870   29.0080   40.3900 C   0  0  0  0  0  0  0  0  0  0  0  0
   36.6590   27.3820   40.4630 Cl  0  0  0  0  0  0  0  0  0  0  0  0
   37.6850   29.4730   39.1440 C   0  0  0  0  0  0  0  0  0  0  0  0
   37.6430   28.9200   38.2140 H   0  0  0  0  0  0  0  0  0  0  0  0
   48.6540   35.2680   41.3480 C   0  0  0  0  0  0  0  0  0  0  0  0
   49.8980   34.7820   41.7670 F   0  0  0  0  0  0  0  0  0  0  0  0
   48.4300   36.4090   42.1170 F   0  0  0  0  0  0  0  0  0  0  0  0
   48.7180   35.5100   40.0150 F   0  0  0  0  0  0  0  0  0  0  0  0
  1  6  1  0  0  0  0
  2  3  1  0  0  0  0
  2  1  2  0  0  0  0
  3  4  2  0  0  0  0
  4  5  1  0  0  0  0
  5 16  1  0  0  0  0
  6  5  2  0  0  0  0
  7  9  1  0  0  0  0
  8  7  2  0  0  0  0
  9  1  1  0  0  0  0
  9 17  1  0  0  0  0
 10  7  1  0  0  0  0
 10 14  1  0  0  0  0
 11 10  1  0  0  0  0
 12 11  1  0  0  0  0
 12 13  1  0  0  0  0
 13 23  1  0  0  0  0
 13 22  1  0  0  0  0
 13 14  1  0  0  0  0
 14 24  1  1  0  0  0
 15  2  1  0  0  0  0
 18 11  1  0  0  0  0
 19 11  1  0  0  0  0
 20 12  1  0  0  0  0
 21 12  1  0  0  0  0
 25 31  1  0  0  0  0
 25 26  2  0  0  0  0
 27 25  1  0  0  0  0
 27 14  1  0  0  0  0
 28 27  1  0  0  0  0
 29 30  1  0  0  0  0
 30 37  2  0  0  0  0
 30 31  1  0  0  0  0
 31 32  2  0  0  0  0
 32 34  1  0  0  0  0
 32 33  1  0  0  0  0
 35 36  1  0  0  0  0
 35 34  2  0  0  0  0
 37 35  1  0  0  0  0
 38 37  1  0  0  0  0
 39  3  1  0  0  0  0
 39 40  1  0  0  0  0
 39 41  1  0  0  0  0
 42 39  1  0  0  0  0
M  END
>  <minimizedAffinity>
-7.30670881

>  <minimizedRMSD>
1.6474905

$$$$
