
 OpenBabel03252502273D

 36 38  0  0  0  0  0  0  0  0999 V2000
   45.0960   34.4890   41.2850 C   0  0  0  0  0  0  0  0  0  0  0  0
   45.3980   35.1990   42.4360 C   0  0  0  0  0  0  0  0  0  0  0  0
   46.7300   35.4970   42.7100 C   0  0  0  0  0  0  0  0  0  0  0  0
   47.7070   35.0890   41.8490 C   0  0  0  0  0  0  0  0  0  0  0  0
   47.4360   34.3820   40.6950 C   0  0  0  0  0  0  0  0  0  0  0  0
   46.0910   34.0980   40.4480 C   0  0  0  0  0  0  0  0  0  0  0  0
   44.6330   35.5280   43.1270 H   0  0  0  0  0  0  0  0  0  0  0  0
   46.9770   36.0450   43.5990 H   0  0  0  0  0  0  0  0  0  0  0  0
   48.7400   35.3360   42.0900 H   0  0  0  0  0  0  0  0  0  0  0  0
   48.1970   34.0470   39.9940 H   0  0  0  0  0  0  0  0  0  0  0  0
   41.4320   34.7580   40.4170 C   0  0  0  0  0  0  0  0  0  0  0  0
   42.7810   35.1370   40.6010 C   0  0  0  0  0  0  0  0  0  0  0  0
   43.6850   34.2150   41.0590 C   0  0  0  0  0  0  0  0  0  0  0  0
   43.2240   32.9660   41.3140 N   0  0  0  0  0  0  0  0  0  0  0  0
   41.9330   32.6040   41.1380 C   0  0  0  0  0  0  0  0  0  0  0  0
   41.0350   33.4970   40.6890 N   0  0  0  0  0  0  0  0  0  0  0  0
   43.1180   36.1340   40.3910 H   0  0  0  0  0  0  0  0  0  0  0  0
   41.6040   31.5890   41.3560 H   0  0  0  0  0  0  0  0  0  0  0  0
   40.4500   35.7410   39.9240 C   0  0  0  0  0  0  0  0  0  0  0  0
   39.2920   35.0400   39.5880 F   0  0  0  0  0  0  0  0  0  0  0  0
   40.9430   36.2450   38.7290 F   0  0  0  0  0  0  0  0  0  0  0  0
   40.1570   36.7230   40.8380 F   0  0  0  0  0  0  0  0  0  0  0  0
   46.1620   32.3010   38.5540 C   0  0  0  0  0  0  0  0  0  0  0  0
   47.1810   31.6650   38.7860 O   0  0  0  0  0  0  0  0  0  0  0  0
   45.6650   33.3890   39.3050 N   0  0  0  0  0  0  0  0  0  0  0  0
   44.7480   33.8330   38.9940 H   0  0  0  0  0  0  0  0  0  0  0  0
   44.1470   30.2890   39.2720 Cl  0  0  0  0  0  0  0  0  0  0  0  0
   44.4680   30.9120   37.6600 C   0  0  0  0  0  0  0  0  0  0  0  0
   45.4240   31.8540   37.3750 C   0  0  0  0  0  0  0  0  0  0  0  0
   45.6290   32.3080   36.0680 C   0  0  0  0  0  0  0  0  0  0  0  0
   46.4000   33.0470   35.9400 H   0  0  0  0  0  0  0  0  0  0  0  0
   44.8560   31.7980   35.0460 C   0  0  0  0  0  3  0  0  0  0  0  0
   43.9080   30.8590   35.3560 C   0  0  0  0  0  0  0  0  0  0  0  0
   42.9450   30.2330   34.0430 Cl  0  0  0  0  0  0  0  0  0  0  0  0
   43.6880   30.3970   36.6430 C   0  0  0  0  0  0  0  0  0  0  0  0
   42.9290   29.6530   36.8430 H   0  0  0  0  0  0  0  0  0  0  0  0
  1  2  1  0  0  0  0
  2  3  2  0  0  0  0
  2  7  1  0  0  0  0
  3  8  1  0  0  0  0
  4  9  1  0  0  0  0
  4  3  1  0  0  0  0
  5  4  2  0  0  0  0
  6  5  1  0  0  0  0
  6  1  2  0  0  0  0
 10  5  1  0  0  0  0
 11 12  2  0  0  0  0
 11 16  1  0  0  0  0
 12 13  1  0  0  0  0
 13  1  1  0  0  0  0
 13 14  2  0  0  0  0
 15 14  1  0  0  0  0
 15 18  1  0  0  0  0
 16 15  2  0  0  0  0
 17 12  1  0  0  0  0
 19 11  1  0  0  0  0
 19 22  1  0  0  0  0
 20 19  1  0  0  0  0
 21 19  1  0  0  0  0
 23 24  2  0  0  0  0
 23 25  1  0  0  0  0
 25  6  1  0  0  0  0
 26 25  1  0  0  0  0
 28 27  1  0  0  0  0
 29 28  1  0  0  0  0
 29 23  1  0  0  0  0
 30 29  2  0  0  0  0
 31 30  1  0  0  0  0
 32 33  2  0  0  0  0
 32 30  1  0  0  0  0
 33 35  1  0  0  0  0
 34 33  1  0  0  0  0
 35 36  1  0  0  0  0
 35 28  2  0  0  0  0
M  END
>  <minimizedAffinity>
-6.14233494

>  <minimizedRMSD>
1.04706335

$$$$
