
 OpenBabel03252502273D

 36 38  0  0  0  0  0  0  0  0999 V2000
   44.8850   34.5480   41.3910 C   0  0  0  0  0  0  0  0  0  0  0  0
   45.2210   35.3240   42.4890 C   0  0  0  0  0  0  0  0  0  0  0  0
   46.5640   35.6090   42.7220 C   0  0  0  0  0  0  0  0  0  0  0  0
   47.5180   35.1250   41.8750 C   0  0  0  0  0  0  0  0  0  0  0  0
   47.2110   34.3510   40.7740 C   0  0  0  0  0  0  0  0  0  0  0  0
   45.8570   34.0820   40.5660 C   0  0  0  0  0  0  0  0  0  0  0  0
   44.4750   35.7140   43.1690 H   0  0  0  0  0  0  0  0  0  0  0  0
   46.8370   36.2090   43.5690 H   0  0  0  0  0  0  0  0  0  0  0  0
   48.5590   35.3640   42.0830 H   0  0  0  0  0  0  0  0  0  0  0  0
   47.9530   33.9540   40.0840 H   0  0  0  0  0  0  0  0  0  0  0  0
   41.2110   34.8470   40.5790 C   0  0  0  0  0  0  0  0  0  0  0  0
   42.5700   35.2080   40.7190 C   0  0  0  0  0  0  0  0  0  0  0  0
   43.4650   34.2920   41.2060 C   0  0  0  0  0  0  0  0  0  0  0  0
   42.9840   33.0660   41.5330 N   0  0  0  0  0  0  0  0  0  0  0  0
   41.6840   32.7220   41.3980 C   0  0  0  0  0  0  0  0  0  0  0  0
   40.7940   33.6090   40.9220 N   0  0  0  0  0  0  0  0  0  0  0  0
   42.9210   36.1860   40.4520 H   0  0  0  0  0  0  0  0  0  0  0  0
   41.3390   31.7260   41.6730 H   0  0  0  0  0  0  0  0  0  0  0  0
   40.2380   35.8230   40.0550 C   0  0  0  0  0  0  0  0  0  0  0  0
   39.0690   35.1260   39.7530 F   0  0  0  0  0  0  0  0  0  0  0  0
   40.7300   36.2750   38.8390 F   0  0  0  0  0  0  0  0  0  0  0  0
   39.9640   36.8420   40.9330 F   0  0  0  0  0  0  0  0  0  0  0  0
   45.6280   31.9980   39.0080 C   0  0  0  0  0  0  0  0  0  0  0  0
   46.3510   31.1580   39.5270 O   0  0  0  0  0  0  0  0  0  0  0  0
   45.3970   33.3090   39.4790 N   0  0  0  0  0  0  0  0  0  0  0  0
   44.7210   33.9240   38.9320 H   0  0  0  0  0  0  0  0  0  0  0  0
   47.2520   32.6140   36.6410 Cl  0  0  0  0  0  0  0  0  0  0  0  0
   45.6840   31.8190   36.6500 C   0  0  0  0  0  0  0  0  0  0  0  0
   44.9630   31.5530   37.7860 C   0  0  0  0  0  0  0  0  0  0  0  0
   43.7200   30.9170   37.7230 C   0  0  0  0  0  0  0  0  0  0  0  0
   43.2260   30.7500   38.6650 H   0  0  0  0  0  0  0  0  0  0  0  0
   43.2080   30.5490   36.4980 C   0  0  0  0  0  3  0  0  0  0  0  0
   43.9480   30.8250   35.3770 C   0  0  0  0  0  0  0  0  0  0  0  0
   43.2760   30.3480   33.8380 Cl  0  0  0  0  0  0  0  0  0  0  0  0
   45.1810   31.4540   35.4160 C   0  0  0  0  0  0  0  0  0  0  0  0
   45.7310   31.6530   34.5060 H   0  0  0  0  0  0  0  0  0  0  0  0
  1  2  1  0  0  0  0
  2  3  2  0  0  0  0
  2  7  1  0  0  0  0
  3  8  1  0  0  0  0
  4  9  1  0  0  0  0
  4  3  1  0  0  0  0
  5  4  2  0  0  0  0
  6  5  1  0  0  0  0
  6  1  2  0  0  0  0
 10  5  1  0  0  0  0
 11 12  2  0  0  0  0
 11 16  1  0  0  0  0
 12 13  1  0  0  0  0
 13  1  1  0  0  0  0
 13 14  2  0  0  0  0
 15 14  1  0  0  0  0
 15 18  1  0  0  0  0
 16 15  2  0  0  0  0
 17 12  1  0  0  0  0
 19 11  1  0  0  0  0
 19 22  1  0  0  0  0
 20 19  1  0  0  0  0
 21 19  1  0  0  0  0
 23 25  1  0  0  0  0
 23 24  2  0  0  0  0
 25  6  1  0  0  0  0
 26 25  1  0  0  0  0
 27 28  1  0  0  0  0
 28 29  1  0  0  0  0
 29 23  1  0  0  0  0
 30 29  2  0  0  0  0
 30 31  1  0  0  0  0
 32 30  1  0  0  0  0
 33 35  1  0  0  0  0
 33 32  2  0  0  0  0
 34 33  1  0  0  0  0
 35 28  2  0  0  0  0
 36 35  1  0  0  0  0
M  END
>  <minimizedAffinity>
-6.08571959

>  <minimizedRMSD>
0.750169933

$$$$
