
 OpenBabel03242519093D

 48 51  0  0  1  0  0  0  0  0999 V2000
   48.6230   32.0030   37.1080 C   0  0  0  0  0  0  0  0  0  0  0  0
   47.9730   32.9380   37.9480 C   0  0  0  0  0  0  0  0  0  0  0  0
   46.7410   33.3220   37.4800 C   0  0  0  0  0  0  0  0  0  0  0  0
   46.1350   32.8860   36.3270 C   0  0  0  0  0  0  0  0  0  0  0  0
   46.8110   31.9720   35.5410 C   0  0  0  0  0  0  0  0  0  0  0  0
   48.0610   31.5470   35.9620 C   0  0  0  0  0  0  0  0  0  0  0  0
   46.2120   34.0410   38.1010 H   0  0  0  0  0  0  0  0  0  0  0  0
   45.1670   33.2120   35.9950 H   0  0  0  0  0  0  0  0  0  0  0  0
   46.3940   31.5910   34.6270 H   0  0  0  0  0  0  0  0  0  0  0  0
   49.4100   31.0690   33.9790 C   0  0  0  0  0  0  0  0  0  0  0  0
   49.4760   32.3280   33.7260 O   0  0  0  0  0  0  0  0  0  0  0  0
   48.7320   30.6010   35.1260 N   0  0  0  0  0  0  0  0  0  0  0  0
   48.8080   29.5570   35.2280 H   0  0  0  0  0  0  0  0  0  0  0  0
   52.0840   30.3090   34.9200 Cl  0  0  0  0  0  0  0  0  0  0  0  0
   51.3550   29.8040   33.3910 C   0  0  0  0  0  0  0  0  0  0  0  0
   50.0760   30.2070   33.0100 C   0  0  0  0  0  0  0  0  0  0  0  0
   49.5260   29.8030   31.8140 C   0  0  0  0  0  0  0  0  0  0  0  0
   48.5300   30.1460   31.5690 H   0  0  0  0  0  0  0  0  0  0  0  0
   50.3020   28.9770   31.0060 C   0  0  0  0  0  3  0  0  0  0  0  0
   51.5660   28.5690   31.3670 C   0  0  0  0  0  0  0  0  0  0  0  0
   52.5090   27.5370   30.3340 Cl  0  0  0  0  0  0  0  0  0  0  0  0
   52.1140   28.9790   32.5710 C   0  0  0  0  0  0  0  0  0  0  0  0
   53.1060   28.6590   32.8530 H   0  0  0  0  0  0  0  0  0  0  0  0
   48.5170   33.4400   39.1490 N   0  0  0  0  0  0  0  0  0  0  0  0
   49.4300   33.8900   38.9070 H   0  0  0  0  0  0  0  0  0  0  0  0
   47.4730   34.4500   42.4030 N   0  0  0  0  0  0  0  0  0  0  0  0
   47.4490   34.6950   40.9620 C   0  0  0  0  0  0  0  0  0  0  0  0
   48.0410   33.4160   40.4900 C   0  0  2  0  0  0  0  0  0  0  0  0
   49.2680   33.3150   41.3920 C   0  0  0  0  0  0  0  0  0  0  0  0
   48.7530   33.8700   42.6940 C   0  0  0  0  0  0  0  0  0  0  0  0
   48.0980   35.5240   40.6630 H   0  0  0  0  0  0  0  0  0  0  0  0
   46.4110   34.8170   40.6110 H   0  0  0  0  0  0  0  0  0  0  0  0
   47.4140   32.5280   40.6940 H   0  0  0  0  0  0  0  0  0  0  0  0
   49.6950   32.3160   41.4460 H   0  0  0  0  0  0  0  0  0  0  0  0
   49.9900   34.0890   41.0100 H   0  0  0  0  0  0  0  0  0  0  0  0
   49.3960   34.6860   43.1020 H   0  0  0  0  0  0  0  0  0  0  0  0
   48.7030   33.0280   43.4140 H   0  0  0  0  0  0  0  0  0  0  0  0
   44.6040   35.8540   44.3380 C   0  0  0  0  0  0  0  0  0  0  0  0
   45.5310   35.7090   43.3000 C   0  0  0  0  0  0  0  0  0  0  0  0
   46.4970   34.7000   43.3690 C   0  0  0  0  0  0  0  0  0  0  0  0
   46.4590   33.9080   44.4790 N   0  0  0  0  0  0  0  0  0  0  0  0
   45.5810   34.0370   45.4750 C   0  0  0  0  0  0  0  0  0  0  0  0
   44.6500   35.0160   45.4020 N   0  0  0  0  0  0  0  0  0  0  0  0
   43.8850   36.6530   44.2240 H   0  0  0  0  0  0  0  0  0  0  0  0
   45.5820   36.3220   42.4090 H   0  0  0  0  0  0  0  0  0  0  0  0
   45.5910   33.3840   46.3380 H   0  0  0  0  0  0  0  0  0  0  0  0
   50.9730   31.1700   37.8750 N   0  0  0  0  0  0  0  0  0  0  0  0
   49.9350   31.5490   37.5380 C   0  0  0  0  0  0  0  0  0  0  0  0
  1 48  1  0  0  0  0
  1  2  1  0  0  0  0
  2 24  1  0  0  0  0
  3  2  2  0  0  0  0
  3  7  1  0  0  0  0
  4  3  1  0  0  0  0
  5  6  1  0  0  0  0
  5  4  2  0  0  0  0
  6  1  2  0  0  0  0
  8  4  1  0  0  0  0
  9  5  1  0  0  0  0
 10 12  1  0  0  0  0
 11 10  2  0  0  0  0
 12 13  1  0  0  0  0
 12  6  1  0  0  0  0
 15 14  1  0  0  0  0
 16 15  1  0  0  0  0
 16 10  1  0  0  0  0
 17 16  2  0  0  0  0
 18 17  1  0  0  0  0
 19 20  2  0  0  0  0
 19 17  1  0  0  0  0
 20 22  1  0  0  0  0
 21 20  1  0  0  0  0
 22 23  1  0  0  0  0
 22 15  2  0  0  0  0
 24 28  1  0  0  0  0
 25 24  1  0  0  0  0
 26 30  1  0  0  0  0
 26 40  1  0  0  0  0
 27 26  1  0  0  0  0
 28 33  1  1  0  0  0
 28 27  1  0  0  0  0
 28 29  1  0  0  0  0
 29 34  1  0  0  0  0
 29 30  1  0  0  0  0
 30 36  1  0  0  0  0
 30 37  1  0  0  0  0
 31 27  1  0  0  0  0
 32 27  1  0  0  0  0
 35 29  1  0  0  0  0
 38 43  1  0  0  0  0
 39 40  1  0  0  0  0
 39 38  2  0  0  0  0
 40 41  2  0  0  0  0
 41 42  1  0  0  0  0
 42 46  1  0  0  0  0
 43 42  2  0  0  0  0
 44 38  1  0  0  0  0
 45 39  1  0  0  0  0
 48 47  3  0  0  0  0
M  END
>  <minimizedAffinity>
-5.33363581

>  <minimizedRMSD>
0.622127652

$$$$
