
 OpenBabel03252503273D

 26 27  0  0  0  0  0  0  0  0999 V2000
   45.4900   34.3960   42.8490 C   0  0  0  0  0  0  0  0  0  0  0  0
   46.4670   34.9860   42.0260 C   0  0  0  0  0  0  0  0  0  0  0  0
   47.8070   34.7550   42.3810 C   0  0  0  0  0  0  0  0  0  0  0  0
   48.0530   33.9920   43.4740 N   0  0  0  0  0  0  0  0  0  0  0  0
   47.0810   33.4460   44.2340 C   0  0  0  0  0  0  0  0  0  0  0  0
   45.7930   33.6510   43.9180 N   0  0  0  0  0  0  0  0  0  0  0  0
   43.6830   33.7920   41.4630 C   0  0  0  0  0  0  0  0  0  0  0  0
   44.5540   33.0710   40.8870 O   0  0  0  0  0  0  0  0  0  0  0  0
   44.1050   34.5660   42.5820 N   0  0  0  0  0  0  0  0  0  0  0  0
   46.1560   35.5770   41.1780 H   0  0  0  0  0  0  0  0  0  0  0  0
   47.3040   32.8400   45.1020 H   0  0  0  0  0  0  0  0  0  0  0  0
   43.4240   35.1650   43.1010 H   0  0  0  0  0  0  0  0  0  0  0  0
   41.9880   31.3830   42.1990 Cl  0  0  0  0  0  0  0  0  0  0  0  0
   41.4270   32.7920   41.2990 C   0  0  0  0  0  0  0  0  0  0  0  0
   42.2830   33.8470   41.0120 C   0  0  0  0  0  0  0  0  0  0  0  0
   41.8050   34.9490   40.2950 C   0  0  0  0  0  0  0  0  0  0  0  0
   42.4590   35.7780   40.0630 H   0  0  0  0  0  0  0  0  0  0  0  0
   40.4800   34.9920   39.8720 C   0  0  0  0  0  3  0  0  0  0  0  0
   39.6200   33.9550   40.1480 C   0  0  0  0  0  0  0  0  0  0  0  0
   37.9620   34.0140   39.6170 Cl  0  0  0  0  0  0  0  0  0  0  0  0
   40.1170   32.8660   40.8640 C   0  0  0  0  0  0  0  0  0  0  0  0
   39.4560   32.0470   41.0890 H   0  0  0  0  0  0  0  0  0  0  0  0
   48.7950   35.3750   41.5150 C   0  0  0  0  0  0  0  0  0  0  0  0
   50.0250   34.7480   41.7190 F   0  0  0  0  0  0  0  0  0  0  0  0
   48.9690   36.6880   41.9420 F   0  0  0  0  0  0  0  0  0  0  0  0
   48.4940   35.2800   40.1880 F   0  0  0  0  0  0  0  0  0  0  0  0
  1  6  1  0  0  0  0
  2  3  1  0  0  0  0
  2  1  2  0  0  0  0
  3  4  2  0  0  0  0
  4  5  1  0  0  0  0
  5 11  1  0  0  0  0
  6  5  2  0  0  0  0
  7  9  1  0  0  0  0
  8  7  2  0  0  0  0
  9  1  1  0  0  0  0
  9 12  1  0  0  0  0
 10  2  1  0  0  0  0
 14 13  1  0  0  0  0
 15 14  1  0  0  0  0
 15  7  1  0  0  0  0
 16 15  2  0  0  0  0
 17 16  1  0  0  0  0
 18 19  2  0  0  0  0
 18 16  1  0  0  0  0
 19 21  1  0  0  0  0
 20 19  1  0  0  0  0
 21 22  1  0  0  0  0
 21 14  2  0  0  0  0
 23 24  1  0  0  0  0
 23 25  1  0  0  0  0
 23  3  1  0  0  0  0
 26 23  1  0  0  0  0
M  END
>  <minimizedAffinity>
-6.2228055

>  <minimizedRMSD>
1.8257426

$$$$
