
 OpenBabel03242520543D

 32 33  0  0  0  0  0  0  0  0999 V2000
   36.4450   31.2360   40.6620 C   0  0  0  0  0  0  0  0  0  0  0  0
   35.5870   31.1800   40.0020 H   0  0  0  0  0  0  0  0  0  0  0  0
   36.0110   31.5100   41.6720 H   0  0  0  0  0  0  0  0  0  0  0  0
   36.3080   28.9290   40.8650 C   0  0  0  0  0  0  0  0  0  0  0  0
   35.0860   28.7390   40.6750 O   0  0  0  0  0  0  0  0  0  0  0  0
   37.1770   30.0390   40.8800 N   0  0  0  0  0  0  0  0  0  0  0  0
   38.1890   29.8820   41.0390 H   0  0  0  0  0  0  0  0  0  0  0  0
   37.0100   27.9380   43.6760 Cl  0  0  0  0  0  0  0  0  0  0  0  0
   37.0920   26.8980   42.2750 C   0  0  0  0  0  0  0  0  0  0  0  0
   36.7350   27.5300   41.1080 C   0  0  0  0  0  0  0  0  0  0  0  0
   36.7420   26.8490   39.8880 C   0  0  0  0  0  0  0  0  0  0  0  0
   36.4870   27.2250   38.9070 H   0  0  0  0  0  0  0  0  0  0  0  0
   37.1140   25.5090   39.8440 C   0  0  0  0  0  3  0  0  0  0  0  0
   37.4710   24.8820   41.0240 C   0  0  0  0  0  0  0  0  0  0  0  0
   37.9490   23.2010   41.0400 Cl  0  0  0  0  0  0  0  0  0  0  0  0
   37.4580   25.5720   42.2170 C   0  0  0  0  0  0  0  0  0  0  0  0
   37.7260   25.1500   43.1990 H   0  0  0  0  0  0  0  0  0  0  0  0
   38.4990   32.5210   40.8840 C   0  0  0  0  0  3  0  0  0  0  0  0
   37.3260   32.3870   40.3330 C   0  0  0  0  0  3  0  0  0  0  0  0
   39.6590   35.8490   39.9470 C   0  0  0  0  0  0  0  0  0  0  0  0
   41.0610   35.7190   40.0520 C   0  0  0  0  0  0  0  0  0  0  0  0
   41.5960   34.4870   40.4430 C   0  0  0  0  0  0  0  0  0  0  0  0
   40.7260   33.5060   40.6950 N   0  0  0  0  0  0  0  0  0  0  0  0
   39.3970   33.6300   40.5960 C   0  0  0  0  0  0  0  0  0  0  0  0
   38.8530   34.8120   40.2190 N   0  0  0  0  0  0  0  0  0  0  0  0
   39.3330   36.8430   39.6360 H   0  0  0  0  0  0  0  0  0  0  0  0
   41.7840   36.4900   39.8550 H   0  0  0  0  0  0  0  0  0  0  0  0
   42.9340   34.2480   40.5750 O   0  0  0  0  0  0  0  0  0  0  0  0
   43.4970   34.4680   41.8740 C   0  0  0  0  0  0  0  0  0  0  0  0
   43.3860   33.2950   42.6260 F   0  0  0  0  0  0  0  0  0  0  0  0
   44.8610   34.7430   41.6800 F   0  0  0  0  0  0  0  0  0  0  0  0
   42.9090   35.5370   42.5350 F   0  0  0  0  0  0  0  0  0  0  0  0
  1  6  1  0  0  0  0
  1  3  1  0  0  0  0
  2  1  1  0  0  0  0
  4  6  1  0  0  0  0
  4 10  1  0  0  0  0
  5  4  2  0  0  0  0
  6  7  1  0  0  0  0
  9  8  1  0  0  0  0
 10  9  2  0  0  0  0
 11 10  1  0  0  0  0
 12 11  1  0  0  0  0
 13 11  2  0  0  0  0
 13 14  1  0  0  0  0
 14 15  1  0  0  0  0
 14 16  2  0  0  0  0
 16  9  1  0  0  0  0
 16 17  1  0  0  0  0
 19  1  1  0  0  0  0
 19 18  2  0  0  0  0
 20 21  2  0  0  0  0
 20 25  1  0  0  0  0
 21 22  1  0  0  0  0
 22 28  1  0  0  0  0
 22 23  2  0  0  0  0
 24 23  1  0  0  0  0
 24 18  1  0  0  0  0
 25 24  2  0  0  0  0
 26 20  1  0  0  0  0
 27 21  1  0  0  0  0
 28 29  1  0  0  0  0
 29 32  1  0  0  0  0
 29 30  1  0  0  0  0
 31 29  1  0  0  0  0
M  END
>  <minimizedAffinity>
-6.16301203

$$$$

 OpenBabel03242520543D

 32 33  0  0  0  0  0  0  0  0999 V2000
   36.3960   31.3060   40.7100 C   0  0  0  0  0  0  0  0  0  0  0  0
   35.5090   31.2470   40.0890 H   0  0  0  0  0  0  0  0  0  0  0  0
   36.0090   31.5930   41.7350 H   0  0  0  0  0  0  0  0  0  0  0  0
   36.2570   29.0010   40.9360 C   0  0  0  0  0  0  0  0  0  0  0  0
   35.0270   28.8150   40.7960 O   0  0  0  0  0  0  0  0  0  0  0  0
   37.1310   30.1060   40.9080 N   0  0  0  0  0  0  0  0  0  0  0  0
   38.1470   29.9470   41.0280 H   0  0  0  0  0  0  0  0  0  0  0  0
   37.0800   28.0320   43.7220 Cl  0  0  0  0  0  0  0  0  0  0  0  0
   37.0930   26.9790   42.3280 C   0  0  0  0  0  0  0  0  0  0  0  0
   36.6870   27.6020   41.1730 C   0  0  0  0  0  0  0  0  0  0  0  0
   36.6360   26.9100   39.9600 C   0  0  0  0  0  0  0  0  0  0  0  0
   36.3380   27.2780   38.9880 H   0  0  0  0  0  0  0  0  0  0  0  0
   36.9980   25.5670   39.9110 C   0  0  0  0  0  3  0  0  0  0  0  0
   37.4040   24.9490   41.0800 C   0  0  0  0  0  0  0  0  0  0  0  0
   37.8740   23.2660   41.0900 Cl  0  0  0  0  0  0  0  0  0  0  0  0
   37.4490   25.6490   42.2660 C   0  0  0  0  0  0  0  0  0  0  0  0
   37.7600   25.2350   43.2380 H   0  0  0  0  0  0  0  0  0  0  0  0
   38.5340   32.4640   40.6340 C   0  0  0  0  0  3  0  0  0  0  0  0
   37.2680   32.4480   40.3300 C   0  0  0  0  0  3  0  0  0  0  0  0
   39.7460   35.8490   40.0260 C   0  0  0  0  0  0  0  0  0  0  0  0
   41.0850   35.6240   39.6380 C   0  0  0  0  0  0  0  0  0  0  0  0
   41.5590   34.3090   39.5880 C   0  0  0  0  0  0  0  0  0  0  0  0
   40.6970   33.3440   39.9180 N   0  0  0  0  0  0  0  0  0  0  0  0
   39.4280   33.5580   40.2860 C   0  0  0  0  0  0  0  0  0  0  0  0
   38.9430   34.8220   40.3430 N   0  0  0  0  0  0  0  0  0  0  0  0
   39.4640   36.9040   40.0370 H   0  0  0  0  0  0  0  0  0  0  0  0
   41.8000   36.3790   39.3670 H   0  0  0  0  0  0  0  0  0  0  0  0
   42.8330   33.9760   39.2250 O   0  0  0  0  0  0  0  0  0  0  0  0
   43.0100   33.4800   37.8920 C   0  0  0  0  0  0  0  0  0  0  0  0
   42.8610   32.0910   37.8960 F   0  0  0  0  0  0  0  0  0  0  0  0
   41.9780   34.0350   37.1160 F   0  0  0  0  0  0  0  0  0  0  0  0
   44.2330   33.8450   37.3480 F   0  0  0  0  0  0  0  0  0  0  0  0
  1  6  1  0  0  0  0
  1  3  1  0  0  0  0
  2  1  1  0  0  0  0
  4 10  1  0  0  0  0
  5  4  2  0  0  0  0
  6  4  1  0  0  0  0
  6  7  1  0  0  0  0
  9  8  1  0  0  0  0
 10  9  2  0  0  0  0
 11 10  1  0  0  0  0
 12 11  1  0  0  0  0
 13 11  2  0  0  0  0
 13 14  1  0  0  0  0
 14 15  1  0  0  0  0
 14 16  2  0  0  0  0
 16  9  1  0  0  0  0
 16 17  1  0  0  0  0
 19 18  2  0  0  0  0
 19  1  1  0  0  0  0
 20 26  1  0  0  0  0
 20 25  1  0  0  0  0
 21 20  2  0  0  0  0
 22 21  1  0  0  0  0
 22 23  2  0  0  0  0
 23 24  1  0  0  0  0
 24 25  2  0  0  0  0
 24 18  1  0  0  0  0
 27 21  1  0  0  0  0
 28 22  1  0  0  0  0
 29 30  1  0  0  0  0
 29 28  1  0  0  0  0
 31 29  1  0  0  0  0
 32 29  1  0  0  0  0
M  END
>  <minimizedAffinity>
-6.04429245

$$$$

 OpenBabel03242520543D

 32 33  0  0  0  0  0  0  0  0999 V2000
   38.5660   34.5450   40.0660 C   0  0  0  0  0  0  0  0  0  0  0  0
   37.9850   35.4600   40.0510 H   0  0  0  0  0  0  0  0  0  0  0  0
   39.0880   34.5220   39.0600 H   0  0  0  0  0  0  0  0  0  0  0  0
   40.8610   34.5810   40.4040 C   0  0  0  0  0  0  0  0  0  0  0  0
   41.2750   34.7910   39.2420 O   0  0  0  0  0  0  0  0  0  0  0  0
   39.6050   34.4490   41.0290 N   0  0  0  0  0  0  0  0  0  0  0  0
   39.5670   34.3050   42.0550 H   0  0  0  0  0  0  0  0  0  0  0  0
   42.5920   32.0620   40.2190 Cl  0  0  0  0  0  0  0  0  0  0  0  0
   43.0720   33.4550   41.1590 C   0  0  0  0  0  0  0  0  0  0  0  0
   42.1600   34.4820   41.1100 C   0  0  0  0  0  0  0  0  0  0  0  0
   42.3810   35.6750   41.8030 C   0  0  0  0  0  0  0  0  0  0  0  0
   41.7520   36.5530   41.8490 H   0  0  0  0  0  0  0  0  0  0  0  0
   43.5410   35.8360   42.5560 C   0  0  0  0  0  3  0  0  0  0  0  0
   44.4520   34.7960   42.5970 C   0  0  0  0  0  0  0  0  0  0  0  0
   45.9280   34.9300   43.5240 Cl  0  0  0  0  0  0  0  0  0  0  0  0
   44.2150   33.6270   41.9070 C   0  0  0  0  0  0  0  0  0  0  0  0
   44.8860   32.7530   41.8870 H   0  0  0  0  0  0  0  0  0  0  0  0
   38.1060   32.2040   40.5450 C   0  0  0  0  0  3  0  0  0  0  0  0
   37.7020   33.3360   40.0420 C   0  0  0  0  0  3  0  0  0  0  0  0
   35.8220   29.5990   39.4110 C   0  0  0  0  0  0  0  0  0  0  0  0
   35.7800   28.7300   40.5230 C   0  0  0  0  0  0  0  0  0  0  0  0
   36.5380   29.0490   41.6550 C   0  0  0  0  0  0  0  0  0  0  0  0
   37.2600   30.1710   41.6000 N   0  0  0  0  0  0  0  0  0  0  0  0
   37.2990   30.9930   40.5450 C   0  0  0  0  0  0  0  0  0  0  0  0
   36.5750   30.7080   39.4360 N   0  0  0  0  0  0  0  0  0  0  0  0
   35.2010   29.2700   38.5750 H   0  0  0  0  0  0  0  0  0  0  0  0
   35.2090   27.8220   40.5960 H   0  0  0  0  0  0  0  0  0  0  0  0
   36.5710   28.2840   42.7860 O   0  0  0  0  0  0  0  0  0  0  0  0
   37.5260   27.2160   42.8070 C   0  0  0  0  0  0  0  0  0  0  0  0
   38.2650   27.2850   43.9910 F   0  0  0  0  0  0  0  0  0  0  0  0
   36.7920   26.0180   42.8110 F   0  0  0  0  0  0  0  0  0  0  0  0
   38.3640   27.2300   41.7000 F   0  0  0  0  0  0  0  0  0  0  0  0
  1  6  1  0  0  0  0
  2  1  1  0  0  0  0
  3  1  1  0  0  0  0
  4  6  1  0  0  0  0
  4 10  1  0  0  0  0
  5  4  2  0  0  0  0
  6  7  1  0  0  0  0
  8  9  1  0  0  0  0
  9 16  1  0  0  0  0
 10  9  2  0  0  0  0
 10 11  1  0  0  0  0
 11 12  1  0  0  0  0
 11 13  2  0  0  0  0
 13 14  1  0  0  0  0
 14 15  1  0  0  0  0
 16 14  2  0  0  0  0
 17 16  1  0  0  0  0
 19  1  1  0  0  0  0
 19 18  2  0  0  0  0
 20 25  2  0  0  0  0
 20 21  1  0  0  0  0
 21 27  1  0  0  0  0
 21 22  2  0  0  0  0
 22 28  1  0  0  0  0
 23 22  1  0  0  0  0
 24 18  1  0  0  0  0
 24 23  2  0  0  0  0
 25 24  1  0  0  0  0
 26 20  1  0  0  0  0
 28 29  1  0  0  0  0
 29 31  1  0  0  0  0
 29 30  1  0  0  0  0
 32 29  1  0  0  0  0
M  END
>  <minimizedAffinity>
-6.01854086

$$$$

 OpenBabel03242520543D

 32 33  0  0  0  0  0  0  0  0999 V2000
   36.5840   30.6050   39.2360 C   0  0  0  0  0  0  0  0  0  0  0  0
   36.0030   30.4670   38.3320 H   0  0  0  0  0  0  0  0  0  0  0  0
   35.8160   30.6420   40.0680 H   0  0  0  0  0  0  0  0  0  0  0  0
   37.1190   29.0300   40.8530 C   0  0  0  0  0  0  0  0  0  0  0  0
   36.2070   29.2180   41.6890 O   0  0  0  0  0  0  0  0  0  0  0  0
   37.4790   29.5630   39.5990 N   0  0  0  0  0  0  0  0  0  0  0  0
   38.3010   29.1720   39.1040 H   0  0  0  0  0  0  0  0  0  0  0  0
   39.4010   29.6800   42.7890 Cl  0  0  0  0  0  0  0  0  0  0  0  0
   38.9130   28.0380   42.4420 C   0  0  0  0  0  0  0  0  0  0  0  0
   37.8700   27.9590   41.5520 C   0  0  0  0  0  0  0  0  0  0  0  0
   37.3490   26.7230   41.1600 C   0  0  0  0  0  0  0  0  0  0  0  0
   36.5380   26.5220   40.4740 H   0  0  0  0  0  0  0  0  0  0  0  0
   37.8880   25.5480   41.6760 C   0  0  0  0  0  3  0  0  0  0  0  0
   38.9380   25.6390   42.5710 C   0  0  0  0  0  0  0  0  0  0  0  0
   39.6620   24.2040   43.2560 Cl  0  0  0  0  0  0  0  0  0  0  0  0
   39.4370   26.8680   42.9450 C   0  0  0  0  0  0  0  0  0  0  0  0
   40.2680   27.0290   43.6500 H   0  0  0  0  0  0  0  0  0  0  0  0
   38.3700   32.1270   39.8820 C   0  0  0  0  0  3  0  0  0  0  0  0
   37.2250   31.9450   39.2880 C   0  0  0  0  0  3  0  0  0  0  0  0
   38.8550   35.7350   40.0770 C   0  0  0  0  0  0  0  0  0  0  0  0
   40.2620   35.8480   40.1070 C   0  0  0  0  0  0  0  0  0  0  0  0
   41.0330   34.6810   40.0590 C   0  0  0  0  0  0  0  0  0  0  0  0
   40.3700   33.5250   39.9890 N   0  0  0  0  0  0  0  0  0  0  0  0
   39.0360   33.4180   39.9600 C   0  0  0  0  0  0  0  0  0  0  0  0
   38.2660   34.5330   40.0050 N   0  0  0  0  0  0  0  0  0  0  0  0
   38.3380   36.6960   40.1180 H   0  0  0  0  0  0  0  0  0  0  0  0
   40.8230   36.7640   40.1630 H   0  0  0  0  0  0  0  0  0  0  0  0
   42.3980   34.6720   40.0820 O   0  0  0  0  0  0  0  0  0  0  0  0
   43.0160   34.5390   41.3680 C   0  0  0  0  0  0  0  0  0  0  0  0
   42.5270   35.5350   42.2170 F   0  0  0  0  0  0  0  0  0  0  0  0
   42.6220   33.2900   41.8760 F   0  0  0  0  0  0  0  0  0  0  0  0
   44.4010   34.5830   41.2980 F   0  0  0  0  0  0  0  0  0  0  0  0
  1 19  1  0  0  0  0
  1  6  1  0  0  0  0
  1  3  1  0  0  0  0
  2  1  1  0  0  0  0
  4 10  1  0  0  0  0
  4  5  2  0  0  0  0
  6  4  1  0  0  0  0
  7  6  1  0  0  0  0
  9  8  1  0  0  0  0
  9 16  1  0  0  0  0
 10  9  2  0  0  0  0
 11 10  1  0  0  0  0
 11 13  2  0  0  0  0
 12 11  1  0  0  0  0
 13 14  1  0  0  0  0
 14 16  2  0  0  0  0
 14 15  1  0  0  0  0
 16 17  1  0  0  0  0
 18 24  1  0  0  0  0
 19 18  2  0  0  0  0
 20 21  1  0  0  0  0
 20 26  1  0  0  0  0
 21 27  1  0  0  0  0
 22 28  1  0  0  0  0
 22 21  2  0  0  0  0
 23 22  1  0  0  0  0
 24 23  2  0  0  0  0
 24 25  1  0  0  0  0
 25 20  2  0  0  0  0
 28 29  1  0  0  0  0
 29 31  1  0  0  0  0
 29 30  1  0  0  0  0
 32 29  1  0  0  0  0
M  END
>  <minimizedAffinity>
-5.74116755

$$$$

 OpenBabel03242520543D

 32 33  0  0  0  0  0  0  0  0999 V2000
   37.5700   31.7700   38.2730 C   0  0  0  0  0  0  0  0  0  0  0  0
   36.6360   32.2330   38.5650 H   0  0  0  0  0  0  0  0  0  0  0  0
   37.4600   31.5800   37.1610 H   0  0  0  0  0  0  0  0  0  0  0  0
   39.0200   32.7960   39.7650 C   0  0  0  0  0  0  0  0  0  0  0  0
   38.5070   32.4780   40.8620 O   0  0  0  0  0  0  0  0  0  0  0  0
   38.7510   32.5480   38.4040 N   0  0  0  0  0  0  0  0  0  0  0  0
   39.3940   32.9310   37.6870 H   0  0  0  0  0  0  0  0  0  0  0  0
   38.8240   35.8470   39.9330 Cl  0  0  0  0  0  0  0  0  0  0  0  0
   40.2650   34.9800   40.4040 C   0  0  0  0  0  0  0  0  0  0  0  0
   40.1520   33.6180   40.2570 C   0  0  0  0  0  0  0  0  0  0  0  0
   41.2090   32.7660   40.5870 C   0  0  0  0  0  0  0  0  0  0  0  0
   41.2500   31.6880   40.5200 H   0  0  0  0  0  0  0  0  0  0  0  0
   42.4000   33.2960   41.0740 C   0  0  0  0  0  3  0  0  0  0  0  0
   42.5040   34.6670   41.2180 C   0  0  0  0  0  0  0  0  0  0  0  0
   43.9720   35.3990   41.8220 Cl  0  0  0  0  0  0  0  0  0  0  0  0
   41.4500   35.4900   40.8870 C   0  0  0  0  0  0  0  0  0  0  0  0
   41.4490   36.5890   40.9710 H   0  0  0  0  0  0  0  0  0  0  0  0
   36.7420   29.5510   38.8330 C   0  0  0  0  0  3  0  0  0  0  0  0
   37.7220   30.4080   38.8490 C   0  0  0  0  0  3  0  0  0  0  0  0
   36.2210   25.9690   39.2670 C   0  0  0  0  0  0  0  0  0  0  0  0
   37.0130   25.6850   40.4010 C   0  0  0  0  0  0  0  0  0  0  0  0
   37.7190   26.7290   41.0070 C   0  0  0  0  0  0  0  0  0  0  0  0
   37.5920   27.9400   40.4590 N   0  0  0  0  0  0  0  0  0  0  0  0
   36.8410   28.2080   39.3840 C   0  0  0  0  0  0  0  0  0  0  0  0
   36.1470   27.2150   38.7780 N   0  0  0  0  0  0  0  0  0  0  0  0
   35.7070   25.0950   38.8610 H   0  0  0  0  0  0  0  0  0  0  0  0
   37.1340   24.7220   40.8630 H   0  0  0  0  0  0  0  0  0  0  0  0
   38.5130   26.5700   42.1070 O   0  0  0  0  0  0  0  0  0  0  0  0
   38.1520   27.3240   43.2710 C   0  0  0  0  0  0  0  0  0  0  0  0
   38.4190   28.6770   43.0410 F   0  0  0  0  0  0  0  0  0  0  0  0
   36.7660   27.1680   43.4380 F   0  0  0  0  0  0  0  0  0  0  0  0
   38.8000   26.8790   44.4140 F   0  0  0  0  0  0  0  0  0  0  0  0
  1  6  1  0  0  0  0
  1  2  1  0  0  0  0
  1 19  1  0  0  0  0
  3  1  1  0  0  0  0
  4 10  1  0  0  0  0
  4  5  2  0  0  0  0
  6  4  1  0  0  0  0
  7  6  1  0  0  0  0
  8  9  1  0  0  0  0
  9 16  1  0  0  0  0
 10  9  2  0  0  0  0
 10 11  1  0  0  0  0
 11 13  2  0  0  0  0
 12 11  1  0  0  0  0
 13 14  1  0  0  0  0
 14 15  1  0  0  0  0
 16 17  1  0  0  0  0
 16 14  2  0  0  0  0
 18 19  2  0  0  0  0
 18 24  1  0  0  0  0
 20 21  1  0  0  0  0
 21 27  1  0  0  0  0
 21 22  2  0  0  0  0
 22 28  1  0  0  0  0
 23 22  1  0  0  0  0
 24 23  2  0  0  0  0
 25 20  2  0  0  0  0
 25 24  1  0  0  0  0
 26 20  1  0  0  0  0
 28 29  1  0  0  0  0
 29 31  1  0  0  0  0
 29 32  1  0  0  0  0
 30 29  1  0  0  0  0
M  END
>  <minimizedAffinity>
-5.64919281

$$$$

 OpenBabel03242520543D

 32 33  0  0  0  0  0  0  0  0999 V2000
   35.6700   29.4060   39.1450 C   0  0  0  0  0  0  0  0  0  0  0  0
   34.7440   29.8780   39.4510 H   0  0  0  0  0  0  0  0  0  0  0  0
   35.4220   28.8990   38.1620 H   0  0  0  0  0  0  0  0  0  0  0  0
   37.0240   31.1060   39.9570 C   0  0  0  0  0  0  0  0  0  0  0  0
   36.5510   31.2670   41.1050 O   0  0  0  0  0  0  0  0  0  0  0  0
   36.7710   30.2570   38.8610 N   0  0  0  0  0  0  0  0  0  0  0  0
   37.3690   30.3330   38.0180 H   0  0  0  0  0  0  0  0  0  0  0  0
   39.9950   30.3850   40.1190 Cl  0  0  0  0  0  0  0  0  0  0  0  0
   39.4410   32.0400   40.0510 C   0  0  0  0  0  0  0  0  0  0  0  0
   38.0740   32.1520   39.9790 C   0  0  0  0  0  0  0  0  0  0  0  0
   37.4550   33.4040   39.9170 C   0  0  0  0  0  0  0  0  0  0  0  0
   36.4000   33.6300   39.8580 H   0  0  0  0  0  0  0  0  0  0  0  0
   38.2280   34.5610   39.9260 C   0  0  0  0  0  3  0  0  0  0  0  0
   39.6040   34.4370   39.9990 C   0  0  0  0  0  0  0  0  0  0  0  0
   40.6340   35.8480   40.0170 Cl  0  0  0  0  0  0  0  0  0  0  0  0
   40.1940   33.1930   40.0600 C   0  0  0  0  0  0  0  0  0  0  0  0
   41.2790   33.0060   40.1200 H   0  0  0  0  0  0  0  0  0  0  0  0
   37.0530   27.5020   39.7660 C   0  0  0  0  0  3  0  0  0  0  0  0
   36.0420   28.2770   40.0380 C   0  0  0  0  0  3  0  0  0  0  0  0
   36.9900   24.2610   41.4350 C   0  0  0  0  0  0  0  0  0  0  0  0
   38.1910   24.2820   42.1770 C   0  0  0  0  0  0  0  0  0  0  0  0
   39.0120   25.4120   42.0990 C   0  0  0  0  0  0  0  0  0  0  0  0
   38.5940   26.4060   41.3110 N   0  0  0  0  0  0  0  0  0  0  0  0
   37.4560   26.3850   40.6080 C   0  0  0  0  0  0  0  0  0  0  0  0
   36.6430   25.3040   40.6660 N   0  0  0  0  0  0  0  0  0  0  0  0
   36.4150   23.3410   41.5580 H   0  0  0  0  0  0  0  0  0  0  0  0
   38.5520   23.4980   42.8190 H   0  0  0  0  0  0  0  0  0  0  0  0
   40.1920   25.5400   42.7730 O   0  0  0  0  0  0  0  0  0  0  0  0
   40.2700   26.6060   43.7290 C   0  0  0  0  0  0  0  0  0  0  0  0
   39.0630   26.6810   44.4300 F   0  0  0  0  0  0  0  0  0  0  0  0
   41.2880   26.2620   44.6330 F   0  0  0  0  0  0  0  0  0  0  0  0
   40.5780   27.8250   43.1410 F   0  0  0  0  0  0  0  0  0  0  0  0
  1  2  1  0  0  0  0
  1 19  1  0  0  0  0
  3  1  1  0  0  0  0
  4 10  1  0  0  0  0
  4  5  2  0  0  0  0
  6  1  1  0  0  0  0
  6  4  1  0  0  0  0
  7  6  1  0  0  0  0
  9 16  1  0  0  0  0
  9  8  1  0  0  0  0
 10  9  2  0  0  0  0
 11 13  2  0  0  0  0
 11 10  1  0  0  0  0
 12 11  1  0  0  0  0
 13 14  1  0  0  0  0
 14 15  1  0  0  0  0
 14 16  2  0  0  0  0
 16 17  1  0  0  0  0
 18 19  2  0  0  0  0
 18 24  1  0  0  0  0
 20 26  1  0  0  0  0
 20 21  1  0  0  0  0
 21 27  1  0  0  0  0
 22 21  2  0  0  0  0
 22 28  1  0  0  0  0
 23 22  1  0  0  0  0
 24 25  1  0  0  0  0
 24 23  2  0  0  0  0
 25 20  2  0  0  0  0
 28 29  1  0  0  0  0
 29 30  1  0  0  0  0
 29 31  1  0  0  0  0
 32 29  1  0  0  0  0
M  END
>  <minimizedAffinity>
-5.54240894

$$$$

 OpenBabel03242520543D

 32 33  0  0  0  0  0  0  0  0999 V2000
   38.3760   34.8220   39.9460 C   0  0  0  0  0  0  0  0  0  0  0  0
   37.7620   35.7030   40.0940 H   0  0  0  0  0  0  0  0  0  0  0  0
   38.9380   35.0240   38.9830 H   0  0  0  0  0  0  0  0  0  0  0  0
   40.6550   34.8150   40.3780 C   0  0  0  0  0  0  0  0  0  0  0  0
   41.1110   35.2430   39.2930 O   0  0  0  0  0  0  0  0  0  0  0  0
   39.3790   34.5570   40.9160 N   0  0  0  0  0  0  0  0  0  0  0  0
   39.3040   34.2230   41.8940 H   0  0  0  0  0  0  0  0  0  0  0  0
   42.0730   32.1000   40.3430 Cl  0  0  0  0  0  0  0  0  0  0  0  0
   42.7090   33.4720   41.2170 C   0  0  0  0  0  0  0  0  0  0  0  0
   41.9290   34.5970   41.1050 C   0  0  0  0  0  0  0  0  0  0  0  0
   42.2870   35.7890   41.7400 C   0  0  0  0  0  0  0  0  0  0  0  0
   41.7670   36.7370   41.7340 H   0  0  0  0  0  0  0  0  0  0  0  0
   43.4520   35.8490   42.4990 C   0  0  0  0  0  3  0  0  0  0  0  0
   44.2300   34.7100   42.6050 C   0  0  0  0  0  0  0  0  0  0  0  0
   45.7050   34.7140   43.5430 Cl  0  0  0  0  0  0  0  0  0  0  0  0
   43.8600   33.5440   41.9710 C   0  0  0  0  0  0  0  0  0  0  0  0
   44.4200   32.5960   42.0040 H   0  0  0  0  0  0  0  0  0  0  0  0
   37.6730   32.5240   40.3260 C   0  0  0  0  0  3  0  0  0  0  0  0
   37.5600   33.6200   39.6320 C   0  0  0  0  0  3  0  0  0  0  0  0
   35.7420   29.4840   40.8940 C   0  0  0  0  0  0  0  0  0  0  0  0
   35.4440   29.0660   39.5790 C   0  0  0  0  0  0  0  0  0  0  0  0
   35.9120   29.8330   38.5070 C   0  0  0  0  0  0  0  0  0  0  0  0
   36.6170   30.9260   38.8100 N   0  0  0  0  0  0  0  0  0  0  0  0
   36.8980   31.3210   40.0570 C   0  0  0  0  0  0  0  0  0  0  0  0
   36.4570   30.5970   41.1140 N   0  0  0  0  0  0  0  0  0  0  0  0
   35.3370   28.8250   41.6650 H   0  0  0  0  0  0  0  0  0  0  0  0
   34.8810   28.1920   39.3050 H   0  0  0  0  0  0  0  0  0  0  0  0
   35.6860   29.5230   37.1960 O   0  0  0  0  0  0  0  0  0  0  0  0
   36.6980   28.7520   36.5380 C   0  0  0  0  0  0  0  0  0  0  0  0
   36.2100   27.4640   36.2980 F   0  0  0  0  0  0  0  0  0  0  0  0
   36.9370   29.3730   35.3010 F   0  0  0  0  0  0  0  0  0  0  0  0
   37.8840   28.7050   37.2580 F   0  0  0  0  0  0  0  0  0  0  0  0
  1  2  1  0  0  0  0
  1  6  1  0  0  0  0
  3  1  1  0  0  0  0
  4  6  1  0  0  0  0
  4 10  1  0  0  0  0
  5  4  2  0  0  0  0
  6  7  1  0  0  0  0
  8  9  1  0  0  0  0
  9 16  1  0  0  0  0
 10  9  2  0  0  0  0
 10 11  1  0  0  0  0
 11 13  2  0  0  0  0
 12 11  1  0  0  0  0
 13 14  1  0  0  0  0
 14 15  1  0  0  0  0
 16 17  1  0  0  0  0
 16 14  2  0  0  0  0
 19  1  1  0  0  0  0
 19 18  2  0  0  0  0
 20 25  1  0  0  0  0
 20 26  1  0  0  0  0
 21 20  2  0  0  0  0
 22 23  2  0  0  0  0
 22 21  1  0  0  0  0
 23 24  1  0  0  0  0
 24 18  1  0  0  0  0
 24 25  2  0  0  0  0
 27 21  1  0  0  0  0
 28 22  1  0  0  0  0
 29 28  1  0  0  0  0
 29 32  1  0  0  0  0
 30 29  1  0  0  0  0
 31 29  1  0  0  0  0
M  END
>  <minimizedAffinity>
-5.53303719

$$$$

 OpenBabel03242520543D

 32 33  0  0  0  0  0  0  0  0999 V2000
   34.1970   28.0650   37.7420 C   0  0  0  0  0  0  0  0  0  0  0  0
   33.9750   27.0200   37.9200 H   0  0  0  0  0  0  0  0  0  0  0  0
   34.6230   28.0920   36.6920 H   0  0  0  0  0  0  0  0  0  0  0  0
   32.7180   29.2420   36.3960 C   0  0  0  0  0  0  0  0  0  0  0  0
   33.0740   28.8670   35.2560 O   0  0  0  0  0  0  0  0  0  0  0  0
   33.1000   28.9680   37.7240 N   0  0  0  0  0  0  0  0  0  0  0  0
   32.5830   29.4210   38.5000 H   0  0  0  0  0  0  0  0  0  0  0  0
   30.5860   30.1270   38.4070 Cl  0  0  0  0  0  0  0  0  0  0  0  0
   30.5980   30.6930   36.7550 C   0  0  0  0  0  0  0  0  0  0  0  0
   31.6370   30.1820   36.0140 C   0  0  0  0  0  0  0  0  0  0  0  0
   31.8030   30.5280   34.6700 C   0  0  0  0  0  0  0  0  0  0  0  0
   32.5690   30.2010   33.9820 H   0  0  0  0  0  0  0  0  0  0  0  0
   30.9080   31.4040   34.0640 C   0  0  0  0  0  3  0  0  0  0  0  0
   29.8660   31.9120   34.8180 C   0  0  0  0  0  0  0  0  0  0  0  0
   28.7040   33.0150   34.1190 Cl  0  0  0  0  0  0  0  0  0  0  0  0
   29.7190   31.5580   36.1420 C   0  0  0  0  0  0  0  0  0  0  0  0
   28.9210   31.9160   36.8120 H   0  0  0  0  0  0  0  0  0  0  0  0
   35.2530   28.5040   39.8890 C   0  0  0  0  0  3  0  0  0  0  0  0
   35.3170   28.5510   38.5890 C   0  0  0  0  0  3  0  0  0  0  0  0
   37.8500   30.6360   41.3050 C   0  0  0  0  0  0  0  0  0  0  0  0
   38.3250   29.8570   42.3820 C   0  0  0  0  0  0  0  0  0  0  0  0
   37.7490   28.6030   42.6120 C   0  0  0  0  0  0  0  0  0  0  0  0
   36.7720   28.2290   41.7820 N   0  0  0  0  0  0  0  0  0  0  0  0
   36.3220   28.9680   40.7610 C   0  0  0  0  0  0  0  0  0  0  0  0
   36.8630   30.1860   40.5170 N   0  0  0  0  0  0  0  0  0  0  0  0
   38.3590   31.5970   41.2020 H   0  0  0  0  0  0  0  0  0  0  0  0
   39.1090   30.1320   43.0650 H   0  0  0  0  0  0  0  0  0  0  0  0
   38.1290   27.7670   43.6210 O   0  0  0  0  0  0  0  0  0  0  0  0
   39.1720   26.8310   43.3180 C   0  0  0  0  0  0  0  0  0  0  0  0
   40.0170   26.7120   44.4240 F   0  0  0  0  0  0  0  0  0  0  0  0
   38.5490   25.5910   43.0990 F   0  0  0  0  0  0  0  0  0  0  0  0
   39.8890   27.1840   42.1830 F   0  0  0  0  0  0  0  0  0  0  0  0
  1  2  1  0  0  0  0
  1 19  1  0  0  0  0
  3  1  1  0  0  0  0
  4  6  1  0  0  0  0
  5  4  2  0  0  0  0
  6  1  1  0  0  0  0
  6  7  1  0  0  0  0
  9  8  1  0  0  0  0
 10  4  1  0  0  0  0
 10  9  2  0  0  0  0
 11 10  1  0  0  0  0
 12 11  1  0  0  0  0
 13 11  2  0  0  0  0
 13 14  1  0  0  0  0
 14 16  2  0  0  0  0
 15 14  1  0  0  0  0
 16  9  1  0  0  0  0
 16 17  1  0  0  0  0
 18 24  1  0  0  0  0
 19 18  2  0  0  0  0
 20 21  1  0  0  0  0
 21 22  2  0  0  0  0
 21 27  1  0  0  0  0
 22 28  1  0  0  0  0
 23 22  1  0  0  0  0
 24 23  2  0  0  0  0
 25 24  1  0  0  0  0
 25 20  2  0  0  0  0
 26 20  1  0  0  0  0
 29 28  1  0  0  0  0
 29 30  1  0  0  0  0
 31 29  1  0  0  0  0
 32 29  1  0  0  0  0
M  END
>  <minimizedAffinity>
-5.50663614

$$$$

 OpenBabel03242520543D

 32 33  0  0  0  0  0  0  0  0999 V2000
   37.7810   31.5740   40.2590 C   0  0  0  0  0  0  0  0  0  0  0  0
   36.7170   31.7700   40.1950 H   0  0  0  0  0  0  0  0  0  0  0  0
   38.1440   31.6130   39.1860 H   0  0  0  0  0  0  0  0  0  0  0  0
   39.7470   32.8060   40.2270 C   0  0  0  0  0  0  0  0  0  0  0  0
   40.2320   32.4630   39.1250 O   0  0  0  0  0  0  0  0  0  0  0  0
   38.5760   32.5220   40.9580 N   0  0  0  0  0  0  0  0  0  0  0  0
   38.4220   32.9980   41.8660 H   0  0  0  0  0  0  0  0  0  0  0  0
   39.4530   35.8480   40.0350 Cl  0  0  0  0  0  0  0  0  0  0  0  0
   40.8850   35.0900   40.6870 C   0  0  0  0  0  0  0  0  0  0  0  0
   40.8200   33.7180   40.6900 C   0  0  0  0  0  0  0  0  0  0  0  0
   41.8790   32.9470   41.1780 C   0  0  0  0  0  0  0  0  0  0  0  0
   41.9550   31.8700   41.2370 H   0  0  0  0  0  0  0  0  0  0  0  0
   43.0210   33.5700   41.6730 C   0  0  0  0  0  3  0  0  0  0  0  0
   43.0750   34.9520   41.6660 C   0  0  0  0  0  0  0  0  0  0  0  0
   44.4790   35.7990   42.2710 Cl  0  0  0  0  0  0  0  0  0  0  0  0
   42.0210   35.6940   41.1800 C   0  0  0  0  0  0  0  0  0  0  0  0
   41.9830   36.7950   41.1380 H   0  0  0  0  0  0  0  0  0  0  0  0
   38.2740   29.8730   41.9270 C   0  0  0  0  0  3  0  0  0  0  0  0
   38.0670   30.1770   40.6780 C   0  0  0  0  0  3  0  0  0  0  0  0
   40.0400   27.0510   43.4130 C   0  0  0  0  0  0  0  0  0  0  0  0
   39.1130   25.9980   43.2540 C   0  0  0  0  0  0  0  0  0  0  0  0
   37.8870   26.2670   42.6360 C   0  0  0  0  0  0  0  0  0  0  0  0
   37.6790   27.5240   42.2350 N   0  0  0  0  0  0  0  0  0  0  0  0
   38.5580   28.5210   42.3860 C   0  0  0  0  0  0  0  0  0  0  0  0
   39.7520   28.2870   42.9820 N   0  0  0  0  0  0  0  0  0  0  0  0
   40.9670   26.7470   43.9050 H   0  0  0  0  0  0  0  0  0  0  0  0
   39.2530   24.9780   43.5660 H   0  0  0  0  0  0  0  0  0  0  0  0
   36.9190   25.3270   42.4290 O   0  0  0  0  0  0  0  0  0  0  0  0
   37.1310   24.4200   41.3410 C   0  0  0  0  0  0  0  0  0  0  0  0
   35.9120   23.8300   40.9920 F   0  0  0  0  0  0  0  0  0  0  0  0
   37.5780   25.1900   40.2550 F   0  0  0  0  0  0  0  0  0  0  0  0
   38.0820   23.4530   41.6330 F   0  0  0  0  0  0  0  0  0  0  0  0
  1 19  1  0  0  0  0
  1  6  1  0  0  0  0
  2  1  1  0  0  0  0
  3  1  1  0  0  0  0
  4 10  1  0  0  0  0
  4  6  1  0  0  0  0
  5  4  2  0  0  0  0
  6  7  1  0  0  0  0
  8  9  1  0  0  0  0
  9 10  2  0  0  0  0
  9 16  1  0  0  0  0
 10 11  1  0  0  0  0
 11 12  1  0  0  0  0
 11 13  2  0  0  0  0
 14 13  1  0  0  0  0
 14 15  1  0  0  0  0
 16 14  2  0  0  0  0
 17 16  1  0  0  0  0
 18 24  1  0  0  0  0
 19 18  2  0  0  0  0
 20 26  1  0  0  0  0
 21 20  1  0  0  0  0
 21 27  1  0  0  0  0
 22 21  2  0  0  0  0
 23 24  2  0  0  0  0
 23 22  1  0  0  0  0
 24 25  1  0  0  0  0
 25 20  2  0  0  0  0
 28 22  1  0  0  0  0
 29 32  1  0  0  0  0
 29 28  1  0  0  0  0
 30 29  1  0  0  0  0
 31 29  1  0  0  0  0
M  END
>  <minimizedAffinity>
-5.47364902

$$$$
