
 OpenBabel03252503273D

 26 27  0  0  0  0  0  0  0  0999 V2000
   45.0810   34.4370   42.6760 C   0  0  0  0  0  0  0  0  0  0  0  0
   46.1140   34.8590   41.8190 C   0  0  0  0  0  0  0  0  0  0  0  0
   47.4270   34.6840   42.2880 C   0  0  0  0  0  0  0  0  0  0  0  0
   47.5970   34.1310   43.5140 N   0  0  0  0  0  0  0  0  0  0  0  0
   46.5730   33.7400   44.3020 C   0  0  0  0  0  0  0  0  0  0  0  0
   45.3090   33.8960   43.8780 N   0  0  0  0  0  0  0  0  0  0  0  0
   43.3440   33.6080   41.3180 C   0  0  0  0  0  0  0  0  0  0  0  0
   44.2330   32.7860   40.9350 O   0  0  0  0  0  0  0  0  0  0  0  0
   43.7170   34.5680   42.3020 N   0  0  0  0  0  0  0  0  0  0  0  0
   45.8640   35.2890   40.8610 H   0  0  0  0  0  0  0  0  0  0  0  0
   46.7340   33.3010   45.2770 H   0  0  0  0  0  0  0  0  0  0  0  0
   43.0200   35.2580   42.6620 H   0  0  0  0  0  0  0  0  0  0  0  0
   43.0100   34.8580   38.5710 Cl  0  0  0  0  0  0  0  0  0  0  0  0
   41.7180   34.1390   39.5330 C   0  0  0  0  0  0  0  0  0  0  0  0
   41.9740   33.5920   40.7820 C   0  0  0  0  0  0  0  0  0  0  0  0
   40.9240   33.0300   41.5170 C   0  0  0  0  0  0  0  0  0  0  0  0
   41.1080   32.5990   42.4920 H   0  0  0  0  0  0  0  0  0  0  0  0
   39.6310   33.0180   41.0040 C   0  0  0  0  0  3  0  0  0  0  0  0
   39.3610   33.5570   39.7670 C   0  0  0  0  0  0  0  0  0  0  0  0
   37.7430   33.5400   39.1270 Cl  0  0  0  0  0  0  0  0  0  0  0  0
   40.4230   34.1120   39.0500 C   0  0  0  0  0  0  0  0  0  0  0  0
   40.2280   34.5370   38.0810 H   0  0  0  0  0  0  0  0  0  0  0  0
   48.4750   35.1280   41.3840 C   0  0  0  0  0  0  0  0  0  0  0  0
   49.5930   34.3110   41.5600 F   0  0  0  0  0  0  0  0  0  0  0  0
   48.8730   36.3990   41.7880 F   0  0  0  0  0  0  0  0  0  0  0  0
   48.1200   35.0720   40.0680 F   0  0  0  0  0  0  0  0  0  0  0  0
  1  6  1  0  0  0  0
  2  3  1  0  0  0  0
  2  1  2  0  0  0  0
  3  4  2  0  0  0  0
  4  5  1  0  0  0  0
  5 11  1  0  0  0  0
  6  5  2  0  0  0  0
  7  9  1  0  0  0  0
  8  7  2  0  0  0  0
  9 12  1  0  0  0  0
  9  1  1  0  0  0  0
 10  2  1  0  0  0  0
 13 14  1  0  0  0  0
 14 15  1  0  0  0  0
 15  7  1  0  0  0  0
 15 16  2  0  0  0  0
 16 17  1  0  0  0  0
 18 16  1  0  0  0  0
 19 18  2  0  0  0  0
 20 19  1  0  0  0  0
 21 14  2  0  0  0  0
 21 19  1  0  0  0  0
 22 21  1  0  0  0  0
 23 24  1  0  0  0  0
 23 25  1  0  0  0  0
 23  3  1  0  0  0  0
 26 23  1  0  0  0  0
M  END
>  <minimizedAffinity>
-5.86805582

>  <minimizedRMSD>
2.08031464

$$$$
