
 OpenBabel03242513123D

 21 22  0  0  0  0  0  0  0  0999 V2000
   37.0560   27.5960   42.7980 C   0  0  0  0  0  0  0  0  0  0  0  0
   36.1650   27.4110   43.6800 O   0  0  0  0  0  0  0  0  0  0  0  0
   37.1310   24.6780   42.0320 Cl  0  0  0  0  0  0  0  0  0  0  0  0
   38.5190   25.5940   42.5540 C   0  0  0  0  0  0  0  0  0  0  0  0
   38.3620   26.9090   42.8750 C   0  0  0  0  0  0  0  0  0  0  0  0
   39.4040   27.7280   43.3000 C   0  0  0  0  0  0  0  0  0  0  0  0
   39.2520   28.7880   43.5540 H   0  0  0  0  0  0  0  0  0  0  0  0
   40.6780   27.2110   43.4170 C   0  0  0  0  0  3  0  0  0  0  0  0
   40.8590   25.8650   43.0930 C   0  0  0  0  0  0  0  0  0  0  0  0
   42.4670   25.1600   43.2260 Cl  0  0  0  0  0  0  0  0  0  0  0  0
   39.7890   25.0900   42.6730 C   0  0  0  0  0  0  0  0  0  0  0  0
   39.9410   24.0330   42.4210 H   0  0  0  0  0  0  0  0  0  0  0  0
   36.4370   28.7120   39.3920 C   0  0  0  0  0  0  0  0  0  0  0  0
   36.4350   30.1070   39.4800 C   0  0  0  0  0  0  0  0  0  0  0  0
   36.6530   30.6630   40.7450 C   0  0  0  0  0  0  0  0  0  0  0  0
   36.8510   29.8350   41.7990 N   0  0  0  0  0  0  0  0  0  0  0  0
   36.8430   28.4930   41.6630 C   0  0  0  0  0  0  0  0  0  0  0  0
   36.6360   27.9480   40.4600 N   0  0  0  0  0  0  0  0  0  0  0  0
   36.2640   28.3480   38.3930 H   0  0  0  0  0  0  0  0  0  0  0  0
   36.2910   30.8440   38.7170 H   0  0  0  0  0  0  0  0  0  0  0  0
   36.6960   31.6970   41.0530 H   0  0  0  0  0  0  0  0  0  0  0  0
  1  5  1  0  0  0  0
  1  2  2  0  0  0  0
  3  4  1  0  0  0  0
  4 11  2  0  0  0  0
  4  5  1  0  0  0  0
  5  6  2  0  0  0  0
  6  8  1  0  0  0  0
  6  7  1  0  0  0  0
  9 10  1  0  0  0  0
  9  8  2  0  0  0  0
 11  9  1  0  0  0  0
 12 11  1  0  0  0  0
 13 14  2  0  0  0  0
 13 18  1  0  0  0  0
 14 15  1  0  0  0  0
 15 21  1  0  0  0  0
 15 16  2  0  0  0  0
 17 16  1  0  0  0  0
 17  1  1  0  0  0  0
 18 17  2  0  0  0  0
 19 13  1  0  0  0  0
 20 14  1  0  0  0  0
M  END
>  <minimizedAffinity>
-4.74405479

$$$$

 OpenBabel03242513123D

 21 22  0  0  0  0  0  0  0  0999 V2000
   35.4460   29.1940   40.1720 C   0  0  0  0  0  0  0  0  0  0  0  0
   34.1820   29.2100   40.0830 O   0  0  0  0  0  0  0  0  0  0  0  0
   36.0510   27.0520   38.1350 Cl  0  0  0  0  0  0  0  0  0  0  0  0
   36.4930   26.9610   39.8190 C   0  0  0  0  0  0  0  0  0  0  0  0
   36.1650   27.9930   40.6450 C   0  0  0  0  0  0  0  0  0  0  0  0
   36.4720   28.0200   42.0020 C   0  0  0  0  0  0  0  0  0  0  0  0
   36.1960   28.8650   42.6500 H   0  0  0  0  0  0  0  0  0  0  0  0
   37.1420   26.9580   42.5740 C   0  0  0  0  0  3  0  0  0  0  0  0
   37.4870   25.8910   41.7430 C   0  0  0  0  0  0  0  0  0  0  0  0
   38.3440   24.5130   42.4270 Cl  0  0  0  0  0  0  0  0  0  0  0  0
   37.1600   25.9110   40.3970 C   0  0  0  0  0  0  0  0  0  0  0  0
   37.4340   25.0670   39.7510 H   0  0  0  0  0  0  0  0  0  0  0  0
   37.3600   31.5320   38.1480 C   0  0  0  0  0  0  0  0  0  0  0  0
   37.7830   32.5090   39.0550 C   0  0  0  0  0  0  0  0  0  0  0  0
   37.3960   32.3460   40.3880 C   0  0  0  0  0  0  0  0  0  0  0  0
   36.6430   31.2710   40.7250 N   0  0  0  0  0  0  0  0  0  0  0  0
   36.2580   30.3560   39.8130 C   0  0  0  0  0  0  0  0  0  0  0  0
   36.6220   30.4980   38.5340 N   0  0  0  0  0  0  0  0  0  0  0  0
   37.6910   31.7160   37.1390 H   0  0  0  0  0  0  0  0  0  0  0  0
   38.3740   33.3870   38.8930 H   0  0  0  0  0  0  0  0  0  0  0  0
   37.6000   32.9610   41.2530 H   0  0  0  0  0  0  0  0  0  0  0  0
  1  5  1  0  0  0  0
  2  1  2  0  0  0  0
  3  4  1  0  0  0  0
  4 11  2  0  0  0  0
  4  5  1  0  0  0  0
  5  6  2  0  0  0  0
  6  8  1  0  0  0  0
  6  7  1  0  0  0  0
  9 10  1  0  0  0  0
  9  8  2  0  0  0  0
 11  9  1  0  0  0  0
 12 11  1  0  0  0  0
 13 18  2  0  0  0  0
 13 14  1  0  0  0  0
 14 15  2  0  0  0  0
 15 16  1  0  0  0  0
 15 21  1  0  0  0  0
 17  1  1  0  0  0  0
 17 16  2  0  0  0  0
 18 17  1  0  0  0  0
 19 13  1  0  0  0  0
 20 14  1  0  0  0  0
M  END
>  <minimizedAffinity>
-4.72271347

$$$$

 OpenBabel03242513123D

 21 22  0  0  0  0  0  0  0  0999 V2000
   36.8140   27.4210   42.5020 C   0  0  0  0  0  0  0  0  0  0  0  0
   36.2470   27.3510   43.6340 O   0  0  0  0  0  0  0  0  0  0  0  0
   39.2430   29.1140   43.0800 Cl  0  0  0  0  0  0  0  0  0  0  0  0
   37.9810   29.5540   41.9610 C   0  0  0  0  0  0  0  0  0  0  0  0
   36.9300   28.7070   41.7830 C   0  0  0  0  0  0  0  0  0  0  0  0
   35.8720   28.9630   40.9150 C   0  0  0  0  0  0  0  0  0  0  0  0
   35.0340   28.2620   40.7880 H   0  0  0  0  0  0  0  0  0  0  0  0
   35.8560   30.1310   40.1810 C   0  0  0  0  0  3  0  0  0  0  0  0
   36.9260   31.0130   40.3500 C   0  0  0  0  0  0  0  0  0  0  0  0
   36.9500   32.5160   39.4340 Cl  0  0  0  0  0  0  0  0  0  0  0  0
   37.9560   30.7120   41.2260 C   0  0  0  0  0  0  0  0  0  0  0  0
   38.7920   31.4120   41.3530 H   0  0  0  0  0  0  0  0  0  0  0  0
   37.3840   23.9330   41.6480 C   0  0  0  0  0  0  0  0  0  0  0  0
   38.3880   23.9750   40.6750 C   0  0  0  0  0  0  0  0  0  0  0  0
   38.8700   25.2370   40.3160 C   0  0  0  0  0  0  0  0  0  0  0  0
   38.3490   26.3330   40.9180 N   0  0  0  0  0  0  0  0  0  0  0  0
   37.3800   26.2410   41.8500 C   0  0  0  0  0  0  0  0  0  0  0  0
   36.9090   25.0410   42.2040 N   0  0  0  0  0  0  0  0  0  0  0  0
   37.0570   22.9330   41.8790 H   0  0  0  0  0  0  0  0  0  0  0  0
   38.8640   23.1770   40.1440 H   0  0  0  0  0  0  0  0  0  0  0  0
   39.6320   25.5150   39.6010 H   0  0  0  0  0  0  0  0  0  0  0  0
  1  2  2  0  0  0  0
  4  3  1  0  0  0  0
  5  4  1  0  0  0  0
  5  1  1  0  0  0  0
  6  5  2  0  0  0  0
  7  6  1  0  0  0  0
  8  9  2  0  0  0  0
  8  6  1  0  0  0  0
  9 11  1  0  0  0  0
 10  9  1  0  0  0  0
 11 12  1  0  0  0  0
 11  4  2  0  0  0  0
 13 19  1  0  0  0  0
 13 18  1  0  0  0  0
 14 13  2  0  0  0  0
 15 14  1  0  0  0  0
 15 16  2  0  0  0  0
 16 17  1  0  0  0  0
 17 18  2  0  0  0  0
 17  1  1  0  0  0  0
 20 14  1  0  0  0  0
 21 15  1  0  0  0  0
M  END
>  <minimizedAffinity>
-4.70710945

$$$$

 OpenBabel03242513123D

 21 22  0  0  0  0  0  0  0  0999 V2000
   38.9180   30.3150   42.0580 C   0  0  0  0  0  0  0  0  0  0  0  0
   39.7850   30.7210   42.8890 O   0  0  0  0  0  0  0  0  0  0  0  0
   40.3930   28.3690   40.2860 Cl  0  0  0  0  0  0  0  0  0  0  0  0
   39.0410   27.9450   41.3010 C   0  0  0  0  0  0  0  0  0  0  0  0
   38.4540   28.9120   42.0600 C   0  0  0  0  0  0  0  0  0  0  0  0
   37.3710   28.6800   42.9030 C   0  0  0  0  0  0  0  0  0  0  0  0
   36.9140   29.4780   43.5050 H   0  0  0  0  0  0  0  0  0  0  0  0
   36.8380   27.4110   42.9980 C   0  0  0  0  0  3  0  0  0  0  0  0
   37.4260   26.4050   42.2280 C   0  0  0  0  0  0  0  0  0  0  0  0
   36.7810   24.7700   42.3170 Cl  0  0  0  0  0  0  0  0  0  0  0  0
   38.5030   26.6870   41.4040 C   0  0  0  0  0  0  0  0  0  0  0  0
   38.9590   25.8910   40.8020 H   0  0  0  0  0  0  0  0  0  0  0  0
   38.2090   33.3500   40.1840 C   0  0  0  0  0  0  0  0  0  0  0  0
   37.2850   32.9500   39.2140 C   0  0  0  0  0  0  0  0  0  0  0  0
   36.9060   31.6040   39.2170 C   0  0  0  0  0  0  0  0  0  0  0  0
   37.4440   30.7740   40.1430 N   0  0  0  0  0  0  0  0  0  0  0  0
   38.3340   31.2080   41.0570 C   0  0  0  0  0  0  0  0  0  0  0  0
   38.7060   32.4920   41.0670 N   0  0  0  0  0  0  0  0  0  0  0  0
   38.4590   34.3970   40.1280 H   0  0  0  0  0  0  0  0  0  0  0  0
   36.8040   33.5200   38.4470 H   0  0  0  0  0  0  0  0  0  0  0  0
   36.2180   31.0730   38.5750 H   0  0  0  0  0  0  0  0  0  0  0  0
  1  5  1  0  0  0  0
  1  2  2  0  0  0  0
  3  4  1  0  0  0  0
  4 11  2  0  0  0  0
  4  5  1  0  0  0  0
  5  6  2  0  0  0  0
  6  8  1  0  0  0  0
  6  7  1  0  0  0  0
  9 10  1  0  0  0  0
  9  8  2  0  0  0  0
 11  9  1  0  0  0  0
 12 11  1  0  0  0  0
 13 18  1  0  0  0  0
 14 15  1  0  0  0  0
 14 13  2  0  0  0  0
 15 16  2  0  0  0  0
 16 17  1  0  0  0  0
 17 18  2  0  0  0  0
 17  1  1  0  0  0  0
 19 13  1  0  0  0  0
 20 14  1  0  0  0  0
 21 15  1  0  0  0  0
M  END
>  <minimizedAffinity>
-4.65972376

$$$$

 OpenBabel03242513123D

 21 22  0  0  0  0  0  0  0  0999 V2000
   38.6510   28.4950   42.1590 C   0  0  0  0  0  0  0  0  0  0  0  0
   39.4140   28.8000   43.1240 O   0  0  0  0  0  0  0  0  0  0  0  0
   36.3240   27.2700   43.6380 Cl  0  0  0  0  0  0  0  0  0  0  0  0
   37.2970   26.4260   42.4630 C   0  0  0  0  0  0  0  0  0  0  0  0
   38.3240   27.0850   41.8590 C   0  0  0  0  0  0  0  0  0  0  0  0
   39.1590   26.5050   40.9080 C   0  0  0  0  0  0  0  0  0  0  0  0
   39.9830   27.0580   40.4340 H   0  0  0  0  0  0  0  0  0  0  0  0
   38.9630   25.1900   40.5360 C   0  0  0  0  0  3  0  0  0  0  0  0
   37.9150   24.4980   41.1450 C   0  0  0  0  0  0  0  0  0  0  0  0
   37.6260   22.8190   40.7020 Cl  0  0  0  0  0  0  0  0  0  0  0  0
   37.1110   25.1200   42.0860 C   0  0  0  0  0  0  0  0  0  0  0  0
   36.2890   24.5680   42.5590 H   0  0  0  0  0  0  0  0  0  0  0  0
   36.2790   30.9440   40.8970 C   0  0  0  0  0  0  0  0  0  0  0  0
   36.8710   31.4290   39.7270 C   0  0  0  0  0  0  0  0  0  0  0  0
   38.1130   30.8920   39.3760 C   0  0  0  0  0  0  0  0  0  0  0  0
   38.6680   29.9470   40.1740 N   0  0  0  0  0  0  0  0  0  0  0  0
   38.0570   29.5130   41.2950 C   0  0  0  0  0  0  0  0  0  0  0  0
   36.8680   30.0170   41.6420 N   0  0  0  0  0  0  0  0  0  0  0  0
   35.3240   31.3980   41.1100 H   0  0  0  0  0  0  0  0  0  0  0  0
   36.5210   32.1650   39.0330 H   0  0  0  0  0  0  0  0  0  0  0  0
   38.7520   31.1060   38.5310 H   0  0  0  0  0  0  0  0  0  0  0  0
  1  2  2  0  0  0  0
  4  3  1  0  0  0  0
  5  1  1  0  0  0  0
  5  4  2  0  0  0  0
  6  5  1  0  0  0  0
  7  6  1  0  0  0  0
  8  6  2  0  0  0  0
  8  9  1  0  0  0  0
  9 11  2  0  0  0  0
 10  9  1  0  0  0  0
 11  4  1  0  0  0  0
 11 12  1  0  0  0  0
 13 19  1  0  0  0  0
 13 18  1  0  0  0  0
 14 13  2  0  0  0  0
 15 14  1  0  0  0  0
 15 16  2  0  0  0  0
 16 17  1  0  0  0  0
 17 18  2  0  0  0  0
 17  1  1  0  0  0  0
 20 14  1  0  0  0  0
 21 15  1  0  0  0  0
M  END
>  <minimizedAffinity>
-4.59852791

$$$$

 OpenBabel03242513123D

 21 22  0  0  0  0  0  0  0  0999 V2000
   36.3140   30.1670   40.8330 C   0  0  0  0  0  0  0  0  0  0  0  0
   36.1610   31.3800   41.1700 O   0  0  0  0  0  0  0  0  0  0  0  0
   38.3110   30.2560   38.5730 Cl  0  0  0  0  0  0  0  0  0  0  0  0
   36.6770   29.6690   38.4200 C   0  0  0  0  0  0  0  0  0  0  0  0
   35.8650   29.6770   39.5130 C   0  0  0  0  0  0  0  0  0  0  0  0
   34.5480   29.2300   39.4980 C   0  0  0  0  0  0  0  0  0  0  0  0
   33.9110   29.2480   40.3960 H   0  0  0  0  0  0  0  0  0  0  0  0
   34.0010   28.7470   38.3270 C   0  0  0  0  0  3  0  0  0  0  0  0
   34.8180   28.7290   37.1950 C   0  0  0  0  0  0  0  0  0  0  0  0
   34.1660   28.1200   35.6770 Cl  0  0  0  0  0  0  0  0  0  0  0  0
   36.1250   29.1850   37.2600 C   0  0  0  0  0  0  0  0  0  0  0  0
   36.7590   29.1680   36.3650 H   0  0  0  0  0  0  0  0  0  0  0  0
   38.7440   28.6530   43.0750 C   0  0  0  0  0  0  0  0  0  0  0  0
   38.1810   27.4190   43.4130 C   0  0  0  0  0  0  0  0  0  0  0  0
   36.9390   27.1130   42.8500 C   0  0  0  0  0  0  0  0  0  0  0  0
   36.3560   28.0130   42.0210 N   0  0  0  0  0  0  0  0  0  0  0  0
   36.9390   29.1930   41.7270 C   0  0  0  0  0  0  0  0  0  0  0  0
   38.1280   29.4980   42.2570 N   0  0  0  0  0  0  0  0  0  0  0  0
   39.7000   28.8270   43.5420 H   0  0  0  0  0  0  0  0  0  0  0  0
   38.5550   26.6440   44.0500 H   0  0  0  0  0  0  0  0  0  0  0  0
   36.3200   26.2350   42.9610 H   0  0  0  0  0  0  0  0  0  0  0  0
  1  2  2  0  0  0  0
  1 17  1  0  0  0  0
  4  3  1  0  0  0  0
  4  5  1  0  0  0  0
  5  1  1  0  0  0  0
  6  5  2  0  0  0  0
  6  7  1  0  0  0  0
  8  6  1  0  0  0  0
  9 11  1  0  0  0  0
  9  8  2  0  0  0  0
 10  9  1  0  0  0  0
 11  4  2  0  0  0  0
 12 11  1  0  0  0  0
 13 14  1  0  0  0  0
 13 19  1  0  0  0  0
 14 20  1  0  0  0  0
 15 21  1  0  0  0  0
 15 14  2  0  0  0  0
 16 15  1  0  0  0  0
 17 16  2  0  0  0  0
 17 18  1  0  0  0  0
 18 13  2  0  0  0  0
M  END
>  <minimizedAffinity>
-4.52486897

$$$$

 OpenBabel03242513123D

 21 22  0  0  0  0  0  0  0  0999 V2000
   37.0620   27.4320   42.7740 C   0  0  0  0  0  0  0  0  0  0  0  0
   36.1750   27.3640   43.6760 O   0  0  0  0  0  0  0  0  0  0  0  0
   35.3920   28.8990   40.7340 Cl  0  0  0  0  0  0  0  0  0  0  0  0
   36.9020   29.4880   41.3760 C   0  0  0  0  0  0  0  0  0  0  0  0
   37.5680   28.7360   42.2950 C   0  0  0  0  0  0  0  0  0  0  0  0
   38.7770   29.1140   42.8700 C   0  0  0  0  0  0  0  0  0  0  0  0
   39.2970   28.4880   43.6100 H   0  0  0  0  0  0  0  0  0  0  0  0
   39.3620   30.3110   42.5090 C   0  0  0  0  0  3  0  0  0  0  0  0
   38.6940   31.0970   41.5690 C   0  0  0  0  0  0  0  0  0  0  0  0
   39.4010   32.6330   41.0780 Cl  0  0  0  0  0  0  0  0  0  0  0  0
   37.4910   30.6760   41.0250 C   0  0  0  0  0  0  0  0  0  0  0  0
   36.9730   31.3000   40.2860 H   0  0  0  0  0  0  0  0  0  0  0  0
   37.6130   24.7580   40.3720 C   0  0  0  0  0  0  0  0  0  0  0  0
   38.6370   23.9920   40.9370 C   0  0  0  0  0  0  0  0  0  0  0  0
   39.1380   24.4140   42.1720 C   0  0  0  0  0  0  0  0  0  0  0  0
   38.6150   25.5250   42.7450 N   0  0  0  0  0  0  0  0  0  0  0  0
   37.6290   26.2330   42.1590 C   0  0  0  0  0  0  0  0  0  0  0  0
   37.1390   25.8400   40.9790 N   0  0  0  0  0  0  0  0  0  0  0  0
   37.2720   24.3790   39.4220 H   0  0  0  0  0  0  0  0  0  0  0  0
   39.1150   23.1060   40.5710 H   0  0  0  0  0  0  0  0  0  0  0  0
   39.9150   23.9900   42.7910 H   0  0  0  0  0  0  0  0  0  0  0  0
  1  2  2  0  0  0  0
  3  4  1  0  0  0  0
  4  5  1  0  0  0  0
  5  1  1  0  0  0  0
  5  6  2  0  0  0  0
  6  7  1  0  0  0  0
  8  6  1  0  0  0  0
  9  8  2  0  0  0  0
 10  9  1  0  0  0  0
 11  4  2  0  0  0  0
 11  9  1  0  0  0  0
 12 11  1  0  0  0  0
 13 14  2  0  0  0  0
 13 18  1  0  0  0  0
 14 15  1  0  0  0  0
 15 16  2  0  0  0  0
 15 21  1  0  0  0  0
 17 16  1  0  0  0  0
 17  1  1  0  0  0  0
 18 17  2  0  0  0  0
 19 13  1  0  0  0  0
 20 14  1  0  0  0  0
M  END
>  <minimizedAffinity>
-4.50270605

$$$$

 OpenBabel03242513123D

 21 22  0  0  0  0  0  0  0  0999 V2000
   36.9510   27.2970   42.6980 C   0  0  0  0  0  0  0  0  0  0  0  0
   36.1410   27.2500   43.6720 O   0  0  0  0  0  0  0  0  0  0  0  0
   38.9470   29.5310   43.0530 Cl  0  0  0  0  0  0  0  0  0  0  0  0
   39.3600   27.8370   43.0300 C   0  0  0  0  0  0  0  0  0  0  0  0
   38.3700   26.9170   42.8620 C   0  0  0  0  0  0  0  0  0  0  0  0
   38.5910   25.5440   42.8310 C   0  0  0  0  0  0  0  0  0  0  0  0
   37.7740   24.8200   42.6930 H   0  0  0  0  0  0  0  0  0  0  0  0
   39.8730   25.0540   42.9720 C   0  0  0  0  0  3  0  0  0  0  0  0
   40.9020   25.9810   43.1460 C   0  0  0  0  0  0  0  0  0  0  0  0
   42.5550   25.4030   43.3310 Cl  0  0  0  0  0  0  0  0  0  0  0  0
   40.6300   27.3400   43.1710 C   0  0  0  0  0  0  0  0  0  0  0  0
   41.4460   28.0610   43.3070 H   0  0  0  0  0  0  0  0  0  0  0  0
   36.3970   27.2430   39.1040 C   0  0  0  0  0  0  0  0  0  0  0  0
   35.7690   28.4620   38.8320 C   0  0  0  0  0  0  0  0  0  0  0  0
   35.5380   29.3120   39.9180 C   0  0  0  0  0  0  0  0  0  0  0  0
   35.9280   28.9170   41.1540 N   0  0  0  0  0  0  0  0  0  0  0  0
   36.5290   27.7290   41.3650 C   0  0  0  0  0  0  0  0  0  0  0  0
   36.7570   26.9060   40.3370 N   0  0  0  0  0  0  0  0  0  0  0  0
   36.5460   26.6360   38.2260 H   0  0  0  0  0  0  0  0  0  0  0  0
   35.4260   28.8670   37.9020 H   0  0  0  0  0  0  0  0  0  0  0  0
   35.0770   30.2890   39.9530 H   0  0  0  0  0  0  0  0  0  0  0  0
  1  5  1  0  0  0  0
  1  2  2  0  0  0  0
  4  3  1  0  0  0  0
  4 11  1  0  0  0  0
  5  4  2  0  0  0  0
  6  5  1  0  0  0  0
  6  8  2  0  0  0  0
  7  6  1  0  0  0  0
  8  9  1  0  0  0  0
  9 11  2  0  0  0  0
  9 10  1  0  0  0  0
 11 12  1  0  0  0  0
 13 18  1  0  0  0  0
 14 13  2  0  0  0  0
 14 15  1  0  0  0  0
 15 21  1  0  0  0  0
 15 16  2  0  0  0  0
 16 17  1  0  0  0  0
 17  1  1  0  0  0  0
 18 17  2  0  0  0  0
 19 13  1  0  0  0  0
 20 14  1  0  0  0  0
M  END
>  <minimizedAffinity>
-4.47503376

$$$$

 OpenBabel03242513123D

 21 22  0  0  0  0  0  0  0  0999 V2000
   36.5580   30.2450   40.6750 C   0  0  0  0  0  0  0  0  0  0  0  0
   36.1350   31.3820   41.0420 O   0  0  0  0  0  0  0  0  0  0  0  0
   33.9840   29.1570   39.5390 Cl  0  0  0  0  0  0  0  0  0  0  0  0
   35.4580   29.3480   38.6280 C   0  0  0  0  0  0  0  0  0  0  0  0
   36.5600   29.8520   39.2510 C   0  0  0  0  0  0  0  0  0  0  0  0
   37.7830   30.0450   38.6160 C   0  0  0  0  0  0  0  0  0  0  0  0
   38.6590   30.4530   39.1410 H   0  0  0  0  0  0  0  0  0  0  0  0
   37.9220   29.7170   37.2830 C   0  0  0  0  0  3  0  0  0  0  0  0
   36.8030   29.1990   36.6270 C   0  0  0  0  0  0  0  0  0  0  0  0
   36.9320   28.7670   34.9250 Cl  0  0  0  0  0  0  0  0  0  0  0  0
   35.6070   29.0260   37.3030 C   0  0  0  0  0  0  0  0  0  0  0  0
   34.7330   28.6180   36.7790 H   0  0  0  0  0  0  0  0  0  0  0  0
   38.7390   28.6670   43.1200 C   0  0  0  0  0  0  0  0  0  0  0  0
   38.0840   27.4780   43.4520 C   0  0  0  0  0  0  0  0  0  0  0  0
   36.8670   27.2250   42.8130 C   0  0  0  0  0  0  0  0  0  0  0  0
   36.3940   28.1300   41.9220 N   0  0  0  0  0  0  0  0  0  0  0  0
   37.0640   29.2650   41.6360 C   0  0  0  0  0  0  0  0  0  0  0  0
   38.2300   29.5200   42.2390 N   0  0  0  0  0  0  0  0  0  0  0  0
   39.6710   28.8020   43.6460 H   0  0  0  0  0  0  0  0  0  0  0  0
   38.3680   26.7040   44.1340 H   0  0  0  0  0  0  0  0  0  0  0  0
   36.1910   26.3870   42.9060 H   0  0  0  0  0  0  0  0  0  0  0  0
  1  2  2  0  0  0  0
  1 17  1  0  0  0  0
  4  5  1  0  0  0  0
  4  3  1  0  0  0  0
  5  1  1  0  0  0  0
  6  7  1  0  0  0  0
  6  5  2  0  0  0  0
  8  6  1  0  0  0  0
  9  8  2  0  0  0  0
  9 11  1  0  0  0  0
 10  9  1  0  0  0  0
 11  4  2  0  0  0  0
 12 11  1  0  0  0  0
 13 14  1  0  0  0  0
 13 19  1  0  0  0  0
 14 20  1  0  0  0  0
 15 21  1  0  0  0  0
 15 14  2  0  0  0  0
 16 15  1  0  0  0  0
 17 16  2  0  0  0  0
 17 18  1  0  0  0  0
 18 13  2  0  0  0  0
M  END
>  <minimizedAffinity>
-4.46260166

$$$$
