
 OpenBabel03252503273D

 26 27  0  0  0  0  0  0  0  0999 V2000
   48.1480   34.3790   41.1940 C   0  0  0  0  0  0  0  0  0  0  0  0
   48.7190   33.1390   40.8500 C   0  0  0  0  0  0  0  0  0  0  0  0
   49.9560   32.8340   41.4440 C   0  0  0  0  0  0  0  0  0  0  0  0
   50.4970   33.7430   42.2910 N   0  0  0  0  0  0  0  0  0  0  0  0
   49.9110   34.9210   42.5910 C   0  0  0  0  0  0  0  0  0  0  0  0
   48.7300   35.2380   42.0380 N   0  0  0  0  0  0  0  0  0  0  0  0
   45.8110   34.0810   41.2370 C   0  0  0  0  0  0  0  0  0  0  0  0
   46.0820   33.2290   42.1390 O   0  0  0  0  0  0  0  0  0  0  0  0
   46.9010   34.7880   40.6520 N   0  0  0  0  0  0  0  0  0  0  0  0
   48.1990   32.4900   40.1630 H   0  0  0  0  0  0  0  0  0  0  0  0
   50.3630   35.6310   43.2700 H   0  0  0  0  0  0  0  0  0  0  0  0
   46.7310   35.5100   39.9160 H   0  0  0  0  0  0  0  0  0  0  0  0
   44.9340   32.5710   38.7530 Cl  0  0  0  0  0  0  0  0  0  0  0  0
   43.9390   33.7050   39.6650 C   0  0  0  0  0  0  0  0  0  0  0  0
   44.4330   34.3460   40.7940 C   0  0  0  0  0  0  0  0  0  0  0  0
   43.6160   35.2400   41.4940 C   0  0  0  0  0  0  0  0  0  0  0  0
   43.9870   35.7470   42.3740 H   0  0  0  0  0  0  0  0  0  0  0  0
   42.3140   35.4850   41.0680 C   0  0  0  0  0  3  0  0  0  0  0  0
   41.8100   34.8570   39.9530 C   0  0  0  0  0  0  0  0  0  0  0  0
   40.1800   35.1680   39.4230 Cl  0  0  0  0  0  0  0  0  0  0  0  0
   42.6410   33.9710   39.2690 C   0  0  0  0  0  0  0  0  0  0  0  0
   42.2610   33.4720   38.3940 H   0  0  0  0  0  0  0  0  0  0  0  0
   50.5240   31.5490   41.0720 C   0  0  0  0  0  0  0  0  0  0  0  0
   50.5080   30.7140   42.1890 F   0  0  0  0  0  0  0  0  0  0  0  0
   51.8680   31.7500   40.7740 F   0  0  0  0  0  0  0  0  0  0  0  0
   49.8420   30.9210   40.0710 F   0  0  0  0  0  0  0  0  0  0  0  0
  1  6  1  0  0  0  0
  2  1  2  0  0  0  0
  2  3  1  0  0  0  0
  3  4  2  0  0  0  0
  4  5  1  0  0  0  0
  5 11  1  0  0  0  0
  6  5  2  0  0  0  0
  7  8  2  0  0  0  0
  9  1  1  0  0  0  0
  9  7  1  0  0  0  0
 10  2  1  0  0  0  0
 12  9  1  0  0  0  0
 13 14  1  0  0  0  0
 14 15  1  0  0  0  0
 15  7  1  0  0  0  0
 15 16  2  0  0  0  0
 16 17  1  0  0  0  0
 18 16  1  0  0  0  0
 19 18  2  0  0  0  0
 20 19  1  0  0  0  0
 21 14  2  0  0  0  0
 21 19  1  0  0  0  0
 22 21  1  0  0  0  0
 23  3  1  0  0  0  0
 23 24  1  0  0  0  0
 25 23  1  0  0  0  0
 26 23  1  0  0  0  0
M  END
>  <minimizedAffinity>
-5.0826335

>  <minimizedRMSD>
3.74053216

$$$$
