
 OpenBabel03242523163D

 28 30  0  0  0  0  0  0  0  0999 V2000
   46.4430   34.3050   43.4800 C   0  0  0  0  0  0  0  0  0  0  0  0
   47.6020   33.7640   43.0290 C   0  0  0  0  0  0  0  0  0  0  0  0
   48.0050   32.6050   43.6930 C   0  0  0  0  0  0  0  0  0  0  0  0
   47.2170   32.1270   44.7210 N   0  0  0  0  0  0  0  0  0  0  0  0
   46.0950   32.7140   45.1060 C   0  0  0  0  0  0  0  0  0  0  0  0
   45.6520   33.8580   44.4820 N   0  0  0  0  0  0  0  0  0  0  0  0
   48.9080   32.0900   43.4200 H   0  0  0  0  0  0  0  0  0  0  0  0
   45.6340   32.1780   45.9260 H   0  0  0  0  0  0  0  0  0  0  0  0
   48.4480   34.3200   42.0350 C   0  0  0  0  0  0  0  0  0  0  0  0
   48.6850   35.6140   41.7160 C   0  0  0  0  0  0  0  0  0  0  0  0
   49.8270   34.9740   42.4920 C   0  0  0  0  0  0  0  0  0  0  0  0
   48.9060   33.4260   41.4230 H   0  0  0  0  0  0  0  0  0  0  0  0
   49.0160   35.9920   40.7040 H   0  0  0  0  0  0  0  0  0  0  0  0
   48.2360   36.4790   42.2840 H   0  0  0  0  0  0  0  0  0  0  0  0
   50.7300   34.7120   41.9650 H   0  0  0  0  0  0  0  0  0  0  0  0
   49.8520   35.1010   43.5730 H   0  0  0  0  0  0  0  0  0  0  0  0
   45.7230   35.4330   42.8890 C   0  0  0  0  0  0  0  0  0  0  0  0
   45.4960   36.6260   42.7860 O   0  0  0  0  0  0  0  0  0  0  0  0
   42.7070   35.7350   43.3720 Cl  0  0  0  0  0  0  0  0  0  0  0  0
   43.3840   34.9660   41.9590 C   0  0  0  0  0  0  0  0  0  0  0  0
   44.7510   34.9000   41.8830 C   0  0  0  0  0  0  0  0  0  0  0  0
   45.2190   34.2620   40.7250 C   0  0  0  0  0  0  0  0  0  0  0  0
   46.3150   34.1910   40.6330 H   0  0  0  0  0  0  0  0  0  0  0  0
   44.4680   33.7240   39.7100 C   0  0  0  0  0  3  0  0  0  0  0  0
   43.1050   33.8370   39.8730 C   0  0  0  0  0  0  0  0  0  0  0  0
   42.0690   33.1780   38.6260 Cl  0  0  0  0  0  0  0  0  0  0  0  0
   42.5430   34.4430   40.9690 C   0  0  0  0  0  0  0  0  0  0  0  0
   41.4910   34.5460   41.1240 H   0  0  0  0  0  0  0  0  0  0  0  0
  1  6  1  0  0  0  0
  2  1  2  0  0  0  0
  2  3  1  0  0  0  0
  3  4  2  0  0  0  0
  4  5  1  0  0  0  0
  5  8  1  0  0  0  0
  6  5  2  0  0  0  0
  7  3  1  0  0  0  0
  9 11  1  0  0  0  0
  9  2  1  0  0  0  0
 10  9  1  0  0  0  0
 10 14  1  0  0  0  0
 10 11  1  0  0  0  0
 11 16  1  0  0  0  0
 12  9  1  0  0  0  0
 13 10  1  0  0  0  0
 15 11  1  0  0  0  0
 17  1  1  0  0  0  0
 18 17  2  0  0  0  0
 20 19  1  0  0  0  0
 21 20  1  0  0  0  0
 21 17  1  0  0  0  0
 22 21  2  0  0  0  0
 23 22  1  0  0  0  0
 24 25  2  0  0  0  0
 24 22  1  0  0  0  0
 25 27  1  0  0  0  0
 26 25  1  0  0  0  0
 27 28  1  0  0  0  0
 27 20  2  0  0  0  0
M  END
>  <minimizedAffinity>
-4.35330534

>  <minimizedRMSD>
0.775227964

$$$$
