
 OpenBabel03252503273D

 26 27  0  0  0  0  0  0  0  0999 V2000
   45.1780   34.6010   42.4600 C   0  0  0  0  0  0  0  0  0  0  0  0
   46.2750   34.9690   41.6580 C   0  0  0  0  0  0  0  0  0  0  0  0
   47.5500   34.7950   42.2250 C   0  0  0  0  0  0  0  0  0  0  0  0
   47.6250   34.2920   43.4810 N   0  0  0  0  0  0  0  0  0  0  0  0
   46.5420   33.9530   44.2130 C   0  0  0  0  0  0  0  0  0  0  0  0
   45.3130   34.1090   43.6960 N   0  0  0  0  0  0  0  0  0  0  0  0
   43.5240   33.7400   41.0210 C   0  0  0  0  0  0  0  0  0  0  0  0
   44.4210   32.8880   40.7350 O   0  0  0  0  0  0  0  0  0  0  0  0
   43.8460   34.7360   41.9860 N   0  0  0  0  0  0  0  0  0  0  0  0
   46.0990   35.3600   40.6680 H   0  0  0  0  0  0  0  0  0  0  0  0
   46.6290   33.5540   45.2140 H   0  0  0  0  0  0  0  0  0  0  0  0
   43.1390   35.4520   42.2680 H   0  0  0  0  0  0  0  0  0  0  0  0
   43.5220   33.7350   37.9850 Cl  0  0  0  0  0  0  0  0  0  0  0  0
   42.0870   33.7170   39.0080 C   0  0  0  0  0  0  0  0  0  0  0  0
   42.1930   33.7210   40.3930 C   0  0  0  0  0  0  0  0  0  0  0  0
   41.0320   33.7060   41.1740 C   0  0  0  0  0  0  0  0  0  0  0  0
   41.0990   33.7090   42.2540 H   0  0  0  0  0  0  0  0  0  0  0  0
   39.7780   33.6890   40.5730 C   0  0  0  0  0  3  0  0  0  0  0  0
   39.6560   33.6850   39.2020 C   0  0  0  0  0  0  0  0  0  0  0  0
   38.0840   33.6630   38.4530 Cl  0  0  0  0  0  0  0  0  0  0  0  0
   40.8260   33.7000   38.4420 C   0  0  0  0  0  0  0  0  0  0  0  0
   40.7470   33.6970   37.3680 H   0  0  0  0  0  0  0  0  0  0  0  0
   48.6650   35.1820   41.3770 C   0  0  0  0  0  0  0  0  0  0  0  0
   49.7310   34.3150   41.6180 F   0  0  0  0  0  0  0  0  0  0  0  0
   49.1000   36.4360   41.7960 F   0  0  0  0  0  0  0  0  0  0  0  0
   48.3800   35.1330   40.0440 F   0  0  0  0  0  0  0  0  0  0  0  0
  1  6  1  0  0  0  0
  2  3  1  0  0  0  0
  2  1  2  0  0  0  0
  3  4  2  0  0  0  0
  4  5  1  0  0  0  0
  5 11  1  0  0  0  0
  6  5  2  0  0  0  0
  7  9  1  0  0  0  0
  8  7  2  0  0  0  0
  9 12  1  0  0  0  0
  9  1  1  0  0  0  0
 10  2  1  0  0  0  0
 13 14  1  0  0  0  0
 14 15  1  0  0  0  0
 15  7  1  0  0  0  0
 15 16  2  0  0  0  0
 16 17  1  0  0  0  0
 18 16  1  0  0  0  0
 19 18  2  0  0  0  0
 20 19  1  0  0  0  0
 21 14  2  0  0  0  0
 21 19  1  0  0  0  0
 22 21  1  0  0  0  0
 23 24  1  0  0  0  0
 23 25  1  0  0  0  0
 23  3  1  0  0  0  0
 26 23  1  0  0  0  0
M  END
>  <minimizedAffinity>
-5.92889738

>  <minimizedRMSD>
2.16439295

$$$$
