
 OpenBabel03242523163D

 28 30  0  0  0  0  0  0  0  0999 V2000
   47.2770   33.1080   43.7900 C   0  0  0  0  0  0  0  0  0  0  0  0
   48.1600   33.5790   42.8750 C   0  0  0  0  0  0  0  0  0  0  0  0
   49.1060   32.6500   42.4420 C   0  0  0  0  0  0  0  0  0  0  0  0
   49.0660   31.3740   42.9670 N   0  0  0  0  0  0  0  0  0  0  0  0
   48.1710   30.9880   43.8620 C   0  0  0  0  0  0  0  0  0  0  0  0
   47.2140   31.8660   44.3210 N   0  0  0  0  0  0  0  0  0  0  0  0
   49.8550   32.9110   41.7160 H   0  0  0  0  0  0  0  0  0  0  0  0
   48.3170   29.9520   44.1410 H   0  0  0  0  0  0  0  0  0  0  0  0
   48.2460   34.9180   42.4150 C   0  0  0  0  0  0  0  0  0  0  0  0
   49.2990   35.5970   41.9010 C   0  0  0  0  0  0  0  0  0  0  0  0
   48.2880   35.1780   40.8430 C   0  0  0  0  0  0  0  0  0  0  0  0
   47.2070   35.4280   42.6200 H   0  0  0  0  0  0  0  0  0  0  0  0
   49.4390   36.7180   41.9360 H   0  0  0  0  0  0  0  0  0  0  0  0
   50.3050   35.1240   41.7180 H   0  0  0  0  0  0  0  0  0  0  0  0
   47.6390   35.9280   40.4200 H   0  0  0  0  0  0  0  0  0  0  0  0
   48.4590   34.2480   40.3050 H   0  0  0  0  0  0  0  0  0  0  0  0
   46.1080   33.8150   44.3150 C   0  0  0  0  0  0  0  0  0  0  0  0
   45.4800   34.3180   45.2300 O   0  0  0  0  0  0  0  0  0  0  0  0
   44.5550   31.4970   43.0370 Cl  0  0  0  0  0  0  0  0  0  0  0  0
   44.4080   33.1590   42.5180 C   0  0  0  0  0  0  0  0  0  0  0  0
   45.1700   34.0850   43.1810 C   0  0  0  0  0  0  0  0  0  0  0  0
   45.0040   35.3930   42.7030 C   0  0  0  0  0  0  0  0  0  0  0  0
   45.6040   36.1640   43.2160 H   0  0  0  0  0  0  0  0  0  0  0  0
   44.1860   35.8090   41.6820 C   0  0  0  0  0  3  0  0  0  0  0  0
   43.4600   34.8080   41.0750 C   0  0  0  0  0  0  0  0  0  0  0  0
   42.3900   35.2480   39.7620 Cl  0  0  0  0  0  0  0  0  0  0  0  0
   43.5480   33.4960   41.4660 C   0  0  0  0  0  0  0  0  0  0  0  0
   42.9970   32.6980   41.0150 H   0  0  0  0  0  0  0  0  0  0  0  0
  1 17  1  0  0  0  0
  1  6  1  0  0  0  0
  2  1  2  0  0  0  0
  3  2  1  0  0  0  0
  3  4  2  0  0  0  0
  4  5  1  0  0  0  0
  5  8  1  0  0  0  0
  5  6  2  0  0  0  0
  7  3  1  0  0  0  0
  9 12  1  0  0  0  0
  9  2  1  0  0  0  0
 10 13  1  0  0  0  0
 10  9  1  0  0  0  0
 11 10  1  0  0  0  0
 11  9  1  0  0  0  0
 14 10  1  0  0  0  0
 15 11  1  0  0  0  0
 16 11  1  0  0  0  0
 17 18  2  0  0  0  0
 20 19  1  0  0  0  0
 20 21  1  0  0  0  0
 21 17  1  0  0  0  0
 22 21  2  0  0  0  0
 22 23  1  0  0  0  0
 24 22  1  0  0  0  0
 25 27  1  0  0  0  0
 25 24  2  0  0  0  0
 26 25  1  0  0  0  0
 27 20  2  0  0  0  0
 28 27  1  0  0  0  0
M  END
>  <minimizedAffinity>
-5.02982903

>  <minimizedRMSD>
2.12786651

$$$$
