
 OpenBabel03252508303D

 32 34  0  0  1  0  0  0  0  0999 V2000
   38.2920   28.1440   41.9010 C   0  0  0  0  0  0  0  0  0  0  0  0
   37.3050   28.8640   42.5410 C   0  0  0  0  0  0  0  0  0  0  0  0
   36.9850   29.9960   41.8080 C   0  0  0  0  0  0  0  0  0  0  0  0
   37.7860   29.9340   40.7480 N   0  0  0  0  0  0  0  0  0  0  0  0
   38.5510   28.8540   40.7980 N   0  0  0  0  0  0  0  0  0  0  0  0
   36.9140   28.4720   43.5030 H   0  0  0  0  0  0  0  0  0  0  0  0
   36.2040   30.5560   42.3100 H   0  0  0  0  0  0  0  0  0  0  0  0
   39.1120   31.4800   39.5520 N   0  0  0  0  0  0  0  0  0  0  0  0
   37.7450   30.9850   39.7440 C   0  0  2  0  0  0  0  0  0  0  0  0
   36.8110   32.0480   40.2010 C   0  0  0  0  0  0  0  0  0  0  0  0
   37.3850   33.3780   40.0910 N   0  0  0  0  0  0  0  0  0  0  0  0
   38.6720   33.5230   40.6660 C   0  0  0  0  0  0  0  0  0  0  0  0
   39.4080   32.2130   40.8030 C   0  0  2  0  0  0  0  0  0  0  0  0
   39.7300   30.6340   39.4880 H   0  0  0  0  0  0  0  0  0  0  0  0
   37.4490   30.5540   38.7700 H   0  0  0  0  0  0  0  0  0  0  0  0
   36.5300   32.0420   41.2670 H   0  0  0  0  0  0  0  0  0  0  0  0
   35.9150   32.0640   39.5310 H   0  0  0  0  0  0  0  0  0  0  0  0
   37.3560   33.6350   39.0710 H   0  0  0  0  0  0  0  0  0  0  0  0
   38.6990   34.0600   41.6280 H   0  0  0  0  0  0  0  0  0  0  0  0
   39.2840   34.1500   39.9650 H   0  0  0  0  0  0  0  0  0  0  0  0
   39.0030   31.6100   41.6210 H   0  0  0  0  0  0  0  0  0  0  0  0
   40.8780   32.3800   41.0040 C   0  0  0  0  0  2  0  0  0  0  0  0
   41.1200   33.4230   40.7900 H   0  0  0  0  0  0  0  0  0  0  0  0
   40.3370   25.5410   43.6800 C   0  0  0  0  0  0  0  0  0  0  0  0
   39.8700   26.8340   43.3220 C   0  0  0  0  0  0  0  0  0  0  0  0
   38.8730   26.8810   42.3730 C   0  0  0  0  0  0  0  0  0  0  0  0
   38.3970   25.7250   41.8400 N   0  0  0  0  0  0  0  0  0  0  0  0
   38.8660   24.5120   42.2070 C   0  0  0  0  0  0  0  0  0  0  0  0
   39.8270   24.4460   43.1200 N   0  0  0  0  0  0  0  0  0  0  0  0
   41.1210   25.5280   44.4280 H   0  0  0  0  0  0  0  0  0  0  0  0
   40.2500   27.7440   43.7470 H   0  0  0  0  0  0  0  0  0  0  0  0
   38.3990   23.6700   41.7050 H   0  0  0  0  0  0  0  0  0  0  0  0
  1 26  1  0  0  0  0
  1  2  1  0  0  0  0
  2  6  1  0  0  0  0
  3  7  1  0  0  0  0
  3  2  2  0  0  0  0
  4  5  1  0  0  0  0
  4  3  1  0  0  0  0
  5  1  2  0  0  0  0
  8  9  1  0  0  0  0
  8 13  1  0  0  0  0
  9 15  1  6  0  0  0
  9 10  1  0  0  0  0
  9  4  1  0  0  0  0
 10 16  1  0  0  0  0
 11 10  1  0  0  0  0
 11 12  1  0  0  0  0
 12 13  1  0  0  0  0
 12 19  1  0  0  0  0
 13 22  1  0  0  0  0
 13 21  1  1  0  0  0
 14  8  1  0  0  0  0
 17 10  1  0  0  0  0
 18 11  1  0  0  0  0
 20 12  1  0  0  0  0
 23 22  1  0  0  0  0
 24 30  1  0  0  0  0
 25 24  1  0  0  0  0
 25 31  1  0  0  0  0
 26 25  2  0  0  0  0
 27 28  2  0  0  0  0
 27 26  1  0  0  0  0
 28 29  1  0  0  0  0
 29 24  2  0  0  0  0
 32 28  1  0  0  0  0
M  END
>  <minimizedAffinity>
-4.9900527

$$$$

 OpenBabel03252508303D

 32 34  0  0  1  0  0  0  0  0999 V2000
   38.2810   31.5220   39.5730 C   0  0  0  0  0  0  0  0  0  0  0  0
   37.2780   32.1020   40.3210 C   0  0  0  0  0  0  0  0  0  0  0  0
   36.3520   31.1440   40.7060 C   0  0  0  0  0  0  0  0  0  0  0  0
   36.8150   30.0140   40.1780 N   0  0  0  0  0  0  0  0  0  0  0  0
   37.9420   30.2300   39.5170 N   0  0  0  0  0  0  0  0  0  0  0  0
   37.3330   33.1930   40.5110 H   0  0  0  0  0  0  0  0  0  0  0  0
   35.5680   31.6010   41.3000 H   0  0  0  0  0  0  0  0  0  0  0  0
   35.9720   28.5200   41.8020 N   0  0  0  0  0  0  0  0  0  0  0  0
   36.0800   28.7730   40.3620 C   0  0  2  0  0  0  0  0  0  0  0  0
   36.7910   27.6840   39.6430 C   0  0  0  0  0  0  0  0  0  0  0  0
   36.9750   26.5010   40.4650 N   0  0  0  0  0  0  0  0  0  0  0  0
   37.5350   26.7430   41.7440 C   0  0  0  0  0  0  0  0  0  0  0  0
   37.3500   28.1660   42.2090 C   0  0  2  0  0  0  0  0  0  0  0  0
   35.7000   29.4330   42.2460 H   0  0  0  0  0  0  0  0  0  0  0  0
   35.0400   28.9030   40.0080 H   0  0  0  0  0  0  0  0  0  0  0  0
   37.8350   27.8800   39.3440 H   0  0  0  0  0  0  0  0  0  0  0  0
   36.1660   27.3410   38.7800 H   0  0  0  0  0  0  0  0  0  0  0  0
   36.0420   26.0160   40.5070 H   0  0  0  0  0  0  0  0  0  0  0  0
   38.5940   26.4560   41.8550 H   0  0  0  0  0  0  0  0  0  0  0  0
   36.9810   26.1020   42.4800 H   0  0  0  0  0  0  0  0  0  0  0  0
   38.0170   28.8520   41.6790 H   0  0  0  0  0  0  0  0  0  0  0  0
   37.5460   28.3370   43.6790 C   0  0  0  0  0  2  0  0  0  0  0  0
   37.5710   27.3400   44.1230 H   0  0  0  0  0  0  0  0  0  0  0  0
   41.1020   33.9180   38.9270 C   0  0  0  0  0  0  0  0  0  0  0  0
   39.9830   33.3460   39.5890 C   0  0  0  0  0  0  0  0  0  0  0  0
   39.4400   32.2220   39.0070 C   0  0  0  0  0  0  0  0  0  0  0  0
   39.9840   31.7280   37.8620 N   0  0  0  0  0  0  0  0  0  0  0  0
   41.0510   32.3000   37.2630 C   0  0  0  0  0  0  0  0  0  0  0  0
   41.5880   33.3840   37.8090 N   0  0  0  0  0  0  0  0  0  0  0  0
   41.5130   34.8020   39.4030 H   0  0  0  0  0  0  0  0  0  0  0  0
   39.5590   33.7410   40.4920 H   0  0  0  0  0  0  0  0  0  0  0  0
   41.3850   31.8050   36.3560 H   0  0  0  0  0  0  0  0  0  0  0  0
  1  2  1  0  0  0  0
  2  6  1  0  0  0  0
  2  3  2  0  0  0  0
  3  7  1  0  0  0  0
  4  9  1  0  0  0  0
  4  3  1  0  0  0  0
  5  1  2  0  0  0  0
  5  4  1  0  0  0  0
  8 13  1  0  0  0  0
  8 14  1  0  0  0  0
  9 15  1  6  0  0  0
  9  8  1  0  0  0  0
 10  9  1  0  0  0  0
 10 11  1  0  0  0  0
 11 18  1  0  0  0  0
 11 12  1  0  0  0  0
 12 19  1  0  0  0  0
 12 13  1  0  0  0  0
 12 20  1  0  0  0  0
 13 21  1  6  0  0  0
 13 22  1  0  0  0  0
 16 10  1  0  0  0  0
 17 10  1  0  0  0  0
 22 23  1  0  0  0  0
 24 30  1  0  0  0  0
 24 25  1  0  0  0  0
 25 31  1  0  0  0  0
 26  1  1  0  0  0  0
 26 25  2  0  0  0  0
 27 26  1  0  0  0  0
 28 29  1  0  0  0  0
 28 27  2  0  0  0  0
 29 24  2  0  0  0  0
 32 28  1  0  0  0  0
M  END
>  <minimizedAffinity>
-4.93399334

$$$$

 OpenBabel03252508303D

 32 34  0  0  1  0  0  0  0  0999 V2000
   37.7720   28.1050   41.8350 C   0  0  0  0  0  0  0  0  0  0  0  0
   36.4250   28.2080   41.5580 C   0  0  0  0  0  0  0  0  0  0  0  0
   36.1280   29.4780   41.0880 C   0  0  0  0  0  0  0  0  0  0  0  0
   37.2990   30.1100   41.0970 N   0  0  0  0  0  0  0  0  0  0  0  0
   38.2620   29.3110   41.5310 N   0  0  0  0  0  0  0  0  0  0  0  0
   35.7870   27.3180   41.7330 H   0  0  0  0  0  0  0  0  0  0  0  0
   35.0700   29.5540   40.8640 H   0  0  0  0  0  0  0  0  0  0  0  0
   36.8310   31.5920   39.3180 N   0  0  0  0  0  0  0  0  0  0  0  0
   37.3770   31.4990   40.6760 C   0  0  2  0  0  0  0  0  0  0  0  0
   38.7930   31.9450   40.7540 C   0  0  0  0  0  0  0  0  0  0  0  0
   39.2300   32.6230   39.5460 N   0  0  0  0  0  0  0  0  0  0  0  0
   38.9610   31.9290   38.3400 C   0  0  0  0  0  0  0  0  0  0  0  0
   37.8470   30.9210   38.4760 C   0  0  2  0  0  0  0  0  0  0  0  0
   35.9450   31.0280   39.3130 H   0  0  0  0  0  0  0  0  0  0  0  0
   36.7060   32.1150   41.3040 H   0  0  0  0  0  0  0  0  0  0  0  0
   39.5620   31.1580   40.8280 H   0  0  0  0  0  0  0  0  0  0  0  0
   38.8950   32.7080   41.5660 H   0  0  0  0  0  0  0  0  0  0  0  0
   38.8090   33.5860   39.5720 H   0  0  0  0  0  0  0  0  0  0  0  0
   39.8340   31.4480   37.8700 H   0  0  0  0  0  0  0  0  0  0  0  0
   38.6050   32.6840   37.5910 H   0  0  0  0  0  0  0  0  0  0  0  0
   38.1720   30.0350   39.0280 H   0  0  0  0  0  0  0  0  0  0  0  0
   37.2740   30.4940   37.1650 C   0  0  0  0  0  2  0  0  0  0  0  0
   37.6550   31.1780   36.4040 H   0  0  0  0  0  0  0  0  0  0  0  0
   40.0180   25.7180   43.6740 C   0  0  0  0  0  0  0  0  0  0  0  0
   39.4490   26.9610   43.2860 C   0  0  0  0  0  0  0  0  0  0  0  0
   38.4530   26.9050   42.3360 C   0  0  0  0  0  0  0  0  0  0  0  0
   38.0740   25.7020   41.8290 N   0  0  0  0  0  0  0  0  0  0  0  0
   38.6400   24.5400   42.2240 C   0  0  0  0  0  0  0  0  0  0  0  0
   39.6010   24.5730   43.1390 N   0  0  0  0  0  0  0  0  0  0  0  0
   40.7990   25.7860   44.4220 H   0  0  0  0  0  0  0  0  0  0  0  0
   39.7520   27.9070   43.6910 H   0  0  0  0  0  0  0  0  0  0  0  0
   38.2440   23.6520   41.7410 H   0  0  0  0  0  0  0  0  0  0  0  0
  1 26  1  0  0  0  0
  2  6  1  0  0  0  0
  2  1  1  0  0  0  0
  3  4  1  0  0  0  0
  3  2  2  0  0  0  0
  4  5  1  0  0  0  0
  5  1  2  0  0  0  0
  7  3  1  0  0  0  0
  8  9  1  0  0  0  0
  9 10  1  0  0  0  0
  9  4  1  0  0  0  0
  9 15  1  1  0  0  0
 10 16  1  0  0  0  0
 10 17  1  0  0  0  0
 11 18  1  0  0  0  0
 11 10  1  0  0  0  0
 12 13  1  0  0  0  0
 12 11  1  0  0  0  0
 13 21  1  1  0  0  0
 13  8  1  0  0  0  0
 14  8  1  0  0  0  0
 19 12  1  0  0  0  0
 20 12  1  0  0  0  0
 22 13  1  0  0  0  0
 23 22  1  0  0  0  0
 24 30  1  0  0  0  0
 25 24  1  0  0  0  0
 25 31  1  0  0  0  0
 26 25  2  0  0  0  0
 27 28  2  0  0  0  0
 27 26  1  0  0  0  0
 28 29  1  0  0  0  0
 29 24  2  0  0  0  0
 32 28  1  0  0  0  0
M  END
>  <minimizedAffinity>
-4.79978085

$$$$

 OpenBabel03252508303D

 32 34  0  0  1  0  0  0  0  0999 V2000
   38.6630   29.5900   41.6780 C   0  0  0  0  0  0  0  0  0  0  0  0
   38.5040   29.2370   43.0020 C   0  0  0  0  0  0  0  0  0  0  0  0
   38.9120   27.9270   43.2010 C   0  0  0  0  0  0  0  0  0  0  0  0
   39.3030   27.5210   41.9960 N   0  0  0  0  0  0  0  0  0  0  0  0
   39.1600   28.4890   41.1030 N   0  0  0  0  0  0  0  0  0  0  0  0
   38.0960   29.9970   43.6990 H   0  0  0  0  0  0  0  0  0  0  0  0
   38.7930   27.6540   44.2440 H   0  0  0  0  0  0  0  0  0  0  0  0
   39.0760   25.5820   40.6670 N   0  0  0  0  0  0  0  0  0  0  0  0
   39.7880   26.1640   41.8090 C   0  0  2  0  0  0  0  0  0  0  0  0
   39.5730   25.4000   43.0660 C   0  0  0  0  0  0  0  0  0  0  0  0
   38.9420   24.1130   42.8340 N   0  0  0  0  0  0  0  0  0  0  0  0
   37.7720   24.1560   42.0350 C   0  0  0  0  0  0  0  0  0  0  0  0
   37.6970   25.3860   41.1660 C   0  0  2  0  0  0  0  0  0  0  0  0
   39.0750   26.3120   39.9120 H   0  0  0  0  0  0  0  0  0  0  0  0
   40.8530   26.1890   41.5090 H   0  0  0  0  0  0  0  0  0  0  0  0
   38.8730   25.8330   43.8010 H   0  0  0  0  0  0  0  0  0  0  0  0
   40.5640   25.1560   43.5240 H   0  0  0  0  0  0  0  0  0  0  0  0
   39.6850   23.4780   42.4440 H   0  0  0  0  0  0  0  0  0  0  0  0
   36.8230   24.0370   42.5840 H   0  0  0  0  0  0  0  0  0  0  0  0
   37.8130   23.2830   41.3320 H   0  0  0  0  0  0  0  0  0  0  0  0
   37.4480   26.2770   41.7510 H   0  0  0  0  0  0  0  0  0  0  0  0
   36.7220   25.2570   40.0420 C   0  0  0  0  0  2  0  0  0  0  0  0
   36.4360   24.2050   39.9780 H   0  0  0  0  0  0  0  0  0  0  0  0
   37.0710   32.4390   39.8150 C   0  0  0  0  0  0  0  0  0  0  0  0
   37.2440   31.1170   40.3070 C   0  0  0  0  0  0  0  0  0  0  0  0
   38.3510   30.9020   41.0980 C   0  0  0  0  0  0  0  0  0  0  0  0
   39.1990   31.9310   41.3630 N   0  0  0  0  0  0  0  0  0  0  0  0
   39.0000   33.1760   40.8770 C   0  0  0  0  0  0  0  0  0  0  0  0
   37.9390   33.4030   40.1120 N   0  0  0  0  0  0  0  0  0  0  0  0
   36.1940   32.5850   39.1960 H   0  0  0  0  0  0  0  0  0  0  0  0
   36.5700   30.3100   40.0950 H   0  0  0  0  0  0  0  0  0  0  0  0
   39.7520   33.9040   41.1640 H   0  0  0  0  0  0  0  0  0  0  0  0
  1  2  1  0  0  0  0
  2  3  2  0  0  0  0
  2  6  1  0  0  0  0
  3  7  1  0  0  0  0
  4  3  1  0  0  0  0
  5  1  2  0  0  0  0
  5  4  1  0  0  0  0
  8 13  1  0  0  0  0
  8  9  1  0  0  0  0
  9 15  1  6  0  0  0
  9  4  1  0  0  0  0
  9 10  1  0  0  0  0
 10 17  1  0  0  0  0
 10 16  1  0  0  0  0
 11 10  1  0  0  0  0
 12 19  1  0  0  0  0
 12 11  1  0  0  0  0
 13 21  1  1  0  0  0
 13 12  1  0  0  0  0
 14  8  1  0  0  0  0
 18 11  1  0  0  0  0
 20 12  1  0  0  0  0
 22 13  1  0  0  0  0
 23 22  1  0  0  0  0
 24 29  2  0  0  0  0
 24 25  1  0  0  0  0
 25 26  2  0  0  0  0
 26 27  1  0  0  0  0
 26  1  1  0  0  0  0
 28 32  1  0  0  0  0
 28 27  2  0  0  0  0
 29 28  1  0  0  0  0
 30 24  1  0  0  0  0
 31 25  1  0  0  0  0
M  END
>  <minimizedAffinity>
-4.75223827

$$$$

 OpenBabel03252508303D

 32 34  0  0  1  0  0  0  0  0999 V2000
   36.8640   28.9510   39.7920 C   0  0  0  0  0  0  0  0  0  0  0  0
   36.4400   28.8460   38.4840 C   0  0  0  0  0  0  0  0  0  0  0  0
   36.5610   30.0680   37.8410 C   0  0  0  0  0  0  0  0  0  0  0  0
   37.0490   30.8800   38.7750 N   0  0  0  0  0  0  0  0  0  0  0  0
   37.2290   30.2320   39.9160 N   0  0  0  0  0  0  0  0  0  0  0  0
   36.0780   27.8590   38.1300 H   0  0  0  0  0  0  0  0  0  0  0  0
   36.2340   29.9810   36.8100 H   0  0  0  0  0  0  0  0  0  0  0  0
   38.4500   32.3450   37.5620 N   0  0  0  0  0  0  0  0  0  0  0  0
   37.2960   32.2790   38.4640 C   0  0  2  0  0  0  0  0  0  0  0  0
   37.5190   33.0200   39.7330 C   0  0  0  0  0  0  0  0  0  0  0  0
   38.7020   33.8620   39.6850 N   0  0  0  0  0  0  0  0  0  0  0  0
   39.8800   33.2130   39.2380 C   0  0  0  0  0  0  0  0  0  0  0  0
   39.5980   31.9770   38.4210 C   0  0  2  0  0  0  0  0  0  0  0  0
   38.3050   31.6000   36.8350 H   0  0  0  0  0  0  0  0  0  0  0  0
   36.4470   32.6840   37.8830 H   0  0  0  0  0  0  0  0  0  0  0  0
   37.7410   32.4190   40.6310 H   0  0  0  0  0  0  0  0  0  0  0  0
   36.6690   33.7270   39.9020 H   0  0  0  0  0  0  0  0  0  0  0  0
   38.4490   34.7040   39.1080 H   0  0  0  0  0  0  0  0  0  0  0  0
   40.6110   32.9720   40.0270 H   0  0  0  0  0  0  0  0  0  0  0  0
   40.4140   33.9220   38.5530 H   0  0  0  0  0  0  0  0  0  0  0  0
   39.2630   31.1470   39.0500 H   0  0  0  0  0  0  0  0  0  0  0  0
   40.7670   31.5280   37.6080 C   0  0  0  0  0  2  0  0  0  0  0  0
   41.5060   32.3310   37.6270 H   0  0  0  0  0  0  0  0  0  0  0  0
   36.7920   26.9200   42.9530 C   0  0  0  0  0  0  0  0  0  0  0  0
   36.7380   28.0730   42.1240 C   0  0  0  0  0  0  0  0  0  0  0  0
   36.8940   27.8590   40.7720 C   0  0  0  0  0  0  0  0  0  0  0  0
   37.0870   26.5960   40.3090 N   0  0  0  0  0  0  0  0  0  0  0  0
   37.1310   25.5230   41.1300 C   0  0  0  0  0  0  0  0  0  0  0  0
   36.9830   25.7090   42.4350 N   0  0  0  0  0  0  0  0  0  0  0  0
   36.6670   27.1110   44.0120 H   0  0  0  0  0  0  0  0  0  0  0  0
   36.5850   29.0670   42.4970 H   0  0  0  0  0  0  0  0  0  0  0  0
   37.2900   24.5720   40.6300 H   0  0  0  0  0  0  0  0  0  0  0  0
  1  5  2  0  0  0  0
  1 26  1  0  0  0  0
  2  1  1  0  0  0  0
  3  2  2  0  0  0  0
  3  4  1  0  0  0  0
  4  5  1  0  0  0  0
  6  2  1  0  0  0  0
  7  3  1  0  0  0  0
  8 13  1  0  0  0  0
  8  9  1  0  0  0  0
  9 15  1  6  0  0  0
  9  4  1  0  0  0  0
  9 10  1  0  0  0  0
 10 17  1  0  0  0  0
 10 16  1  0  0  0  0
 11 10  1  0  0  0  0
 12 11  1  0  0  0  0
 12 19  1  0  0  0  0
 13 21  1  1  0  0  0
 13 12  1  0  0  0  0
 14  8  1  0  0  0  0
 18 11  1  0  0  0  0
 20 12  1  0  0  0  0
 22 23  1  0  0  0  0
 22 13  1  0  0  0  0
 24 30  1  0  0  0  0
 25 31  1  0  0  0  0
 25 24  2  0  0  0  0
 26 25  1  0  0  0  0
 27 26  2  0  0  0  0
 27 28  1  0  0  0  0
 28 29  2  0  0  0  0
 29 24  1  0  0  0  0
 32 28  1  0  0  0  0
M  END
>  <minimizedAffinity>
-4.73009539

$$$$

 OpenBabel03252508303D

 32 34  0  0  1  0  0  0  0  0999 V2000
   38.0730   25.5530   41.5210 C   0  0  0  0  0  0  0  0  0  0  0  0
   36.9290   25.5950   42.2910 C   0  0  0  0  0  0  0  0  0  0  0  0
   36.8610   26.7930   42.9850 C   0  0  0  0  0  0  0  0  0  0  0  0
   37.9630   27.4420   42.6210 N   0  0  0  0  0  0  0  0  0  0  0  0
   38.6740   26.7230   41.7660 N   0  0  0  0  0  0  0  0  0  0  0  0
   36.2480   24.7200   42.2610 H   0  0  0  0  0  0  0  0  0  0  0  0
   35.9570   26.8260   43.5830 H   0  0  0  0  0  0  0  0  0  0  0  0
   37.1300   29.6420   42.8290 N   0  0  0  0  0  0  0  0  0  0  0  0
   38.2470   28.7570   43.1730 C   0  0  2  0  0  0  0  0  0  0  0  0
   39.5440   29.2370   42.6280 C   0  0  0  0  0  0  0  0  0  0  0  0
   39.4660   30.5950   42.1200 N   0  0  0  0  0  0  0  0  0  0  0  0
   38.3950   30.8380   41.2250 C   0  0  0  0  0  0  0  0  0  0  0  0
   37.2690   29.8460   41.3700 C   0  0  2  0  0  0  0  0  0  0  0  0
   36.2500   29.1030   43.0250 H   0  0  0  0  0  0  0  0  0  0  0  0
   38.2490   28.7020   44.2770 H   0  0  0  0  0  0  0  0  0  0  0  0
   39.9360   28.7160   41.7380 H   0  0  0  0  0  0  0  0  0  0  0  0
   40.2980   29.2800   43.4530 H   0  0  0  0  0  0  0  0  0  0  0  0
   39.4570   31.2300   42.9590 H   0  0  0  0  0  0  0  0  0  0  0  0
   38.6790   30.9170   40.1630 H   0  0  0  0  0  0  0  0  0  0  0  0
   37.9610   31.8400   41.4860 H   0  0  0  0  0  0  0  0  0  0  0  0
   37.5330   28.8740   40.9440 H   0  0  0  0  0  0  0  0  0  0  0  0
   35.9880   30.3120   40.7590 C   0  0  0  0  0  2  0  0  0  0  0  0
   36.1040   31.3730   40.5280 H   0  0  0  0  0  0  0  0  0  0  0  0
   39.6650   23.4510   38.8440 C   0  0  0  0  0  0  0  0  0  0  0  0
   39.3740   24.6100   39.6130 C   0  0  0  0  0  0  0  0  0  0  0  0
   38.4740   24.4480   40.6420 C   0  0  0  0  0  0  0  0  0  0  0  0
   37.9220   23.2260   40.8680 N   0  0  0  0  0  0  0  0  0  0  0  0
   38.2250   22.1460   40.1150 C   0  0  0  0  0  0  0  0  0  0  0  0
   39.0910   22.2820   39.1180 N   0  0  0  0  0  0  0  0  0  0  0  0
   40.3760   23.6010   38.0400 H   0  0  0  0  0  0  0  0  0  0  0  0
   39.8130   25.5720   39.4290 H   0  0  0  0  0  0  0  0  0  0  0  0
   37.7160   21.2310   40.4020 H   0  0  0  0  0  0  0  0  0  0  0  0
  1  5  2  0  0  0  0
  1  2  1  0  0  0  0
  2  3  2  0  0  0  0
  3  7  1  0  0  0  0
  4  3  1  0  0  0  0
  4  9  1  0  0  0  0
  5  4  1  0  0  0  0
  6  2  1  0  0  0  0
  8 14  1  0  0  0  0
  8  9  1  0  0  0  0
  9 15  1  1  0  0  0
 10  9  1  0  0  0  0
 10 17  1  0  0  0  0
 11 10  1  0  0  0  0
 11 18  1  0  0  0  0
 12 13  1  0  0  0  0
 12 20  1  0  0  0  0
 12 11  1  0  0  0  0
 13 21  1  6  0  0  0
 13  8  1  0  0  0  0
 16 10  1  0  0  0  0
 19 12  1  0  0  0  0
 22 13  1  0  0  0  0
 23 22  1  0  0  0  0
 24 29  2  0  0  0  0
 24 25  1  0  0  0  0
 25 26  2  0  0  0  0
 26 27  1  0  0  0  0
 26  1  1  0  0  0  0
 28 32  1  0  0  0  0
 28 27  2  0  0  0  0
 29 28  1  0  0  0  0
 30 24  1  0  0  0  0
 31 25  1  0  0  0  0
M  END
>  <minimizedAffinity>
-4.70936441

$$$$

 OpenBabel03252508303D

 32 34  0  0  1  0  0  0  0  0999 V2000
   41.7750   32.5140   37.9690 C   0  0  0  0  0  0  0  0  0  0  0  0
   40.7430   31.8490   37.3410 C   0  0  0  0  0  0  0  0  0  0  0  0
   39.5450   32.0960   37.9940 C   0  0  0  0  0  0  0  0  0  0  0  0
   39.8830   32.8980   38.9990 N   0  0  0  0  0  0  0  0  0  0  0  0
   41.1840   33.1450   38.9890 N   0  0  0  0  0  0  0  0  0  0  0  0
   40.9840   31.2380   36.4470 H   0  0  0  0  0  0  0  0  0  0  0  0
   38.7340   31.5780   37.4930 H   0  0  0  0  0  0  0  0  0  0  0  0
   39.1890   32.8240   41.2560 N   0  0  0  0  0  0  0  0  0  0  0  0
   38.8670   33.3620   39.9300 C   0  0  2  0  0  0  0  0  0  0  0  0
   37.5330   32.9220   39.4440 C   0  0  0  0  0  0  0  0  0  0  0  0
   36.7400   32.2940   40.4860 N   0  0  0  0  0  0  0  0  0  0  0  0
   37.4030   31.2700   41.2060 C   0  0  0  0  0  0  0  0  0  0  0  0
   38.9060   31.3770   41.1340 C   0  0  2  0  0  0  0  0  0  0  0  0
   40.2200   32.9680   41.3950 H   0  0  0  0  0  0  0  0  0  0  0  0
   38.9360   34.4610   40.0350 H   0  0  0  0  0  0  0  0  0  0  0  0
   37.5170   32.1290   38.6780 H   0  0  0  0  0  0  0  0  0  0  0  0
   36.9410   33.8180   39.1310 H   0  0  0  0  0  0  0  0  0  0  0  0
   36.3840   33.0690   41.1010 H   0  0  0  0  0  0  0  0  0  0  0  0
   37.0960   30.2420   40.9520 H   0  0  0  0  0  0  0  0  0  0  0  0
   37.1360   31.3950   42.2890 H   0  0  0  0  0  0  0  0  0  0  0  0
   39.2840   31.0670   40.1550 H   0  0  0  0  0  0  0  0  0  0  0  0
   39.6060   30.5920   42.1940 C   0  0  0  0  0  2  0  0  0  0  0  0
   38.8530   30.2850   42.9230 H   0  0  0  0  0  0  0  0  0  0  0  0
   45.3840   33.3750   37.3730 C   0  0  0  0  0  0  0  0  0  0  0  0
   44.0520   33.5260   37.8440 C   0  0  0  0  0  0  0  0  0  0  0  0
   43.1820   32.4990   37.5520 C   0  0  0  0  0  0  0  0  0  0  0  0
   43.6250   31.4220   36.8500 N   0  0  0  0  0  0  0  0  0  0  0  0
   44.9010   31.3130   36.4200 C   0  0  0  0  0  0  0  0  0  0  0  0
   45.7540   32.2930   36.6920 N   0  0  0  0  0  0  0  0  0  0  0  0
   46.0510   34.1950   37.6140 H   0  0  0  0  0  0  0  0  0  0  0  0
   43.7090   34.3790   38.3980 H   0  0  0  0  0  0  0  0  0  0  0  0
   45.1230   30.4030   35.8720 H   0  0  0  0  0  0  0  0  0  0  0  0
  1  5  2  0  0  0  0
  2  1  1  0  0  0  0
  2  3  2  0  0  0  0
  3  4  1  0  0  0  0
  4  9  1  0  0  0  0
  5  4  1  0  0  0  0
  6  2  1  0  0  0  0
  7  3  1  0  0  0  0
  8 14  1  0  0  0  0
  9 15  1  1  0  0  0
  9  8  1  0  0  0  0
 10  9  1  0  0  0  0
 10 11  1  0  0  0  0
 11 18  1  0  0  0  0
 11 12  1  0  0  0  0
 12 20  1  0  0  0  0
 13 21  1  6  0  0  0
 13 12  1  0  0  0  0
 13  8  1  0  0  0  0
 13 22  1  0  0  0  0
 16 10  1  0  0  0  0
 17 10  1  0  0  0  0
 19 12  1  0  0  0  0
 22 23  1  0  0  0  0
 24 30  1  0  0  0  0
 24 25  1  0  0  0  0
 25 31  1  0  0  0  0
 26 25  2  0  0  0  0
 26  1  1  0  0  0  0
 27 26  1  0  0  0  0
 28 29  1  0  0  0  0
 28 27  2  0  0  0  0
 29 24  2  0  0  0  0
 32 28  1  0  0  0  0
M  END
>  <minimizedAffinity>
-4.69752932

$$$$

 OpenBabel03252508303D

 32 34  0  0  1  0  0  0  0  0999 V2000
   38.8860   28.7270   40.4480 C   0  0  0  0  0  0  0  0  0  0  0  0
   39.1760   28.5080   39.1170 C   0  0  0  0  0  0  0  0  0  0  0  0
   38.8000   29.6050   38.3580 C   0  0  0  0  0  0  0  0  0  0  0  0
   38.2900   30.4550   39.2450 N   0  0  0  0  0  0  0  0  0  0  0  0
   38.3400   29.9470   40.4670 N   0  0  0  0  0  0  0  0  0  0  0  0
   39.6450   27.5420   38.8370 H   0  0  0  0  0  0  0  0  0  0  0  0
   39.0350   29.4330   37.3130 H   0  0  0  0  0  0  0  0  0  0  0  0
   38.8980   32.5760   38.4030 N   0  0  0  0  0  0  0  0  0  0  0  0
   37.7650   31.7370   38.8040 C   0  0  2  0  0  0  0  0  0  0  0  0
   36.9730   32.3370   39.9090 C   0  0  0  0  0  0  0  0  0  0  0  0
   37.3250   33.7240   40.1570 N   0  0  0  0  0  0  0  0  0  0  0  0
   38.7120   33.9710   40.3060 C   0  0  0  0  0  0  0  0  0  0  0  0
   39.5720   32.9030   39.6790 C   0  0  2  0  0  0  0  0  0  0  0  0
   39.5280   31.9690   37.8200 H   0  0  0  0  0  0  0  0  0  0  0  0
   37.1660   31.5950   37.8850 H   0  0  0  0  0  0  0  0  0  0  0  0
   37.1200   31.9130   40.9170 H   0  0  0  0  0  0  0  0  0  0  0  0
   35.8930   32.3610   39.6180 H   0  0  0  0  0  0  0  0  0  0  0  0
   36.8850   34.2890   39.3850 H   0  0  0  0  0  0  0  0  0  0  0  0
   39.0480   34.1520   41.3410 H   0  0  0  0  0  0  0  0  0  0  0  0
   38.9450   34.9200   39.7540 H   0  0  0  0  0  0  0  0  0  0  0  0
   39.5720   31.9860   40.2750 H   0  0  0  0  0  0  0  0  0  0  0  0
   40.9840   33.3370   39.4560 C   0  0  0  0  0  2  0  0  0  0  0  0
   41.0200   34.4180   39.6050 H   0  0  0  0  0  0  0  0  0  0  0  0
   39.9960   27.1630   43.6800 C   0  0  0  0  0  0  0  0  0  0  0  0
   39.8010   28.1760   42.7030 C   0  0  0  0  0  0  0  0  0  0  0  0
   39.1570   27.7930   41.5480 C   0  0  0  0  0  0  0  0  0  0  0  0
   38.7510   26.5040   41.4000 N   0  0  0  0  0  0  0  0  0  0  0  0
   38.9530   25.5680   42.3540 C   0  0  0  0  0  0  0  0  0  0  0  0
   39.5720   25.9180   43.4740 N   0  0  0  0  0  0  0  0  0  0  0  0
   40.5040   27.4870   44.5810 H   0  0  0  0  0  0  0  0  0  0  0  0
   40.1250   29.1920   42.8260 H   0  0  0  0  0  0  0  0  0  0  0  0
   38.5790   24.5790   42.1090 H   0  0  0  0  0  0  0  0  0  0  0  0
  1  5  2  0  0  0  0
  1 26  1  0  0  0  0
  2  1  1  0  0  0  0
  3  2  2  0  0  0  0
  3  4  1  0  0  0  0
  4  5  1  0  0  0  0
  6  2  1  0  0  0  0
  7  3  1  0  0  0  0
  8  9  1  0  0  0  0
  8 13  1  0  0  0  0
  9 15  1  6  0  0  0
  9  4  1  0  0  0  0
  9 10  1  0  0  0  0
 10 11  1  0  0  0  0
 10 16  1  0  0  0  0
 11 12  1  0  0  0  0
 12 19  1  0  0  0  0
 13 21  1  1  0  0  0
 13 12  1  0  0  0  0
 14  8  1  0  0  0  0
 17 10  1  0  0  0  0
 18 11  1  0  0  0  0
 20 12  1  0  0  0  0
 22 23  1  0  0  0  0
 22 13  1  0  0  0  0
 24 30  1  0  0  0  0
 25 31  1  0  0  0  0
 25 24  2  0  0  0  0
 26 25  1  0  0  0  0
 27 26  2  0  0  0  0
 27 28  1  0  0  0  0
 28 29  2  0  0  0  0
 29 24  1  0  0  0  0
 32 28  1  0  0  0  0
M  END
>  <minimizedAffinity>
-4.62836695

$$$$

 OpenBabel03252508303D

 32 34  0  0  1  0  0  0  0  0999 V2000
   37.7390   29.2980   41.8810 C   0  0  0  0  0  0  0  0  0  0  0  0
   37.7970   29.0000   43.2270 C   0  0  0  0  0  0  0  0  0  0  0  0
   37.6390   27.6380   43.4250 C   0  0  0  0  0  0  0  0  0  0  0  0
   37.4860   27.1470   42.1970 N   0  0  0  0  0  0  0  0  0  0  0  0
   37.5450   28.1130   41.2930 N   0  0  0  0  0  0  0  0  0  0  0  0
   37.9540   29.8360   43.9390 H   0  0  0  0  0  0  0  0  0  0  0  0
   37.6920   27.4060   44.4820 H   0  0  0  0  0  0  0  0  0  0  0  0
   38.4290   25.0130   42.5630 N   0  0  0  0  0  0  0  0  0  0  0  0
   37.2730   25.7220   42.0070 C   0  0  2  0  0  0  0  0  0  0  0  0
   37.0830   25.4550   40.5570 C   0  0  0  0  0  0  0  0  0  0  0  0
   37.9030   24.3550   40.0810 N   0  0  0  0  0  0  0  0  0  0  0  0
   39.2740   24.4390   40.4280 C   0  0  0  0  0  0  0  0  0  0  0  0
   39.5280   25.3240   41.6220 C   0  0  2  0  0  0  0  0  0  0  0  0
   38.6310   25.4550   43.4950 H   0  0  0  0  0  0  0  0  0  0  0  0
   36.4080   25.3930   42.6120 H   0  0  0  0  0  0  0  0  0  0  0  0
   37.3930   26.2490   39.8570 H   0  0  0  0  0  0  0  0  0  0  0  0
   36.0280   25.1270   40.3770 H   0  0  0  0  0  0  0  0  0  0  0  0
   37.4440   23.4700   40.4180 H   0  0  0  0  0  0  0  0  0  0  0  0
   39.9490   24.7290   39.6060 H   0  0  0  0  0  0  0  0  0  0  0  0
   39.6080   23.4100   40.7290 H   0  0  0  0  0  0  0  0  0  0  0  0
   39.4280   26.3830   41.3650 H   0  0  0  0  0  0  0  0  0  0  0  0
   40.8650   25.1020   42.2490 C   0  0  0  0  0  2  0  0  0  0  0  0
   41.2760   24.1840   41.8230 H   0  0  0  0  0  0  0  0  0  0  0  0
   37.1770   32.5120   40.0170 C   0  0  0  0  0  0  0  0  0  0  0  0
   36.8980   31.2130   40.5210 C   0  0  0  0  0  0  0  0  0  0  0  0
   37.8820   30.6350   41.2930 C   0  0  0  0  0  0  0  0  0  0  0  0
   39.0360   31.3140   41.5310 N   0  0  0  0  0  0  0  0  0  0  0  0
   39.2630   32.5500   41.0350 C   0  0  0  0  0  0  0  0  0  0  0  0
   38.3280   33.1230   40.2880 N   0  0  0  0  0  0  0  0  0  0  0  0
   36.3890   32.9470   39.4120 H   0  0  0  0  0  0  0  0  0  0  0  0
   35.9850   30.6830   40.3300 H   0  0  0  0  0  0  0  0  0  0  0  0
   40.2240   32.9790   41.3000 H   0  0  0  0  0  0  0  0  0  0  0  0
  1  2  1  0  0  0  0
  2  3  2  0  0  0  0
  2  6  1  0  0  0  0
  3  7  1  0  0  0  0
  4  3  1  0  0  0  0
  5  1  2  0  0  0  0
  5  4  1  0  0  0  0
  8 14  1  0  0  0  0
  9  4  1  0  0  0  0
  9  8  1  0  0  0  0
  9 15  1  1  0  0  0
 10  9  1  0  0  0  0
 11 18  1  0  0  0  0
 11 12  1  0  0  0  0
 11 10  1  0  0  0  0
 12 20  1  0  0  0  0
 12 13  1  0  0  0  0
 13 21  1  6  0  0  0
 13 22  1  0  0  0  0
 13  8  1  0  0  0  0
 16 10  1  0  0  0  0
 17 10  1  0  0  0  0
 19 12  1  0  0  0  0
 23 22  1  0  0  0  0
 24 29  2  0  0  0  0
 24 25  1  0  0  0  0
 25 26  2  0  0  0  0
 26 27  1  0  0  0  0
 26  1  1  0  0  0  0
 28 32  1  0  0  0  0
 28 27  2  0  0  0  0
 29 28  1  0  0  0  0
 30 24  1  0  0  0  0
 31 25  1  0  0  0  0
M  END
>  <minimizedAffinity>
-4.61496592

$$$$
