
 OpenBabel03242512243D

 13 13  0  0  0  0  0  0  0  0999 V2000
   44.9080   35.1030   44.1790 C   0  0  0  0  0  0  0  0  0  0  0  0
   45.7530   35.2190   43.0630 C   0  0  0  0  0  0  0  0  0  0  0  0
   46.9460   34.4530   43.0240 C   0  0  0  0  0  0  0  0  0  0  0  0
   47.1890   33.6450   44.0940 N   0  0  0  0  0  0  0  0  0  0  0  0
   46.3590   33.5630   45.1400 C   0  0  0  0  0  0  0  0  0  0  0  0
   45.2360   34.2790   45.1850 N   0  0  0  0  0  0  0  0  0  0  0  0
   43.7160   35.8650   44.2260 N   0  0  0  0  0  0  0  0  0  0  0  0
   45.5400   35.8660   42.2250 H   0  0  0  0  0  0  0  0  0  0  0  0
   47.6190   34.5170   42.1810 H   0  0  0  0  0  0  0  0  0  0  0  0
   42.7260   35.6340   44.1210 H   0  0  0  0  0  0  0  0  0  0  0  0
   44.0590   36.8340   44.4090 H   0  0  0  0  0  0  0  0  0  0  0  0
   46.6860   32.6560   46.2830 C   0  0  0  0  0  0  0  0  0  0  0  0
   47.5140   33.0660   46.8980 H   0  0  0  0  0  0  0  0  0  0  0  0
  1  7  1  0  0  0  0
  1  6  1  0  0  0  0
  2  1  2  0  0  0  0
  3  2  1  0  0  0  0
  3  4  2  0  0  0  0
  4  5  1  0  0  0  0
  5  6  2  0  0  0  0
  5 12  1  0  0  0  0
  7 11  1  0  0  0  0
  8  2  1  0  0  0  0
  9  3  1  0  0  0  0
 10  7  1  0  0  0  0
 12 13  1  0  0  0  0
M  END
>  <minimizedAffinity>
-3.54134345

>  <minimizedRMSD>
1.12070501

$$$$
