
 OpenBabel03242517523D

 25 26  0  0  0  0  0  0  0  0999 V2000
   37.2160   31.4860   39.0180 C   0  0  0  0  0  0  0  0  0  0  0  0
   36.5070   30.3870   39.4060 C   0  0  0  0  0  0  0  0  0  0  0  0
   36.1470   29.4670   38.4230 C   0  0  0  0  0  0  0  0  0  0  0  0
   36.4850   29.6420   37.1030 C   0  0  0  0  0  0  0  0  0  0  0  0
   37.2070   30.7680   36.7290 C   0  0  0  0  0  0  0  0  0  0  0  0
   37.5710   31.6940   37.7060 C   0  0  0  0  0  0  0  0  0  0  0  0
   35.5910   28.5690   38.6150 H   0  0  0  0  0  0  0  0  0  0  0  0
   36.2150   28.9400   36.3270 H   0  0  0  0  0  0  0  0  0  0  0  0
   37.4730   30.9070   35.6910 H   0  0  0  0  0  0  0  0  0  0  0  0
   38.1310   32.5800   37.4560 H   0  0  0  0  0  0  0  0  0  0  0  0
   37.6260   32.5850   40.3030 S   0  0  0  0  0  0  0  0  0  0  0  0
   37.6540   34.0100   39.8390 O   0  0  0  0  0  0  0  0  0  0  0  0
   39.0410   32.2510   40.7640 O   0  0  0  0  0  0  0  0  0  0  0  0
   36.8250   32.4310   41.4110 H   0  0  0  0  0  0  0  0  0  0  0  0
   36.0710   30.0290   40.6720 O   0  0  0  0  0  0  0  0  0  0  0  0
   38.0960   28.8660   43.3320 C   0  0  0  0  0  0  0  0  0  0  0  0
   37.9600   27.4770   43.2650 C   0  0  0  0  0  0  0  0  0  0  0  0
   37.1470   26.9520   42.2730 C   0  0  0  0  0  0  0  0  0  0  0  0
   36.5370   27.8010   41.4340 N   0  0  0  0  0  0  0  0  0  0  0  0
   36.6820   29.1360   41.5150 C   0  0  0  0  0  0  0  0  0  0  0  0
   37.4650   29.6530   42.4700 N   0  0  0  0  0  0  0  0  0  0  0  0
   38.7320   29.2610   44.1090 H   0  0  0  0  0  0  0  0  0  0  0  0
   38.4620   26.8240   43.9540 H   0  0  0  0  0  0  0  0  0  0  0  0
   37.0020   25.4900   42.2020 C   0  0  0  0  0  2  0  0  0  0  0  0
   37.4690   25.0580   43.1110 H   0  0  0  0  0  0  0  0  0  0  0  0
  1  2  1  0  0  0  0
  1 11  1  0  0  0  0
  2 15  1  0  0  0  0
  3  7  1  0  0  0  0
  3  2  2  0  0  0  0
  4  3  1  0  0  0  0
  5  4  2  0  0  0  0
  5  6  1  0  0  0  0
  6  1  2  0  0  0  0
  8  4  1  0  0  0  0
  9  5  1  0  0  0  0
 10  6  1  0  0  0  0
 11 13  2  0  0  0  0
 11 14  1  0  0  0  0
 12 11  2  0  0  0  0
 15 20  1  0  0  0  0
 16 22  1  0  0  0  0
 17 16  1  0  0  0  0
 17 23  1  0  0  0  0
 18 17  2  0  0  0  0
 19 20  2  0  0  0  0
 19 18  1  0  0  0  0
 20 21  1  0  0  0  0
 21 16  2  0  0  0  0
 24 18  1  0  0  0  0
 24 25  1  0  0  0  0
M  END
>  <minimizedAffinity>
-4.8967042

$$$$

 OpenBabel03242517523D

 25 26  0  0  0  0  0  0  0  0999 V2000
   37.8850   29.9540   41.5840 C   0  0  0  0  0  0  0  0  0  0  0  0
   37.1650   28.8890   42.0410 C   0  0  0  0  0  0  0  0  0  0  0  0
   35.9550   28.6050   41.4100 C   0  0  0  0  0  0  0  0  0  0  0  0
   35.4870   29.3600   40.3610 C   0  0  0  0  0  0  0  0  0  0  0  0
   36.2360   30.4400   39.9120 C   0  0  0  0  0  0  0  0  0  0  0  0
   37.4470   30.7310   40.5380 C   0  0  0  0  0  0  0  0  0  0  0  0
   35.3100   27.7940   41.6860 H   0  0  0  0  0  0  0  0  0  0  0  0
   34.5510   29.1560   39.8600 H   0  0  0  0  0  0  0  0  0  0  0  0
   35.8670   31.0340   39.0870 H   0  0  0  0  0  0  0  0  0  0  0  0
   38.0560   31.5600   40.2190 H   0  0  0  0  0  0  0  0  0  0  0  0
   39.3810   30.2400   42.4250 S   0  0  0  0  0  0  0  0  0  0  0  0
   39.8950   31.6320   42.2040 O   0  0  0  0  0  0  0  0  0  0  0  0
   40.4280   29.2950   41.8420 O   0  0  0  0  0  0  0  0  0  0  0  0
   39.3070   29.9370   43.7640 H   0  0  0  0  0  0  0  0  0  0  0  0
   37.4580   28.0130   43.0740 O   0  0  0  0  0  0  0  0  0  0  0  0
   39.9670   25.5790   43.6320 C   0  0  0  0  0  0  0  0  0  0  0  0
   39.5690   24.5080   42.8290 C   0  0  0  0  0  0  0  0  0  0  0  0
   38.4070   24.6500   42.0860 C   0  0  0  0  0  0  0  0  0  0  0  0
   37.7300   25.8020   42.1790 N   0  0  0  0  0  0  0  0  0  0  0  0
   38.1300   26.8220   42.9590 C   0  0  0  0  0  0  0  0  0  0  0  0
   39.2510   26.6960   43.6800 N   0  0  0  0  0  0  0  0  0  0  0  0
   40.8730   25.4550   44.2050 H   0  0  0  0  0  0  0  0  0  0  0  0
   40.1350   23.5970   42.7770 H   0  0  0  0  0  0  0  0  0  0  0  0
   37.9880   23.5220   41.2400 C   0  0  0  0  0  2  0  0  0  0  0  0
   38.6290   22.6530   41.4910 H   0  0  0  0  0  0  0  0  0  0  0  0
  1  2  1  0  0  0  0
  1 11  1  0  0  0  0
  2 15  1  0  0  0  0
  3  7  1  0  0  0  0
  3  2  2  0  0  0  0
  4  3  1  0  0  0  0
  5  4  2  0  0  0  0
  5  6  1  0  0  0  0
  6  1  2  0  0  0  0
  8  4  1  0  0  0  0
  9  5  1  0  0  0  0
 10  6  1  0  0  0  0
 11 14  1  0  0  0  0
 12 11  2  0  0  0  0
 13 11  2  0  0  0  0
 16 21  1  0  0  0  0
 16 22  1  0  0  0  0
 17 16  2  0  0  0  0
 18 19  2  0  0  0  0
 18 17  1  0  0  0  0
 19 20  1  0  0  0  0
 20 15  1  0  0  0  0
 20 21  2  0  0  0  0
 23 17  1  0  0  0  0
 24 25  1  0  0  0  0
 24 18  1  0  0  0  0
M  END
>  <minimizedAffinity>
-4.62694073

$$$$

 OpenBabel03242517523D

 25 26  0  0  0  0  0  0  0  0999 V2000
   36.2810   29.7560   38.1500 C   0  0  0  0  0  0  0  0  0  0  0  0
   36.4400   30.2700   39.4030 C   0  0  0  0  0  0  0  0  0  0  0  0
   37.2150   31.4210   39.5390 C   0  0  0  0  0  0  0  0  0  0  0  0
   37.8060   32.0320   38.4590 C   0  0  0  0  0  0  0  0  0  0  0  0
   37.6310   31.4920   37.1920 C   0  0  0  0  0  0  0  0  0  0  0  0
   36.8580   30.3410   37.0470 C   0  0  0  0  0  0  0  0  0  0  0  0
   37.4060   31.9100   40.4750 H   0  0  0  0  0  0  0  0  0  0  0  0
   38.4100   32.9240   38.5450 H   0  0  0  0  0  0  0  0  0  0  0  0
   38.0960   31.9720   36.3420 H   0  0  0  0  0  0  0  0  0  0  0  0
   36.6990   29.8920   36.0810 H   0  0  0  0  0  0  0  0  0  0  0  0
   35.3010   28.3210   38.0660 S   0  0  0  0  0  0  0  0  0  0  0  0
   35.3970   27.6490   36.7290 O   0  0  0  0  0  0  0  0  0  0  0  0
   33.8450   28.7440   38.2340 O   0  0  0  0  0  0  0  0  0  0  0  0
   35.5560   27.4410   39.0930 H   0  0  0  0  0  0  0  0  0  0  0  0
   35.9340   29.8100   40.6090 O   0  0  0  0  0  0  0  0  0  0  0  0
   37.9270   28.8280   43.3640 C   0  0  0  0  0  0  0  0  0  0  0  0
   37.8970   27.4330   43.3100 C   0  0  0  0  0  0  0  0  0  0  0  0
   37.1670   26.8380   42.2920 C   0  0  0  0  0  0  0  0  0  0  0  0
   36.5310   27.6310   41.4180 N   0  0  0  0  0  0  0  0  0  0  0  0
   36.5730   28.9740   41.4880 C   0  0  0  0  0  0  0  0  0  0  0  0
   37.2760   29.5580   42.4660 N   0  0  0  0  0  0  0  0  0  0  0  0
   38.4990   29.2780   44.1610 H   0  0  0  0  0  0  0  0  0  0  0  0
   38.4170   26.8260   44.0270 H   0  0  0  0  0  0  0  0  0  0  0  0
   37.1340   25.3680   42.2350 C   0  0  0  0  0  2  0  0  0  0  0  0
   37.5930   24.9830   43.1680 H   0  0  0  0  0  0  0  0  0  0  0  0
  1  2  1  0  0  0  0
  2  3  2  0  0  0  0
  2 15  1  0  0  0  0
  3  7  1  0  0  0  0
  4  8  1  0  0  0  0
  4  3  1  0  0  0  0
  5  4  2  0  0  0  0
  6  5  1  0  0  0  0
  6  1  2  0  0  0  0
  9  5  1  0  0  0  0
 10  6  1  0  0  0  0
 11  1  1  0  0  0  0
 11 13  2  0  0  0  0
 11 14  1  0  0  0  0
 12 11  2  0  0  0  0
 15 20  1  0  0  0  0
 16 22  1  0  0  0  0
 17 16  1  0  0  0  0
 17 23  1  0  0  0  0
 18 17  2  0  0  0  0
 19 20  2  0  0  0  0
 19 18  1  0  0  0  0
 20 21  1  0  0  0  0
 21 16  2  0  0  0  0
 24 18  1  0  0  0  0
 24 25  1  0  0  0  0
M  END
>  <minimizedAffinity>
-4.61535692

$$$$

 OpenBabel03242517523D

 25 26  0  0  0  0  0  0  0  0999 V2000
   39.1290   26.3550   42.6280 C   0  0  0  0  0  0  0  0  0  0  0  0
   37.7770   26.5130   42.5410 C   0  0  0  0  0  0  0  0  0  0  0  0
   37.0170   25.4060   42.1660 C   0  0  0  0  0  0  0  0  0  0  0  0
   37.5930   24.1890   41.8890 C   0  0  0  0  0  0  0  0  0  0  0  0
   38.9710   24.0500   41.9830 C   0  0  0  0  0  0  0  0  0  0  0  0
   39.7390   25.1530   42.3580 C   0  0  0  0  0  0  0  0  0  0  0  0
   35.9490   25.4160   42.0670 H   0  0  0  0  0  0  0  0  0  0  0  0
   37.0200   23.3200   41.5960 H   0  0  0  0  0  0  0  0  0  0  0  0
   39.4240   23.0930   41.7650 H   0  0  0  0  0  0  0  0  0  0  0  0
   40.8100   25.0850   42.4420 H   0  0  0  0  0  0  0  0  0  0  0  0
   40.0030   27.7830   43.1020 S   0  0  0  0  0  0  0  0  0  0  0  0
   40.3190   28.6660   41.9310 O   0  0  0  0  0  0  0  0  0  0  0  0
   41.3430   27.3350   43.6790 O   0  0  0  0  0  0  0  0  0  0  0  0
   39.3770   28.4820   44.1070 H   0  0  0  0  0  0  0  0  0  0  0  0
   37.0110   27.6440   42.7760 O   0  0  0  0  0  0  0  0  0  0  0  0
   36.7850   30.7690   41.1300 C   0  0  0  0  0  0  0  0  0  0  0  0
   35.9400   30.5100   40.0480 C   0  0  0  0  0  0  0  0  0  0  0  0
   35.4480   29.2220   39.9030 C   0  0  0  0  0  0  0  0  0  0  0  0
   35.8090   28.2980   40.8030 N   0  0  0  0  0  0  0  0  0  0  0  0
   36.6240   28.5680   41.8390 C   0  0  0  0  0  0  0  0  0  0  0  0
   37.1040   29.8090   41.9890 N   0  0  0  0  0  0  0  0  0  0  0  0
   37.1600   31.7760   41.2320 H   0  0  0  0  0  0  0  0  0  0  0  0
   35.6700   31.2740   39.3430 H   0  0  0  0  0  0  0  0  0  0  0  0
   34.5590   28.9480   38.7630 C   0  0  0  0  0  2  0  0  0  0  0  0
   34.5760   29.8360   38.0990 H   0  0  0  0  0  0  0  0  0  0  0  0
  1 11  1  0  0  0  0
  2  1  1  0  0  0  0
  2 15  1  0  0  0  0
  3  2  2  0  0  0  0
  4  5  2  0  0  0  0
  4  3  1  0  0  0  0
  5  6  1  0  0  0  0
  6 10  1  0  0  0  0
  6  1  2  0  0  0  0
  7  3  1  0  0  0  0
  8  4  1  0  0  0  0
  9  5  1  0  0  0  0
 11 13  2  0  0  0  0
 11 14  1  0  0  0  0
 12 11  2  0  0  0  0
 16 22  1  0  0  0  0
 16 21  1  0  0  0  0
 17 16  2  0  0  0  0
 18 17  1  0  0  0  0
 18 19  2  0  0  0  0
 19 20  1  0  0  0  0
 20 21  2  0  0  0  0
 20 15  1  0  0  0  0
 23 17  1  0  0  0  0
 24 18  1  0  0  0  0
 25 24  1  0  0  0  0
M  END
>  <minimizedAffinity>
-4.60013866

$$$$

 OpenBabel03242517523D

 25 26  0  0  0  0  0  0  0  0999 V2000
   36.4750   27.2240   40.1390 C   0  0  0  0  0  0  0  0  0  0  0  0
   36.4990   27.9260   41.3080 C   0  0  0  0  0  0  0  0  0  0  0  0
   36.8350   27.2370   42.4720 C   0  0  0  0  0  0  0  0  0  0  0  0
   37.1360   25.8960   42.4630 C   0  0  0  0  0  0  0  0  0  0  0  0
   37.1050   25.2000   41.2620 C   0  0  0  0  0  0  0  0  0  0  0  0
   36.7690   25.8810   40.0930 C   0  0  0  0  0  0  0  0  0  0  0  0
   36.8850   27.6890   43.4440 H   0  0  0  0  0  0  0  0  0  0  0  0
   37.3990   25.3450   43.3560 H   0  0  0  0  0  0  0  0  0  0  0  0
   37.3410   24.1450   41.2550 H   0  0  0  0  0  0  0  0  0  0  0  0
   36.7350   25.3760   39.1420 H   0  0  0  0  0  0  0  0  0  0  0  0
   36.0460   28.1550   38.7340 S   0  0  0  0  0  0  0  0  0  0  0  0
   35.4140   27.3100   37.6680 O   0  0  0  0  0  0  0  0  0  0  0  0
   37.3350   28.7120   38.1370 O   0  0  0  0  0  0  0  0  0  0  0  0
   35.2700   29.2500   39.0360 H   0  0  0  0  0  0  0  0  0  0  0  0
   36.2310   29.2680   41.5290 O   0  0  0  0  0  0  0  0  0  0  0  0
   39.1980   31.1910   41.6700 C   0  0  0  0  0  0  0  0  0  0  0  0
   38.8930   32.3210   40.9090 C   0  0  0  0  0  0  0  0  0  0  0  0
   37.6300   32.4020   40.3440 C   0  0  0  0  0  0  0  0  0  0  0  0
   36.7730   31.3940   40.5570 N   0  0  0  0  0  0  0  0  0  0  0  0
   37.0860   30.3130   41.2930 C   0  0  0  0  0  0  0  0  0  0  0  0
   38.3030   30.2260   41.8440 N   0  0  0  0  0  0  0  0  0  0  0  0
   40.1860   31.1410   42.1040 H   0  0  0  0  0  0  0  0  0  0  0  0
   39.6040   33.1120   40.7570 H   0  0  0  0  0  0  0  0  0  0  0  0
   37.3080   33.5930   39.5420 C   0  0  0  0  0  2  0  0  0  0  0  0
   38.2460   34.1650   39.3930 H   0  0  0  0  0  0  0  0  0  0  0  0
  1  2  1  0  0  0  0
  2 15  1  0  0  0  0
  2  3  2  0  0  0  0
  3  7  1  0  0  0  0
  4  3  1  0  0  0  0
  4  8  1  0  0  0  0
  5  4  2  0  0  0  0
  6  1  2  0  0  0  0
  6  5  1  0  0  0  0
  9  5  1  0  0  0  0
 10  6  1  0  0  0  0
 11 14  1  0  0  0  0
 11  1  1  0  0  0  0
 12 11  2  0  0  0  0
 13 11  2  0  0  0  0
 16 21  1  0  0  0  0
 16 22  1  0  0  0  0
 17 16  2  0  0  0  0
 18 19  2  0  0  0  0
 18 17  1  0  0  0  0
 19 20  1  0  0  0  0
 20 15  1  0  0  0  0
 20 21  2  0  0  0  0
 23 17  1  0  0  0  0
 24 18  1  0  0  0  0
 25 24  1  0  0  0  0
M  END
>  <minimizedAffinity>
-4.5804348

$$$$

 OpenBabel03242517523D

 25 26  0  0  0  0  0  0  0  0999 V2000
   39.4360   31.9430   40.7050 C   0  0  0  0  0  0  0  0  0  0  0  0
   38.6290   30.9260   40.2870 C   0  0  0  0  0  0  0  0  0  0  0  0
   37.4390   31.2650   39.6430 C   0  0  0  0  0  0  0  0  0  0  0  0
   37.0750   32.5720   39.4270 C   0  0  0  0  0  0  0  0  0  0  0  0
   37.9120   33.5920   39.8610 C   0  0  0  0  0  0  0  0  0  0  0  0
   39.1040   33.2620   40.5060 C   0  0  0  0  0  0  0  0  0  0  0  0
   36.7310   30.5480   39.2730 H   0  0  0  0  0  0  0  0  0  0  0  0
   36.1570   32.8540   38.9310 H   0  0  0  0  0  0  0  0  0  0  0  0
   37.6260   34.6210   39.6920 H   0  0  0  0  0  0  0  0  0  0  0  0
   39.7790   34.0250   40.8570 H   0  0  0  0  0  0  0  0  0  0  0  0
   40.8990   31.4370   41.4980 S   0  0  0  0  0  0  0  0  0  0  0  0
   40.6850   31.1650   42.9570 O   0  0  0  0  0  0  0  0  0  0  0  0
   41.8940   32.5900   41.4130 O   0  0  0  0  0  0  0  0  0  0  0  0
   41.5050   30.3730   40.8700 H   0  0  0  0  0  0  0  0  0  0  0  0
   38.8110   29.5580   40.4070 O   0  0  0  0  0  0  0  0  0  0  0  0
   37.3550   28.5940   43.4850 C   0  0  0  0  0  0  0  0  0  0  0  0
   37.0620   27.2410   43.3000 C   0  0  0  0  0  0  0  0  0  0  0  0
   37.3830   26.6680   42.0790 C   0  0  0  0  0  0  0  0  0  0  0  0
   37.9540   27.4410   41.1450 N   0  0  0  0  0  0  0  0  0  0  0  0
   38.2280   28.7430   41.3430 C   0  0  0  0  0  0  0  0  0  0  0  0
   37.9230   29.3050   42.5190 N   0  0  0  0  0  0  0  0  0  0  0  0
   37.1000   29.0270   44.4410 H   0  0  0  0  0  0  0  0  0  0  0  0
   36.6030   26.6490   44.0710 H   0  0  0  0  0  0  0  0  0  0  0  0
   37.0740   25.2430   41.8830 C   0  0  0  0  0  2  0  0  0  0  0  0
   36.4570   24.9090   42.7420 H   0  0  0  0  0  0  0  0  0  0  0  0
  1 11  1  0  0  0  0
  2 15  1  0  0  0  0
  2  1  2  0  0  0  0
  3  2  1  0  0  0  0
  4  3  2  0  0  0  0
  4  5  1  0  0  0  0
  5  6  2  0  0  0  0
  6  1  1  0  0  0  0
  6 10  1  0  0  0  0
  7  3  1  0  0  0  0
  8  4  1  0  0  0  0
  9  5  1  0  0  0  0
 11 12  2  0  0  0  0
 13 11  2  0  0  0  0
 14 11  1  0  0  0  0
 15 20  1  0  0  0  0
 16 22  1  0  0  0  0
 17 16  1  0  0  0  0
 17 23  1  0  0  0  0
 18 17  2  0  0  0  0
 19 20  2  0  0  0  0
 19 18  1  0  0  0  0
 20 21  1  0  0  0  0
 21 16  2  0  0  0  0
 24 18  1  0  0  0  0
 24 25  1  0  0  0  0
M  END
>  <minimizedAffinity>
-4.564013

$$$$

 OpenBabel03242517523D

 25 26  0  0  0  0  0  0  0  0999 V2000
   36.7920   27.0450   40.7630 C   0  0  0  0  0  0  0  0  0  0  0  0
   36.3080   28.2870   40.4730 C   0  0  0  0  0  0  0  0  0  0  0  0
   35.7080   28.4750   39.2290 C   0  0  0  0  0  0  0  0  0  0  0  0
   35.5960   27.4560   38.3130 C   0  0  0  0  0  0  0  0  0  0  0  0
   36.0950   26.1990   38.6300 C   0  0  0  0  0  0  0  0  0  0  0  0
   36.6980   26.0030   39.8720 C   0  0  0  0  0  0  0  0  0  0  0  0
   35.2940   29.4070   38.8960 H   0  0  0  0  0  0  0  0  0  0  0  0
   35.1340   27.5820   37.3440 H   0  0  0  0  0  0  0  0  0  0  0  0
   36.0070   25.3970   37.9100 H   0  0  0  0  0  0  0  0  0  0  0  0
   37.0970   25.0430   40.1540 H   0  0  0  0  0  0  0  0  0  0  0  0
   37.5260   26.8940   42.3340 S   0  0  0  0  0  0  0  0  0  0  0  0
   38.1220   25.5350   42.5490 O   0  0  0  0  0  0  0  0  0  0  0  0
   36.4240   27.0540   43.3760 O   0  0  0  0  0  0  0  0  0  0  0  0
   38.4360   27.8920   42.5950 H   0  0  0  0  0  0  0  0  0  0  0  0
   36.3220   29.4350   41.2480 O   0  0  0  0  0  0  0  0  0  0  0  0
   39.2540   31.3950   41.5580 C   0  0  0  0  0  0  0  0  0  0  0  0
   38.9420   32.5640   40.8610 C   0  0  0  0  0  0  0  0  0  0  0  0
   37.6870   32.6580   40.2800 C   0  0  0  0  0  0  0  0  0  0  0  0
   36.8440   31.6260   40.4160 N   0  0  0  0  0  0  0  0  0  0  0  0
   37.1640   30.5070   41.0920 C   0  0  0  0  0  0  0  0  0  0  0  0
   38.3730   30.4070   41.6580 N   0  0  0  0  0  0  0  0  0  0  0  0
   40.2340   31.3350   42.0060 H   0  0  0  0  0  0  0  0  0  0  0  0
   39.6410   33.3740   40.7700 H   0  0  0  0  0  0  0  0  0  0  0  0
   37.3580   33.8900   39.5450 C   0  0  0  0  0  2  0  0  0  0  0  0
   38.2880   34.4850   39.4480 H   0  0  0  0  0  0  0  0  0  0  0  0
  1 11  1  0  0  0  0
  2  1  1  0  0  0  0
  2 15  1  0  0  0  0
  3  2  2  0  0  0  0
  4  5  2  0  0  0  0
  4  3  1  0  0  0  0
  5  6  1  0  0  0  0
  6 10  1  0  0  0  0
  6  1  2  0  0  0  0
  7  3  1  0  0  0  0
  8  4  1  0  0  0  0
  9  5  1  0  0  0  0
 11 12  2  0  0  0  0
 11 14  1  0  0  0  0
 11 13  2  0  0  0  0
 16 21  1  0  0  0  0
 16 22  1  0  0  0  0
 17 16  2  0  0  0  0
 18 19  2  0  0  0  0
 18 17  1  0  0  0  0
 19 20  1  0  0  0  0
 20 15  1  0  0  0  0
 20 21  2  0  0  0  0
 23 17  1  0  0  0  0
 24 18  1  0  0  0  0
 25 24  1  0  0  0  0
M  END
>  <minimizedAffinity>
-4.4727726

$$$$

 OpenBabel03242517523D

 25 26  0  0  0  0  0  0  0  0999 V2000
   39.0430   26.5480   42.6640 C   0  0  0  0  0  0  0  0  0  0  0  0
   37.6920   26.7170   42.5740 C   0  0  0  0  0  0  0  0  0  0  0  0
   36.9120   25.5880   42.3260 C   0  0  0  0  0  0  0  0  0  0  0  0
   37.4660   24.3390   42.1760 C   0  0  0  0  0  0  0  0  0  0  0  0
   38.8440   24.1900   42.2710 C   0  0  0  0  0  0  0  0  0  0  0  0
   39.6310   25.3140   42.5180 C   0  0  0  0  0  0  0  0  0  0  0  0
   35.8430   25.6040   42.2370 H   0  0  0  0  0  0  0  0  0  0  0  0
   36.8780   23.4530   41.9840 H   0  0  0  0  0  0  0  0  0  0  0  0
   39.2800   23.2080   42.1530 H   0  0  0  0  0  0  0  0  0  0  0  0
   40.7030   25.2390   42.5990 H   0  0  0  0  0  0  0  0  0  0  0  0
   39.9430   28.0040   42.9740 S   0  0  0  0  0  0  0  0  0  0  0  0
   40.3420   28.7010   41.7070 O   0  0  0  0  0  0  0  0  0  0  0  0
   41.2380   27.6070   43.6760 O   0  0  0  0  0  0  0  0  0  0  0  0
   39.2950   28.8570   43.8370 H   0  0  0  0  0  0  0  0  0  0  0  0
   36.9450   27.8780   42.6930 O   0  0  0  0  0  0  0  0  0  0  0  0
   35.3840   29.0350   39.7350 C   0  0  0  0  0  0  0  0  0  0  0  0
   35.8730   30.3360   39.5940 C   0  0  0  0  0  0  0  0  0  0  0  0
   36.7600   30.8040   40.5510 C   0  0  0  0  0  0  0  0  0  0  0  0
   37.0990   29.9860   41.5580 N   0  0  0  0  0  0  0  0  0  0  0  0
   36.6160   28.7360   41.6760 C   0  0  0  0  0  0  0  0  0  0  0  0
   35.7600   28.2750   40.7560 N   0  0  0  0  0  0  0  0  0  0  0  0
   34.6950   28.6840   38.9830 H   0  0  0  0  0  0  0  0  0  0  0  0
   35.5810   30.9660   38.7750 H   0  0  0  0  0  0  0  0  0  0  0  0
   37.2750   32.1740   40.4030 C   0  0  0  0  0  2  0  0  0  0  0  0
   36.6990   32.6670   39.5940 H   0  0  0  0  0  0  0  0  0  0  0  0
  1 11  1  0  0  0  0
  2  1  1  0  0  0  0
  2 15  1  0  0  0  0
  3  2  2  0  0  0  0
  4  5  2  0  0  0  0
  4  3  1  0  0  0  0
  5  6  1  0  0  0  0
  6 10  1  0  0  0  0
  6  1  2  0  0  0  0
  7  3  1  0  0  0  0
  8  4  1  0  0  0  0
  9  5  1  0  0  0  0
 11 13  2  0  0  0  0
 11 14  1  0  0  0  0
 12 11  2  0  0  0  0
 16 21  1  0  0  0  0
 17 16  2  0  0  0  0
 17 18  1  0  0  0  0
 18 19  2  0  0  0  0
 19 20  1  0  0  0  0
 20 15  1  0  0  0  0
 21 20  2  0  0  0  0
 22 16  1  0  0  0  0
 23 17  1  0  0  0  0
 24 18  1  0  0  0  0
 25 24  1  0  0  0  0
M  END
>  <minimizedAffinity>
-4.47081137

$$$$

 OpenBabel03242517523D

 25 26  0  0  0  0  0  0  0  0999 V2000
   39.3750   26.5370   42.1950 C   0  0  0  0  0  0  0  0  0  0  0  0
   38.2470   27.2010   42.5800 C   0  0  0  0  0  0  0  0  0  0  0  0
   37.0460   26.4930   42.5810 C   0  0  0  0  0  0  0  0  0  0  0  0
   36.9800   25.1710   42.2120 C   0  0  0  0  0  0  0  0  0  0  0  0
   38.1400   24.5140   41.8240 C   0  0  0  0  0  0  0  0  0  0  0  0
   39.3460   25.2140   41.8190 C   0  0  0  0  0  0  0  0  0  0  0  0
   36.1000   26.9140   42.8640 H   0  0  0  0  0  0  0  0  0  0  0  0
   36.0580   24.6060   42.2060 H   0  0  0  0  0  0  0  0  0  0  0  0
   38.0880   23.4740   41.5330 H   0  0  0  0  0  0  0  0  0  0  0  0
   40.2670   24.7400   41.5250 H   0  0  0  0  0  0  0  0  0  0  0  0
   40.8300   27.4900   42.2210 S   0  0  0  0  0  0  0  0  0  0  0  0
   41.9680   26.7990   41.5320 O   0  0  0  0  0  0  0  0  0  0  0  0
   41.2460   27.6590   43.6790 O   0  0  0  0  0  0  0  0  0  0  0  0
   40.6420   28.7630   41.7350 H   0  0  0  0  0  0  0  0  0  0  0  0
   38.1020   28.5180   42.9830 O   0  0  0  0  0  0  0  0  0  0  0  0
   36.2630   30.7120   40.9020 C   0  0  0  0  0  0  0  0  0  0  0  0
   37.2010   31.6780   40.5320 C   0  0  0  0  0  0  0  0  0  0  0  0
   38.4920   31.5500   41.0230 C   0  0  0  0  0  0  0  0  0  0  0  0
   38.7680   30.5110   41.8230 N   0  0  0  0  0  0  0  0  0  0  0  0
   37.8490   29.5910   42.1670 C   0  0  0  0  0  0  0  0  0  0  0  0
   36.6000   29.7050   41.6980 N   0  0  0  0  0  0  0  0  0  0  0  0
   35.2620   30.8240   40.5120 H   0  0  0  0  0  0  0  0  0  0  0  0
   36.9470   32.4990   39.8880 H   0  0  0  0  0  0  0  0  0  0  0  0
   39.4810   32.5670   40.6340 C   0  0  0  0  0  2  0  0  0  0  0  0
   38.9400   33.3880   40.1210 H   0  0  0  0  0  0  0  0  0  0  0  0
  1 11  1  0  0  0  0
  1  2  1  0  0  0  0
  2  3  2  0  0  0  0
  2 15  1  0  0  0  0
  3  7  1  0  0  0  0
  4  3  1  0  0  0  0
  5  4  2  0  0  0  0
  6  5  1  0  0  0  0
  6  1  2  0  0  0  0
  8  4  1  0  0  0  0
  9  5  1  0  0  0  0
 10  6  1  0  0  0  0
 11 13  2  0  0  0  0
 12 11  2  0  0  0  0
 14 11  1  0  0  0  0
 16 21  1  0  0  0  0
 17 16  2  0  0  0  0
 17 18  1  0  0  0  0
 18 19  2  0  0  0  0
 19 20  1  0  0  0  0
 20 15  1  0  0  0  0
 21 20  2  0  0  0  0
 22 16  1  0  0  0  0
 23 17  1  0  0  0  0
 24 18  1  0  0  0  0
 25 24  1  0  0  0  0
M  END
>  <minimizedAffinity>
-4.41697168

$$$$
