
 OpenBabel03242513483D

 25 27  0  0  1  0  0  0  0  0999 V2000
   37.3280   31.4470   37.9920 C   0  0  1  0  0  0  0  0  0  0  0  0
   37.8450   30.0320   37.7090 C   0  0  0  0  0  0  0  0  0  0  0  0
   36.6760   30.2450   38.5420 C   0  0  1  0  0  0  0  0  0  0  0  0
   36.7640   31.9990   37.2150 H   0  0  0  0  0  0  0  0  0  0  0  0
   38.8080   29.7280   38.1330 H   0  0  0  0  0  0  0  0  0  0  0  0
   37.6810   29.6860   36.6590 H   0  0  0  0  0  0  0  0  0  0  0  0
   35.6240   30.1140   38.1950 H   0  0  0  0  0  0  0  0  0  0  0  0
   38.2410   32.3060   38.7910 C   0  0  0  0  0  0  0  0  0  0  0  0
   37.6720   33.3500   39.5430 C   0  0  0  0  0  0  0  0  0  0  0  0
   38.5460   34.1610   40.2830 C   0  0  0  0  0  0  0  0  0  0  0  0
   39.8970   33.8800   40.2230 N   0  0  0  0  0  0  0  0  0  0  0  0
   40.3790   32.8660   39.4830 C   0  0  0  0  0  0  0  0  0  0  0  0
   39.5630   32.0770   38.7670 N   0  0  0  0  0  0  0  0  0  0  0  0
   36.6290   33.5670   39.5890 H   0  0  0  0  0  0  0  0  0  0  0  0
   38.2220   34.9770   40.8860 H   0  0  0  0  0  0  0  0  0  0  0  0
   41.4390   32.6590   39.4450 H   0  0  0  0  0  0  0  0  0  0  0  0
   36.8370   30.0050   40.0130 C   0  0  0  0  0  0  0  0  0  0  0  0
   36.1080   30.4520   41.1040 C   0  0  0  0  0  0  0  0  0  0  0  0
   36.6480   29.9350   42.2290 N   0  0  0  0  0  0  0  0  0  0  0  0
   37.6770   29.1910   41.8480 C   0  0  0  0  0  0  0  0  0  0  0  0
   37.8320   29.2010   40.5190 N   0  0  0  0  0  0  0  0  0  0  0  0
   35.2560   31.1080   40.9940 H   0  0  0  0  0  0  0  0  0  0  0  0
   36.3100   30.0970   43.2100 H   0  0  0  0  0  0  0  0  0  0  0  0
   38.6190   28.3940   42.7010 C   0  0  0  0  0  2  0  0  0  0  0  0
   39.6470   28.3730   42.2380 H   0  0  0  0  0  0  0  0  0  0  0  0
  1  4  1  6  0  0  0
  1  3  1  0  0  0  0
  1  8  1  0  0  0  0
  2  1  1  0  0  0  0
  2  5  1  0  0  0  0
  2  3  1  0  0  0  0
  3  7  1  6  0  0  0
  3 17  1  0  0  0  0
  6  2  1  0  0  0  0
  8  9  1  0  0  0  0
  9 14  1  0  0  0  0
  9 10  2  0  0  0  0
 10 15  1  0  0  0  0
 11 10  1  0  0  0  0
 12 11  2  0  0  0  0
 13  8  2  0  0  0  0
 13 12  1  0  0  0  0
 16 12  1  0  0  0  0
 17 21  1  0  0  0  0
 17 18  2  0  0  0  0
 18 19  1  0  0  0  0
 19 23  1  0  0  0  0
 20 19  1  0  0  0  0
 20 24  1  0  0  0  0
 21 20  2  0  0  0  0
 22 18  1  0  0  0  0
 25 24  1  0  0  0  0
M  END
>  <minimizedAffinity>
-4.47815323

$$$$

 OpenBabel03242513483D

 25 27  0  0  1  0  0  0  0  0999 V2000
   35.5840   29.5230   38.0700 C   0  0  1  0  0  0  0  0  0  0  0  0
   35.2590   28.0650   38.4130 C   0  0  0  0  0  0  0  0  0  0  0  0
   34.9390   29.1360   39.3380 C   0  0  1  0  0  0  0  0  0  0  0  0
   34.9540   30.0780   37.3490 H   0  0  0  0  0  0  0  0  0  0  0  0
   36.0850   27.3700   38.5990 H   0  0  0  0  0  0  0  0  0  0  0  0
   34.4230   27.6290   37.8120 H   0  0  0  0  0  0  0  0  0  0  0  0
   33.9210   29.5730   39.4680 H   0  0  0  0  0  0  0  0  0  0  0  0
   37.0330   29.8400   37.9660 C   0  0  0  0  0  0  0  0  0  0  0  0
   37.4100   31.1960   37.9420 C   0  0  0  0  0  0  0  0  0  0  0  0
   38.7790   31.4810   37.8320 C   0  0  0  0  0  0  0  0  0  0  0  0
   39.6580   30.4180   37.7540 N   0  0  0  0  0  0  0  0  0  0  0  0
   39.2340   29.1430   37.7820 C   0  0  0  0  0  0  0  0  0  0  0  0
   37.9290   28.8440   37.8870 N   0  0  0  0  0  0  0  0  0  0  0  0
   36.7310   32.0150   38.0010 H   0  0  0  0  0  0  0  0  0  0  0  0
   39.1730   32.4700   37.8050 H   0  0  0  0  0  0  0  0  0  0  0  0
   39.9340   28.3210   37.7200 H   0  0  0  0  0  0  0  0  0  0  0  0
   35.7770   29.2360   40.5770 C   0  0  0  0  0  0  0  0  0  0  0  0
   36.1990   30.3310   41.3160 C   0  0  0  0  0  0  0  0  0  0  0  0
   36.9240   29.8910   42.3690 N   0  0  0  0  0  0  0  0  0  0  0  0
   36.9480   28.5670   42.2850 C   0  0  0  0  0  0  0  0  0  0  0  0
   36.2690   28.1250   41.2200 N   0  0  0  0  0  0  0  0  0  0  0  0
   35.9510   31.3440   41.0350 H   0  0  0  0  0  0  0  0  0  0  0  0
   37.3740   30.4880   43.1040 H   0  0  0  0  0  0  0  0  0  0  0  0
   37.6150   27.5870   43.2020 C   0  0  0  0  0  2  0  0  0  0  0  0
   37.9680   26.6850   42.6250 H   0  0  0  0  0  0  0  0  0  0  0  0
  1  4  1  6  0  0  0
  1  2  1  0  0  0  0
  1  3  1  0  0  0  0
  2  5  1  0  0  0  0
  2  3  1  0  0  0  0
  3  7  1  1  0  0  0
  3 17  1  0  0  0  0
  6  2  1  0  0  0  0
  8  1  1  0  0  0  0
  9  8  1  0  0  0  0
  9 14  1  0  0  0  0
 10  9  2  0  0  0  0
 11 12  2  0  0  0  0
 11 10  1  0  0  0  0
 12 13  1  0  0  0  0
 13  8  2  0  0  0  0
 15 10  1  0  0  0  0
 16 12  1  0  0  0  0
 17 21  1  0  0  0  0
 17 18  2  0  0  0  0
 18 19  1  0  0  0  0
 19 23  1  0  0  0  0
 20 19  1  0  0  0  0
 20 24  1  0  0  0  0
 21 20  2  0  0  0  0
 22 18  1  0  0  0  0
 25 24  1  0  0  0  0
M  END
>  <minimizedAffinity>
-4.29779053

$$$$

 OpenBabel03242513483D

 25 27  0  0  1  0  0  0  0  0999 V2000
   38.5390   32.3050   38.9240 C   0  0  1  0  0  0  0  0  0  0  0  0
   37.2250   33.0360   39.2160 C   0  0  0  0  0  0  0  0  0  0  0  0
   38.0350   32.5030   40.2950 C   0  0  1  0  0  0  0  0  0  0  0  0
   39.4450   32.8780   38.6470 H   0  0  0  0  0  0  0  0  0  0  0  0
   36.2820   32.5670   38.9160 H   0  0  0  0  0  0  0  0  0  0  0  0
   37.2630   34.1390   39.0310 H   0  0  0  0  0  0  0  0  0  0  0  0
   38.7160   33.1150   40.9330 H   0  0  0  0  0  0  0  0  0  0  0  0
   38.3980   31.0190   38.1900 C   0  0  0  0  0  0  0  0  0  0  0  0
   37.3040   30.8780   37.3160 C   0  0  0  0  0  0  0  0  0  0  0  0
   37.1760   29.6560   36.6380 C   0  0  0  0  0  0  0  0  0  0  0  0
   38.1260   28.6810   36.8750 N   0  0  0  0  0  0  0  0  0  0  0  0
   39.1490   28.8790   37.7250 C   0  0  0  0  0  0  0  0  0  0  0  0
   39.2930   30.0390   38.3850 N   0  0  0  0  0  0  0  0  0  0  0  0
   36.5710   31.6300   37.1340 H   0  0  0  0  0  0  0  0  0  0  0  0
   36.3880   29.4430   35.9550 H   0  0  0  0  0  0  0  0  0  0  0  0
   39.8850   28.1070   37.9010 H   0  0  0  0  0  0  0  0  0  0  0  0
   37.5110   31.2890   41.0010 C   0  0  0  0  0  0  0  0  0  0  0  0
   36.2470   30.7220   41.0420 C   0  0  0  0  0  0  0  0  0  0  0  0
   36.2930   29.6120   41.8110 N   0  0  0  0  0  0  0  0  0  0  0  0
   37.5450   29.4940   42.2320 C   0  0  0  0  0  0  0  0  0  0  0  0
   38.3190   30.4830   41.7700 N   0  0  0  0  0  0  0  0  0  0  0  0
   35.4070   31.1550   40.5180 H   0  0  0  0  0  0  0  0  0  0  0  0
   35.4890   28.9730   42.0260 H   0  0  0  0  0  0  0  0  0  0  0  0
   38.1380   28.4360   43.1130 C   0  0  0  0  0  2  0  0  0  0  0  0
   38.9630   28.8690   43.7470 H   0  0  0  0  0  0  0  0  0  0  0  0
  1  4  1  6  0  0  0
  1  2  1  0  0  0  0
  1  3  1  0  0  0  0
  2  3  1  0  0  0  0
  3  7  1  1  0  0  0
  3 17  1  0  0  0  0
  5  2  1  0  0  0  0
  6  2  1  0  0  0  0
  8 13  1  0  0  0  0
  8  1  1  0  0  0  0
  9  8  2  0  0  0  0
 10 11  2  0  0  0  0
 10  9  1  0  0  0  0
 11 12  1  0  0  0  0
 12 16  1  0  0  0  0
 12 13  2  0  0  0  0
 14  9  1  0  0  0  0
 15 10  1  0  0  0  0
 17 18  2  0  0  0  0
 17 21  1  0  0  0  0
 18 19  1  0  0  0  0
 19 23  1  0  0  0  0
 19 20  1  0  0  0  0
 20 24  1  0  0  0  0
 21 20  2  0  0  0  0
 22 18  1  0  0  0  0
 24 25  1  0  0  0  0
M  END
>  <minimizedAffinity>
-4.28677511

$$$$

 OpenBabel03242513483D

 25 27  0  0  1  0  0  0  0  0999 V2000
   36.7000   25.3100   42.1800 C   0  0  1  0  0  0  0  0  0  0  0  0
   37.0050   24.6210   40.8460 C   0  0  0  0  0  0  0  0  0  0  0  0
   37.6520   24.1900   42.0710 C   0  0  1  0  0  0  0  0  0  0  0  0
   35.7530   25.0970   42.7130 H   0  0  0  0  0  0  0  0  0  0  0  0
   37.5430   25.1800   40.0740 H   0  0  0  0  0  0  0  0  0  0  0  0
   36.1660   23.9950   40.4520 H   0  0  0  0  0  0  0  0  0  0  0  0
   37.3510   23.2930   42.6600 H   0  0  0  0  0  0  0  0  0  0  0  0
   37.1310   26.7300   42.2720 C   0  0  0  0  0  0  0  0  0  0  0  0
   37.2340   27.3050   43.5520 C   0  0  0  0  0  0  0  0  0  0  0  0
   37.6310   28.6490   43.6230 C   0  0  0  0  0  0  0  0  0  0  0  0
   37.8910   29.3110   42.4400 N   0  0  0  0  0  0  0  0  0  0  0  0
   37.7730   28.7040   41.2460 C   0  0  0  0  0  0  0  0  0  0  0  0
   37.3960   27.4200   41.1510 N   0  0  0  0  0  0  0  0  0  0  0  0
   37.0330   26.7930   44.4650 H   0  0  0  0  0  0  0  0  0  0  0  0
   37.7410   29.1810   44.5390 H   0  0  0  0  0  0  0  0  0  0  0  0
   37.9800   29.2360   40.3270 H   0  0  0  0  0  0  0  0  0  0  0  0
   39.1060   24.5250   42.2240 C   0  0  0  0  0  0  0  0  0  0  0  0
   39.9310   24.5530   43.3380 C   0  0  0  0  0  0  0  0  0  0  0  0
   41.1770   24.9000   42.9470 N   0  0  0  0  0  0  0  0  0  0  0  0
   41.1250   25.0810   41.6340 C   0  0  0  0  0  0  0  0  0  0  0  0
   39.8960   24.8650   41.1510 N   0  0  0  0  0  0  0  0  0  0  0  0
   39.5660   24.3230   44.3280 H   0  0  0  0  0  0  0  0  0  0  0  0
   42.0160   25.0040   43.5690 H   0  0  0  0  0  0  0  0  0  0  0  0
   42.2320   25.4740   40.7020 C   0  0  0  0  0  2  0  0  0  0  0  0
   41.8290   26.0930   39.8510 H   0  0  0  0  0  0  0  0  0  0  0  0
  1  8  1  0  0  0  0
  1  4  1  1  0  0  0
  2  3  1  0  0  0  0
  2  1  1  0  0  0  0
  3  1  1  0  0  0  0
  3 17  1  0  0  0  0
  3  7  1  1  0  0  0
  5  2  1  0  0  0  0
  6  2  1  0  0  0  0
  8  9  1  0  0  0  0
  9 10  2  0  0  0  0
  9 14  1  0  0  0  0
 10 15  1  0  0  0  0
 11 10  1  0  0  0  0
 12 11  2  0  0  0  0
 13 12  1  0  0  0  0
 13  8  2  0  0  0  0
 16 12  1  0  0  0  0
 17 18  2  0  0  0  0
 18 22  1  0  0  0  0
 19 18  1  0  0  0  0
 19 23  1  0  0  0  0
 20 19  1  0  0  0  0
 21 20  2  0  0  0  0
 21 17  1  0  0  0  0
 24 20  1  0  0  0  0
 25 24  1  0  0  0  0
M  END
>  <minimizedAffinity>
-4.2547617

$$$$

 OpenBabel03242513483D

 25 27  0  0  1  0  0  0  0  0999 V2000
   37.8170   28.4370   43.4800 C   0  0  1  0  0  0  0  0  0  0  0  0
   36.5720   27.5440   43.5150 C   0  0  0  0  0  0  0  0  0  0  0  0
   37.8570   27.0130   43.1020 C   0  0  1  0  0  0  0  0  0  0  0  0
   38.3330   28.7090   44.4220 H   0  0  0  0  0  0  0  0  0  0  0  0
   35.7680   27.7330   42.7950 H   0  0  0  0  0  0  0  0  0  0  0  0
   36.2130   27.2990   44.5450 H   0  0  0  0  0  0  0  0  0  0  0  0
   38.5240   26.4000   43.7540 H   0  0  0  0  0  0  0  0  0  0  0  0
   37.7800   29.5370   42.4810 C   0  0  0  0  0  0  0  0  0  0  0  0
   38.9800   30.2190   42.2090 C   0  0  0  0  0  0  0  0  0  0  0  0
   38.9280   31.2630   41.2720 C   0  0  0  0  0  0  0  0  0  0  0  0
   37.7110   31.5470   40.6850 N   0  0  0  0  0  0  0  0  0  0  0  0
   36.5980   30.8560   40.9890 C   0  0  0  0  0  0  0  0  0  0  0  0
   36.6220   29.8540   41.8820 N   0  0  0  0  0  0  0  0  0  0  0  0
   39.9190   30.0000   42.6620 H   0  0  0  0  0  0  0  0  0  0  0  0
   39.7760   31.8430   40.9920 H   0  0  0  0  0  0  0  0  0  0  0  0
   35.6510   31.0900   40.5220 H   0  0  0  0  0  0  0  0  0  0  0  0
   38.0300   26.7080   41.6440 C   0  0  0  0  0  0  0  0  0  0  0  0
   39.1660   26.5850   40.8580 C   0  0  0  0  0  0  0  0  0  0  0  0
   38.7900   26.2790   39.5970 N   0  0  0  0  0  0  0  0  0  0  0  0
   37.4650   26.2140   39.6020 C   0  0  0  0  0  0  0  0  0  0  0  0
   36.9600   26.4650   40.8150 N   0  0  0  0  0  0  0  0  0  0  0  0
   40.1590   26.7260   41.2600 H   0  0  0  0  0  0  0  0  0  0  0  0
   39.4300   26.1240   38.7800 H   0  0  0  0  0  0  0  0  0  0  0  0
   36.5420   25.9080   38.4610 C   0  0  0  0  0  2  0  0  0  0  0  0
   35.5710   26.4680   38.5780 H   0  0  0  0  0  0  0  0  0  0  0  0
  1  2  1  0  0  0  0
  1  4  1  1  0  0  0
  2  6  1  0  0  0  0
  3  1  1  0  0  0  0
  3  2  1  0  0  0  0
  3  7  1  1  0  0  0
  5  2  1  0  0  0  0
  8  1  1  0  0  0  0
  9  8  1  0  0  0  0
  9 14  1  0  0  0  0
 10  9  2  0  0  0  0
 11 12  2  0  0  0  0
 11 10  1  0  0  0  0
 12 13  1  0  0  0  0
 13  8  2  0  0  0  0
 15 10  1  0  0  0  0
 16 12  1  0  0  0  0
 17  3  1  0  0  0  0
 18 22  1  0  0  0  0
 18 17  2  0  0  0  0
 19 20  1  0  0  0  0
 19 18  1  0  0  0  0
 20 21  2  0  0  0  0
 21 17  1  0  0  0  0
 23 19  1  0  0  0  0
 24 25  1  0  0  0  0
 24 20  1  0  0  0  0
M  END
>  <minimizedAffinity>
-4.24895096

$$$$

 OpenBabel03242513483D

 25 27  0  0  1  0  0  0  0  0999 V2000
   36.3250   28.3570   39.9700 C   0  0  1  0  0  0  0  0  0  0  0  0
   35.0750   29.2150   40.1970 C   0  0  0  0  0  0  0  0  0  0  0  0
   35.8070   29.2820   38.9460 C   0  0  1  0  0  0  0  0  0  0  0  0
   36.2240   27.2760   39.7500 H   0  0  0  0  0  0  0  0  0  0  0  0
   35.1180   30.0240   40.9340 H   0  0  0  0  0  0  0  0  0  0  0  0
   34.1180   28.6360   40.2110 H   0  0  0  0  0  0  0  0  0  0  0  0
   35.4940   28.7710   38.0050 H   0  0  0  0  0  0  0  0  0  0  0  0
   37.4840   28.6850   40.8420 C   0  0  0  0  0  0  0  0  0  0  0  0
   37.2220   29.0300   42.1810 C   0  0  0  0  0  0  0  0  0  0  0  0
   38.3240   29.3470   42.9900 C   0  0  0  0  0  0  0  0  0  0  0  0
   39.5810   29.3010   42.4200 N   0  0  0  0  0  0  0  0  0  0  0  0
   39.7640   28.9630   41.1310 C   0  0  0  0  0  0  0  0  0  0  0  0
   38.7260   28.6550   40.3370 N   0  0  0  0  0  0  0  0  0  0  0  0
   36.2520   29.0660   42.6210 H   0  0  0  0  0  0  0  0  0  0  0  0
   38.2400   29.6210   44.0150 H   0  0  0  0  0  0  0  0  0  0  0  0
   40.7540   28.9320   40.6980 H   0  0  0  0  0  0  0  0  0  0  0  0
   36.6090   30.5240   38.6940 C   0  0  0  0  0  0  0  0  0  0  0  0
   37.4410   30.8840   37.6460 C   0  0  0  0  0  0  0  0  0  0  0  0
   37.9190   32.1270   37.8770 N   0  0  0  0  0  0  0  0  0  0  0  0
   37.3980   32.5240   39.0310 C   0  0  0  0  0  0  0  0  0  0  0  0
   36.6000   31.5900   39.5630 N   0  0  0  0  0  0  0  0  0  0  0  0
   37.6320   30.2250   36.8110 H   0  0  0  0  0  0  0  0  0  0  0  0
   38.5730   32.6650   37.2580 H   0  0  0  0  0  0  0  0  0  0  0  0
   37.6010   33.8240   39.7480 C   0  0  0  0  0  2  0  0  0  0  0  0
   37.5550   33.6700   40.8640 H   0  0  0  0  0  0  0  0  0  0  0  0
  1  4  1  6  0  0  0
  1  2  1  0  0  0  0
  1  8  1  0  0  0  0
  2  6  1  0  0  0  0
  2  5  1  0  0  0  0
  3  7  1  6  0  0  0
  3  1  1  0  0  0  0
  3  2  1  0  0  0  0
  8  9  1  0  0  0  0
  9 14  1  0  0  0  0
  9 10  2  0  0  0  0
 10 15  1  0  0  0  0
 11 10  1  0  0  0  0
 12 11  2  0  0  0  0
 13  8  2  0  0  0  0
 13 12  1  0  0  0  0
 16 12  1  0  0  0  0
 17  3  1  0  0  0  0
 17 21  1  0  0  0  0
 18 19  1  0  0  0  0
 18 17  2  0  0  0  0
 19 20  1  0  0  0  0
 20 21  2  0  0  0  0
 20 24  1  0  0  0  0
 22 18  1  0  0  0  0
 23 19  1  0  0  0  0
 24 25  1  0  0  0  0
M  END
>  <minimizedAffinity>
-4.24025106

$$$$

 OpenBabel03242513483D

 25 27  0  0  1  0  0  0  0  0999 V2000
   37.8740   27.0520   39.6320 C   0  0  1  0  0  0  0  0  0  0  0  0
   36.3890   26.6880   39.7330 C   0  0  0  0  0  0  0  0  0  0  0  0
   36.8140   27.8960   39.0510 C   0  0  1  0  0  0  0  0  0  0  0  0
   38.5290   26.5230   38.9130 H   0  0  0  0  0  0  0  0  0  0  0  0
   35.9030   26.7200   40.7140 H   0  0  0  0  0  0  0  0  0  0  0  0
   36.0880   25.8130   39.1040 H   0  0  0  0  0  0  0  0  0  0  0  0
   36.8890   28.0000   37.9430 H   0  0  0  0  0  0  0  0  0  0  0  0
   38.5370   27.3670   40.9260 C   0  0  0  0  0  0  0  0  0  0  0  0
   38.0170   26.7750   42.0920 C   0  0  0  0  0  0  0  0  0  0  0  0
   38.6450   27.0890   43.3070 C   0  0  0  0  0  0  0  0  0  0  0  0
   39.7230   27.9520   43.2750 N   0  0  0  0  0  0  0  0  0  0  0  0
   40.1710   28.4850   42.1250 C   0  0  0  0  0  0  0  0  0  0  0  0
   39.5880   28.2010   40.9500 N   0  0  0  0  0  0  0  0  0  0  0  0
   37.1850   26.1100   42.1160 H   0  0  0  0  0  0  0  0  0  0  0  0
   38.3340   26.6980   44.2470 H   0  0  0  0  0  0  0  0  0  0  0  0
   41.0160   29.1600   42.1160 H   0  0  0  0  0  0  0  0  0  0  0  0
   36.5370   29.1980   39.7390 C   0  0  0  0  0  0  0  0  0  0  0  0
   35.6500   29.5340   40.7510 C   0  0  0  0  0  0  0  0  0  0  0  0
   35.7960   30.8450   41.0400 N   0  0  0  0  0  0  0  0  0  0  0  0
   36.7430   31.3080   40.2340 C   0  0  0  0  0  0  0  0  0  0  0  0
   37.2220   30.3510   39.4310 N   0  0  0  0  0  0  0  0  0  0  0  0
   34.9790   28.8090   41.1890 H   0  0  0  0  0  0  0  0  0  0  0  0
   35.2600   31.3840   41.7640 H   0  0  0  0  0  0  0  0  0  0  0  0
   37.2930   32.6990   40.1430 C   0  0  0  0  0  2  0  0  0  0  0  0
   37.5980   32.9330   39.0830 H   0  0  0  0  0  0  0  0  0  0  0  0
  1  4  1  6  0  0  0
  1  2  1  0  0  0  0
  1  8  1  0  0  0  0
  2  5  1  0  0  0  0
  3  7  1  6  0  0  0
  3  1  1  0  0  0  0
  3  2  1  0  0  0  0
  3 17  1  0  0  0  0
  6  2  1  0  0  0  0
  8 13  2  0  0  0  0
  8  9  1  0  0  0  0
  9 14  1  0  0  0  0
  9 10  2  0  0  0  0
 10 15  1  0  0  0  0
 11 10  1  0  0  0  0
 12 11  2  0  0  0  0
 13 12  1  0  0  0  0
 16 12  1  0  0  0  0
 17 18  2  0  0  0  0
 18 19  1  0  0  0  0
 18 22  1  0  0  0  0
 19 23  1  0  0  0  0
 20 19  1  0  0  0  0
 21 17  1  0  0  0  0
 21 20  2  0  0  0  0
 24 20  1  0  0  0  0
 25 24  1  0  0  0  0
M  END
>  <minimizedAffinity>
-4.19978571

$$$$

 OpenBabel03242513483D

 25 27  0  0  1  0  0  0  0  0999 V2000
   37.6230   27.7010   39.5250 C   0  0  1  0  0  0  0  0  0  0  0  0
   36.1780   27.8610   39.0400 C   0  0  0  0  0  0  0  0  0  0  0  0
   37.1750   28.8750   38.7550 C   0  0  1  0  0  0  0  0  0  0  0  0
   38.3110   27.0060   39.0030 H   0  0  0  0  0  0  0  0  0  0  0  0
   35.3880   28.0210   39.7810 H   0  0  0  0  0  0  0  0  0  0  0  0
   35.8920   27.1640   38.2130 H   0  0  0  0  0  0  0  0  0  0  0  0
   37.6970   28.9880   37.7750 H   0  0  0  0  0  0  0  0  0  0  0  0
   37.8010   27.7230   41.0010 C   0  0  0  0  0  0  0  0  0  0  0  0
   39.0640   28.0870   41.5050 C   0  0  0  0  0  0  0  0  0  0  0  0
   39.2220   28.0930   42.8990 C   0  0  0  0  0  0  0  0  0  0  0  0
   38.1350   27.7430   43.6760 N   0  0  0  0  0  0  0  0  0  0  0  0
   36.9530   27.4040   43.1310 C   0  0  0  0  0  0  0  0  0  0  0  0
   36.7770   27.3910   41.8010 N   0  0  0  0  0  0  0  0  0  0  0  0
   39.9030   28.3560   40.9050 H   0  0  0  0  0  0  0  0  0  0  0  0
   40.1330   28.3510   43.3860 H   0  0  0  0  0  0  0  0  0  0  0  0
   36.1110   27.1320   43.7520 H   0  0  0  0  0  0  0  0  0  0  0  0
   37.0630   30.1690   39.5050 C   0  0  0  0  0  0  0  0  0  0  0  0
   36.0480   30.6900   40.2930 C   0  0  0  0  0  0  0  0  0  0  0  0
   36.4400   31.8930   40.7680 N   0  0  0  0  0  0  0  0  0  0  0  0
   37.6590   32.1090   40.2910 C   0  0  0  0  0  0  0  0  0  0  0  0
   38.0790   31.0960   39.5240 N   0  0  0  0  0  0  0  0  0  0  0  0
   35.1190   30.1630   40.4540 H   0  0  0  0  0  0  0  0  0  0  0  0
   35.8820   32.5250   41.3930 H   0  0  0  0  0  0  0  0  0  0  0  0
   38.5510   33.2930   40.5130 C   0  0  0  0  0  2  0  0  0  0  0  0
   39.1870   33.4830   39.6020 H   0  0  0  0  0  0  0  0  0  0  0  0
  1  4  1  6  0  0  0
  1  8  1  0  0  0  0
  2  1  1  0  0  0  0
  2  5  1  0  0  0  0
  3  7  1  6  0  0  0
  3  2  1  0  0  0  0
  3 17  1  0  0  0  0
  3  1  1  0  0  0  0
  6  2  1  0  0  0  0
  8  9  2  0  0  0  0
  8 13  1  0  0  0  0
  9 10  1  0  0  0  0
 10 15  1  0  0  0  0
 10 11  2  0  0  0  0
 12 11  1  0  0  0  0
 12 16  1  0  0  0  0
 13 12  2  0  0  0  0
 14  9  1  0  0  0  0
 17 21  1  0  0  0  0
 17 18  2  0  0  0  0
 18 22  1  0  0  0  0
 18 19  1  0  0  0  0
 19 23  1  0  0  0  0
 20 24  1  0  0  0  0
 20 19  1  0  0  0  0
 21 20  2  0  0  0  0
 25 24  1  0  0  0  0
M  END
>  <minimizedAffinity>
-4.14881039

$$$$

 OpenBabel03242513483D

 25 27  0  0  1  0  0  0  0  0999 V2000
   35.4970   29.7220   40.2010 C   0  0  1  0  0  0  0  0  0  0  0  0
   35.7680   28.3100   39.6680 C   0  0  0  0  0  0  0  0  0  0  0  0
   35.8370   28.5960   41.0890 C   0  0  1  0  0  0  0  0  0  0  0  0
   34.4590   30.1020   40.2670 H   0  0  0  0  0  0  0  0  0  0  0  0
   36.6680   28.1360   39.0700 H   0  0  0  0  0  0  0  0  0  0  0  0
   34.8580   27.7830   39.2870 H   0  0  0  0  0  0  0  0  0  0  0  0
   35.0320   28.3500   41.8210 H   0  0  0  0  0  0  0  0  0  0  0  0
   36.4860   30.7530   39.7900 C   0  0  0  0  0  0  0  0  0  0  0  0
   37.0050   30.6830   38.4830 C   0  0  0  0  0  0  0  0  0  0  0  0
   37.9460   31.6560   38.1120 C   0  0  0  0  0  0  0  0  0  0  0  0
   38.2970   32.6080   39.0490 N   0  0  0  0  0  0  0  0  0  0  0  0
   37.7640   32.6200   40.2830 C   0  0  0  0  0  0  0  0  0  0  0  0
   36.8630   31.7000   40.6620 N   0  0  0  0  0  0  0  0  0  0  0  0
   36.7340   29.9470   37.7610 H   0  0  0  0  0  0  0  0  0  0  0  0
   38.4000   31.6960   37.1510 H   0  0  0  0  0  0  0  0  0  0  0  0
   38.0490   33.3720   41.0060 H   0  0  0  0  0  0  0  0  0  0  0  0
   37.2020   28.6180   41.7110 C   0  0  0  0  0  0  0  0  0  0  0  0
   37.6370   29.0340   42.9600 C   0  0  0  0  0  0  0  0  0  0  0  0
   38.9690   28.8290   43.0460 N   0  0  0  0  0  0  0  0  0  0  0  0
   39.3480   28.3020   41.8890 C   0  0  0  0  0  0  0  0  0  0  0  0
   38.3150   28.1550   41.0500 N   0  0  0  0  0  0  0  0  0  0  0  0
   36.9610   29.4470   43.6950 H   0  0  0  0  0  0  0  0  0  0  0  0
   39.5780   29.0480   43.8730 H   0  0  0  0  0  0  0  0  0  0  0  0
   40.7210   27.8840   41.4590 C   0  0  0  0  0  2  0  0  0  0  0  0
   40.8510   28.0390   40.3500 H   0  0  0  0  0  0  0  0  0  0  0  0
  1  4  1  1  0  0  0
  1  3  1  0  0  0  0
  2  1  1  0  0  0  0
  2  3  1  0  0  0  0
  3 17  1  0  0  0  0
  3  7  1  1  0  0  0
  5  2  1  0  0  0  0
  6  2  1  0  0  0  0
  8  1  1  0  0  0  0
  8 13  1  0  0  0  0
  9  8  2  0  0  0  0
 10  9  1  0  0  0  0
 10 11  2  0  0  0  0
 11 12  1  0  0  0  0
 12 13  2  0  0  0  0
 12 16  1  0  0  0  0
 14  9  1  0  0  0  0
 15 10  1  0  0  0  0
 17 18  2  0  0  0  0
 18 19  1  0  0  0  0
 18 22  1  0  0  0  0
 19 23  1  0  0  0  0
 20 19  1  0  0  0  0
 21 17  1  0  0  0  0
 21 20  2  0  0  0  0
 24 20  1  0  0  0  0
 25 24  1  0  0  0  0
M  END
>  <minimizedAffinity>
-4.13383436

$$$$
