
 OpenBabel03242518203D

 23 24  0  0  0  0  0  0  0  0999 V2000
   39.2990   29.6940   42.4380 C   0  0  0  0  0  0  0  0  0  0  0  0
   40.2010   29.3120   41.8980 H   0  0  0  0  0  0  0  0  0  0  0  0
   39.5540   30.1020   43.4330 H   0  0  0  0  0  0  0  0  0  0  0  0
   38.7380   32.8960   40.7630 C   0  0  0  0  0  0  0  0  0  0  0  0
   37.5150   32.7200   40.0890 C   0  0  0  0  0  0  0  0  0  0  0  0
   36.9010   31.4940   40.2240 C   0  0  0  0  0  0  0  0  0  0  0  0
   37.4870   30.5420   40.9790 N   0  0  0  0  0  0  0  0  0  0  0  0
   38.6640   30.7470   41.6120 C   0  0  0  0  0  0  0  0  0  0  0  0
   39.3000   31.9440   41.5030 N   0  0  0  0  0  0  0  0  0  0  0  0
   39.2800   33.8490   40.6970 H   0  0  0  0  0  0  0  0  0  0  0  0
   35.9620   31.3750   39.7010 H   0  0  0  0  0  0  0  0  0  0  0  0
   37.0630   33.8250   39.3530 N   0  0  0  0  0  0  0  0  0  0  0  0
   37.7180   34.3840   38.7290 H   0  0  0  0  0  0  0  0  0  0  0  0
   36.0410   33.9360   39.5560 H   0  0  0  0  0  0  0  0  0  0  0  0
   38.3490   28.5510   42.6560 C   0  0  0  0  0  0  0  0  0  0  0  0
   37.3650   28.5340   43.6390 C   0  0  0  0  0  0  0  0  0  0  0  0
   36.6920   27.3190   43.5310 C   0  0  0  0  0  0  0  0  0  0  0  0
   37.3200   26.6600   42.4690 C   0  0  0  0  0  0  0  0  0  0  0  0
   38.2660   27.4330   42.0150 O   0  0  0  0  0  0  0  0  0  0  0  0
   37.1070   29.2680   44.3760 H   0  0  0  0  0  0  0  0  0  0  0  0
   35.8660   26.9060   44.0950 H   0  0  0  0  0  0  0  0  0  0  0  0
   37.0390   25.3380   41.8950 C   0  0  0  0  0  2  0  0  0  0  0  0
   37.9400   24.7170   41.7540 H   0  0  0  0  0  0  0  0  0  0  0  0
  1 15  1  0  0  0  0
  1  3  1  0  0  0  0
  2  1  1  0  0  0  0
  4  9  1  0  0  0  0
  5  6  1  0  0  0  0
  5  4  2  0  0  0  0
  6  7  2  0  0  0  0
  7  8  1  0  0  0  0
  8  1  1  0  0  0  0
  9  8  2  0  0  0  0
 10  4  1  0  0  0  0
 11  6  1  0  0  0  0
 12 14  1  0  0  0  0
 12  5  1  0  0  0  0
 13 12  1  0  0  0  0
 15 16  2  0  0  0  0
 16 20  1  0  0  0  0
 17 16  1  0  0  0  0
 17 21  1  0  0  0  0
 18 17  2  0  0  0  0
 19 18  1  0  0  0  0
 19 15  1  0  0  0  0
 22 18  1  0  0  0  0
 23 22  1  0  0  0  0
M  END
>  <minimizedAffinity>
-4.9031148

$$$$

 OpenBabel03242518203D

 23 24  0  0  0  0  0  0  0  0999 V2000
   36.3700   31.0000   40.9390 C   0  0  0  0  0  0  0  0  0  0  0  0
   36.5020   31.7760   41.7330 H   0  0  0  0  0  0  0  0  0  0  0  0
   35.3240   30.9460   40.5830 H   0  0  0  0  0  0  0  0  0  0  0  0
   39.3220   32.0980   39.0820 C   0  0  0  0  0  0  0  0  0  0  0  0
   38.9600   31.9260   37.7320 C   0  0  0  0  0  0  0  0  0  0  0  0
   37.6980   31.4330   37.4840 C   0  0  0  0  0  0  0  0  0  0  0  0
   36.8870   31.1440   38.5230 N   0  0  0  0  0  0  0  0  0  0  0  0
   37.2690   31.3210   39.8080 C   0  0  0  0  0  0  0  0  0  0  0  0
   38.5070   31.8070   40.0920 N   0  0  0  0  0  0  0  0  0  0  0  0
   40.3130   32.4870   39.3490 H   0  0  0  0  0  0  0  0  0  0  0  0
   37.4360   31.3070   36.4430 H   0  0  0  0  0  0  0  0  0  0  0  0
   39.9380   32.2830   36.7920 N   0  0  0  0  0  0  0  0  0  0  0  0
   40.9550   31.9960   36.9110 H   0  0  0  0  0  0  0  0  0  0  0  0
   39.4590   32.8330   36.0400 H   0  0  0  0  0  0  0  0  0  0  0  0
   36.7100   29.6560   41.5190 C   0  0  0  0  0  0  0  0  0  0  0  0
   36.0790   28.4710   41.1590 C   0  0  0  0  0  0  0  0  0  0  0  0
   36.6620   27.4480   41.9040 C   0  0  0  0  0  0  0  0  0  0  0  0
   37.6310   28.0860   42.6840 C   0  0  0  0  0  0  0  0  0  0  0  0
   37.6000   29.3590   42.4080 O   0  0  0  0  0  0  0  0  0  0  0  0
   35.2890   28.2890   40.4580 H   0  0  0  0  0  0  0  0  0  0  0  0
   36.4700   26.3830   41.9300 H   0  0  0  0  0  0  0  0  0  0  0  0
   38.5630   27.5160   43.6650 C   0  0  0  0  0  2  0  0  0  0  0  0
   38.5910   28.0670   44.6210 H   0  0  0  0  0  0  0  0  0  0  0  0
  1 15  1  0  0  0  0
  1  2  1  0  0  0  0
  3  1  1  0  0  0  0
  4 10  1  0  0  0  0
  4  9  1  0  0  0  0
  5  4  2  0  0  0  0
  6  5  1  0  0  0  0
  6  7  2  0  0  0  0
  7  8  1  0  0  0  0
  8  9  2  0  0  0  0
  8  1  1  0  0  0  0
 11  6  1  0  0  0  0
 12 13  1  0  0  0  0
 12  5  1  0  0  0  0
 14 12  1  0  0  0  0
 15 19  1  0  0  0  0
 16 15  2  0  0  0  0
 16 17  1  0  0  0  0
 17 21  1  0  0  0  0
 17 18  2  0  0  0  0
 18 22  1  0  0  0  0
 19 18  1  0  0  0  0
 20 16  1  0  0  0  0
 22 23  1  0  0  0  0
M  END
>  <minimizedAffinity>
-4.76740742

$$$$

 OpenBabel03242518203D

 23 24  0  0  0  0  0  0  0  0999 V2000
   35.8590   29.3070   40.5770 C   0  0  0  0  0  0  0  0  0  0  0  0
   35.1440   29.9570   41.1420 H   0  0  0  0  0  0  0  0  0  0  0  0
   35.3510   28.4430   40.1090 H   0  0  0  0  0  0  0  0  0  0  0  0
   37.4930   30.2370   37.4410 C   0  0  0  0  0  0  0  0  0  0  0  0
   37.7440   31.6150   37.5810 C   0  0  0  0  0  0  0  0  0  0  0  0
   37.3430   32.2040   38.7600 C   0  0  0  0  0  0  0  0  0  0  0  0
   36.7430   31.4490   39.7030 N   0  0  0  0  0  0  0  0  0  0  0  0
   36.5190   30.1260   39.5340 C   0  0  0  0  0  0  0  0  0  0  0  0
   36.9010   29.5100   38.3840 N   0  0  0  0  0  0  0  0  0  0  0  0
   37.7880   29.7060   36.5260 H   0  0  0  0  0  0  0  0  0  0  0  0
   37.5420   33.2620   38.8520 H   0  0  0  0  0  0  0  0  0  0  0  0
   38.3780   32.2310   36.4920 N   0  0  0  0  0  0  0  0  0  0  0  0
   38.0750   32.0400   35.4910 H   0  0  0  0  0  0  0  0  0  0  0  0
   39.1300   32.8480   36.8800 H   0  0  0  0  0  0  0  0  0  0  0  0
   36.8740   28.7590   41.5390 C   0  0  0  0  0  0  0  0  0  0  0  0
   36.5680   27.8840   42.5760 C   0  0  0  0  0  0  0  0  0  0  0  0
   37.7580   27.6020   43.2440 C   0  0  0  0  0  0  0  0  0  0  0  0
   38.7320   28.3350   42.5580 C   0  0  0  0  0  0  0  0  0  0  0  0
   38.1460   28.9780   41.5870 O   0  0  0  0  0  0  0  0  0  0  0  0
   35.6300   27.4610   42.8750 H   0  0  0  0  0  0  0  0  0  0  0  0
   37.9670   26.9720   44.0990 H   0  0  0  0  0  0  0  0  0  0  0  0
   40.1750   28.4310   42.8070 C   0  0  0  0  0  2  0  0  0  0  0  0
   40.5550   29.4670   42.8140 H   0  0  0  0  0  0  0  0  0  0  0  0
  1  2  1  0  0  0  0
  1 15  1  0  0  0  0
  3  1  1  0  0  0  0
  4  5  2  0  0  0  0
  4  9  1  0  0  0  0
  5  6  1  0  0  0  0
  6 11  1  0  0  0  0
  6  7  2  0  0  0  0
  8  7  1  0  0  0  0
  8  1  1  0  0  0  0
  9  8  2  0  0  0  0
 10  4  1  0  0  0  0
 12 14  1  0  0  0  0
 12  5  1  0  0  0  0
 13 12  1  0  0  0  0
 15 19  1  0  0  0  0
 15 16  2  0  0  0  0
 16 20  1  0  0  0  0
 16 17  1  0  0  0  0
 17 21  1  0  0  0  0
 18 22  1  0  0  0  0
 18 17  2  0  0  0  0
 19 18  1  0  0  0  0
 22 23  1  0  0  0  0
M  END
>  <minimizedAffinity>
-4.44733238

$$$$

 OpenBabel03242518203D

 23 24  0  0  0  0  0  0  0  0999 V2000
   36.8740   27.0700   42.9840 C   0  0  0  0  0  0  0  0  0  0  0  0
   37.5810   27.2390   43.8340 H   0  0  0  0  0  0  0  0  0  0  0  0
   35.8730   26.7550   43.3340 H   0  0  0  0  0  0  0  0  0  0  0  0
   37.5670   30.4440   41.7560 C   0  0  0  0  0  0  0  0  0  0  0  0
   36.5780   30.6620   40.7790 C   0  0  0  0  0  0  0  0  0  0  0  0
   35.6830   29.6370   40.5590 C   0  0  0  0  0  0  0  0  0  0  0  0
   35.7960   28.4990   41.2740 N   0  0  0  0  0  0  0  0  0  0  0  0
   36.7610   28.3240   42.2060 C   0  0  0  0  0  0  0  0  0  0  0  0
   37.6610   29.3130   42.4500 N   0  0  0  0  0  0  0  0  0  0  0  0
   38.3110   31.2190   41.9800 H   0  0  0  0  0  0  0  0  0  0  0  0
   34.9300   29.8210   39.8060 H   0  0  0  0  0  0  0  0  0  0  0  0
   36.6210   31.9100   40.1400 N   0  0  0  0  0  0  0  0  0  0  0  0
   37.5360   32.3280   39.7960 H   0  0  0  0  0  0  0  0  0  0  0  0
   35.6380   32.2700   40.0970 H   0  0  0  0  0  0  0  0  0  0  0  0
   37.4130   25.9620   42.1240 C   0  0  0  0  0  0  0  0  0  0  0  0
   36.8810   24.6770   42.0870 C   0  0  0  0  0  0  0  0  0  0  0  0
   37.6410   23.9400   41.1810 C   0  0  0  0  0  0  0  0  0  0  0  0
   38.6060   24.8390   40.7140 C   0  0  0  0  0  0  0  0  0  0  0  0
   38.4100   25.9850   41.3040 O   0  0  0  0  0  0  0  0  0  0  0  0
   36.0530   24.2520   42.6180 H   0  0  0  0  0  0  0  0  0  0  0  0
   37.5680   22.9100   40.8570 H   0  0  0  0  0  0  0  0  0  0  0  0
   39.6830   24.6280   39.7400 C   0  0  0  0  0  2  0  0  0  0  0  0
   40.6650   25.0030   40.0780 H   0  0  0  0  0  0  0  0  0  0  0  0
  1  3  1  0  0  0  0
  1  2  1  0  0  0  0
  4 10  1  0  0  0  0
  4  9  1  0  0  0  0
  5  4  2  0  0  0  0
  6  5  1  0  0  0  0
  6  7  2  0  0  0  0
  7  8  1  0  0  0  0
  8  9  2  0  0  0  0
  8  1  1  0  0  0  0
 11  6  1  0  0  0  0
 12  5  1  0  0  0  0
 13 12  1  0  0  0  0
 14 12  1  0  0  0  0
 15  1  1  0  0  0  0
 16 15  2  0  0  0  0
 16 20  1  0  0  0  0
 17 16  1  0  0  0  0
 18 17  2  0  0  0  0
 18 19  1  0  0  0  0
 19 15  1  0  0  0  0
 21 17  1  0  0  0  0
 22 23  1  0  0  0  0
 22 18  1  0  0  0  0
M  END
>  <minimizedAffinity>
-4.42314386

$$$$

 OpenBabel03242518203D

 23 24  0  0  0  0  0  0  0  0999 V2000
   36.9990   27.5040   40.5900 C   0  0  0  0  0  0  0  0  0  0  0  0
   35.9470   27.2220   40.8440 H   0  0  0  0  0  0  0  0  0  0  0  0
   37.3350   27.0380   39.6440 H   0  0  0  0  0  0  0  0  0  0  0  0
   36.1370   31.0430   40.9150 C   0  0  0  0  0  0  0  0  0  0  0  0
   37.2030   31.7140   40.2870 C   0  0  0  0  0  0  0  0  0  0  0  0
   38.2060   30.9310   39.7580 C   0  0  0  0  0  0  0  0  0  0  0  0
   38.1210   29.5890   39.8660 N   0  0  0  0  0  0  0  0  0  0  0  0
   37.0800   28.9780   40.4770 C   0  0  0  0  0  0  0  0  0  0  0  0
   36.0720   29.7180   41.0100 N   0  0  0  0  0  0  0  0  0  0  0  0
   35.3050   31.6070   41.3570 H   0  0  0  0  0  0  0  0  0  0  0  0
   39.0170   31.4610   39.2790 H   0  0  0  0  0  0  0  0  0  0  0  0
   37.1150   33.1140   40.2740 N   0  0  0  0  0  0  0  0  0  0  0  0
   36.8310   33.6620   41.1390 H   0  0  0  0  0  0  0  0  0  0  0  0
   37.3720   33.4310   39.3090 H   0  0  0  0  0  0  0  0  0  0  0  0
   37.9070   27.0060   41.6780 C   0  0  0  0  0  0  0  0  0  0  0  0
   38.1380   27.6850   42.8700 C   0  0  0  0  0  0  0  0  0  0  0  0
   39.0270   26.9180   43.6180 C   0  0  0  0  0  0  0  0  0  0  0  0
   39.2860   25.7980   42.8220 C   0  0  0  0  0  0  0  0  0  0  0  0
   38.6040   25.9200   41.7180 O   0  0  0  0  0  0  0  0  0  0  0  0
   37.7510   28.6200   43.2230 H   0  0  0  0  0  0  0  0  0  0  0  0
   39.4630   27.0770   44.5960 H   0  0  0  0  0  0  0  0  0  0  0  0
   40.1510   24.6420   43.0890 C   0  0  0  0  0  2  0  0  0  0  0  0
   40.8230   24.3890   42.2510 H   0  0  0  0  0  0  0  0  0  0  0  0
  1  2  1  0  0  0  0
  1 15  1  0  0  0  0
  3  1  1  0  0  0  0
  4  9  1  0  0  0  0
  4 10  1  0  0  0  0
  5  4  2  0  0  0  0
  6  7  2  0  0  0  0
  6  5  1  0  0  0  0
  7  8  1  0  0  0  0
  8  1  1  0  0  0  0
  8  9  2  0  0  0  0
 11  6  1  0  0  0  0
 12  5  1  0  0  0  0
 12 13  1  0  0  0  0
 14 12  1  0  0  0  0
 15 19  1  0  0  0  0
 15 16  2  0  0  0  0
 16 20  1  0  0  0  0
 16 17  1  0  0  0  0
 17 21  1  0  0  0  0
 18 22  1  0  0  0  0
 18 17  2  0  0  0  0
 19 18  1  0  0  0  0
 23 22  1  0  0  0  0
M  END
>  <minimizedAffinity>
-4.36543703

$$$$

 OpenBabel03242518203D

 23 24  0  0  0  0  0  0  0  0999 V2000
   37.7110   28.4620   43.6800 C   0  0  0  0  0  0  0  0  0  0  0  0
   36.6410   28.5320   43.9980 H   0  0  0  0  0  0  0  0  0  0  0  0
   38.4050   28.6780   44.5130 H   0  0  0  0  0  0  0  0  0  0  0  0
   37.1650   25.2410   42.0360 C   0  0  0  0  0  0  0  0  0  0  0  0
   38.3960   24.5710   42.1790 C   0  0  0  0  0  0  0  0  0  0  0  0
   39.3970   25.2450   42.8440 C   0  0  0  0  0  0  0  0  0  0  0  0
   39.1570   26.4860   43.3150 N   0  0  0  0  0  0  0  0  0  0  0  0
   37.9610   27.0990   43.1590 C   0  0  0  0  0  0  0  0  0  0  0  0
   36.9490   26.4660   42.5090 N   0  0  0  0  0  0  0  0  0  0  0  0
   36.3260   24.7620   41.5170 H   0  0  0  0  0  0  0  0  0  0  0  0
   40.3350   24.7170   42.9460 H   0  0  0  0  0  0  0  0  0  0  0  0
   38.4550   23.2850   41.6230 N   0  0  0  0  0  0  0  0  0  0  0  0
   38.0660   23.0800   40.6560 H   0  0  0  0  0  0  0  0  0  0  0  0
   38.9240   22.6660   42.3250 H   0  0  0  0  0  0  0  0  0  0  0  0
   37.9640   29.4900   42.6140 C   0  0  0  0  0  0  0  0  0  0  0  0
   39.1960   30.0970   42.3950 C   0  0  0  0  0  0  0  0  0  0  0  0
   39.0390   30.9840   41.3330 C   0  0  0  0  0  0  0  0  0  0  0  0
   37.6960   30.8590   40.9630 C   0  0  0  0  0  0  0  0  0  0  0  0
   37.1400   29.9790   41.7480 O   0  0  0  0  0  0  0  0  0  0  0  0
   40.1330   29.9670   42.8990 H   0  0  0  0  0  0  0  0  0  0  0  0
   39.7400   31.6490   40.8460 H   0  0  0  0  0  0  0  0  0  0  0  0
   36.9520   31.5480   39.9010 C   0  0  0  0  0  2  0  0  0  0  0  0
   35.9840   31.9600   40.2340 H   0  0  0  0  0  0  0  0  0  0  0  0
  1  2  1  0  0  0  0
  1  3  1  0  0  0  0
  4  5  2  0  0  0  0
  4  9  1  0  0  0  0
  5  6  1  0  0  0  0
  6 11  1  0  0  0  0
  6  7  2  0  0  0  0
  8  7  1  0  0  0  0
  8  1  1  0  0  0  0
  9  8  2  0  0  0  0
 10  4  1  0  0  0  0
 12  5  1  0  0  0  0
 12 14  1  0  0  0  0
 13 12  1  0  0  0  0
 15  1  1  0  0  0  0
 16 15  2  0  0  0  0
 16 20  1  0  0  0  0
 17 16  1  0  0  0  0
 18 17  2  0  0  0  0
 18 19  1  0  0  0  0
 19 15  1  0  0  0  0
 21 17  1  0  0  0  0
 22 23  1  0  0  0  0
 22 18  1  0  0  0  0
M  END
>  <minimizedAffinity>
-4.36221409

$$$$

 OpenBabel03242518203D

 23 24  0  0  0  0  0  0  0  0999 V2000
   37.8570   28.5700   43.4790 C   0  0  0  0  0  0  0  0  0  0  0  0
   38.7840   28.7940   44.0620 H   0  0  0  0  0  0  0  0  0  0  0  0
   36.9620   28.5230   44.1270 H   0  0  0  0  0  0  0  0  0  0  0  0
   36.2670   30.7340   40.9960 C   0  0  0  0  0  0  0  0  0  0  0  0
   37.3110   31.5660   40.5490 C   0  0  0  0  0  0  0  0  0  0  0  0
   38.5520   31.3660   41.1140 C   0  0  0  0  0  0  0  0  0  0  0  0
   38.7040   30.4040   42.0480 N   0  0  0  0  0  0  0  0  0  0  0  0
   37.6770   29.6230   42.4530 C   0  0  0  0  0  0  0  0  0  0  0  0
   36.4380   29.7900   41.9180 N   0  0  0  0  0  0  0  0  0  0  0  0
   35.2540   30.8410   40.5870 H   0  0  0  0  0  0  0  0  0  0  0  0
   39.3420   32.0130   40.7600 H   0  0  0  0  0  0  0  0  0  0  0  0
   36.9590   32.5090   39.5720 N   0  0  0  0  0  0  0  0  0  0  0  0
   36.0720   33.0890   39.6530 H   0  0  0  0  0  0  0  0  0  0  0  0
   37.7080   32.4900   38.8400 H   0  0  0  0  0  0  0  0  0  0  0  0
   38.0080   27.2230   42.8320 C   0  0  0  0  0  0  0  0  0  0  0  0
   39.2340   26.6180   42.5730 C   0  0  0  0  0  0  0  0  0  0  0  0
   38.9700   25.3880   41.9730 C   0  0  0  0  0  0  0  0  0  0  0  0
   37.5750   25.3190   41.9040 C   0  0  0  0  0  0  0  0  0  0  0  0
   37.0900   26.4140   42.4190 O   0  0  0  0  0  0  0  0  0  0  0  0
   40.2310   26.9600   42.7630 H   0  0  0  0  0  0  0  0  0  0  0  0
   39.6320   24.6100   41.6160 H   0  0  0  0  0  0  0  0  0  0  0  0
   36.7190   24.2540   41.3690 C   0  0  0  0  0  2  0  0  0  0  0  0
   35.9280   24.6200   40.6920 H   0  0  0  0  0  0  0  0  0  0  0  0
  1  2  1  0  0  0  0
  1  3  1  0  0  0  0
  4  9  1  0  0  0  0
  5  4  2  0  0  0  0
  5  6  1  0  0  0  0
  6  7  2  0  0  0  0
  7  8  1  0  0  0  0
  8  1  1  0  0  0  0
  9  8  2  0  0  0  0
 10  4  1  0  0  0  0
 11  6  1  0  0  0  0
 12 13  1  0  0  0  0
 12  5  1  0  0  0  0
 14 12  1  0  0  0  0
 15  1  1  0  0  0  0
 16 20  1  0  0  0  0
 16 15  2  0  0  0  0
 17 16  1  0  0  0  0
 18 17  2  0  0  0  0
 18 19  1  0  0  0  0
 19 15  1  0  0  0  0
 21 17  1  0  0  0  0
 22 18  1  0  0  0  0
 23 22  1  0  0  0  0
M  END
>  <minimizedAffinity>
-4.32839584

$$$$

 OpenBabel03242518203D

 23 24  0  0  0  0  0  0  0  0999 V2000
   39.8320   29.1930   41.0400 C   0  0  0  0  0  0  0  0  0  0  0  0
   40.1170   28.6860   40.0840 H   0  0  0  0  0  0  0  0  0  0  0  0
   40.7150   29.4240   41.6650 H   0  0  0  0  0  0  0  0  0  0  0  0
   37.3740   31.4800   39.5900 C   0  0  0  0  0  0  0  0  0  0  0  0
   37.7420   32.7420   40.0950 C   0  0  0  0  0  0  0  0  0  0  0  0
   38.8370   32.7830   40.9310 C   0  0  0  0  0  0  0  0  0  0  0  0
   39.4890   31.6380   41.2190 N   0  0  0  0  0  0  0  0  0  0  0  0
   39.1070   30.4430   40.7150 C   0  0  0  0  0  0  0  0  0  0  0  0
   38.0320   30.3630   39.8870 N   0  0  0  0  0  0  0  0  0  0  0  0
   36.5120   31.3770   38.9190 H   0  0  0  0  0  0  0  0  0  0  0  0
   39.1060   33.7590   41.3090 H   0  0  0  0  0  0  0  0  0  0  0  0
   36.9410   33.8170   39.6830 N   0  0  0  0  0  0  0  0  0  0  0  0
   35.8810   33.7500   39.6740 H   0  0  0  0  0  0  0  0  0  0  0  0
   37.5860   34.6010   39.4210 H   0  0  0  0  0  0  0  0  0  0  0  0
   38.9560   28.2660   41.8330 C   0  0  0  0  0  0  0  0  0  0  0  0
   38.5690   28.4980   43.1490 C   0  0  0  0  0  0  0  0  0  0  0  0
   37.7680   27.4260   43.5400 C   0  0  0  0  0  0  0  0  0  0  0  0
   37.7160   26.5950   42.4170 C   0  0  0  0  0  0  0  0  0  0  0  0
   38.4260   27.1450   41.4720 O   0  0  0  0  0  0  0  0  0  0  0  0
   38.7970   29.3120   43.8070 H   0  0  0  0  0  0  0  0  0  0  0  0
   37.2640   27.2130   44.4740 H   0  0  0  0  0  0  0  0  0  0  0  0
   37.0190   25.3160   42.2340 C   0  0  0  0  0  2  0  0  0  0  0  0
   37.6490   24.5280   41.7860 H   0  0  0  0  0  0  0  0  0  0  0  0
  1  3  1  0  0  0  0
  1 15  1  0  0  0  0
  2  1  1  0  0  0  0
  4  9  2  0  0  0  0
  4  5  1  0  0  0  0
  5  6  2  0  0  0  0
  6  7  1  0  0  0  0
  6 11  1  0  0  0  0
  8  1  1  0  0  0  0
  8  7  2  0  0  0  0
  9  8  1  0  0  0  0
 10  4  1  0  0  0  0
 12  5  1  0  0  0  0
 13 12  1  0  0  0  0
 14 12  1  0  0  0  0
 15 16  2  0  0  0  0
 16 17  1  0  0  0  0
 16 20  1  0  0  0  0
 17 21  1  0  0  0  0
 18 17  2  0  0  0  0
 19 15  1  0  0  0  0
 19 18  1  0  0  0  0
 22 18  1  0  0  0  0
 23 22  1  0  0  0  0
M  END
>  <minimizedAffinity>
-4.24976254

$$$$

 OpenBabel03242518203D

 23 24  0  0  0  0  0  0  0  0999 V2000
   37.7570   28.0290   42.7550 C   0  0  0  0  0  0  0  0  0  0  0  0
   37.2800   28.0500   43.7670 H   0  0  0  0  0  0  0  0  0  0  0  0
   38.7590   28.4980   42.7610 H   0  0  0  0  0  0  0  0  0  0  0  0
   39.1140   24.9690   41.2840 C   0  0  0  0  0  0  0  0  0  0  0  0
   38.0960   24.0160   41.4770 C   0  0  0  0  0  0  0  0  0  0  0  0
   36.9530   24.4470   42.1150 C   0  0  0  0  0  0  0  0  0  0  0  0
   36.8650   25.7320   42.5150 N   0  0  0  0  0  0  0  0  0  0  0  0
   37.8650   26.6210   42.3110 C   0  0  0  0  0  0  0  0  0  0  0  0
   39.0070   26.2330   41.6860 N   0  0  0  0  0  0  0  0  0  0  0  0
   40.0500   24.6920   40.7820 H   0  0  0  0  0  0  0  0  0  0  0  0
   36.1810   23.7030   42.2550 H   0  0  0  0  0  0  0  0  0  0  0  0
   38.3700   22.7290   40.9930 N   0  0  0  0  0  0  0  0  0  0  0  0
   39.3100   22.2610   41.1570 H   0  0  0  0  0  0  0  0  0  0  0  0
   37.5110   22.3970   40.4920 H   0  0  0  0  0  0  0  0  0  0  0  0
   36.9020   28.8190   41.8050 C   0  0  0  0  0  0  0  0  0  0  0  0
   37.0520   30.1820   41.5740 C   0  0  0  0  0  0  0  0  0  0  0  0
   36.0870   30.5520   40.6390 C   0  0  0  0  0  0  0  0  0  0  0  0
   35.3980   29.3690   40.3540 C   0  0  0  0  0  0  0  0  0  0  0  0
   35.9250   28.4120   41.0650 O   0  0  0  0  0  0  0  0  0  0  0  0
   37.7440   30.8860   41.9900 H   0  0  0  0  0  0  0  0  0  0  0  0
   35.8580   31.5080   40.1870 H   0  0  0  0  0  0  0  0  0  0  0  0
   34.2740   29.1410   39.4370 C   0  0  0  0  0  2  0  0  0  0  0  0
   33.4480   28.5630   39.8860 H   0  0  0  0  0  0  0  0  0  0  0  0
  1  3  1  0  0  0  0
  1  2  1  0  0  0  0
  4  5  2  0  0  0  0
  4  9  1  0  0  0  0
  5  6  1  0  0  0  0
  6 11  1  0  0  0  0
  6  7  2  0  0  0  0
  8  7  1  0  0  0  0
  8  1  1  0  0  0  0
  9  8  2  0  0  0  0
 10  4  1  0  0  0  0
 12 13  1  0  0  0  0
 12  5  1  0  0  0  0
 14 12  1  0  0  0  0
 15  1  1  0  0  0  0
 16 15  2  0  0  0  0
 16 20  1  0  0  0  0
 17 16  1  0  0  0  0
 18 17  2  0  0  0  0
 18 19  1  0  0  0  0
 19 15  1  0  0  0  0
 21 17  1  0  0  0  0
 22 23  1  0  0  0  0
 22 18  1  0  0  0  0
M  END
>  <minimizedAffinity>
-4.18015337

$$$$
