
 OpenBabel03252509183D

 34 36  0  0  1  0  0  0  0  0999 V2000
   47.6730   29.9930   48.3050 C   0  0  1  0  0  0  0  0  0  0  0  0
   47.6350   28.8120   47.3990 C   0  0  0  0  0  0  0  0  0  0  0  0
   48.9300   28.0780   47.2590 C   0  0  0  0  0  0  0  0  0  0  0  0
   49.6600   27.9020   48.5740 C   0  0  0  0  0  0  0  0  0  0  0  0
   49.6560   29.1390   49.4220 C   0  0  0  0  0  0  0  0  0  0  0  0
   49.1540   30.3230   48.5910 C   0  0  2  0  0  0  0  0  0  0  0  0
   47.2650   29.6910   49.2990 H   0  0  0  0  0  0  0  0  0  0  0  0
   47.3480   29.1530   46.3630 H   0  0  0  0  0  0  0  0  0  0  0  0
   46.8350   28.0860   47.6760 H   0  0  0  0  0  0  0  0  0  0  0  0
   49.5490   28.5550   46.4940 H   0  0  0  0  0  0  0  0  0  0  0  0
   48.6920   27.0450   46.9130 H   0  0  0  0  0  0  0  0  0  0  0  0
   50.6840   27.5540   48.3250 H   0  0  0  0  0  0  0  0  0  0  0  0
   49.1610   27.0890   49.1600 H   0  0  0  0  0  0  0  0  0  0  0  0
   50.7280   29.4010   49.6440 H   0  0  0  0  0  0  0  0  0  0  0  0
   49.0790   29.0430   50.3610 H   0  0  0  0  0  0  0  0  0  0  0  0
   49.7440   30.3070   47.6660 H   0  0  0  0  0  0  0  0  0  0  0  0
   45.9860   33.1240   46.2830 C   0  0  0  0  0  0  0  0  0  0  0  0
   45.3940   32.9270   47.5410 C   0  0  0  0  0  0  0  0  0  0  0  0
   45.8740   31.9200   48.3060 C   0  0  0  0  0  0  0  0  0  0  0  0
   46.9290   31.1140   47.8360 C   0  0  0  0  0  0  0  0  0  0  0  0
   47.2710   31.8240   46.1980 S   0  0  0  0  0  0  0  0  0  0  0  0
   44.5840   33.5410   47.9070 H   0  0  0  0  0  0  0  0  0  0  0  0
   45.5620   31.6120   49.2810 H   0  0  0  0  0  0  0  0  0  0  0  0
   44.4200   36.0300   44.5590 C   0  0  0  0  0  0  0  0  0  0  0  0
   45.0540   35.9340   43.3100 C   0  0  0  0  0  0  0  0  0  0  0  0
   45.9770   34.8970   43.1120 C   0  0  0  0  0  0  0  0  0  0  0  0
   46.2190   34.0290   44.1410 N   0  0  0  0  0  0  0  0  0  0  0  0
   45.5720   34.1690   45.3380 C   0  0  0  0  0  0  0  0  0  0  0  0
   44.6830   35.1630   45.5340 N   0  0  0  0  0  0  0  0  0  0  0  0
   43.6960   36.8200   44.7550 H   0  0  0  0  0  0  0  0  0  0  0  0
   44.8130   36.6570   42.5430 H   0  0  0  0  0  0  0  0  0  0  0  0
   46.4730   34.8050   42.1660 H   0  0  0  0  0  0  0  0  0  0  0  0
   49.3120   31.6260   49.2960 C   0  0  0  0  0  2  0  0  0  0  0  0
   48.6600   31.7290   50.1680 H   0  0  0  0  0  0  0  0  0  0  0  0
  1  6  1  0  0  0  0
  1  7  1  1  0  0  0
  2  9  1  0  0  0  0
  2  1  1  0  0  0  0
  3  2  1  0  0  0  0
  3  4  1  0  0  0  0
  4 13  1  0  0  0  0
  4  5  1  0  0  0  0
  5 14  1  0  0  0  0
  5 15  1  0  0  0  0
  6 16  1  6  0  0  0
  6 33  1  0  0  0  0
  6  5  1  0  0  0  0
  8  2  1  0  0  0  0
 10  3  1  0  0  0  0
 11  3  1  0  0  0  0
 12  4  1  0  0  0  0
 17 18  2  0  0  0  0
 18 22  1  0  0  0  0
 18 19  1  0  0  0  0
 19 23  1  0  0  0  0
 20  1  1  0  0  0  0
 20 19  2  0  0  0  0
 21 17  1  0  0  0  0
 21 20  1  0  0  0  0
 24 30  1  0  0  0  0
 24 29  1  0  0  0  0
 25 24  2  0  0  0  0
 26 25  1  0  0  0  0
 26 27  2  0  0  0  0
 27 28  1  0  0  0  0
 28 29  2  0  0  0  0
 28 17  1  0  0  0  0
 31 25  1  0  0  0  0
 32 26  1  0  0  0  0
 33 34  1  0  0  0  0
M  END
>  <minimizedAffinity>
-4.95020866

>  <minimizedRMSD>
0.94911319

$$$$
