
 OpenBabel03252504553D

 24 25  0  0  1  0  0  0  0  0999 V2000
   45.9880   35.4900   42.4110 C   0  0  0  0  0  0  0  0  0  0  0  0
   44.9360   35.6320   41.9940 H   0  0  0  0  0  0  0  0  0  0  0  0
   46.3000   36.5710   42.5130 H   0  0  0  0  0  0  0  0  0  0  0  0
   46.7060   34.6860   41.5900 N   0  0  0  0  0  0  0  0  0  0  0  0
   45.9620   33.7560   40.7890 C   0  0  0  0  0  0  0  0  0  0  0  0
   46.8310   33.6030   39.5930 C   0  0  0  0  0  0  0  0  0  0  0  0
   48.0880   34.4160   39.8090 C   0  0  0  0  0  0  0  0  0  0  0  0
   48.0410   34.6650   41.3400 C   0  0  1  0  0  0  0  0  0  0  0  0
   45.0760   33.2060   40.7930 H   0  0  0  0  0  0  0  0  0  0  0  0
   46.6970   32.9980   38.6890 H   0  0  0  0  0  0  0  0  0  0  0  0
   47.9590   35.3620   39.2590 H   0  0  0  0  0  0  0  0  0  0  0  0
   48.9710   33.8610   39.5210 H   0  0  0  0  0  0  0  0  0  0  0  0
   48.5250   33.7630   41.7680 H   0  0  0  0  0  0  0  0  0  0  0  0
   48.9380   35.8100   41.5170 C   0  0  0  0  0  0  0  0  0  0  0  0
   49.3180   36.2420   40.5690 H   0  0  0  0  0  0  0  0  0  0  0  0
   44.6550   34.8750   45.8760 C   0  0  0  0  0  0  0  0  0  0  0  0
   44.7840   35.5050   44.6340 C   0  0  0  0  0  0  0  0  0  0  0  0
   45.7400   34.9900   43.7600 C   0  0  0  0  0  0  0  0  0  0  0  0
   46.4730   33.9290   44.1670 N   0  0  0  0  0  0  0  0  0  0  0  0
   46.3180   33.3350   45.3990 C   0  0  0  0  0  0  0  0  0  0  0  0
   45.4050   33.8200   46.2380 N   0  0  0  0  0  0  0  0  0  0  0  0
   43.9180   35.2860   46.5250 H   0  0  0  0  0  0  0  0  0  0  0  0
   44.2100   36.3430   44.3060 H   0  0  0  0  0  0  0  0  0  0  0  0
   46.9630   32.4960   45.5980 H   0  0  0  0  0  0  0  0  0  0  0  0
  1  3  1  0  0  0  0
  1 18  1  0  0  0  0
  2  1  1  0  0  0  0
  4  1  1  0  0  0  0
  5  9  1  0  0  0  0
  5  4  1  0  0  0  0
  6  7  1  0  0  0  0
  6  5  2  0  0  0  0
  7  8  1  0  0  0  0
  8 14  1  0  0  0  0
  8  4  1  0  0  0  0
  8 13  1  1  0  0  0
 10  6  1  0  0  0  0
 11  7  1  0  0  0  0
 12  7  1  0  0  0  0
 15 14  1  0  0  0  0
 16 21  1  0  0  0  0
 16 22  1  0  0  0  0
 17 16  2  0  0  0  0
 18 19  2  0  0  0  0
 18 17  1  0  0  0  0
 19 20  1  0  0  0  0
 20 24  1  0  0  0  0
 20 21  2  0  0  0  0
 23 17  1  0  0  0  0
M  END
>  <minimizedAffinity>
-4.41965294

>  <minimizedRMSD>
1.37551093

$$$$
