
 OpenBabel03242514393D

 35 37  0  0  0  0  0  0  0  0999 V2000
   47.6310   33.8280   39.2270 C   0  0  0  0  0  0  0  0  0  0  0  0
   46.3960   33.6290   39.5600 O   0  0  0  0  0  0  0  0  0  0  0  0
   47.7660   33.2930   37.8540 C   0  0  0  0  0  0  0  0  0  0  0  0
   48.7340   33.6740   36.9010 C   0  0  0  0  0  0  0  0  0  0  0  0
   48.6130   33.0030   35.6960 C   0  0  0  0  0  0  0  0  0  0  0  0
   47.6670   32.0890   35.4740 C   0  0  0  0  0  0  0  0  0  0  0  0
   46.7470   32.0770   37.1250 S   0  0  0  0  0  0  0  0  0  0  0  0
   49.5040   34.4110   37.0650 H   0  0  0  0  0  0  0  0  0  0  0  0
   49.2530   33.1480   34.8380 H   0  0  0  0  0  0  0  0  0  0  0  0
   47.2360   31.2150   34.4150 C   0  0  0  0  0  0  0  0  0  0  0  0
   46.0610   30.5250   34.4930 C   0  0  0  0  0  0  0  0  0  0  0  0
   45.8060   29.7270   33.3810 C   0  0  0  0  0  0  0  0  0  0  0  0
   46.6800   29.6710   32.3300 C   0  0  0  0  0  0  0  0  0  0  0  0
   47.8600   30.3910   32.2980 C   0  0  0  0  0  0  0  0  0  0  0  0
   48.1070   31.1710   33.3900 N   0  0  0  0  0  0  0  0  0  0  0  0
   45.3960   30.5930   35.3340 H   0  0  0  0  0  0  0  0  0  0  0  0
   44.8940   29.1350   33.3410 H   0  0  0  0  0  0  0  0  0  0  0  0
   46.5030   29.0540   31.4480 H   0  0  0  0  0  0  0  0  0  0  0  0
   48.5550   30.3500   31.4720 H   0  0  0  0  0  0  0  0  0  0  0  0
   48.3050   34.4240   40.2170 O   0  0  0  0  0  0  0  0  0  0  0  0
   49.6500   34.7600   42.3880 O   0  0  0  0  0  0  0  0  0  0  0  0
   49.0720   33.7030   41.5080 P   0  0  2  0  0  0  0  0  0  0  0  0
   50.3340   32.7780   40.9270 O   0  0  0  0  0  0  0  0  0  0  0  0
   50.0330   31.8530   40.7060 H   0  0  0  0  0  0  0  0  0  0  0  0
   47.9320   32.7300   42.3780 O   0  0  0  0  0  0  0  0  0  0  0  0
   46.2940   34.3640   42.9170 C   0  0  0  0  0  0  0  0  0  0  0  0
   47.0890   33.3080   43.3160 C   0  0  0  0  0  0  0  0  0  0  0  0
   46.9900   32.8910   44.6450 C   0  0  0  0  0  0  0  0  0  0  0  0
   46.1260   33.5360   45.4710 N   0  0  0  0  0  0  0  0  0  0  0  0
   45.3750   34.5530   45.0480 C   0  0  0  0  0  0  0  0  0  0  0  0
   45.4540   34.9660   43.7860 N   0  0  0  0  0  0  0  0  0  0  0  0
   46.2640   34.7890   41.9310 H   0  0  0  0  0  0  0  0  0  0  0  0
   47.6350   32.0610   44.8990 H   0  0  0  0  0  0  0  0  0  0  0  0
   44.4580   35.1950   46.0320 C   0  0  0  0  0  0  0  0  0  0  0  0
   43.4670   35.4290   45.5810 H   0  0  0  0  0  0  0  0  0  0  0  0
  1  2  2  0  0  0  0
  1 20  1  0  0  0  0
  3  1  1  0  0  0  0
  4  8  1  0  0  0  0
  4  3  2  0  0  0  0
  5  4  1  0  0  0  0
  6  5  2  0  0  0  0
  6  7  1  0  0  0  0
  7  3  1  0  0  0  0
  9  5  1  0  0  0  0
 10 11  1  0  0  0  0
 10  6  1  0  0  0  0
 11 16  1  0  0  0  0
 12 11  2  0  0  0  0
 13 12  1  0  0  0  0
 14 13  2  0  0  0  0
 14 15  1  0  0  0  0
 15 10  2  0  0  0  0
 17 12  1  0  0  0  0
 18 13  1  0  0  0  0
 19 14  1  0  0  0  0
 20 22  1  0  0  0  0
 22 25  1  0  0  0  0
 22 21  2  1  0  0  0
 23 22  1  0  0  0  0
 24 23  1  0  0  0  0
 25 27  1  0  0  0  0
 26 27  2  0  0  0  0
 26 31  1  0  0  0  0
 27 28  1  0  0  0  0
 28 33  1  0  0  0  0
 28 29  2  0  0  0  0
 30 29  1  0  0  0  0
 30 34  1  0  0  0  0
 31 30  2  0  0  0  0
 32 26  1  0  0  0  0
 35 34  1  0  0  0  0
M  END
>  <minimizedAffinity>
-4.91565609

>  <minimizedRMSD>
0.792574227

$$$$
