
 OpenBabel03252508573D

 32 33  0  0  1  0  0  0  0  0999 V2000
   48.8320   33.4990   40.4710 N   0  0  0  0  0  0  0  0  0  0  0  0
   49.3740   33.5210   41.7680 C   0  0  0  0  0  0  0  0  0  0  0  0
   49.7270   32.1890   42.3640 C   0  0  0  0  0  0  0  0  0  0  0  0
   50.0980   31.1110   41.3920 C   0  0  0  0  0  0  0  0  0  0  0  0
   50.2150   31.6550   40.0000 C   0  0  0  0  0  0  0  0  0  0  0  0
   48.8550   32.3330   39.7090 C   0  0  2  0  0  0  0  0  0  0  0  0
   48.6320   33.9950   42.4500 H   0  0  0  0  0  0  0  0  0  0  0  0
   50.2530   34.2000   41.7910 H   0  0  0  0  0  0  0  0  0  0  0  0
   50.6150   32.3550   43.0390 H   0  0  0  0  0  0  0  0  0  0  0  0
   48.9150   31.8320   43.0300 H   0  0  0  0  0  0  0  0  0  0  0  0
   49.2860   30.3370   41.3720 H   0  0  0  0  0  0  0  0  0  0  0  0
   51.0660   30.6190   41.6490 H   0  0  0  0  0  0  0  0  0  0  0  0
   50.2950   30.8670   39.2470 H   0  0  0  0  0  0  0  0  0  0  0  0
   51.0300   32.3980   39.9640 H   0  0  0  0  0  0  0  0  0  0  0  0
   48.1270   31.5460   39.8870 H   0  0  0  0  0  0  0  0  0  0  0  0
   47.7570   34.4020   40.2220 C   0  0  0  0  0  0  0  0  0  0  0  0
   47.8510   35.2590   40.9020 H   0  0  0  0  0  0  0  0  0  0  0  0
   47.8020   34.8130   39.1910 H   0  0  0  0  0  0  0  0  0  0  0  0
   46.4370   33.7320   40.3850 C   0  0  0  0  0  0  0  0  0  0  0  0
   46.5730   32.6850   40.7940 H   0  0  0  0  0  0  0  0  0  0  0  0
   45.8470   33.6540   39.4550 H   0  0  0  0  0  0  0  0  0  0  0  0
   43.6210   35.4160   42.2120 C   0  0  0  0  0  0  0  0  0  0  0  0
   44.3400   34.7810   41.1610 C   0  0  0  0  0  0  0  0  0  0  0  0
   45.6550   34.4080   41.4240 C   0  0  0  0  0  0  0  0  0  0  0  0
   46.1650   34.6670   42.6470 N   0  0  0  0  0  0  0  0  0  0  0  0
   45.4530   35.2730   43.6250 C   0  0  0  0  0  0  0  0  0  0  0  0
   44.1860   35.6520   43.4230 N   0  0  0  0  0  0  0  0  0  0  0  0
   42.6200   35.6850   41.9670 H   0  0  0  0  0  0  0  0  0  0  0  0
   43.8850   34.6020   40.2120 H   0  0  0  0  0  0  0  0  0  0  0  0
   45.9040   35.4570   44.5790 H   0  0  0  0  0  0  0  0  0  0  0  0
   48.9300   32.7360   38.2380 C   0  0  0  0  0  2  0  0  0  0  0  0
   48.6120   31.9340   37.5430 H   0  0  0  0  0  0  0  0  0  0  0  0
  1  2  1  0  0  0  0
  2  8  1  0  0  0  0
  2  3  1  0  0  0  0
  2  7  1  0  0  0  0
  3 10  1  0  0  0  0
  3  9  1  0  0  0  0
  4 12  1  0  0  0  0
  4  3  1  0  0  0  0
  5  4  1  0  0  0  0
  6 15  1  1  0  0  0
  6  5  1  0  0  0  0
  6  1  1  0  0  0  0
 11  4  1  0  0  0  0
 13  5  1  0  0  0  0
 14  5  1  0  0  0  0
 16 19  1  0  0  0  0
 16  1  1  0  0  0  0
 16 17  1  0  0  0  0
 18 16  1  0  0  0  0
 19 20  1  0  0  0  0
 19 24  1  0  0  0  0
 21 19  1  0  0  0  0
 22 27  1  0  0  0  0
 23 24  1  0  0  0  0
 23 22  2  0  0  0  0
 24 25  2  0  0  0  0
 25 26  1  0  0  0  0
 26 30  1  0  0  0  0
 27 26  2  0  0  0  0
 28 22  1  0  0  0  0
 29 23  1  0  0  0  0
 31  6  1  0  0  0  0
 32 31  1  0  0  0  0
M  END
>  <minimizedAffinity>
-3.43030429

>  <minimizedRMSD>
2.27121019

$$$$
