
 OpenBabel03252501023D

 18 19  0  0  1  0  0  0  0  0999 V2000
   39.9570   25.9550   43.6800 C   0  0  0  0  0  0  0  0  0  0  0  0
   39.0040   26.9760   43.5270 C   0  0  0  0  0  0  0  0  0  0  0  0
   37.8850   26.6470   42.7740 C   0  0  0  0  0  0  0  0  0  0  0  0
   37.7730   25.3850   42.2380 N   0  0  0  0  0  0  0  0  0  0  0  0
   38.7180   24.4350   42.4120 C   0  0  0  0  0  0  0  0  0  0  0  0
   39.8230   24.7290   43.1450 N   0  0  0  0  0  0  0  0  0  0  0  0
   40.8620   26.1650   44.2670 H   0  0  0  0  0  0  0  0  0  0  0  0
   39.1230   27.9560   43.9620 H   0  0  0  0  0  0  0  0  0  0  0  0
   38.4820   23.5040   41.9320 H   0  0  0  0  0  0  0  0  0  0  0  0
   36.7860   27.6440   42.5530 C   0  0  1  0  0  0  0  0  0  0  0  0
   37.3020   29.0630   42.4550 C   0  0  0  0  0  0  0  0  0  0  0  0
   36.6880   28.2910   41.2560 C   0  0  2  0  0  0  0  0  0  0  0  0
   35.8860   27.4660   43.1550 H   0  0  0  0  0  0  0  0  0  0  0  0
   36.6870   29.8280   42.9500 H   0  0  0  0  0  0  0  0  0  0  0  0
   38.3810   29.2270   42.4130 H   0  0  0  0  0  0  0  0  0  0  0  0
   37.4280   28.0700   40.4320 H   0  0  0  0  0  0  0  0  0  0  0  0
   35.4350   28.9300   40.7410 C   0  0  0  0  0  2  0  0  0  0  0  0
   35.3450   30.0040   40.9360 H   0  0  0  0  0  0  0  0  0  0  0  0
  1  7  1  0  0  0  0
  2  1  1  0  0  0  0
  2  8  1  0  0  0  0
  3  2  2  0  0  0  0
  4  5  2  0  0  0  0
  4  3  1  0  0  0  0
  5  6  1  0  0  0  0
  6  1  2  0  0  0  0
  9  5  1  0  0  0  0
 10  3  1  0  0  0  0
 10 13  1  1  0  0  0
 11 10  1  0  0  0  0
 11 14  1  0  0  0  0
 12 16  1  6  0  0  0
 12 11  1  0  0  0  0
 12 10  1  0  0  0  0
 15 11  1  0  0  0  0
 17 18  1  0  0  0  0
 17 12  1  0  0  0  0
M  END
>  <minimizedAffinity>
-3.64784932

$$$$

 OpenBabel03252501023D

 18 19  0  0  1  0  0  0  0  0999 V2000
   35.9270   30.0710   40.4840 C   0  0  0  0  0  0  0  0  0  0  0  0
   36.4110   29.2180   41.4900 C   0  0  0  0  0  0  0  0  0  0  0  0
   37.6200   29.5880   42.0630 C   0  0  0  0  0  0  0  0  0  0  0  0
   38.2560   30.7290   41.6320 N   0  0  0  0  0  0  0  0  0  0  0  0
   37.7510   31.5200   40.6600 C   0  0  0  0  0  0  0  0  0  0  0  0
   36.5700   31.1820   40.0820 N   0  0  0  0  0  0  0  0  0  0  0  0
   34.9740   29.8230   39.9980 H   0  0  0  0  0  0  0  0  0  0  0  0
   35.8860   28.3290   41.8040 H   0  0  0  0  0  0  0  0  0  0  0  0
   38.3660   32.3720   40.4390 H   0  0  0  0  0  0  0  0  0  0  0  0
   38.2340   28.7700   43.1610 C   0  0  1  0  0  0  0  0  0  0  0  0
   37.3020   27.6930   43.6710 C   0  0  0  0  0  0  0  0  0  0  0  0
   38.6010   27.3940   42.8760 C   0  0  2  0  0  0  0  0  0  0  0  0
   38.7960   29.3540   43.9010 H   0  0  0  0  0  0  0  0  0  0  0  0
   37.3090   27.5330   44.7590 H   0  0  0  0  0  0  0  0  0  0  0  0
   36.3650   27.5130   43.1370 H   0  0  0  0  0  0  0  0  0  0  0  0
   38.4170   26.9340   41.8620 H   0  0  0  0  0  0  0  0  0  0  0  0
   39.6010   26.6200   43.6800 C   0  0  0  0  0  2  0  0  0  0  0  0
   39.1810   26.0130   44.4890 H   0  0  0  0  0  0  0  0  0  0  0  0
  1  2  1  0  0  0  0
  2  8  1  0  0  0  0
  2  3  2  0  0  0  0
  3 10  1  0  0  0  0
  4  3  1  0  0  0  0
  5  4  2  0  0  0  0
  6  1  2  0  0  0  0
  6  5  1  0  0  0  0
  7  1  1  0  0  0  0
  9  5  1  0  0  0  0
 10 11  1  0  0  0  0
 10 13  1  1  0  0  0
 11 14  1  0  0  0  0
 12 16  1  6  0  0  0
 12 10  1  0  0  0  0
 12 11  1  0  0  0  0
 12 17  1  0  0  0  0
 15 11  1  0  0  0  0
 17 18  1  0  0  0  0
M  END
>  <minimizedAffinity>
-3.58532715

$$$$

 OpenBabel03252501023D

 18 19  0  0  1  0  0  0  0  0999 V2000
   38.7500   31.1610   41.2520 C   0  0  0  0  0  0  0  0  0  0  0  0
   38.9080   29.9100   41.8720 C   0  0  0  0  0  0  0  0  0  0  0  0
   37.7520   29.1520   42.0000 C   0  0  0  0  0  0  0  0  0  0  0  0
   36.5580   29.6470   41.5310 N   0  0  0  0  0  0  0  0  0  0  0  0
   36.4550   30.8580   40.9410 C   0  0  0  0  0  0  0  0  0  0  0  0
   37.5690   31.6210   40.8020 N   0  0  0  0  0  0  0  0  0  0  0  0
   39.6340   31.8010   41.1270 H   0  0  0  0  0  0  0  0  0  0  0  0
   39.8610   29.5520   42.2290 H   0  0  0  0  0  0  0  0  0  0  0  0
   35.4560   31.0980   40.6280 H   0  0  0  0  0  0  0  0  0  0  0  0
   37.7920   27.7890   42.6280 C   0  0  1  0  0  0  0  0  0  0  0  0
   36.5480   27.4870   43.4360 C   0  0  0  0  0  0  0  0  0  0  0  0
   36.9040   26.7630   42.1100 C   0  0  2  0  0  0  0  0  0  0  0  0
   38.7630   27.5180   43.0610 H   0  0  0  0  0  0  0  0  0  0  0  0
   36.7140   26.9520   44.3820 H   0  0  0  0  0  0  0  0  0  0  0  0
   35.7080   28.1840   43.3870 H   0  0  0  0  0  0  0  0  0  0  0  0
   36.1850   26.9790   41.2670 H   0  0  0  0  0  0  0  0  0  0  0  0
   37.1340   25.2950   42.3010 C   0  0  0  0  0  2  0  0  0  0  0  0
   36.6330   24.8520   43.1680 H   0  0  0  0  0  0  0  0  0  0  0  0
  1  2  1  0  0  0  0
  2  3  2  0  0  0  0
  2  8  1  0  0  0  0
  3 10  1  0  0  0  0
  4  3  1  0  0  0  0
  5  4  2  0  0  0  0
  6  5  1  0  0  0  0
  6  1  2  0  0  0  0
  7  1  1  0  0  0  0
  9  5  1  0  0  0  0
 10 13  1  1  0  0  0
 10 11  1  0  0  0  0
 11 14  1  0  0  0  0
 12 16  1  6  0  0  0
 12 17  1  0  0  0  0
 12 10  1  0  0  0  0
 12 11  1  0  0  0  0
 15 11  1  0  0  0  0
 17 18  1  0  0  0  0
M  END
>  <minimizedAffinity>
-3.5770936

$$$$

 OpenBabel03252501023D

 18 19  0  0  1  0  0  0  0  0999 V2000
   36.8830   30.8920   38.2420 C   0  0  0  0  0  0  0  0  0  0  0  0
   36.4830   29.7370   38.9340 C   0  0  0  0  0  0  0  0  0  0  0  0
   36.3890   29.8640   40.3130 C   0  0  0  0  0  0  0  0  0  0  0  0
   36.6820   31.0700   40.9070 N   0  0  0  0  0  0  0  0  0  0  0  0
   37.0620   32.1550   40.1980 C   0  0  0  0  0  0  0  0  0  0  0  0
   37.1630   32.0600   38.8470 N   0  0  0  0  0  0  0  0  0  0  0  0
   36.9740   30.8450   37.1480 H   0  0  0  0  0  0  0  0  0  0  0  0
   36.2610   28.8060   38.4360 H   0  0  0  0  0  0  0  0  0  0  0  0
   37.2530   33.0190   40.8080 H   0  0  0  0  0  0  0  0  0  0  0  0
   35.9540   28.7070   41.1650 C   0  0  1  0  0  0  0  0  0  0  0  0
   36.6930   27.4300   40.8280 C   0  0  0  0  0  0  0  0  0  0  0  0
   36.8760   28.1980   42.1640 C   0  0  2  0  0  0  0  0  0  0  0  0
   34.8710   28.6450   41.3250 H   0  0  0  0  0  0  0  0  0  0  0  0
   36.0860   26.5130   40.8340 H   0  0  0  0  0  0  0  0  0  0  0  0
   37.5340   27.4780   40.1320 H   0  0  0  0  0  0  0  0  0  0  0  0
   37.9060   28.6430   42.2940 H   0  0  0  0  0  0  0  0  0  0  0  0
   36.4490   27.3930   43.3530 C   0  0  0  0  0  2  0  0  0  0  0  0
   36.4830   26.3070   43.2190 H   0  0  0  0  0  0  0  0  0  0  0  0
  1  6  2  0  0  0  0
  1  2  1  0  0  0  0
  2  3  2  0  0  0  0
  3  4  1  0  0  0  0
  3 10  1  0  0  0  0
  5  9  1  0  0  0  0
  5  4  2  0  0  0  0
  6  5  1  0  0  0  0
  7  1  1  0  0  0  0
  8  2  1  0  0  0  0
 10 13  1  1  0  0  0
 10 12  1  0  0  0  0
 11 14  1  0  0  0  0
 11 10  1  0  0  0  0
 11 12  1  0  0  0  0
 12 16  1  1  0  0  0
 12 17  1  0  0  0  0
 15 11  1  0  0  0  0
 18 17  1  0  0  0  0
M  END
>  <minimizedAffinity>
-3.53411317

$$$$

 OpenBabel03252501023D

 18 19  0  0  1  0  0  0  0  0999 V2000
   38.0280   26.6720   42.5290 C   0  0  0  0  0  0  0  0  0  0  0  0
   36.9510   27.0230   41.6980 C   0  0  0  0  0  0  0  0  0  0  0  0
   36.6120   28.3690   41.6880 C   0  0  0  0  0  0  0  0  0  0  0  0
   37.3240   29.2560   42.4620 N   0  0  0  0  0  0  0  0  0  0  0  0
   38.3540   28.8710   43.2460 C   0  0  0  0  0  0  0  0  0  0  0  0
   38.7080   27.5600   43.2760 N   0  0  0  0  0  0  0  0  0  0  0  0
   38.3360   25.6180   42.5740 H   0  0  0  0  0  0  0  0  0  0  0  0
   36.4140   26.3010   41.1030 H   0  0  0  0  0  0  0  0  0  0  0  0
   38.8070   29.6810   43.7870 H   0  0  0  0  0  0  0  0  0  0  0  0
   35.4910   28.8740   40.8270 C   0  0  1  0  0  0  0  0  0  0  0  0
   35.8310   30.1790   40.1400 C   0  0  0  0  0  0  0  0  0  0  0  0
   35.6540   28.8340   39.3850 C   0  0  2  0  0  0  0  0  0  0  0  0
   34.4950   28.7770   41.2780 H   0  0  0  0  0  0  0  0  0  0  0  0
   35.0180   30.9160   40.0880 H   0  0  0  0  0  0  0  0  0  0  0  0
   36.8550   30.5550   40.2060 H   0  0  0  0  0  0  0  0  0  0  0  0
   36.6040   28.4500   38.9110 H   0  0  0  0  0  0  0  0  0  0  0  0
   34.5070   28.8630   38.4210 C   0  0  0  0  0  2  0  0  0  0  0  0
   34.2340   29.8570   38.0500 H   0  0  0  0  0  0  0  0  0  0  0  0
  1  7  1  0  0  0  0
  1  6  1  0  0  0  0
  2  1  2  0  0  0  0
  3  2  1  0  0  0  0
  3  4  2  0  0  0  0
  4  5  1  0  0  0  0
  5  6  2  0  0  0  0
  5  9  1  0  0  0  0
  8  2  1  0  0  0  0
 10 13  1  1  0  0  0
 10  3  1  0  0  0  0
 11 15  1  0  0  0  0
 11 10  1  0  0  0  0
 12 16  1  6  0  0  0
 12 11  1  0  0  0  0
 12 10  1  0  0  0  0
 14 11  1  0  0  0  0
 17 12  1  0  0  0  0
 18 17  1  0  0  0  0
M  END
>  <minimizedAffinity>
-3.46432972

$$$$

 OpenBabel03252501023D

 18 19  0  0  1  0  0  0  0  0999 V2000
   41.1890   29.2090   42.6480 C   0  0  0  0  0  0  0  0  0  0  0  0
   40.4660   28.0370   42.9240 C   0  0  0  0  0  0  0  0  0  0  0  0
   39.0910   28.1910   43.0350 C   0  0  0  0  0  0  0  0  0  0  0  0
   38.5300   29.4360   42.8750 N   0  0  0  0  0  0  0  0  0  0  0  0
   39.2680   30.5370   42.6110 C   0  0  0  0  0  0  0  0  0  0  0  0
   40.6150   30.4160   42.4960 N   0  0  0  0  0  0  0  0  0  0  0  0
   42.2810   29.1420   42.5500 H   0  0  0  0  0  0  0  0  0  0  0  0
   40.9380   27.0740   43.0430 H   0  0  0  0  0  0  0  0  0  0  0  0
   38.6820   31.4310   42.5130 H   0  0  0  0  0  0  0  0  0  0  0  0
   38.2040   27.0110   43.3090 C   0  0  1  0  0  0  0  0  0  0  0  0
   36.7340   27.3540   43.2040 C   0  0  0  0  0  0  0  0  0  0  0  0
   37.4700   26.4250   42.2020 C   0  0  2  0  0  0  0  0  0  0  0  0
   38.5260   26.3900   44.1550 H   0  0  0  0  0  0  0  0  0  0  0  0
   36.0820   26.8930   43.9590 H   0  0  0  0  0  0  0  0  0  0  0  0
   36.4510   28.3380   42.8210 H   0  0  0  0  0  0  0  0  0  0  0  0
   37.5430   26.8490   41.1590 H   0  0  0  0  0  0  0  0  0  0  0  0
   36.9310   25.0270   42.2130 C   0  0  0  0  0  2  0  0  0  0  0  0
   35.8930   24.9290   42.5460 H   0  0  0  0  0  0  0  0  0  0  0  0
  1  2  1  0  0  0  0
  2  3  2  0  0  0  0
  2  8  1  0  0  0  0
  3 10  1  0  0  0  0
  4  3  1  0  0  0  0
  5  4  2  0  0  0  0
  6  5  1  0  0  0  0
  6  1  2  0  0  0  0
  7  1  1  0  0  0  0
  9  5  1  0  0  0  0
 10 13  1  1  0  0  0
 11 10  1  0  0  0  0
 11 14  1  0  0  0  0
 12 16  1  6  0  0  0
 12 17  1  0  0  0  0
 12 11  1  0  0  0  0
 12 10  1  0  0  0  0
 15 11  1  0  0  0  0
 17 18  1  0  0  0  0
M  END
>  <minimizedAffinity>
-3.42574286

$$$$

 OpenBabel03252501023D

 18 19  0  0  1  0  0  0  0  0999 V2000
   36.0030   27.4050   38.7930 C   0  0  0  0  0  0  0  0  0  0  0  0
   36.7860   27.3230   39.9570 C   0  0  0  0  0  0  0  0  0  0  0  0
   36.4500   28.2090   40.9710 C   0  0  0  0  0  0  0  0  0  0  0  0
   35.4070   29.0870   40.7910 N   0  0  0  0  0  0  0  0  0  0  0  0
   34.6810   29.1280   39.6520 C   0  0  0  0  0  0  0  0  0  0  0  0
   34.9880   28.2730   38.6420 N   0  0  0  0  0  0  0  0  0  0  0  0
   36.2290   26.7260   37.9590 H   0  0  0  0  0  0  0  0  0  0  0  0
   37.5990   26.6220   40.0660 H   0  0  0  0  0  0  0  0  0  0  0  0
   33.9020   29.8670   39.6670 H   0  0  0  0  0  0  0  0  0  0  0  0
   37.1980   28.2090   42.2730 C   0  0  1  0  0  0  0  0  0  0  0  0
   36.5210   27.3630   43.3300 C   0  0  0  0  0  0  0  0  0  0  0  0
   37.8800   26.9930   42.6790 C   0  0  2  0  0  0  0  0  0  0  0  0
   37.5850   29.1910   42.5720 H   0  0  0  0  0  0  0  0  0  0  0  0
   36.5280   27.7790   44.3480 H   0  0  0  0  0  0  0  0  0  0  0  0
   35.6700   26.7430   43.0400 H   0  0  0  0  0  0  0  0  0  0  0  0
   37.8410   26.0580   42.0460 H   0  0  0  0  0  0  0  0  0  0  0  0
   39.0040   26.9640   43.6690 C   0  0  0  0  0  2  0  0  0  0  0  0
   38.7070   26.7740   44.7060 H   0  0  0  0  0  0  0  0  0  0  0  0
  1  2  1  0  0  0  0
  2  8  1  0  0  0  0
  2  3  2  0  0  0  0
  3 10  1  0  0  0  0
  4  3  1  0  0  0  0
  5  9  1  0  0  0  0
  5  4  2  0  0  0  0
  6  1  2  0  0  0  0
  6  5  1  0  0  0  0
  7  1  1  0  0  0  0
 10 13  1  1  0  0  0
 10 12  1  0  0  0  0
 10 11  1  0  0  0  0
 11 14  1  0  0  0  0
 12 16  1  6  0  0  0
 12 11  1  0  0  0  0
 12 17  1  0  0  0  0
 15 11  1  0  0  0  0
 17 18  1  0  0  0  0
M  END
>  <minimizedAffinity>
-3.41667819

$$$$

 OpenBabel03252501023D

 18 19  0  0  1  0  0  0  0  0999 V2000
   38.0220   28.9160   43.3570 C   0  0  0  0  0  0  0  0  0  0  0  0
   38.3130   27.5420   43.3890 C   0  0  0  0  0  0  0  0  0  0  0  0
   37.7440   26.7830   42.3760 C   0  0  0  0  0  0  0  0  0  0  0  0
   36.9550   27.3930   41.4290 N   0  0  0  0  0  0  0  0  0  0  0  0
   36.7040   28.7200   41.4390 C   0  0  0  0  0  0  0  0  0  0  0  0
   37.2480   29.4880   42.4180 N   0  0  0  0  0  0  0  0  0  0  0  0
   38.4480   29.5620   44.1370 H   0  0  0  0  0  0  0  0  0  0  0  0
   38.9360   27.0950   44.1480 H   0  0  0  0  0  0  0  0  0  0  0  0
   36.0720   29.0420   40.6320 H   0  0  0  0  0  0  0  0  0  0  0  0
   37.9930   25.3050   42.2890 C   0  0  1  0  0  0  0  0  0  0  0  0
   36.7320   24.5210   42.0020 C   0  0  0  0  0  0  0  0  0  0  0  0
   37.9000   24.6630   40.9910 C   0  0  2  0  0  0  0  0  0  0  0  0
   38.6760   24.9160   43.0550 H   0  0  0  0  0  0  0  0  0  0  0  0
   36.6270   23.5710   42.5470 H   0  0  0  0  0  0  0  0  0  0  0  0
   35.8190   25.0670   41.7550 H   0  0  0  0  0  0  0  0  0  0  0  0
   37.6290   25.2480   40.0640 H   0  0  0  0  0  0  0  0  0  0  0  0
   38.5440   23.3490   40.6680 C   0  0  0  0  0  2  0  0  0  0  0  0
   37.9040   22.4700   40.8020 H   0  0  0  0  0  0  0  0  0  0  0  0
  1  2  1  0  0  0  0
  1  7  1  0  0  0  0
  2  8  1  0  0  0  0
  3  2  2  0  0  0  0
  4  5  2  0  0  0  0
  4  3  1  0  0  0  0
  5  6  1  0  0  0  0
  6  1  2  0  0  0  0
  9  5  1  0  0  0  0
 10  3  1  0  0  0  0
 10 13  1  1  0  0  0
 11 10  1  0  0  0  0
 11 14  1  0  0  0  0
 12 16  1  6  0  0  0
 12 11  1  0  0  0  0
 12 10  1  0  0  0  0
 15 11  1  0  0  0  0
 17 18  1  0  0  0  0
 17 12  1  0  0  0  0
M  END
>  <minimizedAffinity>
-3.40100503

$$$$

 OpenBabel03252501023D

 18 19  0  0  1  0  0  0  0  0999 V2000
   36.5950   25.3980   39.7300 C   0  0  0  0  0  0  0  0  0  0  0  0
   36.7500   26.7120   40.2030 C   0  0  0  0  0  0  0  0  0  0  0  0
   37.0020   26.8360   41.5630 C   0  0  0  0  0  0  0  0  0  0  0  0
   37.0830   25.7080   42.3460 N   0  0  0  0  0  0  0  0  0  0  0  0
   36.9270   24.4630   41.8450 C   0  0  0  0  0  0  0  0  0  0  0  0
   36.6800   24.3110   40.5180 N   0  0  0  0  0  0  0  0  0  0  0  0
   36.3940   25.2450   38.6610 H   0  0  0  0  0  0  0  0  0  0  0  0
   36.6800   27.5760   39.5610 H   0  0  0  0  0  0  0  0  0  0  0  0
   37.0210   23.6900   42.5840 H   0  0  0  0  0  0  0  0  0  0  0  0
   37.2050   28.1850   42.1880 C   0  0  1  0  0  0  0  0  0  0  0  0
   37.4510   28.1020   43.6790 C   0  0  0  0  0  0  0  0  0  0  0  0
   38.5340   28.5380   42.6550 C   0  0  2  0  0  0  0  0  0  0  0  0
   36.5190   28.9610   41.8240 H   0  0  0  0  0  0  0  0  0  0  0  0
   36.9650   28.8790   44.2860 H   0  0  0  0  0  0  0  0  0  0  0  0
   37.5950   27.1190   44.1330 H   0  0  0  0  0  0  0  0  0  0  0  0
   39.3970   27.8160   42.5720 H   0  0  0  0  0  0  0  0  0  0  0  0
   38.9900   29.9500   42.8680 C   0  0  0  0  0  2  0  0  0  0  0  0
   38.8690   30.3310   43.8870 H   0  0  0  0  0  0  0  0  0  0  0  0
  1  2  2  0  0  0  0
  1  6  1  0  0  0  0
  2  3  1  0  0  0  0
  3 10  1  0  0  0  0
  3  4  2  0  0  0  0
  5  4  1  0  0  0  0
  5  9  1  0  0  0  0
  6  5  2  0  0  0  0
  7  1  1  0  0  0  0
  8  2  1  0  0  0  0
 10 13  1  6  0  0  0
 10 12  1  0  0  0  0
 10 11  1  0  0  0  0
 11 15  1  0  0  0  0
 11 14  1  0  0  0  0
 12 16  1  6  0  0  0
 12 17  1  0  0  0  0
 12 11  1  0  0  0  0
 17 18  1  0  0  0  0
M  END
>  <minimizedAffinity>
-3.3069129

$$$$
