
 OpenBabel03252501003D

 18 19  0  0  1  0  0  0  0  0999 V2000
   44.5700   36.0250   44.4640 C   0  0  0  0  0  0  0  0  0  0  0  0
   45.2320   35.9970   43.2250 C   0  0  0  0  0  0  0  0  0  0  0  0
   46.1090   34.9380   43.0360 C   0  0  0  0  0  0  0  0  0  0  0  0
   46.2770   34.0060   44.0340 N   0  0  0  0  0  0  0  0  0  0  0  0
   45.6170   34.0750   45.2110 C   0  0  0  0  0  0  0  0  0  0  0  0
   44.7520   35.1000   45.4230 N   0  0  0  0  0  0  0  0  0  0  0  0
   43.8640   36.8430   44.6650 H   0  0  0  0  0  0  0  0  0  0  0  0
   45.0770   36.7450   42.4640 H   0  0  0  0  0  0  0  0  0  0  0  0
   45.8560   33.2730   45.8830 H   0  0  0  0  0  0  0  0  0  0  0  0
   46.8640   34.7850   41.7480 C   0  0  1  0  0  0  0  0  0  0  0  0
   48.2310   35.4310   41.7970 C   0  0  0  0  0  0  0  0  0  0  0  0
   48.0120   33.8970   41.7200 C   0  0  2  0  0  0  0  0  0  0  0  0
   46.2570   34.9380   40.8470 H   0  0  0  0  0  0  0  0  0  0  0  0
   48.5410   35.9600   40.8840 H   0  0  0  0  0  0  0  0  0  0  0  0
   48.5970   35.8120   42.7540 H   0  0  0  0  0  0  0  0  0  0  0  0
   48.3490   33.3430   42.6440 H   0  0  0  0  0  0  0  0  0  0  0  0
   48.5680   33.2990   40.4630 C   0  0  0  0  0  0  0  0  0  0  0  0
   49.3840   33.8630   39.9990 H   0  0  0  0  0  0  0  0  0  0  0  0
  1  7  1  0  0  0  0
  1  6  1  0  0  0  0
  2  1  2  0  0  0  0
  3  2  1  0  0  0  0
  3  4  2  0  0  0  0
  4  5  1  0  0  0  0
  5  6  2  0  0  0  0
  5  9  1  0  0  0  0
  8  2  1  0  0  0  0
 10 13  1  6  0  0  0
 10 11  1  0  0  0  0
 10  3  1  0  0  0  0
 11 15  1  0  0  0  0
 12 10  1  0  0  0  0
 12 11  1  0  0  0  0
 12 16  1  1  0  0  0
 14 11  1  0  0  0  0
 17 12  1  0  0  0  0
 18 17  1  0  0  0  0
M  END
>  <minimizedAffinity>
-3.90057588

>  <minimizedRMSD>
0.223119169

$$$$
