
 OpenBabel03252502433D

 24 25  0  0  1  0  0  0  0  0999 V2000
   47.0070   33.8110   42.4840 C   0  0  0  0  0  0  0  0  0  0  0  0
   46.9150   32.7300   42.3640 H   0  0  0  0  0  0  0  0  0  0  0  0
   47.9210   34.1890   42.9610 H   0  0  0  0  0  0  0  0  0  0  0  0
   44.6450   36.0340   44.3690 C   0  0  0  0  0  0  0  0  0  0  0  0
   45.4400   35.5180   43.3080 C   0  0  0  0  0  0  0  0  0  0  0  0
   46.1170   34.3550   43.5510 C   0  0  0  0  0  0  0  0  0  0  0  0
   46.0080   33.7450   44.7630 N   0  0  0  0  0  0  0  0  0  0  0  0
   45.2600   34.2420   45.7370 C   0  0  0  0  0  0  0  0  0  0  0  0
   44.5860   35.3790   45.5400 N   0  0  0  0  0  0  0  0  0  0  0  0
   44.0680   36.9510   44.2870 H   0  0  0  0  0  0  0  0  0  0  0  0
   45.3770   36.1390   42.4450 H   0  0  0  0  0  0  0  0  0  0  0  0
   45.1740   33.7560   46.7010 H   0  0  0  0  0  0  0  0  0  0  0  0
   46.8100   34.5990   41.2280 C   0  0  0  0  0  0  0  0  0  0  0  0
   46.3680   35.6070   41.4150 H   0  0  0  0  0  0  0  0  0  0  0  0
   46.2510   34.0050   40.4970 H   0  0  0  0  0  0  0  0  0  0  0  0
   48.2320   34.8900   40.7880 C   0  0  1  0  0  0  0  0  0  0  0  0
   48.9940   35.9250   41.4370 C   0  0  0  0  0  0  0  0  0  0  0  0
   49.3420   34.4170   41.4870 C   0  0  1  0  0  0  0  0  0  0  0  0
   48.1580   35.0270   39.6710 H   0  0  0  0  0  0  0  0  0  0  0  0
   49.7570   36.5120   40.8460 H   0  0  0  0  0  0  0  0  0  0  0  0
   48.7760   36.4390   42.3640 H   0  0  0  0  0  0  0  0  0  0  0  0
   50.0230   34.0280   40.6510 H   0  0  0  0  0  0  0  0  0  0  0  0
   50.1100   34.1380   42.6610 C   0  0  0  0  0  0  0  0  0  0  0  0
   51.1440   33.6820   42.5320 H   0  0  0  0  0  0  0  0  0  0  0  0
  1  3  1  0  0  0  0
  1  6  1  0  0  0  0
  2  1  1  0  0  0  0
  4  9  1  0  0  0  0
  5  6  1  0  0  0  0
  5  4  2  0  0  0  0
  6  7  2  0  0  0  0
  7  8  1  0  0  0  0
  8 12  1  0  0  0  0
  9  8  2  0  0  0  0
 10  4  1  0  0  0  0
 11  5  1  0  0  0  0
 13 14  1  0  0  0  0
 13  1  1  0  0  0  0
 15 13  1  0  0  0  0
 16 19  1  6  0  0  0
 16 13  1  0  0  0  0
 16 17  1  0  0  0  0
 16 18  1  0  0  0  0
 17 18  1  0  0  0  0
 17 21  1  0  0  0  0
 18 22  1  6  0  0  0
 18 23  1  0  0  0  0
 20 17  1  0  0  0  0
 24 23  1  0  0  0  0
M  END
>  <minimizedAffinity>
-4.56592417

>  <minimizedRMSD>
0.722734451

$$$$
