
 OpenBabel03242523183D

 30 32  0  0  0  0  0  0  0  0999 V2000
   47.5130   32.8350   43.9260 C   0  0  0  0  0  0  0  0  0  0  0  0
   48.3490   33.3810   43.0300 C   0  0  0  0  0  0  0  0  0  0  0  0
   49.2070   32.4900   42.4260 C   0  0  0  0  0  0  0  0  0  0  0  0
   49.1420   31.1320   42.7920 N   0  0  0  0  0  0  0  0  0  0  0  0
   48.2960   30.6710   43.6830 C   0  0  0  0  0  0  0  0  0  0  0  0
   47.4200   31.5300   44.3050 N   0  0  0  0  0  0  0  0  0  0  0  0
   49.9430   32.7710   41.6760 H   0  0  0  0  0  0  0  0  0  0  0  0
   48.3600   29.6020   43.8640 H   0  0  0  0  0  0  0  0  0  0  0  0
   48.4900   34.7670   42.7480 C   0  0  0  0  0  0  0  0  0  0  0  0
   49.5100   35.4030   42.1140 C   0  0  0  0  0  0  0  0  0  0  0  0
   48.3060   35.2080   41.2330 C   0  0  0  0  0  0  0  0  0  0  0  0
   47.9860   35.4250   43.4800 H   0  0  0  0  0  0  0  0  0  0  0  0
   50.4150   34.7950   41.8020 H   0  0  0  0  0  0  0  0  0  0  0  0
   49.8320   36.4670   42.1600 H   0  0  0  0  0  0  0  0  0  0  0  0
   47.5810   36.0390   41.1040 H   0  0  0  0  0  0  0  0  0  0  0  0
   48.3170   34.3630   40.5390 H   0  0  0  0  0  0  0  0  0  0  0  0
   46.4300   33.5200   44.6470 C   0  0  0  0  0  0  0  0  0  0  0  0
   45.8590   33.8740   45.6450 O   0  0  0  0  0  0  0  0  0  0  0  0
   44.6180   31.6910   42.9470 Cl  0  0  0  0  0  0  0  0  0  0  0  0
   44.6210   33.4480   42.7860 C   0  0  0  0  0  0  0  0  0  0  0  0
   45.5060   34.1290   43.6470 C   0  0  0  0  0  0  0  0  0  0  0  0
   45.4300   35.4970   43.4400 C   0  0  0  0  0  0  0  0  0  0  0  0
   44.6750   36.1960   42.5810 C   0  0  0  0  0  0  0  0  0  0  0  0
   43.8450   35.4610   41.7820 C   0  0  0  0  0  0  0  0  0  0  0  0
   43.8050   34.1130   41.8690 C   0  0  0  0  0  0  0  0  0  0  0  0
   46.0390   36.1900   44.0610 H   0  0  0  0  0  0  0  0  0  0  0  0
   44.6480   37.2550   42.4510 H   0  0  0  0  0  0  0  0  0  0  0  0
   43.1660   35.8480   41.0330 H   0  0  0  0  0  0  0  0  0  0  0  0
   42.9360   33.1860   41.0510 C   0  0  0  0  0  2  0  0  0  0  0  0
   41.9220   33.6340   41.0690 H   0  0  0  0  0  0  0  0  0  0  0  0
  1  6  1  0  0  0  0
  1 17  1  0  0  0  0
  2  1  2  0  0  0  0
  3  4  2  0  0  0  0
  3  2  1  0  0  0  0
  4  5  1  0  0  0  0
  5  8  1  0  0  0  0
  5  6  2  0  0  0  0
  7  3  1  0  0  0  0
  9  2  1  0  0  0  0
  9 12  1  0  0  0  0
 10 14  1  0  0  0  0
 10  9  1  0  0  0  0
 11 10  1  0  0  0  0
 11  9  1  0  0  0  0
 13 10  1  0  0  0  0
 15 11  1  0  0  0  0
 16 11  1  0  0  0  0
 17 18  2  0  0  0  0
 20 19  1  0  0  0  0
 20 21  1  0  0  0  0
 21 17  1  0  0  0  0
 22 21  2  0  0  0  0
 22 26  1  0  0  0  0
 23 22  1  0  0  0  0
 24 25  1  0  0  0  0
 24 23  2  0  0  0  0
 25 20  2  0  0  0  0
 27 23  1  0  0  0  0
 28 24  1  0  0  0  0
 29 30  1  0  0  0  0
 29 25  1  0  0  0  0
M  END
>  <minimizedAffinity>
-5.02285767

>  <minimizedRMSD>
0.0451968126

$$$$
