
 OpenBabel03252509073D

 34 36  0  0  0  0  0  0  0  0999 V2000
   45.3860   35.3180   43.2180 Cl  0  0  0  0  0  0  0  0  0  0  0  0
   45.2120   34.5650   41.6610 C   0  0  0  0  0  0  0  0  0  0  0  0
   46.2930   34.1640   40.9550 C   0  0  0  0  0  0  0  0  0  0  0  0
   46.0410   33.5680   39.7220 C   0  0  0  0  0  0  0  0  0  0  0  0
   44.7690   33.3920   39.2360 C   0  0  0  0  0  0  0  0  0  0  0  0
   43.7020   33.8050   39.9660 C   0  0  0  0  0  0  0  0  0  0  0  0
   43.9320   34.3940   41.1860 C   0  0  0  0  0  0  0  0  0  0  0  0
   44.6260   32.9210   38.2630 H   0  0  0  0  0  0  0  0  0  0  0  0
   42.6990   33.6570   39.5650 H   0  0  0  0  0  0  0  0  0  0  0  0
   43.0380   34.7100   41.7360 H   0  0  0  0  0  0  0  0  0  0  0  0
   47.6190   31.8220   38.8740 C   0  0  0  0  0  0  0  0  0  0  0  0
   47.1680   33.1070   38.9250 C   0  0  0  0  0  0  0  0  0  0  0  0
   47.8180   34.0620   38.1650 C   0  0  0  0  0  0  0  0  0  0  0  0
   48.8940   33.7140   37.3790 C   0  0  0  0  0  0  0  0  0  0  0  0
   49.3620   32.4050   37.3180 C   0  0  0  0  0  0  0  0  0  0  0  0
   48.7000   31.4530   38.0880 C   0  0  0  0  0  0  0  0  0  0  0  0
   47.5090   35.1030   38.1620 H   0  0  0  0  0  0  0  0  0  0  0  0
   49.3830   34.4810   36.7960 H   0  0  0  0  0  0  0  0  0  0  0  0
   50.1950   32.1540   36.7040 H   0  0  0  0  0  0  0  0  0  0  0  0
   49.0630   30.4430   38.0400 H   0  0  0  0  0  0  0  0  0  0  0  0
   46.8470   30.5990   39.7520 S   0  0  0  0  0  0  0  0  0  0  0  0
   45.5700   30.1260   39.0880 O   0  0  0  0  0  0  0  0  0  0  0  0
   47.7900   29.3700   39.6400 O   0  0  0  0  0  0  0  0  0  0  0  0
   46.5060   30.6380   41.4120 C   0  0  0  0  0  0  0  0  0  0  0  0
   47.2940   30.5650   42.1650 H   0  0  0  0  0  0  0  0  0  0  0  0
   49.5820   35.7230   41.9410 C   0  0  0  0  0  0  0  0  0  0  0  0
   48.3080   35.5480   41.4020 C   0  0  0  0  0  0  0  0  0  0  0  0
   47.6120   34.3580   41.5010 C   0  0  0  0  0  0  0  0  0  0  0  0
   48.2680   33.3800   42.1620 N   0  0  0  0  0  0  0  0  0  0  0  0
   49.4960   33.5340   42.6850 C   0  0  0  0  0  0  0  0  0  0  0  0
   50.1440   34.6970   42.5750 N   0  0  0  0  0  0  0  0  0  0  0  0
   50.0410   36.6810   41.8130 H   0  0  0  0  0  0  0  0  0  0  0  0
   47.8410   36.3770   40.8840 H   0  0  0  0  0  0  0  0  0  0  0  0
   49.9760   32.7290   43.2010 H   0  0  0  0  0  0  0  0  0  0  0  0
  2  1  1  0  0  0  0
  3 28  1  0  0  0  0
  3  2  2  0  0  0  0
  4  3  1  0  0  0  0
  5  4  2  0  0  0  0
  5  6  1  0  0  0  0
  6  7  2  0  0  0  0
  7  2  1  0  0  0  0
  7 10  1  0  0  0  0
  8  5  1  0  0  0  0
  9  6  1  0  0  0  0
 11 12  1  0  0  0  0
 11 21  1  0  0  0  0
 12  4  1  0  0  0  0
 13 12  2  0  0  0  0
 14 13  1  0  0  0  0
 15 14  2  0  0  0  0
 15 16  1  0  0  0  0
 16 11  2  0  0  0  0
 17 13  1  0  0  0  0
 18 14  1  0  0  0  0
 19 15  1  0  0  0  0
 20 16  1  0  0  0  0
 21 24  1  0  0  0  0
 22 21  2  0  0  0  0
 23 21  2  0  0  0  0
 24 25  1  0  0  0  0
 26 31  1  0  0  0  0
 27 28  1  0  0  0  0
 27 26  2  0  0  0  0
 28 29  2  0  0  0  0
 29 30  1  0  0  0  0
 30 34  1  0  0  0  0
 31 30  2  0  0  0  0
 32 26  1  0  0  0  0
 33 27  1  0  0  0  0
M  END
>  <minimizedAffinity>
-4.59937096

>  <minimizedRMSD>
0.499320745

$$$$
