
 OpenBabel03252509093D

 34 36  0  0  0  0  0  0  0  0999 V2000
   39.5290   30.8190   42.6840 Cl  0  0  0  0  0  0  0  0  0  0  0  0
   38.2900   29.6130   42.5070 C   0  0  0  0  0  0  0  0  0  0  0  0
   37.6000   29.4850   41.3500 C   0  0  0  0  0  0  0  0  0  0  0  0
   36.6340   28.4840   41.3140 C   0  0  0  0  0  0  0  0  0  0  0  0
   36.3820   27.6640   42.3860 C   0  0  0  0  0  0  0  0  0  0  0  0
   37.0890   27.8150   43.5350 C   0  0  0  0  0  0  0  0  0  0  0  0
   38.0480   28.7970   43.5890 C   0  0  0  0  0  0  0  0  0  0  0  0
   35.6120   26.8970   42.3060 H   0  0  0  0  0  0  0  0  0  0  0  0
   36.8760   27.1550   44.3760 H   0  0  0  0  0  0  0  0  0  0  0  0
   38.5920   28.8790   44.5370 H   0  0  0  0  0  0  0  0  0  0  0  0
   36.1280   27.3530   39.1410 C   0  0  0  0  0  0  0  0  0  0  0  0
   35.8690   28.2950   40.0900 C   0  0  0  0  0  0  0  0  0  0  0  0
   34.7980   29.1480   39.8940 C   0  0  0  0  0  0  0  0  0  0  0  0
   34.0180   29.0400   38.7640 C   0  0  0  0  0  0  0  0  0  0  0  0
   34.2730   28.0790   37.7890 C   0  0  0  0  0  0  0  0  0  0  0  0
   35.3540   27.2280   37.9970 C   0  0  0  0  0  0  0  0  0  0  0  0
   34.5390   29.9210   40.6120 H   0  0  0  0  0  0  0  0  0  0  0  0
   33.1880   29.7190   38.6370 H   0  0  0  0  0  0  0  0  0  0  0  0
   33.6590   28.0090   36.9220 H   0  0  0  0  0  0  0  0  0  0  0  0
   35.5500   26.4880   37.2440 H   0  0  0  0  0  0  0  0  0  0  0  0
   37.4020   26.2560   39.3370 S   0  0  0  0  0  0  0  0  0  0  0  0
   37.0550   25.1290   40.2870 O   0  0  0  0  0  0  0  0  0  0  0  0
   37.5310   25.5440   37.9620 O   0  0  0  0  0  0  0  0  0  0  0  0
   39.0110   26.6610   39.6820 C   0  0  0  0  0  2  0  0  0  0  0  0
   39.6550   27.1480   38.9460 H   0  0  0  0  0  0  0  0  0  0  0  0
   37.5860   32.4200   38.9810 C   0  0  0  0  0  0  0  0  0  0  0  0
   37.2830   31.5820   40.0550 C   0  0  0  0  0  0  0  0  0  0  0  0
   37.8980   30.3590   40.2440 C   0  0  0  0  0  0  0  0  0  0  0  0
   38.8150   30.0430   39.3050 N   0  0  0  0  0  0  0  0  0  0  0  0
   39.1160   30.8390   38.2660 C   0  0  0  0  0  0  0  0  0  0  0  0
   38.5050   32.0170   38.1090 N   0  0  0  0  0  0  0  0  0  0  0  0
   37.0560   33.3470   38.9200 H   0  0  0  0  0  0  0  0  0  0  0  0
   36.5360   31.9000   40.7710 H   0  0  0  0  0  0  0  0  0  0  0  0
   39.8510   30.5450   37.5460 H   0  0  0  0  0  0  0  0  0  0  0  0
  2  1  1  0  0  0  0
  2  7  1  0  0  0  0
  3  2  2  0  0  0  0
  4  3  1  0  0  0  0
  4  5  2  0  0  0  0
  5  6  1  0  0  0  0
  6  7  2  0  0  0  0
  6  9  1  0  0  0  0
  7 10  1  0  0  0  0
  8  5  1  0  0  0  0
 11 21  1  0  0  0  0
 11 12  1  0  0  0  0
 12  4  1  0  0  0  0
 13 12  2  0  0  0  0
 13 17  1  0  0  0  0
 14 13  1  0  0  0  0
 15 16  1  0  0  0  0
 15 14  2  0  0  0  0
 16 11  2  0  0  0  0
 18 14  1  0  0  0  0
 19 15  1  0  0  0  0
 20 16  1  0  0  0  0
 21 24  1  0  0  0  0
 21 22  2  0  0  0  0
 23 21  2  0  0  0  0
 25 24  1  0  0  0  0
 26 27  1  0  0  0  0
 27 28  2  0  0  0  0
 27 33  1  0  0  0  0
 28  3  1  0  0  0  0
 29 28  1  0  0  0  0
 30 29  2  0  0  0  0
 31 30  1  0  0  0  0
 31 26  2  0  0  0  0
 32 26  1  0  0  0  0
 34 30  1  0  0  0  0
M  END
>  <minimizedAffinity>
-5.88107872

$$$$

 OpenBabel03252509093D

 34 36  0  0  0  0  0  0  0  0999 V2000
   35.8400   25.8570   36.9060 Cl  0  0  0  0  0  0  0  0  0  0  0  0
   35.4740   27.1100   38.0540 C   0  0  0  0  0  0  0  0  0  0  0  0
   36.2110   27.2650   39.1770 C   0  0  0  0  0  0  0  0  0  0  0  0
   35.8350   28.3030   40.0250 C   0  0  0  0  0  0  0  0  0  0  0  0
   34.7750   29.1310   39.7510 C   0  0  0  0  0  0  0  0  0  0  0  0
   34.0520   28.9520   38.6160 C   0  0  0  0  0  0  0  0  0  0  0  0
   34.4090   27.9340   37.7660 C   0  0  0  0  0  0  0  0  0  0  0  0
   34.5210   29.9280   40.4500 H   0  0  0  0  0  0  0  0  0  0  0  0
   33.2130   29.6190   38.4140 H   0  0  0  0  0  0  0  0  0  0  0  0
   33.7950   27.8300   36.8640 H   0  0  0  0  0  0  0  0  0  0  0  0
   37.5590   29.4760   41.4060 C   0  0  0  0  0  0  0  0  0  0  0  0
   36.6000   28.5220   41.2430 C   0  0  0  0  0  0  0  0  0  0  0  0
   36.3180   27.6870   42.3090 C   0  0  0  0  0  0  0  0  0  0  0  0
   36.9930   27.8240   43.5010 C   0  0  0  0  0  0  0  0  0  0  0  0
   37.9730   28.7970   43.6790 C   0  0  0  0  0  0  0  0  0  0  0  0
   38.2500   29.6300   42.5990 C   0  0  0  0  0  0  0  0  0  0  0  0
   35.5660   26.9060   42.2430 H   0  0  0  0  0  0  0  0  0  0  0  0
   36.7510   27.1580   44.3170 H   0  0  0  0  0  0  0  0  0  0  0  0
   38.4850   28.8890   44.6070 H   0  0  0  0  0  0  0  0  0  0  0  0
   39.0060   30.3800   42.7370 H   0  0  0  0  0  0  0  0  0  0  0  0
   37.9290   30.5530   40.1530 S   0  0  0  0  0  0  0  0  0  0  0  0
   36.9170   31.6730   40.0340 O   0  0  0  0  0  0  0  0  0  0  0  0
   39.2210   31.2790   40.6190 O   0  0  0  0  0  0  0  0  0  0  0  0
   38.3170   30.1210   38.5610 C   0  0  0  0  0  2  0  0  0  0  0  0
   39.2610   29.6340   38.3080 H   0  0  0  0  0  0  0  0  0  0  0  0
   38.2750   24.3100   40.2860 C   0  0  0  0  0  0  0  0  0  0  0  0
   37.1910   25.1580   40.0560 C   0  0  0  0  0  0  0  0  0  0  0  0
   37.3210   26.3820   39.4260 C   0  0  0  0  0  0  0  0  0  0  0  0
   38.5820   26.6880   39.0550 N   0  0  0  0  0  0  0  0  0  0  0  0
   39.6350   25.8830   39.2710 C   0  0  0  0  0  0  0  0  0  0  0  0
   39.4790   24.7040   39.8810 N   0  0  0  0  0  0  0  0  0  0  0  0
   38.0750   23.3830   40.7810 H   0  0  0  0  0  0  0  0  0  0  0  0
   36.2060   24.8470   40.3810 H   0  0  0  0  0  0  0  0  0  0  0  0
   40.6170   26.1690   38.9580 H   0  0  0  0  0  0  0  0  0  0  0  0
  1  2  1  0  0  0  0
  2  3  1  0  0  0  0
  3 28  1  0  0  0  0
  3  4  2  0  0  0  0
  4 12  1  0  0  0  0
  5  4  1  0  0  0  0
  5  8  1  0  0  0  0
  6  5  2  0  0  0  0
  7  2  2  0  0  0  0
  7  6  1  0  0  0  0
  9  6  1  0  0  0  0
 10  7  1  0  0  0  0
 11 16  1  0  0  0  0
 12 11  2  0  0  0  0
 12 13  1  0  0  0  0
 13 14  2  0  0  0  0
 14 15  1  0  0  0  0
 14 18  1  0  0  0  0
 15 19  1  0  0  0  0
 16 20  1  0  0  0  0
 16 15  2  0  0  0  0
 17 13  1  0  0  0  0
 21 23  2  0  0  0  0
 21 11  1  0  0  0  0
 22 21  2  0  0  0  0
 24 21  1  0  0  0  0
 25 24  1  0  0  0  0
 26 32  1  0  0  0  0
 27 26  1  0  0  0  0
 27 33  1  0  0  0  0
 28 27  2  0  0  0  0
 29 30  2  0  0  0  0
 29 28  1  0  0  0  0
 30 31  1  0  0  0  0
 31 26  2  0  0  0  0
 34 30  1  0  0  0  0
M  END
>  <minimizedAffinity>
-5.4837594

$$$$

 OpenBabel03252509093D

 34 36  0  0  0  0  0  0  0  0999 V2000
   37.0590   30.2160   36.5600 Cl  0  0  0  0  0  0  0  0  0  0  0  0
   37.2080   30.6670   38.2320 C   0  0  0  0  0  0  0  0  0  0  0  0
   37.3750   29.7320   39.1950 C   0  0  0  0  0  0  0  0  0  0  0  0
   37.4880   30.2020   40.5000 C   0  0  0  0  0  0  0  0  0  0  0  0
   37.4330   31.5390   40.8090 C   0  0  0  0  0  0  0  0  0  0  0  0
   37.2640   32.4560   39.8230 C   0  0  0  0  0  0  0  0  0  0  0  0
   37.1520   32.0100   38.5270 C   0  0  0  0  0  0  0  0  0  0  0  0
   37.5250   31.8540   41.8480 H   0  0  0  0  0  0  0  0  0  0  0  0
   37.2230   33.5120   40.0850 H   0  0  0  0  0  0  0  0  0  0  0  0
   37.0170   32.7880   37.7670 H   0  0  0  0  0  0  0  0  0  0  0  0
   38.8720   28.9580   42.1720 C   0  0  0  0  0  0  0  0  0  0  0  0
   37.6800   29.2400   41.5750 C   0  0  0  0  0  0  0  0  0  0  0  0
   36.5530   28.5700   42.0130 C   0  0  0  0  0  0  0  0  0  0  0  0
   36.6410   27.6430   43.0280 C   0  0  0  0  0  0  0  0  0  0  0  0
   37.8540   27.3490   43.6450 C   0  0  0  0  0  0  0  0  0  0  0  0
   38.9820   28.0290   43.1950 C   0  0  0  0  0  0  0  0  0  0  0  0
   35.5730   28.7480   41.5780 H   0  0  0  0  0  0  0  0  0  0  0  0
   35.7440   27.1350   43.3490 H   0  0  0  0  0  0  0  0  0  0  0  0
   37.9040   26.6300   44.4280 H   0  0  0  0  0  0  0  0  0  0  0  0
   39.9170   27.8010   43.6720 H   0  0  0  0  0  0  0  0  0  0  0  0
   40.2840   29.7680   41.7070 S   0  0  0  0  0  0  0  0  0  0  0  0
   40.3940   31.1450   42.3280 O   0  0  0  0  0  0  0  0  0  0  0  0
   41.4390   28.9750   42.3780 O   0  0  0  0  0  0  0  0  0  0  0  0
   40.8470   29.9420   40.1180 C   0  0  0  0  0  2  0  0  0  0  0  0
   41.2450   29.0970   39.5500 H   0  0  0  0  0  0  0  0  0  0  0  0
   36.3900   26.1940   38.3380 C   0  0  0  0  0  0  0  0  0  0  0  0
   36.3160   27.5400   38.6970 C   0  0  0  0  0  0  0  0  0  0  0  0
   37.4360   28.3390   38.8310 C   0  0  0  0  0  0  0  0  0  0  0  0
   38.6050   27.7100   38.5890 N   0  0  0  0  0  0  0  0  0  0  0  0
   38.6920   26.4140   38.2440 C   0  0  0  0  0  0  0  0  0  0  0  0
   37.5920   25.6660   38.1200 N   0  0  0  0  0  0  0  0  0  0  0  0
   35.4680   25.6570   38.2590 H   0  0  0  0  0  0  0  0  0  0  0  0
   35.3430   27.9800   38.8760 H   0  0  0  0  0  0  0  0  0  0  0  0
   39.6420   25.9590   38.0610 H   0  0  0  0  0  0  0  0  0  0  0  0
  1  2  1  0  0  0  0
  2  7  2  0  0  0  0
  2  3  1  0  0  0  0
  3  4  2  0  0  0  0
  4  5  1  0  0  0  0
  4 12  1  0  0  0  0
  5  8  1  0  0  0  0
  6  9  1  0  0  0  0
  6  5  2  0  0  0  0
  7  6  1  0  0  0  0
 10  7  1  0  0  0  0
 11 16  1  0  0  0  0
 12 13  1  0  0  0  0
 12 11  2  0  0  0  0
 13 14  2  0  0  0  0
 14 18  1  0  0  0  0
 14 15  1  0  0  0  0
 15 19  1  0  0  0  0
 16 15  2  0  0  0  0
 16 20  1  0  0  0  0
 17 13  1  0  0  0  0
 21 11  1  0  0  0  0
 21 22  2  0  0  0  0
 21 23  2  0  0  0  0
 24 21  1  0  0  0  0
 25 24  1  0  0  0  0
 26 27  1  0  0  0  0
 27 28  2  0  0  0  0
 27 33  1  0  0  0  0
 28  3  1  0  0  0  0
 29 28  1  0  0  0  0
 30 29  2  0  0  0  0
 31 30  1  0  0  0  0
 31 26  2  0  0  0  0
 32 26  1  0  0  0  0
 34 30  1  0  0  0  0
M  END
>  <minimizedAffinity>
-5.15954113

$$$$

 OpenBabel03252509093D

 34 36  0  0  0  0  0  0  0  0999 V2000
   37.6940   31.5920   37.2600 Cl  0  0  0  0  0  0  0  0  0  0  0  0
   37.0150   30.2300   38.1000 C   0  0  0  0  0  0  0  0  0  0  0  0
   37.5330   29.8060   39.2750 C   0  0  0  0  0  0  0  0  0  0  0  0
   36.9100   28.7100   39.8660 C   0  0  0  0  0  0  0  0  0  0  0  0
   35.8290   28.0820   39.2970 C   0  0  0  0  0  0  0  0  0  0  0  0
   35.3300   28.5290   38.1170 C   0  0  0  0  0  0  0  0  0  0  0  0
   35.9310   29.6110   37.5190 C   0  0  0  0  0  0  0  0  0  0  0  0
   35.3790   27.2270   39.8000 H   0  0  0  0  0  0  0  0  0  0  0  0
   34.4710   28.0190   37.6800 H   0  0  0  0  0  0  0  0  0  0  0  0
   35.4920   29.9330   36.5690 H   0  0  0  0  0  0  0  0  0  0  0  0
   38.1920   27.1070   41.2950 C   0  0  0  0  0  0  0  0  0  0  0  0
   37.4190   28.2180   41.1370 C   0  0  0  0  0  0  0  0  0  0  0  0
   37.0830   28.9480   42.2620 C   0  0  0  0  0  0  0  0  0  0  0  0
   37.5230   28.5570   43.5060 C   0  0  0  0  0  0  0  0  0  0  0  0
   38.3140   27.4250   43.6790 C   0  0  0  0  0  0  0  0  0  0  0  0
   38.6460   26.6970   42.5400 C   0  0  0  0  0  0  0  0  0  0  0  0
   36.4680   29.8430   42.2030 H   0  0  0  0  0  0  0  0  0  0  0  0
   37.2440   29.1470   44.3670 H   0  0  0  0  0  0  0  0  0  0  0  0
   38.6460   27.1370   44.6480 H   0  0  0  0  0  0  0  0  0  0  0  0
   39.2560   25.8230   42.6740 H   0  0  0  0  0  0  0  0  0  0  0  0
   38.6690   26.1870   39.9560 S   0  0  0  0  0  0  0  0  0  0  0  0
   39.4870   26.9880   38.9650 O   0  0  0  0  0  0  0  0  0  0  0  0
   39.6870   25.1590   40.5200 O   0  0  0  0  0  0  0  0  0  0  0  0
   37.6530   25.2070   39.0180 C   0  0  0  0  0  2  0  0  0  0  0  0
   37.2330   24.2750   39.4030 H   0  0  0  0  0  0  0  0  0  0  0  0
   41.0570   30.7860   40.1910 C   0  0  0  0  0  0  0  0  0  0  0  0
   39.9730   30.1060   39.6370 C   0  0  0  0  0  0  0  0  0  0  0  0
   38.6630   30.4950   39.8440 C   0  0  0  0  0  0  0  0  0  0  0  0
   38.5200   31.5850   40.6270 N   0  0  0  0  0  0  0  0  0  0  0  0
   39.5550   32.2500   41.1670 C   0  0  0  0  0  0  0  0  0  0  0  0
   40.8120   31.8520   40.9490 N   0  0  0  0  0  0  0  0  0  0  0  0
   42.0350   30.4090   39.9730 H   0  0  0  0  0  0  0  0  0  0  0  0
   40.1610   29.2370   39.0180 H   0  0  0  0  0  0  0  0  0  0  0  0
   39.3930   33.1100   41.7810 H   0  0  0  0  0  0  0  0  0  0  0  0
  1  2  1  0  0  0  0
  2  3  1  0  0  0  0
  3 28  1  0  0  0  0
  3  4  2  0  0  0  0
  4 12  1  0  0  0  0
  5  8  1  0  0  0  0
  5  4  1  0  0  0  0
  6  5  2  0  0  0  0
  7  2  2  0  0  0  0
  7  6  1  0  0  0  0
  9  6  1  0  0  0  0
 10  7  1  0  0  0  0
 11 16  1  0  0  0  0
 12 11  2  0  0  0  0
 12 13  1  0  0  0  0
 13 14  2  0  0  0  0
 14 15  1  0  0  0  0
 14 18  1  0  0  0  0
 15 19  1  0  0  0  0
 16 20  1  0  0  0  0
 16 15  2  0  0  0  0
 17 13  1  0  0  0  0
 21 23  2  0  0  0  0
 21 11  1  0  0  0  0
 22 21  2  0  0  0  0
 24 25  1  0  0  0  0
 24 21  1  0  0  0  0
 26 31  1  0  0  0  0
 27 28  1  0  0  0  0
 27 26  2  0  0  0  0
 28 29  2  0  0  0  0
 29 30  1  0  0  0  0
 30 34  1  0  0  0  0
 31 30  2  0  0  0  0
 32 26  1  0  0  0  0
 33 27  1  0  0  0  0
M  END
>  <minimizedAffinity>
-5.1449995

$$$$

 OpenBabel03252509093D

 34 36  0  0  0  0  0  0  0  0999 V2000
   41.2870   32.7010   40.1450 Cl  0  0  0  0  0  0  0  0  0  0  0  0
   39.6430   32.1810   40.3670 C   0  0  0  0  0  0  0  0  0  0  0  0
   39.3600   30.9720   40.9040 C   0  0  0  0  0  0  0  0  0  0  0  0
   38.0110   30.6580   41.0410 C   0  0  0  0  0  0  0  0  0  0  0  0
   37.0110   31.5160   40.6550 C   0  0  0  0  0  0  0  0  0  0  0  0
   37.3240   32.7220   40.1170 C   0  0  0  0  0  0  0  0  0  0  0  0
   38.6510   33.0510   39.9750 C   0  0  0  0  0  0  0  0  0  0  0  0
   35.9700   31.2200   40.7820 H   0  0  0  0  0  0  0  0  0  0  0  0
   36.5190   33.3910   39.8160 H   0  0  0  0  0  0  0  0  0  0  0  0
   38.8530   34.0350   39.5370 H   0  0  0  0  0  0  0  0  0  0  0  0
   37.2690   28.2720   40.9190 C   0  0  0  0  0  0  0  0  0  0  0  0
   37.6480   29.3740   41.6240 C   0  0  0  0  0  0  0  0  0  0  0  0
   37.6990   29.2860   43.0030 C   0  0  0  0  0  0  0  0  0  0  0  0
   37.3750   28.1090   43.6400 C   0  0  0  0  0  0  0  0  0  0  0  0
   36.9880   26.9770   42.9300 C   0  0  0  0  0  0  0  0  0  0  0  0
   36.9380   27.0780   41.5430 C   0  0  0  0  0  0  0  0  0  0  0  0
   37.9930   30.1290   43.6230 H   0  0  0  0  0  0  0  0  0  0  0  0
   37.4240   28.0690   44.7190 H   0  0  0  0  0  0  0  0  0  0  0  0
   36.7410   26.0750   43.4380 H   0  0  0  0  0  0  0  0  0  0  0  0
   36.6390   26.2030   40.9950 H   0  0  0  0  0  0  0  0  0  0  0  0
   37.2180   28.3020   39.2280 S   0  0  0  0  0  0  0  0  0  0  0  0
   38.5870   28.4980   38.6100 O   0  0  0  0  0  0  0  0  0  0  0  0
   36.8370   26.8540   38.8140 O   0  0  0  0  0  0  0  0  0  0  0  0
   36.1590   29.2330   38.2870 C   0  0  0  0  0  2  0  0  0  0  0  0
   35.0900   29.0130   38.2310 H   0  0  0  0  0  0  0  0  0  0  0  0
   42.0650   29.3000   42.9310 C   0  0  0  0  0  0  0  0  0  0  0  0
   41.0270   30.1530   42.5540 C   0  0  0  0  0  0  0  0  0  0  0  0
   40.4360   30.1030   41.3060 C   0  0  0  0  0  0  0  0  0  0  0  0
   40.9460   29.1620   40.4820 N   0  0  0  0  0  0  0  0  0  0  0  0
   41.9450   28.3350   40.8310 C   0  0  0  0  0  0  0  0  0  0  0  0
   42.4970   28.4050   42.0460 N   0  0  0  0  0  0  0  0  0  0  0  0
   42.4590   29.4150   43.9190 H   0  0  0  0  0  0  0  0  0  0  0  0
   40.6670   30.8840   43.2660 H   0  0  0  0  0  0  0  0  0  0  0  0
   42.3160   27.6050   40.1440 H   0  0  0  0  0  0  0  0  0  0  0  0
  1  2  1  0  0  0  0
  2  3  1  0  0  0  0
  3  4  2  0  0  0  0
  3 28  1  0  0  0  0
  4 12  1  0  0  0  0
  5  8  1  0  0  0  0
  5  4  1  0  0  0  0
  6  5  2  0  0  0  0
  7  6  1  0  0  0  0
  7  2  2  0  0  0  0
  9  6  1  0  0  0  0
 10  7  1  0  0  0  0
 11 16  2  0  0  0  0
 11 12  1  0  0  0  0
 12 13  2  0  0  0  0
 13 17  1  0  0  0  0
 13 14  1  0  0  0  0
 14 18  1  0  0  0  0
 15 19  1  0  0  0  0
 15 14  2  0  0  0  0
 16 15  1  0  0  0  0
 20 16  1  0  0  0  0
 21 11  1  0  0  0  0
 22 21  2  0  0  0  0
 23 21  2  0  0  0  0
 24 21  1  0  0  0  0
 25 24  1  0  0  0  0
 26 32  1  0  0  0  0
 27 26  1  0  0  0  0
 27 33  1  0  0  0  0
 28 27  2  0  0  0  0
 29 30  2  0  0  0  0
 29 28  1  0  0  0  0
 30 31  1  0  0  0  0
 31 26  2  0  0  0  0
 34 30  1  0  0  0  0
M  END
>  <minimizedAffinity>
-5.13457108

$$$$

 OpenBabel03252509093D

 34 36  0  0  0  0  0  0  0  0999 V2000
   38.9230   24.9990   42.7670 Cl  0  0  0  0  0  0  0  0  0  0  0  0
   38.3020   26.6050   42.5260 C   0  0  0  0  0  0  0  0  0  0  0  0
   37.7820   26.9800   41.3350 C   0  0  0  0  0  0  0  0  0  0  0  0
   37.3080   28.2860   41.2520 C   0  0  0  0  0  0  0  0  0  0  0  0
   37.3610   29.1580   42.3110 C   0  0  0  0  0  0  0  0  0  0  0  0
   37.8890   28.7550   43.4950 C   0  0  0  0  0  0  0  0  0  0  0  0
   38.3600   27.4680   43.5960 C   0  0  0  0  0  0  0  0  0  0  0  0
   36.9780   30.1710   42.1920 H   0  0  0  0  0  0  0  0  0  0  0  0
   37.9230   29.4600   44.3250 H   0  0  0  0  0  0  0  0  0  0  0  0
   38.7760   27.1900   44.5710 H   0  0  0  0  0  0  0  0  0  0  0  0
   37.3780   29.4760   39.0520 C   0  0  0  0  0  0  0  0  0  0  0  0
   36.7280   28.7400   39.9960 C   0  0  0  0  0  0  0  0  0  0  0  0
   35.4120   28.3860   39.7610 C   0  0  0  0  0  0  0  0  0  0  0  0
   34.7830   28.7710   38.5980 C   0  0  0  0  0  0  0  0  0  0  0  0
   35.4390   29.5210   37.6260 C   0  0  0  0  0  0  0  0  0  0  0  0
   36.7620   29.8730   37.8750 C   0  0  0  0  0  0  0  0  0  0  0  0
   34.8370   27.8010   40.4740 H   0  0  0  0  0  0  0  0  0  0  0  0
   33.7540   28.4800   38.4410 H   0  0  0  0  0  0  0  0  0  0  0  0
   34.9370   29.8100   36.7330 H   0  0  0  0  0  0  0  0  0  0  0  0
   37.2670   30.4530   37.1250 H   0  0  0  0  0  0  0  0  0  0  0  0
   39.0000   29.9140   39.2630 S   0  0  0  0  0  0  0  0  0  0  0  0
   39.9250   28.7150   39.2840 O   0  0  0  0  0  0  0  0  0  0  0  0
   39.3890   30.6490   37.9510 O   0  0  0  0  0  0  0  0  0  0  0  0
   39.5940   30.9660   40.4520 C   0  0  0  0  0  2  0  0  0  0  0  0
   39.3950   32.0400   40.4240 H   0  0  0  0  0  0  0  0  0  0  0  0
   36.6400   24.2710   38.9730 C   0  0  0  0  0  0  0  0  0  0  0  0
   36.6720   25.1780   40.0320 C   0  0  0  0  0  0  0  0  0  0  0  0
   37.7360   26.0340   40.2490 C   0  0  0  0  0  0  0  0  0  0  0  0
   38.7390   25.9180   39.3530 N   0  0  0  0  0  0  0  0  0  0  0  0
   38.7220   25.0490   38.3290 C   0  0  0  0  0  0  0  0  0  0  0  0
   37.6790   24.2350   38.1430 N   0  0  0  0  0  0  0  0  0  0  0  0
   35.7730   23.6500   38.8870 H   0  0  0  0  0  0  0  0  0  0  0  0
   35.8320   25.2170   40.7130 H   0  0  0  0  0  0  0  0  0  0  0  0
   39.5410   24.9940   37.6440 H   0  0  0  0  0  0  0  0  0  0  0  0
  2  1  1  0  0  0  0
  2  7  1  0  0  0  0
  3  2  2  0  0  0  0
  4  3  1  0  0  0  0
  4  5  2  0  0  0  0
  5  6  1  0  0  0  0
  6  7  2  0  0  0  0
  6  9  1  0  0  0  0
  7 10  1  0  0  0  0
  8  5  1  0  0  0  0
 11 21  1  0  0  0  0
 11 12  1  0  0  0  0
 12  4  1  0  0  0  0
 13 12  2  0  0  0  0
 13 17  1  0  0  0  0
 14 13  1  0  0  0  0
 15 16  1  0  0  0  0
 15 14  2  0  0  0  0
 16 11  2  0  0  0  0
 18 14  1  0  0  0  0
 19 15  1  0  0  0  0
 20 16  1  0  0  0  0
 21 22  2  0  0  0  0
 21 24  1  0  0  0  0
 23 21  2  0  0  0  0
 25 24  1  0  0  0  0
 26 27  1  0  0  0  0
 27 28  2  0  0  0  0
 27 33  1  0  0  0  0
 28  3  1  0  0  0  0
 29 28  1  0  0  0  0
 30 29  2  0  0  0  0
 31 30  1  0  0  0  0
 31 26  2  0  0  0  0
 32 26  1  0  0  0  0
 34 30  1  0  0  0  0
M  END
>  <minimizedAffinity>
-5.10325766

$$$$

 OpenBabel03252509093D

 34 36  0  0  0  0  0  0  0  0999 V2000
   36.0190   29.4520   36.6290 Cl  0  0  0  0  0  0  0  0  0  0  0  0
   36.1610   28.0990   37.7110 C   0  0  0  0  0  0  0  0  0  0  0  0
   36.7230   28.2400   38.9340 C   0  0  0  0  0  0  0  0  0  0  0  0
   36.7830   27.0950   39.7220 C   0  0  0  0  0  0  0  0  0  0  0  0
   36.3040   25.8810   39.2960 C   0  0  0  0  0  0  0  0  0  0  0  0
   35.7460   25.7680   38.0630 C   0  0  0  0  0  0  0  0  0  0  0  0
   35.6770   26.8890   37.2710 C   0  0  0  0  0  0  0  0  0  0  0  0
   36.3780   25.0140   39.9520 H   0  0  0  0  0  0  0  0  0  0  0  0
   35.3710   24.7970   37.7410 H   0  0  0  0  0  0  0  0  0  0  0  0
   35.2180   26.7470   36.2860 H   0  0  0  0  0  0  0  0  0  0  0  0
   38.6340   26.8100   41.3810 C   0  0  0  0  0  0  0  0  0  0  0  0
   37.3680   27.1910   41.0520 C   0  0  0  0  0  0  0  0  0  0  0  0
   36.5600   27.7140   42.0450 C   0  0  0  0  0  0  0  0  0  0  0  0
   37.0320   27.8440   43.3320 C   0  0  0  0  0  0  0  0  0  0  0  0
   38.3240   27.4590   43.6790 C   0  0  0  0  0  0  0  0  0  0  0  0
   39.1270   26.9330   42.6710 C   0  0  0  0  0  0  0  0  0  0  0  0
   35.5410   28.0350   41.8470 H   0  0  0  0  0  0  0  0  0  0  0  0
   36.3790   28.2560   44.0870 H   0  0  0  0  0  0  0  0  0  0  0  0
   38.6730   27.5670   44.6790 H   0  0  0  0  0  0  0  0  0  0  0  0
   40.1230   26.6360   42.9410 H   0  0  0  0  0  0  0  0  0  0  0  0
   39.6850   26.1940   40.2060 S   0  0  0  0  0  0  0  0  0  0  0  0
   39.9890   27.2010   39.1160 O   0  0  0  0  0  0  0  0  0  0  0  0
   41.0460   26.0270   40.9360 O   0  0  0  0  0  0  0  0  0  0  0  0
   39.5190   24.7050   39.4140 C   0  0  0  0  0  2  0  0  0  0  0  0
   39.6760   23.7550   39.9310 H   0  0  0  0  0  0  0  0  0  0  0  0
   36.9030   31.7120   40.3960 C   0  0  0  0  0  0  0  0  0  0  0  0
   36.4190   30.4660   39.9940 C   0  0  0  0  0  0  0  0  0  0  0  0
   37.2070   29.5320   39.3490 C   0  0  0  0  0  0  0  0  0  0  0  0
   38.4820   29.9250   39.1400 N   0  0  0  0  0  0  0  0  0  0  0  0
   38.9610   31.1200   39.5200 C   0  0  0  0  0  0  0  0  0  0  0  0
   38.1760   32.0040   40.1440 N   0  0  0  0  0  0  0  0  0  0  0  0
   36.2160   32.3680   40.8890 H   0  0  0  0  0  0  0  0  0  0  0  0
   35.3840   30.2180   40.1950 H   0  0  0  0  0  0  0  0  0  0  0  0
   39.9800   31.3870   39.3330 H   0  0  0  0  0  0  0  0  0  0  0  0
  1  2  1  0  0  0  0
  2  3  1  0  0  0  0
  3 28  1  0  0  0  0
  3  4  2  0  0  0  0
  4 12  1  0  0  0  0
  5  4  1  0  0  0  0
  5  8  1  0  0  0  0
  6  5  2  0  0  0  0
  7  2  2  0  0  0  0
  7  6  1  0  0  0  0
  9  6  1  0  0  0  0
 10  7  1  0  0  0  0
 11 16  1  0  0  0  0
 12 11  2  0  0  0  0
 12 13  1  0  0  0  0
 13 14  2  0  0  0  0
 14 15  1  0  0  0  0
 14 18  1  0  0  0  0
 15 19  1  0  0  0  0
 16 20  1  0  0  0  0
 16 15  2  0  0  0  0
 17 13  1  0  0  0  0
 21 23  2  0  0  0  0
 21 11  1  0  0  0  0
 22 21  2  0  0  0  0
 24 25  1  0  0  0  0
 24 21  1  0  0  0  0
 26 32  1  0  0  0  0
 27 33  1  0  0  0  0
 27 26  2  0  0  0  0
 28 27  1  0  0  0  0
 29 28  2  0  0  0  0
 29 30  1  0  0  0  0
 30 31  2  0  0  0  0
 31 26  1  0  0  0  0
 34 30  1  0  0  0  0
M  END
>  <minimizedAffinity>
-5.1005826

$$$$

 OpenBabel03252509093D

 34 36  0  0  0  0  0  0  0  0999 V2000
   37.9370   23.7460   38.3990 Cl  0  0  0  0  0  0  0  0  0  0  0  0
   37.5460   24.6610   39.8250 C   0  0  0  0  0  0  0  0  0  0  0  0
   37.4320   26.0080   39.7810 C   0  0  0  0  0  0  0  0  0  0  0  0
   37.1120   26.6410   40.9790 C   0  0  0  0  0  0  0  0  0  0  0  0
   36.9210   25.9490   42.1490 C   0  0  0  0  0  0  0  0  0  0  0  0
   37.0430   24.5970   42.1650 C   0  0  0  0  0  0  0  0  0  0  0  0
   37.3580   23.9550   40.9910 C   0  0  0  0  0  0  0  0  0  0  0  0
   36.6740   26.4940   43.0600 H   0  0  0  0  0  0  0  0  0  0  0  0
   36.8890   24.0640   43.1030 H   0  0  0  0  0  0  0  0  0  0  0  0
   37.4450   22.8640   41.0560 H   0  0  0  0  0  0  0  0  0  0  0  0
   37.9120   28.9710   41.4130 C   0  0  0  0  0  0  0  0  0  0  0  0
   36.9650   28.0890   40.9860 C   0  0  0  0  0  0  0  0  0  0  0  0
   35.7640   28.5900   40.5200 C   0  0  0  0  0  0  0  0  0  0  0  0
   35.5390   29.9480   40.4890 C   0  0  0  0  0  0  0  0  0  0  0  0
   36.5000   30.8580   40.9210 C   0  0  0  0  0  0  0  0  0  0  0  0
   37.7050   30.3420   41.3900 C   0  0  0  0  0  0  0  0  0  0  0  0
   34.9680   27.9400   40.1670 H   0  0  0  0  0  0  0  0  0  0  0  0
   34.5910   30.3120   40.1200 H   0  0  0  0  0  0  0  0  0  0  0  0
   36.3100   31.9050   40.8900 H   0  0  0  0  0  0  0  0  0  0  0  0
   38.4450   31.0440   41.7230 H   0  0  0  0  0  0  0  0  0  0  0  0
   39.4170   28.4250   41.9630 S   0  0  0  0  0  0  0  0  0  0  0  0
   40.2320   27.7700   40.8680 O   0  0  0  0  0  0  0  0  0  0  0  0
   40.2160   29.7160   42.2870 O   0  0  0  0  0  0  0  0  0  0  0  0
   39.6810   27.4840   43.3490 C   0  0  0  0  0  2  0  0  0  0  0  0
   39.5540   27.8900   44.3550 H   0  0  0  0  0  0  0  0  0  0  0  0
   36.8230   27.6040   36.4190 C   0  0  0  0  0  0  0  0  0  0  0  0
   36.6160   26.9290   37.6220 C   0  0  0  0  0  0  0  0  0  0  0  0
   37.6310   26.6980   38.5320 C   0  0  0  0  0  0  0  0  0  0  0  0
   38.8370   27.1770   38.1590 N   0  0  0  0  0  0  0  0  0  0  0  0
   39.0510   27.8270   37.0030 C   0  0  0  0  0  0  0  0  0  0  0  0
   38.0500   28.0380   36.1430 N   0  0  0  0  0  0  0  0  0  0  0  0
   35.9750   27.7350   35.7790 H   0  0  0  0  0  0  0  0  0  0  0  0
   35.6220   26.5720   37.8570 H   0  0  0  0  0  0  0  0  0  0  0  0
   40.0250   28.1890   36.7510 H   0  0  0  0  0  0  0  0  0  0  0  0
  1  2  1  0  0  0  0
  2  7  1  0  0  0  0
  3  2  2  0  0  0  0
  3  4  1  0  0  0  0
  4 12  1  0  0  0  0
  4  5  2  0  0  0  0
  5  6  1  0  0  0  0
  5  8  1  0  0  0  0
  6  9  1  0  0  0  0
  7 10  1  0  0  0  0
  7  6  2  0  0  0  0
 11 21  1  0  0  0  0
 12 11  2  0  0  0  0
 13 12  1  0  0  0  0
 14 13  2  0  0  0  0
 14 15  1  0  0  0  0
 15 16  2  0  0  0  0
 16 11  1  0  0  0  0
 16 20  1  0  0  0  0
 17 13  1  0  0  0  0
 18 14  1  0  0  0  0
 19 15  1  0  0  0  0
 21 23  2  0  0  0  0
 21 24  1  0  0  0  0
 22 21  2  0  0  0  0
 24 25  1  0  0  0  0
 26 27  1  0  0  0  0
 27 33  1  0  0  0  0
 27 28  2  0  0  0  0
 28  3  1  0  0  0  0
 29 28  1  0  0  0  0
 30 29  2  0  0  0  0
 31 26  2  0  0  0  0
 31 30  1  0  0  0  0
 32 26  1  0  0  0  0
 34 30  1  0  0  0  0
M  END
>  <minimizedAffinity>
-5.06451368

$$$$

 OpenBabel03252509093D

 34 36  0  0  0  0  0  0  0  0999 V2000
   40.8250   27.6260   43.6410 Cl  0  0  0  0  0  0  0  0  0  0  0  0
   39.2570   27.9960   42.9870 C   0  0  0  0  0  0  0  0  0  0  0  0
   39.1060   28.9330   42.0230 C   0  0  0  0  0  0  0  0  0  0  0  0
   37.8080   29.1470   41.5670 C   0  0  0  0  0  0  0  0  0  0  0  0
   36.7310   28.4550   42.0610 C   0  0  0  0  0  0  0  0  0  0  0  0
   36.9110   27.5210   43.0290 C   0  0  0  0  0  0  0  0  0  0  0  0
   38.1860   27.2950   43.4910 C   0  0  0  0  0  0  0  0  0  0  0  0
   35.7350   28.6630   41.6710 H   0  0  0  0  0  0  0  0  0  0  0  0
   36.0440   26.9810   43.4100 H   0  0  0  0  0  0  0  0  0  0  0  0
   38.2790   26.5320   44.2720 H   0  0  0  0  0  0  0  0  0  0  0  0
   37.4090   29.8540   39.2010 C   0  0  0  0  0  0  0  0  0  0  0  0
   37.5900   30.1360   40.5220 C   0  0  0  0  0  0  0  0  0  0  0  0
   37.5650   31.4600   40.9190 C   0  0  0  0  0  0  0  0  0  0  0  0
   37.3620   32.4620   39.9970 C   0  0  0  0  0  0  0  0  0  0  0  0
   37.1750   32.1850   38.6460 C   0  0  0  0  0  0  0  0  0  0  0  0
   37.2030   30.8490   38.2570 C   0  0  0  0  0  0  0  0  0  0  0  0
   37.7040   31.7510   41.9570 H   0  0  0  0  0  0  0  0  0  0  0  0
   37.3480   33.4880   40.3370 H   0  0  0  0  0  0  0  0  0  0  0  0
   37.0180   32.9720   37.9470 H   0  0  0  0  0  0  0  0  0  0  0  0
   37.0580   30.6370   37.2150 H   0  0  0  0  0  0  0  0  0  0  0  0
   37.3930   28.2520   38.6530 S   0  0  0  0  0  0  0  0  0  0  0  0
   36.0660   27.5670   38.9030 O   0  0  0  0  0  0  0  0  0  0  0  0
   37.4590   28.3600   37.1050 O   0  0  0  0  0  0  0  0  0  0  0  0
   38.5760   27.0830   38.9810 C   0  0  0  0  0  2  0  0  0  0  0  0
   39.5760   27.1350   38.5440 H   0  0  0  0  0  0  0  0  0  0  0  0
   42.0920   29.9130   39.9390 C   0  0  0  0  0  0  0  0  0  0  0  0
   40.9780   29.2220   40.4140 C   0  0  0  0  0  0  0  0  0  0  0  0
   40.2620   29.6320   41.5240 C   0  0  0  0  0  0  0  0  0  0  0  0
   40.7330   30.7540   42.1090 N   0  0  0  0  0  0  0  0  0  0  0  0
   41.8050   31.4290   41.6640 C   0  0  0  0  0  0  0  0  0  0  0  0
   42.4770   31.0100   40.5870 N   0  0  0  0  0  0  0  0  0  0  0  0
   42.5810   29.5180   39.0730 H   0  0  0  0  0  0  0  0  0  0  0  0
   40.6560   28.3290   39.8950 H   0  0  0  0  0  0  0  0  0  0  0  0
   42.1400   32.3150   42.1610 H   0  0  0  0  0  0  0  0  0  0  0  0
  2  7  1  0  0  0  0
  2  1  1  0  0  0  0
  3  2  2  0  0  0  0
  4  3  1  0  0  0  0
  4  5  2  0  0  0  0
  5  6  1  0  0  0  0
  6  9  1  0  0  0  0
  6  7  2  0  0  0  0
  7 10  1  0  0  0  0
  8  5  1  0  0  0  0
 11 12  1  0  0  0  0
 12 13  2  0  0  0  0
 12  4  1  0  0  0  0
 13 17  1  0  0  0  0
 14 18  1  0  0  0  0
 14 13  1  0  0  0  0
 15 14  2  0  0  0  0
 16 15  1  0  0  0  0
 16 11  2  0  0  0  0
 19 15  1  0  0  0  0
 20 16  1  0  0  0  0
 21 22  2  0  0  0  0
 21 24  1  0  0  0  0
 21 11  1  0  0  0  0
 23 21  2  0  0  0  0
 25 24  1  0  0  0  0
 26 27  2  0  0  0  0
 26 31  1  0  0  0  0
 27 28  1  0  0  0  0
 28  3  1  0  0  0  0
 28 29  2  0  0  0  0
 30 29  1  0  0  0  0
 30 34  1  0  0  0  0
 31 30  2  0  0  0  0
 32 26  1  0  0  0  0
 33 27  1  0  0  0  0
M  END
>  <minimizedAffinity>
-5.03848219

$$$$
