
 OpenBabel03242513583D

 34 37  0  0  0  0  0  0  0  0999 V2000
   45.1300   35.5500   42.4940 O   0  0  0  0  0  0  0  0  0  0  0  0
   44.2170   35.1280   41.5340 C   0  0  0  0  0  0  0  0  0  0  0  0
   44.4720   34.2880   40.4740 C   0  0  0  0  0  0  0  0  0  0  0  0
   43.4610   33.9640   39.6110 C   0  0  0  0  0  0  0  0  0  0  0  0
   42.1730   34.4400   39.7450 C   0  0  0  0  0  0  0  0  0  0  0  0
   41.2310   34.0840   38.8670 N   0  0  0  0  0  0  0  0  0  0  0  0
   39.9610   34.5470   38.9890 C   0  0  0  0  0  0  0  0  0  0  0  0
   39.6750   35.3930   40.0470 C   0  0  0  0  0  0  0  0  0  0  0  0
   40.6600   35.7650   40.9650 C   0  0  0  0  0  0  0  0  0  0  0  0
   41.9420   35.2750   40.8090 C   0  0  0  0  0  0  0  0  0  0  0  0
   42.9420   35.6390   41.7230 C   0  0  0  0  0  0  0  0  0  0  0  0
   45.4870   33.9270   40.3860 H   0  0  0  0  0  0  0  0  0  0  0  0
   43.7590   33.2950   38.8040 H   0  0  0  0  0  0  0  0  0  0  0  0
   39.2460   34.2250   38.2510 H   0  0  0  0  0  0  0  0  0  0  0  0
   38.6630   35.7190   40.0870 H   0  0  0  0  0  0  0  0  0  0  0  0
   40.3800   36.4280   41.7710 H   0  0  0  0  0  0  0  0  0  0  0  0
   42.6390   36.2930   42.5070 H   0  0  0  0  0  0  0  0  0  0  0  0
   44.8120   35.0110   44.8730 C   0  0  0  0  0  0  0  0  0  0  0  0
   45.4480   34.8540   43.6440 C   0  0  0  0  0  0  0  0  0  0  0  0
   46.4950   33.9120   43.5700 C   0  0  0  0  0  0  0  0  0  0  0  0
   46.8160   33.2270   44.6790 N   0  0  0  0  0  0  0  0  0  0  0  0
   46.1810   33.3980   45.8620 C   0  0  0  0  0  0  0  0  0  0  0  0
   45.1730   34.3050   45.9340 N   0  0  0  0  0  0  0  0  0  0  0  0
   43.9990   35.7510   44.8990 H   0  0  0  0  0  0  0  0  0  0  0  0
   47.0000   33.7710   42.6410 H   0  0  0  0  0  0  0  0  0  0  0  0
   46.5030   32.6750   47.0750 C   0  0  0  0  0  0  0  0  0  0  0  0
   45.5370   32.4550   48.0650 C   0  0  0  0  0  0  0  0  0  0  0  0
   46.1410   31.7420   49.0960 C   0  0  0  0  0  0  0  0  0  0  0  0
   47.4200   31.5540   48.7150 N   0  0  0  0  0  0  0  0  0  0  0  0
   47.6070   32.1130   47.5210 N   0  0  0  0  0  0  0  0  0  0  0  0
   44.4800   32.7690   48.0710 H   0  0  0  0  0  0  0  0  0  0  0  0
   45.6400   31.4210   50.0110 H   0  0  0  0  0  0  0  0  0  0  0  0
   48.4170   30.8490   49.5000 C   0  0  0  0  0  0  0  0  0  0  0  0
   48.2140   30.9500   50.5750 H   0  0  0  0  0  0  0  0  0  0  0  0
  1 19  1  0  0  0  0
  2 11  1  0  0  0  0
  2  1  1  0  0  0  0
  3  2  2  0  0  0  0
  4  5  2  0  0  0  0
  4  3  1  0  0  0  0
  5 10  1  0  0  0  0
  6  7  2  0  0  0  0
  6  5  1  0  0  0  0
  7  8  1  0  0  0  0
  8 15  1  0  0  0  0
  8  9  2  0  0  0  0
  9 16  1  0  0  0  0
 10  9  1  0  0  0  0
 10 11  2  0  0  0  0
 11 17  1  0  0  0  0
 12  3  1  0  0  0  0
 13  4  1  0  0  0  0
 14  7  1  0  0  0  0
 18 24  1  0  0  0  0
 18 23  1  0  0  0  0
 19 18  2  0  0  0  0
 20 19  1  0  0  0  0
 20 21  2  0  0  0  0
 21 22  1  0  0  0  0
 22 23  2  0  0  0  0
 22 26  1  0  0  0  0
 25 20  1  0  0  0  0
 26 30  2  0  0  0  0
 26 27  1  0  0  0  0
 27 31  1  0  0  0  0
 27 28  2  0  0  0  0
 28 32  1  0  0  0  0
 29 28  1  0  0  0  0
 29 33  1  0  0  0  0
 30 29  1  0  0  0  0
 33 34  1  0  0  0  0
M  END
>  <minimizedAffinity>
-6.75484943

>  <minimizedRMSD>
0.564292669

$$$$
