
 OpenBabel03252506143D

 32 33  0  0  0  0  0  0  0  0999 V2000
   45.4720   33.4230   41.2020 F   0  0  0  0  0  0  0  0  0  0  0  0
   46.5910   34.1240   41.1210 C   0  0  0  0  0  0  0  0  0  0  0  0
   46.9610   34.8950   42.2020 C   0  0  0  0  0  0  0  0  0  0  0  0
   48.1320   35.6770   42.2230 C   0  0  0  0  0  0  0  0  0  0  0  0
   48.9620   35.6720   41.0910 C   0  0  0  0  0  0  0  0  0  0  0  0
   48.5500   34.8870   40.0370 C   0  0  0  0  0  0  0  0  0  0  0  0
   47.4290   34.1360   40.0080 C   0  0  0  0  0  0  0  0  0  0  0  0
   48.3620   36.2620   43.1130 H   0  0  0  0  0  0  0  0  0  0  0  0
   49.8470   36.2870   41.1550 H   0  0  0  0  0  0  0  0  0  0  0  0
   49.2910   34.9770   39.2390 H   0  0  0  0  0  0  0  0  0  0  0  0
   45.5350   33.9170   45.4350 C   0  0  0  0  0  0  0  0  0  0  0  0
   44.6170   34.9640   45.6770 C   0  0  0  0  0  0  0  0  0  0  0  0
   44.4910   36.0170   44.7110 C   0  0  0  0  0  0  0  0  0  0  0  0
   45.2860   35.9310   43.6030 N   0  0  0  0  0  0  0  0  0  0  0  0
   46.1340   34.9330   43.4130 C   0  0  0  0  0  0  0  0  0  0  0  0
   46.2590   33.9340   44.3200 N   0  0  0  0  0  0  0  0  0  0  0  0
   44.0130   34.9830   46.5690 H   0  0  0  0  0  0  0  0  0  0  0  0
   43.8100   36.8220   44.8610 H   0  0  0  0  0  0  0  0  0  0  0  0
   45.6260   32.9130   46.4010 N   0  0  0  0  0  0  0  0  0  0  0  0
   45.3890   33.0180   47.4060 H   0  0  0  0  0  0  0  0  0  0  0  0
   45.9550   31.9570   46.1320 H   0  0  0  0  0  0  0  0  0  0  0  0
   47.1230   33.3960   38.9030 O   0  0  0  0  0  0  0  0  0  0  0  0
   48.1420   34.7200   36.8520 O   0  0  0  0  0  0  0  0  0  0  0  0
   47.9730   33.3420   37.4610 P   0  0  2  0  0  0  0  0  0  0  0  0
   47.1100   32.3620   36.3430 O   0  0  0  0  0  0  0  0  0  0  0  0
   47.9360   32.3710   35.1960 C   0  0  0  0  0  0  0  0  0  0  0  0
   48.1200   33.4220   34.8470 H   0  0  0  0  0  0  0  0  0  0  0  0
   49.4800   32.6130   37.5960 O   0  0  0  0  0  0  0  0  0  0  0  0
   49.4170   31.5010   38.4670 C   0  0  0  0  0  0  0  0  0  0  0  0
   50.4260   30.6530   38.0080 F   0  0  0  0  0  0  0  0  0  0  0  0
   49.7550   31.8810   39.7490 F   0  0  0  0  0  0  0  0  0  0  0  0
   48.1950   30.9000   38.5030 F   0  0  0  0  0  0  0  0  0  0  0  0
  2  1  1  0  0  0  0
  2  3  1  0  0  0  0
  3  4  2  0  0  0  0
  3 15  1  0  0  0  0
  4  8  1  0  0  0  0
  5  9  1  0  0  0  0
  5  4  1  0  0  0  0
  6  5  2  0  0  0  0
  7  6  1  0  0  0  0
  7  2  2  0  0  0  0
 10  6  1  0  0  0  0
 11 12  1  0  0  0  0
 11 19  1  0  0  0  0
 12 17  1  0  0  0  0
 13 18  1  0  0  0  0
 13 12  2  0  0  0  0
 14 13  1  0  0  0  0
 15 14  2  0  0  0  0
 15 16  1  0  0  0  0
 16 11  2  0  0  0  0
 19 20  1  0  0  0  0
 21 19  1  0  0  0  0
 22  7  1  0  0  0  0
 24 23  2  6  0  0  0
 24 28  1  0  0  0  0
 24 22  1  0  0  0  0
 25 24  1  0  0  0  0
 26 25  1  0  0  0  0
 27 26  1  0  0  0  0
 28 29  1  0  0  0  0
 29 32  1  0  0  0  0
 29 31  1  0  0  0  0
 30 29  1  0  0  0  0
M  END
>  <minimizedAffinity>
-5.42630148

>  <minimizedRMSD>
1.52565765

$$$$
