
 OpenBabel03252508593D

 38 39  0  0  1  0  0  0  0  0999 V2000
   47.1680   34.1640   43.0820 N   0  0  0  0  0  0  0  0  0  0  0  0
   46.6500   35.3520   42.5130 C   0  0  0  0  0  0  0  0  0  0  0  0
   45.1710   35.5760   42.7230 C   0  0  0  0  0  0  0  0  0  0  0  0
   44.6430   35.0450   44.0320 C   0  0  0  0  0  0  0  0  0  0  0  0
   45.7480   34.4800   44.8920 C   0  0  0  0  0  0  0  0  0  0  0  0
   46.4180   33.4020   43.9620 C   0  0  2  0  0  0  0  0  0  0  0  0
   47.1430   36.2000   43.0480 H   0  0  0  0  0  0  0  0  0  0  0  0
   46.8600   35.5170   41.4550 H   0  0  0  0  0  0  0  0  0  0  0  0
   44.6690   35.0580   41.8650 H   0  0  0  0  0  0  0  0  0  0  0  0
   44.9680   36.6620   42.5750 H   0  0  0  0  0  0  0  0  0  0  0  0
   44.0560   35.8300   44.5130 H   0  0  0  0  0  0  0  0  0  0  0  0
   43.9450   34.1940   43.8230 H   0  0  0  0  0  0  0  0  0  0  0  0
   45.3200   33.9660   45.7580 H   0  0  0  0  0  0  0  0  0  0  0  0
   46.5090   35.2380   45.1180 H   0  0  0  0  0  0  0  0  0  0  0  0
   45.5980   32.7890   43.5230 H   0  0  0  0  0  0  0  0  0  0  0  0
   48.1540   33.5060   42.2670 C   0  0  0  0  0  0  0  0  0  0  0  0
   48.9140   32.9490   42.8800 H   0  0  0  0  0  0  0  0  0  0  0  0
   48.7320   34.3110   41.7630 H   0  0  0  0  0  0  0  0  0  0  0  0
   47.4610   32.6530   41.2620 C   0  0  0  0  0  0  0  0  0  0  0  0
   47.5980   31.6020   41.5120 H   0  0  0  0  0  0  0  0  0  0  0  0
   46.3590   32.8300   41.2570 H   0  0  0  0  0  0  0  0  0  0  0  0
   49.3370   32.2730   38.0290 C   0  0  0  0  0  0  0  0  0  0  0  0
   48.8160   32.0190   39.3110 C   0  0  0  0  0  0  0  0  0  0  0  0
   48.0000   32.9420   39.9090 C   0  0  0  0  0  0  0  0  0  0  0  0
   47.7350   34.0660   39.2320 N   0  0  0  0  0  0  0  0  0  0  0  0
   48.2300   34.3140   38.0090 C   0  0  0  0  0  0  0  0  0  0  0  0
   49.0330   33.4290   37.3930 N   0  0  0  0  0  0  0  0  0  0  0  0
   49.9880   31.5580   37.5280 H   0  0  0  0  0  0  0  0  0  0  0  0
   49.1020   31.0780   39.7520 H   0  0  0  0  0  0  0  0  0  0  0  0
   47.9520   35.2650   37.5400 H   0  0  0  0  0  0  0  0  0  0  0  0
   47.2160   32.7140   44.8620 O   0  0  0  0  0  0  0  0  0  0  0  0
   46.0400   30.5400   43.8790 O   0  0  0  0  0  0  0  0  0  0  0  0
   46.6830   31.1440   45.1360 P   0  0  2  0  0  0  0  0  0  0  0  0
   45.4010   31.2630   46.2640 O   0  0  0  0  0  0  0  0  0  0  0  0
   45.8170   31.4780   47.1470 H   0  0  0  0  0  0  0  0  0  0  0  0
   47.8540   30.1550   45.7850 O   0  0  0  0  0  0  0  0  0  0  0  0
   47.7440   28.8900   45.2140 C   0  0  0  0  0  2  0  0  0  0  0  0
   48.7270   28.5980   44.7880 H   0  0  0  0  0  0  0  0  0  0  0  0
  1  6  1  0  0  0  0
  2  3  1  0  0  0  0
  2  7  1  0  0  0  0
  2  1  1  0  0  0  0
  3  4  1  0  0  0  0
  4 11  1  0  0  0  0
  4  5  1  0  0  0  0
  5 14  1  0  0  0  0
  5 13  1  0  0  0  0
  6 15  1  6  0  0  0
  6 31  1  0  0  0  0
  6  5  1  0  0  0  0
  8  2  1  0  0  0  0
  9  3  1  0  0  0  0
 10  3  1  0  0  0  0
 12  4  1  0  0  0  0
 16 17  1  0  0  0  0
 16  1  1  0  0  0  0
 18 16  1  0  0  0  0
 19 20  1  0  0  0  0
 19 16  1  0  0  0  0
 21 19  1  0  0  0  0
 22 23  1  0  0  0  0
 23 29  1  0  0  0  0
 23 24  2  0  0  0  0
 24 19  1  0  0  0  0
 25 24  1  0  0  0  0
 26 25  2  0  0  0  0
 27 26  1  0  0  0  0
 27 22  2  0  0  0  0
 28 22  1  0  0  0  0
 30 26  1  0  0  0  0
 31 33  1  0  0  0  0
 33 32  2  6  0  0  0
 33 36  1  0  0  0  0
 33 34  1  0  0  0  0
 34 35  1  0  0  0  0
 37 36  1  0  0  0  0
 38 37  1  0  0  0  0
M  END
>  <minimizedAffinity>
-3.6773982

>  <minimizedRMSD>
0.0388173461

$$$$
