
 OpenBabel03252509303D

 20 20  0  0  0  0  0  0  0  0999 V2000
   47.0940   33.4690   42.8850 C   0  0  0  0  0  0  0  0  0  0  0  0
   46.5980   32.5530   42.5010 H   0  0  0  0  0  0  0  0  0  0  0  0
   47.1470   34.1620   42.0110 H   0  0  0  0  0  0  0  0  0  0  0  0
   45.2620   34.1140   46.0780 C   0  0  0  0  0  0  0  0  0  0  0  0
   46.1050   33.5150   45.1420 C   0  0  0  0  0  0  0  0  0  0  0  0
   46.2140   34.0790   43.8910 C   0  0  0  0  0  0  0  0  0  0  0  0
   45.4850   35.2170   43.6090 N   0  0  0  0  0  0  0  0  0  0  0  0
   44.6800   35.7690   44.5380 C   0  0  0  0  0  0  0  0  0  0  0  0
   44.5660   35.2310   45.7560 N   0  0  0  0  0  0  0  0  0  0  0  0
   45.2380   33.6040   47.0360 H   0  0  0  0  0  0  0  0  0  0  0  0
   46.6820   32.6270   45.3450 H   0  0  0  0  0  0  0  0  0  0  0  0
   44.1060   36.6770   44.2980 H   0  0  0  0  0  0  0  0  0  0  0  0
   48.3370   33.1880   43.4290 O   0  0  0  0  0  0  0  0  0  0  0  0
   50.4860   32.8450   41.9840 O   0  0  0  0  0  0  0  0  0  0  0  0
   49.4880   33.8720   42.3990 P   0  0  2  0  0  0  0  0  0  0  0  0
   50.1890   35.1690   43.2290 O   0  0  0  0  0  0  0  0  0  0  0  0
   50.9480   34.9060   43.7820 H   0  0  0  0  0  0  0  0  0  0  0  0
   48.6860   34.4290   41.0230 O   0  0  0  0  0  0  0  0  0  0  0  0
   48.9200   35.7860   40.7960 C   0  0  0  0  0  2  0  0  0  0  0  0
   49.9850   35.8910   40.5470 H   0  0  0  0  0  0  0  0  0  0  0  0
  1 13  1  0  0  0  0
  1  6  1  0  0  0  0
  2  1  1  0  0  0  0
  3  1  1  0  0  0  0
  4 10  1  0  0  0  0
  5 11  1  0  0  0  0
  5  4  2  0  0  0  0
  6  5  1  0  0  0  0
  7  6  2  0  0  0  0
  7  8  1  0  0  0  0
  8  9  2  0  0  0  0
  9  4  1  0  0  0  0
 12  8  1  0  0  0  0
 15 14  2  6  0  0  0
 15 16  1  0  0  0  0
 15 13  1  0  0  0  0
 16 17  1  0  0  0  0
 18 15  1  0  0  0  0
 19 18  1  0  0  0  0
 20 19  1  0  0  0  0
M  END
>  <minimizedAffinity>
-4.21902752

>  <minimizedRMSD>
0.508719921

$$$$
