
 OpenBabel03242520473D

 21 21  0  0  0  0  0  0  0  0999 V2000
   44.9060   35.1270   44.1520 C   0  0  0  0  0  0  0  0  0  0  0  0
   45.6910   35.3880   43.0190 C   0  0  0  0  0  0  0  0  0  0  0  0
   46.8800   34.6880   42.8710 C   0  0  0  0  0  0  0  0  0  0  0  0
   47.2380   33.7950   43.8070 N   0  0  0  0  0  0  0  0  0  0  0  0
   46.4560   33.5690   44.8900 C   0  0  0  0  0  0  0  0  0  0  0  0
   45.3150   34.2320   45.0420 N   0  0  0  0  0  0  0  0  0  0  0  0
   43.6740   35.8350   44.3290 N   0  0  0  0  0  0  0  0  0  0  0  0
   45.3380   36.1320   42.2910 H   0  0  0  0  0  0  0  0  0  0  0  0
   46.7740   32.8400   45.6270 H   0  0  0  0  0  0  0  0  0  0  0  0
   43.7220   36.8700   44.5370 H   0  0  0  0  0  0  0  0  0  0  0  0
   42.7400   35.4200   44.2710 H   0  0  0  0  0  0  0  0  0  0  0  0
   47.6480   34.9990   41.6800 C   0  0  0  0  0  0  0  0  0  0  0  0
   48.7290   35.6310   41.6530 O   0  0  0  0  0  0  0  0  0  0  0  0
   47.0190   34.4950   40.5330 O   0  0  0  0  0  0  0  0  0  0  0  0
   48.9470   32.7580   39.8820 O   0  0  0  0  0  0  0  0  0  0  0  0
   47.8500   33.6090   39.3370 P   0  0  1  0  0  0  0  0  0  0  0  0
   46.6860   32.5720   38.6410 O   0  0  0  0  0  0  0  0  0  0  0  0
   47.0450   31.6650   38.5380 H   0  0  0  0  0  0  0  0  0  0  0  0
   48.4150   34.6460   38.1490 O   0  0  0  0  0  0  0  0  0  0  0  0
   48.4590   34.0030   36.9100 C   0  0  0  0  0  0  0  0  0  0  0  0
   47.5410   34.2000   36.3020 H   0  0  0  0  0  0  0  0  0  0  0  0
  1  7  1  0  0  0  0
  1  6  1  0  0  0  0
  2  1  2  0  0  0  0
  3  2  1  0  0  0  0
  3  4  2  0  0  0  0
  4  5  1  0  0  0  0
  5  6  2  0  0  0  0
  5  9  1  0  0  0  0
  7 10  1  0  0  0  0
  8  2  1  0  0  0  0
 11  7  1  0  0  0  0
 12  3  1  0  0  0  0
 13 12  2  0  0  0  0
 14 12  1  0  0  0  0
 16 15  2  1  0  0  0
 16 14  1  0  0  0  0
 17 16  1  0  0  0  0
 18 17  1  0  0  0  0
 19 16  1  0  0  0  0
 20 19  1  0  0  0  0
 21 20  1  0  0  0  0
M  END
>  <minimizedAffinity>
-4.52944994

>  <minimizedRMSD>
0.815881968

$$$$
