
 OpenBabel03242510483D

 32 33  0  0  1  0  0  0  0  0999 V2000
   46.0960   34.8490   42.0180 C   0  0  1  0  0  0  0  0  0  0  0  0
   46.2460   34.0770   40.7690 C   0  0  2  0  0  0  0  0  0  0  0  0
   45.2050   33.1020   40.6320 O   0  0  0  0  0  0  0  0  0  0  0  0
   45.4900   32.1320   41.5990 C   0  0  0  0  0  0  0  0  0  0  0  0
   45.1990   32.6830   42.9810 C   0  0  1  0  0  0  0  0  0  0  0  0
   45.1420   34.1730   42.9960 C   0  0  1  0  0  0  0  0  0  0  0  0
   45.6710   35.8660   41.8480 H   0  0  0  0  0  0  0  0  0  0  0  0
   46.0620   34.7190   39.8690 H   0  0  0  0  0  0  0  0  0  0  0  0
   46.5290   31.7670   41.4980 H   0  0  0  0  0  0  0  0  0  0  0  0
   44.8300   31.2700   41.3380 H   0  0  0  0  0  0  0  0  0  0  0  0
   45.9970   32.3220   43.6440 H   0  0  0  0  0  0  0  0  0  0  0  0
   44.1100   34.5500   42.8530 H   0  0  0  0  0  0  0  0  0  0  0  0
   47.3450   35.0730   42.6340 O   0  0  0  0  0  0  0  0  0  0  0  0
   47.7770   35.8570   42.2440 H   0  0  0  0  0  0  0  0  0  0  0  0
   43.9280   32.1900   43.3260 O   0  0  0  0  0  0  0  0  0  0  0  0
   44.1020   31.5030   44.0420 H   0  0  0  0  0  0  0  0  0  0  0  0
   47.4690   33.3710   40.6140 O   0  0  0  0  0  0  0  0  0  0  0  0
   49.6480   32.4180   37.9320 C   0  0  0  0  0  0  0  0  0  0  0  0
   49.2190   33.2080   36.8640 C   0  0  0  0  0  0  0  0  0  0  0  0
   48.1540   34.0910   37.0770 C   0  0  0  0  0  0  0  0  0  0  0  0
   47.5940   34.1310   38.3150 N   0  0  0  0  0  0  0  0  0  0  0  0
   48.0140   33.3710   39.3230 C   0  0  0  0  0  0  0  0  0  0  0  0
   49.0470   32.5110   39.1290 N   0  0  0  0  0  0  0  0  0  0  0  0
   49.6470   33.1910   35.8830 H   0  0  0  0  0  0  0  0  0  0  0  0
   47.7760   34.7320   36.2880 H   0  0  0  0  0  0  0  0  0  0  0  0
   50.7900   31.4740   37.6920 C   0  0  0  0  0  0  0  0  0  0  0  0
   51.9910   32.0600   37.9550 F   0  0  0  0  0  0  0  0  0  0  0  0
   50.5750   30.3390   38.4580 F   0  0  0  0  0  0  0  0  0  0  0  0
   50.7150   31.0340   36.3430 F   0  0  0  0  0  0  0  0  0  0  0  0
   45.5050   34.6040   44.2900 O   0  0  0  0  0  0  0  0  0  0  0  0
   44.5990   35.5550   44.7570 C   0  0  0  0  0  0  0  0  0  0  0  0
   45.1920   36.3850   45.2110 H   0  0  0  0  0  0  0  0  0  0  0  0
  1  7  1  6  0  0  0
  1 13  1  0  0  0  0
  1  6  1  0  0  0  0
  2  8  1  6  0  0  0
  2  1  1  0  0  0  0
  3  2  1  0  0  0  0
  3  4  1  0  0  0  0
  4  5  1  0  0  0  0
  5  6  1  0  0  0  0
  5 15  1  0  0  0  0
  5 11  1  1  0  0  0
  6 12  1  6  0  0  0
  6 30  1  0  0  0  0
  9  4  1  0  0  0  0
 10  4  1  0  0  0  0
 14 13  1  0  0  0  0
 15 16  1  0  0  0  0
 17  2  1  0  0  0  0
 18 23  1  0  0  0  0
 19 20  1  0  0  0  0
 19 18  2  0  0  0  0
 20 21  2  0  0  0  0
 21 22  1  0  0  0  0
 22 17  1  0  0  0  0
 23 22  2  0  0  0  0
 24 19  1  0  0  0  0
 25 20  1  0  0  0  0
 26 18  1  0  0  0  0
 26 27  1  0  0  0  0
 26 28  1  0  0  0  0
 29 26  1  0  0  0  0
 30 31  1  0  0  0  0
 31 32  1  0  0  0  0
M  END
>  <minimizedAffinity>
-4.2320447

>  <minimizedRMSD>
0.681477308

$$$$
