
 OpenBabel03242523273D

 38 40  0  0  1  0  0  0  0  0999 V2000
   36.0430   28.2450   39.3480 C   0  0  0  0  0  0  0  0  0  0  0  0
   35.1420   28.7110   38.7210 O   0  0  0  0  0  0  0  0  0  0  0  0
   38.8880   28.5520   38.1620 Cl  0  0  0  0  0  0  0  0  0  0  0  0
   38.1110   29.8070   39.1150 C   0  0  0  0  0  0  0  0  0  0  0  0
   36.8030   29.5330   39.5800 C   0  0  0  0  0  0  0  0  0  0  0  0
   36.3180   30.5930   40.2960 C   0  0  0  0  0  0  0  0  0  0  0  0
   36.8580   31.7550   40.5960 C   0  0  0  0  0  0  0  0  0  0  0  0
   38.1360   31.9680   40.1170 C   0  0  0  0  0  0  0  0  0  0  0  0
   38.7600   31.0150   39.3860 C   0  0  0  0  0  0  0  0  0  0  0  0
   35.2760   30.4780   40.6980 H   0  0  0  0  0  0  0  0  0  0  0  0
   36.3750   32.5400   41.1840 H   0  0  0  0  0  0  0  0  0  0  0  0
   38.6160   32.9340   40.3530 H   0  0  0  0  0  0  0  0  0  0  0  0
   40.0270   31.3370   38.9610 O   0  0  0  0  0  0  0  0  0  0  0  0
   41.5960   31.2060   36.8640 O   0  0  0  0  0  0  0  0  0  0  0  0
   40.5280   32.0490   37.5080 P   0  0  0  0  0  0  0  0  0  0  0  0
   39.1780   32.2210   36.4860 O   0  0  0  0  0  0  0  0  0  0  0  0
   39.4240   32.7390   35.6880 H   0  0  0  0  0  0  0  0  0  0  0  0
   41.1120   33.6240   37.7480 O   0  0  0  0  0  0  0  0  0  0  0  0
   41.8710   33.5960   38.3560 H   0  0  0  0  0  0  0  0  0  0  0  0
   36.8030   27.1420   40.0000 C   0  0  0  0  0  0  0  0  0  0  0  0
   37.0500   27.0410   41.2920 C   0  0  0  0  0  0  0  0  0  0  0  0
   37.8420   25.9610   41.6520 C   0  0  0  0  0  0  0  0  0  0  0  0
   38.2840   25.1020   40.6160 N   0  0  0  0  0  0  0  0  0  0  0  0
   37.9930   25.2660   39.3530 C   0  0  0  0  0  0  0  0  0  0  0  0
   37.2030   26.3430   38.9760 N   0  0  0  0  0  0  0  0  0  0  0  0
   38.1620   25.7020   42.6520 H   0  0  0  0  0  0  0  0  0  0  0  0
   38.4020   24.5260   38.6770 H   0  0  0  0  0  0  0  0  0  0  0  0
   36.5040   27.8390   42.3640 C   0  0  1  0  0  0  0  0  0  0  0  0
   36.8270   27.7820   43.6770 C   0  0  0  0  0  0  0  0  0  0  0  0
   37.5300   28.9090   42.9770 C   0  0  1  0  0  0  0  0  0  0  0  0
   35.6140   28.4280   41.9720 H   0  0  0  0  0  0  0  0  0  0  0  0
   37.5060   26.9790   44.0950 H   0  0  0  0  0  0  0  0  0  0  0  0
   36.1420   28.1190   44.4860 H   0  0  0  0  0  0  0  0  0  0  0  0
   37.1200   29.9270   43.1050 H   0  0  0  0  0  0  0  0  0  0  0  0
   38.8860   28.7130   42.6160 N   0  0  0  0  0  0  0  0  0  0  0  0
   39.0390   28.3270   41.6620 H   0  0  0  0  0  0  0  0  0  0  0  0
   39.5720   29.9920   42.7950 C   0  0  0  0  0  2  0  0  0  0  0  0
   40.0210   30.2620   41.8160 H   0  0  0  0  0  0  0  0  0  0  0  0
  1  5  1  0  0  0  0
  1 20  1  0  0  0  0
  2  1  2  0  0  0  0
  3  4  1  0  0  0  0
  4  9  2  0  0  0  0
  4  5  1  0  0  0  0
  5  6  2  0  0  0  0
  6  7  1  0  0  0  0
  6 10  1  0  0  0  0
  7 11  1  0  0  0  0
  8 12  1  0  0  0  0
  8  7  2  0  0  0  0
  9  8  1  0  0  0  0
 13  9  1  0  0  0  0
 14 15  2  0  0  0  0
 15 18  1  0  0  0  0
 15 13  1  0  0  0  0
 16 15  1  0  0  0  0
 17 16  1  0  0  0  0
 18 19  1  0  0  0  0
 20 21  1  0  0  0  0
 21 22  2  0  0  0  0
 21 28  1  0  0  0  0
 22 26  1  0  0  0  0
 23 22  1  0  0  0  0
 24 23  2  0  0  0  0
 25 24  1  0  0  0  0
 25 20  2  0  0  0  0
 27 24  1  0  0  0  0
 28 31  1  6  0  0  0
 28 30  1  0  0  0  0
 28 29  1  0  0  0  0
 29 32  1  0  0  0  0
 29 33  1  0  0  0  0
 30 34  1  1  0  0  0
 30 29  1  0  0  0  0
 35 37  1  0  0  0  0
 35 30  1  0  0  0  0
 36 35  1  0  0  0  0
 38 37  1  0  0  0  0
M  END
>  <minimizedAffinity>
-5.7085104

$$$$

 OpenBabel03242523273D

 38 40  0  0  1  0  0  0  0  0999 V2000
   37.3330   29.1750   41.5890 C   0  0  0  0  0  0  0  0  0  0  0  0
   37.5380   29.5780   42.6930 O   0  0  0  0  0  0  0  0  0  0  0  0
   40.2040   29.2840   40.4290 Cl  0  0  0  0  0  0  0  0  0  0  0  0
   39.0620   30.6120   40.2790 C   0  0  0  0  0  0  0  0  0  0  0  0
   37.7810   30.4150   40.8450 C   0  0  0  0  0  0  0  0  0  0  0  0
   36.9960   31.5180   40.6480 C   0  0  0  0  0  0  0  0  0  0  0  0
   37.2460   32.6620   40.0480 C   0  0  0  0  0  0  0  0  0  0  0  0
   38.5120   32.8000   39.5150 C   0  0  0  0  0  0  0  0  0  0  0  0
   39.4120   31.7950   39.6220 C   0  0  0  0  0  0  0  0  0  0  0  0
   35.9500   31.4540   41.0510 H   0  0  0  0  0  0  0  0  0  0  0  0
   36.5350   33.4880   39.9480 H   0  0  0  0  0  0  0  0  0  0  0  0
   38.7520   33.7500   39.0050 H   0  0  0  0  0  0  0  0  0  0  0  0
   40.6390   32.0420   39.0540 O   0  0  0  0  0  0  0  0  0  0  0  0
   41.9150   31.0450   36.9910 O   0  0  0  0  0  0  0  0  0  0  0  0
   41.0560   32.2050   37.4200 P   0  0  0  0  0  0  0  0  0  0  0  0
   39.6320   32.2930   36.4950 O   0  0  0  0  0  0  0  0  0  0  0  0
   39.8500   32.5070   35.5610 H   0  0  0  0  0  0  0  0  0  0  0  0
   41.8760   33.6610   37.1220 O   0  0  0  0  0  0  0  0  0  0  0  0
   42.6900   33.6860   37.6530 H   0  0  0  0  0  0  0  0  0  0  0  0
   36.8970   28.1690   40.5800 C   0  0  0  0  0  0  0  0  0  0  0  0
   36.8980   26.8610   40.7530 C   0  0  0  0  0  0  0  0  0  0  0  0
   36.5170   26.1250   39.6420 C   0  0  0  0  0  0  0  0  0  0  0  0
   36.1720   26.8430   38.4710 N   0  0  0  0  0  0  0  0  0  0  0  0
   36.1930   28.1460   38.3770 C   0  0  0  0  0  0  0  0  0  0  0  0
   36.5740   28.8970   39.4800 N   0  0  0  0  0  0  0  0  0  0  0  0
   36.4540   25.0470   39.5730 H   0  0  0  0  0  0  0  0  0  0  0  0
   35.9010   28.5520   37.4160 H   0  0  0  0  0  0  0  0  0  0  0  0
   37.1290   26.1290   41.9760 C   0  0  1  0  0  0  0  0  0  0  0  0
   37.5030   24.8350   42.1000 C   0  0  0  0  0  0  0  0  0  0  0  0
   38.6680   25.7700   42.2490 C   0  0  1  0  0  0  0  0  0  0  0  0
   36.7790   26.7580   42.8570 H   0  0  0  0  0  0  0  0  0  0  0  0
   37.5600   24.1370   41.2120 H   0  0  0  0  0  0  0  0  0  0  0  0
   37.3010   24.2280   43.0110 H   0  0  0  0  0  0  0  0  0  0  0  0
   39.0230   25.9880   43.2720 H   0  0  0  0  0  0  0  0  0  0  0  0
   39.5270   25.9320   41.1340 N   0  0  0  0  0  0  0  0  0  0  0  0
   39.5400   26.8850   40.7190 H   0  0  0  0  0  0  0  0  0  0  0  0
   40.8640   25.5100   41.5510 C   0  0  0  0  0  2  0  0  0  0  0  0
   41.5450   26.3700   41.3840 H   0  0  0  0  0  0  0  0  0  0  0  0
  1  2  2  0  0  0  0
  4  3  1  0  0  0  0
  4  5  1  0  0  0  0
  5  1  1  0  0  0  0
  6  5  2  0  0  0  0
  6 10  1  0  0  0  0
  7  6  1  0  0  0  0
  8  9  1  0  0  0  0
  8  7  2  0  0  0  0
  9  4  2  0  0  0  0
 11  7  1  0  0  0  0
 12  8  1  0  0  0  0
 13  9  1  0  0  0  0
 14 15  2  0  0  0  0
 15 13  1  0  0  0  0
 16 15  1  0  0  0  0
 17 16  1  0  0  0  0
 18 15  1  0  0  0  0
 18 19  1  0  0  0  0
 20 21  1  0  0  0  0
 20  1  1  0  0  0  0
 21 28  1  0  0  0  0
 22 21  2  0  0  0  0
 23 22  1  0  0  0  0
 24 23  2  0  0  0  0
 24 25  1  0  0  0  0
 25 20  2  0  0  0  0
 26 22  1  0  0  0  0
 27 24  1  0  0  0  0
 28 29  1  0  0  0  0
 28 30  1  0  0  0  0
 28 31  1  1  0  0  0
 29 30  1  0  0  0  0
 29 33  1  0  0  0  0
 30 34  1  1  0  0  0
 32 29  1  0  0  0  0
 35 37  1  0  0  0  0
 35 30  1  0  0  0  0
 36 35  1  0  0  0  0
 38 37  1  0  0  0  0
M  END
>  <minimizedAffinity>
-5.69502544

$$$$

 OpenBabel03242523273D

 38 40  0  0  1  0  0  0  0  0999 V2000
   36.8870   30.1590   41.2500 C   0  0  0  0  0  0  0  0  0  0  0  0
   36.2350   31.1580   41.2400 O   0  0  0  0  0  0  0  0  0  0  0  0
   37.5510   31.9390   38.8040 Cl  0  0  0  0  0  0  0  0  0  0  0  0
   38.6940   31.6370   40.1030 C   0  0  0  0  0  0  0  0  0  0  0  0
   38.2470   30.8150   41.1640 C   0  0  0  0  0  0  0  0  0  0  0  0
   39.2300   30.6720   42.1060 C   0  0  0  0  0  0  0  0  0  0  0  0
   40.4520   31.1570   42.1610 C   0  0  0  0  0  0  0  0  0  0  0  0
   40.8350   31.9510   41.0990 C   0  0  0  0  0  0  0  0  0  0  0  0
   39.9760   32.1940   40.0820 C   0  0  0  0  0  0  0  0  0  0  0  0
   38.9660   30.0450   42.9990 H   0  0  0  0  0  0  0  0  0  0  0  0
   41.1640   30.9750   42.9720 H   0  0  0  0  0  0  0  0  0  0  0  0
   41.8560   32.3720   41.1170 H   0  0  0  0  0  0  0  0  0  0  0  0
   40.4640   32.9990   39.0800 O   0  0  0  0  0  0  0  0  0  0  0  0
   41.9990   31.3540   37.7330 O   0  0  0  0  0  0  0  0  0  0  0  0
   41.1270   32.5720   37.5810 P   0  0  0  0  0  0  0  0  0  0  0  0
   39.8610   32.2910   36.4800 O   0  0  0  0  0  0  0  0  0  0  0  0
   40.2240   32.1590   35.5770 H   0  0  0  0  0  0  0  0  0  0  0  0
   42.0330   33.8400   36.9100 O   0  0  0  0  0  0  0  0  0  0  0  0
   42.7590   34.0720   37.5140 H   0  0  0  0  0  0  0  0  0  0  0  0
   37.0910   28.6840   41.2950 C   0  0  0  0  0  0  0  0  0  0  0  0
   37.3380   27.9120   40.2540 C   0  0  0  0  0  0  0  0  0  0  0  0
   37.4170   26.5570   40.5370 C   0  0  0  0  0  0  0  0  0  0  0  0
   37.2340   26.1600   41.8840 N   0  0  0  0  0  0  0  0  0  0  0  0
   36.9960   26.9880   42.8660 C   0  0  0  0  0  0  0  0  0  0  0  0
   36.9110   28.3470   42.5990 N   0  0  0  0  0  0  0  0  0  0  0  0
   37.6070   25.7610   39.8300 H   0  0  0  0  0  0  0  0  0  0  0  0
   36.8810   26.5360   43.8440 H   0  0  0  0  0  0  0  0  0  0  0  0
   37.6460   28.3180   38.9030 C   0  0  1  0  0  0  0  0  0  0  0  0
   37.4990   27.5890   37.7730 C   0  0  0  0  0  0  0  0  0  0  0  0
   36.3590   28.5450   37.9730 C   0  0  1  0  0  0  0  0  0  0  0  0
   38.2060   29.3070   38.9310 H   0  0  0  0  0  0  0  0  0  0  0  0
   37.2170   26.4940   37.7950 H   0  0  0  0  0  0  0  0  0  0  0  0
   38.0830   27.7810   36.8450 H   0  0  0  0  0  0  0  0  0  0  0  0
   36.3660   29.4820   37.3870 H   0  0  0  0  0  0  0  0  0  0  0  0
   35.1480   28.0220   38.4890 N   0  0  0  0  0  0  0  0  0  0  0  0
   35.1040   27.9470   39.5260 H   0  0  0  0  0  0  0  0  0  0  0  0
   34.0600   28.8480   37.9650 C   0  0  0  0  0  2  0  0  0  0  0  0
   33.5070   29.2530   38.8380 H   0  0  0  0  0  0  0  0  0  0  0  0
  1 20  1  0  0  0  0
  2  1  2  0  0  0  0
  3  4  1  0  0  0  0
  4  5  1  0  0  0  0
  5  1  1  0  0  0  0
  5  6  2  0  0  0  0
  6  7  1  0  0  0  0
  6 10  1  0  0  0  0
  7 11  1  0  0  0  0
  8 12  1  0  0  0  0
  8  7  2  0  0  0  0
  9  4  2  0  0  0  0
  9  8  1  0  0  0  0
 13  9  1  0  0  0  0
 15 14  2  0  0  0  0
 15 13  1  0  0  0  0
 16 15  1  0  0  0  0
 17 16  1  0  0  0  0
 18 19  1  0  0  0  0
 18 15  1  0  0  0  0
 20 25  1  0  0  0  0
 21 22  1  0  0  0  0
 21 20  2  0  0  0  0
 22 23  2  0  0  0  0
 23 24  1  0  0  0  0
 24 27  1  0  0  0  0
 25 24  2  0  0  0  0
 26 22  1  0  0  0  0
 28 31  1  6  0  0  0
 28 21  1  0  0  0  0
 29 32  1  0  0  0  0
 29 30  1  0  0  0  0
 29 28  1  0  0  0  0
 30 34  1  6  0  0  0
 30 35  1  0  0  0  0
 30 28  1  0  0  0  0
 33 29  1  0  0  0  0
 35 36  1  0  0  0  0
 37 35  1  0  0  0  0
 37 38  1  0  0  0  0
M  END
>  <minimizedAffinity>
-5.64612818

$$$$

 OpenBabel03242523273D

 38 40  0  0  1  0  0  0  0  0999 V2000
   37.0110   30.3930   40.5500 C   0  0  0  0  0  0  0  0  0  0  0  0
   36.3350   31.3390   40.8170 O   0  0  0  0  0  0  0  0  0  0  0  0
   37.8760   32.3020   38.2690 Cl  0  0  0  0  0  0  0  0  0  0  0  0
   38.8860   31.9660   39.6680 C   0  0  0  0  0  0  0  0  0  0  0  0
   38.3540   31.0840   40.6380 C   0  0  0  0  0  0  0  0  0  0  0  0
   39.2360   30.9200   41.6710 C   0  0  0  0  0  0  0  0  0  0  0  0
   40.4320   31.4300   41.8760 C   0  0  0  0  0  0  0  0  0  0  0  0
   40.9010   32.2820   40.8970 C   0  0  0  0  0  0  0  0  0  0  0  0
   40.1470   32.5530   39.8070 C   0  0  0  0  0  0  0  0  0  0  0  0
   38.8980   30.2460   42.5020 H   0  0  0  0  0  0  0  0  0  0  0  0
   41.0600   31.2270   42.7490 H   0  0  0  0  0  0  0  0  0  0  0  0
   41.9030   32.7260   41.0410 H   0  0  0  0  0  0  0  0  0  0  0  0
   40.7140   33.4150   38.8980 O   0  0  0  0  0  0  0  0  0  0  0  0
   43.2260   34.1280   39.1410 O   0  0  0  0  0  0  0  0  0  0  0  0
   42.2700   33.4050   38.2300 P   0  0  0  0  0  0  0  0  0  0  0  0
   42.7530   31.7930   37.9840 O   0  0  0  0  0  0  0  0  0  0  0  0
   43.6010   31.7670   37.4890 H   0  0  0  0  0  0  0  0  0  0  0  0
   42.2980   34.1210   36.6920 O   0  0  0  0  0  0  0  0  0  0  0  0
   41.9980   35.0440   36.7600 H   0  0  0  0  0  0  0  0  0  0  0  0
   37.2520   28.9680   40.1900 C   0  0  0  0  0  0  0  0  0  0  0  0
   37.1930   27.9470   41.0230 C   0  0  0  0  0  0  0  0  0  0  0  0
   37.5300   26.7210   40.4690 C   0  0  0  0  0  0  0  0  0  0  0  0
   37.8870   26.7000   39.0990 N   0  0  0  0  0  0  0  0  0  0  0  0
   37.9180   27.7590   38.3340 C   0  0  0  0  0  0  0  0  0  0  0  0
   37.5860   28.9940   38.8730 N   0  0  0  0  0  0  0  0  0  0  0  0
   37.5490   25.7670   40.9790 H   0  0  0  0  0  0  0  0  0  0  0  0
   38.2090   27.5860   37.3050 H   0  0  0  0  0  0  0  0  0  0  0  0
   36.7130   27.9400   42.3850 C   0  0  1  0  0  0  0  0  0  0  0  0
   36.7970   26.9300   43.2800 C   0  0  0  0  0  0  0  0  0  0  0  0
   37.8740   27.9540   43.4930 C   0  0  1  0  0  0  0  0  0  0  0  0
   36.0830   28.8700   42.5610 H   0  0  0  0  0  0  0  0  0  0  0  0
   37.1660   25.9000   42.9920 H   0  0  0  0  0  0  0  0  0  0  0  0
   36.1060   26.8250   44.1460 H   0  0  0  0  0  0  0  0  0  0  0  0
   37.7310   28.6870   44.3070 H   0  0  0  0  0  0  0  0  0  0  0  0
   39.1700   27.6560   43.0050 N   0  0  0  0  0  0  0  0  0  0  0  0
   39.8690   28.4200   43.1060 H   0  0  0  0  0  0  0  0  0  0  0  0
   39.6130   26.4320   43.6720 C   0  0  0  0  0  2  0  0  0  0  0  0
   40.5650   26.6690   44.1910 H   0  0  0  0  0  0  0  0  0  0  0  0
  1  5  1  0  0  0  0
  1  2  2  0  0  0  0
  3  4  1  0  0  0  0
  4  9  2  0  0  0  0
  4  5  1  0  0  0  0
  5  6  2  0  0  0  0
  6  7  1  0  0  0  0
  6 10  1  0  0  0  0
  7 11  1  0  0  0  0
  8 12  1  0  0  0  0
  8  7  2  0  0  0  0
  9  8  1  0  0  0  0
 13  9  1  0  0  0  0
 15 13  1  0  0  0  0
 15 14  2  0  0  0  0
 16 15  1  0  0  0  0
 17 16  1  0  0  0  0
 18 19  1  0  0  0  0
 18 15  1  0  0  0  0
 20  1  1  0  0  0  0
 20 21  1  0  0  0  0
 21 28  1  0  0  0  0
 22 26  1  0  0  0  0
 22 21  2  0  0  0  0
 23 22  1  0  0  0  0
 24 25  1  0  0  0  0
 24 23  2  0  0  0  0
 25 20  2  0  0  0  0
 27 24  1  0  0  0  0
 28 31  1  1  0  0  0
 28 29  1  0  0  0  0
 28 30  1  0  0  0  0
 29 30  1  0  0  0  0
 29 33  1  0  0  0  0
 30 34  1  1  0  0  0
 32 29  1  0  0  0  0
 35 36  1  0  0  0  0
 35 30  1  0  0  0  0
 35 37  1  0  0  0  0
 37 38  1  0  0  0  0
M  END
>  <minimizedAffinity>
-5.54487467

$$$$

 OpenBabel03242523273D

 38 40  0  0  1  0  0  0  0  0999 V2000
   37.5320   26.7790   42.1610 C   0  0  0  0  0  0  0  0  0  0  0  0
   36.7860   26.9050   43.0830 O   0  0  0  0  0  0  0  0  0  0  0  0
   38.2140   29.6850   42.9850 Cl  0  0  0  0  0  0  0  0  0  0  0  0
   37.2190   29.2970   41.5900 C   0  0  0  0  0  0  0  0  0  0  0  0
   37.0030   27.9240   41.3260 C   0  0  0  0  0  0  0  0  0  0  0  0
   36.2220   27.7670   40.2130 C   0  0  0  0  0  0  0  0  0  0  0  0
   35.6780   28.6530   39.4060 C   0  0  0  0  0  0  0  0  0  0  0  0
   35.9210   29.9770   39.7120 C   0  0  0  0  0  0  0  0  0  0  0  0
   36.6790   30.3040   40.7840 C   0  0  0  0  0  0  0  0  0  0  0  0
   36.0050   26.7080   39.9120 H   0  0  0  0  0  0  0  0  0  0  0  0
   35.0630   28.4140   38.5340 H   0  0  0  0  0  0  0  0  0  0  0  0
   35.4760   30.7450   39.0530 H   0  0  0  0  0  0  0  0  0  0  0  0
   36.8550   31.6510   40.9910 O   0  0  0  0  0  0  0  0  0  0  0  0
   38.8920   31.9780   39.3720 O   0  0  0  0  0  0  0  0  0  0  0  0
   37.8970   32.7350   40.2100 P   0  0  0  0  0  0  0  0  0  0  0  0
   36.9710   33.7980   39.2580 O   0  0  0  0  0  0  0  0  0  0  0  0
   37.5440   34.5070   38.8910 H   0  0  0  0  0  0  0  0  0  0  0  0
   38.7200   33.7240   41.3160 O   0  0  0  0  0  0  0  0  0  0  0  0
   39.2460   33.1680   41.9160 H   0  0  0  0  0  0  0  0  0  0  0  0
   38.6480   26.1410   41.4080 C   0  0  0  0  0  0  0  0  0  0  0  0
   38.6890   24.8800   41.0210 C   0  0  0  0  0  0  0  0  0  0  0  0
   39.8680   24.4990   40.3980 C   0  0  0  0  0  0  0  0  0  0  0  0
   40.8740   25.4840   40.2460 N   0  0  0  0  0  0  0  0  0  0  0  0
   40.7570   26.7200   40.6540 C   0  0  0  0  0  0  0  0  0  0  0  0
   39.5850   27.1170   41.2810 N   0  0  0  0  0  0  0  0  0  0  0  0
   40.1040   23.5170   40.0120 H   0  0  0  0  0  0  0  0  0  0  0  0
   41.6110   27.3590   40.4650 H   0  0  0  0  0  0  0  0  0  0  0  0
   37.6260   23.9050   41.0620 C   0  0  1  0  0  0  0  0  0  0  0  0
   36.2970   24.1340   40.9560 C   0  0  0  0  0  0  0  0  0  0  0  0
   36.8900   23.6730   39.6560 C   0  0  1  0  0  0  0  0  0  0  0  0
   38.0560   22.9000   41.3750 H   0  0  0  0  0  0  0  0  0  0  0  0
   35.8660   25.1800   40.9410 H   0  0  0  0  0  0  0  0  0  0  0  0
   35.5260   23.4420   41.3630 H   0  0  0  0  0  0  0  0  0  0  0  0
   36.7470   22.6140   39.3740 H   0  0  0  0  0  0  0  0  0  0  0  0
   37.1570   24.6550   38.6710 N   0  0  0  0  0  0  0  0  0  0  0  0
   37.9810   24.4620   38.0650 H   0  0  0  0  0  0  0  0  0  0  0  0
   35.9370   24.8220   37.8810 C   0  0  0  0  0  2  0  0  0  0  0  0
   36.2020   24.6150   36.8230 H   0  0  0  0  0  0  0  0  0  0  0  0
  1  2  2  0  0  0  0
  4  3  1  0  0  0  0
  5  4  1  0  0  0  0
  5  1  1  0  0  0  0
  6  5  2  0  0  0  0
  7  8  2  0  0  0  0
  7  6  1  0  0  0  0
  8  9  1  0  0  0  0
  9 13  1  0  0  0  0
  9  4  2  0  0  0  0
 10  6  1  0  0  0  0
 11  7  1  0  0  0  0
 12  8  1  0  0  0  0
 14 15  2  0  0  0  0
 15 13  1  0  0  0  0
 15 18  1  0  0  0  0
 16 15  1  0  0  0  0
 17 16  1  0  0  0  0
 18 19  1  0  0  0  0
 20  1  1  0  0  0  0
 21 28  1  0  0  0  0
 21 20  2  0  0  0  0
 22 21  1  0  0  0  0
 23 22  2  0  0  0  0
 23 24  1  0  0  0  0
 24 25  2  0  0  0  0
 25 20  1  0  0  0  0
 26 22  1  0  0  0  0
 27 24  1  0  0  0  0
 28 31  1  1  0  0  0
 29 28  1  0  0  0  0
 29 33  1  0  0  0  0
 30 34  1  6  0  0  0
 30 29  1  0  0  0  0
 30 28  1  0  0  0  0
 32 29  1  0  0  0  0
 35 30  1  0  0  0  0
 36 35  1  0  0  0  0
 37 35  1  0  0  0  0
 38 37  1  0  0  0  0
M  END
>  <minimizedAffinity>
-5.51230145

$$$$

 OpenBabel03242523273D

 38 40  0  0  1  0  0  0  0  0999 V2000
   39.3650   31.0140   41.9070 C   0  0  0  0  0  0  0  0  0  0  0  0
   39.9870   31.4010   42.8480 O   0  0  0  0  0  0  0  0  0  0  0  0
   41.5320   28.9020   42.5660 Cl  0  0  0  0  0  0  0  0  0  0  0  0
   39.8160   28.6220   42.8220 C   0  0  0  0  0  0  0  0  0  0  0  0
   38.9430   29.6830   42.4890 C   0  0  0  0  0  0  0  0  0  0  0  0
   37.6450   29.3340   42.7460 C   0  0  0  0  0  0  0  0  0  0  0  0
   37.1260   28.2230   43.2260 C   0  0  0  0  0  0  0  0  0  0  0  0
   38.0250   27.2210   43.5320 C   0  0  0  0  0  0  0  0  0  0  0  0
   39.3510   27.4080   43.3380 C   0  0  0  0  0  0  0  0  0  0  0  0
   36.8730   30.1180   42.5270 H   0  0  0  0  0  0  0  0  0  0  0  0
   36.0590   28.0480   43.3910 H   0  0  0  0  0  0  0  0  0  0  0  0
   37.6190   26.2760   43.9360 H   0  0  0  0  0  0  0  0  0  0  0  0
   40.1510   26.3440   43.6800 O   0  0  0  0  0  0  0  0  0  0  0  0
   40.4260   25.2990   41.2900 O   0  0  0  0  0  0  0  0  0  0  0  0
   40.6130   25.0030   42.7540 P   0  0  0  0  0  0  0  0  0  0  0  0
   42.2350   24.6260   43.1040 O   0  0  0  0  0  0  0  0  0  0  0  0
   42.4860   23.7820   42.6690 H   0  0  0  0  0  0  0  0  0  0  0  0
   39.7300   23.6160   43.1720 O   0  0  0  0  0  0  0  0  0  0  0  0
   38.7830   23.7800   43.0250 H   0  0  0  0  0  0  0  0  0  0  0  0
   38.8000   31.1130   40.5320 C   0  0  0  0  0  0  0  0  0  0  0  0
   39.3650   30.6450   39.4360 C   0  0  0  0  0  0  0  0  0  0  0  0
   38.6820   30.9240   38.2620 C   0  0  0  0  0  0  0  0  0  0  0  0
   37.4770   31.6610   38.3670 N   0  0  0  0  0  0  0  0  0  0  0  0
   36.9770   32.0900   39.4950 C   0  0  0  0  0  0  0  0  0  0  0  0
   37.6490   31.8210   40.6790 N   0  0  0  0  0  0  0  0  0  0  0  0
   38.9750   30.6350   37.2620 H   0  0  0  0  0  0  0  0  0  0  0  0
   36.0460   32.6380   39.4170 H   0  0  0  0  0  0  0  0  0  0  0  0
   40.5240   29.7900   39.3320 C   0  0  1  0  0  0  0  0  0  0  0  0
   41.3930   29.7070   38.2990 C   0  0  0  0  0  0  0  0  0  0  0  0
   41.9250   30.5690   39.4070 C   0  0  1  0  0  0  0  0  0  0  0  0
   40.5170   29.0490   40.1940 H   0  0  0  0  0  0  0  0  0  0  0  0
   41.2140   30.2430   37.3180 H   0  0  0  0  0  0  0  0  0  0  0  0
   42.0140   28.8060   38.0980 H   0  0  0  0  0  0  0  0  0  0  0  0
   42.6700   30.1230   40.0900 H   0  0  0  0  0  0  0  0  0  0  0  0
   41.8390   31.9730   39.2450 N   0  0  0  0  0  0  0  0  0  0  0  0
   40.8720   32.3560   39.2040 H   0  0  0  0  0  0  0  0  0  0  0  0
   42.6120   32.5830   40.3270 C   0  0  0  0  0  2  0  0  0  0  0  0
   41.9230   33.2520   40.8840 H   0  0  0  0  0  0  0  0  0  0  0  0
  1  5  1  0  0  0  0
  1  2  2  0  0  0  0
  3  4  1  0  0  0  0
  4  9  1  0  0  0  0
  5  6  1  0  0  0  0
  5  4  2  0  0  0  0
  6  7  2  0  0  0  0
  7 11  1  0  0  0  0
  7  8  1  0  0  0  0
  8 12  1  0  0  0  0
  9  8  2  0  0  0  0
  9 13  1  0  0  0  0
 10  6  1  0  0  0  0
 14 15  2  0  0  0  0
 15 16  1  0  0  0  0
 15 18  1  0  0  0  0
 15 13  1  0  0  0  0
 17 16  1  0  0  0  0
 19 18  1  0  0  0  0
 20 25  1  0  0  0  0
 20  1  1  0  0  0  0
 21 20  2  0  0  0  0
 22 23  2  0  0  0  0
 22 21  1  0  0  0  0
 23 24  1  0  0  0  0
 24 25  2  0  0  0  0
 26 22  1  0  0  0  0
 27 24  1  0  0  0  0
 28 30  1  0  0  0  0
 28 21  1  0  0  0  0
 28 31  1  1  0  0  0
 29 28  1  0  0  0  0
 29 30  1  0  0  0  0
 30 34  1  1  0  0  0
 32 29  1  0  0  0  0
 33 29  1  0  0  0  0
 35 30  1  0  0  0  0
 35 37  1  0  0  0  0
 36 35  1  0  0  0  0
 37 38  1  0  0  0  0
M  END
>  <minimizedAffinity>
-5.49805832

$$$$

 OpenBabel03242523273D

 38 40  0  0  1  0  0  0  0  0999 V2000
   36.9330   27.5950   42.2550 C   0  0  0  0  0  0  0  0  0  0  0  0
   36.5180   27.8650   43.3400 O   0  0  0  0  0  0  0  0  0  0  0  0
   36.2110   30.4910   41.4250 Cl  0  0  0  0  0  0  0  0  0  0  0  0
   37.8480   29.9930   41.8260 C   0  0  0  0  0  0  0  0  0  0  0  0
   38.0260   28.6410   42.2020 C   0  0  0  0  0  0  0  0  0  0  0  0
   39.3400   28.3940   42.4940 C   0  0  0  0  0  0  0  0  0  0  0  0
   40.3930   29.1830   42.4750 C   0  0  0  0  0  0  0  0  0  0  0  0
   40.1610   30.4910   42.0990 C   0  0  0  0  0  0  0  0  0  0  0  0
   38.9110   30.9000   41.7800 C   0  0  0  0  0  0  0  0  0  0  0  0
   39.5830   27.3480   42.8180 H   0  0  0  0  0  0  0  0  0  0  0  0
   41.4120   28.8770   42.7290 H   0  0  0  0  0  0  0  0  0  0  0  0
   41.0260   31.1780   42.0730 H   0  0  0  0  0  0  0  0  0  0  0  0
   38.7970   32.2220   41.4230 O   0  0  0  0  0  0  0  0  0  0  0  0
   38.5730   31.8470   38.8370 O   0  0  0  0  0  0  0  0  0  0  0  0
   38.4900   32.9060   39.9040 P   0  0  0  0  0  0  0  0  0  0  0  0
   36.9540   33.6360   39.9300 O   0  0  0  0  0  0  0  0  0  0  0  0
   36.8070   34.1400   39.1000 H   0  0  0  0  0  0  0  0  0  0  0  0
   39.5770   34.1600   39.5470 O   0  0  0  0  0  0  0  0  0  0  0  0
   40.4850   33.8100   39.5500 H   0  0  0  0  0  0  0  0  0  0  0  0
   36.9670   26.8320   40.9770 C   0  0  0  0  0  0  0  0  0  0  0  0
   37.3940   25.5910   40.8360 C   0  0  0  0  0  0  0  0  0  0  0  0
   37.3980   25.1190   39.5320 C   0  0  0  0  0  0  0  0  0  0  0  0
   36.9490   26.0000   38.5180 N   0  0  0  0  0  0  0  0  0  0  0  0
   36.5360   27.2200   38.7370 C   0  0  0  0  0  0  0  0  0  0  0  0
   36.5280   27.7080   40.0360 N   0  0  0  0  0  0  0  0  0  0  0  0
   37.7110   24.1380   39.2030 H   0  0  0  0  0  0  0  0  0  0  0  0
   36.2210   27.7730   37.8610 H   0  0  0  0  0  0  0  0  0  0  0  0
   37.7360   24.6490   41.8750 C   0  0  1  0  0  0  0  0  0  0  0  0
   38.4450   23.5040   41.7440 C   0  0  0  0  0  0  0  0  0  0  0  0
   39.2940   24.6300   42.2600 C   0  0  1  0  0  0  0  0  0  0  0  0
   37.1690   24.9190   42.8230 H   0  0  0  0  0  0  0  0  0  0  0  0
   38.7510   23.0980   40.7330 H   0  0  0  0  0  0  0  0  0  0  0  0
   38.3580   22.6500   42.4530 H   0  0  0  0  0  0  0  0  0  0  0  0
   39.5050   24.6560   43.3440 H   0  0  0  0  0  0  0  0  0  0  0  0
   40.1460   25.2850   41.3390 N   0  0  0  0  0  0  0  0  0  0  0  0
   39.8120   26.2130   41.0080 H   0  0  0  0  0  0  0  0  0  0  0  0
   41.4670   25.3800   41.9610 C   0  0  0  0  0  2  0  0  0  0  0  0
   41.7370   26.4560   41.9890 H   0  0  0  0  0  0  0  0  0  0  0  0
  1  2  2  0  0  0  0
  3  4  1  0  0  0  0
  4  5  1  0  0  0  0
  5  1  1  0  0  0  0
  5  6  2  0  0  0  0
  6 10  1  0  0  0  0
  7  6  1  0  0  0  0
  7 11  1  0  0  0  0
  8  7  2  0  0  0  0
  9  4  2  0  0  0  0
  9  8  1  0  0  0  0
 12  8  1  0  0  0  0
 13  9  1  0  0  0  0
 14 15  2  0  0  0  0
 15 16  1  0  0  0  0
 15 13  1  0  0  0  0
 17 16  1  0  0  0  0
 18 19  1  0  0  0  0
 18 15  1  0  0  0  0
 20  1  1  0  0  0  0
 21 20  1  0  0  0  0
 21 28  1  0  0  0  0
 22 21  2  0  0  0  0
 23 24  2  0  0  0  0
 23 22  1  0  0  0  0
 24 25  1  0  0  0  0
 25 20  2  0  0  0  0
 26 22  1  0  0  0  0
 27 24  1  0  0  0  0
 28 30  1  0  0  0  0
 28 31  1  1  0  0  0
 29 28  1  0  0  0  0
 29 30  1  0  0  0  0
 29 33  1  0  0  0  0
 30 34  1  1  0  0  0
 32 29  1  0  0  0  0
 35 37  1  0  0  0  0
 35 30  1  0  0  0  0
 36 35  1  0  0  0  0
 37 38  1  0  0  0  0
M  END
>  <minimizedAffinity>
-5.43094206

$$$$

 OpenBabel03242523273D

 38 40  0  0  1  0  0  0  0  0999 V2000
   36.6320   29.3860   41.1290 C   0  0  0  0  0  0  0  0  0  0  0  0
   35.4440   29.4040   41.0180 O   0  0  0  0  0  0  0  0  0  0  0  0
   36.9920   27.4450   38.7430 Cl  0  0  0  0  0  0  0  0  0  0  0  0
   36.9330   26.9040   40.4130 C   0  0  0  0  0  0  0  0  0  0  0  0
   36.7780   27.9050   41.4000 C   0  0  0  0  0  0  0  0  0  0  0  0
   36.7570   27.3470   42.6490 C   0  0  0  0  0  0  0  0  0  0  0  0
   36.8510   26.0930   43.0380 C   0  0  0  0  0  0  0  0  0  0  0  0
   36.9990   25.1590   42.0330 C   0  0  0  0  0  0  0  0  0  0  0  0
   37.0420   25.5480   40.7380 C   0  0  0  0  0  0  0  0  0  0  0  0
   36.6510   28.0640   43.5060 H   0  0  0  0  0  0  0  0  0  0  0  0
   36.8200   25.7540   44.0780 H   0  0  0  0  0  0  0  0  0  0  0  0
   37.0800   24.0970   42.3290 H   0  0  0  0  0  0  0  0  0  0  0  0
   37.1930   24.5330   39.8230 O   0  0  0  0  0  0  0  0  0  0  0  0
   39.7700   24.0490   39.7920 O   0  0  0  0  0  0  0  0  0  0  0  0
   38.4260   23.3800   39.6880 P   0  0  0  0  0  0  0  0  0  0  0  0
   38.2220   22.2120   40.9080 O   0  0  0  0  0  0  0  0  0  0  0  0
   38.8540   21.4720   40.7750 H   0  0  0  0  0  0  0  0  0  0  0  0
   38.3280   22.5230   38.2270 O   0  0  0  0  0  0  0  0  0  0  0  0
   38.4050   23.1450   37.4820 H   0  0  0  0  0  0  0  0  0  0  0  0
   37.9930   29.9930   41.1500 C   0  0  0  0  0  0  0  0  0  0  0  0
   38.6000   30.5480   40.1190 C   0  0  0  0  0  0  0  0  0  0  0  0
   39.8950   30.9770   40.3660 C   0  0  0  0  0  0  0  0  0  0  0  0
   40.4100   30.7800   41.6700 N   0  0  0  0  0  0  0  0  0  0  0  0
   39.7430   30.2230   42.6450 C   0  0  0  0  0  0  0  0  0  0  0  0
   38.4460   29.7860   42.4140 N   0  0  0  0  0  0  0  0  0  0  0  0
   40.5620   31.4520   39.6590 H   0  0  0  0  0  0  0  0  0  0  0  0
   40.2690   30.1430   43.5890 H   0  0  0  0  0  0  0  0  0  0  0  0
   38.0420   30.8620   38.8250 C   0  0  1  0  0  0  0  0  0  0  0  0
   36.7330   30.9570   38.4960 C   0  0  0  0  0  0  0  0  0  0  0  0
   37.3460   32.3050   38.7400 C   0  0  1  0  0  0  0  0  0  0  0  0
   38.8740   30.8550   38.0500 H   0  0  0  0  0  0  0  0  0  0  0  0
   35.9090   30.6680   39.2160 H   0  0  0  0  0  0  0  0  0  0  0  0
   36.3550   30.8210   37.4580 H   0  0  0  0  0  0  0  0  0  0  0  0
   37.6290   32.9070   37.8580 H   0  0  0  0  0  0  0  0  0  0  0  0
   37.0970   32.9240   39.9900 N   0  0  0  0  0  0  0  0  0  0  0  0
   37.2820   32.3300   40.8230 H   0  0  0  0  0  0  0  0  0  0  0  0
   37.8780   34.1600   40.0270 C   0  0  0  0  0  2  0  0  0  0  0  0
   38.5400   34.1010   40.9150 H   0  0  0  0  0  0  0  0  0  0  0  0
  1 20  1  0  0  0  0
  1  5  1  0  0  0  0
  2  1  2  0  0  0  0
  3  4  1  0  0  0  0
  4  9  2  0  0  0  0
  4  5  1  0  0  0  0
  5  6  2  0  0  0  0
  6  7  1  0  0  0  0
  6 10  1  0  0  0  0
  7 11  1  0  0  0  0
  8 12  1  0  0  0  0
  8  7  2  0  0  0  0
  9  8  1  0  0  0  0
 13  9  1  0  0  0  0
 15 14  2  0  0  0  0
 15 13  1  0  0  0  0
 15 16  1  0  0  0  0
 17 16  1  0  0  0  0
 18 15  1  0  0  0  0
 19 18  1  0  0  0  0
 20 25  1  0  0  0  0
 21 22  1  0  0  0  0
 21 20  2  0  0  0  0
 22 23  2  0  0  0  0
 23 24  1  0  0  0  0
 24 27  1  0  0  0  0
 25 24  2  0  0  0  0
 26 22  1  0  0  0  0
 28 31  1  6  0  0  0
 28 21  1  0  0  0  0
 29 30  1  0  0  0  0
 29 28  1  0  0  0  0
 29 32  1  0  0  0  0
 30 34  1  6  0  0  0
 30 28  1  0  0  0  0
 30 35  1  0  0  0  0
 33 29  1  0  0  0  0
 35 37  1  0  0  0  0
 35 36  1  0  0  0  0
 37 38  1  0  0  0  0
M  END
>  <minimizedAffinity>
-5.42664576

$$$$

 OpenBabel03242523273D

 38 40  0  0  1  0  0  0  0  0999 V2000
   37.1590   29.8120   41.0450 C   0  0  0  0  0  0  0  0  0  0  0  0
   36.5260   29.9890   42.0400 O   0  0  0  0  0  0  0  0  0  0  0  0
   37.1800   26.9510   42.2310 Cl  0  0  0  0  0  0  0  0  0  0  0  0
   38.5690   28.0250   42.3030 C   0  0  0  0  0  0  0  0  0  0  0  0
   38.4190   29.2980   41.7070 C   0  0  0  0  0  0  0  0  0  0  0  0
   39.5740   30.0230   41.8280 C   0  0  0  0  0  0  0  0  0  0  0  0
   40.7280   29.7240   42.3850 C   0  0  0  0  0  0  0  0  0  0  0  0
   40.8170   28.4690   42.9530 C   0  0  0  0  0  0  0  0  0  0  0  0
   39.7610   27.6250   42.9160 C   0  0  0  0  0  0  0  0  0  0  0  0
   39.5600   31.0480   41.3710 H   0  0  0  0  0  0  0  0  0  0  0  0
   41.5960   30.3890   42.4270 H   0  0  0  0  0  0  0  0  0  0  0  0
   41.7750   28.1900   43.4290 H   0  0  0  0  0  0  0  0  0  0  0  0
   39.9640   26.4030   43.5110 O   0  0  0  0  0  0  0  0  0  0  0  0
   40.0840   24.9370   41.3390 O   0  0  0  0  0  0  0  0  0  0  0  0
   40.4000   24.9230   42.8110 P   0  0  0  0  0  0  0  0  0  0  0  0
   42.0580   24.6540   43.0830 O   0  0  0  0  0  0  0  0  0  0  0  0
   42.3040   23.7490   42.7900 H   0  0  0  0  0  0  0  0  0  0  0  0
   39.6070   23.6190   43.5520 O   0  0  0  0  0  0  0  0  0  0  0  0
   38.6450   23.7320   43.4590 H   0  0  0  0  0  0  0  0  0  0  0  0
   37.3850   29.8200   39.5730 C   0  0  0  0  0  0  0  0  0  0  0  0
   37.3930   30.8920   38.8040 C   0  0  0  0  0  0  0  0  0  0  0  0
   37.5510   30.6390   37.4500 C   0  0  0  0  0  0  0  0  0  0  0  0
   37.6880   29.2870   37.0500 N   0  0  0  0  0  0  0  0  0  0  0  0
   37.6740   28.2740   37.8760 C   0  0  0  0  0  0  0  0  0  0  0  0
   37.5140   28.5100   39.2340 N   0  0  0  0  0  0  0  0  0  0  0  0
   37.5810   31.3730   36.6560 H   0  0  0  0  0  0  0  0  0  0  0  0
   37.7920   27.2970   37.4220 H   0  0  0  0  0  0  0  0  0  0  0  0
   37.3780   32.2760   39.2140 C   0  0  1  0  0  0  0  0  0  0  0  0
   37.8860   32.8020   40.3520 C   0  0  0  0  0  0  0  0  0  0  0  0
   38.8160   32.9870   39.1880 C   0  0  1  0  0  0  0  0  0  0  0  0
   36.7100   32.8650   38.5060 H   0  0  0  0  0  0  0  0  0  0  0  0
   38.2870   32.1530   41.1870 H   0  0  0  0  0  0  0  0  0  0  0  0
   37.5280   33.7590   40.7930 H   0  0  0  0  0  0  0  0  0  0  0  0
   38.8360   33.9790   38.7010 H   0  0  0  0  0  0  0  0  0  0  0  0
   39.9180   32.1050   39.0810 N   0  0  0  0  0  0  0  0  0  0  0  0
   39.6740   31.1100   38.8980 H   0  0  0  0  0  0  0  0  0  0  0  0
   40.8040   32.6390   38.0480 C   0  0  0  0  0  2  0  0  0  0  0  0
   40.9220   31.8490   37.2770 H   0  0  0  0  0  0  0  0  0  0  0  0
  1  5  1  0  0  0  0
  1  2  2  0  0  0  0
  3  4  1  0  0  0  0
  4  9  1  0  0  0  0
  5  6  1  0  0  0  0
  5  4  2  0  0  0  0
  6  7  2  0  0  0  0
  7 11  1  0  0  0  0
  7  8  1  0  0  0  0
  8 12  1  0  0  0  0
  9  8  2  0  0  0  0
  9 13  1  0  0  0  0
 10  6  1  0  0  0  0
 14 15  2  0  0  0  0
 15 16  1  0  0  0  0
 15 13  1  0  0  0  0
 15 18  1  0  0  0  0
 17 16  1  0  0  0  0
 19 18  1  0  0  0  0
 20  1  1  0  0  0  0
 21 28  1  0  0  0  0
 21 20  2  0  0  0  0
 22 21  1  0  0  0  0
 23 22  2  0  0  0  0
 23 24  1  0  0  0  0
 24 25  2  0  0  0  0
 25 20  1  0  0  0  0
 26 22  1  0  0  0  0
 27 24  1  0  0  0  0
 28 31  1  6  0  0  0
 28 29  1  0  0  0  0
 29 33  1  0  0  0  0
 29 32  1  0  0  0  0
 30 34  1  6  0  0  0
 30 28  1  0  0  0  0
 30 29  1  0  0  0  0
 35 30  1  0  0  0  0
 36 35  1  0  0  0  0
 37 35  1  0  0  0  0
 38 37  1  0  0  0  0
M  END
>  <minimizedAffinity>
-5.42255402

$$$$
