
 OpenBabel03242519363D

 17 17  0  0  0  0  0  0  0  0999 V2000
   39.2050   27.5810   43.3060 C   0  0  0  0  0  0  0  0  0  0  0  0
   39.3260   28.8510   42.6790 C   0  0  0  0  0  0  0  0  0  0  0  0
   38.1800   29.4250   42.1490 C   0  0  0  0  0  0  0  0  0  0  0  0
   37.0060   28.7620   42.2480 N   0  0  0  0  0  0  0  0  0  0  0  0
   36.9080   27.5570   42.8470 C   0  0  0  0  0  0  0  0  0  0  0  0
   38.0100   26.9720   43.3730 N   0  0  0  0  0  0  0  0  0  0  0  0
   40.1110   27.1500   43.7130 H   0  0  0  0  0  0  0  0  0  0  0  0
   40.3020   29.3430   42.6260 H   0  0  0  0  0  0  0  0  0  0  0  0
   35.9780   27.0140   42.9340 H   0  0  0  0  0  0  0  0  0  0  0  0
   38.3070   30.6650   41.5380 O   0  0  0  0  0  0  0  0  0  0  0  0
   37.0700   30.4450   39.2240 O   0  0  0  0  0  0  0  0  0  0  0  0
   37.0530   31.2400   40.5260 P   0  0  1  0  0  0  0  0  0  0  0  0
   35.5940   31.0740   41.3260 O   0  0  0  0  0  0  0  0  0  0  0  0
   35.5580   30.1260   41.6670 H   0  0  0  0  0  0  0  0  0  0  0  0
   37.3950   32.8530   40.1650 O   0  0  0  0  0  0  0  0  0  0  0  0
   38.6580   33.2470   40.6550 C   0  0  0  0  0  2  0  0  0  0  0  0
   39.0240   34.1660   40.1250 H   0  0  0  0  0  0  0  0  0  0  0  0
  1  6  1  0  0  0  0
  1  7  1  0  0  0  0
  2  1  2  0  0  0  0
  3  4  2  0  0  0  0
  3  2  1  0  0  0  0
  4  5  1  0  0  0  0
  5  9  1  0  0  0  0
  5  6  2  0  0  0  0
  8  2  1  0  0  0  0
 10  3  1  0  0  0  0
 12 11  2  6  0  0  0
 12 13  1  0  0  0  0
 12 10  1  0  0  0  0
 13 14  1  0  0  0  0
 15 12  1  0  0  0  0
 15 16  1  0  0  0  0
 17 16  1  0  0  0  0
M  END
>  <minimizedAffinity>
-3.97877836

$$$$

 OpenBabel03242519363D

 17 17  0  0  0  0  0  0  0  0999 V2000
   36.9830   27.0810   41.4830 C   0  0  0  0  0  0  0  0  0  0  0  0
   36.4870   28.3370   41.0370 C   0  0  0  0  0  0  0  0  0  0  0  0
   36.8230   29.4650   41.7700 C   0  0  0  0  0  0  0  0  0  0  0  0
   37.6000   29.3270   42.8690 N   0  0  0  0  0  0  0  0  0  0  0  0
   38.0620   28.1290   43.2780 C   0  0  0  0  0  0  0  0  0  0  0  0
   37.7500   27.0100   42.5820 N   0  0  0  0  0  0  0  0  0  0  0  0
   36.7090   26.2130   40.8950 H   0  0  0  0  0  0  0  0  0  0  0  0
   35.8620   28.3900   40.1400 H   0  0  0  0  0  0  0  0  0  0  0  0
   38.6830   28.0020   44.1530 H   0  0  0  0  0  0  0  0  0  0  0  0
   36.3350   30.6860   41.3280 O   0  0  0  0  0  0  0  0  0  0  0  0
   36.7000   31.0050   38.7390 O   0  0  0  0  0  0  0  0  0  0  0  0
   37.1660   31.5300   40.0930 P   0  0  1  0  0  0  0  0  0  0  0  0
   36.8580   33.1660   40.2540 O   0  0  0  0  0  0  0  0  0  0  0  0
   35.8570   33.2650   40.3330 H   0  0  0  0  0  0  0  0  0  0  0  0
   38.8090   31.1780   40.2590 O   0  0  0  0  0  0  0  0  0  0  0  0
   39.4560   32.0780   41.1320 C   0  0  0  0  0  2  0  0  0  0  0  0
   40.4200   31.6450   41.5090 H   0  0  0  0  0  0  0  0  0  0  0  0
  1  6  1  0  0  0  0
  2  1  2  0  0  0  0
  2  3  1  0  0  0  0
  3  4  2  0  0  0  0
  4  5  1  0  0  0  0
  5  9  1  0  0  0  0
  6  5  2  0  0  0  0
  7  1  1  0  0  0  0
  8  2  1  0  0  0  0
 10  3  1  0  0  0  0
 12 11  2  6  0  0  0
 12 13  1  0  0  0  0
 12 15  1  0  0  0  0
 12 10  1  0  0  0  0
 13 14  1  0  0  0  0
 15 16  1  0  0  0  0
 16 17  1  0  0  0  0
M  END
>  <minimizedAffinity>
-3.78008771

$$$$

 OpenBabel03242519363D

 17 17  0  0  0  0  0  0  0  0999 V2000
   40.3210   32.9900   39.2000 C   0  0  0  0  0  0  0  0  0  0  0  0
   39.6360   31.7440   39.1860 C   0  0  0  0  0  0  0  0  0  0  0  0
   38.4030   31.6740   39.8150 C   0  0  0  0  0  0  0  0  0  0  0  0
   37.9050   32.7800   40.4120 N   0  0  0  0  0  0  0  0  0  0  0  0
   38.5680   33.9550   40.4180 C   0  0  0  0  0  0  0  0  0  0  0  0
   39.7740   34.0530   39.8110 N   0  0  0  0  0  0  0  0  0  0  0  0
   41.2830   33.0230   38.7030 H   0  0  0  0  0  0  0  0  0  0  0  0
   40.0860   30.8800   38.6870 H   0  0  0  0  0  0  0  0  0  0  0  0
   38.1840   34.8480   40.8900 H   0  0  0  0  0  0  0  0  0  0  0  0
   37.7410   30.4530   39.7960 O   0  0  0  0  0  0  0  0  0  0  0  0
   37.7870   29.8840   42.3670 O   0  0  0  0  0  0  0  0  0  0  0  0
   36.8470   29.9560   41.1680 P   0  0  1  0  0  0  0  0  0  0  0  0
   35.6050   31.0460   41.4270 O   0  0  0  0  0  0  0  0  0  0  0  0
   36.0210   31.9650   41.4140 H   0  0  0  0  0  0  0  0  0  0  0  0
   36.2670   28.4020   40.8560 O   0  0  0  0  0  0  0  0  0  0  0  0
   36.8870   27.4340   41.6740 C   0  0  0  0  0  2  0  0  0  0  0  0
   36.2710   26.4970   41.7210 H   0  0  0  0  0  0  0  0  0  0  0  0
  1  6  1  0  0  0  0
  2  1  2  0  0  0  0
  2  3  1  0  0  0  0
  3  4  2  0  0  0  0
  4  5  1  0  0  0  0
  5  9  1  0  0  0  0
  6  5  2  0  0  0  0
  7  1  1  0  0  0  0
  8  2  1  0  0  0  0
 10  3  1  0  0  0  0
 10 12  1  0  0  0  0
 12 13  1  0  0  0  0
 12 11  2  1  0  0  0
 14 13  1  0  0  0  0
 15 12  1  0  0  0  0
 15 16  1  0  0  0  0
 16 17  1  0  0  0  0
M  END
>  <minimizedAffinity>
-3.69060755

$$$$

 OpenBabel03242519363D

 17 17  0  0  0  0  0  0  0  0999 V2000
   38.4690   25.7940   42.2040 C   0  0  0  0  0  0  0  0  0  0  0  0
   37.2440   26.3890   41.7920 C   0  0  0  0  0  0  0  0  0  0  0  0
   37.0050   27.7040   42.1620 C   0  0  0  0  0  0  0  0  0  0  0  0
   37.9340   28.3610   42.8920 N   0  0  0  0  0  0  0  0  0  0  0  0
   39.0900   27.7830   43.2750 C   0  0  0  0  0  0  0  0  0  0  0  0
   39.3510   26.5010   42.9280 N   0  0  0  0  0  0  0  0  0  0  0  0
   38.6360   24.7670   41.9050 H   0  0  0  0  0  0  0  0  0  0  0  0
   36.5280   25.8090   41.2020 H   0  0  0  0  0  0  0  0  0  0  0  0
   39.8430   28.2940   43.8580 H   0  0  0  0  0  0  0  0  0  0  0  0
   35.8070   28.2760   41.7560 O   0  0  0  0  0  0  0  0  0  0  0  0
   34.6840   29.2650   39.5890 O   0  0  0  0  0  0  0  0  0  0  0  0
   35.8210   29.5140   40.5740 P   0  0  1  0  0  0  0  0  0  0  0  0
   35.6580   30.9920   41.3380 O   0  0  0  0  0  0  0  0  0  0  0  0
   34.8670   30.9110   41.9590 H   0  0  0  0  0  0  0  0  0  0  0  0
   37.2820   29.3940   39.7360 O   0  0  0  0  0  0  0  0  0  0  0  0
   38.0700   30.5550   39.8810 C   0  0  0  0  0  2  0  0  0  0  0  0
   39.1440   30.3410   39.6370 H   0  0  0  0  0  0  0  0  0  0  0  0
  1  6  1  0  0  0  0
  2  3  1  0  0  0  0
  2  1  2  0  0  0  0
  3  4  2  0  0  0  0
  4  5  1  0  0  0  0
  5  9  1  0  0  0  0
  6  5  2  0  0  0  0
  7  1  1  0  0  0  0
  8  2  1  0  0  0  0
 10  3  1  0  0  0  0
 12 11  2  6  0  0  0
 12 13  1  0  0  0  0
 12 10  1  0  0  0  0
 13 14  1  0  0  0  0
 15 16  1  0  0  0  0
 15 12  1  0  0  0  0
 17 16  1  0  0  0  0
M  END
>  <minimizedAffinity>
-3.66029096

$$$$

 OpenBabel03242519363D

 17 17  0  0  0  0  0  0  0  0999 V2000
   36.9510   30.7700   38.2890 C   0  0  0  0  0  0  0  0  0  0  0  0
   36.5850   29.6500   39.0850 C   0  0  0  0  0  0  0  0  0  0  0  0
   36.4180   29.8500   40.4480 C   0  0  0  0  0  0  0  0  0  0  0  0
   36.6100   31.0870   40.9590 N   0  0  0  0  0  0  0  0  0  0  0  0
   36.9570   32.1380   40.1900 C   0  0  0  0  0  0  0  0  0  0  0  0
   37.1270   31.9730   38.8570 N   0  0  0  0  0  0  0  0  0  0  0  0
   37.0760   30.5920   37.2280 H   0  0  0  0  0  0  0  0  0  0  0  0
   36.4430   28.6710   38.6180 H   0  0  0  0  0  0  0  0  0  0  0  0
   37.1140   33.1330   40.5830 H   0  0  0  0  0  0  0  0  0  0  0  0
   36.0610   28.7510   41.2180 O   0  0  0  0  0  0  0  0  0  0  0  0
   38.5220   27.9890   41.7630 O   0  0  0  0  0  0  0  0  0  0  0  0
   37.1470   28.1610   42.4010 P   0  0  1  0  0  0  0  0  0  0  0  0
   37.1940   29.2390   43.6780 O   0  0  0  0  0  0  0  0  0  0  0  0
   37.3470   30.1530   43.2780 H   0  0  0  0  0  0  0  0  0  0  0  0
   36.5940   26.6400   42.8800 O   0  0  0  0  0  0  0  0  0  0  0  0
   37.3180   25.5970   42.2650 C   0  0  0  0  0  2  0  0  0  0  0  0
   37.1970   24.6370   42.8340 H   0  0  0  0  0  0  0  0  0  0  0  0
  1  6  2  0  0  0  0
  1  2  1  0  0  0  0
  2  3  2  0  0  0  0
  3  4  1  0  0  0  0
  3 10  1  0  0  0  0
  5  9  1  0  0  0  0
  5  4  2  0  0  0  0
  6  5  1  0  0  0  0
  7  1  1  0  0  0  0
  8  2  1  0  0  0  0
 10 12  1  0  0  0  0
 12 11  2  6  0  0  0
 12 15  1  0  0  0  0
 12 13  1  0  0  0  0
 14 13  1  0  0  0  0
 16 17  1  0  0  0  0
 16 15  1  0  0  0  0
M  END
>  <minimizedAffinity>
-3.55619073

$$$$

 OpenBabel03242519363D

 17 17  0  0  0  0  0  0  0  0999 V2000
   37.2720   26.7810   41.8020 C   0  0  0  0  0  0  0  0  0  0  0  0
   37.5660   27.8790   40.9470 C   0  0  0  0  0  0  0  0  0  0  0  0
   37.8010   29.1130   41.5340 C   0  0  0  0  0  0  0  0  0  0  0  0
   37.7400   29.2240   42.8800 N   0  0  0  0  0  0  0  0  0  0  0  0
   37.4590   28.1730   43.6770 C   0  0  0  0  0  0  0  0  0  0  0  0
   37.2260   26.9550   43.1320 N   0  0  0  0  0  0  0  0  0  0  0  0
   37.0930   25.8260   41.3240 H   0  0  0  0  0  0  0  0  0  0  0  0
   37.6030   27.7320   39.8630 H   0  0  0  0  0  0  0  0  0  0  0  0
   37.4060   28.2440   44.7540 H   0  0  0  0  0  0  0  0  0  0  0  0
   38.0870   30.1790   40.6920 O   0  0  0  0  0  0  0  0  0  0  0  0
   35.4820   30.4420   40.4140 O   0  0  0  0  0  0  0  0  0  0  0  0
   36.8050   31.0850   40.0100 P   0  0  1  0  0  0  0  0  0  0  0  0
   36.9100   32.6630   40.5530 O   0  0  0  0  0  0  0  0  0  0  0  0
   37.0040   32.6180   41.5560 H   0  0  0  0  0  0  0  0  0  0  0  0
   36.9520   30.9830   38.3320 O   0  0  0  0  0  0  0  0  0  0  0  0
   36.4410   29.7670   37.8300 C   0  0  0  0  0  2  0  0  0  0  0  0
   36.2170   29.8510   36.7340 H   0  0  0  0  0  0  0  0  0  0  0  0
  1  6  1  0  0  0  0
  2  3  1  0  0  0  0
  2  1  2  0  0  0  0
  3  4  2  0  0  0  0
  4  5  1  0  0  0  0
  5  9  1  0  0  0  0
  6  5  2  0  0  0  0
  7  1  1  0  0  0  0
  8  2  1  0  0  0  0
 10  3  1  0  0  0  0
 12 11  2  1  0  0  0
 12 13  1  0  0  0  0
 12 10  1  0  0  0  0
 13 14  1  0  0  0  0
 15 12  1  0  0  0  0
 16 15  1  0  0  0  0
 17 16  1  0  0  0  0
M  END
>  <minimizedAffinity>
-3.48285604

$$$$

 OpenBabel03242519363D

 17 17  0  0  0  0  0  0  0  0999 V2000
   37.8650   24.2930   41.8040 C   0  0  0  0  0  0  0  0  0  0  0  0
   37.1870   25.4540   41.3390 C   0  0  0  0  0  0  0  0  0  0  0  0
   37.6330   26.6890   41.7860 C   0  0  0  0  0  0  0  0  0  0  0  0
   38.6820   26.7400   42.6380 N   0  0  0  0  0  0  0  0  0  0  0  0
   39.3130   25.6300   43.0700 C   0  0  0  0  0  0  0  0  0  0  0  0
   38.9000   24.4110   42.6510 N   0  0  0  0  0  0  0  0  0  0  0  0
   37.5000   23.3400   41.4420 H   0  0  0  0  0  0  0  0  0  0  0  0
   36.3440   25.3540   40.6490 H   0  0  0  0  0  0  0  0  0  0  0  0
   40.1520   25.6530   43.7510 H   0  0  0  0  0  0  0  0  0  0  0  0
   36.9660   27.8160   41.3260 O   0  0  0  0  0  0  0  0  0  0  0  0
   36.3530   30.3750   41.4390 O   0  0  0  0  0  0  0  0  0  0  0  0
   37.3200   29.3440   42.0120 P   0  0  1  0  0  0  0  0  0  0  0  0
   37.1840   29.2340   43.6750 O   0  0  0  0  0  0  0  0  0  0  0  0
   36.2920   28.8020   43.8640 H   0  0  0  0  0  0  0  0  0  0  0  0
   38.8830   29.7630   41.5330 O   0  0  0  0  0  0  0  0  0  0  0  0
   39.6170   30.3540   42.5830 C   0  0  0  0  0  2  0  0  0  0  0  0
   40.7190   30.3010   42.3790 H   0  0  0  0  0  0  0  0  0  0  0  0
  1  6  1  0  0  0  0
  2  3  1  0  0  0  0
  2  1  2  0  0  0  0
  3  4  2  0  0  0  0
  4  5  1  0  0  0  0
  5  9  1  0  0  0  0
  6  5  2  0  0  0  0
  7  1  1  0  0  0  0
  8  2  1  0  0  0  0
 10  3  1  0  0  0  0
 10 12  1  0  0  0  0
 12 11  2  6  0  0  0
 12 13  1  0  0  0  0
 13 14  1  0  0  0  0
 15 12  1  0  0  0  0
 15 16  1  0  0  0  0
 17 16  1  0  0  0  0
M  END
>  <minimizedAffinity>
-3.44019437

$$$$

 OpenBabel03242519363D

 17 17  0  0  0  0  0  0  0  0999 V2000
   36.7670   28.8510   41.4310 C   0  0  0  0  0  0  0  0  0  0  0  0
   36.7300   27.4300   41.3960 C   0  0  0  0  0  0  0  0  0  0  0  0
   37.3370   26.7390   42.4340 C   0  0  0  0  0  0  0  0  0  0  0  0
   37.9340   27.4360   43.4270 N   0  0  0  0  0  0  0  0  0  0  0  0
   37.9610   28.7840   43.4450 C   0  0  0  0  0  0  0  0  0  0  0  0
   37.3760   29.4850   42.4460 N   0  0  0  0  0  0  0  0  0  0  0  0
   36.2860   29.3710   40.6110 H   0  0  0  0  0  0  0  0  0  0  0  0
   36.2320   26.9170   40.5670 H   0  0  0  0  0  0  0  0  0  0  0  0
   38.4340   29.3560   44.2310 H   0  0  0  0  0  0  0  0  0  0  0  0
   37.2960   25.3520   42.3920 O   0  0  0  0  0  0  0  0  0  0  0  0
   39.5470   24.3370   43.3080 O   0  0  0  0  0  0  0  0  0  0  0  0
   38.7230   24.4760   42.0320 P   0  0  1  0  0  0  0  0  0  0  0  0
   38.2980   22.9830   41.4100 O   0  0  0  0  0  0  0  0  0  0  0  0
   37.6220   22.5880   42.0460 H   0  0  0  0  0  0  0  0  0  0  0  0
   39.6110   25.3910   40.9270 O   0  0  0  0  0  0  0  0  0  0  0  0
   39.2560   25.0990   39.5930 C   0  0  0  0  0  2  0  0  0  0  0  0
   39.5700   25.9270   38.9050 H   0  0  0  0  0  0  0  0  0  0  0  0
  1  6  1  0  0  0  0
  2  1  2  0  0  0  0
  2  3  1  0  0  0  0
  3  4  2  0  0  0  0
  4  5  1  0  0  0  0
  5  9  1  0  0  0  0
  6  5  2  0  0  0  0
  7  1  1  0  0  0  0
  8  2  1  0  0  0  0
 10  3  1  0  0  0  0
 12 10  1  0  0  0  0
 12 11  2  1  0  0  0
 13 12  1  0  0  0  0
 13 14  1  0  0  0  0
 15 12  1  0  0  0  0
 16 15  1  0  0  0  0
 17 16  1  0  0  0  0
M  END
>  <minimizedAffinity>
-3.36946678

$$$$

 OpenBabel03242519363D

 17 17  0  0  0  0  0  0  0  0999 V2000
   37.0980   24.8920   39.6920 C   0  0  0  0  0  0  0  0  0  0  0  0
   37.6240   26.1870   39.9570 C   0  0  0  0  0  0  0  0  0  0  0  0
   37.7320   26.5850   41.2810 C   0  0  0  0  0  0  0  0  0  0  0  0
   37.3360   25.7370   42.2570 N   0  0  0  0  0  0  0  0  0  0  0  0
   36.8390   24.5130   41.9890 C   0  0  0  0  0  0  0  0  0  0  0  0
   36.7220   24.0970   40.7060 N   0  0  0  0  0  0  0  0  0  0  0  0
   37.0230   24.6010   38.6520 H   0  0  0  0  0  0  0  0  0  0  0  0
   37.9290   26.8320   39.1280 H   0  0  0  0  0  0  0  0  0  0  0  0
   36.5180   23.8230   42.7570 H   0  0  0  0  0  0  0  0  0  0  0  0
   38.2460   27.8500   41.5310 O   0  0  0  0  0  0  0  0  0  0  0  0
   35.8190   28.8620   41.3860 O   0  0  0  0  0  0  0  0  0  0  0  0
   37.1910   29.1120   42.0050 P   0  0  1  0  0  0  0  0  0  0  0  0
   37.1120   29.1510   43.6750 O   0  0  0  0  0  0  0  0  0  0  0  0
   36.9220   28.2080   43.9770 H   0  0  0  0  0  0  0  0  0  0  0  0
   37.8050   30.5490   41.3670 O   0  0  0  0  0  0  0  0  0  0  0  0
   36.8140   31.2930   40.6930 C   0  0  0  0  0  2  0  0  0  0  0  0
   37.1220   32.3670   40.5900 H   0  0  0  0  0  0  0  0  0  0  0  0
  1  2  2  0  0  0  0
  1  6  1  0  0  0  0
  2  3  1  0  0  0  0
  3 10  1  0  0  0  0
  3  4  2  0  0  0  0
  5  4  1  0  0  0  0
  5  9  1  0  0  0  0
  6  5  2  0  0  0  0
  7  1  1  0  0  0  0
  8  2  1  0  0  0  0
 10 12  1  0  0  0  0
 12 11  2  6  0  0  0
 12 13  1  0  0  0  0
 13 14  1  0  0  0  0
 15 12  1  0  0  0  0
 16 15  1  0  0  0  0
 17 16  1  0  0  0  0
M  END
>  <minimizedAffinity>
-3.34000826

$$$$
