
 OpenBabel03252507543D

 37 39  0  0  1  0  0  0  0  0999 V2000
   47.0650   34.8130   41.9490 C   0  0  2  0  0  0  0  0  0  0  0  0
   46.2890   34.2010   40.7790 C   0  0  0  0  0  0  0  0  0  0  0  0
   47.4890   34.0010   39.8270 C   0  0  0  0  0  0  0  0  0  0  0  0
   48.6240   33.6020   40.7180 C   0  0  1  0  0  0  0  0  0  0  0  0
   48.1170   33.7520   42.1240 C   0  0  0  0  0  0  0  0  0  0  0  0
   47.4300   35.7920   41.6190 H   0  0  0  0  0  0  0  0  0  0  0  0
   45.5540   34.8950   40.3600 H   0  0  0  0  0  0  0  0  0  0  0  0
   45.8810   33.2420   41.1050 H   0  0  0  0  0  0  0  0  0  0  0  0
   47.6730   35.0150   39.4150 H   0  0  0  0  0  0  0  0  0  0  0  0
   47.2540   33.2680   39.0380 H   0  0  0  0  0  0  0  0  0  0  0  0
   49.5050   34.2840   40.5530 H   0  0  0  0  0  0  0  0  0  0  0  0
   47.6580   32.8630   42.5540 H   0  0  0  0  0  0  0  0  0  0  0  0
   48.9770   34.1110   42.7430 H   0  0  0  0  0  0  0  0  0  0  0  0
   44.5460   36.0140   44.4790 C   0  0  0  0  0  0  0  0  0  0  0  0
   45.2840   35.9830   43.3000 C   0  0  0  0  0  0  0  0  0  0  0  0
   46.1980   34.9440   43.1560 C   0  0  0  0  0  0  0  0  0  0  0  0
   46.3510   33.9860   44.1680 N   0  0  0  0  0  0  0  0  0  0  0  0
   45.6000   34.0730   45.2960 C   0  0  0  0  0  0  0  0  0  0  0  0
   44.7030   35.0840   45.4460 N   0  0  0  0  0  0  0  0  0  0  0  0
   43.8300   36.8180   44.6020 H   0  0  0  0  0  0  0  0  0  0  0  0
   45.1900   36.7040   42.5050 H   0  0  0  0  0  0  0  0  0  0  0  0
   45.7730   33.3010   46.0290 H   0  0  0  0  0  0  0  0  0  0  0  0
   49.0740   32.1670   40.5560 C   0  0  2  0  0  0  0  0  0  0  0  0
   49.7520   31.5760   41.7000 C   0  0  0  0  0  0  0  0  0  0  0  0
   50.4880   31.8200   40.4200 C   0  0  1  0  0  0  0  0  0  0  0  0
   48.3500   31.5430   40.0020 H   0  0  0  0  0  0  0  0  0  0  0  0
   49.9990   32.2250   42.5650 H   0  0  0  0  0  0  0  0  0  0  0  0
   49.5510   30.5260   42.0010 H   0  0  0  0  0  0  0  0  0  0  0  0
   51.1480   32.6790   40.2620 H   0  0  0  0  0  0  0  0  0  0  0  0
   50.8070   30.6830   39.6370 O   0  0  0  0  0  0  0  0  0  0  0  0
   52.0780   30.0610   37.4460 O   0  0  0  0  0  0  0  0  0  0  0  0
   51.9510   31.1400   38.4920 P   0  0  1  0  0  0  0  0  0  0  0  0
   51.4460   32.5730   37.6950 O   0  0  0  0  0  0  0  0  0  0  0  0
   50.7920   32.2850   37.0110 H   0  0  0  0  0  0  0  0  0  0  0  0
   53.4590   31.4460   39.1190 O   0  0  0  0  0  0  0  0  0  0  0  0
   53.8570   30.2910   39.8260 C   0  0  0  0  0  0  0  0  0  0  0  0
   54.1170   29.5400   39.0290 H   0  0  0  0  0  0  0  0  0  0  0  0
  1  6  1  6  0  0  0
  1  5  1  0  0  0  0
  1 16  1  0  0  0  0
  2  8  1  0  0  0  0
  2  1  1  0  0  0  0
  3  4  1  0  0  0  0
  3  2  1  0  0  0  0
  4 11  1  6  0  0  0
  4  5  1  0  0  0  0
  5 12  1  0  0  0  0
  5 13  1  0  0  0  0
  7  2  1  0  0  0  0
  9  3  1  0  0  0  0
 10  3  1  0  0  0  0
 14 20  1  0  0  0  0
 14 19  1  0  0  0  0
 15 14  2  0  0  0  0
 16 15  1  0  0  0  0
 16 17  2  0  0  0  0
 17 18  1  0  0  0  0
 18 19  2  0  0  0  0
 18 22  1  0  0  0  0
 21 15  1  0  0  0  0
 23 26  1  6  0  0  0
 23  4  1  0  0  0  0
 23 24  1  0  0  0  0
 24 28  1  0  0  0  0
 24 27  1  0  0  0  0
 25 29  1  6  0  0  0
 25 23  1  0  0  0  0
 25 24  1  0  0  0  0
 30 25  1  0  0  0  0
 32 31  2  6  0  0  0
 32 35  1  0  0  0  0
 32 30  1  0  0  0  0
 33 32  1  0  0  0  0
 34 33  1  0  0  0  0
 35 36  1  0  0  0  0
 37 36  1  0  0  0  0
M  END
>  <minimizedAffinity>
-5.02136707

>  <minimizedRMSD>
0.199828669

$$$$
