
 OpenBabel03242512543D

 22 22  0  0  0  0  0  0  0  0999 V2000
   44.9080   37.9440   44.6860 C   0  0  0  0  0  0  0  0  0  0  0  0
   45.3500   38.9510   43.9510 C   0  0  0  0  0  0  0  0  0  0  0  0
   45.0000   36.5980   44.1370 C   0  0  0  0  0  0  0  0  0  0  0  0
   45.1640   36.4610   42.7490 C   0  0  0  0  0  0  0  0  0  0  0  0
   45.2520   35.1620   42.2220 C   0  0  0  0  0  0  0  0  0  0  0  0
   45.1730   34.1120   43.0740 N   0  0  0  0  0  0  0  0  0  0  0  0
   45.0150   34.2780   44.4030 C   0  0  0  0  0  0  0  0  0  0  0  0
   44.9290   35.5070   44.9250 N   0  0  0  0  0  0  0  0  0  0  0  0
   45.2280   37.2920   42.0560 H   0  0  0  0  0  0  0  0  0  0  0  0
   45.3800   35.0560   41.1440 H   0  0  0  0  0  0  0  0  0  0  0  0
   44.9540   33.4060   45.0700 H   0  0  0  0  0  0  0  0  0  0  0  0
   45.3150   40.3630   44.3910 C   0  0  0  0  0  0  0  0  0  0  0  0
   44.9590   41.0690   43.6110 H   0  0  0  0  0  0  0  0  0  0  0  0
   46.3870   40.6500   44.5610 H   0  0  0  0  0  0  0  0  0  0  0  0
   44.6900   40.5030   45.6120 O   0  0  0  0  0  0  0  0  0  0  0  0
   42.7780   42.1950   45.8270 O   0  0  0  0  0  0  0  0  0  0  0  0
   44.2760   42.1110   45.9410 P   0  0  1  0  0  0  0  0  0  0  0  0
   44.7750   42.5660   47.4780 O   0  0  0  0  0  0  0  0  0  0  0  0
   43.9720   42.5600   48.0890 H   0  0  0  0  0  0  0  0  0  0  0  0
   44.9570   43.1980   44.8400 O   0  0  0  0  0  0  0  0  0  0  0  0
   45.2510   44.4210   45.4310 C   0  0  0  0  0  0  0  0  0  0  0  0
   45.6050   45.0950   44.6190 H   0  0  0  0  0  0  0  0  0  0  0  0
  2 12  1  0  0  0  0
  2  1  2  0  0  0  0
  3  1  1  0  0  0  0
  3  8  1  0  0  0  0
  4  3  2  0  0  0  0
  5  4  1  0  0  0  0
  5  6  2  0  0  0  0
  6  7  1  0  0  0  0
  7  8  2  0  0  0  0
  7 11  1  0  0  0  0
  9  4  1  0  0  0  0
 10  5  1  0  0  0  0
 12 14  1  0  0  0  0
 12 15  1  0  0  0  0
 13 12  1  0  0  0  0
 15 17  1  0  0  0  0
 17 16  2  6  0  0  0
 17 18  1  0  0  0  0
 18 19  1  0  0  0  0
 20 21  1  0  0  0  0
 20 17  1  0  0  0  0
 22 21  1  0  0  0  0
M  END
>  <minimizedAffinity>
-2.23434925

>  <minimizedRMSD>
0.32217887

$$$$
