
 OpenBabel03252507103D

 29 30  0  0  1  0  0  0  0  0999 V2000
   37.9430   27.8260   43.6300 C   0  0  0  0  0  0  0  0  0  0  0  0
   38.1020   29.1000   43.0520 C   0  0  0  0  0  0  0  0  0  0  0  0
   38.1090   29.1640   41.6620 C   0  0  0  0  0  0  0  0  0  0  0  0
   37.9670   28.0310   40.9450 N   0  0  0  0  0  0  0  0  0  0  0  0
   37.8170   26.8310   41.5140 C   0  0  0  0  0  0  0  0  0  0  0  0
   37.8050   26.7300   42.8690 N   0  0  0  0  0  0  0  0  0  0  0  0
   37.9320   27.7280   44.7110 H   0  0  0  0  0  0  0  0  0  0  0  0
   38.2100   29.9670   43.6910 H   0  0  0  0  0  0  0  0  0  0  0  0
   37.0660   24.4380   41.5820 C   0  0  1  0  0  0  0  0  0  0  0  0
   37.6680   25.5590   40.7860 C   0  0  1  0  0  0  0  0  0  0  0  0
   36.5720   25.7000   39.7130 C   0  0  0  0  0  0  0  0  0  0  0  0
   35.9900   24.4850   39.5630 O   0  0  0  0  0  0  0  0  0  0  0  0
   36.6000   23.5640   40.4160 C   0  0  0  0  0  0  0  0  0  0  0  0
   36.1300   24.8120   42.0940 H   0  0  0  0  0  0  0  0  0  0  0  0
   38.6090   25.2570   40.3130 H   0  0  0  0  0  0  0  0  0  0  0  0
   35.9000   26.5520   39.9250 H   0  0  0  0  0  0  0  0  0  0  0  0
   37.1140   25.9590   38.7790 H   0  0  0  0  0  0  0  0  0  0  0  0
   37.5170   23.1200   39.9690 H   0  0  0  0  0  0  0  0  0  0  0  0
   35.8870   22.7910   40.7630 H   0  0  0  0  0  0  0  0  0  0  0  0
   37.9250   23.8220   42.4430 O   0  0  0  0  0  0  0  0  0  0  0  0
   37.6710   24.0940   43.3750 H   0  0  0  0  0  0  0  0  0  0  0  0
   38.2640   30.4210   41.1040 O   0  0  0  0  0  0  0  0  0  0  0  0
   36.6570   30.6910   39.0000 O   0  0  0  0  0  0  0  0  0  0  0  0
   36.9230   31.2250   40.3990 P   0  0  1  0  0  0  0  0  0  0  0  0
   35.6100   31.0270   41.4090 O   0  0  0  0  0  0  0  0  0  0  0  0
   34.9110   31.6560   41.1320 H   0  0  0  0  0  0  0  0  0  0  0  0
   37.3720   32.8620   40.2710 O   0  0  0  0  0  0  0  0  0  0  0  0
   38.6570   33.0370   40.7600 C   0  0  0  0  0  2  0  0  0  0  0  0
   39.0060   34.0740   40.6520 H   0  0  0  0  0  0  0  0  0  0  0  0
  1  7  1  0  0  0  0
  2  1  1  0  0  0  0
  2  8  1  0  0  0  0
  3  2  2  0  0  0  0
  4  5  2  0  0  0  0
  4  3  1  0  0  0  0
  5  6  1  0  0  0  0
  6  1  2  0  0  0  0
  9 14  1  1  0  0  0
  9 20  1  0  0  0  0
 10 15  1  6  0  0  0
 10  5  1  0  0  0  0
 10  9  1  0  0  0  0
 11 16  1  0  0  0  0
 11 10  1  0  0  0  0
 12 11  1  0  0  0  0
 12 13  1  0  0  0  0
 13 19  1  0  0  0  0
 13  9  1  0  0  0  0
 17 11  1  0  0  0  0
 18 13  1  0  0  0  0
 20 21  1  0  0  0  0
 22  3  1  0  0  0  0
 24 23  2  6  0  0  0
 24 22  1  0  0  0  0
 24 25  1  0  0  0  0
 26 25  1  0  0  0  0
 27 24  1  0  0  0  0
 27 28  1  0  0  0  0
 29 28  1  0  0  0  0
M  END
>  <minimizedAffinity>
-5.1537838

$$$$

 OpenBabel03252507103D

 29 30  0  0  1  0  0  0  0  0999 V2000
   37.7830   28.6540   43.5130 C   0  0  0  0  0  0  0  0  0  0  0  0
   37.8360   27.2470   43.5370 C   0  0  0  0  0  0  0  0  0  0  0  0
   37.5260   26.5860   42.3520 C   0  0  0  0  0  0  0  0  0  0  0  0
   37.1980   27.3030   41.2590 N   0  0  0  0  0  0  0  0  0  0  0  0
   37.1560   28.6390   41.2580 C   0  0  0  0  0  0  0  0  0  0  0  0
   37.4520   29.3190   42.3970 N   0  0  0  0  0  0  0  0  0  0  0  0
   38.0160   29.2120   44.4150 H   0  0  0  0  0  0  0  0  0  0  0  0
   38.1070   26.7380   44.4520 H   0  0  0  0  0  0  0  0  0  0  0  0
   36.8960   30.9560   40.3300 C   0  0  1  0  0  0  0  0  0  0  0  0
   36.7950   29.4760   40.1000 C   0  0  1  0  0  0  0  0  0  0  0  0
   37.8680   29.3350   39.0030 C   0  0  0  0  0  0  0  0  0  0  0  0
   37.9220   30.5130   38.3330 O   0  0  0  0  0  0  0  0  0  0  0  0
   36.9890   31.4010   38.8700 C   0  0  0  0  0  0  0  0  0  0  0  0
   37.8980   31.1880   40.7980 H   0  0  0  0  0  0  0  0  0  0  0  0
   35.8160   29.1970   39.6950 H   0  0  0  0  0  0  0  0  0  0  0  0
   38.8200   28.9490   39.4110 H   0  0  0  0  0  0  0  0  0  0  0  0
   37.4820   28.5490   38.3220 H   0  0  0  0  0  0  0  0  0  0  0  0
   35.9760   31.2610   38.4320 H   0  0  0  0  0  0  0  0  0  0  0  0
   37.3330   32.4510   38.7980 H   0  0  0  0  0  0  0  0  0  0  0  0
   35.8550   31.5000   41.0220 O   0  0  0  0  0  0  0  0  0  0  0  0
   36.1870   31.7330   41.9400 H   0  0  0  0  0  0  0  0  0  0  0  0
   37.5810   25.2040   42.3860 O   0  0  0  0  0  0  0  0  0  0  0  0
   39.9740   25.3480   41.2310 O   0  0  0  0  0  0  0  0  0  0  0  0
   39.0070   24.3830   41.8980 P   0  0  1  0  0  0  0  0  0  0  0  0
   39.6720   23.6540   43.2430 O   0  0  0  0  0  0  0  0  0  0  0  0
   40.3490   23.0120   42.9420 H   0  0  0  0  0  0  0  0  0  0  0  0
   38.5140   23.2340   40.7430 O   0  0  0  0  0  0  0  0  0  0  0  0
   37.7270   23.8440   39.7780 C   0  0  0  0  0  2  0  0  0  0  0  0
   37.4260   23.1460   38.9850 H   0  0  0  0  0  0  0  0  0  0  0  0
  1  2  1  0  0  0  0
  1  7  1  0  0  0  0
  2  8  1  0  0  0  0
  3 22  1  0  0  0  0
  3  2  2  0  0  0  0
  4  3  1  0  0  0  0
  5  4  2  0  0  0  0
  5  6  1  0  0  0  0
  6  1  2  0  0  0  0
  9 14  1  1  0  0  0
  9 20  1  0  0  0  0
 10 15  1  6  0  0  0
 10  9  1  0  0  0  0
 10  5  1  0  0  0  0
 11 16  1  0  0  0  0
 11 10  1  0  0  0  0
 12 13  1  0  0  0  0
 12 11  1  0  0  0  0
 13  9  1  0  0  0  0
 17 11  1  0  0  0  0
 18 13  1  0  0  0  0
 19 13  1  0  0  0  0
 20 21  1  0  0  0  0
 24 23  2  6  0  0  0
 24 22  1  0  0  0  0
 24 25  1  0  0  0  0
 26 25  1  0  0  0  0
 27 24  1  0  0  0  0
 28 27  1  0  0  0  0
 29 28  1  0  0  0  0
M  END
>  <minimizedAffinity>
-4.79699039

$$$$

 OpenBabel03252507103D

 29 30  0  0  1  0  0  0  0  0999 V2000
   35.5010   28.9110   40.5950 C   0  0  0  0  0  0  0  0  0  0  0  0
   35.7820   30.2640   40.3280 C   0  0  0  0  0  0  0  0  0  0  0  0
   36.8830   30.8170   40.9760 C   0  0  0  0  0  0  0  0  0  0  0  0
   37.6150   30.0520   41.8100 N   0  0  0  0  0  0  0  0  0  0  0  0
   37.3300   28.7680   42.0490 C   0  0  0  0  0  0  0  0  0  0  0  0
   36.2630   28.1930   41.4330 N   0  0  0  0  0  0  0  0  0  0  0  0
   34.6510   28.4380   40.1120 H   0  0  0  0  0  0  0  0  0  0  0  0
   35.1500   30.8170   39.6460 H   0  0  0  0  0  0  0  0  0  0  0  0
   38.2940   26.4860   42.4520 C   0  0  1  0  0  0  0  0  0  0  0  0
   38.0850   27.8850   42.9550 C   0  0  1  0  0  0  0  0  0  0  0  0
   39.5570   28.3360   43.0130 C   0  0  0  0  0  0  0  0  0  0  0  0
   40.3130   27.2310   43.2290 O   0  0  0  0  0  0  0  0  0  0  0  0
   39.4880   26.1110   43.3310 C   0  0  0  0  0  0  0  0  0  0  0  0
   38.6810   26.5320   41.3910 H   0  0  0  0  0  0  0  0  0  0  0  0
   37.6590   27.8910   43.9640 H   0  0  0  0  0  0  0  0  0  0  0  0
   39.8270   28.9620   42.1430 H   0  0  0  0  0  0  0  0  0  0  0  0
   39.6210   28.9980   43.9020 H   0  0  0  0  0  0  0  0  0  0  0  0
   39.0900   25.9740   44.3610 H   0  0  0  0  0  0  0  0  0  0  0  0
   39.9860   25.1980   42.9510 H   0  0  0  0  0  0  0  0  0  0  0  0
   37.2140   25.6640   42.5820 O   0  0  0  0  0  0  0  0  0  0  0  0
   36.8320   25.5150   41.6670 H   0  0  0  0  0  0  0  0  0  0  0  0
   37.1520   32.1480   40.7070 O   0  0  0  0  0  0  0  0  0  0  0  0
   38.8060   34.1610   40.1630 O   0  0  0  0  0  0  0  0  0  0  0  0
   38.7700   32.6760   40.4910 P   0  0  1  0  0  0  0  0  0  0  0  0
   39.6220   32.3170   41.8800 O   0  0  0  0  0  0  0  0  0  0  0  0
   40.5780   32.4100   41.6870 H   0  0  0  0  0  0  0  0  0  0  0  0
   39.3690   31.8160   39.1500 O   0  0  0  0  0  0  0  0  0  0  0  0
   40.3710   30.9480   39.5570 C   0  0  0  0  0  2  0  0  0  0  0  0
   40.7530   30.3370   38.7280 H   0  0  0  0  0  0  0  0  0  0  0  0
  1  6  1  0  0  0  0
  2  1  2  0  0  0  0
  2  3  1  0  0  0  0
  3  4  2  0  0  0  0
  4  5  1  0  0  0  0
  5 10  1  0  0  0  0
  6  5  2  0  0  0  0
  7  1  1  0  0  0  0
  8  2  1  0  0  0  0
  9 14  1  6  0  0  0
  9 20  1  0  0  0  0
  9 10  1  0  0  0  0
  9 13  1  0  0  0  0
 10 11  1  0  0  0  0
 10 15  1  1  0  0  0
 11 12  1  0  0  0  0
 11 17  1  0  0  0  0
 12 13  1  0  0  0  0
 13 18  1  0  0  0  0
 16 11  1  0  0  0  0
 19 13  1  0  0  0  0
 21 20  1  0  0  0  0
 22  3  1  0  0  0  0
 24 23  2  6  0  0  0
 24 22  1  0  0  0  0
 24 25  1  0  0  0  0
 26 25  1  0  0  0  0
 27 28  1  0  0  0  0
 27 24  1  0  0  0  0
 29 28  1  0  0  0  0
M  END
>  <minimizedAffinity>
-4.66881847

$$$$

 OpenBabel03252507103D

 29 30  0  0  1  0  0  0  0  0999 V2000
   36.7430   31.3090   39.4830 C   0  0  0  0  0  0  0  0  0  0  0  0
   36.7250   30.7790   40.7870 C   0  0  0  0  0  0  0  0  0  0  0  0
   37.9180   30.2420   41.2630 C   0  0  0  0  0  0  0  0  0  0  0  0
   39.0110   30.2510   40.4750 N   0  0  0  0  0  0  0  0  0  0  0  0
   39.0050   30.7610   39.2390 C   0  0  0  0  0  0  0  0  0  0  0  0
   37.8590   31.2950   38.7400 N   0  0  0  0  0  0  0  0  0  0  0  0
   35.8350   31.7380   39.0700 H   0  0  0  0  0  0  0  0  0  0  0  0
   35.8100   30.8050   41.3630 H   0  0  0  0  0  0  0  0  0  0  0  0
   40.3980   32.1070   37.6440 C   0  0  1  0  0  0  0  0  0  0  0  0
   40.1630   30.7910   38.3280 C   0  0  1  0  0  0  0  0  0  0  0  0
   41.4680   30.7140   39.1430 C   0  0  0  0  0  0  0  0  0  0  0  0
   42.4160   31.4010   38.4600 O   0  0  0  0  0  0  0  0  0  0  0  0
   41.8700   31.9060   37.2800 C   0  0  0  0  0  0  0  0  0  0  0  0
   40.3710   32.9320   38.4150 H   0  0  0  0  0  0  0  0  0  0  0  0
   40.1290   29.9640   37.6110 H   0  0  0  0  0  0  0  0  0  0  0  0
   41.3080   31.0020   40.1990 H   0  0  0  0  0  0  0  0  0  0  0  0
   41.7380   29.6380   39.1540 H   0  0  0  0  0  0  0  0  0  0  0  0
   41.8920   31.1600   36.4540 H   0  0  0  0  0  0  0  0  0  0  0  0
   42.3390   32.8660   36.9880 H   0  0  0  0  0  0  0  0  0  0  0  0
   39.5810   32.3530   36.5810 O   0  0  0  0  0  0  0  0  0  0  0  0
   38.9260   33.0610   36.8570 H   0  0  0  0  0  0  0  0  0  0  0  0
   37.8910   29.7240   42.5470 O   0  0  0  0  0  0  0  0  0  0  0  0
   38.8200   27.4150   43.4890 O   0  0  0  0  0  0  0  0  0  0  0  0
   37.6230   28.0480   42.7960 P   0  0  1  0  0  0  0  0  0  0  0  0
   36.2180   27.8730   43.6800 O   0  0  0  0  0  0  0  0  0  0  0  0
   35.9430   26.9330   43.6380 H   0  0  0  0  0  0  0  0  0  0  0  0
   37.4750   27.3610   41.2460 O   0  0  0  0  0  0  0  0  0  0  0  0
   38.5540   26.5260   40.9960 C   0  0  0  0  0  2  0  0  0  0  0  0
   38.4730   26.0230   40.0230 H   0  0  0  0  0  0  0  0  0  0  0  0
  1  2  1  0  0  0  0
  2  3  2  0  0  0  0
  2  8  1  0  0  0  0
  3 22  1  0  0  0  0
  4  3  1  0  0  0  0
  5  4  2  0  0  0  0
  6  5  1  0  0  0  0
  6  1  2  0  0  0  0
  7  1  1  0  0  0  0
  9 10  1  0  0  0  0
  9 14  1  1  0  0  0
 10 15  1  6  0  0  0
 10 11  1  0  0  0  0
 10  5  1  0  0  0  0
 11 17  1  0  0  0  0
 11 16  1  0  0  0  0
 12 11  1  0  0  0  0
 13  9  1  0  0  0  0
 13 12  1  0  0  0  0
 18 13  1  0  0  0  0
 19 13  1  0  0  0  0
 20 21  1  0  0  0  0
 20  9  1  0  0  0  0
 22 24  1  0  0  0  0
 24 23  2  1  0  0  0
 24 25  1  0  0  0  0
 26 25  1  0  0  0  0
 27 24  1  0  0  0  0
 28 27  1  0  0  0  0
 29 28  1  0  0  0  0
M  END
>  <minimizedAffinity>
-4.62088299

$$$$

 OpenBabel03252507103D

 29 30  0  0  1  0  0  0  0  0999 V2000
   36.3600   26.7400   39.5590 C   0  0  0  0  0  0  0  0  0  0  0  0
   36.0920   28.1170   39.6730 C   0  0  0  0  0  0  0  0  0  0  0  0
   36.5370   28.7510   40.8300 C   0  0  0  0  0  0  0  0  0  0  0  0
   37.1900   28.0370   41.7680 N   0  0  0  0  0  0  0  0  0  0  0  0
   37.4350   26.7290   41.6390 C   0  0  0  0  0  0  0  0  0  0  0  0
   37.0160   26.0770   40.5230 N   0  0  0  0  0  0  0  0  0  0  0  0
   36.0310   26.2040   38.6740 H   0  0  0  0  0  0  0  0  0  0  0  0
   35.5620   28.6260   38.8800 H   0  0  0  0  0  0  0  0  0  0  0  0
   38.7530   24.6410   42.0850 C   0  0  1  0  0  0  0  0  0  0  0  0
   38.1340   25.8940   42.6320 C   0  0  1  0  0  0  0  0  0  0  0  0
   39.4170   26.6060   43.0990 C   0  0  0  0  0  0  0  0  0  0  0  0
   40.3250   25.6480   43.4080 O   0  0  0  0  0  0  0  0  0  0  0  0
   39.7630   24.3870   43.2050 C   0  0  0  0  0  0  0  0  0  0  0  0
   39.3550   24.9000   41.1650 H   0  0  0  0  0  0  0  0  0  0  0  0
   37.4950   25.6840   43.4970 H   0  0  0  0  0  0  0  0  0  0  0  0
   39.7380   27.3830   42.3800 H   0  0  0  0  0  0  0  0  0  0  0  0
   39.1280   27.1440   44.0260 H   0  0  0  0  0  0  0  0  0  0  0  0
   39.1780   24.0410   44.0860 H   0  0  0  0  0  0  0  0  0  0  0  0
   40.5230   23.6450   42.8900 H   0  0  0  0  0  0  0  0  0  0  0  0
   37.8780   23.6180   41.8690 O   0  0  0  0  0  0  0  0  0  0  0  0
   37.7590   23.5210   40.8780 H   0  0  0  0  0  0  0  0  0  0  0  0
   36.2690   30.1050   40.9320 O   0  0  0  0  0  0  0  0  0  0  0  0
   38.0500   30.8840   39.1150 O   0  0  0  0  0  0  0  0  0  0  0  0
   37.4490   31.2580   40.4610 P   0  0  1  0  0  0  0  0  0  0  0  0
   36.7250   32.7600   40.4320 O   0  0  0  0  0  0  0  0  0  0  0  0
   37.4280   33.4400   40.3820 H   0  0  0  0  0  0  0  0  0  0  0  0
   38.6770   31.1780   41.6370 O   0  0  0  0  0  0  0  0  0  0  0  0
   39.7820   31.9020   41.2140 C   0  0  0  0  0  2  0  0  0  0  0  0
   40.5820   31.9170   41.9670 H   0  0  0  0  0  0  0  0  0  0  0  0
  1  2  2  0  0  0  0
  1  6  1  0  0  0  0
  2  3  1  0  0  0  0
  3 22  1  0  0  0  0
  3  4  2  0  0  0  0
  5  4  1  0  0  0  0
  5 10  1  0  0  0  0
  6  5  2  0  0  0  0
  7  1  1  0  0  0  0
  8  2  1  0  0  0  0
  9 14  1  6  0  0  0
  9 10  1  0  0  0  0
  9 13  1  0  0  0  0
 10 11  1  0  0  0  0
 10 15  1  1  0  0  0
 11 12  1  0  0  0  0
 11 17  1  0  0  0  0
 13 12  1  0  0  0  0
 13 18  1  0  0  0  0
 16 11  1  0  0  0  0
 19 13  1  0  0  0  0
 20  9  1  0  0  0  0
 21 20  1  0  0  0  0
 24 23  2  6  0  0  0
 24 22  1  0  0  0  0
 24 27  1  0  0  0  0
 25 24  1  0  0  0  0
 26 25  1  0  0  0  0
 28 27  1  0  0  0  0
 28 29  1  0  0  0  0
M  END
>  <minimizedAffinity>
-4.59113503

$$$$

 OpenBabel03252507103D

 29 30  0  0  1  0  0  0  0  0999 V2000
   40.3330   29.2250   37.5320 C   0  0  0  0  0  0  0  0  0  0  0  0
   39.1290   29.9040   37.7980 C   0  0  0  0  0  0  0  0  0  0  0  0
   39.1930   31.2930   37.8660 C   0  0  0  0  0  0  0  0  0  0  0  0
   40.3750   31.9120   37.6780 N   0  0  0  0  0  0  0  0  0  0  0  0
   41.5070   31.2470   37.4250 C   0  0  0  0  0  0  0  0  0  0  0  0
   41.4830   29.8910   37.3510 N   0  0  0  0  0  0  0  0  0  0  0  0
   40.3310   28.1410   37.4710 H   0  0  0  0  0  0  0  0  0  0  0  0
   38.2170   29.3400   37.9390 H   0  0  0  0  0  0  0  0  0  0  0  0
   42.8940   33.3360   37.5260 C   0  0  1  0  0  0  0  0  0  0  0  0
   42.8280   31.8670   37.2210 C   0  0  1  0  0  0  0  0  0  0  0  0
   43.8110   31.3610   38.2930 C   0  0  0  0  0  0  0  0  0  0  0  0
   44.6990   32.3560   38.5340 O   0  0  0  0  0  0  0  0  0  0  0  0
   44.4060   33.4530   37.7220 C   0  0  0  0  0  0  0  0  0  0  0  0
   42.4250   33.5230   38.5370 H   0  0  0  0  0  0  0  0  0  0  0  0
   43.2240   31.6440   36.2240 H   0  0  0  0  0  0  0  0  0  0  0  0
   43.2800   30.9440   39.1690 H   0  0  0  0  0  0  0  0  0  0  0  0
   44.3410   30.5090   37.8190 H   0  0  0  0  0  0  0  0  0  0  0  0
   44.8640   33.3620   36.7120 H   0  0  0  0  0  0  0  0  0  0  0  0
   44.6670   34.4100   38.2150 H   0  0  0  0  0  0  0  0  0  0  0  0
   42.3860   34.1450   36.5530 O   0  0  0  0  0  0  0  0  0  0  0  0
   41.5160   34.5160   36.8880 H   0  0  0  0  0  0  0  0  0  0  0  0
   38.0040   31.9520   38.1270 O   0  0  0  0  0  0  0  0  0  0  0  0
   38.6610   31.9850   40.7060 O   0  0  0  0  0  0  0  0  0  0  0  0
   37.5070   32.2270   39.7460 P   0  0  1  0  0  0  0  0  0  0  0  0
   36.9170   33.7840   39.8490 O   0  0  0  0  0  0  0  0  0  0  0  0
   36.4350   33.8750   40.6980 H   0  0  0  0  0  0  0  0  0  0  0  0
   36.2930   31.0770   40.0650 O   0  0  0  0  0  0  0  0  0  0  0  0
   36.7760   30.1120   40.9360 C   0  0  0  0  0  2  0  0  0  0  0  0
   36.0080   29.3740   41.2070 H   0  0  0  0  0  0  0  0  0  0  0  0
  1  2  1  0  0  0  0
  2  3  2  0  0  0  0
  2  8  1  0  0  0  0
  3 22  1  0  0  0  0
  4  3  1  0  0  0  0
  5  4  2  0  0  0  0
  6  5  1  0  0  0  0
  6  1  2  0  0  0  0
  7  1  1  0  0  0  0
  9 13  1  0  0  0  0
  9 14  1  1  0  0  0
 10 15  1  6  0  0  0
 10  5  1  0  0  0  0
 10  9  1  0  0  0  0
 10 11  1  0  0  0  0
 11 12  1  0  0  0  0
 11 16  1  0  0  0  0
 13 19  1  0  0  0  0
 13 12  1  0  0  0  0
 17 11  1  0  0  0  0
 18 13  1  0  0  0  0
 20 21  1  0  0  0  0
 20  9  1  0  0  0  0
 22 24  1  0  0  0  0
 24 25  1  0  0  0  0
 24 27  1  0  0  0  0
 24 23  2  1  0  0  0
 25 26  1  0  0  0  0
 27 28  1  0  0  0  0
 28 29  1  0  0  0  0
M  END
>  <minimizedAffinity>
-4.59108162

$$$$

 OpenBabel03252507103D

 29 30  0  0  1  0  0  0  0  0999 V2000
   39.5500   28.5160   38.2650 C   0  0  0  0  0  0  0  0  0  0  0  0
   39.2480   29.8620   37.9790 C   0  0  0  0  0  0  0  0  0  0  0  0
   38.5860   30.5810   38.9700 C   0  0  0  0  0  0  0  0  0  0  0  0
   38.2700   29.9750   40.1310 N   0  0  0  0  0  0  0  0  0  0  0  0
   38.5680   28.6960   40.3820 C   0  0  0  0  0  0  0  0  0  0  0  0
   39.2140   27.9620   39.4390 N   0  0  0  0  0  0  0  0  0  0  0  0
   40.0650   27.9160   37.5210 H   0  0  0  0  0  0  0  0  0  0  0  0
   39.5310   30.2820   37.0240 H   0  0  0  0  0  0  0  0  0  0  0  0
   36.9210   28.3420   42.2430 C   0  0  1  0  0  0  0  0  0  0  0  0
   38.2410   27.9770   41.6260 C   0  0  1  0  0  0  0  0  0  0  0  0
   37.9510   26.4980   41.3110 C   0  0  0  0  0  0  0  0  0  0  0  0
   37.0450   26.0580   42.2190 O   0  0  0  0  0  0  0  0  0  0  0  0
   36.7240   27.0910   43.1000 C   0  0  0  0  0  0  0  0  0  0  0  0
   36.1220   28.3110   41.4450 H   0  0  0  0  0  0  0  0  0  0  0  0
   39.0580   28.0450   42.3530 H   0  0  0  0  0  0  0  0  0  0  0  0
   37.7010   26.3490   40.2450 H   0  0  0  0  0  0  0  0  0  0  0  0
   38.9150   25.9730   41.4790 H   0  0  0  0  0  0  0  0  0  0  0  0
   37.4490   27.1670   43.9400 H   0  0  0  0  0  0  0  0  0  0  0  0
   35.6780   27.0170   43.4550 H   0  0  0  0  0  0  0  0  0  0  0  0
   36.9210   29.5130   42.9420 O   0  0  0  0  0  0  0  0  0  0  0  0
   36.4100   30.1890   42.4050 H   0  0  0  0  0  0  0  0  0  0  0  0
   38.2940   31.9030   38.6790 O   0  0  0  0  0  0  0  0  0  0  0  0
   37.0040   34.1610   39.2450 O   0  0  0  0  0  0  0  0  0  0  0  0
   37.6150   32.9220   39.8810 P   0  0  1  0  0  0  0  0  0  0  0  0
   36.4920   32.0350   40.7380 O   0  0  0  0  0  0  0  0  0  0  0  0
   36.2640   32.5310   41.5520 H   0  0  0  0  0  0  0  0  0  0  0  0
   38.9120   33.4090   40.8690 O   0  0  0  0  0  0  0  0  0  0  0  0
   40.0200   33.6940   40.0860 C   0  0  0  0  0  2  0  0  0  0  0  0
   40.8670   34.0600   40.6820 H   0  0  0  0  0  0  0  0  0  0  0  0
  1  6  1  0  0  0  0
  2  1  2  0  0  0  0
  2  3  1  0  0  0  0
  3  4  2  0  0  0  0
  4  5  1  0  0  0  0
  5 10  1  0  0  0  0
  6  5  2  0  0  0  0
  7  1  1  0  0  0  0
  8  2  1  0  0  0  0
  9 14  1  6  0  0  0
  9 20  1  0  0  0  0
  9 13  1  0  0  0  0
 10  9  1  0  0  0  0
 10 15  1  1  0  0  0
 11 17  1  0  0  0  0
 11 10  1  0  0  0  0
 11 12  1  0  0  0  0
 12 13  1  0  0  0  0
 13 19  1  0  0  0  0
 13 18  1  0  0  0  0
 16 11  1  0  0  0  0
 21 20  1  0  0  0  0
 22  3  1  0  0  0  0
 22 24  1  0  0  0  0
 24 23  2  6  0  0  0
 24 25  1  0  0  0  0
 24 27  1  0  0  0  0
 25 26  1  0  0  0  0
 28 29  1  0  0  0  0
 28 27  1  0  0  0  0
M  END
>  <minimizedAffinity>
-4.58835745

$$$$

 OpenBabel03252507103D

 29 30  0  0  1  0  0  0  0  0999 V2000
   36.4510   30.3490   38.3860 C   0  0  0  0  0  0  0  0  0  0  0  0
   36.7240   29.2300   39.1960 C   0  0  0  0  0  0  0  0  0  0  0  0
   37.8130   29.3280   40.0570 C   0  0  0  0  0  0  0  0  0  0  0  0
   38.5420   30.4610   40.0780 N   0  0  0  0  0  0  0  0  0  0  0  0
   38.2640   31.5130   39.3010 C   0  0  0  0  0  0  0  0  0  0  0  0
   37.2080   31.4540   38.4480 N   0  0  0  0  0  0  0  0  0  0  0  0
   35.6110   30.3170   37.6990 H   0  0  0  0  0  0  0  0  0  0  0  0
   36.0950   28.3520   39.1250 H   0  0  0  0  0  0  0  0  0  0  0  0
   39.5720   33.2150   40.6010 C   0  0  1  0  0  0  0  0  0  0  0  0
   39.0280   32.7720   39.2730 C   0  0  1  0  0  0  0  0  0  0  0  0
   40.3620   32.5550   38.5340 C   0  0  0  0  0  0  0  0  0  0  0  0
   41.2730   33.3970   39.0810 O   0  0  0  0  0  0  0  0  0  0  0  0
   40.6690   34.1490   40.0890 C   0  0  0  0  0  0  0  0  0  0  0  0
   40.0980   32.3430   41.0910 H   0  0  0  0  0  0  0  0  0  0  0  0
   38.4620   33.5720   38.7820 H   0  0  0  0  0  0  0  0  0  0  0  0
   40.6360   31.4840   38.4920 H   0  0  0  0  0  0  0  0  0  0  0  0
   40.1660   32.8650   37.4870 H   0  0  0  0  0  0  0  0  0  0  0  0
   40.1550   35.0510   39.6900 H   0  0  0  0  0  0  0  0  0  0  0  0
   41.3830   34.3990   40.8990 H   0  0  0  0  0  0  0  0  0  0  0  0
   38.6610   33.8090   41.4230 O   0  0  0  0  0  0  0  0  0  0  0  0
   38.4550   33.1660   42.1650 H   0  0  0  0  0  0  0  0  0  0  0  0
   38.0730   28.2220   40.8490 O   0  0  0  0  0  0  0  0  0  0  0  0
   39.2370   28.3750   43.2380 O   0  0  0  0  0  0  0  0  0  0  0  0
   37.8810   28.3150   42.5510 P   0  0  1  0  0  0  0  0  0  0  0  0
   36.9420   29.6510   42.8950 O   0  0  0  0  0  0  0  0  0  0  0  0
   36.6470   29.5880   43.8280 H   0  0  0  0  0  0  0  0  0  0  0  0
   37.1080   26.8720   43.0150 O   0  0  0  0  0  0  0  0  0  0  0  0
   37.2220   25.9310   42.0030 C   0  0  0  0  0  2  0  0  0  0  0  0
   36.7770   24.9650   42.2820 H   0  0  0  0  0  0  0  0  0  0  0  0
  1  6  2  0  0  0  0
  1  2  1  0  0  0  0
  2  3  2  0  0  0  0
  3  4  1  0  0  0  0
  3 22  1  0  0  0  0
  5  4  2  0  0  0  0
  6  5  1  0  0  0  0
  7  1  1  0  0  0  0
  8  2  1  0  0  0  0
  9 14  1  1  0  0  0
  9 20  1  0  0  0  0
 10 15  1  6  0  0  0
 10  5  1  0  0  0  0
 10  9  1  0  0  0  0
 11 12  1  0  0  0  0
 11 10  1  0  0  0  0
 12 13  1  0  0  0  0
 13  9  1  0  0  0  0
 13 19  1  0  0  0  0
 16 11  1  0  0  0  0
 17 11  1  0  0  0  0
 18 13  1  0  0  0  0
 20 21  1  0  0  0  0
 22 24  1  0  0  0  0
 24 25  1  0  0  0  0
 24 27  1  0  0  0  0
 24 23  2  1  0  0  0
 25 26  1  0  0  0  0
 28 29  1  0  0  0  0
 28 27  1  0  0  0  0
M  END
>  <minimizedAffinity>
-4.57019711

$$$$

 OpenBabel03252507103D

 29 30  0  0  1  0  0  0  0  0999 V2000
   41.4800   29.5960   42.5780 C   0  0  0  0  0  0  0  0  0  0  0  0
   41.0040   30.8690   42.2110 C   0  0  0  0  0  0  0  0  0  0  0  0
   39.6220   31.0290   42.1500 C   0  0  0  0  0  0  0  0  0  0  0  0
   38.8200   29.9850   42.4370 N   0  0  0  0  0  0  0  0  0  0  0  0
   39.2940   28.7840   42.7840 C   0  0  0  0  0  0  0  0  0  0  0  0
   40.6380   28.5900   42.8560 N   0  0  0  0  0  0  0  0  0  0  0  0
   42.5510   29.4250   42.6380 H   0  0  0  0  0  0  0  0  0  0  0  0
   41.7080   31.6610   41.9940 H   0  0  0  0  0  0  0  0  0  0  0  0
   37.2720   27.4130   42.2140 C   0  0  1  0  0  0  0  0  0  0  0  0
   38.4690   27.6050   43.1000 C   0  0  1  0  0  0  0  0  0  0  0  0
   39.2380   26.3210   42.7370 C   0  0  0  0  0  0  0  0  0  0  0  0
   38.3240   25.3870   42.3750 O   0  0  0  0  0  0  0  0  0  0  0  0
   37.0400   25.9240   42.4770 C   0  0  0  0  0  0  0  0  0  0  0  0
   37.5960   27.4990   41.1350 H   0  0  0  0  0  0  0  0  0  0  0  0
   38.1950   27.5820   44.1600 H   0  0  0  0  0  0  0  0  0  0  0  0
   40.0550   26.5220   42.0190 H   0  0  0  0  0  0  0  0  0  0  0  0
   39.7280   26.0010   43.6800 H   0  0  0  0  0  0  0  0  0  0  0  0
   36.6330   25.8450   43.5090 H   0  0  0  0  0  0  0  0  0  0  0  0
   36.3540   25.4930   41.7230 H   0  0  0  0  0  0  0  0  0  0  0  0
   36.2080   28.2120   42.5100 O   0  0  0  0  0  0  0  0  0  0  0  0
   36.1370   28.9060   41.7890 H   0  0  0  0  0  0  0  0  0  0  0  0
   39.1640   32.2840   41.7890 O   0  0  0  0  0  0  0  0  0  0  0  0
   38.7160   31.3130   39.3520 O   0  0  0  0  0  0  0  0  0  0  0  0
   38.5670   32.5630   40.2050 P   0  0  1  0  0  0  0  0  0  0  0  0
   36.9780   33.0570   40.3290 O   0  0  0  0  0  0  0  0  0  0  0  0
   36.7020   33.4250   39.4640 H   0  0  0  0  0  0  0  0  0  0  0  0
   39.5500   33.7850   39.5420 O   0  0  0  0  0  0  0  0  0  0  0  0
   40.7300   33.2330   39.0650 C   0  0  0  0  0  2  0  0  0  0  0  0
   41.3740   33.9820   38.5840 H   0  0  0  0  0  0  0  0  0  0  0  0
  1  7  1  0  0  0  0
  1  6  1  0  0  0  0
  2  1  2  0  0  0  0
  3  2  1  0  0  0  0
  3  4  2  0  0  0  0
  4  5  1  0  0  0  0
  5  6  2  0  0  0  0
  5 10  1  0  0  0  0
  8  2  1  0  0  0  0
  9 14  1  6  0  0  0
  9 13  1  0  0  0  0
  9 20  1  0  0  0  0
  9 10  1  0  0  0  0
 10 15  1  1  0  0  0
 11 10  1  0  0  0  0
 11 17  1  0  0  0  0
 12 13  1  0  0  0  0
 12 11  1  0  0  0  0
 13 18  1  0  0  0  0
 16 11  1  0  0  0  0
 19 13  1  0  0  0  0
 21 20  1  0  0  0  0
 22  3  1  0  0  0  0
 24 23  2  6  0  0  0
 24 25  1  0  0  0  0
 24 22  1  0  0  0  0
 26 25  1  0  0  0  0
 27 24  1  0  0  0  0
 28 27  1  0  0  0  0
 29 28  1  0  0  0  0
M  END
>  <minimizedAffinity>
-4.56478405

$$$$
