
 OpenBabel03242520473D

 21 21  0  0  0  0  0  0  0  0999 V2000
   38.3390   24.8520   42.3890 C   0  0  0  0  0  0  0  0  0  0  0  0
   37.7020   26.0870   42.1960 C   0  0  0  0  0  0  0  0  0  0  0  0
   38.2610   27.2120   42.7850 C   0  0  0  0  0  0  0  0  0  0  0  0
   39.3810   27.0840   43.5120 N   0  0  0  0  0  0  0  0  0  0  0  0
   39.9710   25.8760   43.6790 C   0  0  0  0  0  0  0  0  0  0  0  0
   39.4440   24.7920   43.1200 N   0  0  0  0  0  0  0  0  0  0  0  0
   37.7830   23.6760   41.7930 N   0  0  0  0  0  0  0  0  0  0  0  0
   36.7870   26.1210   41.5870 H   0  0  0  0  0  0  0  0  0  0  0  0
   40.8750   25.8080   44.2740 H   0  0  0  0  0  0  0  0  0  0  0  0
   36.8620   23.3170   42.1680 H   0  0  0  0  0  0  0  0  0  0  0  0
   38.2040   23.1460   41.0250 H   0  0  0  0  0  0  0  0  0  0  0  0
   37.5590   28.4590   42.5490 C   0  0  0  0  0  0  0  0  0  0  0  0
   37.9010   29.5830   42.9840 O   0  0  0  0  0  0  0  0  0  0  0  0
   36.4210   28.2510   41.7560 O   0  0  0  0  0  0  0  0  0  0  0  0
   34.5430   29.0440   40.0230 O   0  0  0  0  0  0  0  0  0  0  0  0
   35.8630   29.3960   40.6230 P   0  0  1  0  0  0  0  0  0  0  0  0
   35.6650   30.8490   41.4980 O   0  0  0  0  0  0  0  0  0  0  0  0
   34.8120   31.2790   41.2700 H   0  0  0  0  0  0  0  0  0  0  0  0
   37.0250   29.6420   39.4410 O   0  0  0  0  0  0  0  0  0  0  0  0
   36.4280   29.9120   38.2080 C   0  0  0  0  0  2  0  0  0  0  0  0
   36.3470   31.0100   38.0120 H   0  0  0  0  0  0  0  0  0  0  0  0
  1  6  1  0  0  0  0
  2  1  2  0  0  0  0
  2  3  1  0  0  0  0
  3  4  2  0  0  0  0
  4  5  1  0  0  0  0
  5  9  1  0  0  0  0
  6  5  2  0  0  0  0
  7 10  1  0  0  0  0
  7  1  1  0  0  0  0
  8  2  1  0  0  0  0
 11  7  1  0  0  0  0
 12  3  1  0  0  0  0
 12 13  2  0  0  0  0
 14 12  1  0  0  0  0
 16 15  2  6  0  0  0
 16 17  1  0  0  0  0
 16 14  1  0  0  0  0
 18 17  1  0  0  0  0
 19 16  1  0  0  0  0
 20 19  1  0  0  0  0
 21 20  1  0  0  0  0
M  END
>  <minimizedAffinity>
-4.56033182

$$$$

 OpenBabel03242520473D

 21 21  0  0  0  0  0  0  0  0999 V2000
   39.8100   25.3340   43.1290 C   0  0  0  0  0  0  0  0  0  0  0  0
   38.5620   25.9750   43.1640 C   0  0  0  0  0  0  0  0  0  0  0  0
   38.5390   27.3620   43.2160 C   0  0  0  0  0  0  0  0  0  0  0  0
   39.6980   28.0380   43.2320 N   0  0  0  0  0  0  0  0  0  0  0  0
   40.8860   27.3870   43.1980 C   0  0  0  0  0  0  0  0  0  0  0  0
   40.9200   26.0600   43.1470 N   0  0  0  0  0  0  0  0  0  0  0  0
   39.8620   23.9050   43.0750 N   0  0  0  0  0  0  0  0  0  0  0  0
   37.6520   25.3600   43.1470 H   0  0  0  0  0  0  0  0  0  0  0  0
   41.8040   27.9640   43.2120 H   0  0  0  0  0  0  0  0  0  0  0  0
   39.5510   23.3650   43.9280 H   0  0  0  0  0  0  0  0  0  0  0  0
   40.1780   23.3540   42.2710 H   0  0  0  0  0  0  0  0  0  0  0  0
   37.2210   27.9670   43.2500 C   0  0  0  0  0  0  0  0  0  0  0  0
   36.1780   27.4210   43.6770 O   0  0  0  0  0  0  0  0  0  0  0  0
   37.2560   29.2710   42.7340 O   0  0  0  0  0  0  0  0  0  0  0  0
   35.8810   28.5740   40.5460 O   0  0  0  0  0  0  0  0  0  0  0  0
   36.6780   29.6650   41.1790 P   0  0  1  0  0  0  0  0  0  0  0  0
   35.6430   31.0050   41.3990 O   0  0  0  0  0  0  0  0  0  0  0  0
   34.8120   30.8900   40.8900 H   0  0  0  0  0  0  0  0  0  0  0  0
   37.9540   30.1350   40.2000 O   0  0  0  0  0  0  0  0  0  0  0  0
   38.9250   30.8100   40.9420 C   0  0  0  0  0  2  0  0  0  0  0  0
   39.7490   30.1290   41.2720 H   0  0  0  0  0  0  0  0  0  0  0  0
  1  6  2  0  0  0  0
  1  2  1  0  0  0  0
  2  3  2  0  0  0  0
  3  4  1  0  0  0  0
  3 12  1  0  0  0  0
  5  9  1  0  0  0  0
  5  4  2  0  0  0  0
  6  5  1  0  0  0  0
  7  1  1  0  0  0  0
  7 10  1  0  0  0  0
  8  2  1  0  0  0  0
 11  7  1  0  0  0  0
 12 13  2  0  0  0  0
 14 12  1  0  0  0  0
 16 15  2  6  0  0  0
 16 17  1  0  0  0  0
 16 14  1  0  0  0  0
 18 17  1  0  0  0  0
 19 20  1  0  0  0  0
 19 16  1  0  0  0  0
 20 21  1  0  0  0  0
M  END
>  <minimizedAffinity>
-4.44877529

$$$$

 OpenBabel03242520473D

 21 21  0  0  0  0  0  0  0  0999 V2000
   40.0440   32.3990   38.2800 C   0  0  0  0  0  0  0  0  0  0  0  0
   39.3720   31.4200   39.0270 C   0  0  0  0  0  0  0  0  0  0  0  0
   39.4090   31.5120   40.4110 C   0  0  0  0  0  0  0  0  0  0  0  0
   40.0800   32.5220   40.9850 N   0  0  0  0  0  0  0  0  0  0  0  0
   40.7200   33.4500   40.2340 C   0  0  0  0  0  0  0  0  0  0  0  0
   40.6910   33.3730   38.9070 N   0  0  0  0  0  0  0  0  0  0  0  0
   40.0220   32.3280   36.8510 N   0  0  0  0  0  0  0  0  0  0  0  0
   38.8410   30.6200   38.4930 H   0  0  0  0  0  0  0  0  0  0  0  0
   41.2530   34.2540   40.7290 H   0  0  0  0  0  0  0  0  0  0  0  0
   40.5470   31.5380   36.3850 H   0  0  0  0  0  0  0  0  0  0  0  0
   39.5340   32.9840   36.2340 H   0  0  0  0  0  0  0  0  0  0  0  0
   38.6960   30.4720   41.1290 C   0  0  0  0  0  0  0  0  0  0  0  0
   38.8230   30.2070   42.3470 O   0  0  0  0  0  0  0  0  0  0  0  0
   37.8230   29.7830   40.2750 O   0  0  0  0  0  0  0  0  0  0  0  0
   35.9050   28.4630   41.5940 O   0  0  0  0  0  0  0  0  0  0  0  0
   36.1680   29.5650   40.6240 P   0  0  1  0  0  0  0  0  0  0  0  0
   35.6550   31.0250   41.3450 O   0  0  0  0  0  0  0  0  0  0  0  0
   35.1040   30.8470   42.1380 H   0  0  0  0  0  0  0  0  0  0  0  0
   35.3100   29.3450   39.2020 O   0  0  0  0  0  0  0  0  0  0  0  0
   36.0260   29.8370   38.1100 C   0  0  0  0  0  2  0  0  0  0  0  0
   36.6110   29.0350   37.5950 H   0  0  0  0  0  0  0  0  0  0  0  0
  1  6  2  0  0  0  0
  1  2  1  0  0  0  0
  2  3  2  0  0  0  0
  3  4  1  0  0  0  0
  3 12  1  0  0  0  0
  5  9  1  0  0  0  0
  5  4  2  0  0  0  0
  6  5  1  0  0  0  0
  7  1  1  0  0  0  0
  8  2  1  0  0  0  0
 10  7  1  0  0  0  0
 11  7  1  0  0  0  0
 12 13  2  0  0  0  0
 14 16  1  0  0  0  0
 14 12  1  0  0  0  0
 16 17  1  0  0  0  0
 16 15  2  1  0  0  0
 17 18  1  0  0  0  0
 19 16  1  0  0  0  0
 20 19  1  0  0  0  0
 21 20  1  0  0  0  0
M  END
>  <minimizedAffinity>
-4.375144

$$$$

 OpenBabel03242520473D

 21 21  0  0  0  0  0  0  0  0999 V2000
   37.2970   26.7090   42.1600 C   0  0  0  0  0  0  0  0  0  0  0  0
   36.5490   27.5960   41.3710 C   0  0  0  0  0  0  0  0  0  0  0  0
   36.6500   28.9540   41.6360 C   0  0  0  0  0  0  0  0  0  0  0  0
   37.4520   29.3720   42.6270 N   0  0  0  0  0  0  0  0  0  0  0  0
   38.1610   28.4880   43.3700 C   0  0  0  0  0  0  0  0  0  0  0  0
   38.0720   27.1850   43.1250 N   0  0  0  0  0  0  0  0  0  0  0  0
   37.2110   25.3030   41.9080 N   0  0  0  0  0  0  0  0  0  0  0  0
   35.9120   27.1860   40.5740 H   0  0  0  0  0  0  0  0  0  0  0  0
   38.8000   28.8590   44.1640 H   0  0  0  0  0  0  0  0  0  0  0  0
   36.3010   24.8140   42.1310 H   0  0  0  0  0  0  0  0  0  0  0  0
   37.9630   24.7230   41.5250 H   0  0  0  0  0  0  0  0  0  0  0  0
   35.8540   29.8210   40.7870 C   0  0  0  0  0  0  0  0  0  0  0  0
   34.9360   29.4480   40.0210 O   0  0  0  0  0  0  0  0  0  0  0  0
   36.2460   31.1600   40.9320 O   0  0  0  0  0  0  0  0  0  0  0  0
   37.0390   31.5610   38.4080 O   0  0  0  0  0  0  0  0  0  0  0  0
   37.2830   31.9430   39.8290 P   0  0  1  0  0  0  0  0  0  0  0  0
   36.9440   33.6100   39.9840 O   0  0  0  0  0  0  0  0  0  0  0  0
   36.8680   34.0330   39.1020 H   0  0  0  0  0  0  0  0  0  0  0  0
   38.8790   31.6840   40.2650 O   0  0  0  0  0  0  0  0  0  0  0  0
   39.5600   30.9890   39.2630 C   0  0  0  0  0  2  0  0  0  0  0  0
   40.1140   31.6770   38.5780 H   0  0  0  0  0  0  0  0  0  0  0  0
  1  6  1  0  0  0  0
  2  3  1  0  0  0  0
  2  1  2  0  0  0  0
  3  4  2  0  0  0  0
  4  5  1  0  0  0  0
  5  9  1  0  0  0  0
  6  5  2  0  0  0  0
  7 10  1  0  0  0  0
  7  1  1  0  0  0  0
  8  2  1  0  0  0  0
 11  7  1  0  0  0  0
 12 14  1  0  0  0  0
 12  3  1  0  0  0  0
 13 12  2  0  0  0  0
 16 15  2  6  0  0  0
 16 17  1  0  0  0  0
 16 19  1  0  0  0  0
 16 14  1  0  0  0  0
 18 17  1  0  0  0  0
 20 19  1  0  0  0  0
 21 20  1  0  0  0  0
M  END
>  <minimizedAffinity>
-4.35399103

$$$$

 OpenBabel03242520473D

 21 21  0  0  0  0  0  0  0  0999 V2000
   39.6180   32.3030   38.3840 C   0  0  0  0  0  0  0  0  0  0  0  0
   38.6240   31.4870   38.9450 C   0  0  0  0  0  0  0  0  0  0  0  0
   38.4330   31.5380   40.3190 C   0  0  0  0  0  0  0  0  0  0  0  0
   39.1960   32.3580   41.0580 N   0  0  0  0  0  0  0  0  0  0  0  0
   40.1470   33.1320   40.4840 C   0  0  0  0  0  0  0  0  0  0  0  0
   40.3390   33.0920   39.1700 N   0  0  0  0  0  0  0  0  0  0  0  0
   39.8360   32.2690   36.9700 N   0  0  0  0  0  0  0  0  0  0  0  0
   38.0350   30.8400   38.2820 H   0  0  0  0  0  0  0  0  0  0  0  0
   40.7470   33.7830   41.1110 H   0  0  0  0  0  0  0  0  0  0  0  0
   40.2500   31.3910   36.5530 H   0  0  0  0  0  0  0  0  0  0  0  0
   39.6230   33.0310   36.3200 H   0  0  0  0  0  0  0  0  0  0  0  0
   37.3920   30.6730   40.8410 C   0  0  0  0  0  0  0  0  0  0  0  0
   36.2360   31.0340   41.1620 O   0  0  0  0  0  0  0  0  0  0  0  0
   37.8450   29.3500   40.9440 O   0  0  0  0  0  0  0  0  0  0  0  0
   39.5230   28.8800   42.9750 O   0  0  0  0  0  0  0  0  0  0  0  0
   38.1600   28.5950   42.4400 P   0  0  1  0  0  0  0  0  0  0  0  0
   37.0250   29.2520   43.5340 O   0  0  0  0  0  0  0  0  0  0  0  0
   37.4570   29.4900   44.3820 H   0  0  0  0  0  0  0  0  0  0  0  0
   37.8850   26.9470   42.3160 O   0  0  0  0  0  0  0  0  0  0  0  0
   37.0820   26.6610   41.2100 C   0  0  0  0  0  2  0  0  0  0  0  0
   37.6870   26.3800   40.3130 H   0  0  0  0  0  0  0  0  0  0  0  0
  1  2  2  0  0  0  0
  1  6  1  0  0  0  0
  2  3  1  0  0  0  0
  3 12  1  0  0  0  0
  3  4  2  0  0  0  0
  5  4  1  0  0  0  0
  5  9  1  0  0  0  0
  6  5  2  0  0  0  0
  7  1  1  0  0  0  0
  8  2  1  0  0  0  0
 10  7  1  0  0  0  0
 11  7  1  0  0  0  0
 12 14  1  0  0  0  0
 12 13  2  0  0  0  0
 14 16  1  0  0  0  0
 16 15  2  1  0  0  0
 16 17  1  0  0  0  0
 17 18  1  0  0  0  0
 19 16  1  0  0  0  0
 20 19  1  0  0  0  0
 21 20  1  0  0  0  0
M  END
>  <minimizedAffinity>
-4.31417036

$$$$

 OpenBabel03242520473D

 21 21  0  0  0  0  0  0  0  0999 V2000
   36.4080   29.1580   35.4360 C   0  0  0  0  0  0  0  0  0  0  0  0
   36.9690   29.9090   36.4790 C   0  0  0  0  0  0  0  0  0  0  0  0
   36.2950   29.9530   37.6910 C   0  0  0  0  0  0  0  0  0  0  0  0
   35.1410   29.2820   37.8260 N   0  0  0  0  0  0  0  0  0  0  0  0
   34.6260   28.5660   36.7980 C   0  0  0  0  0  0  0  0  0  0  0  0
   35.2630   28.5170   35.6320 N   0  0  0  0  0  0  0  0  0  0  0  0
   37.0820   29.0960   34.1750 N   0  0  0  0  0  0  0  0  0  0  0  0
   37.9180   30.4340   36.3010 H   0  0  0  0  0  0  0  0  0  0  0  0
   33.6910   28.0360   36.9400 H   0  0  0  0  0  0  0  0  0  0  0  0
   37.1210   29.9750   33.5890 H   0  0  0  0  0  0  0  0  0  0  0  0
   37.5360   28.2640   33.7870 H   0  0  0  0  0  0  0  0  0  0  0  0
   36.9250   30.7450   38.7310 C   0  0  0  0  0  0  0  0  0  0  0  0
   36.9810   31.9960   38.7630 O   0  0  0  0  0  0  0  0  0  0  0  0
   37.4760   29.9210   39.7230 O   0  0  0  0  0  0  0  0  0  0  0  0
   37.8370   30.0340   42.3720 O   0  0  0  0  0  0  0  0  0  0  0  0
   36.8290   29.8090   41.2970 P   0  0  1  0  0  0  0  0  0  0  0  0
   35.6660   31.0550   41.4050 O   0  0  0  0  0  0  0  0  0  0  0  0
   35.7530   31.5390   42.2550 H   0  0  0  0  0  0  0  0  0  0  0  0
   36.0490   28.3380   41.4890 O   0  0  0  0  0  0  0  0  0  0  0  0
   36.6820   27.5660   42.4650 C   0  0  0  0  0  2  0  0  0  0  0  0
   36.1970   27.6770   43.4670 H   0  0  0  0  0  0  0  0  0  0  0  0
  1  6  2  0  0  0  0
  1  2  1  0  0  0  0
  2  3  2  0  0  0  0
  3  4  1  0  0  0  0
  3 12  1  0  0  0  0
  5  9  1  0  0  0  0
  5  4  2  0  0  0  0
  6  5  1  0  0  0  0
  7  1  1  0  0  0  0
  8  2  1  0  0  0  0
 10  7  1  0  0  0  0
 11  7  1  0  0  0  0
 12 13  2  0  0  0  0
 12 14  1  0  0  0  0
 14 16  1  0  0  0  0
 16 17  1  0  0  0  0
 16 19  1  0  0  0  0
 16 15  2  1  0  0  0
 17 18  1  0  0  0  0
 19 20  1  0  0  0  0
 20 21  1  0  0  0  0
M  END
>  <minimizedAffinity>
-4.27777147

$$$$

 OpenBabel03242520473D

 21 21  0  0  0  0  0  0  0  0999 V2000
   37.6250   31.3430   36.9770 C   0  0  0  0  0  0  0  0  0  0  0  0
   37.6120   31.4490   38.3770 C   0  0  0  0  0  0  0  0  0  0  0  0
   36.8920   30.5080   39.0980 C   0  0  0  0  0  0  0  0  0  0  0  0
   36.2380   29.5370   38.4430 N   0  0  0  0  0  0  0  0  0  0  0  0
   36.2700   29.4640   37.0910 C   0  0  0  0  0  0  0  0  0  0  0  0
   36.9570   30.3590   36.3890 N   0  0  0  0  0  0  0  0  0  0  0  0
   38.3600   32.3000   36.2090 N   0  0  0  0  0  0  0  0  0  0  0  0
   38.1700   32.2690   38.8490 H   0  0  0  0  0  0  0  0  0  0  0  0
   35.7310   28.6670   36.5920 H   0  0  0  0  0  0  0  0  0  0  0  0
   38.0020   33.2940   36.1810 H   0  0  0  0  0  0  0  0  0  0  0  0
   39.2130   32.1040   35.6780 H   0  0  0  0  0  0  0  0  0  0  0  0
   36.9160   30.6700   40.5400 C   0  0  0  0  0  0  0  0  0  0  0  0
   35.9600   31.0650   41.2470 O   0  0  0  0  0  0  0  0  0  0  0  0
   38.1700   30.3200   41.0620 O   0  0  0  0  0  0  0  0  0  0  0  0
   39.6740   29.1720   42.9530 O   0  0  0  0  0  0  0  0  0  0  0  0
   38.3780   29.0870   42.2210 P   0  0  1  0  0  0  0  0  0  0  0  0
   37.1230   29.3090   43.3570 O   0  0  0  0  0  0  0  0  0  0  0  0
   37.4660   29.2340   44.2740 H   0  0  0  0  0  0  0  0  0  0  0  0
   38.1810   27.5880   41.4990 O   0  0  0  0  0  0  0  0  0  0  0  0
   37.0770   26.9210   42.0350 C   0  0  0  0  0  2  0  0  0  0  0  0
   36.1570   27.0680   41.4160 H   0  0  0  0  0  0  0  0  0  0  0  0
  1  2  1  0  0  0  0
  2  8  1  0  0  0  0
  2  3  2  0  0  0  0
  3 12  1  0  0  0  0
  4  3  1  0  0  0  0
  5  4  2  0  0  0  0
  6  1  2  0  0  0  0
  6  5  1  0  0  0  0
  7  1  1  0  0  0  0
  9  5  1  0  0  0  0
 10  7  1  0  0  0  0
 11  7  1  0  0  0  0
 12 14  1  0  0  0  0
 12 13  2  0  0  0  0
 14 16  1  0  0  0  0
 16 15  2  1  0  0  0
 16 17  1  0  0  0  0
 17 18  1  0  0  0  0
 19 20  1  0  0  0  0
 19 16  1  0  0  0  0
 21 20  1  0  0  0  0
M  END
>  <minimizedAffinity>
-4.21924067

$$$$

 OpenBabel03242520473D

 21 21  0  0  0  0  0  0  0  0999 V2000
   38.7170   24.7670   42.5050 C   0  0  0  0  0  0  0  0  0  0  0  0
   38.7020   26.1510   42.7340 C   0  0  0  0  0  0  0  0  0  0  0  0
   37.7870   26.9220   42.0320 C   0  0  0  0  0  0  0  0  0  0  0  0
   36.9550   26.3260   41.1650 N   0  0  0  0  0  0  0  0  0  0  0  0
   36.9960   24.9860   40.9660 C   0  0  0  0  0  0  0  0  0  0  0  0
   37.8680   24.2380   41.6340 N   0  0  0  0  0  0  0  0  0  0  0  0
   39.6510   23.9480   43.2160 N   0  0  0  0  0  0  0  0  0  0  0  0
   39.4120   26.5740   43.4590 H   0  0  0  0  0  0  0  0  0  0  0  0
   36.3090   24.5370   40.2580 H   0  0  0  0  0  0  0  0  0  0  0  0
   40.6770   24.0490   42.9830 H   0  0  0  0  0  0  0  0  0  0  0  0
   39.4090   23.2660   43.9400 H   0  0  0  0  0  0  0  0  0  0  0  0
   37.8190   28.3450   42.3120 C   0  0  0  0  0  0  0  0  0  0  0  0
   37.5950   28.8750   43.4240 O   0  0  0  0  0  0  0  0  0  0  0  0
   38.1400   29.0750   41.1580 O   0  0  0  0  0  0  0  0  0  0  0  0
   36.6190   30.1370   39.2300 O   0  0  0  0  0  0  0  0  0  0  0  0
   37.1880   30.3700   40.5890 P   0  0  1  0  0  0  0  0  0  0  0  0
   35.8840   30.4970   41.6840 O   0  0  0  0  0  0  0  0  0  0  0  0
   35.0350   30.6080   41.2030 H   0  0  0  0  0  0  0  0  0  0  0  0
   38.0690   31.7930   40.6460 O   0  0  0  0  0  0  0  0  0  0  0  0
   37.4210   32.8060   39.9360 C   0  0  0  0  0  2  0  0  0  0  0  0
   36.7960   33.4520   40.6020 H   0  0  0  0  0  0  0  0  0  0  0  0
  1  2  1  0  0  0  0
  1  7  1  0  0  0  0
  2  8  1  0  0  0  0
  3 12  1  0  0  0  0
  3  2  2  0  0  0  0
  4  3  1  0  0  0  0
  5  4  2  0  0  0  0
  5  6  1  0  0  0  0
  6  1  2  0  0  0  0
  7 11  1  0  0  0  0
  9  5  1  0  0  0  0
 10  7  1  0  0  0  0
 12 13  2  0  0  0  0
 14 12  1  0  0  0  0
 16 15  2  6  0  0  0
 16 19  1  0  0  0  0
 16 14  1  0  0  0  0
 16 17  1  0  0  0  0
 18 17  1  0  0  0  0
 20 21  1  0  0  0  0
 20 19  1  0  0  0  0
M  END
>  <minimizedAffinity>
-4.17459822

$$$$

 OpenBabel03242520473D

 21 21  0  0  0  0  0  0  0  0999 V2000
   36.6210   25.4980   39.9640 C   0  0  0  0  0  0  0  0  0  0  0  0
   36.8070   26.8530   40.2800 C   0  0  0  0  0  0  0  0  0  0  0  0
   37.2050   27.1760   41.5690 C   0  0  0  0  0  0  0  0  0  0  0  0
   37.3970   26.1950   42.4630 N   0  0  0  0  0  0  0  0  0  0  0  0
   37.2080   24.8960   42.1250 C   0  0  0  0  0  0  0  0  0  0  0  0
   36.8280   24.5750   40.8930 N   0  0  0  0  0  0  0  0  0  0  0  0
   36.2110   25.1370   38.6420 N   0  0  0  0  0  0  0  0  0  0  0  0
   36.6320   27.6060   39.4990 H   0  0  0  0  0  0  0  0  0  0  0  0
   37.3730   24.1280   42.8710 H   0  0  0  0  0  0  0  0  0  0  0  0
   35.2310   25.3950   38.3380 H   0  0  0  0  0  0  0  0  0  0  0  0
   36.7900   24.6460   37.9550 H   0  0  0  0  0  0  0  0  0  0  0  0
   37.3810   28.5920   41.8350 C   0  0  0  0  0  0  0  0  0  0  0  0
   37.3640   29.1290   42.9670 O   0  0  0  0  0  0  0  0  0  0  0  0
   37.5780   29.3050   40.6440 O   0  0  0  0  0  0  0  0  0  0  0  0
   36.5580   31.1530   39.0000 O   0  0  0  0  0  0  0  0  0  0  0  0
   36.9840   30.8850   40.4040 P   0  0  1  0  0  0  0  0  0  0  0  0
   35.6030   31.0130   41.3990 O   0  0  0  0  0  0  0  0  0  0  0  0
   34.8620   31.4360   40.9140 H   0  0  0  0  0  0  0  0  0  0  0  0
   38.1170   32.0040   40.9230 O   0  0  0  0  0  0  0  0  0  0  0  0
   38.6270   32.7290   39.8440 C   0  0  0  0  0  2  0  0  0  0  0  0
   38.0920   33.7010   39.7010 H   0  0  0  0  0  0  0  0  0  0  0  0
  1  2  2  0  0  0  0
  1  6  1  0  0  0  0
  2  3  1  0  0  0  0
  3 12  1  0  0  0  0
  3  4  2  0  0  0  0
  5  4  1  0  0  0  0
  5  9  1  0  0  0  0
  6  5  2  0  0  0  0
  7  1  1  0  0  0  0
  8  2  1  0  0  0  0
 10  7  1  0  0  0  0
 11  7  1  0  0  0  0
 12 13  2  0  0  0  0
 14 12  1  0  0  0  0
 16 15  2  6  0  0  0
 16 14  1  0  0  0  0
 16 19  1  0  0  0  0
 16 17  1  0  0  0  0
 18 17  1  0  0  0  0
 20 19  1  0  0  0  0
 21 20  1  0  0  0  0
M  END
>  <minimizedAffinity>
-4.08320236

$$$$
