
 OpenBabel03242510493D

 32 33  0  0  1  0  0  0  0  0999 V2000
   39.8900   31.2870   40.1660 C   0  0  1  0  0  0  0  0  0  0  0  0
   39.3720   29.9550   39.7970 C   0  0  2  0  0  0  0  0  0  0  0  0
   39.5310   29.7060   38.3950 O   0  0  0  0  0  0  0  0  0  0  0  0
   38.6070   30.5500   37.7710 C   0  0  0  0  0  0  0  0  0  0  0  0
   39.0770   31.9880   37.8700 C   0  0  1  0  0  0  0  0  0  0  0  0
   40.0900   32.1790   38.9470 C   0  0  1  0  0  0  0  0  0  0  0  0
   40.8870   31.2390   40.6630 H   0  0  0  0  0  0  0  0  0  0  0  0
   40.0010   29.1380   40.2350 H   0  0  0  0  0  0  0  0  0  0  0  0
   37.5940   30.4050   38.1900 H   0  0  0  0  0  0  0  0  0  0  0  0
   38.5620   30.1910   36.7150 H   0  0  0  0  0  0  0  0  0  0  0  0
   38.1870   32.6030   38.0670 H   0  0  0  0  0  0  0  0  0  0  0  0
   41.1260   32.0840   38.5630 H   0  0  0  0  0  0  0  0  0  0  0  0
   39.0460   31.9220   41.1000 O   0  0  0  0  0  0  0  0  0  0  0  0
   39.2630   31.6260   42.0050 H   0  0  0  0  0  0  0  0  0  0  0  0
   39.6860   32.2750   36.6360 O   0  0  0  0  0  0  0  0  0  0  0  0
   39.0490   32.9050   36.1730 H   0  0  0  0  0  0  0  0  0  0  0  0
   38.0020   29.7150   40.0860 O   0  0  0  0  0  0  0  0  0  0  0  0
   37.3520   26.7140   41.9350 C   0  0  0  0  0  0  0  0  0  0  0  0
   37.2470   27.1570   43.2550 C   0  0  0  0  0  0  0  0  0  0  0  0
   37.4010   28.5250   43.5100 C   0  0  0  0  0  0  0  0  0  0  0  0
   37.6480   29.3480   42.4560 N   0  0  0  0  0  0  0  0  0  0  0  0
   37.7460   28.9100   41.2040 C   0  0  0  0  0  0  0  0  0  0  0  0
   37.5970   27.5860   40.9440 N   0  0  0  0  0  0  0  0  0  0  0  0
   37.0530   26.5250   44.0970 H   0  0  0  0  0  0  0  0  0  0  0  0
   37.3300   28.9320   44.5120 H   0  0  0  0  0  0  0  0  0  0  0  0
   37.1850   25.2460   41.6740 C   0  0  0  0  0  0  0  0  0  0  0  0
   38.3860   24.6100   41.5870 F   0  0  0  0  0  0  0  0  0  0  0  0
   36.3800   24.7220   42.6740 F   0  0  0  0  0  0  0  0  0  0  0  0
   36.4360   25.0990   40.4760 F   0  0  0  0  0  0  0  0  0  0  0  0
   39.9960   33.5150   39.3950 O   0  0  0  0  0  0  0  0  0  0  0  0
   41.2230   34.1610   39.2570 C   0  0  0  0  0  2  0  0  0  0  0  0
   41.4090   34.7270   40.2020 H   0  0  0  0  0  0  0  0  0  0  0  0
  1  7  1  1  0  0  0
  1 13  1  0  0  0  0
  2 17  1  0  0  0  0
  2  1  1  0  0  0  0
  2  8  1  1  0  0  0
  3  2  1  0  0  0  0
  4  5  1  0  0  0  0
  4  9  1  0  0  0  0
  4  3  1  0  0  0  0
  5 11  1  1  0  0  0
  5  6  1  0  0  0  0
  6 12  1  6  0  0  0
  6 30  1  0  0  0  0
  6  1  1  0  0  0  0
 10  4  1  0  0  0  0
 13 14  1  0  0  0  0
 15  5  1  0  0  0  0
 16 15  1  0  0  0  0
 17 22  1  0  0  0  0
 18 19  1  0  0  0  0
 19 20  2  0  0  0  0
 19 24  1  0  0  0  0
 20 25  1  0  0  0  0
 21 20  1  0  0  0  0
 22 21  2  0  0  0  0
 23 22  1  0  0  0  0
 23 18  2  0  0  0  0
 26 18  1  0  0  0  0
 26 28  1  0  0  0  0
 27 26  1  0  0  0  0
 29 26  1  0  0  0  0
 31 30  1  0  0  0  0
 31 32  1  0  0  0  0
M  END
>  <minimizedAffinity>
-5.36844873

$$$$

 OpenBabel03242510493D

 32 33  0  0  1  0  0  0  0  0999 V2000
   39.6130   30.5780   39.1510 C   0  0  1  0  0  0  0  0  0  0  0  0
   38.5340   29.5830   38.9920 C   0  0  2  0  0  0  0  0  0  0  0  0
   38.0250   29.5770   37.6530 O   0  0  0  0  0  0  0  0  0  0  0  0
   37.3200   30.7780   37.5290 C   0  0  0  0  0  0  0  0  0  0  0  0
   38.2920   31.9400   37.4700 C   0  0  1  0  0  0  0  0  0  0  0  0
   39.6370   31.5810   38.0030 C   0  0  1  0  0  0  0  0  0  0  0  0
   40.6270   30.1160   39.1590 H   0  0  0  0  0  0  0  0  0  0  0  0
   38.9290   28.5380   39.0800 H   0  0  0  0  0  0  0  0  0  0  0  0
   36.5780   30.8860   38.3430 H   0  0  0  0  0  0  0  0  0  0  0  0
   36.7340   30.6670   36.5850 H   0  0  0  0  0  0  0  0  0  0  0  0
   37.8510   32.7570   38.0600 H   0  0  0  0  0  0  0  0  0  0  0  0
   40.3220   31.2350   37.2020 H   0  0  0  0  0  0  0  0  0  0  0  0
   39.5080   31.2530   40.3840 O   0  0  0  0  0  0  0  0  0  0  0  0
   39.9340   30.7320   41.0910 H   0  0  0  0  0  0  0  0  0  0  0  0
   38.4270   32.2540   36.1070 O   0  0  0  0  0  0  0  0  0  0  0  0
   37.9460   33.1320   35.9930 H   0  0  0  0  0  0  0  0  0  0  0  0
   37.4070   29.7430   39.8410 O   0  0  0  0  0  0  0  0  0  0  0  0
   37.2920   26.7930   41.8730 C   0  0  0  0  0  0  0  0  0  0  0  0
   37.4020   27.2850   43.1750 C   0  0  0  0  0  0  0  0  0  0  0  0
   37.5160   28.6700   43.3530 C   0  0  0  0  0  0  0  0  0  0  0  0
   37.5150   29.4590   42.2470 N   0  0  0  0  0  0  0  0  0  0  0  0
   37.4090   28.9730   41.0120 C   0  0  0  0  0  0  0  0  0  0  0  0
   37.2970   27.6330   40.8270 N   0  0  0  0  0  0  0  0  0  0  0  0
   37.4060   26.6800   44.0580 H   0  0  0  0  0  0  0  0  0  0  0  0
   37.6040   29.1140   44.3380 H   0  0  0  0  0  0  0  0  0  0  0  0
   37.1710   25.3080   41.6940 C   0  0  0  0  0  0  0  0  0  0  0  0
   36.3930   24.7460   42.6610 F   0  0  0  0  0  0  0  0  0  0  0  0
   36.6850   25.0690   40.4180 F   0  0  0  0  0  0  0  0  0  0  0  0
   38.4810   24.7590   41.7040 F   0  0  0  0  0  0  0  0  0  0  0  0
   40.2330   32.7600   38.4990 O   0  0  0  0  0  0  0  0  0  0  0  0
   41.3930   33.0560   37.7850 C   0  0  0  0  0  2  0  0  0  0  0  0
   42.1810   33.3300   38.5280 H   0  0  0  0  0  0  0  0  0  0  0  0
  1  7  1  6  0  0  0
  1 13  1  0  0  0  0
  2  8  1  1  0  0  0
  2  1  1  0  0  0  0
  2 17  1  0  0  0  0
  3  2  1  0  0  0  0
  4  3  1  0  0  0  0
  4  9  1  0  0  0  0
  5  4  1  0  0  0  0
  5  6  1  0  0  0  0
  5 11  1  1  0  0  0
  6 12  1  6  0  0  0
  6 30  1  0  0  0  0
  6  1  1  0  0  0  0
 10  4  1  0  0  0  0
 13 14  1  0  0  0  0
 15  5  1  0  0  0  0
 16 15  1  0  0  0  0
 17 22  1  0  0  0  0
 18 19  1  0  0  0  0
 19 20  2  0  0  0  0
 19 24  1  0  0  0  0
 20 25  1  0  0  0  0
 21 20  1  0  0  0  0
 22 21  2  0  0  0  0
 23 22  1  0  0  0  0
 23 18  2  0  0  0  0
 26 29  1  0  0  0  0
 26 18  1  0  0  0  0
 26 27  1  0  0  0  0
 28 26  1  0  0  0  0
 31 30  1  0  0  0  0
 31 32  1  0  0  0  0
M  END
>  <minimizedAffinity>
-5.2466445

$$$$

 OpenBabel03242510493D

 32 33  0  0  1  0  0  0  0  0999 V2000
   39.5430   31.2560   40.4250 C   0  0  1  0  0  0  0  0  0  0  0  0
   38.5350   30.1780   40.3870 C   0  0  2  0  0  0  0  0  0  0  0  0
   37.4290   30.5300   39.5480 O   0  0  0  0  0  0  0  0  0  0  0  0
   36.7460   31.5290   40.2500 C   0  0  0  0  0  0  0  0  0  0  0  0
   37.5530   32.8130   40.2310 C   0  0  1  0  0  0  0  0  0  0  0  0
   38.9870   32.5760   39.9030 C   0  0  1  0  0  0  0  0  0  0  0  0
   40.4320   31.0380   39.7880 H   0  0  0  0  0  0  0  0  0  0  0  0
   38.9290   29.2720   39.8590 H   0  0  0  0  0  0  0  0  0  0  0  0
   36.5050   31.1940   41.2760 H   0  0  0  0  0  0  0  0  0  0  0  0
   35.7700   31.6330   39.7180 H   0  0  0  0  0  0  0  0  0  0  0  0
   37.4560   33.2660   41.2270 H   0  0  0  0  0  0  0  0  0  0  0  0
   39.1870   32.6760   38.8170 H   0  0  0  0  0  0  0  0  0  0  0  0
   40.0590   31.4270   41.7260 O   0  0  0  0  0  0  0  0  0  0  0  0
   40.7830   30.7940   41.8880 H   0  0  0  0  0  0  0  0  0  0  0  0
   36.9910   33.5980   39.2090 O   0  0  0  0  0  0  0  0  0  0  0  0
   36.5100   34.3430   39.6890 H   0  0  0  0  0  0  0  0  0  0  0  0
   37.9770   29.8010   41.6370 O   0  0  0  0  0  0  0  0  0  0  0  0
   38.1240   26.2760   42.2740 C   0  0  0  0  0  0  0  0  0  0  0  0
   39.2210   26.1420   43.1270 C   0  0  0  0  0  0  0  0  0  0  0  0
   39.9230   27.2970   43.4920 C   0  0  0  0  0  0  0  0  0  0  0  0
   39.4990   28.4880   42.9930 N   0  0  0  0  0  0  0  0  0  0  0  0
   38.4510   28.5990   42.1800 C   0  0  0  0  0  0  0  0  0  0  0  0
   37.7620   27.4860   41.8200 N   0  0  0  0  0  0  0  0  0  0  0  0
   39.5710   25.2140   43.5300 H   0  0  0  0  0  0  0  0  0  0  0  0
   40.7830   27.2590   44.1520 H   0  0  0  0  0  0  0  0  0  0  0  0
   37.3800   25.0310   41.8890 C   0  0  0  0  0  0  0  0  0  0  0  0
   36.3210   24.8030   42.7140 F   0  0  0  0  0  0  0  0  0  0  0  0
   36.9990   25.1530   40.5610 F   0  0  0  0  0  0  0  0  0  0  0  0
   38.2980   23.9480   41.9160 F   0  0  0  0  0  0  0  0  0  0  0  0
   39.7420   33.6070   40.5020 O   0  0  0  0  0  0  0  0  0  0  0  0
   40.6300   34.1580   39.5800 C   0  0  0  0  0  2  0  0  0  0  0  0
   41.6170   34.2650   40.0910 H   0  0  0  0  0  0  0  0  0  0  0  0
  1  7  1  6  0  0  0
  1 13  1  0  0  0  0
  2  8  1  6  0  0  0
  2  1  1  0  0  0  0
  2 17  1  0  0  0  0
  3  4  1  0  0  0  0
  3  2  1  0  0  0  0
  4  9  1  0  0  0  0
  5  4  1  0  0  0  0
  5 11  1  1  0  0  0
  6 12  1  6  0  0  0
  6  5  1  0  0  0  0
  6  1  1  0  0  0  0
  6 30  1  0  0  0  0
 10  4  1  0  0  0  0
 13 14  1  0  0  0  0
 15 16  1  0  0  0  0
 15  5  1  0  0  0  0
 17 22  1  0  0  0  0
 18 19  1  0  0  0  0
 19 20  2  0  0  0  0
 19 24  1  0  0  0  0
 20 25  1  0  0  0  0
 21 20  1  0  0  0  0
 22 21  2  0  0  0  0
 23 22  1  0  0  0  0
 23 18  2  0  0  0  0
 26 29  1  0  0  0  0
 26 18  1  0  0  0  0
 26 27  1  0  0  0  0
 28 26  1  0  0  0  0
 31 32  1  0  0  0  0
 31 30  1  0  0  0  0
M  END
>  <minimizedAffinity>
-5.15807676

$$$$

 OpenBabel03242510493D

 32 33  0  0  1  0  0  0  0  0999 V2000
   40.7990   32.0500   40.5510 C   0  0  1  0  0  0  0  0  0  0  0  0
   39.7580   31.1350   40.0410 C   0  0  2  0  0  0  0  0  0  0  0  0
   39.9690   30.8260   38.6580 O   0  0  0  0  0  0  0  0  0  0  0  0
   39.6640   32.0070   37.9740 C   0  0  0  0  0  0  0  0  0  0  0  0
   40.7520   33.0360   38.2160 C   0  0  1  0  0  0  0  0  0  0  0  0
   41.5710   32.7200   39.4210 C   0  0  1  0  0  0  0  0  0  0  0  0
   41.5690   31.5270   41.1640 H   0  0  0  0  0  0  0  0  0  0  0  0
   39.8460   30.1190   40.5070 H   0  0  0  0  0  0  0  0  0  0  0  0
   38.6600   32.3780   38.2540 H   0  0  0  0  0  0  0  0  0  0  0  0
   39.5980   31.7050   36.9010 H   0  0  0  0  0  0  0  0  0  0  0  0
   40.2520   34.0080   38.3350 H   0  0  0  0  0  0  0  0  0  0  0  0
   42.4740   32.1290   39.1650 H   0  0  0  0  0  0  0  0  0  0  0  0
   40.2470   33.0250   41.4070 O   0  0  0  0  0  0  0  0  0  0  0  0
   40.1670   32.6700   42.3130 H   0  0  0  0  0  0  0  0  0  0  0  0
   41.5870   32.9780   37.0870 O   0  0  0  0  0  0  0  0  0  0  0  0
   41.4050   33.8330   36.5850 H   0  0  0  0  0  0  0  0  0  0  0  0
   38.4180   31.5950   40.1420 O   0  0  0  0  0  0  0  0  0  0  0  0
   36.9480   28.7830   41.8100 C   0  0  0  0  0  0  0  0  0  0  0  0
   35.7120   28.6350   41.1770 C   0  0  0  0  0  0  0  0  0  0  0  0
   35.3820   29.5260   40.1490 C   0  0  0  0  0  0  0  0  0  0  0  0
   36.2830   30.4900   39.8240 N   0  0  0  0  0  0  0  0  0  0  0  0
   37.4570   30.6180   40.4370 C   0  0  0  0  0  0  0  0  0  0  0  0
   37.7900   29.7590   41.4350 N   0  0  0  0  0  0  0  0  0  0  0  0
   34.9890   27.8830   41.4190 H   0  0  0  0  0  0  0  0  0  0  0  0
   34.4380   29.4630   39.6190 H   0  0  0  0  0  0  0  0  0  0  0  0
   37.2910   27.8230   42.9110 C   0  0  0  0  0  0  0  0  0  0  0  0
   38.3180   28.2820   43.6780 F   0  0  0  0  0  0  0  0  0  0  0  0
   36.1410   27.5900   43.6500 F   0  0  0  0  0  0  0  0  0  0  0  0
   37.6110   26.5740   42.3150 F   0  0  0  0  0  0  0  0  0  0  0  0
   42.0740   33.9370   39.9310 O   0  0  0  0  0  0  0  0  0  0  0  0
   43.4540   33.8590   40.1010 C   0  0  0  0  0  2  0  0  0  0  0  0
   43.6920   34.2960   41.1010 H   0  0  0  0  0  0  0  0  0  0  0  0
  1  7  1  1  0  0  0
  1 13  1  0  0  0  0
  2 17  1  0  0  0  0
  2  8  1  1  0  0  0
  2  1  1  0  0  0  0
  3  2  1  0  0  0  0
  4  5  1  0  0  0  0
  4  9  1  0  0  0  0
  4  3  1  0  0  0  0
  5 11  1  1  0  0  0
  5  6  1  0  0  0  0
  6 12  1  6  0  0  0
  6 30  1  0  0  0  0
  6  1  1  0  0  0  0
 10  4  1  0  0  0  0
 13 14  1  0  0  0  0
 15  5  1  0  0  0  0
 16 15  1  0  0  0  0
 17 22  1  0  0  0  0
 18 26  1  0  0  0  0
 19 24  1  0  0  0  0
 19 18  2  0  0  0  0
 20 19  1  0  0  0  0
 21 20  2  0  0  0  0
 21 22  1  0  0  0  0
 22 23  2  0  0  0  0
 23 18  1  0  0  0  0
 25 20  1  0  0  0  0
 26 28  1  0  0  0  0
 26 27  1  0  0  0  0
 29 26  1  0  0  0  0
 30 31  1  0  0  0  0
 31 32  1  0  0  0  0
M  END
>  <minimizedAffinity>
-5.13035488

$$$$

 OpenBabel03242510493D

 32 33  0  0  1  0  0  0  0  0999 V2000
   36.5070   29.4430   38.2710 C   0  0  1  0  0  0  0  0  0  0  0  0
   36.8230   30.1670   39.5170 C   0  0  2  0  0  0  0  0  0  0  0  0
   37.0060   31.5670   39.2730 O   0  0  0  0  0  0  0  0  0  0  0  0
   38.2170   31.6580   38.5800 C   0  0  0  0  0  0  0  0  0  0  0  0
   38.0420   31.1310   37.1690 C   0  0  1  0  0  0  0  0  0  0  0  0
   36.8340   30.2680   37.0320 C   0  0  1  0  0  0  0  0  0  0  0  0
   35.4240   29.1940   38.1800 H   0  0  0  0  0  0  0  0  0  0  0  0
   35.9450   30.1820   40.2140 H   0  0  0  0  0  0  0  0  0  0  0  0
   39.0260   31.1390   39.1290 H   0  0  0  0  0  0  0  0  0  0  0  0
   38.4750   32.7440   38.5990 H   0  0  0  0  0  0  0  0  0  0  0  0
   38.9510   30.5630   36.9240 H   0  0  0  0  0  0  0  0  0  0  0  0
   35.9460   30.8470   36.7070 H   0  0  0  0  0  0  0  0  0  0  0  0
   37.1740   28.2020   38.2180 O   0  0  0  0  0  0  0  0  0  0  0  0
   36.6620   27.5240   38.7000 H   0  0  0  0  0  0  0  0  0  0  0  0
   37.8670   32.2670   36.3590 O   0  0  0  0  0  0  0  0  0  0  0  0
   38.7200   32.3420   35.8290 H   0  0  0  0  0  0  0  0  0  0  0  0
   37.9820   29.7350   40.2150 O   0  0  0  0  0  0  0  0  0  0  0  0
   37.4580   26.7540   42.1340 C   0  0  0  0  0  0  0  0  0  0  0  0
   37.3170   27.2240   43.4410 C   0  0  0  0  0  0  0  0  0  0  0  0
   37.4030   28.6040   43.6620 C   0  0  0  0  0  0  0  0  0  0  0  0
   37.6200   29.4110   42.5900 N   0  0  0  0  0  0  0  0  0  0  0  0
   37.7530   28.9470   41.3510 C   0  0  0  0  0  0  0  0  0  0  0  0
   37.6710   27.6110   41.1240 N   0  0  0  0  0  0  0  0  0  0  0  0
   37.1460   26.6050   44.2980 H   0  0  0  0  0  0  0  0  0  0  0  0
   37.3010   29.0320   44.6530 H   0  0  0  0  0  0  0  0  0  0  0  0
   37.3650   25.2730   41.9100 C   0  0  0  0  0  0  0  0  0  0  0  0
   38.5540   24.6520   42.1460 F   0  0  0  0  0  0  0  0  0  0  0  0
   36.3430   24.7820   42.7080 F   0  0  0  0  0  0  0  0  0  0  0  0
   36.9290   25.0610   40.5740 F   0  0  0  0  0  0  0  0  0  0  0  0
   37.0730   29.3570   35.9810 O   0  0  0  0  0  0  0  0  0  0  0  0
   36.0970   29.4860   34.9950 C   0  0  0  0  0  2  0  0  0  0  0  0
   35.7730   28.4560   34.7100 H   0  0  0  0  0  0  0  0  0  0  0  0
  1  7  1  6  0  0  0
  1  2  1  0  0  0  0
  2  8  1  1  0  0  0
  2 17  1  0  0  0  0
  3  2  1  0  0  0  0
  4 10  1  0  0  0  0
  4  9  1  0  0  0  0
  4  3  1  0  0  0  0
  5 11  1  6  0  0  0
  5  4  1  0  0  0  0
  6 12  1  6  0  0  0
  6  5  1  0  0  0  0
  6  1  1  0  0  0  0
 13  1  1  0  0  0  0
 13 14  1  0  0  0  0
 15  5  1  0  0  0  0
 16 15  1  0  0  0  0
 17 22  1  0  0  0  0
 18 19  1  0  0  0  0
 19 20  2  0  0  0  0
 19 24  1  0  0  0  0
 20 25  1  0  0  0  0
 21 20  1  0  0  0  0
 22 21  2  0  0  0  0
 23 22  1  0  0  0  0
 23 18  2  0  0  0  0
 26 18  1  0  0  0  0
 26 27  1  0  0  0  0
 26 28  1  0  0  0  0
 29 26  1  0  0  0  0
 30  6  1  0  0  0  0
 31 30  1  0  0  0  0
 32 31  1  0  0  0  0
M  END
>  <minimizedAffinity>
-5.00190258

$$$$

 OpenBabel03242510493D

 32 33  0  0  1  0  0  0  0  0999 V2000
   41.4550   30.4770   37.5730 C   0  0  1  0  0  0  0  0  0  0  0  0
   40.2060   31.0260   38.1370 C   0  0  2  0  0  0  0  0  0  0  0  0
   39.9300   32.3320   37.6160 O   0  0  0  0  0  0  0  0  0  0  0  0
   40.8910   33.1630   38.2010 C   0  0  0  0  0  0  0  0  0  0  0  0
   42.2510   32.8830   37.5920 C   0  0  1  0  0  0  0  0  0  0  0  0
   42.3060   31.5560   36.9140 C   0  0  1  0  0  0  0  0  0  0  0  0
   41.2720   29.7190   36.7760 H   0  0  0  0  0  0  0  0  0  0  0  0
   39.3120   30.4550   37.7750 H   0  0  0  0  0  0  0  0  0  0  0  0
   40.8890   33.0560   39.3020 H   0  0  0  0  0  0  0  0  0  0  0  0
   40.5360   34.2000   37.9880 H   0  0  0  0  0  0  0  0  0  0  0  0
   42.9840   32.9270   38.4110 H   0  0  0  0  0  0  0  0  0  0  0  0
   42.0670   31.6320   35.8340 H   0  0  0  0  0  0  0  0  0  0  0  0
   42.2050   29.8000   38.5570 O   0  0  0  0  0  0  0  0  0  0  0  0
   41.8870   28.8820   38.6500 H   0  0  0  0  0  0  0  0  0  0  0  0
   42.4460   33.8820   36.6220 O   0  0  0  0  0  0  0  0  0  0  0  0
   43.1550   34.4850   37.0090 H   0  0  0  0  0  0  0  0  0  0  0  0
   40.1580   31.1470   39.5500 O   0  0  0  0  0  0  0  0  0  0  0  0
   37.7410   29.3300   41.4750 C   0  0  0  0  0  0  0  0  0  0  0  0
   36.5960   30.1260   41.4010 C   0  0  0  0  0  0  0  0  0  0  0  0
   36.6620   31.3160   40.6660 C   0  0  0  0  0  0  0  0  0  0  0  0
   37.8390   31.6330   40.0660 N   0  0  0  0  0  0  0  0  0  0  0  0
   38.9220   30.8640   40.1470 C   0  0  0  0  0  0  0  0  0  0  0  0
   38.8700   29.7070   40.8550 N   0  0  0  0  0  0  0  0  0  0  0  0
   35.6610   29.8940   41.8670 H   0  0  0  0  0  0  0  0  0  0  0  0
   35.8070   31.9770   40.5700 H   0  0  0  0  0  0  0  0  0  0  0  0
   37.6590   28.0570   42.2660 C   0  0  0  0  0  0  0  0  0  0  0  0
   36.6100   27.2850   41.8680 F   0  0  0  0  0  0  0  0  0  0  0  0
   38.8740   27.4010   42.1470 F   0  0  0  0  0  0  0  0  0  0  0  0
   37.5540   28.4030   43.6390 F   0  0  0  0  0  0  0  0  0  0  0  0
   43.6440   31.1080   36.9540 O   0  0  0  0  0  0  0  0  0  0  0  0
   43.9980   30.5290   35.7370 C   0  0  0  0  0  2  0  0  0  0  0  0
   44.5410   29.5800   35.9650 H   0  0  0  0  0  0  0  0  0  0  0  0
  1  7  1  6  0  0  0
  1  2  1  0  0  0  0
  1 13  1  0  0  0  0
  2  8  1  6  0  0  0
  2 17  1  0  0  0  0
  3  2  1  0  0  0  0
  3  4  1  0  0  0  0
  4  9  1  0  0  0  0
  5  4  1  0  0  0  0
  5 11  1  1  0  0  0
  6 12  1  6  0  0  0
  6 30  1  0  0  0  0
  6  1  1  0  0  0  0
  6  5  1  0  0  0  0
 10  4  1  0  0  0  0
 13 14  1  0  0  0  0
 15 16  1  0  0  0  0
 15  5  1  0  0  0  0
 17 22  1  0  0  0  0
 18 26  1  0  0  0  0
 19 18  1  0  0  0  0
 19 24  1  0  0  0  0
 20 19  2  0  0  0  0
 21 22  2  0  0  0  0
 21 20  1  0  0  0  0
 22 23  1  0  0  0  0
 23 18  2  0  0  0  0
 25 20  1  0  0  0  0
 26 29  1  0  0  0  0
 27 26  1  0  0  0  0
 28 26  1  0  0  0  0
 31 32  1  0  0  0  0
 31 30  1  0  0  0  0
M  END
>  <minimizedAffinity>
-4.93061543

$$$$

 OpenBabel03242510493D

 32 33  0  0  1  0  0  0  0  0999 V2000
   38.2800   26.0490   40.8430 C   0  0  1  0  0  0  0  0  0  0  0  0
   39.0530   27.1620   41.4270 C   0  0  2  0  0  0  0  0  0  0  0  0
   40.1820   26.6800   42.1670 O   0  0  0  0  0  0  0  0  0  0  0  0
   39.6370   26.0880   43.3100 C   0  0  0  0  0  0  0  0  0  0  0  0
   38.9500   24.7880   42.9380 C   0  0  1  0  0  0  0  0  0  0  0  0
   38.6350   24.7110   41.4820 C   0  0  1  0  0  0  0  0  0  0  0  0
   38.4730   25.9140   39.7530 H   0  0  0  0  0  0  0  0  0  0  0  0
   39.5590   27.7670   40.6300 H   0  0  0  0  0  0  0  0  0  0  0  0
   38.9610   26.7890   43.8340 H   0  0  0  0  0  0  0  0  0  0  0  0
   40.5080   25.9280   43.9900 H   0  0  0  0  0  0  0  0  0  0  0  0
   38.0290   24.7300   43.5340 H   0  0  0  0  0  0  0  0  0  0  0  0
   39.4420   24.2110   40.9090 H   0  0  0  0  0  0  0  0  0  0  0  0
   36.8930   26.2820   40.9440 O   0  0  0  0  0  0  0  0  0  0  0  0
   36.5900   26.8350   40.1990 H   0  0  0  0  0  0  0  0  0  0  0  0
   39.8720   23.7710   43.2440 O   0  0  0  0  0  0  0  0  0  0  0  0
   39.4890   23.3100   44.0540 H   0  0  0  0  0  0  0  0  0  0  0  0
   38.3440   28.0230   42.3060 O   0  0  0  0  0  0  0  0  0  0  0  0
   38.3700   31.3650   41.0100 C   0  0  0  0  0  0  0  0  0  0  0  0
   37.0470   31.5770   40.6190 C   0  0  0  0  0  0  0  0  0  0  0  0
   36.1250   30.5400   40.8110 C   0  0  0  0  0  0  0  0  0  0  0  0
   36.5700   29.3830   41.3660 N   0  0  0  0  0  0  0  0  0  0  0  0
   37.8350   29.1970   41.7330 C   0  0  0  0  0  0  0  0  0  0  0  0
   38.7390   30.1940   41.5540 N   0  0  0  0  0  0  0  0  0  0  0  0
   36.6780   32.4800   40.1800 H   0  0  0  0  0  0  0  0  0  0  0  0
   35.0830   30.6430   40.5280 H   0  0  0  0  0  0  0  0  0  0  0  0
   39.3500   32.4820   40.8000 C   0  0  0  0  0  0  0  0  0  0  0  0
   40.5250   32.2500   41.4480 F   0  0  0  0  0  0  0  0  0  0  0  0
   39.5220   32.6490   39.4350 F   0  0  0  0  0  0  0  0  0  0  0  0
   38.7420   33.6850   41.2500 F   0  0  0  0  0  0  0  0  0  0  0  0
   37.5120   23.8700   41.3290 O   0  0  0  0  0  0  0  0  0  0  0  0
   37.8100   22.8130   40.4710 C   0  0  0  0  0  2  0  0  0  0  0  0
   36.9530   22.7070   39.7630 H   0  0  0  0  0  0  0  0  0  0  0  0
  1  7  1  6  0  0  0
  1 13  1  0  0  0  0
  1  2  1  0  0  0  0
  1  6  1  0  0  0  0
  2  8  1  6  0  0  0
  2  3  1  0  0  0  0
  2 17  1  0  0  0  0
  3  4  1  0  0  0  0
  4  9  1  0  0  0  0
  4 10  1  0  0  0  0
  5 15  1  0  0  0  0
  5  4  1  0  0  0  0
  5 11  1  1  0  0  0
  6 12  1  6  0  0  0
  6  5  1  0  0  0  0
 14 13  1  0  0  0  0
 15 16  1  0  0  0  0
 18 23  1  0  0  0  0
 19 20  1  0  0  0  0
 19 18  2  0  0  0  0
 20 21  2  0  0  0  0
 21 22  1  0  0  0  0
 22 17  1  0  0  0  0
 23 22  2  0  0  0  0
 24 19  1  0  0  0  0
 25 20  1  0  0  0  0
 26 18  1  0  0  0  0
 26 29  1  0  0  0  0
 26 27  1  0  0  0  0
 28 26  1  0  0  0  0
 30  6  1  0  0  0  0
 31 30  1  0  0  0  0
 32 31  1  0  0  0  0
M  END
>  <minimizedAffinity>
-4.9173336

$$$$

 OpenBabel03242510493D

 32 33  0  0  1  0  0  0  0  0999 V2000
   38.0710   29.9620   40.9350 C   0  0  1  0  0  0  0  0  0  0  0  0
   38.7890   29.4320   42.1110 C   0  0  2  0  0  0  0  0  0  0  0  0
   39.2570   30.4910   42.9550 O   0  0  0  0  0  0  0  0  0  0  0  0
   40.2970   31.0910   42.2380 C   0  0  0  0  0  0  0  0  0  0  0  0
   39.7310   31.8730   41.0690 C   0  0  1  0  0  0  0  0  0  0  0  0
   38.3460   31.4460   40.7200 C   0  0  1  0  0  0  0  0  0  0  0  0
   36.9640   29.8790   41.0320 H   0  0  0  0  0  0  0  0  0  0  0  0
   38.0920   28.8940   42.8040 H   0  0  0  0  0  0  0  0  0  0  0  0
   41.0450   30.3390   41.9220 H   0  0  0  0  0  0  0  0  0  0  0  0
   40.8110   31.7490   42.9790 H   0  0  0  0  0  0  0  0  0  0  0  0
   40.4080   31.7130   40.2180 H   0  0  0  0  0  0  0  0  0  0  0  0
   37.5800   32.0600   41.2360 H   0  0  0  0  0  0  0  0  0  0  0  0
   38.3920   29.2350   39.7700 O   0  0  0  0  0  0  0  0  0  0  0  0
   37.8330   28.4380   39.7070 H   0  0  0  0  0  0  0  0  0  0  0  0
   39.6850   33.2120   41.4950 O   0  0  0  0  0  0  0  0  0  0  0  0
   40.4130   33.6760   40.9730 H   0  0  0  0  0  0  0  0  0  0  0  0
   39.9190   28.6170   41.8380 O   0  0  0  0  0  0  0  0  0  0  0  0
   38.5500   25.3200   42.1590 C   0  0  0  0  0  0  0  0  0  0  0  0
   39.4680   24.6610   42.9800 C   0  0  0  0  0  0  0  0  0  0  0  0
   40.5830   25.3750   43.4340 C   0  0  0  0  0  0  0  0  0  0  0  0
   40.7130   26.6720   43.0490 N   0  0  0  0  0  0  0  0  0  0  0  0
   39.8290   27.2850   42.2660 C   0  0  0  0  0  0  0  0  0  0  0  0
   38.7430   26.6040   41.8200 N   0  0  0  0  0  0  0  0  0  0  0  0
   39.3830   23.6410   43.2940 H   0  0  0  0  0  0  0  0  0  0  0  0
   41.3310   24.9200   44.0740 H   0  0  0  0  0  0  0  0  0  0  0  0
   37.3580   24.5450   41.6780 C   0  0  0  0  0  0  0  0  0  0  0  0
   37.6710   23.2430   41.4290 F   0  0  0  0  0  0  0  0  0  0  0  0
   36.3530   24.6760   42.6240 F   0  0  0  0  0  0  0  0  0  0  0  0
   36.8620   25.1870   40.5130 F   0  0  0  0  0  0  0  0  0  0  0  0
   38.1480   31.7070   39.3470 O   0  0  0  0  0  0  0  0  0  0  0  0
   37.1490   32.6630   39.1730 C   0  0  0  0  0  2  0  0  0  0  0  0
   36.4800   32.3020   38.3550 H   0  0  0  0  0  0  0  0  0  0  0  0
  1  7  1  1  0  0  0
  1  2  1  0  0  0  0
  2  8  1  1  0  0  0
  2  3  1  0  0  0  0
  4  3  1  0  0  0  0
  4 10  1  0  0  0  0
  5 11  1  6  0  0  0
  5 15  1  0  0  0  0
  5  4  1  0  0  0  0
  6  1  1  0  0  0  0
  6  5  1  0  0  0  0
  6 12  1  1  0  0  0
  9  4  1  0  0  0  0
 13  1  1  0  0  0  0
 14 13  1  0  0  0  0
 16 15  1  0  0  0  0
 17  2  1  0  0  0  0
 17 22  1  0  0  0  0
 18 19  1  0  0  0  0
 19 24  1  0  0  0  0
 19 20  2  0  0  0  0
 20 25  1  0  0  0  0
 21 20  1  0  0  0  0
 22 21  2  0  0  0  0
 23 18  2  0  0  0  0
 23 22  1  0  0  0  0
 26 18  1  0  0  0  0
 26 28  1  0  0  0  0
 27 26  1  0  0  0  0
 29 26  1  0  0  0  0
 30  6  1  0  0  0  0
 31 30  1  0  0  0  0
 32 31  1  0  0  0  0
M  END
>  <minimizedAffinity>
-4.88495588

$$$$

 OpenBabel03242510493D

 32 33  0  0  1  0  0  0  0  0999 V2000
   38.8690   30.1710   39.7450 C   0  0  1  0  0  0  0  0  0  0  0  0
   37.6370   29.3630   39.8400 C   0  0  2  0  0  0  0  0  0  0  0  0
   36.4760   30.1470   39.5380 O   0  0  0  0  0  0  0  0  0  0  0  0
   36.3300   31.0120   40.6270 C   0  0  0  0  0  0  0  0  0  0  0  0
   37.4180   32.0680   40.5940 C   0  0  1  0  0  0  0  0  0  0  0  0
   38.5720   31.6660   39.7400 C   0  0  1  0  0  0  0  0  0  0  0  0
   39.4370   29.9810   38.8050 H   0  0  0  0  0  0  0  0  0  0  0  0
   37.5940   28.5900   39.0300 H   0  0  0  0  0  0  0  0  0  0  0  0
   36.3160   30.4480   41.5790 H   0  0  0  0  0  0  0  0  0  0  0  0
   35.3100   31.4490   40.5080 H   0  0  0  0  0  0  0  0  0  0  0  0
   37.7440   32.2240   41.6320 H   0  0  0  0  0  0  0  0  0  0  0  0
   38.4660   32.0360   38.7000 H   0  0  0  0  0  0  0  0  0  0  0  0
   39.7660   29.8580   40.7860 O   0  0  0  0  0  0  0  0  0  0  0  0
   40.3020   29.0780   40.5450 H   0  0  0  0  0  0  0  0  0  0  0  0
   36.8230   33.2070   40.0250 O   0  0  0  0  0  0  0  0  0  0  0  0
   36.7280   33.8590   40.7870 H   0  0  0  0  0  0  0  0  0  0  0  0
   37.3840   28.7550   41.0980 O   0  0  0  0  0  0  0  0  0  0  0  0
   38.8090   25.5970   42.0180 C   0  0  0  0  0  0  0  0  0  0  0  0
   37.9920   24.6670   41.3720 C   0  0  0  0  0  0  0  0  0  0  0  0
   36.9260   25.1440   40.6000 C   0  0  0  0  0  0  0  0  0  0  0  0
   36.7440   26.4880   40.5220 N   0  0  0  0  0  0  0  0  0  0  0  0
   37.5320   27.3620   41.1440 C   0  0  0  0  0  0  0  0  0  0  0  0
   38.5690   26.9120   41.8950 N   0  0  0  0  0  0  0  0  0  0  0  0
   38.1180   23.6050   41.4220 H   0  0  0  0  0  0  0  0  0  0  0  0
   36.2560   24.4730   40.0740 H   0  0  0  0  0  0  0  0  0  0  0  0
   39.9480   25.0740   42.8430 C   0  0  0  0  0  0  0  0  0  0  0  0
   39.5820   23.9860   43.5750 F   0  0  0  0  0  0  0  0  0  0  0  0
   41.0070   24.8060   41.9900 F   0  0  0  0  0  0  0  0  0  0  0  0
   40.4000   26.1300   43.6800 F   0  0  0  0  0  0  0  0  0  0  0  0
   39.7220   32.3160   40.2360 O   0  0  0  0  0  0  0  0  0  0  0  0
   40.3800   32.9900   39.2090 C   0  0  0  0  0  2  0  0  0  0  0  0
   41.4700   32.7690   39.3110 H   0  0  0  0  0  0  0  0  0  0  0  0
  1  7  1  6  0  0  0
  1  2  1  0  0  0  0
  1 13  1  0  0  0  0
  2  8  1  6  0  0  0
  2 17  1  0  0  0  0
  3  2  1  0  0  0  0
  3  4  1  0  0  0  0
  4  9  1  0  0  0  0
  5  4  1  0  0  0  0
  5 11  1  1  0  0  0
  6 12  1  6  0  0  0
  6  1  1  0  0  0  0
  6 30  1  0  0  0  0
  6  5  1  0  0  0  0
 10  4  1  0  0  0  0
 14 13  1  0  0  0  0
 15  5  1  0  0  0  0
 15 16  1  0  0  0  0
 17 22  1  0  0  0  0
 18 26  1  0  0  0  0
 19 24  1  0  0  0  0
 19 18  2  0  0  0  0
 20 19  1  0  0  0  0
 21 20  2  0  0  0  0
 21 22  1  0  0  0  0
 22 23  2  0  0  0  0
 23 18  1  0  0  0  0
 25 20  1  0  0  0  0
 26 27  1  0  0  0  0
 26 29  1  0  0  0  0
 28 26  1  0  0  0  0
 31 32  1  0  0  0  0
 31 30  1  0  0  0  0
M  END
>  <minimizedAffinity>
-4.85947227

$$$$
