
 OpenBabel03252504323D

 33 34  0  0  0  0  0  0  0  0999 V2000
   45.1670   35.6090   43.1110 C   0  0  0  0  0  0  0  0  0  0  0  0
   45.9950   35.2040   42.4830 H   0  0  0  0  0  0  0  0  0  0  0  0
   45.4360   36.6220   43.4330 H   0  0  0  0  0  0  0  0  0  0  0  0
   43.8380   35.1930   41.0030 C   0  0  0  0  0  3  0  0  0  0  0  0
   43.9030   35.5970   42.2680 C   0  0  0  0  0  3  0  0  0  0  0  0
   42.5900   35.2550   40.4070 O   0  0  0  0  0  0  0  0  0  0  0  0
   41.4020   35.5920   40.9790 C   0  0  0  0  0  0  0  0  0  0  0  0
   41.3980   35.8490   42.0610 H   0  0  0  0  0  0  0  0  0  0  0  0
   40.9520   36.4600   40.4530 H   0  0  0  0  0  0  0  0  0  0  0  0
   40.7010   33.3370   41.6330 C   0  0  0  0  0  0  0  0  0  0  0  0
   40.3810   34.4920   40.8880 C   0  0  0  0  0  0  0  0  0  0  0  0
   39.2150   34.4850   40.1940 C   0  0  0  0  0  0  0  0  0  0  0  0
   38.4660   33.3960   40.2700 N   0  0  0  0  0  0  0  0  0  0  0  0
   38.7620   32.3110   40.9670 C   0  0  0  0  0  0  0  0  0  0  0  0
   39.9420   32.2430   41.7050 N   0  0  0  0  0  0  0  0  0  0  0  0
   41.6160   33.2770   42.2090 H   0  0  0  0  0  0  0  0  0  0  0  0
   39.0150   35.3900   39.6410 H   0  0  0  0  0  0  0  0  0  0  0  0
   37.8300   31.1670   40.9580 C   0  0  0  0  0  2  0  0  0  0  0  0
   36.9710   31.4020   41.6280 H   0  0  0  0  0  0  0  0  0  0  0  0
   44.9500   34.7450   44.1660 O   0  0  0  0  0  0  0  0  0  0  0  0
   45.7160   32.6010   42.7900 O   0  0  0  0  0  0  0  0  0  0  0  0
   45.9540   33.3950   44.0530 P   0  0  1  0  0  0  0  0  0  0  0  0
   47.5880   33.8820   44.0230 O   0  0  0  0  0  0  0  0  0  0  0  0
   47.9980   33.7630   44.8940 H   0  0  0  0  0  0  0  0  0  0  0  0
   45.7580   32.4060   45.4070 O   0  0  0  0  0  0  0  0  0  0  0  0
   46.0860   33.0590   46.5770 C   0  0  0  0  0  0  0  0  0  0  0  0
   47.0160   32.4050   47.5480 C   0  0  0  0  0  0  0  0  0  0  0  0
   45.5370   32.4450   47.8420 C   0  0  0  0  0  0  0  0  0  0  0  0
   46.1170   34.1500   46.5110 H   0  0  0  0  0  0  0  0  0  0  0  0
   47.5920   33.1000   48.1910 H   0  0  0  0  0  0  0  0  0  0  0  0
   47.4740   31.4630   47.2240 H   0  0  0  0  0  0  0  0  0  0  0  0
   45.0440   31.4520   47.7980 H   0  0  0  0  0  0  0  0  0  0  0  0
   45.1410   33.1040   48.6360 H   0  0  0  0  0  0  0  0  0  0  0  0
  1  3  1  0  0  0  0
  1 20  1  0  0  0  0
  2  1  1  0  0  0  0
  4  5  2  0  0  0  0
  5  1  1  0  0  0  0
  6  7  1  0  0  0  0
  6  4  1  0  0  0  0
  7  8  1  0  0  0  0
  9  7  1  0  0  0  0
 10 15  1  0  0  0  0
 10 16  1  0  0  0  0
 11  7  1  0  0  0  0
 11 10  2  0  0  0  0
 12 13  2  0  0  0  0
 12 11  1  0  0  0  0
 13 14  1  0  0  0  0
 14 15  2  0  0  0  0
 17 12  1  0  0  0  0
 18 14  1  0  0  0  0
 18 19  1  0  0  0  0
 22 21  2  6  0  0  0
 22 20  1  0  0  0  0
 22 25  1  0  0  0  0
 23 22  1  0  0  0  0
 23 24  1  0  0  0  0
 25 26  1  0  0  0  0
 26 27  1  0  0  0  0
 26 28  1  0  0  0  0
 27 28  1  0  0  0  0
 27 30  1  0  0  0  0
 28 33  1  0  0  0  0
 29 26  1  0  0  0  0
 31 27  1  0  0  0  0
 32 28  1  0  0  0  0
M  END
>  <minimizedAffinity>
-4.71058846

>  <minimizedRMSD>
0.463838488

$$$$
