
 OpenBabel03252501053D

 33 35  0  0  1  0  0  0  0  0999 V2000
   47.7430   34.1650   39.8010 O   0  0  0  0  0  0  0  0  0  0  0  0
   48.0970   35.4650   41.8100 C   0  0  1  0  0  0  0  0  0  0  0  0
   49.3260   34.6740   41.6720 C   0  0  0  0  0  0  0  0  0  0  0  0
   48.4810   35.0840   40.4530 C   0  0  1  0  0  0  0  0  0  0  0  0
   48.1570   36.4960   42.1730 H   0  0  0  0  0  0  0  0  0  0  0  0
   49.2860   33.5570   41.8170 H   0  0  0  0  0  0  0  0  0  0  0  0
   50.3340   35.1260   41.7710 H   0  0  0  0  0  0  0  0  0  0  0  0
   49.0280   35.7960   39.8060 H   0  0  0  0  0  0  0  0  0  0  0  0
   46.0540   32.9530   43.7760 C   0  0  0  0  0  0  0  0  0  0  0  0
   47.1500   33.6280   43.2520 C   0  0  0  0  0  0  0  0  0  0  0  0
   46.9290   34.7300   42.4030 C   0  0  0  0  0  0  0  0  0  0  0  0
   45.6530   35.1000   42.1250 N   0  0  0  0  0  0  0  0  0  0  0  0
   44.6010   34.4200   42.6520 C   0  0  0  0  0  0  0  0  0  0  0  0
   44.8020   33.3520   43.4740 N   0  0  0  0  0  0  0  0  0  0  0  0
   46.1990   32.1090   44.4260 H   0  0  0  0  0  0  0  0  0  0  0  0
   48.1280   33.2930   43.5070 H   0  0  0  0  0  0  0  0  0  0  0  0
   43.6300   34.8100   42.3560 H   0  0  0  0  0  0  0  0  0  0  0  0
   48.5260   32.3990   38.0150 O   0  0  0  0  0  0  0  0  0  0  0  0
   48.0900   33.8480   38.2350 P   0  0  2  0  0  0  0  0  0  0  0  0
   49.3370   34.7900   37.5760 O   0  0  0  0  0  0  0  0  0  0  0  0
   50.2120   34.3360   37.7710 H   0  0  0  0  0  0  0  0  0  0  0  0
   46.7380   34.0410   37.2600 O   0  0  0  0  0  0  0  0  0  0  0  0
   45.7740   33.0710   37.0590 C   0  0  0  0  0  0  0  0  0  0  0  0
   45.6280   32.2200   35.9840 C   0  0  0  0  0  0  0  0  0  0  0  0
   44.6220   31.3100   35.9240 C   0  0  0  0  0  0  0  0  0  0  0  0
   43.7060   31.2090   36.9520 C   0  0  0  0  0  0  0  0  0  0  0  0
   43.8900   32.0890   38.0230 C   0  0  0  0  0  0  0  0  0  0  0  0
   44.8980   32.9860   38.0590 N   0  0  0  0  0  0  0  0  0  0  0  0
   46.3830   32.3490   35.2060 H   0  0  0  0  0  0  0  0  0  0  0  0
   44.5660   30.6700   35.0460 H   0  0  0  0  0  0  0  0  0  0  0  0
   42.8990   30.4910   36.9260 H   0  0  0  0  0  0  0  0  0  0  0  0
   42.9060   32.0040   39.1620 C   0  0  0  0  0  0  0  0  0  0  0  0
   43.4960   32.0610   40.1230 H   0  0  0  0  0  0  0  0  0  0  0  0
  1  4  1  0  0  0  0
  2  5  1  1  0  0  0
  2 11  1  0  0  0  0
  3  7  1  0  0  0  0
  3  2  1  0  0  0  0
  3  6  1  0  0  0  0
  4  8  1  6  0  0  0
  4  3  1  0  0  0  0
  4  2  1  0  0  0  0
  9 15  1  0  0  0  0
 10 16  1  0  0  0  0
 10  9  2  0  0  0  0
 11 10  1  0  0  0  0
 12 11  2  0  0  0  0
 12 13  1  0  0  0  0
 13 14  2  0  0  0  0
 14  9  1  0  0  0  0
 17 13  1  0  0  0  0
 19 18  2  6  0  0  0
 19  1  1  0  0  0  0
 20 21  1  0  0  0  0
 20 19  1  0  0  0  0
 22 19  1  0  0  0  0
 23 22  1  0  0  0  0
 23 28  1  0  0  0  0
 24 23  2  0  0  0  0
 25 24  1  0  0  0  0
 25 26  2  0  0  0  0
 26 27  1  0  0  0  0
 27 28  2  0  0  0  0
 27 32  1  0  0  0  0
 29 24  1  0  0  0  0
 30 25  1  0  0  0  0
 31 26  1  0  0  0  0
 32 33  1  0  0  0  0
M  END
>  <minimizedAffinity>
-4.38126993

>  <minimizedRMSD>
0.0697805583

$$$$
