
 OpenBabel03252506323D

 25 26  0  0  1  0  0  0  0  0999 V2000
   38.5650   31.7270   41.0020 C   0  0  0  0  0  0  0  0  0  0  0  0
   37.2920   32.0730   40.5580 C   0  0  0  0  0  0  0  0  0  0  0  0
   36.2810   31.1650   40.7530 C   0  0  0  0  0  0  0  0  0  0  0  0
   36.5820   29.9920   41.3650 N   0  0  0  0  0  0  0  0  0  0  0  0
   37.8090   29.6900   41.7780 C   0  0  0  0  0  0  0  0  0  0  0  0
   38.8290   30.5570   41.6040 N   0  0  0  0  0  0  0  0  0  0  0  0
   38.0370   28.4400   42.4120 N   0  0  0  0  0  0  0  0  0  0  0  0
   39.2190   28.0910   43.1980 C   0  0  0  0  0  0  0  0  0  0  0  0
   39.4120   26.6440   42.8090 C   0  0  0  0  0  0  0  0  0  0  0  0
   38.1450   26.1890   42.1210 C   0  0  0  0  0  0  0  0  0  0  0  0
   37.1710   27.2800   42.4140 C   0  0  1  0  0  0  0  0  0  0  0  0
   39.4070   32.3820   40.8850 H   0  0  0  0  0  0  0  0  0  0  0  0
   35.3040   31.4560   40.4000 H   0  0  0  0  0  0  0  0  0  0  0  0
   39.0370   28.2100   44.2930 H   0  0  0  0  0  0  0  0  0  0  0  0
   40.0780   28.7230   42.8610 H   0  0  0  0  0  0  0  0  0  0  0  0
   40.2420   26.5790   42.0820 H   0  0  0  0  0  0  0  0  0  0  0  0
   39.6660   26.0100   43.6840 H   0  0  0  0  0  0  0  0  0  0  0  0
   38.2850   25.9600   41.0550 H   0  0  0  0  0  0  0  0  0  0  0  0
   37.7780   25.2780   42.6620 H   0  0  0  0  0  0  0  0  0  0  0  0
   36.5160   27.3810   41.5020 H   0  0  0  0  0  0  0  0  0  0  0  0
   37.1830   33.3620   39.9400 N   0  0  0  0  0  0  0  0  0  0  0  0
   37.9600   33.7520   39.4020 H   0  0  0  0  0  0  0  0  0  0  0  0
   36.2350   33.7830   40.1340 H   0  0  0  0  0  0  0  0  0  0  0  0
   36.3930   27.1080   43.6780 C   0  0  0  0  0  2  0  0  0  0  0  0
   36.4490   27.9790   44.3520 H   0  0  0  0  0  0  0  0  0  0  0  0
  1  6  1  0  0  0  0
  2  3  1  0  0  0  0
  2  1  2  0  0  0  0
  3  4  2  0  0  0  0
  4  5  1  0  0  0  0
  5  7  1  0  0  0  0
  6  5  2  0  0  0  0
  7 11  1  0  0  0  0
  7  8  1  0  0  0  0
  8 14  1  0  0  0  0
  9  8  1  0  0  0  0
  9 17  1  0  0  0  0
 10 11  1  0  0  0  0
 10 19  1  0  0  0  0
 10  9  1  0  0  0  0
 11 20  1  6  0  0  0
 11 24  1  0  0  0  0
 12  1  1  0  0  0  0
 13  3  1  0  0  0  0
 15  8  1  0  0  0  0
 16  9  1  0  0  0  0
 18 10  1  0  0  0  0
 21 23  1  0  0  0  0
 21  2  1  0  0  0  0
 22 21  1  0  0  0  0
 24 25  1  0  0  0  0
M  END
>  <minimizedAffinity>
-4.73113489

$$$$

 OpenBabel03252506323D

 25 26  0  0  1  0  0  0  0  0999 V2000
   36.9500   31.9950   39.8290 C   0  0  0  0  0  0  0  0  0  0  0  0
   37.9740   32.8810   40.1520 C   0  0  0  0  0  0  0  0  0  0  0  0
   38.9340   32.4510   41.0340 C   0  0  0  0  0  0  0  0  0  0  0  0
   38.8280   31.1950   41.5350 N   0  0  0  0  0  0  0  0  0  0  0  0
   37.8370   30.3710   41.2080 C   0  0  0  0  0  0  0  0  0  0  0  0
   36.8740   30.7580   40.3440 N   0  0  0  0  0  0  0  0  0  0  0  0
   37.8020   29.0710   41.7770 N   0  0  0  0  0  0  0  0  0  0  0  0
   36.9920   27.9550   41.2940 C   0  0  0  0  0  0  0  0  0  0  0  0
   36.5900   27.3000   42.5940 C   0  0  0  0  0  0  0  0  0  0  0  0
   37.4730   27.8710   43.6800 C   0  0  0  0  0  0  0  0  0  0  0  0
   38.5410   28.5900   42.9250 C   0  0  1  0  0  0  0  0  0  0  0  0
   36.1620   32.2560   39.1490 H   0  0  0  0  0  0  0  0  0  0  0  0
   39.7170   33.1550   41.2680 H   0  0  0  0  0  0  0  0  0  0  0  0
   37.5840   27.2660   40.6430 H   0  0  0  0  0  0  0  0  0  0  0  0
   36.1040   28.3600   40.7490 H   0  0  0  0  0  0  0  0  0  0  0  0
   35.5430   27.5730   42.8210 H   0  0  0  0  0  0  0  0  0  0  0  0
   36.6550   26.1930   42.5390 H   0  0  0  0  0  0  0  0  0  0  0  0
   36.9260   28.4820   44.4120 H   0  0  0  0  0  0  0  0  0  0  0  0
   37.9700   27.0100   44.1970 H   0  0  0  0  0  0  0  0  0  0  0  0
   38.8040   29.5040   43.5300 H   0  0  0  0  0  0  0  0  0  0  0  0
   37.9070   34.1610   39.5100 N   0  0  0  0  0  0  0  0  0  0  0  0
   37.0050   34.5890   39.2890 H   0  0  0  0  0  0  0  0  0  0  0  0
   38.8780   34.5330   39.3310 H   0  0  0  0  0  0  0  0  0  0  0  0
   39.7320   27.7590   42.5740 C   0  0  0  0  0  2  0  0  0  0  0  0
   39.9820   27.7810   41.5000 H   0  0  0  0  0  0  0  0  0  0  0  0
  1  2  2  0  0  0  0
  1  6  1  0  0  0  0
  2  3  1  0  0  0  0
  3 13  1  0  0  0  0
  3  4  2  0  0  0  0
  5  4  1  0  0  0  0
  5  7  1  0  0  0  0
  6  5  2  0  0  0  0
  7 11  1  0  0  0  0
  8  7  1  0  0  0  0
  8  9  1  0  0  0  0
  9 16  1  0  0  0  0
  9 10  1  0  0  0  0
 10 19  1  0  0  0  0
 10 18  1  0  0  0  0
 11 20  1  1  0  0  0
 11 10  1  0  0  0  0
 12  1  1  0  0  0  0
 14  8  1  0  0  0  0
 15  8  1  0  0  0  0
 17  9  1  0  0  0  0
 21  2  1  0  0  0  0
 22 21  1  0  0  0  0
 23 21  1  0  0  0  0
 24 11  1  0  0  0  0
 25 24  1  0  0  0  0
M  END
>  <minimizedAffinity>
-4.55468273

$$$$

 OpenBabel03252506323D

 25 26  0  0  1  0  0  0  0  0999 V2000
   37.5050   29.8170   42.1860 C   0  0  0  0  0  0  0  0  0  0  0  0
   36.3890   29.8370   41.3550 C   0  0  0  0  0  0  0  0  0  0  0  0
   36.0120   28.6550   40.7670 C   0  0  0  0  0  0  0  0  0  0  0  0
   36.7460   27.5450   41.0310 N   0  0  0  0  0  0  0  0  0  0  0  0
   37.8080   27.5580   41.8300 C   0  0  0  0  0  0  0  0  0  0  0  0
   38.2110   28.7010   42.4260 N   0  0  0  0  0  0  0  0  0  0  0  0
   38.5200   26.3490   42.0540 N   0  0  0  0  0  0  0  0  0  0  0  0
   39.4860   26.1200   43.1260 C   0  0  0  0  0  0  0  0  0  0  0  0
   40.5090   25.2630   42.4200 C   0  0  0  0  0  0  0  0  0  0  0  0
   39.8840   24.7850   41.1290 C   0  0  0  0  0  0  0  0  0  0  0  0
   38.4400   25.1240   41.2880 C   0  0  1  0  0  0  0  0  0  0  0  0
   37.8640   30.6990   42.6810 H   0  0  0  0  0  0  0  0  0  0  0  0
   35.1440   28.6960   40.1280 H   0  0  0  0  0  0  0  0  0  0  0  0
   39.0220   25.5920   43.9940 H   0  0  0  0  0  0  0  0  0  0  0  0
   39.9210   27.1020   43.4380 H   0  0  0  0  0  0  0  0  0  0  0  0
   41.3850   25.8890   42.1680 H   0  0  0  0  0  0  0  0  0  0  0  0
   40.8550   24.4210   43.0560 H   0  0  0  0  0  0  0  0  0  0  0  0
   40.3660   25.1970   40.2320 H   0  0  0  0  0  0  0  0  0  0  0  0
   39.9510   23.6660   41.1180 H   0  0  0  0  0  0  0  0  0  0  0  0
   38.0640   25.4190   40.2680 H   0  0  0  0  0  0  0  0  0  0  0  0
   35.7500   31.1120   41.2110 N   0  0  0  0  0  0  0  0  0  0  0  0
   36.2940   31.9770   41.2400 H   0  0  0  0  0  0  0  0  0  0  0  0
   34.7100   30.9890   41.0820 H   0  0  0  0  0  0  0  0  0  0  0  0
   37.6110   24.0610   41.9320 C   0  0  0  0  0  2  0  0  0  0  0  0
   37.0340   24.4190   42.8010 H   0  0  0  0  0  0  0  0  0  0  0  0
  1  6  1  0  0  0  0
  1 12  1  0  0  0  0
  2  1  2  0  0  0  0
  3  4  2  0  0  0  0
  3  2  1  0  0  0  0
  4  5  1  0  0  0  0
  5  7  1  0  0  0  0
  5  6  2  0  0  0  0
  7  8  1  0  0  0  0
  8 15  1  0  0  0  0
  8 14  1  0  0  0  0
  9 17  1  0  0  0  0
  9  8  1  0  0  0  0
 10 11  1  0  0  0  0
 10  9  1  0  0  0  0
 11 20  1  6  0  0  0
 11 24  1  0  0  0  0
 11  7  1  0  0  0  0
 13  3  1  0  0  0  0
 16  9  1  0  0  0  0
 18 10  1  0  0  0  0
 19 10  1  0  0  0  0
 21 22  1  0  0  0  0
 21  2  1  0  0  0  0
 23 21  1  0  0  0  0
 24 25  1  0  0  0  0
M  END
>  <minimizedAffinity>
-4.476192

$$$$

 OpenBabel03252506323D

 25 26  0  0  1  0  0  0  0  0999 V2000
   42.2000   26.7110   43.6800 C   0  0  0  0  0  0  0  0  0  0  0  0
   42.3850   25.3870   43.2920 C   0  0  0  0  0  0  0  0  0  0  0  0
   41.3170   24.7340   42.7290 C   0  0  0  0  0  0  0  0  0  0  0  0
   40.1530   25.4140   42.5830 N   0  0  0  0  0  0  0  0  0  0  0  0
   40.0070   26.6800   42.9630 C   0  0  0  0  0  0  0  0  0  0  0  0
   41.0330   27.3560   43.5220 N   0  0  0  0  0  0  0  0  0  0  0  0
   38.7520   27.3190   42.7720 N   0  0  0  0  0  0  0  0  0  0  0  0
   38.5180   28.7590   42.8300 C   0  0  0  0  0  0  0  0  0  0  0  0
   37.1610   28.8090   43.4920 C   0  0  0  0  0  0  0  0  0  0  0  0
   36.5820   27.4130   43.4390 C   0  0  0  0  0  0  0  0  0  0  0  0
   37.4780   26.6940   42.4880 C   0  0  1  0  0  0  0  0  0  0  0  0
   42.9840   27.2900   44.1280 H   0  0  0  0  0  0  0  0  0  0  0  0
   41.4860   23.7090   42.4370 H   0  0  0  0  0  0  0  0  0  0  0  0
   38.5050   29.2170   41.8110 H   0  0  0  0  0  0  0  0  0  0  0  0
   39.3030   29.2300   43.4720 H   0  0  0  0  0  0  0  0  0  0  0  0
   37.2930   29.0880   44.5540 H   0  0  0  0  0  0  0  0  0  0  0  0
   36.4940   29.5580   43.0160 H   0  0  0  0  0  0  0  0  0  0  0  0
   36.4790   26.9460   44.4290 H   0  0  0  0  0  0  0  0  0  0  0  0
   35.5790   27.4840   42.9440 H   0  0  0  0  0  0  0  0  0  0  0  0
   37.5620   25.6340   42.8620 H   0  0  0  0  0  0  0  0  0  0  0  0
   43.6940   24.8530   43.5280 N   0  0  0  0  0  0  0  0  0  0  0  0
   44.2480   25.1610   44.3310 H   0  0  0  0  0  0  0  0  0  0  0  0
   43.9430   24.1500   42.7830 H   0  0  0  0  0  0  0  0  0  0  0  0
   37.0700   26.7770   41.0530 C   0  0  0  0  0  2  0  0  0  0  0  0
   37.8720   27.1370   40.3870 H   0  0  0  0  0  0  0  0  0  0  0  0
  1 12  1  0  0  0  0
  2 21  1  0  0  0  0
  2  1  2  0  0  0  0
  3  2  1  0  0  0  0
  4  3  2  0  0  0  0
  4  5  1  0  0  0  0
  5  6  2  0  0  0  0
  6  1  1  0  0  0  0
  7  8  1  0  0  0  0
  7  5  1  0  0  0  0
  8 15  1  0  0  0  0
  8  9  1  0  0  0  0
  9 16  1  0  0  0  0
 10  9  1  0  0  0  0
 10 18  1  0  0  0  0
 11  7  1  0  0  0  0
 11 20  1  1  0  0  0
 11 10  1  0  0  0  0
 13  3  1  0  0  0  0
 14  8  1  0  0  0  0
 17  9  1  0  0  0  0
 19 10  1  0  0  0  0
 21 22  1  0  0  0  0
 23 21  1  0  0  0  0
 24 11  1  0  0  0  0
 25 24  1  0  0  0  0
M  END
>  <minimizedAffinity>
-4.39620209

$$$$

 OpenBabel03252506323D

 25 26  0  0  1  0  0  0  0  0999 V2000
   35.9950   28.6540   41.0300 C   0  0  0  0  0  0  0  0  0  0  0  0
   36.5570   29.8730   41.3970 C   0  0  0  0  0  0  0  0  0  0  0  0
   37.8530   29.8660   41.8480 C   0  0  0  0  0  0  0  0  0  0  0  0
   38.5050   28.6780   41.9090 N   0  0  0  0  0  0  0  0  0  0  0  0
   37.9410   27.5290   41.5500 C   0  0  0  0  0  0  0  0  0  0  0  0
   36.6680   27.4950   41.1020 N   0  0  0  0  0  0  0  0  0  0  0  0
   38.6960   26.3290   41.6420 N   0  0  0  0  0  0  0  0  0  0  0  0
   38.3540   25.0610   41.0030 C   0  0  0  0  0  0  0  0  0  0  0  0
   38.7840   24.0740   42.0620 C   0  0  0  0  0  0  0  0  0  0  0  0
   39.6460   24.8220   43.0530 C   0  0  0  0  0  0  0  0  0  0  0  0
   39.9300   26.1170   42.3680 C   0  0  1  0  0  0  0  0  0  0  0  0
   34.9880   28.5750   40.6690 H   0  0  0  0  0  0  0  0  0  0  0  0
   38.2660   30.8230   42.1270 H   0  0  0  0  0  0  0  0  0  0  0  0
   38.9100   24.9180   40.0440 H   0  0  0  0  0  0  0  0  0  0  0  0
   37.2490   25.0250   40.8360 H   0  0  0  0  0  0  0  0  0  0  0  0
   37.8860   23.7070   42.5930 H   0  0  0  0  0  0  0  0  0  0  0  0
   39.3100   23.1990   41.6250 H   0  0  0  0  0  0  0  0  0  0  0  0
   39.1900   24.9090   44.0490 H   0  0  0  0  0  0  0  0  0  0  0  0
   40.6230   24.2780   43.1270 H   0  0  0  0  0  0  0  0  0  0  0  0
   39.9570   26.9070   43.1720 H   0  0  0  0  0  0  0  0  0  0  0  0
   35.7020   31.0140   41.2550 N   0  0  0  0  0  0  0  0  0  0  0  0
   34.6920   30.9320   41.3950 H   0  0  0  0  0  0  0  0  0  0  0  0
   36.2670   31.8680   41.0010 H   0  0  0  0  0  0  0  0  0  0  0  0
   41.1490   26.1190   41.5040 C   0  0  0  0  0  2  0  0  0  0  0  0
   40.9570   26.4600   40.4730 H   0  0  0  0  0  0  0  0  0  0  0  0
  1  6  2  0  0  0  0
  1  2  1  0  0  0  0
  2  3  2  0  0  0  0
  3  4  1  0  0  0  0
  3 13  1  0  0  0  0
  5  7  1  0  0  0  0
  5  4  2  0  0  0  0
  6  5  1  0  0  0  0
  7 11  1  0  0  0  0
  8  7  1  0  0  0  0
  8  9  1  0  0  0  0
  9 16  1  0  0  0  0
  9 10  1  0  0  0  0
 10 19  1  0  0  0  0
 10 18  1  0  0  0  0
 11 10  1  0  0  0  0
 11 20  1  1  0  0  0
 12  1  1  0  0  0  0
 14  8  1  0  0  0  0
 15  8  1  0  0  0  0
 17  9  1  0  0  0  0
 21 22  1  0  0  0  0
 21  2  1  0  0  0  0
 23 21  1  0  0  0  0
 24 11  1  0  0  0  0
 25 24  1  0  0  0  0
M  END
>  <minimizedAffinity>
-4.39389944

$$$$

 OpenBabel03252506323D

 25 26  0  0  1  0  0  0  0  0999 V2000
   35.9580   29.5910   40.0480 C   0  0  0  0  0  0  0  0  0  0  0  0
   36.6160   30.4310   40.9410 C   0  0  0  0  0  0  0  0  0  0  0  0
   37.4780   29.8540   41.8410 C   0  0  0  0  0  0  0  0  0  0  0  0
   37.6370   28.5070   41.8040 N   0  0  0  0  0  0  0  0  0  0  0  0
   36.9930   27.7310   40.9380 C   0  0  0  0  0  0  0  0  0  0  0  0
   36.1370   28.2610   40.0380 N   0  0  0  0  0  0  0  0  0  0  0  0
   37.2190   26.3290   40.9660 N   0  0  0  0  0  0  0  0  0  0  0  0
   36.8570   25.3900   39.9070 C   0  0  0  0  0  0  0  0  0  0  0  0
   36.4210   24.1910   40.7140 C   0  0  0  0  0  0  0  0  0  0  0  0
   36.8950   24.4060   42.1340 C   0  0  0  0  0  0  0  0  0  0  0  0
   37.8390   25.5560   42.0220 C   0  0  1  0  0  0  0  0  0  0  0  0
   35.2680   29.9640   39.3160 H   0  0  0  0  0  0  0  0  0  0  0  0
   37.9760   30.5260   42.5220 H   0  0  0  0  0  0  0  0  0  0  0  0
   37.7270   25.1580   39.2460 H   0  0  0  0  0  0  0  0  0  0  0  0
   36.0070   25.8170   39.3180 H   0  0  0  0  0  0  0  0  0  0  0  0
   35.3170   24.1480   40.7210 H   0  0  0  0  0  0  0  0  0  0  0  0
   36.8030   23.2400   40.2850 H   0  0  0  0  0  0  0  0  0  0  0  0
   36.0730   24.5440   42.8520 H   0  0  0  0  0  0  0  0  0  0  0  0
   37.5090   23.5140   42.4230 H   0  0  0  0  0  0  0  0  0  0  0  0
   37.7200   26.1650   42.9630 H   0  0  0  0  0  0  0  0  0  0  0  0
   36.3140   31.8260   40.8130 N   0  0  0  0  0  0  0  0  0  0  0  0
   35.3850   32.1350   40.5170 H   0  0  0  0  0  0  0  0  0  0  0  0
   37.1570   32.4090   41.0600 H   0  0  0  0  0  0  0  0  0  0  0  0
   39.2580   25.1800   41.7440 C   0  0  0  0  0  2  0  0  0  0  0  0
   39.6860   25.6940   40.8670 H   0  0  0  0  0  0  0  0  0  0  0  0
  1  2  1  0  0  0  0
  2  3  2  0  0  0  0
  3 13  1  0  0  0  0
  4  3  1  0  0  0  0
  5  7  1  0  0  0  0
  5  4  2  0  0  0  0
  6  1  2  0  0  0  0
  6  5  1  0  0  0  0
  7 11  1  0  0  0  0
  8  9  1  0  0  0  0
  8  7  1  0  0  0  0
  9 16  1  0  0  0  0
  9 10  1  0  0  0  0
 10 19  1  0  0  0  0
 10 18  1  0  0  0  0
 11 10  1  0  0  0  0
 11 20  1  1  0  0  0
 12  1  1  0  0  0  0
 14  8  1  0  0  0  0
 15  8  1  0  0  0  0
 17  9  1  0  0  0  0
 21  2  1  0  0  0  0
 21 23  1  0  0  0  0
 22 21  1  0  0  0  0
 24 11  1  0  0  0  0
 25 24  1  0  0  0  0
M  END
>  <minimizedAffinity>
-4.32825136

$$$$

 OpenBabel03252506323D

 25 26  0  0  1  0  0  0  0  0999 V2000
   38.2940   30.5690   37.9910 C   0  0  0  0  0  0  0  0  0  0  0  0
   39.3510   31.4700   38.0860 C   0  0  0  0  0  0  0  0  0  0  0  0
   40.0690   31.4870   39.2560 C   0  0  0  0  0  0  0  0  0  0  0  0
   39.7080   30.6290   40.2430 N   0  0  0  0  0  0  0  0  0  0  0  0
   38.6920   29.7800   40.1220 C   0  0  0  0  0  0  0  0  0  0  0  0
   37.9620   29.7340   38.9880 N   0  0  0  0  0  0  0  0  0  0  0  0
   38.3830   28.9140   41.2050 N   0  0  0  0  0  0  0  0  0  0  0  0
   37.5330   27.7280   41.1260 C   0  0  0  0  0  0  0  0  0  0  0  0
   36.8190   27.7900   42.4540 C   0  0  0  0  0  0  0  0  0  0  0  0
   37.5590   28.7850   43.3190 C   0  0  0  0  0  0  0  0  0  0  0  0
   38.8320   29.0210   42.5770 C   0  0  1  0  0  0  0  0  0  0  0  0
   37.6840   30.4960   37.1120 H   0  0  0  0  0  0  0  0  0  0  0  0
   40.8830   32.1930   39.3050 H   0  0  0  0  0  0  0  0  0  0  0  0
   38.1370   26.7940   41.0160 H   0  0  0  0  0  0  0  0  0  0  0  0
   36.8200   27.8480   40.2720 H   0  0  0  0  0  0  0  0  0  0  0  0
   35.7940   28.1700   42.2900 H   0  0  0  0  0  0  0  0  0  0  0  0
   36.7460   26.7910   42.9340 H   0  0  0  0  0  0  0  0  0  0  0  0
   36.9740   29.6880   43.5440 H   0  0  0  0  0  0  0  0  0  0  0  0
   37.8360   28.2630   44.2720 H   0  0  0  0  0  0  0  0  0  0  0  0
   39.0990   30.1050   42.7320 H   0  0  0  0  0  0  0  0  0  0  0  0
   39.5710   32.2860   36.9290 N   0  0  0  0  0  0  0  0  0  0  0  0
   38.7890   32.5820   36.3410 H   0  0  0  0  0  0  0  0  0  0  0  0
   40.5990   32.4970   36.8190 H   0  0  0  0  0  0  0  0  0  0  0  0
   39.9460   28.0880   42.9240 C   0  0  0  0  0  2  0  0  0  0  0  0
   40.3870   27.5840   42.0480 H   0  0  0  0  0  0  0  0  0  0  0  0
  1  2  2  0  0  0  0
  1  6  1  0  0  0  0
  2  3  1  0  0  0  0
  3 13  1  0  0  0  0
  3  4  2  0  0  0  0
  5  4  1  0  0  0  0
  5  7  1  0  0  0  0
  6  5  2  0  0  0  0
  7 11  1  0  0  0  0
  8  7  1  0  0  0  0
  8  9  1  0  0  0  0
  9 17  1  0  0  0  0
  9 10  1  0  0  0  0
 10 18  1  0  0  0  0
 10 19  1  0  0  0  0
 11 20  1  1  0  0  0
 11 24  1  0  0  0  0
 11 10  1  0  0  0  0
 12  1  1  0  0  0  0
 14  8  1  0  0  0  0
 15  8  1  0  0  0  0
 16  9  1  0  0  0  0
 21  2  1  0  0  0  0
 22 21  1  0  0  0  0
 23 21  1  0  0  0  0
 25 24  1  0  0  0  0
M  END
>  <minimizedAffinity>
-4.29688597

$$$$

 OpenBabel03252506323D

 25 26  0  0  1  0  0  0  0  0999 V2000
   38.4310   29.3020   43.0010 C   0  0  0  0  0  0  0  0  0  0  0  0
   37.3410   28.4720   42.7550 C   0  0  0  0  0  0  0  0  0  0  0  0
   36.5430   28.7720   41.6790 C   0  0  0  0  0  0  0  0  0  0  0  0
   36.8640   29.8520   40.9230 N   0  0  0  0  0  0  0  0  0  0  0  0
   37.9130   30.6260   41.1840 C   0  0  0  0  0  0  0  0  0  0  0  0
   38.7210   30.3640   42.2330 N   0  0  0  0  0  0  0  0  0  0  0  0
   38.1790   31.7370   40.3400 N   0  0  0  0  0  0  0  0  0  0  0  0
   39.4360   32.4790   40.2860 C   0  0  0  0  0  0  0  0  0  0  0  0
   38.9360   33.8890   40.0820 C   0  0  0  0  0  0  0  0  0  0  0  0
   37.4790   33.7980   39.6870 C   0  0  0  0  0  0  0  0  0  0  0  0
   37.2850   32.3500   39.3810 C   0  0  1  0  0  0  0  0  0  0  0  0
   39.1010   29.1360   43.8220 H   0  0  0  0  0  0  0  0  0  0  0  0
   35.7050   28.1140   41.5090 H   0  0  0  0  0  0  0  0  0  0  0  0
   40.0830   32.1360   39.4420 H   0  0  0  0  0  0  0  0  0  0  0  0
   39.9640   32.3710   41.2670 H   0  0  0  0  0  0  0  0  0  0  0  0
   38.9990   34.4330   41.0420 H   0  0  0  0  0  0  0  0  0  0  0  0
   39.5400   34.4390   39.3300 H   0  0  0  0  0  0  0  0  0  0  0  0
   36.7950   34.2120   40.4410 H   0  0  0  0  0  0  0  0  0  0  0  0
   37.3580   34.3490   38.7180 H   0  0  0  0  0  0  0  0  0  0  0  0
   36.2420   32.0870   39.7160 H   0  0  0  0  0  0  0  0  0  0  0  0
   37.1790   27.3800   43.6690 N   0  0  0  0  0  0  0  0  0  0  0  0
   37.4510   27.4740   44.6510 H   0  0  0  0  0  0  0  0  0  0  0  0
   36.7640   26.5460   43.1750 H   0  0  0  0  0  0  0  0  0  0  0  0
   37.5590   31.9640   37.9640 C   0  0  0  0  0  2  0  0  0  0  0  0
   38.2780   31.1330   37.8660 H   0  0  0  0  0  0  0  0  0  0  0  0
  1 12  1  0  0  0  0
  2  1  1  0  0  0  0
  2 21  1  0  0  0  0
  3  2  2  0  0  0  0
  4  5  2  0  0  0  0
  4  3  1  0  0  0  0
  5  6  1  0  0  0  0
  6  1  2  0  0  0  0
  7  5  1  0  0  0  0
  8  7  1  0  0  0  0
  8 15  1  0  0  0  0
  9  8  1  0  0  0  0
  9 16  1  0  0  0  0
 10  9  1  0  0  0  0
 10 18  1  0  0  0  0
 11 10  1  0  0  0  0
 11 20  1  1  0  0  0
 11  7  1  0  0  0  0
 13  3  1  0  0  0  0
 14  8  1  0  0  0  0
 17  9  1  0  0  0  0
 19 10  1  0  0  0  0
 21 22  1  0  0  0  0
 23 21  1  0  0  0  0
 24 11  1  0  0  0  0
 25 24  1  0  0  0  0
M  END
>  <minimizedAffinity>
-4.21835947

$$$$

 OpenBabel03252506323D

 25 26  0  0  1  0  0  0  0  0999 V2000
   37.9560   31.9970   38.7120 C   0  0  0  0  0  0  0  0  0  0  0  0
   38.2670   31.3920   37.4980 C   0  0  0  0  0  0  0  0  0  0  0  0
   38.4250   30.0280   37.4880 C   0  0  0  0  0  0  0  0  0  0  0  0
   38.2690   29.3560   38.6560 N   0  0  0  0  0  0  0  0  0  0  0  0
   37.9720   29.9630   39.8010 C   0  0  0  0  0  0  0  0  0  0  0  0
   37.8090   31.3020   39.8510 N   0  0  0  0  0  0  0  0  0  0  0  0
   37.8240   29.1820   40.9790 N   0  0  0  0  0  0  0  0  0  0  0  0
   37.1980   29.6310   42.2200 C   0  0  0  0  0  0  0  0  0  0  0  0
   38.0760   28.9610   43.2500 C   0  0  0  0  0  0  0  0  0  0  0  0
   38.9000   27.9180   42.5300 C   0  0  0  0  0  0  0  0  0  0  0  0
   38.2510   27.8160   41.1910 C   0  0  1  0  0  0  0  0  0  0  0  0
   37.8180   33.0570   38.8030 H   0  0  0  0  0  0  0  0  0  0  0  0
   38.6650   29.5830   36.5350 H   0  0  0  0  0  0  0  0  0  0  0  0
   36.1350   29.2950   42.2910 H   0  0  0  0  0  0  0  0  0  0  0  0
   37.2730   30.7450   42.2820 H   0  0  0  0  0  0  0  0  0  0  0  0
   38.7650   29.7140   43.6740 H   0  0  0  0  0  0  0  0  0  0  0  0
   37.4820   28.5260   44.0810 H   0  0  0  0  0  0  0  0  0  0  0  0
   39.9750   28.1470   42.5130 H   0  0  0  0  0  0  0  0  0  0  0  0
   38.7270   26.9380   43.0460 H   0  0  0  0  0  0  0  0  0  0  0  0
   39.0760   27.6290   40.4460 H   0  0  0  0  0  0  0  0  0  0  0  0
   38.3840   32.2800   36.3790 N   0  0  0  0  0  0  0  0  0  0  0  0
   38.7340   33.2330   36.5010 H   0  0  0  0  0  0  0  0  0  0  0  0
   38.0670   31.8000   35.4950 H   0  0  0  0  0  0  0  0  0  0  0  0
   37.1450   26.8150   41.1020 C   0  0  0  0  0  2  0  0  0  0  0  0
   36.2030   27.2340   40.7100 H   0  0  0  0  0  0  0  0  0  0  0  0
  1 12  1  0  0  0  0
  1  6  1  0  0  0  0
  2  1  2  0  0  0  0
  3  2  1  0  0  0  0
  3  4  2  0  0  0  0
  4  5  1  0  0  0  0
  5  6  2  0  0  0  0
  5  7  1  0  0  0  0
  7 11  1  0  0  0  0
  7  8  1  0  0  0  0
  8 15  1  0  0  0  0
  8 14  1  0  0  0  0
  8  9  1  0  0  0  0
  9 16  1  0  0  0  0
  9 17  1  0  0  0  0
 10 19  1  0  0  0  0
 10  9  1  0  0  0  0
 11 20  1  6  0  0  0
 11 10  1  0  0  0  0
 13  3  1  0  0  0  0
 18 10  1  0  0  0  0
 21 22  1  0  0  0  0
 21  2  1  0  0  0  0
 23 21  1  0  0  0  0
 24 11  1  0  0  0  0
 25 24  1  0  0  0  0
M  END
>  <minimizedAffinity>
-4.13789225

$$$$
