
 OpenBabel03252509333D

 33 34  0  0  1  0  0  0  0  0999 V2000
   44.6730   35.2870   45.0710 O   0  0  0  0  0  0  0  0  0  0  0  0
   45.4760   34.2580   44.3290 P   0  0  2  0  0  0  0  0  0  0  0  0
   44.5310   33.0550   43.6410 O   0  0  0  0  0  0  0  0  0  0  0  0
   44.3680   33.1630   42.6800 H   0  0  0  0  0  0  0  0  0  0  0  0
   46.5210   33.4640   45.4090 O   0  0  0  0  0  0  0  0  0  0  0  0
   46.1940   32.1430   45.4220 C   0  0  0  0  0  0  0  0  0  0  0  0
   47.1310   31.5900   45.1150 H   0  0  0  0  0  0  0  0  0  0  0  0
   45.4260   31.7850   44.7550 H   0  0  0  0  0  0  0  0  0  0  0  0
   45.7540   32.0370   49.1160 C   0  0  0  0  0  0  0  0  0  0  0  0
   46.0460   32.5200   47.8320 C   0  0  0  0  0  0  0  0  0  0  0  0
   45.8890   31.6440   46.7720 C   0  0  0  0  0  0  0  0  0  0  0  0
   45.4610   30.3760   47.0290 N   0  0  0  0  0  0  0  0  0  0  0  0
   45.1870   29.9380   48.2700 C   0  0  0  0  0  0  0  0  0  0  0  0
   45.3350   30.7700   49.3010 N   0  0  0  0  0  0  0  0  0  0  0  0
   45.8920   32.7580   49.9160 H   0  0  0  0  0  0  0  0  0  0  0  0
   46.3820   33.5420   47.6980 H   0  0  0  0  0  0  0  0  0  0  0  0
   44.8500   28.9250   48.4340 H   0  0  0  0  0  0  0  0  0  0  0  0
   46.4360   35.0340   43.1810 O   0  0  0  0  0  0  0  0  0  0  0  0
   46.9210   34.0840   42.2810 C   0  0  1  0  0  0  0  0  0  0  0  0
   46.3980   34.2680   40.8810 C   0  0  0  0  0  0  0  0  0  0  0  0
   47.3380   33.3650   40.0990 C   0  0  0  0  0  0  0  0  0  0  0  0
   48.6330   33.3450   40.8680 C   0  0  0  0  0  0  0  0  0  0  0  0
   48.4170   34.2990   42.0450 C   0  0  1  0  0  0  0  0  0  0  0  0
   46.8130   33.0550   42.6180 H   0  0  0  0  0  0  0  0  0  0  0  0
   45.3660   33.8480   40.8660 H   0  0  0  0  0  0  0  0  0  0  0  0
   46.4350   35.3040   40.5550 H   0  0  0  0  0  0  0  0  0  0  0  0
   46.9170   32.3410   39.9670 H   0  0  0  0  0  0  0  0  0  0  0  0
   47.5150   33.8520   39.1180 H   0  0  0  0  0  0  0  0  0  0  0  0
   48.7510   32.3340   41.3120 H   0  0  0  0  0  0  0  0  0  0  0  0
   49.5120   33.6700   40.2750 H   0  0  0  0  0  0  0  0  0  0  0  0
   48.9080   33.9130   42.9570 H   0  0  0  0  0  0  0  0  0  0  0  0
   48.7640   35.7160   41.7080 C   0  0  0  0  0  2  0  0  0  0  0  0
   47.9450   36.4160   41.9750 H   0  0  0  0  0  0  0  0  0  0  0  0
  2  1  2  1  0  0  0
  2  5  1  0  0  0  0
  3  2  1  0  0  0  0
  4  3  1  0  0  0  0
  5  6  1  0  0  0  0
  6 11  1  0  0  0  0
  7  6  1  0  0  0  0
  8  6  1  0  0  0  0
  9 14  1  0  0  0  0
  9 15  1  0  0  0  0
 10  9  2  0  0  0  0
 11 12  2  0  0  0  0
 11 10  1  0  0  0  0
 12 13  1  0  0  0  0
 13 17  1  0  0  0  0
 13 14  2  0  0  0  0
 16 10  1  0  0  0  0
 18  2  1  0  0  0  0
 19 24  1  1  0  0  0
 19 18  1  0  0  0  0
 20 19  1  0  0  0  0
 21 22  1  0  0  0  0
 21 20  1  0  0  0  0
 22 29  1  0  0  0  0
 22 23  1  0  0  0  0
 23 19  1  0  0  0  0
 23 31  1  1  0  0  0
 25 20  1  0  0  0  0
 26 20  1  0  0  0  0
 27 21  1  0  0  0  0
 28 21  1  0  0  0  0
 30 22  1  0  0  0  0
 32 33  1  0  0  0  0
 32 23  1  0  0  0  0
M  END
>  <minimizedAffinity>
-5.07517672

>  <minimizedRMSD>
0.453480631

$$$$
