
 OpenBabel03242514593D

 28 29  0  0  0  0  0  0  0  0999 V2000
   40.5930   30.4200   42.3290 C   0  0  0  0  0  0  0  0  0  0  0  0
   40.8590   29.4290   41.9090 H   0  0  0  0  0  0  0  0  0  0  0  0
   41.2820   30.5660   43.2010 H   0  0  0  0  0  0  0  0  0  0  0  0
   39.1910   30.3970   42.8440 C   0  0  0  0  0  0  0  0  0  0  0  0
   38.5890   31.0920   42.2250 H   0  0  0  0  0  0  0  0  0  0  0  0
   39.1630   30.7610   43.8740 H   0  0  0  0  0  0  0  0  0  0  0  0
   36.4760   30.2500   41.4760 Cl  0  0  0  0  0  0  0  0  0  0  0  0
   37.3400   28.8700   42.0820 C   0  0  0  0  0  0  0  0  0  0  0  0
   38.5820   29.0440   42.6950 C   0  0  0  0  0  0  0  0  0  0  0  0
   39.2050   27.9020   43.1490 C   0  0  0  0  0  0  0  0  0  0  0  0
   38.7290   26.6120   43.0610 C   0  0  0  0  0  0  0  0  0  0  0  0
   37.4960   26.4620   42.4490 C   0  0  0  0  0  0  0  0  0  0  0  0
   36.7970   24.8520   42.2840 Cl  0  0  0  0  0  0  0  0  0  0  0  0
   36.8270   27.5740   41.9750 C   0  0  0  0  0  0  0  0  0  0  0  0
   40.1700   28.0680   43.6230 H   0  0  0  0  0  0  0  0  0  0  0  0
   39.2950   25.7820   43.4490 H   0  0  0  0  0  0  0  0  0  0  0  0
   35.8580   27.4020   41.5000 H   0  0  0  0  0  0  0  0  0  0  0  0
   40.8820   31.6670   41.0660 S   0  0  0  0  0  0  0  0  0  0  0  0
   39.3930   32.0400   40.1230 C   0  0  0  0  0  0  0  0  0  0  0  0
   38.7280   33.2150   40.4990 C   0  0  0  0  0  0  0  0  0  0  0  0
   37.5640   33.5400   39.7850 C   0  0  0  0  0  0  0  0  0  0  0  0
   37.1570   32.7210   38.7990 N   0  0  0  0  0  0  0  0  0  0  0  0
   37.8120   31.5940   38.4530 C   0  0  0  0  0  0  0  0  0  0  0  0
   38.9220   31.2780   39.1270 N   0  0  0  0  0  0  0  0  0  0  0  0
   39.0390   33.8880   41.2890 H   0  0  0  0  0  0  0  0  0  0  0  0
   36.9960   34.4460   40.0280 H   0  0  0  0  0  0  0  0  0  0  0  0
   37.3790   30.6760   37.3680 C   0  0  0  0  0  2  0  0  0  0  0  0
   38.2700   30.2320   36.8560 H   0  0  0  0  0  0  0  0  0  0  0  0
  1  4  1  0  0  0  0
  1  3  1  0  0  0  0
  2  1  1  0  0  0  0
  4  6  1  0  0  0  0
  5  4  1  0  0  0  0
  7  8  1  0  0  0  0
  8  9  1  0  0  0  0
  9  4  1  0  0  0  0
  9 10  2  0  0  0  0
 10 15  1  0  0  0  0
 11 10  1  0  0  0  0
 11 16  1  0  0  0  0
 12 11  2  0  0  0  0
 13 12  1  0  0  0  0
 14  8  2  0  0  0  0
 14 12  1  0  0  0  0
 17 14  1  0  0  0  0
 18  1  1  0  0  0  0
 19 20  1  0  0  0  0
 19 18  1  0  0  0  0
 20 25  1  0  0  0  0
 21 26  1  0  0  0  0
 21 20  2  0  0  0  0
 22 21  1  0  0  0  0
 23 22  2  0  0  0  0
 23 24  1  0  0  0  0
 24 19  2  0  0  0  0
 27 23  1  0  0  0  0
 28 27  1  0  0  0  0
M  END
>  <minimizedAffinity>
-4.91423416

$$$$

 OpenBabel03242514593D

 28 29  0  0  0  0  0  0  0  0999 V2000
   35.9540   29.7640   40.3820 C   0  0  0  0  0  0  0  0  0  0  0  0
   34.8830   30.0440   40.4540 H   0  0  0  0  0  0  0  0  0  0  0  0
   35.9600   28.6500   40.2600 H   0  0  0  0  0  0  0  0  0  0  0  0
   36.6560   30.0950   41.6580 C   0  0  0  0  0  0  0  0  0  0  0  0
   35.8860   30.3020   42.4280 H   0  0  0  0  0  0  0  0  0  0  0  0
   37.2520   31.0020   41.5330 H   0  0  0  0  0  0  0  0  0  0  0  0
   39.4410   30.7070   42.7220 Cl  0  0  0  0  0  0  0  0  0  0  0  0
   38.7500   29.1150   42.6550 C   0  0  0  0  0  0  0  0  0  0  0  0
   37.4610   28.9390   42.1480 C   0  0  0  0  0  0  0  0  0  0  0  0
   36.9830   27.6470   42.1280 C   0  0  0  0  0  0  0  0  0  0  0  0
   37.6430   26.5160   42.5550 C   0  0  0  0  0  0  0  0  0  0  0  0
   38.9200   26.7120   43.0540 C   0  0  0  0  0  0  0  0  0  0  0  0
   39.8520   25.3310   43.6280 Cl  0  0  0  0  0  0  0  0  0  0  0  0
   39.4490   27.9890   43.0980 C   0  0  0  0  0  0  0  0  0  0  0  0
   35.9770   27.5400   41.7280 H   0  0  0  0  0  0  0  0  0  0  0  0
   37.1810   25.5450   42.4970 H   0  0  0  0  0  0  0  0  0  0  0  0
   40.4600   28.0900   43.5010 H   0  0  0  0  0  0  0  0  0  0  0  0
   36.6550   30.5720   38.9370 S   0  0  0  0  0  0  0  0  0  0  0  0
   37.9270   31.7710   39.3760 C   0  0  0  0  0  0  0  0  0  0  0  0
   37.4510   33.0360   39.7450 C   0  0  0  0  0  0  0  0  0  0  0  0
   38.4120   33.9970   40.0950 C   0  0  0  0  0  0  0  0  0  0  0  0
   39.7130   33.6570   40.0580 N   0  0  0  0  0  0  0  0  0  0  0  0
   40.1500   32.4320   39.7000 C   0  0  0  0  0  0  0  0  0  0  0  0
   39.2410   31.5110   39.3660 N   0  0  0  0  0  0  0  0  0  0  0  0
   36.4090   33.3300   39.7820 H   0  0  0  0  0  0  0  0  0  0  0  0
   38.1080   35.0070   40.3930 H   0  0  0  0  0  0  0  0  0  0  0  0
   41.5810   32.0370   39.6520 C   0  0  0  0  0  2  0  0  0  0  0  0
   41.6990   30.9630   39.9460 H   0  0  0  0  0  0  0  0  0  0  0  0
  1  2  1  0  0  0  0
  1  4  1  0  0  0  0
  3  1  1  0  0  0  0
  4  9  1  0  0  0  0
  4  5  1  0  0  0  0
  6  4  1  0  0  0  0
  8  7  1  0  0  0  0
  8 14  1  0  0  0  0
  9  8  2  0  0  0  0
 10  9  1  0  0  0  0
 10 11  2  0  0  0  0
 11 12  1  0  0  0  0
 12 14  2  0  0  0  0
 12 13  1  0  0  0  0
 14 17  1  0  0  0  0
 15 10  1  0  0  0  0
 16 11  1  0  0  0  0
 18 19  1  0  0  0  0
 18  1  1  0  0  0  0
 19 20  1  0  0  0  0
 20 25  1  0  0  0  0
 20 21  2  0  0  0  0
 21 26  1  0  0  0  0
 22 21  1  0  0  0  0
 23 22  2  0  0  0  0
 24 19  2  0  0  0  0
 24 23  1  0  0  0  0
 27 23  1  0  0  0  0
 27 28  1  0  0  0  0
M  END
>  <minimizedAffinity>
-4.80385256

$$$$

 OpenBabel03242514593D

 28 29  0  0  0  0  0  0  0  0999 V2000
   39.0410   31.4160   40.7900 C   0  0  0  0  0  0  0  0  0  0  0  0
   39.7570   32.2610   40.7400 H   0  0  0  0  0  0  0  0  0  0  0  0
   39.2600   30.7880   39.8880 H   0  0  0  0  0  0  0  0  0  0  0  0
   37.6410   31.9230   40.6750 C   0  0  0  0  0  0  0  0  0  0  0  0
   37.6660   32.8620   40.0860 H   0  0  0  0  0  0  0  0  0  0  0  0
   37.2460   32.1620   41.6650 H   0  0  0  0  0  0  0  0  0  0  0  0
   38.0990   31.7100   37.6730 Cl  0  0  0  0  0  0  0  0  0  0  0  0
   36.9100   30.7930   38.5470 C   0  0  0  0  0  0  0  0  0  0  0  0
   36.7790   30.9640   39.9270 C   0  0  0  0  0  0  0  0  0  0  0  0
   35.8140   30.2010   40.5480 C   0  0  0  0  0  0  0  0  0  0  0  0
   34.9690   29.2910   39.9510 C   0  0  0  0  0  0  0  0  0  0  0  0
   35.1160   29.1360   38.5830 C   0  0  0  0  0  0  0  0  0  0  0  0
   34.0850   27.9960   37.7190 Cl  0  0  0  0  0  0  0  0  0  0  0  0
   36.0690   29.8770   37.9080 C   0  0  0  0  0  0  0  0  0  0  0  0
   35.7340   30.3550   41.6220 H   0  0  0  0  0  0  0  0  0  0  0  0
   34.2450   28.7410   40.5270 H   0  0  0  0  0  0  0  0  0  0  0  0
   36.1450   29.7180   36.8290 H   0  0  0  0  0  0  0  0  0  0  0  0
   39.3570   30.4970   42.3030 S   0  0  0  0  0  0  0  0  0  0  0  0
   38.3930   28.9780   42.3920 C   0  0  0  0  0  0  0  0  0  0  0  0
   37.6590   28.8060   43.5740 C   0  0  0  0  0  0  0  0  0  0  0  0
   36.8940   27.6340   43.6800 C   0  0  0  0  0  0  0  0  0  0  0  0
   36.9070   26.7560   42.6610 N   0  0  0  0  0  0  0  0  0  0  0  0
   37.6210   26.9400   41.5320 C   0  0  0  0  0  0  0  0  0  0  0  0
   38.3520   28.0540   41.4230 N   0  0  0  0  0  0  0  0  0  0  0  0
   37.6340   29.5010   44.4050 H   0  0  0  0  0  0  0  0  0  0  0  0
   36.2960   27.4390   44.5780 H   0  0  0  0  0  0  0  0  0  0  0  0
   37.6500   25.9830   40.3960 C   0  0  0  0  0  2  0  0  0  0  0  0
   37.7390   26.5330   39.4260 H   0  0  0  0  0  0  0  0  0  0  0  0
  1 18  1  0  0  0  0
  2  1  1  0  0  0  0
  3  1  1  0  0  0  0
  4  1  1  0  0  0  0
  4  6  1  0  0  0  0
  5  4  1  0  0  0  0
  7  8  1  0  0  0  0
  8  9  1  0  0  0  0
  9 10  2  0  0  0  0
  9  4  1  0  0  0  0
 10 15  1  0  0  0  0
 11 16  1  0  0  0  0
 11 10  1  0  0  0  0
 12 11  2  0  0  0  0
 13 12  1  0  0  0  0
 14  8  2  0  0  0  0
 14 12  1  0  0  0  0
 17 14  1  0  0  0  0
 18 19  1  0  0  0  0
 19 20  1  0  0  0  0
 20 21  2  0  0  0  0
 20 25  1  0  0  0  0
 21 26  1  0  0  0  0
 22 21  1  0  0  0  0
 23 22  2  0  0  0  0
 24 23  1  0  0  0  0
 24 19  2  0  0  0  0
 27 23  1  0  0  0  0
 28 27  1  0  0  0  0
M  END
>  <minimizedAffinity>
-4.76775932

$$$$

 OpenBabel03242514593D

 28 29  0  0  0  0  0  0  0  0999 V2000
   36.4480   28.2900   41.2670 C   0  0  0  0  0  0  0  0  0  0  0  0
   35.5770   27.8530   40.7380 H   0  0  0  0  0  0  0  0  0  0  0  0
   37.3420   27.9980   40.6570 H   0  0  0  0  0  0  0  0  0  0  0  0
   36.5870   27.6740   42.6200 C   0  0  0  0  0  0  0  0  0  0  0  0
   35.8610   26.8390   42.6910 H   0  0  0  0  0  0  0  0  0  0  0  0
   36.3310   28.4030   43.3930 H   0  0  0  0  0  0  0  0  0  0  0  0
   36.8840   24.6910   42.0920 Cl  0  0  0  0  0  0  0  0  0  0  0  0
   38.1840   25.7280   42.5940 C   0  0  0  0  0  0  0  0  0  0  0  0
   37.9440   27.0860   42.8100 C   0  0  0  0  0  0  0  0  0  0  0  0
   39.0260   27.8430   43.2060 C   0  0  0  0  0  0  0  0  0  0  0  0
   40.3140   27.3980   43.4090 C   0  0  0  0  0  0  0  0  0  0  0  0
   40.5300   26.0480   43.1880 C   0  0  0  0  0  0  0  0  0  0  0  0
   42.1440   25.3760   43.4190 Cl  0  0  0  0  0  0  0  0  0  0  0  0
   39.4800   25.2420   42.7900 C   0  0  0  0  0  0  0  0  0  0  0  0
   38.8090   28.8960   43.3680 H   0  0  0  0  0  0  0  0  0  0  0  0
   41.0940   28.0720   43.7200 H   0  0  0  0  0  0  0  0  0  0  0  0
   39.7040   24.1840   42.6290 H   0  0  0  0  0  0  0  0  0  0  0  0
   36.2510   30.0770   41.3010 S   0  0  0  0  0  0  0  0  0  0  0  0
   37.7140   30.9360   40.6920 C   0  0  0  0  0  0  0  0  0  0  0  0
   38.7430   30.1050   40.2290 C   0  0  0  0  0  0  0  0  0  0  0  0
   39.8990   30.7380   39.7460 C   0  0  0  0  0  0  0  0  0  0  0  0
   39.9540   32.0830   39.7530 N   0  0  0  0  0  0  0  0  0  0  0  0
   38.9510   32.8630   40.2030 C   0  0  0  0  0  0  0  0  0  0  0  0
   37.8470   32.2690   40.6640 N   0  0  0  0  0  0  0  0  0  0  0  0
   38.7180   29.0220   40.2140 H   0  0  0  0  0  0  0  0  0  0  0  0
   40.7420   30.1470   39.3690 H   0  0  0  0  0  0  0  0  0  0  0  0
   38.9920   34.3480   40.2200 C   0  0  0  0  0  2  0  0  0  0  0  0
   37.9740   34.7690   40.0230 H   0  0  0  0  0  0  0  0  0  0  0  0
  1 18  1  0  0  0  0
  1  4  1  0  0  0  0
  2  1  1  0  0  0  0
  3  1  1  0  0  0  0
  4  5  1  0  0  0  0
  4  9  1  0  0  0  0
  4  6  1  0  0  0  0
  7  8  1  0  0  0  0
  8 14  2  0  0  0  0
  8  9  1  0  0  0  0
  9 10  2  0  0  0  0
 10 15  1  0  0  0  0
 10 11  1  0  0  0  0
 11 16  1  0  0  0  0
 12 11  2  0  0  0  0
 12 13  1  0  0  0  0
 14 12  1  0  0  0  0
 17 14  1  0  0  0  0
 19 18  1  0  0  0  0
 20 19  2  0  0  0  0
 21 22  2  0  0  0  0
 21 20  1  0  0  0  0
 22 23  1  0  0  0  0
 23 27  1  0  0  0  0
 23 24  2  0  0  0  0
 24 19  1  0  0  0  0
 25 20  1  0  0  0  0
 26 21  1  0  0  0  0
 28 27  1  0  0  0  0
M  END
>  <minimizedAffinity>
-4.74199438

$$$$

 OpenBabel03242514593D

 28 29  0  0  0  0  0  0  0  0999 V2000
   39.4170   28.0570   42.9540 C   0  0  0  0  0  0  0  0  0  0  0  0
   39.5070   27.9300   41.8560 H   0  0  0  0  0  0  0  0  0  0  0  0
   40.3750   28.5410   43.2750 H   0  0  0  0  0  0  0  0  0  0  0  0
   39.3260   26.7220   43.6170 C   0  0  0  0  0  0  0  0  0  0  0  0
   38.6020   26.8040   44.4520 H   0  0  0  0  0  0  0  0  0  0  0  0
   40.2940   26.4480   44.0430 H   0  0  0  0  0  0  0  0  0  0  0  0
   41.3720   25.0300   42.1270 Cl  0  0  0  0  0  0  0  0  0  0  0  0
   39.6520   24.8620   41.9510 C   0  0  0  0  0  0  0  0  0  0  0  0
   38.7960   25.6890   42.6820 C   0  0  0  0  0  0  0  0  0  0  0  0
   37.4450   25.4930   42.4880 C   0  0  0  0  0  0  0  0  0  0  0  0
   36.8560   24.5720   41.6510 C   0  0  0  0  0  0  0  0  0  0  0  0
   37.7230   23.7620   40.9370 C   0  0  0  0  0  0  0  0  0  0  0  0
   37.0720   22.5470   39.8370 Cl  0  0  0  0  0  0  0  0  0  0  0  0
   39.0880   23.9140   41.0920 C   0  0  0  0  0  0  0  0  0  0  0  0
   36.8030   26.1510   43.0700 H   0  0  0  0  0  0  0  0  0  0  0  0
   35.7850   24.4970   41.5690 H   0  0  0  0  0  0  0  0  0  0  0  0
   39.7290   23.2510   40.5060 H   0  0  0  0  0  0  0  0  0  0  0  0
   38.0130   29.1290   43.2860 S   0  0  0  0  0  0  0  0  0  0  0  0
   37.1470   29.6060   41.7800 C   0  0  0  0  0  0  0  0  0  0  0  0
   36.1570   28.7110   41.3530 C   0  0  0  0  0  0  0  0  0  0  0  0
   35.4600   29.0490   40.1830 C   0  0  0  0  0  0  0  0  0  0  0  0
   35.7740   30.1920   39.5470 N   0  0  0  0  0  0  0  0  0  0  0  0
   36.7310   31.0390   39.9750 C   0  0  0  0  0  0  0  0  0  0  0  0
   37.4000   30.7250   41.0890 N   0  0  0  0  0  0  0  0  0  0  0  0
   35.8880   27.7860   41.8500 H   0  0  0  0  0  0  0  0  0  0  0  0
   34.6720   28.3920   39.7940 H   0  0  0  0  0  0  0  0  0  0  0  0
   37.0940   32.3060   39.2880 C   0  0  0  0  0  2  0  0  0  0  0  0
   37.3860   33.0850   40.0360 H   0  0  0  0  0  0  0  0  0  0  0  0
  1  3  1  0  0  0  0
  1 18  1  0  0  0  0
  1  4  1  0  0  0  0
  2  1  1  0  0  0  0
  4  6  1  0  0  0  0
  4  5  1  0  0  0  0
  8  7  1  0  0  0  0
  8  9  1  0  0  0  0
  9  4  1  0  0  0  0
 10  9  2  0  0  0  0
 10 15  1  0  0  0  0
 11 10  1  0  0  0  0
 12 14  1  0  0  0  0
 12 11  2  0  0  0  0
 13 12  1  0  0  0  0
 14  8  2  0  0  0  0
 16 11  1  0  0  0  0
 17 14  1  0  0  0  0
 19 18  1  0  0  0  0
 20 19  1  0  0  0  0
 20 25  1  0  0  0  0
 21 20  2  0  0  0  0
 22 23  2  0  0  0  0
 22 21  1  0  0  0  0
 23 24  1  0  0  0  0
 24 19  2  0  0  0  0
 26 21  1  0  0  0  0
 27 23  1  0  0  0  0
 27 28  1  0  0  0  0
M  END
>  <minimizedAffinity>
-4.70234203

$$$$

 OpenBabel03242514593D

 28 29  0  0  0  0  0  0  0  0999 V2000
   33.5360   28.8710   38.0450 C   0  0  0  0  0  0  0  0  0  0  0  0
   33.0850   29.5990   38.7490 H   0  0  0  0  0  0  0  0  0  0  0  0
   33.3920   27.8680   38.5250 H   0  0  0  0  0  0  0  0  0  0  0  0
   35.0040   29.1200   37.9210 C   0  0  0  0  0  0  0  0  0  0  0  0
   35.1440   30.1500   37.5380 H   0  0  0  0  0  0  0  0  0  0  0  0
   35.4400   28.4330   37.1920 H   0  0  0  0  0  0  0  0  0  0  0  0
   36.0860   26.4100   38.7850 Cl  0  0  0  0  0  0  0  0  0  0  0  0
   36.2070   27.8580   39.7370 C   0  0  0  0  0  0  0  0  0  0  0  0
   35.6770   29.0550   39.2490 C   0  0  0  0  0  0  0  0  0  0  0  0
   35.8140   30.1590   40.0620 C   0  0  0  0  0  0  0  0  0  0  0  0
   36.4150   30.2040   41.3000 C   0  0  0  0  0  0  0  0  0  0  0  0
   36.9350   29.0070   41.7650 C   0  0  0  0  0  0  0  0  0  0  0  0
   37.7270   28.9540   43.3390 Cl  0  0  0  0  0  0  0  0  0  0  0  0
   36.8260   27.8670   40.9900 C   0  0  0  0  0  0  0  0  0  0  0  0
   35.3910   31.0770   39.6570 H   0  0  0  0  0  0  0  0  0  0  0  0
   36.4720   31.1220   41.8600 H   0  0  0  0  0  0  0  0  0  0  0  0
   37.2520   26.9480   41.4020 H   0  0  0  0  0  0  0  0  0  0  0  0
   32.6490   28.9680   36.4840 S   0  0  0  0  0  0  0  0  0  0  0  0
   31.4000   30.2660   36.4900 C   0  0  0  0  0  0  0  0  0  0  0  0
   31.3590   31.0590   35.3350 C   0  0  0  0  0  0  0  0  0  0  0  0
   30.3970   32.0810   35.3020 C   0  0  0  0  0  0  0  0  0  0  0  0
   29.5830   32.2410   36.3610 N   0  0  0  0  0  0  0  0  0  0  0  0
   29.6390   31.4660   37.4630 C   0  0  0  0  0  0  0  0  0  0  0  0
   30.5520   30.4910   37.5030 N   0  0  0  0  0  0  0  0  0  0  0  0
   32.0040   30.9460   34.4720 H   0  0  0  0  0  0  0  0  0  0  0  0
   30.3110   32.7370   34.4280 H   0  0  0  0  0  0  0  0  0  0  0  0
   28.7500   31.6260   38.6430 C   0  0  0  0  0  2  0  0  0  0  0  0
   28.5240   30.6290   39.0980 H   0  0  0  0  0  0  0  0  0  0  0  0
  1  3  1  0  0  0  0
  1  2  1  0  0  0  0
  4  1  1  0  0  0  0
  4  9  1  0  0  0  0
  5  4  1  0  0  0  0
  6  4  1  0  0  0  0
  7  8  1  0  0  0  0
  8 14  1  0  0  0  0
  9  8  2  0  0  0  0
  9 10  1  0  0  0  0
 10 11  2  0  0  0  0
 11 12  1  0  0  0  0
 11 16  1  0  0  0  0
 12 13  1  0  0  0  0
 14 17  1  0  0  0  0
 14 12  2  0  0  0  0
 15 10  1  0  0  0  0
 18 19  1  0  0  0  0
 18  1  1  0  0  0  0
 19 24  1  0  0  0  0
 20 19  2  0  0  0  0
 21 20  1  0  0  0  0
 21 22  2  0  0  0  0
 22 23  1  0  0  0  0
 23 24  2  0  0  0  0
 23 27  1  0  0  0  0
 25 20  1  0  0  0  0
 26 21  1  0  0  0  0
 27 28  1  0  0  0  0
M  END
>  <minimizedAffinity>
-4.65849257

$$$$

 OpenBabel03242514593D

 28 29  0  0  0  0  0  0  0  0999 V2000
   39.9780   28.3400   42.6660 C   0  0  0  0  0  0  0  0  0  0  0  0
   39.9780   28.0300   41.6010 H   0  0  0  0  0  0  0  0  0  0  0  0
   41.0550   28.5030   42.9260 H   0  0  0  0  0  0  0  0  0  0  0  0
   39.4560   27.2320   43.5210 C   0  0  0  0  0  0  0  0  0  0  0  0
   38.6570   27.6470   44.1670 H   0  0  0  0  0  0  0  0  0  0  0  0
   40.2480   26.8560   44.1720 H   0  0  0  0  0  0  0  0  0  0  0  0
   36.4180   27.2250   43.3370 Cl  0  0  0  0  0  0  0  0  0  0  0  0
   37.4470   26.0690   42.5470 C   0  0  0  0  0  0  0  0  0  0  0  0
   38.8320   26.1590   42.6940 C   0  0  0  0  0  0  0  0  0  0  0  0
   39.5800   25.2060   42.0360 C   0  0  0  0  0  0  0  0  0  0  0  0
   39.1030   24.1790   41.2530 C   0  0  0  0  0  0  0  0  0  0  0  0
   37.7270   24.1080   41.1190 C   0  0  0  0  0  0  0  0  0  0  0  0
   37.0110   22.8310   40.1370 Cl  0  0  0  0  0  0  0  0  0  0  0  0
   36.9270   25.0390   41.7570 C   0  0  0  0  0  0  0  0  0  0  0  0
   40.6550   25.3010   42.1700 H   0  0  0  0  0  0  0  0  0  0  0  0
   39.7730   23.4820   40.7790 H   0  0  0  0  0  0  0  0  0  0  0  0
   35.8480   24.9390   41.6200 H   0  0  0  0  0  0  0  0  0  0  0  0
   39.0440   29.8690   42.8090 S   0  0  0  0  0  0  0  0  0  0  0  0
   38.2020   30.3010   41.2760 C   0  0  0  0  0  0  0  0  0  0  0  0
   37.7530   29.2130   40.5150 C   0  0  0  0  0  0  0  0  0  0  0  0
   37.0910   29.5100   39.3140 C   0  0  0  0  0  0  0  0  0  0  0  0
   36.9270   30.7980   38.9640 N   0  0  0  0  0  0  0  0  0  0  0  0
   37.3670   31.8310   39.7110 C   0  0  0  0  0  0  0  0  0  0  0  0
   37.9980   31.5570   40.8570 N   0  0  0  0  0  0  0  0  0  0  0  0
   37.8740   28.1690   40.7790 H   0  0  0  0  0  0  0  0  0  0  0  0
   36.7150   28.7050   38.6720 H   0  0  0  0  0  0  0  0  0  0  0  0
   37.1970   33.2600   39.3430 C   0  0  0  0  0  2  0  0  0  0  0  0
   37.0440   33.8830   40.2600 H   0  0  0  0  0  0  0  0  0  0  0  0
  1 18  1  0  0  0  0
  1  3  1  0  0  0  0
  1  4  1  0  0  0  0
  2  1  1  0  0  0  0
  4  5  1  0  0  0  0
  4  6  1  0  0  0  0
  8  9  1  0  0  0  0
  8  7  1  0  0  0  0
  9  4  1  0  0  0  0
 10 15  1  0  0  0  0
 10  9  2  0  0  0  0
 11 10  1  0  0  0  0
 12 11  2  0  0  0  0
 12 14  1  0  0  0  0
 13 12  1  0  0  0  0
 14  8  2  0  0  0  0
 16 11  1  0  0  0  0
 17 14  1  0  0  0  0
 19 18  1  0  0  0  0
 20 25  1  0  0  0  0
 20 19  2  0  0  0  0
 21 20  1  0  0  0  0
 22 21  2  0  0  0  0
 22 23  1  0  0  0  0
 23 24  2  0  0  0  0
 24 19  1  0  0  0  0
 26 21  1  0  0  0  0
 27 23  1  0  0  0  0
 27 28  1  0  0  0  0
M  END
>  <minimizedAffinity>
-4.65811062

$$$$

 OpenBabel03242514593D

 28 29  0  0  0  0  0  0  0  0999 V2000
   35.6520   29.5220   38.9180 C   0  0  0  0  0  0  0  0  0  0  0  0
   34.6910   29.3180   38.4040 H   0  0  0  0  0  0  0  0  0  0  0  0
   35.4310   30.3500   39.6410 H   0  0  0  0  0  0  0  0  0  0  0  0
   36.6620   30.0210   37.9370 C   0  0  0  0  0  0  0  0  0  0  0  0
   36.1160   30.4970   37.0980 H   0  0  0  0  0  0  0  0  0  0  0  0
   37.2330   29.1840   37.5290 H   0  0  0  0  0  0  0  0  0  0  0  0
   39.6700   29.6450   37.6650 Cl  0  0  0  0  0  0  0  0  0  0  0  0
   38.9230   30.9910   38.4710 C   0  0  0  0  0  0  0  0  0  0  0  0
   37.5310   31.0710   38.5410 C   0  0  0  0  0  0  0  0  0  0  0  0
   37.0140   32.1680   39.1960 C   0  0  0  0  0  0  0  0  0  0  0  0
   37.7270   33.1880   39.7870 C   0  0  0  0  0  0  0  0  0  0  0  0
   39.1060   33.0900   39.7050 C   0  0  0  0  0  0  0  0  0  0  0  0
   40.1130   34.3440   40.4270 Cl  0  0  0  0  0  0  0  0  0  0  0  0
   39.6780   32.0100   39.0590 C   0  0  0  0  0  0  0  0  0  0  0  0
   35.9270   32.2040   39.2360 H   0  0  0  0  0  0  0  0  0  0  0  0
   37.2280   34.0070   40.2770 H   0  0  0  0  0  0  0  0  0  0  0  0
   40.7700   31.9790   39.0220 H   0  0  0  0  0  0  0  0  0  0  0  0
   36.1580   28.0310   39.7850 S   0  0  0  0  0  0  0  0  0  0  0  0
   37.0240   28.3960   41.3230 C   0  0  0  0  0  0  0  0  0  0  0  0
   36.6810   27.5790   42.4080 C   0  0  0  0  0  0  0  0  0  0  0  0
   37.3350   27.8320   43.6240 C   0  0  0  0  0  0  0  0  0  0  0  0
   38.2380   28.8280   43.6800 N   0  0  0  0  0  0  0  0  0  0  0  0
   38.5530   29.6030   42.6230 C   0  0  0  0  0  0  0  0  0  0  0  0
   37.9360   29.3680   41.4610 N   0  0  0  0  0  0  0  0  0  0  0  0
   35.9570   26.7720   42.3840 H   0  0  0  0  0  0  0  0  0  0  0  0
   37.1130   27.2290   44.5120 H   0  0  0  0  0  0  0  0  0  0  0  0
   39.5470   30.7070   42.6630 C   0  0  0  0  0  2  0  0  0  0  0  0
   40.0870   30.7810   41.6860 H   0  0  0  0  0  0  0  0  0  0  0  0
  1  3  1  0  0  0  0
  1 18  1  0  0  0  0
  2  1  1  0  0  0  0
  4  9  1  0  0  0  0
  4  1  1  0  0  0  0
  5  4  1  0  0  0  0
  6  4  1  0  0  0  0
  7  8  1  0  0  0  0
  8  9  2  0  0  0  0
  8 14  1  0  0  0  0
  9 10  1  0  0  0  0
 10 15  1  0  0  0  0
 10 11  2  0  0  0  0
 11 16  1  0  0  0  0
 12 11  1  0  0  0  0
 12 13  1  0  0  0  0
 14 12  2  0  0  0  0
 17 14  1  0  0  0  0
 18 19  1  0  0  0  0
 19 24  2  0  0  0  0
 19 20  1  0  0  0  0
 20 21  2  0  0  0  0
 21 22  1  0  0  0  0
 21 26  1  0  0  0  0
 23 27  1  0  0  0  0
 23 22  2  0  0  0  0
 24 23  1  0  0  0  0
 25 20  1  0  0  0  0
 28 27  1  0  0  0  0
M  END
>  <minimizedAffinity>
-4.57134008

$$$$

 OpenBabel03242514593D

 28 29  0  0  0  0  0  0  0  0999 V2000
   36.3940   28.3210   39.6970 C   0  0  0  0  0  0  0  0  0  0  0  0
   35.6140   28.1090   38.9390 H   0  0  0  0  0  0  0  0  0  0  0  0
   37.3380   28.4810   39.1140 H   0  0  0  0  0  0  0  0  0  0  0  0
   36.5890   27.1310   40.5780 C   0  0  0  0  0  0  0  0  0  0  0  0
   36.6870   26.2390   39.9290 H   0  0  0  0  0  0  0  0  0  0  0  0
   35.7110   26.9860   41.2120 H   0  0  0  0  0  0  0  0  0  0  0  0
   36.3240   27.2910   43.6060 Cl  0  0  0  0  0  0  0  0  0  0  0  0
   37.8390   27.3190   42.7560 C   0  0  0  0  0  0  0  0  0  0  0  0
   37.8530   27.2400   41.3620 C   0  0  0  0  0  0  0  0  0  0  0  0
   39.0930   27.2680   40.7610 C   0  0  0  0  0  0  0  0  0  0  0  0
   40.3140   27.3670   41.3910 C   0  0  0  0  0  0  0  0  0  0  0  0
   40.2770   27.4430   42.7730 C   0  0  0  0  0  0  0  0  0  0  0  0
   41.7850   27.5710   43.6790 Cl  0  0  0  0  0  0  0  0  0  0  0  0
   39.0600   27.4190   43.4290 C   0  0  0  0  0  0  0  0  0  0  0  0
   39.0740   27.2060   39.6750 H   0  0  0  0  0  0  0  0  0  0  0  0
   41.2320   27.3810   40.8290 H   0  0  0  0  0  0  0  0  0  0  0  0
   39.0860   27.4820   44.5200 H   0  0  0  0  0  0  0  0  0  0  0  0
   35.9290   29.8130   40.5850 S   0  0  0  0  0  0  0  0  0  0  0  0
   37.3170   30.9410   40.8010 C   0  0  0  0  0  0  0  0  0  0  0  0
   37.2100   32.1570   40.1140 C   0  0  0  0  0  0  0  0  0  0  0  0
   38.2730   33.0630   40.2580 C   0  0  0  0  0  0  0  0  0  0  0  0
   39.3170   32.7190   41.0340 N   0  0  0  0  0  0  0  0  0  0  0  0
   39.4010   31.5430   41.6860 C   0  0  0  0  0  0  0  0  0  0  0  0
   38.3930   30.6750   41.5550 N   0  0  0  0  0  0  0  0  0  0  0  0
   36.3780   32.4530   39.4860 H   0  0  0  0  0  0  0  0  0  0  0  0
   38.2510   34.0330   39.7480 H   0  0  0  0  0  0  0  0  0  0  0  0
   40.5440   31.1440   42.5470 C   0  0  0  0  0  2  0  0  0  0  0  0
   40.1870   30.5250   43.4080 H   0  0  0  0  0  0  0  0  0  0  0  0
  1  4  1  0  0  0  0
  1 18  1  0  0  0  0
  2  1  1  0  0  0  0
  3  1  1  0  0  0  0
  4  6  1  0  0  0  0
  4  9  1  0  0  0  0
  5  4  1  0  0  0  0
  8 14  1  0  0  0  0
  8  7  1  0  0  0  0
  9  8  2  0  0  0  0
 10  9  1  0  0  0  0
 10 11  2  0  0  0  0
 11 12  1  0  0  0  0
 12 14  2  0  0  0  0
 12 13  1  0  0  0  0
 14 17  1  0  0  0  0
 15 10  1  0  0  0  0
 16 11  1  0  0  0  0
 18 19  1  0  0  0  0
 19 24  1  0  0  0  0
 20 21  1  0  0  0  0
 20 19  2  0  0  0  0
 21 22  2  0  0  0  0
 22 23  1  0  0  0  0
 23 27  1  0  0  0  0
 24 23  2  0  0  0  0
 25 20  1  0  0  0  0
 26 21  1  0  0  0  0
 27 28  1  0  0  0  0
M  END
>  <minimizedAffinity>
-4.56241751

$$$$
