
 OpenBabel03242518523D

 32 33  0  0  1  0  0  0  0  0999 V2000
   36.8920   30.0640   39.3680 C   0  0  2  0  0  0  0  0  0  0  0  0
   38.3510   29.6700   39.4550 C   0  0  0  0  0  0  0  0  0  0  0  0
   39.0480   30.3770   38.3360 C   0  0  0  0  0  0  0  0  0  0  0  0
   38.1800   31.1760   37.4240 C   0  0  0  0  0  0  0  0  0  0  0  0
   37.3640   32.1720   38.2260 C   0  0  0  0  0  0  0  0  0  0  0  0
   36.7940   31.5530   39.4020 C   0  0  2  0  0  0  0  0  0  0  0  0
   36.5640   29.6990   38.3720 H   0  0  0  0  0  0  0  0  0  0  0  0
   38.8010   29.9650   40.4130 H   0  0  0  0  0  0  0  0  0  0  0  0
   38.3770   28.5640   39.4010 H   0  0  0  0  0  0  0  0  0  0  0  0
   39.9620   30.9170   38.6580 H   0  0  0  0  0  0  0  0  0  0  0  0
   39.4630   29.5480   37.6870 H   0  0  0  0  0  0  0  0  0  0  0  0
   37.5530   30.5200   36.7890 H   0  0  0  0  0  0  0  0  0  0  0  0
   38.8490   31.7070   36.7250 H   0  0  0  0  0  0  0  0  0  0  0  0
   38.1110   33.0060   38.4120 H   0  0  0  0  0  0  0  0  0  0  0  0
   36.7420   32.6350   37.4180 H   0  0  0  0  0  0  0  0  0  0  0  0
   35.8050   31.9860   39.2090 H   0  0  0  0  0  0  0  0  0  0  0  0
   36.0340   29.3830   40.3490 C   0  0  0  0  0  0  0  0  0  0  0  0
   34.7750   29.4370   40.3160 O   0  0  0  0  0  0  0  0  0  0  0  0
   37.8180   28.5650   43.4290 C   0  0  0  0  0  0  0  0  0  0  0  0
   37.9940   27.1630   43.3700 C   0  0  0  0  0  0  0  0  0  0  0  0
   37.4640   26.5210   42.2520 C   0  0  0  0  0  0  0  0  0  0  0  0
   36.8470   27.3110   41.3640 N   0  0  0  0  0  0  0  0  0  0  0  0
   36.6820   28.6070   41.4100 C   0  0  0  0  0  0  0  0  0  0  0  0
   37.1890   29.2550   42.4880 N   0  0  0  0  0  0  0  0  0  0  0  0
   38.2060   29.1220   44.2720 H   0  0  0  0  0  0  0  0  0  0  0  0
   38.5000   26.6200   44.1280 H   0  0  0  0  0  0  0  0  0  0  0  0
   37.6820   25.0810   42.1620 C   0  0  0  0  0  0  0  0  0  0  0  0
   37.9370   24.7270   40.8490 F   0  0  0  0  0  0  0  0  0  0  0  0
   36.4980   24.5040   42.5320 F   0  0  0  0  0  0  0  0  0  0  0  0
   38.7510   24.6470   42.9180 F   0  0  0  0  0  0  0  0  0  0  0  0
   37.6060   32.0930   40.5550 C   0  0  0  0  0  2  0  0  0  0  0  0
   38.5520   32.5980   40.2400 H   0  0  0  0  0  0  0  0  0  0  0  0
  1  7  1  6  0  0  0
  1  6  1  0  0  0  0
  1  2  1  0  0  0  0
  1 17  1  0  0  0  0
  2  8  1  0  0  0  0
  3 10  1  0  0  0  0
  3  2  1  0  0  0  0
  4  5  1  0  0  0  0
  4  3  1  0  0  0  0
  5 14  1  0  0  0  0
  5  6  1  0  0  0  0
  6 16  1  1  0  0  0
  6 31  1  0  0  0  0
  9  2  1  0  0  0  0
 11  3  1  0  0  0  0
 12  4  1  0  0  0  0
 13  4  1  0  0  0  0
 15  5  1  0  0  0  0
 17 23  1  0  0  0  0
 18 17  2  0  0  0  0
 19 25  1  0  0  0  0
 20 19  1  0  0  0  0
 20 26  1  0  0  0  0
 21 20  2  0  0  0  0
 22 23  2  0  0  0  0
 22 21  1  0  0  0  0
 23 24  1  0  0  0  0
 24 19  2  0  0  0  0
 27 21  1  0  0  0  0
 27 29  1  0  0  0  0
 27 30  1  0  0  0  0
 28 27  1  0  0  0  0
 32 31  1  0  0  0  0
M  END
>  <minimizedAffinity>
-5.24795055

$$$$

 OpenBabel03242518523D

 32 33  0  0  1  0  0  0  0  0999 V2000
   37.5100   31.2980   40.6570 C   0  0  2  0  0  0  0  0  0  0  0  0
   36.9700   32.4460   39.8320 C   0  0  0  0  0  0  0  0  0  0  0  0
   37.9970   33.5330   39.8970 C   0  0  0  0  0  0  0  0  0  0  0  0
   39.1790   33.2660   40.7660 C   0  0  0  0  0  0  0  0  0  0  0  0
   39.8410   31.9640   40.3560 C   0  0  0  0  0  0  0  0  0  0  0  0
   38.8590   30.9250   40.1380 C   0  0  2  0  0  0  0  0  0  0  0  0
   37.6130   31.7150   41.6810 H   0  0  0  0  0  0  0  0  0  0  0  0
   36.8060   32.1590   38.7830 H   0  0  0  0  0  0  0  0  0  0  0  0
   35.9850   32.7040   40.2650 H   0  0  0  0  0  0  0  0  0  0  0  0
   38.2660   33.9440   38.9020 H   0  0  0  0  0  0  0  0  0  0  0  0
   37.4650   34.4010   40.3910 H   0  0  0  0  0  0  0  0  0  0  0  0
   38.9020   33.2880   41.8380 H   0  0  0  0  0  0  0  0  0  0  0  0
   39.8780   34.1090   40.6270 H   0  0  0  0  0  0  0  0  0  0  0  0
   40.4490   32.2750   39.4490 H   0  0  0  0  0  0  0  0  0  0  0  0
   40.6510   31.8870   41.1250 H   0  0  0  0  0  0  0  0  0  0  0  0
   39.4290   30.1970   40.7290 H   0  0  0  0  0  0  0  0  0  0  0  0
   36.5790   30.1660   40.7770 C   0  0  0  0  0  0  0  0  0  0  0  0
   35.4770   30.1150   40.1660 O   0  0  0  0  0  0  0  0  0  0  0  0
   37.8760   28.3100   43.6420 C   0  0  0  0  0  0  0  0  0  0  0  0
   37.7690   26.9530   43.2580 C   0  0  0  0  0  0  0  0  0  0  0  0
   37.2230   26.7090   41.9990 C   0  0  0  0  0  0  0  0  0  0  0  0
   36.8600   27.7930   41.3010 N   0  0  0  0  0  0  0  0  0  0  0  0
   36.9580   29.0500   41.6470 C   0  0  0  0  0  0  0  0  0  0  0  0
   37.4860   29.3130   42.8680 N   0  0  0  0  0  0  0  0  0  0  0  0
   38.2910   28.5660   44.6080 H   0  0  0  0  0  0  0  0  0  0  0  0
   38.0850   26.1580   43.8840 H   0  0  0  0  0  0  0  0  0  0  0  0
   37.1520   25.3140   41.5770 C   0  0  0  0  0  0  0  0  0  0  0  0
   36.4390   25.2170   40.3960 F   0  0  0  0  0  0  0  0  0  0  0  0
   36.4430   24.6690   42.5530 F   0  0  0  0  0  0  0  0  0  0  0  0
   38.3920   24.7530   41.3530 F   0  0  0  0  0  0  0  0  0  0  0  0
   38.8020   30.7540   38.6400 C   0  0  0  0  0  2  0  0  0  0  0  0
   39.2950   31.5830   38.0750 H   0  0  0  0  0  0  0  0  0  0  0  0
  1 17  1  0  0  0  0
  1  7  1  1  0  0  0
  2  3  1  0  0  0  0
  2  9  1  0  0  0  0
  2  1  1  0  0  0  0
  3 11  1  0  0  0  0
  3  4  1  0  0  0  0
  4 12  1  0  0  0  0
  5  4  1  0  0  0  0
  5 15  1  0  0  0  0
  6  5  1  0  0  0  0
  6  1  1  0  0  0  0
  6 16  1  1  0  0  0
  8  2  1  0  0  0  0
 10  3  1  0  0  0  0
 13  4  1  0  0  0  0
 14  5  1  0  0  0  0
 17 23  1  0  0  0  0
 18 17  2  0  0  0  0
 19 25  1  0  0  0  0
 20 19  1  0  0  0  0
 20 26  1  0  0  0  0
 21 20  2  0  0  0  0
 22 23  2  0  0  0  0
 22 21  1  0  0  0  0
 23 24  1  0  0  0  0
 24 19  2  0  0  0  0
 27 21  1  0  0  0  0
 27 29  1  0  0  0  0
 28 27  1  0  0  0  0
 30 27  1  0  0  0  0
 31  6  1  0  0  0  0
 32 31  1  0  0  0  0
M  END
>  <minimizedAffinity>
-5.22788811

$$$$

 OpenBabel03242518523D

 32 33  0  0  1  0  0  0  0  0999 V2000
   37.5250   26.2750   41.8200 C   0  0  2  0  0  0  0  0  0  0  0  0
   36.9650   24.9450   42.2750 C   0  0  0  0  0  0  0  0  0  0  0  0
   37.6130   23.8990   41.4240 C   0  0  0  0  0  0  0  0  0  0  0  0
   38.5270   24.3970   40.3550 C   0  0  0  0  0  0  0  0  0  0  0  0
   39.5910   25.2940   40.9600 C   0  0  0  0  0  0  0  0  0  0  0  0
   39.0150   26.2240   41.9050 C   0  0  2  0  0  0  0  0  0  0  0  0
   37.2220   26.3560   40.7550 H   0  0  0  0  0  0  0  0  0  0  0  0
   37.1850   24.7460   43.3330 H   0  0  0  0  0  0  0  0  0  0  0  0
   35.8650   25.0200   42.1710 H   0  0  0  0  0  0  0  0  0  0  0  0
   38.0380   23.0570   42.0080 H   0  0  0  0  0  0  0  0  0  0  0  0
   36.7570   23.4110   40.8670 H   0  0  0  0  0  0  0  0  0  0  0  0
   37.9610   24.8910   39.5420 H   0  0  0  0  0  0  0  0  0  0  0  0
   38.9930   23.5110   39.8910 H   0  0  0  0  0  0  0  0  0  0  0  0
   40.3300   24.5430   41.3850 H   0  0  0  0  0  0  0  0  0  0  0  0
   40.1400   25.6200   40.0410 H   0  0  0  0  0  0  0  0  0  0  0  0
   39.5620   27.0720   41.4760 H   0  0  0  0  0  0  0  0  0  0  0  0
   36.9240   27.4340   42.4970 C   0  0  0  0  0  0  0  0  0  0  0  0
   36.4890   27.3900   43.6790 O   0  0  0  0  0  0  0  0  0  0  0  0
   35.6980   30.0260   40.2350 C   0  0  0  0  0  0  0  0  0  0  0  0
   36.6960   31.0270   40.2750 C   0  0  0  0  0  0  0  0  0  0  0  0
   37.7820   30.7830   41.1140 C   0  0  0  0  0  0  0  0  0  0  0  0
   37.7500   29.6250   41.7880 N   0  0  0  0  0  0  0  0  0  0  0  0
   36.8320   28.6950   41.7560 C   0  0  0  0  0  0  0  0  0  0  0  0
   35.7650   28.9090   40.9460 N   0  0  0  0  0  0  0  0  0  0  0  0
   34.8290   30.1570   39.6040 H   0  0  0  0  0  0  0  0  0  0  0  0
   36.6340   31.9170   39.7020 H   0  0  0  0  0  0  0  0  0  0  0  0
   38.8390   31.7900   41.1260 C   0  0  0  0  0  0  0  0  0  0  0  0
   39.6780   31.6000   40.0430 F   0  0  0  0  0  0  0  0  0  0  0  0
   39.5590   31.5560   42.2650 F   0  0  0  0  0  0  0  0  0  0  0  0
   38.3570   33.0800   41.0490 F   0  0  0  0  0  0  0  0  0  0  0  0
   39.4320   25.7060   43.2610 C   0  0  0  0  0  2  0  0  0  0  0  0
   39.8330   24.6640   43.2390 H   0  0  0  0  0  0  0  0  0  0  0  0
  1  7  1  6  0  0  0
  1  6  1  0  0  0  0
  1  2  1  0  0  0  0
  1 17  1  0  0  0  0
  2  8  1  0  0  0  0
  3 10  1  0  0  0  0
  3  2  1  0  0  0  0
  4  5  1  0  0  0  0
  4  3  1  0  0  0  0
  5 14  1  0  0  0  0
  5  6  1  0  0  0  0
  6 16  1  6  0  0  0
  6 31  1  0  0  0  0
  9  2  1  0  0  0  0
 11  3  1  0  0  0  0
 12  4  1  0  0  0  0
 13  4  1  0  0  0  0
 15  5  1  0  0  0  0
 17 18  2  0  0  0  0
 19 20  2  0  0  0  0
 19 24  1  0  0  0  0
 20 21  1  0  0  0  0
 21 27  1  0  0  0  0
 21 22  2  0  0  0  0
 23 22  1  0  0  0  0
 23 17  1  0  0  0  0
 24 23  2  0  0  0  0
 25 19  1  0  0  0  0
 26 20  1  0  0  0  0
 27 29  1  0  0  0  0
 28 27  1  0  0  0  0
 30 27  1  0  0  0  0
 32 31  1  0  0  0  0
M  END
>  <minimizedAffinity>
-5.21532869

$$$$

 OpenBabel03242518523D

 32 33  0  0  1  0  0  0  0  0999 V2000
   37.5350   27.8380   41.3360 C   0  0  2  0  0  0  0  0  0  0  0  0
   37.0710   26.3970   41.3080 C   0  0  0  0  0  0  0  0  0  0  0  0
   38.1800   25.5840   41.8970 C   0  0  0  0  0  0  0  0  0  0  0  0
   39.4170   26.3320   42.2660 C   0  0  0  0  0  0  0  0  0  0  0  0
   39.0710   27.4760   43.2020 C   0  0  0  0  0  0  0  0  0  0  0  0
   37.9060   28.1960   42.7370 C   0  0  2  0  0  0  0  0  0  0  0  0
   38.4460   27.8500   40.7020 H   0  0  0  0  0  0  0  0  0  0  0  0
   36.1540   26.2480   41.8950 H   0  0  0  0  0  0  0  0  0  0  0  0
   36.8310   26.1690   40.2510 H   0  0  0  0  0  0  0  0  0  0  0  0
   37.8400   24.8810   42.6850 H   0  0  0  0  0  0  0  0  0  0  0  0
   38.5010   24.8890   41.0630 H   0  0  0  0  0  0  0  0  0  0  0  0
   39.9680   26.6660   41.3660 H   0  0  0  0  0  0  0  0  0  0  0  0
   40.0880   25.6160   42.7720 H   0  0  0  0  0  0  0  0  0  0  0  0
   38.9670   26.9500   44.2030 H   0  0  0  0  0  0  0  0  0  0  0  0
   40.0740   27.9560   43.3290 H   0  0  0  0  0  0  0  0  0  0  0  0
   38.3900   29.1690   42.8840 H   0  0  0  0  0  0  0  0  0  0  0  0
   36.5940   28.7760   40.7060 C   0  0  0  0  0  0  0  0  0  0  0  0
   35.3470   28.7270   40.8910 O   0  0  0  0  0  0  0  0  0  0  0  0
   37.9500   30.4240   37.7420 C   0  0  0  0  0  0  0  0  0  0  0  0
   38.2590   31.7320   38.1800 C   0  0  0  0  0  0  0  0  0  0  0  0
   37.9680   32.0230   39.5120 C   0  0  0  0  0  0  0  0  0  0  0  0
   37.4250   31.0250   40.2220 N   0  0  0  0  0  0  0  0  0  0  0  0
   37.1380   29.8130   39.8250 C   0  0  0  0  0  0  0  0  0  0  0  0
   37.4120   29.5050   38.5330 N   0  0  0  0  0  0  0  0  0  0  0  0
   38.1510   30.1360   36.7190 H   0  0  0  0  0  0  0  0  0  0  0  0
   38.6900   32.4600   37.5400 H   0  0  0  0  0  0  0  0  0  0  0  0
   38.3270   33.3570   39.9840 C   0  0  0  0  0  0  0  0  0  0  0  0
   38.6110   33.3150   41.3370 F   0  0  0  0  0  0  0  0  0  0  0  0
   37.2080   34.1230   39.8100 F   0  0  0  0  0  0  0  0  0  0  0  0
   39.4370   33.8740   39.3480 F   0  0  0  0  0  0  0  0  0  0  0  0
   36.7990   27.7900   43.6800 C   0  0  0  0  0  2  0  0  0  0  0  0
   37.0470   26.8980   44.3050 H   0  0  0  0  0  0  0  0  0  0  0  0
  1  7  1  6  0  0  0
  1  6  1  0  0  0  0
  2  1  1  0  0  0  0
  2  8  1  0  0  0  0
  2  3  1  0  0  0  0
  3  4  1  0  0  0  0
  3 10  1  0  0  0  0
  4 13  1  0  0  0  0
  4  5  1  0  0  0  0
  5 15  1  0  0  0  0
  5 14  1  0  0  0  0
  6 16  1  1  0  0  0
  6  5  1  0  0  0  0
  6 31  1  0  0  0  0
  9  2  1  0  0  0  0
 11  3  1  0  0  0  0
 12  4  1  0  0  0  0
 17 18  2  0  0  0  0
 17  1  1  0  0  0  0
 19 20  2  0  0  0  0
 19 24  1  0  0  0  0
 20 21  1  0  0  0  0
 21 27  1  0  0  0  0
 21 22  2  0  0  0  0
 23 22  1  0  0  0  0
 23 17  1  0  0  0  0
 24 23  2  0  0  0  0
 25 19  1  0  0  0  0
 26 20  1  0  0  0  0
 27 28  1  0  0  0  0
 29 27  1  0  0  0  0
 30 27  1  0  0  0  0
 31 32  1  0  0  0  0
M  END
>  <minimizedAffinity>
-5.1688714

$$$$

 OpenBabel03242518523D

 32 33  0  0  1  0  0  0  0  0999 V2000
   37.9300   26.4390   42.2690 C   0  0  2  0  0  0  0  0  0  0  0  0
   38.6980   26.8090   41.0180 C   0  0  0  0  0  0  0  0  0  0  0  0
   39.8060   25.8120   40.8910 C   0  0  0  0  0  0  0  0  0  0  0  0
   39.9230   24.8180   41.9980 C   0  0  0  0  0  0  0  0  0  0  0  0
   38.6040   24.0920   42.1840 C   0  0  0  0  0  0  0  0  0  0  0  0
   37.4920   25.0170   42.1610 C   0  0  2  0  0  0  0  0  0  0  0  0
   38.6720   26.5330   43.0890 H   0  0  0  0  0  0  0  0  0  0  0  0
   38.0650   26.7710   40.1200 H   0  0  0  0  0  0  0  0  0  0  0  0
   39.0230   27.8590   41.1520 H   0  0  0  0  0  0  0  0  0  0  0  0
   39.8760   25.3560   39.8820 H   0  0  0  0  0  0  0  0  0  0  0  0
   40.7540   26.4270   40.9550 H   0  0  0  0  0  0  0  0  0  0  0  0
   40.2860   25.2950   42.9290 H   0  0  0  0  0  0  0  0  0  0  0  0
   40.7130   24.1040   41.7070 H   0  0  0  0  0  0  0  0  0  0  0  0
   38.6290   23.3210   41.3500 H   0  0  0  0  0  0  0  0  0  0  0  0
   38.8410   23.4450   43.0650 H   0  0  0  0  0  0  0  0  0  0  0  0
   37.0420   24.5710   43.0570 H   0  0  0  0  0  0  0  0  0  0  0  0
   36.8470   27.3780   42.5980 C   0  0  0  0  0  0  0  0  0  0  0  0
   36.2000   27.3290   43.6790 O   0  0  0  0  0  0  0  0  0  0  0  0
   36.5960   30.6430   40.9800 C   0  0  0  0  0  0  0  0  0  0  0  0
   35.8040   30.4050   39.8330 C   0  0  0  0  0  0  0  0  0  0  0  0
   35.3830   29.0910   39.6350 C   0  0  0  0  0  0  0  0  0  0  0  0
   35.7830   28.2050   40.5570 N   0  0  0  0  0  0  0  0  0  0  0  0
   36.5130   28.4170   41.6200 C   0  0  0  0  0  0  0  0  0  0  0  0
   36.9350   29.6880   41.8360 N   0  0  0  0  0  0  0  0  0  0  0  0
   36.9550   31.6410   41.1900 H   0  0  0  0  0  0  0  0  0  0  0  0
   35.5370   31.1750   39.1550 H   0  0  0  0  0  0  0  0  0  0  0  0
   34.5270   28.8460   38.4790 C   0  0  0  0  0  0  0  0  0  0  0  0
   34.9170   29.6550   37.4270 F   0  0  0  0  0  0  0  0  0  0  0  0
   33.2710   29.2280   38.8620 F   0  0  0  0  0  0  0  0  0  0  0  0
   34.5800   27.5420   38.0330 F   0  0  0  0  0  0  0  0  0  0  0  0
   36.8240   24.7860   40.8270 C   0  0  0  0  0  2  0  0  0  0  0  0
   37.4440   24.1930   40.1110 H   0  0  0  0  0  0  0  0  0  0  0  0
  1 17  1  0  0  0  0
  1  7  1  1  0  0  0
  2  9  1  0  0  0  0
  2  1  1  0  0  0  0
  3 11  1  0  0  0  0
  3  2  1  0  0  0  0
  3  4  1  0  0  0  0
  4  5  1  0  0  0  0
  4 12  1  0  0  0  0
  5 15  1  0  0  0  0
  6  5  1  0  0  0  0
  6  1  1  0  0  0  0
  6 16  1  1  0  0  0
  8  2  1  0  0  0  0
 10  3  1  0  0  0  0
 13  4  1  0  0  0  0
 14  5  1  0  0  0  0
 17 18  2  0  0  0  0
 19 25  1  0  0  0  0
 19 24  1  0  0  0  0
 20 19  2  0  0  0  0
 21 20  1  0  0  0  0
 21 22  2  0  0  0  0
 22 23  1  0  0  0  0
 23 24  2  0  0  0  0
 23 17  1  0  0  0  0
 26 20  1  0  0  0  0
 27 29  1  0  0  0  0
 27 21  1  0  0  0  0
 28 27  1  0  0  0  0
 30 27  1  0  0  0  0
 31  6  1  0  0  0  0
 32 31  1  0  0  0  0
M  END
>  <minimizedAffinity>
-5.0970993

$$$$

 OpenBabel03242518523D

 32 33  0  0  1  0  0  0  0  0999 V2000
   36.4220   29.1620   39.0280 C   0  0  2  0  0  0  0  0  0  0  0  0
   36.4340   30.2620   37.9880 C   0  0  0  0  0  0  0  0  0  0  0  0
   36.6100   29.5890   36.6630 C   0  0  0  0  0  0  0  0  0  0  0  0
   36.8000   28.1100   36.6990 C   0  0  0  0  0  0  0  0  0  0  0  0
   35.6550   27.4590   37.4520 C   0  0  0  0  0  0  0  0  0  0  0  0
   35.3590   28.1760   38.6730 C   0  0  2  0  0  0  0  0  0  0  0  0
   37.4170   28.6780   38.9330 H   0  0  0  0  0  0  0  0  0  0  0  0
   35.4980   30.8370   37.9870 H   0  0  0  0  0  0  0  0  0  0  0  0
   37.2500   30.9530   38.2760 H   0  0  0  0  0  0  0  0  0  0  0  0
   35.8750   29.9200   35.9000 H   0  0  0  0  0  0  0  0  0  0  0  0
   37.5870   29.9960   36.2620 H   0  0  0  0  0  0  0  0  0  0  0  0
   37.7920   27.8420   37.1100 H   0  0  0  0  0  0  0  0  0  0  0  0
   36.8130   27.7620   35.6520 H   0  0  0  0  0  0  0  0  0  0  0  0
   34.8300   27.4380   36.6730 H   0  0  0  0  0  0  0  0  0  0  0  0
   35.9750   26.3860   37.4380 H   0  0  0  0  0  0  0  0  0  0  0  0
   35.3280   27.2530   39.2640 H   0  0  0  0  0  0  0  0  0  0  0  0
   36.3460   29.6550   40.4110 C   0  0  0  0  0  0  0  0  0  0  0  0
   35.8310   30.7640   40.7180 O   0  0  0  0  0  0  0  0  0  0  0  0
   37.9480   28.6470   43.5350 C   0  0  0  0  0  0  0  0  0  0  0  0
   38.0280   27.2370   43.4480 C   0  0  0  0  0  0  0  0  0  0  0  0
   37.4990   26.6590   42.2950 C   0  0  0  0  0  0  0  0  0  0  0  0
   36.9730   27.5090   41.4040 N   0  0  0  0  0  0  0  0  0  0  0  0
   36.8960   28.8120   41.4760 C   0  0  0  0  0  0  0  0  0  0  0  0
   37.4040   29.4000   42.5880 N   0  0  0  0  0  0  0  0  0  0  0  0
   38.3390   29.1560   44.4050 H   0  0  0  0  0  0  0  0  0  0  0  0
   38.4650   26.6440   44.2100 H   0  0  0  0  0  0  0  0  0  0  0  0
   37.6200   25.2090   42.1780 C   0  0  0  0  0  0  0  0  0  0  0  0
   37.7750   24.8580   40.8490 F   0  0  0  0  0  0  0  0  0  0  0  0
   36.4260   24.7030   42.6120 F   0  0  0  0  0  0  0  0  0  0  0  0
   38.7020   24.6990   42.8640 F   0  0  0  0  0  0  0  0  0  0  0  0
   34.0640   28.8990   38.3920 C   0  0  0  0  0  2  0  0  0  0  0  0
   33.7910   28.9260   37.3090 H   0  0  0  0  0  0  0  0  0  0  0  0
  1  7  1  6  0  0  0
  1 17  1  0  0  0  0
  2  9  1  0  0  0  0
  2  1  1  0  0  0  0
  3  4  1  0  0  0  0
  3  2  1  0  0  0  0
  4 12  1  0  0  0  0
  4  5  1  0  0  0  0
  5  6  1  0  0  0  0
  6  1  1  0  0  0  0
  6 16  1  1  0  0  0
  8  2  1  0  0  0  0
 10  3  1  0  0  0  0
 11  3  1  0  0  0  0
 13  4  1  0  0  0  0
 14  5  1  0  0  0  0
 15  5  1  0  0  0  0
 17 18  2  0  0  0  0
 17 23  1  0  0  0  0
 19 25  1  0  0  0  0
 20 19  1  0  0  0  0
 20 26  1  0  0  0  0
 21 20  2  0  0  0  0
 22 23  2  0  0  0  0
 22 21  1  0  0  0  0
 23 24  1  0  0  0  0
 24 19  2  0  0  0  0
 27 21  1  0  0  0  0
 27 29  1  0  0  0  0
 27 30  1  0  0  0  0
 28 27  1  0  0  0  0
 31  6  1  0  0  0  0
 32 31  1  0  0  0  0
M  END
>  <minimizedAffinity>
-5.09690523

$$$$

 OpenBabel03242518523D

 32 33  0  0  1  0  0  0  0  0999 V2000
   37.6330   26.0740   41.7630 C   0  0  2  0  0  0  0  0  0  0  0  0
   36.9340   24.8050   42.2020 C   0  0  0  0  0  0  0  0  0  0  0  0
   37.4240   23.7180   41.2980 C   0  0  0  0  0  0  0  0  0  0  0  0
   38.3530   24.1400   40.2100 C   0  0  0  0  0  0  0  0  0  0  0  0
   39.5370   24.8850   40.7990 C   0  0  0  0  0  0  0  0  0  0  0  0
   39.1080   25.8450   41.7910 C   0  0  2  0  0  0  0  0  0  0  0  0
   37.3050   26.2240   40.7130 H   0  0  0  0  0  0  0  0  0  0  0  0
   37.1650   24.5470   43.2450 H   0  0  0  0  0  0  0  0  0  0  0  0
   35.8480   25.0120   42.1430 H   0  0  0  0  0  0  0  0  0  0  0  0
   37.7650   22.8130   41.8420 H   0  0  0  0  0  0  0  0  0  0  0  0
   36.4970   23.3530   40.7610 H   0  0  0  0  0  0  0  0  0  0  0  0
   37.8230   24.7230   39.4330 H   0  0  0  0  0  0  0  0  0  0  0  0
   38.6950   23.2210   39.7040 H   0  0  0  0  0  0  0  0  0  0  0  0
   40.1950   24.0390   41.1740 H   0  0  0  0  0  0  0  0  0  0  0  0
   40.0890   25.1740   39.8690 H   0  0  0  0  0  0  0  0  0  0  0  0
   39.7370   26.6360   41.3660 H   0  0  0  0  0  0  0  0  0  0  0  0
   37.1980   27.2740   42.4950 C   0  0  0  0  0  0  0  0  0  0  0  0
   36.3910   27.2330   43.4630 O   0  0  0  0  0  0  0  0  0  0  0  0
   39.1450   30.3630   42.4800 C   0  0  0  0  0  0  0  0  0  0  0  0
   38.6780   31.0660   41.3440 C   0  0  0  0  0  0  0  0  0  0  0  0
   37.6940   30.4320   40.5880 C   0  0  0  0  0  0  0  0  0  0  0  0
   37.3080   29.2260   41.0260 N   0  0  0  0  0  0  0  0  0  0  0  0
   37.7320   28.5710   42.0740 C   0  0  0  0  0  0  0  0  0  0  0  0
   38.6900   29.1670   42.8270 N   0  0  0  0  0  0  0  0  0  0  0  0
   39.9090   30.8010   43.1080 H   0  0  0  0  0  0  0  0  0  0  0  0
   39.0480   32.0220   41.0750 H   0  0  0  0  0  0  0  0  0  0  0  0
   37.1740   31.1700   39.4410 C   0  0  0  0  0  0  0  0  0  0  0  0
   38.1760   31.3460   38.5040 F   0  0  0  0  0  0  0  0  0  0  0  0
   36.8250   32.4020   39.9220 F   0  0  0  0  0  0  0  0  0  0  0  0
   36.1320   30.5240   38.8090 F   0  0  0  0  0  0  0  0  0  0  0  0
   39.5070   25.2380   43.1150 C   0  0  0  0  0  2  0  0  0  0  0  0
   39.7800   24.1570   43.0480 H   0  0  0  0  0  0  0  0  0  0  0  0
  1  7  1  6  0  0  0
  1  6  1  0  0  0  0
  1  2  1  0  0  0  0
  1 17  1  0  0  0  0
  2  8  1  0  0  0  0
  3 10  1  0  0  0  0
  3  2  1  0  0  0  0
  4  5  1  0  0  0  0
  4  3  1  0  0  0  0
  5 14  1  0  0  0  0
  5  6  1  0  0  0  0
  6 16  1  6  0  0  0
  6 31  1  0  0  0  0
  9  2  1  0  0  0  0
 11  3  1  0  0  0  0
 12  4  1  0  0  0  0
 13  4  1  0  0  0  0
 15  5  1  0  0  0  0
 17 18  2  0  0  0  0
 19 24  1  0  0  0  0
 19 25  1  0  0  0  0
 20 19  2  0  0  0  0
 21 22  2  0  0  0  0
 21 20  1  0  0  0  0
 22 23  1  0  0  0  0
 23 17  1  0  0  0  0
 23 24  2  0  0  0  0
 26 20  1  0  0  0  0
 27 29  1  0  0  0  0
 27 21  1  0  0  0  0
 28 27  1  0  0  0  0
 30 27  1  0  0  0  0
 32 31  1  0  0  0  0
M  END
>  <minimizedAffinity>
-5.03427982

$$$$

 OpenBabel03242518523D

 32 33  0  0  1  0  0  0  0  0999 V2000
   37.7840   28.2910   41.6840 C   0  0  2  0  0  0  0  0  0  0  0  0
   37.5210   26.9380   41.0570 C   0  0  0  0  0  0  0  0  0  0  0  0
   38.5340   26.0000   41.6340 C   0  0  0  0  0  0  0  0  0  0  0  0
   39.5360   26.6060   42.5580 C   0  0  0  0  0  0  0  0  0  0  0  0
   38.8280   27.3430   43.6800 C   0  0  0  0  0  0  0  0  0  0  0  0
   37.7410   28.1480   43.1690 C   0  0  2  0  0  0  0  0  0  0  0  0
   38.8180   28.5470   41.3710 H   0  0  0  0  0  0  0  0  0  0  0  0
   36.5100   26.5700   41.2810 H   0  0  0  0  0  0  0  0  0  0  0  0
   37.5880   27.0850   39.9620 H   0  0  0  0  0  0  0  0  0  0  0  0
   38.0930   25.0580   42.0200 H   0  0  0  0  0  0  0  0  0  0  0  0
   39.1390   25.6480   40.7440 H   0  0  0  0  0  0  0  0  0  0  0  0
   40.2540   27.2460   42.0090 H   0  0  0  0  0  0  0  0  0  0  0  0
   40.1380   25.7760   42.9680 H   0  0  0  0  0  0  0  0  0  0  0  0
   38.5380   26.4990   44.3820 H   0  0  0  0  0  0  0  0  0  0  0  0
   39.7000   27.7750   44.2330 H   0  0  0  0  0  0  0  0  0  0  0  0
   38.0500   29.0220   43.7560 H   0  0  0  0  0  0  0  0  0  0  0  0
   36.9270   29.3640   41.1580 C   0  0  0  0  0  0  0  0  0  0  0  0
   35.6930   29.2170   40.9470 O   0  0  0  0  0  0  0  0  0  0  0  0
   37.3610   32.7950   39.9840 C   0  0  0  0  0  0  0  0  0  0  0  0
   38.7240   33.0800   40.2310 C   0  0  0  0  0  0  0  0  0  0  0  0
   39.4700   32.0630   40.8250 C   0  0  0  0  0  0  0  0  0  0  0  0
   38.8030   30.9330   41.0960 N   0  0  0  0  0  0  0  0  0  0  0  0
   37.5450   30.6610   40.8700 C   0  0  0  0  0  0  0  0  0  0  0  0
   36.7980   31.6350   40.2920 N   0  0  0  0  0  0  0  0  0  0  0  0
   36.7290   33.5430   39.5260 H   0  0  0  0  0  0  0  0  0  0  0  0
   39.1660   34.0110   39.9800 H   0  0  0  0  0  0  0  0  0  0  0  0
   40.8880   32.3330   41.0410 C   0  0  0  0  0  0  0  0  0  0  0  0
   41.6370   31.7210   40.0510 F   0  0  0  0  0  0  0  0  0  0  0  0
   41.1990   31.7410   42.2330 F   0  0  0  0  0  0  0  0  0  0  0  0
   41.1930   33.6780   41.0120 F   0  0  0  0  0  0  0  0  0  0  0  0
   36.4890   27.4110   43.5770 C   0  0  0  0  0  2  0  0  0  0  0  0
   36.6760   26.3640   43.9190 H   0  0  0  0  0  0  0  0  0  0  0  0
  1  7  1  6  0  0  0
  1  6  1  0  0  0  0
  2  8  1  0  0  0  0
  2  3  1  0  0  0  0
  2  1  1  0  0  0  0
  3 10  1  0  0  0  0
  3  4  1  0  0  0  0
  4 13  1  0  0  0  0
  4  5  1  0  0  0  0
  5 15  1  0  0  0  0
  5 14  1  0  0  0  0
  6 31  1  0  0  0  0
  6  5  1  0  0  0  0
  6 16  1  1  0  0  0
  9  2  1  0  0  0  0
 11  3  1  0  0  0  0
 12  4  1  0  0  0  0
 17  1  1  0  0  0  0
 18 17  2  0  0  0  0
 19 20  2  0  0  0  0
 19 24  1  0  0  0  0
 20 21  1  0  0  0  0
 21 27  1  0  0  0  0
 21 22  2  0  0  0  0
 23 22  1  0  0  0  0
 23 17  1  0  0  0  0
 24 23  2  0  0  0  0
 25 19  1  0  0  0  0
 26 20  1  0  0  0  0
 27 29  1  0  0  0  0
 28 27  1  0  0  0  0
 30 27  1  0  0  0  0
 31 32  1  0  0  0  0
M  END
>  <minimizedAffinity>
-5.0024848

$$$$

 OpenBabel03242518523D

 32 33  0  0  1  0  0  0  0  0999 V2000
   37.5010   26.1640   41.6300 C   0  0  2  0  0  0  0  0  0  0  0  0
   36.9950   24.8650   42.2210 C   0  0  0  0  0  0  0  0  0  0  0  0
   37.7150   23.7660   41.5050 C   0  0  0  0  0  0  0  0  0  0  0  0
   38.6290   24.1900   40.4050 C   0  0  0  0  0  0  0  0  0  0  0  0
   39.6330   25.2010   40.9260 C   0  0  0  0  0  0  0  0  0  0  0  0
   38.9880   26.1990   41.7500 C   0  0  2  0  0  0  0  0  0  0  0  0
   37.2210   26.1100   40.5570 H   0  0  0  0  0  0  0  0  0  0  0  0
   37.1980   24.7960   43.2990 H   0  0  0  0  0  0  0  0  0  0  0  0
   35.8960   24.8710   42.0880 H   0  0  0  0  0  0  0  0  0  0  0  0
   38.1660   23.0170   42.1880 H   0  0  0  0  0  0  0  0  0  0  0  0
   36.8980   23.1760   40.9900 H   0  0  0  0  0  0  0  0  0  0  0  0
   38.0610   24.5610   39.5310 H   0  0  0  0  0  0  0  0  0  0  0  0
   39.1500   23.2830   40.0530 H   0  0  0  0  0  0  0  0  0  0  0  0
   40.3970   24.5410   41.4470 H   0  0  0  0  0  0  0  0  0  0  0  0
   40.1880   25.4510   39.9870 H   0  0  0  0  0  0  0  0  0  0  0  0
   39.5030   27.0220   41.2400 H   0  0  0  0  0  0  0  0  0  0  0  0
   36.8270   27.3590   42.1620 C   0  0  0  0  0  0  0  0  0  0  0  0
   36.3420   27.4140   43.3240 O   0  0  0  0  0  0  0  0  0  0  0  0
   36.6930   30.8400   41.0680 C   0  0  0  0  0  0  0  0  0  0  0  0
   36.4200   30.7620   39.6820 C   0  0  0  0  0  0  0  0  0  0  0  0
   36.3040   29.4800   39.1470 C   0  0  0  0  0  0  0  0  0  0  0  0
   36.4690   28.4700   40.0120 N   0  0  0  0  0  0  0  0  0  0  0  0
   36.7200   28.5340   41.2930 C   0  0  0  0  0  0  0  0  0  0  0  0
   36.8370   29.7710   41.8380 N   0  0  0  0  0  0  0  0  0  0  0  0
   36.7950   31.8070   41.5430 H   0  0  0  0  0  0  0  0  0  0  0  0
   36.3060   31.6230   39.0750 H   0  0  0  0  0  0  0  0  0  0  0  0
   35.9770   29.3910   37.7280 C   0  0  0  0  0  0  0  0  0  0  0  0
   34.6110   29.5260   37.5530 F   0  0  0  0  0  0  0  0  0  0  0  0
   36.3300   28.1260   37.3460 F   0  0  0  0  0  0  0  0  0  0  0  0
   36.5840   30.3710   36.9710 F   0  0  0  0  0  0  0  0  0  0  0  0
   39.3960   25.8580   43.1630 C   0  0  0  0  0  2  0  0  0  0  0  0
   39.8480   24.8410   43.2660 H   0  0  0  0  0  0  0  0  0  0  0  0
  1  7  1  6  0  0  0
  1  6  1  0  0  0  0
  1 17  1  0  0  0  0
  1  2  1  0  0  0  0
  2  8  1  0  0  0  0
  3 10  1  0  0  0  0
  3  2  1  0  0  0  0
  4  5  1  0  0  0  0
  4  3  1  0  0  0  0
  5 14  1  0  0  0  0
  5  6  1  0  0  0  0
  6 16  1  6  0  0  0
  6 31  1  0  0  0  0
  9  2  1  0  0  0  0
 11  3  1  0  0  0  0
 12  4  1  0  0  0  0
 13  4  1  0  0  0  0
 15  5  1  0  0  0  0
 17 18  2  0  0  0  0
 19 25  1  0  0  0  0
 19 24  1  0  0  0  0
 20 19  2  0  0  0  0
 21 20  1  0  0  0  0
 21 22  2  0  0  0  0
 22 23  1  0  0  0  0
 23 24  2  0  0  0  0
 23 17  1  0  0  0  0
 26 20  1  0  0  0  0
 27 21  1  0  0  0  0
 28 27  1  0  0  0  0
 29 27  1  0  0  0  0
 30 27  1  0  0  0  0
 31 32  1  0  0  0  0
M  END
>  <minimizedAffinity>
-4.99087906

$$$$
