
 OpenBabel03252509223D

 20 21  0  0  1  0  0  0  0  0999 V2000
   44.6630   35.3660   45.1440 C   0  0  0  0  0  0  0  0  0  0  0  0
   45.1310   35.6990   43.8320 C   0  0  0  0  0  0  0  0  0  0  0  0
   46.0930   34.8590   43.3440 C   0  0  0  0  0  0  0  0  0  0  0  0
   46.5680   33.7850   44.0660 N   0  0  0  0  0  0  0  0  0  0  0  0
   46.0940   33.5160   45.2980 C   0  0  0  0  0  0  0  0  0  0  0  0
   45.1310   34.3170   45.8360 N   0  0  0  0  0  0  0  0  0  0  0  0
   43.9010   35.9910   45.5830 H   0  0  0  0  0  0  0  0  0  0  0  0
   46.5680   32.6440   45.7290 H   0  0  0  0  0  0  0  0  0  0  0  0
   46.5680   35.0650   41.9320 C   0  0  1  0  0  0  0  0  0  0  0  0
   48.1010   35.2950   41.9130 C   0  0  0  0  0  0  0  0  0  0  0  0
   47.3620   34.0650   41.3180 C   0  0  2  0  0  0  0  0  0  0  0  0
   46.0150   35.8380   41.3660 H   0  0  0  0  0  0  0  0  0  0  0  0
   48.6790   35.1440   42.8170 H   0  0  0  0  0  0  0  0  0  0  0  0
   48.4580   35.9810   41.1300 H   0  0  0  0  0  0  0  0  0  0  0  0
   47.6340   33.1040   41.8090 H   0  0  0  0  0  0  0  0  0  0  0  0
   47.3840   33.9110   39.8020 C   0  0  0  0  0  2  0  0  0  0  0  0
   48.1510   34.6340   39.4550 H   0  0  0  0  0  0  0  0  0  0  0  0
   44.6630   36.8290   43.1240 N   0  0  0  0  0  0  0  0  0  0  0  0
   44.5800   37.6860   43.7460 H   0  0  0  0  0  0  0  0  0  0  0  0
   44.4260   36.8560   42.1370 H   0  0  0  0  0  0  0  0  0  0  0  0
  1  7  1  0  0  0  0
  1  6  1  0  0  0  0
  2  1  2  0  0  0  0
  3  2  1  0  0  0  0
  3  4  2  0  0  0  0
  4  5  1  0  0  0  0
  5  8  1  0  0  0  0
  5  6  2  0  0  0  0
  9 12  1  6  0  0  0
  9  3  1  0  0  0  0
 10  9  1  0  0  0  0
 10 13  1  0  0  0  0
 11 15  1  1  0  0  0
 11 10  1  0  0  0  0
 11  9  1  0  0  0  0
 14 10  1  0  0  0  0
 16 11  1  0  0  0  0
 17 16  1  0  0  0  0
 18 19  1  0  0  0  0
 18  2  1  0  0  0  0
 20 18  1  0  0  0  0
M  END
>  <minimizedAffinity>
-4.27395248

>  <minimizedRMSD>
0.129661977

$$$$
