
 OpenBabel03252504413D

 45 48  0  0  1  0  0  0  0  0999 V2000
   46.3260   32.2230   47.8170 C   0  0  0  0  0  0  0  0  0  0  0  0
   45.8820   31.8140   49.0410 C   0  0  0  0  0  0  0  0  0  0  0  0
   46.8820   31.1360   49.6100 N   0  0  0  0  0  0  0  0  0  0  0  0
   47.9440   31.0910   48.8060 C   0  0  0  0  0  0  0  0  0  0  0  0
   47.5920   31.7730   47.6850 N   0  0  0  0  0  0  0  0  0  0  0  0
   49.2230   30.4950   48.9660 N   0  0  0  0  0  0  0  0  0  0  0  0
   50.2790   31.2900   49.6070 C   0  0  0  0  0  0  0  0  0  0  0  0
   50.3960   30.7100   51.0140 C   0  0  0  0  0  0  0  0  0  0  0  0
   50.4880   29.2080   50.9470 C   0  0  0  0  0  0  0  0  0  0  0  0
   50.8290   28.7610   49.5330 C   0  0  0  0  0  0  0  0  0  0  0  0
   49.7230   29.1920   48.6040 C   0  0  0  0  0  0  0  0  0  0  0  0
   44.9110   31.9990   49.4790 H   0  0  0  0  0  0  0  0  0  0  0  0
   46.8410   30.6980   50.5560 H   0  0  0  0  0  0  0  0  0  0  0  0
   51.2370   31.2270   49.0690 H   0  0  0  0  0  0  0  0  0  0  0  0
   49.9500   32.3480   49.7200 H   0  0  0  0  0  0  0  0  0  0  0  0
   51.2270   31.1930   51.5500 H   0  0  0  0  0  0  0  0  0  0  0  0
   49.4500   31.0360   51.5350 H   0  0  0  0  0  0  0  0  0  0  0  0
   51.1950   28.8050   51.6860 H   0  0  0  0  0  0  0  0  0  0  0  0
   49.4890   28.7950   51.2110 H   0  0  0  0  0  0  0  0  0  0  0  0
   51.7800   29.2080   49.2030 H   0  0  0  0  0  0  0  0  0  0  0  0
   50.9780   27.6720   49.5500 H   0  0  0  0  0  0  0  0  0  0  0  0
   48.9290   28.3920   48.6380 H   0  0  0  0  0  0  0  0  0  0  0  0
   50.0490   29.1930   47.5360 H   0  0  0  0  0  0  0  0  0  0  0  0
   45.5770   33.0140   46.8040 C   0  0  0  0  0  0  0  0  0  0  0  0
   45.2620   33.9780   47.2500 H   0  0  0  0  0  0  0  0  0  0  0  0
   44.6160   32.4750   46.5660 H   0  0  0  0  0  0  0  0  0  0  0  0
   45.9430   33.8430   44.5080 C   0  0  0  0  0  3  0  0  0  0  0  0
   46.4050   33.2480   45.5970 C   0  0  0  0  0  3  0  0  0  0  0  0
   46.8640   34.0140   43.3790 C   0  0  0  0  0  0  0  0  0  0  0  0
   46.8660   35.1860   42.5980 C   0  0  0  0  0  0  0  0  0  0  0  0
   47.7700   35.2630   41.5490 C   0  0  0  0  0  0  0  0  0  0  0  0
   48.6030   34.2320   41.3180 N   0  0  0  0  0  0  0  0  0  0  0  0
   48.5850   33.1030   42.0880 C   0  0  0  0  0  0  0  0  0  0  0  0
   47.7360   33.0100   43.0860 N   0  0  0  0  0  0  0  0  0  0  0  0
   46.1780   35.9790   42.8280 H   0  0  0  0  0  0  0  0  0  0  0  0
   47.8020   36.1470   40.9260 H   0  0  0  0  0  0  0  0  0  0  0  0
   50.9150   32.2780   42.3410 C   0  0  1  0  0  3  0  0  0  0  0  0
   49.5420   32.0150   41.7580 C   0  0  2  0  0  3  0  0  0  0  0  0
   49.8530   32.0170   40.2920 C   0  0  0  0  0  3  0  0  0  0  0  0
   49.1070   31.4400   39.6910 H   0  0  0  0  0  0  0  0  0  0  0  0
   51.1430   31.5400   40.1350 O   0  0  0  0  0  0  0  0  0  0  0  0
   51.7710   31.4940   41.3550 C   0  0  0  0  0  3  0  0  0  0  0  0
   52.8160   31.8590   41.3340 H   0  0  0  0  0  0  0  0  0  0  0  0
   51.2730   33.6200   42.2430 O   0  0  0  0  0  0  0  0  0  0  0  0
   51.4290   33.8610   41.2930 H   0  0  0  0  0  0  0  0  0  0  0  0
  1  2  2  0  0  0  0
  2 12  1  0  0  0  0
  2  3  1  0  0  0  0
  3 13  1  0  0  0  0
  4  6  1  0  0  0  0
  4  3  1  0  0  0  0
  5  1  1  0  0  0  0
  5  4  2  0  0  0  0
  6  7  1  0  0  0  0
  7 15  1  0  0  0  0
  7  8  1  0  0  0  0
  8 17  1  0  0  0  0
  8 16  1  0  0  0  0
  9  8  1  0  0  0  0
  9 19  1  0  0  0  0
  9 18  1  0  0  0  0
 10 21  1  0  0  0  0
 10  9  1  0  0  0  0
 11 22  1  0  0  0  0
 11  6  1  0  0  0  0
 11 10  1  0  0  0  0
 14  7  1  0  0  0  0
 20 10  1  0  0  0  0
 23 11  1  0  0  0  0
 24 25  1  0  0  0  0
 24  1  1  0  0  0  0
 26 24  1  0  0  0  0
 27 28  2  0  0  0  0
 28 24  1  0  0  0  0
 29 27  1  0  0  0  0
 30 35  1  0  0  0  0
 30 29  2  0  0  0  0
 31 30  1  0  0  0  0
 32 31  2  0  0  0  0
 32 33  1  0  0  0  0
 33 34  2  0  0  0  0
 34 29  1  0  0  0  0
 36 31  1  0  0  0  0
 37 44  1  6  0  0  0
 38 33  1  6  0  0  0
 38 37  1  0  0  0  0
 39 38  1  0  0  0  0
 40 39  1  0  0  0  0
 41 39  1  0  0  0  0
 41 42  1  0  0  0  0
 42 37  1  0  0  0  0
 43 42  1  0  0  0  0
 45 44  1  0  0  0  0
M  END
>  <minimizedAffinity>
-6.44140434

>  <minimizedRMSD>
0.542080581

$$$$
