
 OpenBabel03242517143D

 23 24  0  0  1  0  0  0  0  0999 V2000
   42.3080   35.5030   39.5610 C   0  0  0  0  0  0  0  0  0  0  0  0
   42.9710   36.2710   39.1390 H   0  0  0  0  0  0  0  0  0  0  0  0
   41.3040   35.9470   39.7080 H   0  0  0  0  0  0  0  0  0  0  0  0
   41.7260   32.0560   38.4450 C   0  0  1  0  0  3  0  0  0  0  0  0
   42.5420   33.0280   39.3110 C   0  0  0  0  0  3  0  0  0  0  0  0
   43.5870   32.7070   39.2900 H   0  0  0  0  0  0  0  0  0  0  0  0
   42.2560   34.3150   38.5990 C   0  0  1  0  0  3  0  0  0  0  0  0
   41.0010   34.2240   38.0270 O   0  0  0  0  0  0  0  0  0  0  0  0
   40.4990   32.9550   38.2420 C   0  0  0  0  0  3  0  0  0  0  0  0
   39.8820   32.6050   37.4140 H   0  0  0  0  0  0  0  0  0  0  0  0
   42.3270   31.9250   37.2100 O   0  0  0  0  0  0  0  0  0  0  0  0
   43.2620   31.6000   37.2350 H   0  0  0  0  0  0  0  0  0  0  0  0
   43.6710   35.5960   41.6250 C   0  0  0  0  0  3  0  0  0  0  0  0
   42.8730   34.9360   40.8220 C   0  0  0  0  0  3  0  0  0  0  0  0
   44.3080   35.8530   44.0290 C   0  0  0  0  0  0  0  0  0  0  0  0
   44.2490   35.1030   42.8580 C   0  0  0  0  0  0  0  0  0  0  0  0
   44.7780   33.8160   42.8940 C   0  0  0  0  0  0  0  0  0  0  0  0
   45.3290   33.3480   44.0650 N   0  0  0  0  0  0  0  0  0  0  0  0
   45.3610   34.1150   45.1750 C   0  0  0  0  0  0  0  0  0  0  0  0
   44.8520   35.3590   45.1460 N   0  0  0  0  0  0  0  0  0  0  0  0
   43.9020   36.8580   44.0240 H   0  0  0  0  0  0  0  0  0  0  0  0
   44.7560   33.1910   42.0050 H   0  0  0  0  0  0  0  0  0  0  0  0
   45.8270   33.5900   46.0000 H   0  0  0  0  0  0  0  0  0  0  0  0
  1  3  1  0  0  0  0
  1 14  1  0  0  0  0
  2  1  1  0  0  0  0
  4 11  1  6  0  0  0
  4  5  1  0  0  0  0
  6  5  1  0  0  0  0
  7  5  1  0  0  0  0
  7  1  1  1  0  0  0
  8  9  1  0  0  0  0
  8  7  1  0  0  0  0
  9  4  1  0  0  0  0
 10  9  1  0  0  0  0
 11 12  1  0  0  0  0
 13 16  1  0  0  0  0
 14 13  2  0  0  0  0
 15 20  1  0  0  0  0
 16 17  1  0  0  0  0
 16 15  2  0  0  0  0
 17 18  2  0  0  0  0
 18 19  1  0  0  0  0
 19 23  1  0  0  0  0
 20 19  2  0  0  0  0
 21 15  1  0  0  0  0
 22 17  1  0  0  0  0
M  END
>  <minimizedAffinity>
-4.12216043

>  <minimizedRMSD>
1.6507057

$$$$
