
 OpenBabel03242523233D

 43 46  0  0  1  0  0  0  0  0999 V2000
   46.9830   32.9560   44.1210 C   0  0  0  0  0  0  0  0  0  0  0  0
   47.7820   33.2210   43.0930 C   0  0  0  0  0  0  0  0  0  0  0  0
   48.6680   32.2110   42.7800 C   0  0  0  0  0  0  0  0  0  0  0  0
   48.6420   31.0410   43.5530 N   0  0  0  0  0  0  0  0  0  0  0  0
   47.8330   30.8430   44.5530 C   0  0  0  0  0  0  0  0  0  0  0  0
   46.9300   31.8300   44.8980 N   0  0  0  0  0  0  0  0  0  0  0  0
   49.4150   32.1750   42.0010 H   0  0  0  0  0  0  0  0  0  0  0  0
   47.9190   29.8840   45.0730 H   0  0  0  0  0  0  0  0  0  0  0  0
   47.8940   34.4370   42.3790 C   0  0  1  0  0  0  0  0  0  0  0  0
   48.8010   34.7920   41.4290 C   0  0  0  0  0  0  0  0  0  0  0  0
   47.4360   34.4960   40.8930 C   0  0  1  0  0  0  0  0  0  0  0  0
   47.5530   35.3130   42.9960 H   0  0  0  0  0  0  0  0  0  0  0  0
   49.6330   34.0720   41.1650 H   0  0  0  0  0  0  0  0  0  0  0  0
   49.1570   35.8110   41.1600 H   0  0  0  0  0  0  0  0  0  0  0  0
   46.7630   35.3510   40.6710 H   0  0  0  0  0  0  0  0  0  0  0  0
   46.1420   33.2480   39.1040 C   0  0  1  0  0  3  0  0  0  0  0  0
   47.3120   33.3240   40.0350 C   0  0  1  0  0  3  0  0  0  0  0  0
   48.4790   33.3490   39.0750 C   0  0  0  0  0  3  0  0  0  0  0  0
   49.3360   33.8910   39.5280 H   0  0  0  0  0  0  0  0  0  0  0  0
   48.0040   34.0700   38.0020 O   0  0  0  0  0  0  0  0  0  0  0  0
   46.7170   33.5770   37.7650 C   0  0  0  0  0  3  0  0  0  0  0  0
   46.0790   34.3290   37.2780 H   0  0  0  0  0  0  0  0  0  0  0  0
   45.7280   31.9020   39.0510 O   0  0  0  0  0  0  0  0  0  0  0  0
   45.9740   31.4570   38.2100 H   0  0  0  0  0  0  0  0  0  0  0  0
   45.8950   33.8170   44.6330 C   0  0  0  0  0  0  0  0  0  0  0  0
   45.2950   34.3990   45.4890 O   0  0  0  0  0  0  0  0  0  0  0  0
   44.4020   31.6280   43.0490 Cl  0  0  0  0  0  0  0  0  0  0  0  0
   44.2910   33.3330   42.6410 C   0  0  0  0  0  0  0  0  0  0  0  0
   45.0280   34.2110   43.4780 C   0  0  0  0  0  0  0  0  0  0  0  0
   44.8560   35.5120   43.0620 C   0  0  0  0  0  0  0  0  0  0  0  0
   44.1520   36.0210   42.0610 C   0  0  0  0  0  0  0  0  0  0  0  0
   43.4650   35.1070   41.2920 C   0  0  0  0  0  0  0  0  0  0  0  0
   43.5270   33.7750   41.5740 C   0  0  0  0  0  0  0  0  0  0  0  0
   45.3550   36.3130   43.6560 H   0  0  0  0  0  0  0  0  0  0  0  0
   44.0790   37.0770   41.8060 H   0  0  0  0  0  0  0  0  0  0  0  0
   42.8670   35.4920   40.4460 H   0  0  0  0  0  0  0  0  0  0  0  0
   42.7970   32.9710   40.7390 O   0  0  0  0  0  0  0  0  0  0  0  0
   40.4150   32.8790   39.6460 O   0  0  0  0  0  0  0  0  0  0  0  0
   41.1880   32.4490   40.8680 P   0  0  0  0  0  0  0  0  0  0  0  0
   41.1570   30.7650   41.0540 O   0  0  0  0  0  0  0  0  0  0  0  0
   41.3950   30.5120   41.9650 H   0  0  0  0  0  0  0  0  0  0  0  0
   40.4480   33.0720   42.2590 O   0  0  0  0  0  0  0  0  0  0  0  0
   39.6220   32.5500   42.4340 H   0  0  0  0  0  0  0  0  0  0  0  0
  1 25  1  0  0  0  0
  1  6  1  0  0  0  0
  2  1  2  0  0  0  0
  3  2  1  0  0  0  0
  3  4  2  0  0  0  0
  4  5  1  0  0  0  0
  5  6  2  0  0  0  0
  5  8  1  0  0  0  0
  7  3  1  0  0  0  0
  9 12  1  1  0  0  0
  9  2  1  0  0  0  0
 10  9  1  0  0  0  0
 11 15  1  6  0  0  0
 11 10  1  0  0  0  0
 11  9  1  0  0  0  0
 13 10  1  0  0  0  0
 14 10  1  0  0  0  0
 16 23  1  6  0  0  0
 16 17  1  0  0  0  0
 17 18  1  6  0  0  0
 17 11  1  0  0  0  0
 18 19  1  0  0  0  0
 20 18  1  0  0  0  0
 21 20  1  0  0  0  0
 21 16  1  0  0  0  0
 22 21  1  0  0  0  0
 24 23  1  0  0  0  0
 25 26  2  0  0  0  0
 28 27  1  0  0  0  0
 28 29  1  0  0  0  0
 29 25  1  0  0  0  0
 30 29  2  0  0  0  0
 30 34  1  0  0  0  0
 31 30  1  0  0  0  0
 32 33  1  0  0  0  0
 32 31  2  0  0  0  0
 33 28  2  0  0  0  0
 35 31  1  0  0  0  0
 36 32  1  0  0  0  0
 37 39  1  0  0  0  0
 37 33  1  0  0  0  0
 38 39  2  0  0  0  0
 39 40  1  0  0  0  0
 39 42  1  0  0  0  0
 40 41  1  0  0  0  0
 42 43  1  0  0  0  0
M  END
>  <minimizedAffinity>
-5.66247177

>  <minimizedRMSD>
1.66415703

$$$$
