
 OpenBabel03252504433D

 45 48  0  0  1  0  0  0  0  0999 V2000
   37.4100   31.6050   40.2080 C   0  0  0  0  0  0  0  0  0  0  0  0
   37.1040   32.2940   39.0700 C   0  0  0  0  0  0  0  0  0  0  0  0
   38.2390   32.8480   38.6350 N   0  0  0  0  0  0  0  0  0  0  0  0
   39.2550   32.5460   39.4420 C   0  0  0  0  0  0  0  0  0  0  0  0
   38.7320   31.7670   40.4260 N   0  0  0  0  0  0  0  0  0  0  0  0
   40.6300   32.8950   39.3980 N   0  0  0  0  0  0  0  0  0  0  0  0
   41.5390   32.0270   38.6360 C   0  0  0  0  0  0  0  0  0  0  0  0
   41.8240   32.8020   37.3520 C   0  0  0  0  0  0  0  0  0  0  0  0
   42.2020   34.2230   37.6800 C   0  0  0  0  0  0  0  0  0  0  0  0
   42.5640   34.3480   39.1520 C   0  0  0  0  0  0  0  0  0  0  0  0
   41.3580   33.9940   39.9840 C   0  0  0  0  0  0  0  0  0  0  0  0
   36.1340   32.3820   38.6000 H   0  0  0  0  0  0  0  0  0  0  0  0
   38.3230   33.4390   37.7790 H   0  0  0  0  0  0  0  0  0  0  0  0
   42.4680   31.8090   39.1840 H   0  0  0  0  0  0  0  0  0  0  0  0
   41.0170   31.0890   38.3380 H   0  0  0  0  0  0  0  0  0  0  0  0
   42.5680   32.2620   36.7470 H   0  0  0  0  0  0  0  0  0  0  0  0
   40.8550   32.7620   36.7750 H   0  0  0  0  0  0  0  0  0  0  0  0
   43.0030   34.5970   37.0260 H   0  0  0  0  0  0  0  0  0  0  0  0
   41.3130   34.8640   37.4840 H   0  0  0  0  0  0  0  0  0  0  0  0
   43.3960   33.6740   39.4060 H   0  0  0  0  0  0  0  0  0  0  0  0
   42.9210   35.3740   39.3250 H   0  0  0  0  0  0  0  0  0  0  0  0
   40.7350   34.9290   40.0840 H   0  0  0  0  0  0  0  0  0  0  0  0
   41.6330   33.7480   41.0380 H   0  0  0  0  0  0  0  0  0  0  0  0
   36.4800   30.8190   41.0620 C   0  0  0  0  0  0  0  0  0  0  0  0
   35.5010   30.7260   40.5520 H   0  0  0  0  0  0  0  0  0  0  0  0
   36.2660   31.4080   41.9990 H   0  0  0  0  0  0  0  0  0  0  0  0
   37.5010   29.1330   42.5490 C   0  0  0  0  0  3  0  0  0  0  0  0
   37.0400   29.4780   41.3570 C   0  0  0  0  0  3  0  0  0  0  0  0
   38.0300   27.7750   42.7120 C   0  0  0  0  0  0  0  0  0  0  0  0
   39.1610   27.5110   43.5090 C   0  0  0  0  0  0  0  0  0  0  0  0
   39.5920   26.1970   43.6060 C   0  0  0  0  0  0  0  0  0  0  0  0
   38.9250   25.2320   42.9470 N   0  0  0  0  0  0  0  0  0  0  0  0
   37.8290   25.5080   42.1790 C   0  0  0  0  0  0  0  0  0  0  0  0
   37.4040   26.7470   42.0730 N   0  0  0  0  0  0  0  0  0  0  0  0
   39.6560   28.3210   44.0120 H   0  0  0  0  0  0  0  0  0  0  0  0
   40.4580   25.9550   44.2080 H   0  0  0  0  0  0  0  0  0  0  0  0
   38.1500   23.3400   41.0090 C   0  0  1  0  0  3  0  0  0  0  0  0
   37.1560   24.3780   41.4880 C   0  0  2  0  0  3  0  0  0  0  0  0
   36.5740   24.8330   40.1840 C   0  0  0  0  0  3  0  0  0  0  0  0
   35.5520   25.2730   40.2980 H   0  0  0  0  0  0  0  0  0  0  0  0
   36.5940   23.7550   39.3140 O   0  0  0  0  0  0  0  0  0  0  0  0
   37.3710   22.7520   39.8410 C   0  0  0  0  0  3  0  0  0  0  0  0
   38.0360   22.2690   39.1000 H   0  0  0  0  0  0  0  0  0  0  0  0
   39.3060   23.9250   40.5000 O   0  0  0  0  0  0  0  0  0  0  0  0
   39.1030   24.3900   39.6470 H   0  0  0  0  0  0  0  0  0  0  0  0
  1  5  1  0  0  0  0
  1 24  1  0  0  0  0
  2  1  2  0  0  0  0
  3  2  1  0  0  0  0
  3  4  1  0  0  0  0
  4  5  2  0  0  0  0
  6  4  1  0  0  0  0
  6 11  1  0  0  0  0
  7 14  1  0  0  0  0
  7  6  1  0  0  0  0
  8  9  1  0  0  0  0
  8  7  1  0  0  0  0
  9 10  1  0  0  0  0
 10 21  1  0  0  0  0
 10 20  1  0  0  0  0
 10 11  1  0  0  0  0
 11 22  1  0  0  0  0
 11 23  1  0  0  0  0
 12  2  1  0  0  0  0
 13  3  1  0  0  0  0
 15  7  1  0  0  0  0
 16  8  1  0  0  0  0
 17  8  1  0  0  0  0
 18  9  1  0  0  0  0
 19  9  1  0  0  0  0
 24 28  1  0  0  0  0
 24 26  1  0  0  0  0
 25 24  1  0  0  0  0
 27 29  1  0  0  0  0
 28 27  2  0  0  0  0
 29 30  1  0  0  0  0
 30 31  2  0  0  0  0
 30 35  1  0  0  0  0
 31 36  1  0  0  0  0
 32 31  1  0  0  0  0
 33 32  2  0  0  0  0
 34 33  1  0  0  0  0
 34 29  2  0  0  0  0
 37 44  1  6  0  0  0
 37 38  1  0  0  0  0
 38 33  1  6  0  0  0
 39 40  1  0  0  0  0
 39 38  1  0  0  0  0
 41 42  1  0  0  0  0
 41 39  1  0  0  0  0
 42 37  1  0  0  0  0
 43 42  1  0  0  0  0
 45 44  1  0  0  0  0
M  END
>  <minimizedAffinity>
-6.17727137

$$$$

 OpenBabel03252504433D

 45 48  0  0  1  0  0  0  0  0999 V2000
   36.4040   28.5510   38.4970 C   0  0  0  0  0  0  0  0  0  0  0  0
   35.9090   27.3640   38.0390 C   0  0  0  0  0  0  0  0  0  0  0  0
   36.3920   26.4090   38.8390 N   0  0  0  0  0  0  0  0  0  0  0  0
   37.1710   26.9300   39.7850 C   0  0  0  0  0  0  0  0  0  0  0  0
   37.1760   28.2720   39.5680 N   0  0  0  0  0  0  0  0  0  0  0  0
   37.8960   26.3280   40.8470 N   0  0  0  0  0  0  0  0  0  0  0  0
   37.2050   26.1290   42.1280 C   0  0  0  0  0  0  0  0  0  0  0  0
   36.8950   24.6340   42.1700 C   0  0  0  0  0  0  0  0  0  0  0  0
   38.1280   23.8420   41.8220 C   0  0  0  0  0  0  0  0  0  0  0  0
   39.3670   24.7190   41.9230 C   0  0  0  0  0  0  0  0  0  0  0  0
   39.2530   25.8440   40.9260 C   0  0  0  0  0  0  0  0  0  0  0  0
   35.2520   27.2130   37.1940 H   0  0  0  0  0  0  0  0  0  0  0  0
   36.1880   25.3910   38.7390 H   0  0  0  0  0  0  0  0  0  0  0  0
   37.8210   26.4310   42.9890 H   0  0  0  0  0  0  0  0  0  0  0  0
   36.2270   26.6610   42.1260 H   0  0  0  0  0  0  0  0  0  0  0  0
   36.4450   24.3720   43.1390 H   0  0  0  0  0  0  0  0  0  0  0  0
   36.0880   24.4900   41.3950 H   0  0  0  0  0  0  0  0  0  0  0  0
   38.2190   22.9320   42.4320 H   0  0  0  0  0  0  0  0  0  0  0  0
   38.0270   23.5030   40.7670 H   0  0  0  0  0  0  0  0  0  0  0  0
   39.4660   25.1360   42.9370 H   0  0  0  0  0  0  0  0  0  0  0  0
   40.2470   24.0810   41.7540 H   0  0  0  0  0  0  0  0  0  0  0  0
   39.6380   25.4560   39.9400 H   0  0  0  0  0  0  0  0  0  0  0  0
   39.9430   26.6880   41.1650 H   0  0  0  0  0  0  0  0  0  0  0  0
   36.1530   29.9070   37.9390 C   0  0  0  0  0  0  0  0  0  0  0  0
   35.0830   30.1660   38.0670 H   0  0  0  0  0  0  0  0  0  0  0  0
   36.3130   29.8720   36.8230 H   0  0  0  0  0  0  0  0  0  0  0  0
   38.0870   31.4400   38.0260 C   0  0  0  0  0  3  0  0  0  0  0  0
   37.0130   30.9180   38.5990 C   0  0  0  0  0  3  0  0  0  0  0  0
   38.8540   32.4320   38.7860 C   0  0  0  0  0  0  0  0  0  0  0  0
   38.2280   33.3410   39.6600 C   0  0  0  0  0  0  0  0  0  0  0  0
   39.0310   34.2460   40.3370 C   0  0  0  0  0  0  0  0  0  0  0  0
   40.3620   34.2250   40.1410 N   0  0  0  0  0  0  0  0  0  0  0  0
   40.9510   33.3340   39.2870 C   0  0  0  0  0  0  0  0  0  0  0  0
   40.2080   32.4690   38.6350 N   0  0  0  0  0  0  0  0  0  0  0  0
   37.1600   33.3130   39.7790 H   0  0  0  0  0  0  0  0  0  0  0  0
   38.5860   34.9600   41.0180 H   0  0  0  0  0  0  0  0  0  0  0  0
   42.8370   34.1620   37.8980 C   0  0  1  0  0  3  0  0  0  0  0  0
   42.4280   33.3850   39.1320 C   0  0  2  0  0  3  0  0  0  0  0  0
   42.9670   32.0270   38.8020 C   0  0  0  0  0  3  0  0  0  0  0  0
   43.1610   31.4070   39.7120 H   0  0  0  0  0  0  0  0  0  0  0  0
   44.1030   32.2010   38.0280 O   0  0  0  0  0  0  0  0  0  0  0  0
   44.1810   33.5080   37.6110 C   0  0  0  0  0  3  0  0  0  0  0  0
   44.4790   33.6200   36.5520 H   0  0  0  0  0  0  0  0  0  0  0  0
   41.9970   33.9010   36.8180 O   0  0  0  0  0  0  0  0  0  0  0  0
   42.1320   32.9700   36.5010 H   0  0  0  0  0  0  0  0  0  0  0  0
  1  5  1  0  0  0  0
  2  1  2  0  0  0  0
  2  3  1  0  0  0  0
  3  4  1  0  0  0  0
  4  6  1  0  0  0  0
  5  4  2  0  0  0  0
  6 11  1  0  0  0  0
  6  7  1  0  0  0  0
  7  8  1  0  0  0  0
  7 14  1  0  0  0  0
  8 16  1  0  0  0  0
  9 10  1  0  0  0  0
  9  8  1  0  0  0  0
  9 18  1  0  0  0  0
 10 20  1  0  0  0  0
 11 23  1  0  0  0  0
 11 10  1  0  0  0  0
 12  2  1  0  0  0  0
 13  3  1  0  0  0  0
 15  7  1  0  0  0  0
 17  8  1  0  0  0  0
 19  9  1  0  0  0  0
 21 10  1  0  0  0  0
 22 11  1  0  0  0  0
 24 25  1  0  0  0  0
 24  1  1  0  0  0  0
 24 28  1  0  0  0  0
 26 24  1  0  0  0  0
 27 28  2  0  0  0  0
 27 29  1  0  0  0  0
 29 30  1  0  0  0  0
 30 35  1  0  0  0  0
 30 31  2  0  0  0  0
 31 36  1  0  0  0  0
 32 31  1  0  0  0  0
 33 32  2  0  0  0  0
 34 29  2  0  0  0  0
 34 33  1  0  0  0  0
 37 44  1  6  0  0  0
 37 38  1  0  0  0  0
 38 33  1  6  0  0  0
 39 38  1  0  0  0  0
 39 40  1  0  0  0  0
 41 39  1  0  0  0  0
 42 37  1  0  0  0  0
 42 41  1  0  0  0  0
 43 42  1  0  0  0  0
 45 44  1  0  0  0  0
M  END
>  <minimizedAffinity>
-6.04984093

$$$$

 OpenBabel03252504433D

 45 48  0  0  1  0  0  0  0  0999 V2000
   38.0550   32.8160   39.9580 C   0  0  0  0  0  0  0  0  0  0  0  0
   38.3020   34.1570   40.0350 C   0  0  0  0  0  0  0  0  0  0  0  0
   39.5790   34.3360   39.6870 N   0  0  0  0  0  0  0  0  0  0  0  0
   40.1590   33.1730   39.3910 C   0  0  0  0  0  0  0  0  0  0  0  0
   39.2010   32.2250   39.5620 N   0  0  0  0  0  0  0  0  0  0  0  0
   41.4790   32.8570   38.9750 N   0  0  0  0  0  0  0  0  0  0  0  0
   41.7730   32.8790   37.5360 C   0  0  0  0  0  0  0  0  0  0  0  0
   42.5610   34.1700   37.3240 C   0  0  0  0  0  0  0  0  0  0  0  0
   43.6650   34.2730   38.3430 C   0  0  0  0  0  0  0  0  0  0  0  0
   43.9100   32.9220   38.9990 C   0  0  0  0  0  0  0  0  0  0  0  0
   42.6590   32.4980   39.7250 C   0  0  0  0  0  0  0  0  0  0  0  0
   37.6070   34.9340   40.3210 H   0  0  0  0  0  0  0  0  0  0  0  0
   40.0610   35.2600   39.6500 H   0  0  0  0  0  0  0  0  0  0  0  0
   42.3530   32.0020   37.2120 H   0  0  0  0  0  0  0  0  0  0  0  0
   40.8300   32.9770   36.9510 H   0  0  0  0  0  0  0  0  0  0  0  0
   42.9000   34.2340   36.2790 H   0  0  0  0  0  0  0  0  0  0  0  0
   41.8020   34.9920   37.4640 H   0  0  0  0  0  0  0  0  0  0  0  0
   44.5860   34.6930   37.9120 H   0  0  0  0  0  0  0  0  0  0  0  0
   43.3350   34.9870   39.1300 H   0  0  0  0  0  0  0  0  0  0  0  0
   44.1700   32.1650   38.2430 H   0  0  0  0  0  0  0  0  0  0  0  0
   44.7800   33.0220   39.6630 H   0  0  0  0  0  0  0  0  0  0  0  0
   42.6900   32.9710   40.7480 H   0  0  0  0  0  0  0  0  0  0  0  0
   42.6500   31.4030   39.9420 H   0  0  0  0  0  0  0  0  0  0  0  0
   36.7750   32.1180   40.2500 C   0  0  0  0  0  0  0  0  0  0  0  0
   36.0000   32.4560   39.5330 H   0  0  0  0  0  0  0  0  0  0  0  0
   36.4040   32.4540   41.2610 H   0  0  0  0  0  0  0  0  0  0  0  0
   35.9470   29.7940   40.3430 C   0  0  0  0  0  3  0  0  0  0  0  0
   36.9450   30.6480   40.1740 C   0  0  0  0  0  3  0  0  0  0  0  0
   36.2460   28.3620   40.2430 C   0  0  0  0  0  0  0  0  0  0  0  0
   35.9290   27.6190   39.0890 C   0  0  0  0  0  0  0  0  0  0  0  0
   36.2470   26.2690   39.0810 C   0  0  0  0  0  0  0  0  0  0  0  0
   36.8390   25.7230   40.1590 N   0  0  0  0  0  0  0  0  0  0  0  0
   37.1380   26.4620   41.2690 C   0  0  0  0  0  0  0  0  0  0  0  0
   36.8440   27.7420   41.2980 N   0  0  0  0  0  0  0  0  0  0  0  0
   35.4560   28.1070   38.2570 H   0  0  0  0  0  0  0  0  0  0  0  0
   36.0200   25.6650   38.2130 H   0  0  0  0  0  0  0  0  0  0  0  0
   39.1490   26.3680   42.7260 C   0  0  1  0  0  3  0  0  0  0  0  0
   37.7910   25.7730   42.4130 C   0  0  2  0  0  3  0  0  0  0  0  0
   38.1760   24.3760   42.0330 C   0  0  0  0  0  3  0  0  0  0  0  0
   37.3410   23.6460   42.1690 H   0  0  0  0  0  0  0  0  0  0  0  0
   39.3020   24.0360   42.7640 O   0  0  0  0  0  0  0  0  0  0  0  0
   39.8240   25.1590   43.3580 C   0  0  0  0  0  3  0  0  0  0  0  0
   40.9270   25.2230   43.3000 H   0  0  0  0  0  0  0  0  0  0  0  0
   39.8520   26.6920   41.5690 O   0  0  0  0  0  0  0  0  0  0  0  0
   40.1210   25.8640   41.0930 H   0  0  0  0  0  0  0  0  0  0  0  0
  1  2  2  0  0  0  0
  1 24  1  0  0  0  0
  2 12  1  0  0  0  0
  3  2  1  0  0  0  0
  4  5  2  0  0  0  0
  4  3  1  0  0  0  0
  5  1  1  0  0  0  0
  6  4  1  0  0  0  0
  6 11  1  0  0  0  0
  7  6  1  0  0  0  0
  8 17  1  0  0  0  0
  8  7  1  0  0  0  0
  8  9  1  0  0  0  0
  9 10  1  0  0  0  0
  9 19  1  0  0  0  0
 10 21  1  0  0  0  0
 10 11  1  0  0  0  0
 11 23  1  0  0  0  0
 11 22  1  0  0  0  0
 13  3  1  0  0  0  0
 14  7  1  0  0  0  0
 15  7  1  0  0  0  0
 16  8  1  0  0  0  0
 18  9  1  0  0  0  0
 20 10  1  0  0  0  0
 24 26  1  0  0  0  0
 25 24  1  0  0  0  0
 28 24  1  0  0  0  0
 28 27  2  0  0  0  0
 29 27  1  0  0  0  0
 29 34  1  0  0  0  0
 30 29  2  0  0  0  0
 31 30  1  0  0  0  0
 31 32  2  0  0  0  0
 32 33  1  0  0  0  0
 33 34  2  0  0  0  0
 35 30  1  0  0  0  0
 36 31  1  0  0  0  0
 37 44  1  6  0  0  0
 37 42  1  0  0  0  0
 38 33  1  6  0  0  0
 38 37  1  0  0  0  0
 39 40  1  0  0  0  0
 39 38  1  0  0  0  0
 39 41  1  0  0  0  0
 41 42  1  0  0  0  0
 43 42  1  0  0  0  0
 45 44  1  0  0  0  0
M  END
>  <minimizedAffinity>
-5.91370773

$$$$

 OpenBabel03252504433D

 45 48  0  0  1  0  0  0  0  0999 V2000
   38.3700   27.0060   42.8510 C   0  0  0  0  0  0  0  0  0  0  0  0
   39.3830   26.1650   43.2160 C   0  0  0  0  0  0  0  0  0  0  0  0
   39.3290   25.1140   42.3930 N   0  0  0  0  0  0  0  0  0  0  0  0
   38.3290   25.2430   41.5220 C   0  0  0  0  0  0  0  0  0  0  0  0
   37.7320   26.4290   41.8120 N   0  0  0  0  0  0  0  0  0  0  0  0
   37.8800   24.4010   40.4710 N   0  0  0  0  0  0  0  0  0  0  0  0
   38.4880   24.5690   39.1440 C   0  0  0  0  0  0  0  0  0  0  0  0
   39.4390   23.3820   39.0040 C   0  0  0  0  0  0  0  0  0  0  0  0
   38.7290   22.1060   39.3770 C   0  0  0  0  0  0  0  0  0  0  0  0
   37.2240   22.3220   39.3930 C   0  0  0  0  0  0  0  0  0  0  0  0
   36.8890   23.3520   40.4420 C   0  0  0  0  0  0  0  0  0  0  0  0
   40.0980   26.3110   44.0130 H   0  0  0  0  0  0  0  0  0  0  0  0
   39.9790   24.2990   42.4260 H   0  0  0  0  0  0  0  0  0  0  0  0
   37.7390   24.5760   38.3370 H   0  0  0  0  0  0  0  0  0  0  0  0
   39.1150   25.4890   39.1210 H   0  0  0  0  0  0  0  0  0  0  0  0
   39.8840   23.3770   37.9980 H   0  0  0  0  0  0  0  0  0  0  0  0
   40.2780   23.6050   39.7230 H   0  0  0  0  0  0  0  0  0  0  0  0
   39.0170   21.2700   38.7240 H   0  0  0  0  0  0  0  0  0  0  0  0
   39.0530   21.8270   40.4040 H   0  0  0  0  0  0  0  0  0  0  0  0
   36.8710   22.6710   38.4110 H   0  0  0  0  0  0  0  0  0  0  0  0
   36.7450   21.3500   39.5770 H   0  0  0  0  0  0  0  0  0  0  0  0
   36.7970   22.8090   41.4260 H   0  0  0  0  0  0  0  0  0  0  0  0
   35.8750   23.7930   40.2890 H   0  0  0  0  0  0  0  0  0  0  0  0
   38.0190   28.3130   43.4680 C   0  0  0  0  0  0  0  0  0  0  0  0
   38.5720   28.4310   44.4210 H   0  0  0  0  0  0  0  0  0  0  0  0
   36.9310   28.2910   43.7630 H   0  0  0  0  0  0  0  0  0  0  0  0
   37.4640   29.9010   41.6600 C   0  0  0  0  0  3  0  0  0  0  0  0
   38.3290   29.4320   42.5470 C   0  0  0  0  0  3  0  0  0  0  0  0
   37.8940   31.0130   40.8060 C   0  0  0  0  0  0  0  0  0  0  0  0
   37.0370   32.0890   40.5070 C   0  0  0  0  0  0  0  0  0  0  0  0
   37.5260   33.0970   39.6900 C   0  0  0  0  0  0  0  0  0  0  0  0
   38.7840   33.0160   39.2190 N   0  0  0  0  0  0  0  0  0  0  0  0
   39.6000   31.9620   39.5220 C   0  0  0  0  0  0  0  0  0  0  0  0
   39.1560   30.9950   40.2940 N   0  0  0  0  0  0  0  0  0  0  0  0
   36.0410   32.1030   40.9100 H   0  0  0  0  0  0  0  0  0  0  0  0
   36.8970   33.9410   39.4370 H   0  0  0  0  0  0  0  0  0  0  0  0
   41.0160   32.5770   37.5750 C   0  0  1  0  0  3  0  0  0  0  0  0
   40.9740   31.9560   38.9560 C   0  0  2  0  0  3  0  0  0  0  0  0
   41.4080   30.5560   38.6480 C   0  0  0  0  0  3  0  0  0  0  0  0
   41.8520   30.0370   39.5330 H   0  0  0  0  0  0  0  0  0  0  0  0
   42.2800   30.6110   37.5740 O   0  0  0  0  0  0  0  0  0  0  0  0
   42.2300   31.8600   37.0030 C   0  0  0  0  0  3  0  0  0  0  0  0
   42.2180   31.8440   35.8970 H   0  0  0  0  0  0  0  0  0  0  0  0
   39.9090   32.2190   36.8110 O   0  0  0  0  0  0  0  0  0  0  0  0
   39.9550   31.2550   36.5790 H   0  0  0  0  0  0  0  0  0  0  0  0
  1  2  2  0  0  0  0
  1 24  1  0  0  0  0
  2 12  1  0  0  0  0
  3 13  1  0  0  0  0
  3  2  1  0  0  0  0
  4  5  2  0  0  0  0
  4  3  1  0  0  0  0
  5  1  1  0  0  0  0
  6  4  1  0  0  0  0
  7  6  1  0  0  0  0
  8  7  1  0  0  0  0
  8  9  1  0  0  0  0
  8 17  1  0  0  0  0
  9 10  1  0  0  0  0
  9 19  1  0  0  0  0
 10 21  1  0  0  0  0
 10 11  1  0  0  0  0
 11  6  1  0  0  0  0
 11 22  1  0  0  0  0
 14  7  1  0  0  0  0
 15  7  1  0  0  0  0
 16  8  1  0  0  0  0
 18  9  1  0  0  0  0
 20 10  1  0  0  0  0
 23 11  1  0  0  0  0
 24 26  1  0  0  0  0
 24 25  1  0  0  0  0
 27 28  2  0  0  0  0
 28 24  1  0  0  0  0
 29 27  1  0  0  0  0
 30 29  1  0  0  0  0
 30 35  1  0  0  0  0
 31 30  2  0  0  0  0
 32 33  2  0  0  0  0
 32 31  1  0  0  0  0
 33 34  1  0  0  0  0
 34 29  2  0  0  0  0
 36 31  1  0  0  0  0
 37 44  1  6  0  0  0
 37 38  1  0  0  0  0
 38 33  1  6  0  0  0
 39 38  1  0  0  0  0
 39 40  1  0  0  0  0
 41 39  1  0  0  0  0
 42 41  1  0  0  0  0
 42 37  1  0  0  0  0
 43 42  1  0  0  0  0
 45 44  1  0  0  0  0
M  END
>  <minimizedAffinity>
-5.87259388

$$$$

 OpenBabel03252504433D

 45 48  0  0  1  0  0  0  0  0999 V2000
   38.5600   33.2580   39.8010 C   0  0  0  0  0  0  0  0  0  0  0  0
   38.7430   34.3480   40.6020 C   0  0  0  0  0  0  0  0  0  0  0  0
   40.0130   34.3170   41.0140 N   0  0  0  0  0  0  0  0  0  0  0  0
   40.6490   33.2580   40.5150 C   0  0  0  0  0  0  0  0  0  0  0  0
   39.7360   32.5980   39.7550 N   0  0  0  0  0  0  0  0  0  0  0  0
   41.9860   32.8060   40.6640 N   0  0  0  0  0  0  0  0  0  0  0  0
   42.9970   33.3160   39.7270 C   0  0  0  0  0  0  0  0  0  0  0  0
   43.7900   34.3380   40.5380 C   0  0  0  0  0  0  0  0  0  0  0  0
   44.1910   33.7450   41.8640 C   0  0  0  0  0  0  0  0  0  0  0  0
   44.0380   32.2320   41.8360 C   0  0  0  0  0  0  0  0  0  0  0  0
   42.5880   31.8920   41.6040 C   0  0  0  0  0  0  0  0  0  0  0  0
   38.0090   35.0990   40.8600 H   0  0  0  0  0  0  0  0  0  0  0  0
   40.4510   35.0250   41.6430 H   0  0  0  0  0  0  0  0  0  0  0  0
   43.6510   32.5200   39.3410 H   0  0  0  0  0  0  0  0  0  0  0  0
   42.5060   33.8740   38.8970 H   0  0  0  0  0  0  0  0  0  0  0  0
   44.6310   34.7190   39.9390 H   0  0  0  0  0  0  0  0  0  0  0  0
   43.0810   35.2030   40.6780 H   0  0  0  0  0  0  0  0  0  0  0  0
   45.2040   34.0500   42.1620 H   0  0  0  0  0  0  0  0  0  0  0  0
   43.5020   34.1510   42.6380 H   0  0  0  0  0  0  0  0  0  0  0  0
   44.6500   31.7950   41.0330 H   0  0  0  0  0  0  0  0  0  0  0  0
   44.4270   31.8360   42.7850 H   0  0  0  0  0  0  0  0  0  0  0  0
   42.0780   31.8990   42.6110 H   0  0  0  0  0  0  0  0  0  0  0  0
   42.4550   30.8410   41.2500 H   0  0  0  0  0  0  0  0  0  0  0  0
   37.3110   32.8540   39.1010 C   0  0  0  0  0  0  0  0  0  0  0  0
   37.3980   33.0970   38.0230 H   0  0  0  0  0  0  0  0  0  0  0  0
   36.4640   33.4950   39.4770 H   0  0  0  0  0  0  0  0  0  0  0  0
   36.8530   30.5730   38.2750 C   0  0  0  0  0  3  0  0  0  0  0  0
   37.0460   31.4070   39.2850 C   0  0  0  0  0  3  0  0  0  0  0  0
   36.5990   29.1630   38.5900 C   0  0  0  0  0  0  0  0  0  0  0  0
   36.0140   28.2890   37.6530 C   0  0  0  0  0  0  0  0  0  0  0  0
   35.8100   26.9720   38.0360 C   0  0  0  0  0  0  0  0  0  0  0  0
   36.1730   26.5790   39.2700 N   0  0  0  0  0  0  0  0  0  0  0  0
   36.7400   27.4430   40.1650 C   0  0  0  0  0  0  0  0  0  0  0  0
   36.9410   28.6960   39.8220 N   0  0  0  0  0  0  0  0  0  0  0  0
   35.7440   28.6580   36.6800 H   0  0  0  0  0  0  0  0  0  0  0  0
   35.3630   26.2710   37.3440 H   0  0  0  0  0  0  0  0  0  0  0  0
   36.6830   27.8620   42.6140 C   0  0  1  0  0  3  0  0  0  0  0  0
   37.1080   26.9200   41.5060 C   0  0  2  0  0  3  0  0  0  0  0  0
   38.5960   26.9310   41.6830 C   0  0  0  0  0  3  0  0  0  0  0  0
   39.0860   26.0130   41.2740 H   0  0  0  0  0  0  0  0  0  0  0  0
   38.8590   27.1180   43.0300 O   0  0  0  0  0  0  0  0  0  0  0  0
   37.7080   27.4950   43.6770 C   0  0  0  0  0  3  0  0  0  0  0  0
   37.8550   28.3100   44.4100 H   0  0  0  0  0  0  0  0  0  0  0  0
   36.8870   29.1950   42.2680 O   0  0  0  0  0  0  0  0  0  0  0  0
   37.8590   29.3890   42.2260 H   0  0  0  0  0  0  0  0  0  0  0  0
  1  2  2  0  0  0  0
  2 12  1  0  0  0  0
  2  3  1  0  0  0  0
  3 13  1  0  0  0  0
  4  6  1  0  0  0  0
  4  3  1  0  0  0  0
  5  1  1  0  0  0  0
  5  4  2  0  0  0  0
  6 11  1  0  0  0  0
  7  8  1  0  0  0  0
  7  6  1  0  0  0  0
  8 17  1  0  0  0  0
  8  9  1  0  0  0  0
  9 18  1  0  0  0  0
  9 19  1  0  0  0  0
 10  9  1  0  0  0  0
 10 21  1  0  0  0  0
 11 10  1  0  0  0  0
 11 22  1  0  0  0  0
 14  7  1  0  0  0  0
 15  7  1  0  0  0  0
 16  8  1  0  0  0  0
 20 10  1  0  0  0  0
 23 11  1  0  0  0  0
 24 28  1  0  0  0  0
 24 26  1  0  0  0  0
 24  1  1  0  0  0  0
 25 24  1  0  0  0  0
 27 29  1  0  0  0  0
 27 28  2  0  0  0  0
 29 34  1  0  0  0  0
 30 31  1  0  0  0  0
 30 29  2  0  0  0  0
 31 32  2  0  0  0  0
 32 33  1  0  0  0  0
 34 33  2  0  0  0  0
 35 30  1  0  0  0  0
 36 31  1  0  0  0  0
 37 44  1  6  0  0  0
 37 42  1  0  0  0  0
 38 33  1  6  0  0  0
 38 39  1  0  0  0  0
 38 37  1  0  0  0  0
 39 41  1  0  0  0  0
 40 39  1  0  0  0  0
 41 42  1  0  0  0  0
 42 43  1  0  0  0  0
 45 44  1  0  0  0  0
M  END
>  <minimizedAffinity>
-5.8454113

$$$$

 OpenBabel03252504433D

 45 48  0  0  1  0  0  0  0  0999 V2000
   36.9420   30.7530   39.9950 C   0  0  0  0  0  0  0  0  0  0  0  0
   36.1060   30.5890   41.0620 C   0  0  0  0  0  0  0  0  0  0  0  0
   36.1750   29.3020   41.4140 N   0  0  0  0  0  0  0  0  0  0  0  0
   37.0140   28.6370   40.6210 C   0  0  0  0  0  0  0  0  0  0  0  0
   37.4920   29.5490   39.7350 N   0  0  0  0  0  0  0  0  0  0  0  0
   37.4110   27.2740   40.6010 N   0  0  0  0  0  0  0  0  0  0  0  0
   38.5580   26.8770   41.4290 C   0  0  0  0  0  0  0  0  0  0  0  0
   37.9370   26.1510   42.6210 C   0  0  0  0  0  0  0  0  0  0  0  0
   36.9380   25.1320   42.1400 C   0  0  0  0  0  0  0  0  0  0  0  0
   37.1300   24.8600   40.6560 C   0  0  0  0  0  0  0  0  0  0  0  0
   36.8850   26.1350   39.8890 C   0  0  0  0  0  0  0  0  0  0  0  0
   35.5010   31.3470   41.5400 H   0  0  0  0  0  0  0  0  0  0  0  0
   35.6440   28.8720   42.2020 H   0  0  0  0  0  0  0  0  0  0  0  0
   39.2610   26.2260   40.8890 H   0  0  0  0  0  0  0  0  0  0  0  0
   39.0720   27.7780   41.8340 H   0  0  0  0  0  0  0  0  0  0  0  0
   38.7310   25.7400   43.2630 H   0  0  0  0  0  0  0  0  0  0  0  0
   37.4340   26.9640   43.2180 H   0  0  0  0  0  0  0  0  0  0  0  0
   36.9730   24.2080   42.7350 H   0  0  0  0  0  0  0  0  0  0  0  0
   35.9210   25.5590   42.2870 H   0  0  0  0  0  0  0  0  0  0  0  0
   38.1520   24.5020   40.4560 H   0  0  0  0  0  0  0  0  0  0  0  0
   36.4470   24.0470   40.3700 H   0  0  0  0  0  0  0  0  0  0  0  0
   35.7750   26.2060   39.7070 H   0  0  0  0  0  0  0  0  0  0  0  0
   37.3190   26.0960   38.8620 H   0  0  0  0  0  0  0  0  0  0  0  0
   37.2100   32.0100   39.2460 C   0  0  0  0  0  0  0  0  0  0  0  0
   36.6630   32.8470   39.7240 H   0  0  0  0  0  0  0  0  0  0  0  0
   36.7610   31.9180   38.2160 H   0  0  0  0  0  0  0  0  0  0  0  0
   39.3060   32.9260   40.1760 C   0  0  0  0  0  3  0  0  0  0  0  0
   38.6630   32.2990   39.2020 C   0  0  0  0  0  3  0  0  0  0  0  0
   40.7450   33.1520   40.0120 C   0  0  0  0  0  0  0  0  0  0  0  0
   41.4080   34.2070   40.6690 C   0  0  0  0  0  0  0  0  0  0  0  0
   42.7710   34.3470   40.4560 C   0  0  0  0  0  0  0  0  0  0  0  0
   43.4050   33.4840   39.6410 N   0  0  0  0  0  0  0  0  0  0  0  0
   42.7430   32.4670   39.0120 C   0  0  0  0  0  0  0  0  0  0  0  0
   41.4510   32.3170   39.2000 N   0  0  0  0  0  0  0  0  0  0  0  0
   40.8510   34.8670   41.3090 H   0  0  0  0  0  0  0  0  0  0  0  0
   43.3150   35.1450   40.9440 H   0  0  0  0  0  0  0  0  0  0  0  0
   44.6130   32.3090   37.3840 C   0  0  1  0  0  3  0  0  0  0  0  0
   43.5260   31.5630   38.1300 C   0  0  2  0  0  3  0  0  0  0  0  0
   42.6810   31.0830   36.9900 C   0  0  0  0  0  3  0  0  0  0  0  0
   42.0760   30.1800   37.2510 H   0  0  0  0  0  0  0  0  0  0  0  0
   43.5170   30.8660   35.9070 O   0  0  0  0  0  0  0  0  0  0  0  0
   44.7510   31.4140   36.1600 C   0  0  0  0  0  3  0  0  0  0  0  0
   45.1840   31.9550   35.2980 H   0  0  0  0  0  0  0  0  0  0  0  0
   44.1820   33.5600   36.9510 O   0  0  0  0  0  0  0  0  0  0  0  0
   43.5060   33.4550   36.2320 H   0  0  0  0  0  0  0  0  0  0  0  0
  1  2  2  0  0  0  0
  2  3  1  0  0  0  0
  2 12  1  0  0  0  0
  3 13  1  0  0  0  0
  4  3  1  0  0  0  0
  5  1  1  0  0  0  0
  5  4  2  0  0  0  0
  6  4  1  0  0  0  0
  6  7  1  0  0  0  0
  7 15  1  0  0  0  0
  7  8  1  0  0  0  0
  8 17  1  0  0  0  0
  8 16  1  0  0  0  0
  9 19  1  0  0  0  0
  9  8  1  0  0  0  0
  9 18  1  0  0  0  0
 10  9  1  0  0  0  0
 11  6  1  0  0  0  0
 11 10  1  0  0  0  0
 14  7  1  0  0  0  0
 20 10  1  0  0  0  0
 21 10  1  0  0  0  0
 22 11  1  0  0  0  0
 23 11  1  0  0  0  0
 24 25  1  0  0  0  0
 24  1  1  0  0  0  0
 26 24  1  0  0  0  0
 28 24  1  0  0  0  0
 28 27  2  0  0  0  0
 29 27  1  0  0  0  0
 29 30  1  0  0  0  0
 30 35  1  0  0  0  0
 31 30  2  0  0  0  0
 31 36  1  0  0  0  0
 32 31  1  0  0  0  0
 33 34  1  0  0  0  0
 33 32  2  0  0  0  0
 34 29  2  0  0  0  0
 37 44  1  6  0  0  0
 37 38  1  0  0  0  0
 38 33  1  1  0  0  0
 39 40  1  0  0  0  0
 39 38  1  0  0  0  0
 41 42  1  0  0  0  0
 41 39  1  0  0  0  0
 42 37  1  0  0  0  0
 43 42  1  0  0  0  0
 45 44  1  0  0  0  0
M  END
>  <minimizedAffinity>
-5.81778288

$$$$

 OpenBabel03252504433D

 45 48  0  0  1  0  0  0  0  0999 V2000
   37.3370   31.6990   40.3660 C   0  0  0  0  0  0  0  0  0  0  0  0
   36.2060   31.0250   40.0070 C   0  0  0  0  0  0  0  0  0  0  0  0
   36.2720   29.8220   40.5840 N   0  0  0  0  0  0  0  0  0  0  0  0
   37.3930   29.6960   41.2930 C   0  0  0  0  0  0  0  0  0  0  0  0
   38.0570   30.8730   41.1540 N   0  0  0  0  0  0  0  0  0  0  0  0
   37.9010   28.6220   42.0700 N   0  0  0  0  0  0  0  0  0  0  0  0
   37.5070   28.5450   43.4840 C   0  0  0  0  0  0  0  0  0  0  0  0
   36.4730   27.4230   43.5340 C   0  0  0  0  0  0  0  0  0  0  0  0
   36.9930   26.2100   42.8070 C   0  0  0  0  0  0  0  0  0  0  0  0
   38.4950   26.3230   42.5940 C   0  0  0  0  0  0  0  0  0  0  0  0
   38.7780   27.5270   41.7320 C   0  0  0  0  0  0  0  0  0  0  0  0
   35.4030   31.3840   39.3790 H   0  0  0  0  0  0  0  0  0  0  0  0
   35.5460   29.0780   40.4940 H   0  0  0  0  0  0  0  0  0  0  0  0
   38.3590   28.3310   44.1460 H   0  0  0  0  0  0  0  0  0  0  0  0
   36.9830   29.4800   43.7890 H   0  0  0  0  0  0  0  0  0  0  0  0
   36.1760   27.2340   44.5770 H   0  0  0  0  0  0  0  0  0  0  0  0
   35.5660   27.8480   43.0170 H   0  0  0  0  0  0  0  0  0  0  0  0
   36.7200   25.2750   43.3170 H   0  0  0  0  0  0  0  0  0  0  0  0
   36.5010   26.1770   41.8090 H   0  0  0  0  0  0  0  0  0  0  0  0
   39.0170   26.4310   43.5580 H   0  0  0  0  0  0  0  0  0  0  0  0
   38.8440   25.3810   42.1470 H   0  0  0  0  0  0  0  0  0  0  0  0
   38.6750   27.1990   40.6580 H   0  0  0  0  0  0  0  0  0  0  0  0
   39.8420   27.8560   41.8070 H   0  0  0  0  0  0  0  0  0  0  0  0
   37.7250   33.0800   39.9740 C   0  0  0  0  0  0  0  0  0  0  0  0
   37.4280   33.7870   40.7740 H   0  0  0  0  0  0  0  0  0  0  0  0
   37.1160   33.3840   39.0750 H   0  0  0  0  0  0  0  0  0  0  0  0
   40.0200   33.8000   40.5300 C   0  0  0  0  0  3  0  0  0  0  0  0
   39.1830   33.1690   39.7210 C   0  0  0  0  0  3  0  0  0  0  0  0
   41.4410   33.8160   40.1680 C   0  0  0  0  0  0  0  0  0  0  0  0
   42.4190   34.3490   41.0310 C   0  0  0  0  0  0  0  0  0  0  0  0
   43.7390   34.3240   40.6070 C   0  0  0  0  0  0  0  0  0  0  0  0
   44.0380   33.7980   39.4050 N   0  0  0  0  0  0  0  0  0  0  0  0
   43.0740   33.2850   38.5820 C   0  0  0  0  0  0  0  0  0  0  0  0
   41.8160   33.3000   38.9640 N   0  0  0  0  0  0  0  0  0  0  0  0
   42.1240   34.7560   41.9800 H   0  0  0  0  0  0  0  0  0  0  0  0
   44.5190   34.7240   41.2420 H   0  0  0  0  0  0  0  0  0  0  0  0
   42.8500   31.3830   36.9980 C   0  0  1  0  0  3  0  0  0  0  0  0
   43.4970   32.7260   37.2720 C   0  0  2  0  0  3  0  0  0  0  0  0
   44.9430   32.3380   37.3100 C   0  0  0  0  0  3  0  0  0  0  0  0
   45.6250   33.1940   37.0790 H   0  0  0  0  0  0  0  0  0  0  0  0
   45.1170   31.2720   36.4430 O   0  0  0  0  0  0  0  0  0  0  0  0
   43.8920   30.7750   36.0710 C   0  0  0  0  0  3  0  0  0  0  0  0
   43.8440   29.6700   36.0620 H   0  0  0  0  0  0  0  0  0  0  0  0
   42.7860   30.5950   38.1440 O   0  0  0  0  0  0  0  0  0  0  0  0
   43.6990   30.3070   38.4080 H   0  0  0  0  0  0  0  0  0  0  0  0
  1  5  1  0  0  0  0
  2  1  2  0  0  0  0
  2  3  1  0  0  0  0
  3  4  1  0  0  0  0
  4  6  1  0  0  0  0
  5  4  2  0  0  0  0
  6  7  1  0  0  0  0
  7  8  1  0  0  0  0
  7 15  1  0  0  0  0
  7 14  1  0  0  0  0
  8 16  1  0  0  0  0
  9 18  1  0  0  0  0
  9  8  1  0  0  0  0
 10  9  1  0  0  0  0
 10 20  1  0  0  0  0
 11 23  1  0  0  0  0
 11  6  1  0  0  0  0
 11 10  1  0  0  0  0
 12  2  1  0  0  0  0
 13  3  1  0  0  0  0
 17  8  1  0  0  0  0
 19  9  1  0  0  0  0
 21 10  1  0  0  0  0
 22 11  1  0  0  0  0
 24  1  1  0  0  0  0
 24 25  1  0  0  0  0
 26 24  1  0  0  0  0
 28 24  1  0  0  0  0
 28 27  2  0  0  0  0
 29 27  1  0  0  0  0
 29 30  1  0  0  0  0
 30 35  1  0  0  0  0
 31 30  2  0  0  0  0
 31 36  1  0  0  0  0
 32 31  1  0  0  0  0
 33 34  1  0  0  0  0
 33 32  2  0  0  0  0
 34 29  2  0  0  0  0
 37 38  1  0  0  0  0
 37 44  1  1  0  0  0
 38 39  1  0  0  0  0
 38 33  1  1  0  0  0
 40 39  1  0  0  0  0
 41 39  1  0  0  0  0
 42 41  1  0  0  0  0
 42 37  1  0  0  0  0
 43 42  1  0  0  0  0
 44 45  1  0  0  0  0
M  END
>  <minimizedAffinity>
-5.81614685

$$$$

 OpenBabel03252504433D

 45 48  0  0  1  0  0  0  0  0999 V2000
   38.0460   28.1540   42.6500 C   0  0  0  0  0  0  0  0  0  0  0  0
   36.7740   28.6440   42.7260 C   0  0  0  0  0  0  0  0  0  0  0  0
   36.7570   29.7860   42.0330 N   0  0  0  0  0  0  0  0  0  0  0  0
   37.9590   30.0480   41.5200 C   0  0  0  0  0  0  0  0  0  0  0  0
   38.7620   29.0240   41.9080 N   0  0  0  0  0  0  0  0  0  0  0  0
   38.4280   31.1260   40.7240 N   0  0  0  0  0  0  0  0  0  0  0  0
   38.3050   31.0110   39.2650 C   0  0  0  0  0  0  0  0  0  0  0  0
   37.1350   31.9240   38.9050 C   0  0  0  0  0  0  0  0  0  0  0  0
   37.3070   33.2670   39.5660 C   0  0  0  0  0  0  0  0  0  0  0  0
   38.7390   33.4410   40.0480 C   0  0  0  0  0  0  0  0  0  0  0  0
   39.0390   32.3840   41.0800 C   0  0  0  0  0  0  0  0  0  0  0  0
   35.9330   28.2020   43.2430 H   0  0  0  0  0  0  0  0  0  0  0  0
   35.9190   30.3940   41.9100 H   0  0  0  0  0  0  0  0  0  0  0  0
   39.2230   31.3160   38.7400 H   0  0  0  0  0  0  0  0  0  0  0  0
   38.0040   29.9760   38.9830 H   0  0  0  0  0  0  0  0  0  0  0  0
   37.0160   31.9670   37.8120 H   0  0  0  0  0  0  0  0  0  0  0  0
   36.2250   31.3890   39.3030 H   0  0  0  0  0  0  0  0  0  0  0  0
   36.9910   34.0910   38.9110 H   0  0  0  0  0  0  0  0  0  0  0  0
   36.6350   33.2970   40.4530 H   0  0  0  0  0  0  0  0  0  0  0  0
   39.4450   33.3460   39.2090 H   0  0  0  0  0  0  0  0  0  0  0  0
   38.8420   34.4640   40.4370 H   0  0  0  0  0  0  0  0  0  0  0  0
   38.6830   32.7780   42.0750 H   0  0  0  0  0  0  0  0  0  0  0  0
   40.1360   32.2430   41.2300 H   0  0  0  0  0  0  0  0  0  0  0  0
   38.5660   26.9010   43.2610 C   0  0  0  0  0  0  0  0  0  0  0  0
   38.0140   26.6920   44.1990 H   0  0  0  0  0  0  0  0  0  0  0  0
   39.6330   27.0740   43.5830 H   0  0  0  0  0  0  0  0  0  0  0  0
   37.2820   25.1840   42.0380 C   0  0  0  0  0  3  0  0  0  0  0  0
   38.4390   25.7620   42.3220 C   0  0  0  0  0  3  0  0  0  0  0  0
   37.2890   24.0640   41.0910 C   0  0  0  0  0  0  0  0  0  0  0  0
   38.4400   23.2800   40.8820 C   0  0  0  0  0  0  0  0  0  0  0  0
   38.3580   22.2410   39.9670 C   0  0  0  0  0  0  0  0  0  0  0  0
   37.1990   22.0200   39.3200 N   0  0  0  0  0  0  0  0  0  0  0  0
   36.0930   22.7940   39.5370 C   0  0  0  0  0  0  0  0  0  0  0  0
   36.1500   23.7830   40.3990 N   0  0  0  0  0  0  0  0  0  0  0  0
   39.3390   23.5010   41.4270 H   0  0  0  0  0  0  0  0  0  0  0  0
   39.2210   21.6160   39.7800 H   0  0  0  0  0  0  0  0  0  0  0  0
   34.6280   23.4540   37.6420 C   0  0  1  0  0  3  0  0  0  0  0  0
   34.8570   22.4760   38.7760 C   0  0  2  0  0  3  0  0  0  0  0  0
   33.6430   22.7320   39.6170 C   0  0  0  0  0  3  0  0  0  0  0  0
   33.3760   21.8610   40.2660 H   0  0  0  0  0  0  0  0  0  0  0  0
   32.6110   23.0960   38.7680 O   0  0  0  0  0  0  0  0  0  0  0  0
   33.1140   23.3600   37.5170 C   0  0  0  0  0  3  0  0  0  0  0  0
   32.6800   24.2610   37.0440 H   0  0  0  0  0  0  0  0  0  0  0  0
   34.9450   24.7580   38.0090 O   0  0  0  0  0  0  0  0  0  0  0  0
   34.2880   25.0930   38.6740 H   0  0  0  0  0  0  0  0  0  0  0  0
  1  2  2  0  0  0  0
  1 24  1  0  0  0  0
  2 12  1  0  0  0  0
  3  2  1  0  0  0  0
  4  5  2  0  0  0  0
  4  3  1  0  0  0  0
  5  1  1  0  0  0  0
  6 11  1  0  0  0  0
  6  4  1  0  0  0  0
  7  6  1  0  0  0  0
  8  7  1  0  0  0  0
  8 17  1  0  0  0  0
  8  9  1  0  0  0  0
  9 10  1  0  0  0  0
  9 19  1  0  0  0  0
 10 21  1  0  0  0  0
 10 11  1  0  0  0  0
 11 23  1  0  0  0  0
 11 22  1  0  0  0  0
 13  3  1  0  0  0  0
 14  7  1  0  0  0  0
 15  7  1  0  0  0  0
 16  8  1  0  0  0  0
 18  9  1  0  0  0  0
 20 10  1  0  0  0  0
 24 26  1  0  0  0  0
 24 25  1  0  0  0  0
 27 28  2  0  0  0  0
 28 24  1  0  0  0  0
 29 27  1  0  0  0  0
 30 29  1  0  0  0  0
 30 35  1  0  0  0  0
 31 30  2  0  0  0  0
 32 33  2  0  0  0  0
 32 31  1  0  0  0  0
 33 34  1  0  0  0  0
 34 29  2  0  0  0  0
 36 31  1  0  0  0  0
 37 44  1  1  0  0  0
 37 38  1  0  0  0  0
 38 33  1  1  0  0  0
 38 39  1  0  0  0  0
 39 40  1  0  0  0  0
 41 39  1  0  0  0  0
 42 37  1  0  0  0  0
 42 41  1  0  0  0  0
 43 42  1  0  0  0  0
 44 45  1  0  0  0  0
M  END
>  <minimizedAffinity>
-5.77745295

$$$$

 OpenBabel03252504433D

 45 48  0  0  1  0  0  0  0  0999 V2000
   39.7770   27.7650   42.6850 C   0  0  0  0  0  0  0  0  0  0  0  0
   38.8740   27.2480   43.5690 C   0  0  0  0  0  0  0  0  0  0  0  0
   38.0780   26.4290   42.8750 N   0  0  0  0  0  0  0  0  0  0  0  0
   38.4300   26.3990   41.5910 C   0  0  0  0  0  0  0  0  0  0  0  0
   39.4940   27.2360   41.4760 N   0  0  0  0  0  0  0  0  0  0  0  0
   37.8950   25.6900   40.4830 N   0  0  0  0  0  0  0  0  0  0  0  0
   38.4120   24.3420   40.2120 C   0  0  0  0  0  0  0  0  0  0  0  0
   37.3080   23.4040   40.6950 C   0  0  0  0  0  0  0  0  0  0  0  0
   35.9770   23.8490   40.1490 C   0  0  0  0  0  0  0  0  0  0  0  0
   36.1750   24.8240   38.9990 C   0  0  0  0  0  0  0  0  0  0  0  0
   36.8890   26.0480   39.5130 C   0  0  0  0  0  0  0  0  0  0  0  0
   38.8050   27.4530   44.6280 H   0  0  0  0  0  0  0  0  0  0  0  0
   37.2860   25.8850   43.2810 H   0  0  0  0  0  0  0  0  0  0  0  0
   38.6310   24.1820   39.1450 H   0  0  0  0  0  0  0  0  0  0  0  0
   39.3070   24.1380   40.8420 H   0  0  0  0  0  0  0  0  0  0  0  0
   37.5720   22.3620   40.4570 H   0  0  0  0  0  0  0  0  0  0  0  0
   37.3350   23.4890   41.8190 H   0  0  0  0  0  0  0  0  0  0  0  0
   35.3450   22.9970   39.8610 H   0  0  0  0  0  0  0  0  0  0  0  0
   35.4360   24.3780   40.9650 H   0  0  0  0  0  0  0  0  0  0  0  0
   36.7710   24.3620   38.1960 H   0  0  0  0  0  0  0  0  0  0  0  0
   35.1870   25.0490   38.5720 H   0  0  0  0  0  0  0  0  0  0  0  0
   36.1030   26.7410   39.9320 H   0  0  0  0  0  0  0  0  0  0  0  0
   37.3510   26.6420   38.6890 H   0  0  0  0  0  0  0  0  0  0  0  0
   40.8720   28.7280   42.9760 C   0  0  0  0  0  0  0  0  0  0  0  0
   41.8500   28.2410   42.7870 H   0  0  0  0  0  0  0  0  0  0  0  0
   40.8680   28.9540   44.0810 H   0  0  0  0  0  0  0  0  0  0  0  0
   39.6570   30.7210   42.1730 C   0  0  0  0  0  3  0  0  0  0  0  0
   40.7340   29.9510   42.1510 C   0  0  0  0  0  3  0  0  0  0  0  0
   39.6430   31.9050   41.3080 C   0  0  0  0  0  0  0  0  0  0  0  0
   38.4450   32.5670   40.9790 C   0  0  0  0  0  0  0  0  0  0  0  0
   38.5250   33.6790   40.1530 C   0  0  0  0  0  0  0  0  0  0  0  0
   39.7270   34.0820   39.7020 N   0  0  0  0  0  0  0  0  0  0  0  0
   40.8790   33.4250   40.0340 C   0  0  0  0  0  0  0  0  0  0  0  0
   40.8250   32.3690   40.8140 N   0  0  0  0  0  0  0  0  0  0  0  0
   37.5120   32.2010   41.3680 H   0  0  0  0  0  0  0  0  0  0  0  0
   37.6260   34.2140   39.8780 H   0  0  0  0  0  0  0  0  0  0  0  0
   42.0430   34.3040   38.0220 C   0  0  1  0  0  3  0  0  0  0  0  0
   42.1610   33.9420   39.4880 C   0  0  2  0  0  3  0  0  0  0  0  0
   43.1830   32.8480   39.4260 C   0  0  0  0  0  3  0  0  0  0  0  0
   43.7340   32.7170   40.3900 H   0  0  0  0  0  0  0  0  0  0  0  0
   44.0290   33.1220   38.3640 O   0  0  0  0  0  0  0  0  0  0  0  0
   43.4900   34.1190   37.5890 C   0  0  0  0  0  3  0  0  0  0  0  0
   43.5770   33.9350   36.5020 H   0  0  0  0  0  0  0  0  0  0  0  0
   41.2670   33.3840   37.3210 O   0  0  0  0  0  0  0  0  0  0  0  0
   41.7460   32.5170   37.2560 H   0  0  0  0  0  0  0  0  0  0  0  0
  1 24  1  0  0  0  0
  1  2  2  0  0  0  0
  2 12  1  0  0  0  0
  3 13  1  0  0  0  0
  3  2  1  0  0  0  0
  4  3  1  0  0  0  0
  5  4  2  0  0  0  0
  5  1  1  0  0  0  0
  6  4  1  0  0  0  0
  7  6  1  0  0  0  0
  7  8  1  0  0  0  0
  7 15  1  0  0  0  0
  8 17  1  0  0  0  0
  9  8  1  0  0  0  0
  9 19  1  0  0  0  0
 10 11  1  0  0  0  0
 10  9  1  0  0  0  0
 11 22  1  0  0  0  0
 11  6  1  0  0  0  0
 14  7  1  0  0  0  0
 16  8  1  0  0  0  0
 18  9  1  0  0  0  0
 20 10  1  0  0  0  0
 21 10  1  0  0  0  0
 23 11  1  0  0  0  0
 24 26  1  0  0  0  0
 25 24  1  0  0  0  0
 28 27  2  0  0  0  0
 28 24  1  0  0  0  0
 29 27  1  0  0  0  0
 30 29  1  0  0  0  0
 30 35  1  0  0  0  0
 31 30  2  0  0  0  0
 32 33  2  0  0  0  0
 32 31  1  0  0  0  0
 33 34  1  0  0  0  0
 34 29  2  0  0  0  0
 36 31  1  0  0  0  0
 37 44  1  6  0  0  0
 37 38  1  0  0  0  0
 38 33  1  6  0  0  0
 39 38  1  0  0  0  0
 39 40  1  0  0  0  0
 41 39  1  0  0  0  0
 42 37  1  0  0  0  0
 42 41  1  0  0  0  0
 43 42  1  0  0  0  0
 45 44  1  0  0  0  0
M  END
>  <minimizedAffinity>
-5.7200079

$$$$
