
 OpenBabel03252509043D

 48 50  0  0  1  0  0  0  0  0999 V2000
   46.5640   34.5560   43.5910 N   0  0  0  0  0  0  0  0  0  0  0  0
   46.0810   35.5490   42.7110 C   0  0  0  0  0  0  0  0  0  0  0  0
   44.5660   35.6880   42.7020 C   0  0  0  0  0  0  0  0  0  0  0  0
   43.9280   35.4570   44.0510 C   0  0  0  0  0  0  0  0  0  0  0  0
   44.9680   35.2140   45.1290 C   0  0  0  0  0  0  0  0  0  0  0  0
   45.7860   33.9820   44.5650 C   0  0  2  0  0  0  0  0  0  0  0  0
   46.3810   35.4530   41.6630 H   0  0  0  0  0  0  0  0  0  0  0  0
   46.4810   36.5290   43.0500 H   0  0  0  0  0  0  0  0  0  0  0  0
   44.3300   36.6860   42.2790 H   0  0  0  0  0  0  0  0  0  0  0  0
   44.1840   34.9380   41.9690 H   0  0  0  0  0  0  0  0  0  0  0  0
   43.2550   34.5840   44.0240 H   0  0  0  0  0  0  0  0  0  0  0  0
   43.3210   36.3250   44.3710 H   0  0  0  0  0  0  0  0  0  0  0  0
   45.6540   36.0470   45.2690 H   0  0  0  0  0  0  0  0  0  0  0  0
   44.4310   34.8680   46.0260 H   0  0  0  0  0  0  0  0  0  0  0  0
   45.0420   33.2230   44.2530 H   0  0  0  0  0  0  0  0  0  0  0  0
   47.6930   33.8160   43.0850 C   0  0  0  0  0  0  0  0  0  0  0  0
   48.1670   33.3170   43.9810 H   0  0  0  0  0  0  0  0  0  0  0  0
   48.4240   34.4690   42.5980 H   0  0  0  0  0  0  0  0  0  0  0  0
   47.1790   32.7290   42.2140 C   0  0  0  0  0  0  0  0  0  0  0  0
   47.3520   31.6990   42.5940 H   0  0  0  0  0  0  0  0  0  0  0  0
   46.0640   32.7890   42.0800 H   0  0  0  0  0  0  0  0  0  0  0  0
   49.0740   31.9810   39.0620 C   0  0  0  0  0  0  0  0  0  0  0  0
   48.5280   31.8680   40.3570 C   0  0  0  0  0  0  0  0  0  0  0  0
   47.7390   32.8740   40.8500 C   0  0  0  0  0  0  0  0  0  0  0  0
   47.5260   33.9210   40.0600 N   0  0  0  0  0  0  0  0  0  0  0  0
   48.0340   34.0430   38.8320 C   0  0  0  0  0  0  0  0  0  0  0  0
   48.8180   33.0720   38.3110 N   0  0  0  0  0  0  0  0  0  0  0  0
   49.6880   31.1300   38.7610 H   0  0  0  0  0  0  0  0  0  0  0  0
   48.7220   31.0000   40.9730 H   0  0  0  0  0  0  0  0  0  0  0  0
   47.8560   34.9050   38.1910 H   0  0  0  0  0  0  0  0  0  0  0  0
   46.4940   33.6100   45.6940 O   0  0  0  0  0  0  0  0  0  0  0  0
   45.6330   31.1860   44.9940 O   0  0  0  0  0  0  0  0  0  0  0  0
   46.1810   32.0190   46.1500 P   0  0  2  0  0  0  0  0  0  0  0  0
   44.8950   32.1150   47.2840 O   0  0  0  0  0  0  0  0  0  0  0  0
   45.2560   32.0830   48.2060 H   0  0  0  0  0  0  0  0  0  0  0  0
   47.4780   31.2870   46.9080 O   0  0  0  0  0  0  0  0  0  0  0  0
   47.0280   30.1520   47.5520 C   0  0  0  0  0  0  0  0  0  0  0  0
   45.9440   30.0060   47.2880 H   0  0  0  0  0  0  0  0  0  0  0  0
   47.1300   30.1390   48.6340 H   0  0  0  0  0  0  0  0  0  0  0  0
   50.0350   28.4900   46.7810 C   0  0  2  0  0  3  0  0  0  0  0  0
   48.9840   29.3880   46.1920 C   0  0  0  0  0  3  0  0  0  0  0  0
   49.2050   30.4700   46.2740 H   0  0  0  0  0  0  0  0  0  0  0  0
   47.7310   28.9540   46.8990 C   0  0  1  0  0  3  0  0  0  0  0  0
   48.0650   28.0030   47.8250 O   0  0  0  0  0  0  0  0  0  0  0  0
   49.4140   28.1320   48.1140 C   0  0  0  0  0  3  0  0  0  0  0  0
   49.8130   27.1660   48.5080 H   0  0  0  0  0  0  0  0  0  0  0  0
   51.2070   29.2260   46.9460 O   0  0  0  0  0  0  0  0  0  0  0  0
   50.9390   30.1740   47.1540 H   0  0  0  0  0  0  0  0  0  0  0  0
  1  6  1  0  0  0  0
  2  8  1  0  0  0  0
  2  1  1  0  0  0  0
  3  2  1  0  0  0  0
  3  4  1  0  0  0  0
  4 12  1  0  0  0  0
  4  5  1  0  0  0  0
  5 13  1  0  0  0  0
  5 14  1  0  0  0  0
  6 15  1  6  0  0  0
  6  5  1  0  0  0  0
  6 31  1  0  0  0  0
  7  2  1  0  0  0  0
  9  3  1  0  0  0  0
 10  3  1  0  0  0  0
 11  4  1  0  0  0  0
 16  1  1  0  0  0  0
 16 17  1  0  0  0  0
 18 16  1  0  0  0  0
 19 20  1  0  0  0  0
 19 16  1  0  0  0  0
 21 19  1  0  0  0  0
 22 23  1  0  0  0  0
 23 24  2  0  0  0  0
 23 29  1  0  0  0  0
 24 19  1  0  0  0  0
 25 24  1  0  0  0  0
 26 25  2  0  0  0  0
 27 26  1  0  0  0  0
 27 22  2  0  0  0  0
 28 22  1  0  0  0  0
 30 26  1  0  0  0  0
 31 33  1  0  0  0  0
 33 32  2  6  0  0  0
 33 36  1  0  0  0  0
 33 34  1  0  0  0  0
 34 35  1  0  0  0  0
 36 37  1  0  0  0  0
 37 39  1  0  0  0  0
 38 37  1  0  0  0  0
 40 47  1  1  0  0  0
 40 45  1  0  0  0  0
 41 42  1  0  0  0  0
 41 40  1  0  0  0  0
 41 43  1  0  0  0  0
 43 37  1  1  0  0  0
 43 44  1  0  0  0  0
 44 45  1  0  0  0  0
 45 46  1  0  0  0  0
 47 48  1  0  0  0  0
M  END
>  <minimizedAffinity>
-4.24623489

>  <minimizedRMSD>
1.22473669

$$$$
