
 OpenBabel03252507073D

 24 25  0  0  1  0  0  0  0  0999 V2000
   44.6470   36.0480   44.5490 C   0  0  0  0  0  0  0  0  0  0  0  0
   45.3010   36.0620   43.2940 C   0  0  0  0  0  0  0  0  0  0  0  0
   46.0700   34.9450   42.9710 C   0  0  0  0  0  0  0  0  0  0  0  0
   46.1550   33.9210   43.8500 N   0  0  0  0  0  0  0  0  0  0  0  0
   45.5180   33.9420   45.0370 C   0  0  0  0  0  0  0  0  0  0  0  0
   44.7640   35.0050   45.3840 N   0  0  0  0  0  0  0  0  0  0  0  0
   44.0300   36.8880   44.8630 H   0  0  0  0  0  0  0  0  0  0  0  0
   45.1540   36.9380   42.6830 H   0  0  0  0  0  0  0  0  0  0  0  0
   46.9930   32.3760   46.3170 C   0  0  1  0  0  3  0  0  0  0  0  0
   45.5860   32.8510   46.0160 C   0  0  1  0  0  3  0  0  0  0  0  0
   45.2210   33.3500   47.4200 C   0  0  0  0  0  3  0  0  0  0  0  0
   44.1150   33.3290   47.5080 H   0  0  0  0  0  0  0  0  0  0  0  0
   45.8820   32.5630   48.3170 O   0  0  0  0  0  0  0  0  0  0  0  0
   46.7010   31.6710   47.6410 C   0  0  0  0  0  3  0  0  0  0  0  0
   46.0630   30.7880   47.3800 H   0  0  0  0  0  0  0  0  0  0  0  0
   47.5090   31.5320   45.3610 O   0  0  0  0  0  0  0  0  0  0  0  0
   47.6900   30.6390   45.7510 H   0  0  0  0  0  0  0  0  0  0  0  0
   46.7090   34.9640   41.7410 O   0  0  0  0  0  0  0  0  0  0  0  0
   48.6420   33.3220   40.9700 O   0  0  0  0  0  0  0  0  0  0  0  0
   48.3950   34.6670   41.6530 P   0  0  0  0  0  0  0  0  0  0  0  0
   49.1210   35.9190   40.8310 O   0  0  0  0  0  0  0  0  0  0  0  0
   48.5930   36.7310   40.9500 H   0  0  0  0  0  0  0  0  0  0  0  0
   48.9610   34.5550   43.2480 O   0  0  0  0  0  0  0  0  0  0  0  0
   49.5310   35.3160   43.5010 H   0  0  0  0  0  0  0  0  0  0  0  0
  1  7  1  0  0  0  0
  1  6  1  0  0  0  0
  2  1  2  0  0  0  0
  3  2  1  0  0  0  0
  3  4  2  0  0  0  0
  4  5  1  0  0  0  0
  5  6  2  0  0  0  0
  8  2  1  0  0  0  0
  9 16  1  6  0  0  0
  9 14  1  0  0  0  0
 10  5  1  6  0  0  0
 10  9  1  0  0  0  0
 10 11  1  0  0  0  0
 11 12  1  0  0  0  0
 11 13  1  0  0  0  0
 14 13  1  0  0  0  0
 15 14  1  0  0  0  0
 16 17  1  0  0  0  0
 18  3  1  0  0  0  0
 19 20  2  0  0  0  0
 20 18  1  0  0  0  0
 20 23  1  0  0  0  0
 21 22  1  0  0  0  0
 21 20  1  0  0  0  0
 23 24  1  0  0  0  0
M  END
>  <minimizedAffinity>
-5.18469334

>  <minimizedRMSD>
0.555448174

$$$$
