
 OpenBabel03252509213D

 25 27  0  0  1  0  0  0  0  0999 V2000
   45.3410   33.9930   45.5430 C   0  0  0  0  0  0  0  0  0  0  0  0
   45.9060   33.7870   44.2630 C   0  0  0  0  0  0  0  0  0  0  0  0
   46.9350   32.8620   44.2480 C   0  0  0  0  0  0  0  0  0  0  0  0
   47.3260   32.2290   45.4180 N   0  0  0  0  0  0  0  0  0  0  0  0
   46.7480   32.4670   46.6020 C   0  0  0  0  0  0  0  0  0  0  0  0
   45.7460   33.3580   46.6640 N   0  0  0  0  0  0  0  0  0  0  0  0
   44.5300   34.6760   45.7520 H   0  0  0  0  0  0  0  0  0  0  0  0
   47.2310   31.8520   47.3450 H   0  0  0  0  0  0  0  0  0  0  0  0
   47.5490   32.4730   42.9240 C   0  0  0  0  0  0  0  0  0  0  0  0
   48.8950   33.1940   42.7300 C   0  0  0  0  0  0  0  0  0  0  0  0
   48.7320   31.6590   42.9370 C   0  0  0  0  0  0  0  0  0  0  0  0
   46.9100   32.6250   42.0250 H   0  0  0  0  0  0  0  0  0  0  0  0
   49.0690   33.5240   41.6940 H   0  0  0  0  0  0  0  0  0  0  0  0
   49.2790   33.7830   43.5510 H   0  0  0  0  0  0  0  0  0  0  0  0
   49.0460   31.0650   42.0300 H   0  0  0  0  0  0  0  0  0  0  0  0
   49.1990   31.3280   43.9090 H   0  0  0  0  0  0  0  0  0  0  0  0
   44.6890   35.8140   43.4130 C   0  0  1  0  0  3  0  0  0  0  0  0
   45.4060   34.5090   43.1250 C   0  0  2  0  0  3  0  0  0  0  0  0
   44.3060   33.8360   42.3360 C   0  0  0  0  0  3  0  0  0  0  0  0
   44.6630   32.9830   41.7610 H   0  0  0  0  0  0  0  0  0  0  0  0
   43.9430   34.8280   41.4130 O   0  0  0  0  0  0  0  0  0  0  0  0
   44.1850   36.0570   41.9880 C   0  0  0  0  0  3  0  0  0  0  0  0
   43.2640   36.6680   41.9890 H   0  0  0  0  0  0  0  0  0  0  0  0
   43.5590   35.6770   44.1860 O   0  0  0  0  0  0  0  0  0  0  0  0
   42.8000   35.3300   43.6540 H   0  0  0  0  0  0  0  0  0  0  0  0
  1  7  1  0  0  0  0
  1  6  1  0  0  0  0
  2  1  2  0  0  0  0
  3  2  1  0  0  0  0
  3  4  2  0  0  0  0
  4  5  1  0  0  0  0
  5  6  2  0  0  0  0
  5  8  1  0  0  0  0
  9 11  1  0  0  0  0
  9  3  1  0  0  0  0
 10  9  1  0  0  0  0
 10 11  1  0  0  0  0
 10 14  1  0  0  0  0
 11 16  1  0  0  0  0
 12  9  1  0  0  0  0
 13 10  1  0  0  0  0
 15 11  1  0  0  0  0
 17 24  1  1  0  0  0
 18 17  1  0  0  0  0
 18  2  1  1  0  0  0
 19 18  1  0  0  0  0
 20 19  1  0  0  0  0
 21 22  1  0  0  0  0
 21 19  1  0  0  0  0
 22 23  1  0  0  0  0
 22 17  1  0  0  0  0
 25 24  1  0  0  0  0
M  END
>  <minimizedAffinity>
-4.18558216

>  <minimizedRMSD>
2.73373532

$$$$
