
 OpenBabel03252501453D

 23 24  0  0  1  0  0  0  0  0999 V2000
   44.4410   35.7800   43.4400 C   0  0  0  0  0  0  0  0  0  0  0  0
   44.1520   34.9330   42.3730 C   0  0  0  0  0  0  0  0  0  0  0  0
   44.5200   33.5970   42.4950 C   0  0  0  0  0  0  0  0  0  0  0  0
   45.1360   33.1740   43.6290 N   0  0  0  0  0  0  0  0  0  0  0  0
   45.3980   34.0370   44.6460 C   0  0  0  0  0  0  0  0  0  0  0  0
   45.0520   35.3310   44.5500 N   0  0  0  0  0  0  0  0  0  0  0  0
   44.1670   36.8410   43.3820 H   0  0  0  0  0  0  0  0  0  0  0  0
   44.3370   32.8650   41.7210 H   0  0  0  0  0  0  0  0  0  0  0  0
   45.1460   33.0960   46.9480 C   0  0  1  0  0  3  0  0  0  0  0  0
   46.0610   33.6710   45.9150 C   0  0  1  0  0  3  0  0  0  0  0  0
   46.9290   32.4500   45.6160 C   0  0  0  0  0  3  0  0  0  0  0  0
   47.8480   32.8170   45.1430 H   0  0  0  0  0  0  0  0  0  0  0  0
   47.1030   31.8020   46.8190 O   0  0  0  0  0  0  0  0  0  0  0  0
   45.9780   32.0200   47.5920 C   0  0  0  0  0  3  0  0  0  0  0  0
   46.3400   32.4030   48.5820 H   0  0  0  0  0  0  0  0  0  0  0  0
   44.6790   34.0210   47.8690 O   0  0  0  0  0  0  0  0  0  0  0  0
   43.8270   33.6520   48.2570 H   0  0  0  0  0  0  0  0  0  0  0  0
   43.4950   35.4000   41.1700 C   0  0  0  0  0  3  0  0  0  0  0  0
   42.8960   34.6320   40.2730 C   0  0  0  0  0  3  0  0  0  0  0  0
   42.2390   35.2220   39.0500 C   0  0  0  0  0  0  0  0  0  0  0  0
   42.8860   35.1560   38.1560 H   0  0  0  0  0  0  0  0  0  0  0  0
   42.0680   36.2930   39.2940 H   0  0  0  0  0  0  0  0  0  0  0  0
   41.2570   34.7610   38.9240 H   0  0  0  0  0  0  0  0  0  0  0  0
  1  6  1  0  0  0  0
  2  3  1  0  0  0  0
  2  1  2  0  0  0  0
  3  4  2  0  0  0  0
  4  5  1  0  0  0  0
  6  5  2  0  0  0  0
  7  1  1  0  0  0  0
  8  3  1  0  0  0  0
  9 14  1  0  0  0  0
  9 16  1  1  0  0  0
 10  5  1  6  0  0  0
 10  9  1  0  0  0  0
 11 10  1  0  0  0  0
 11 13  1  0  0  0  0
 12 11  1  0  0  0  0
 13 14  1  0  0  0  0
 14 15  1  0  0  0  0
 16 17  1  0  0  0  0
 18  2  1  0  0  0  0
 19 18  2  0  0  0  0
 20 22  1  0  0  0  0
 20 19  1  0  0  0  0
 21 20  1  0  0  0  0
 23 20  1  0  0  0  0
M  END
>  <minimizedAffinity>
-4.84400177

>  <minimizedRMSD>
1.01751757

$$$$
