
 OpenBabel03252501453D

 23 24  0  0  1  0  0  0  0  0999 V2000
   45.3770   34.1300   45.4720 C   0  0  0  0  0  0  0  0  0  0  0  0
   45.2660   33.7880   44.1270 C   0  0  0  0  0  0  0  0  0  0  0  0
   45.5000   32.4610   43.7790 C   0  0  0  0  0  0  0  0  0  0  0  0
   45.8220   31.5640   44.7470 N   0  0  0  0  0  0  0  0  0  0  0  0
   45.9190   31.9430   46.0480 C   0  0  0  0  0  0  0  0  0  0  0  0
   45.6980   33.2180   46.4070 N   0  0  0  0  0  0  0  0  0  0  0  0
   45.2000   35.1660   45.7860 H   0  0  0  0  0  0  0  0  0  0  0  0
   45.4370   32.1010   42.7630 H   0  0  0  0  0  0  0  0  0  0  0  0
   47.6960   31.0930   47.5880 C   0  0  1  0  0  3  0  0  0  0  0  0
   46.2630   31.0420   47.1680 C   0  0  1  0  0  3  0  0  0  0  0  0
   45.5980   31.6230   48.4140 C   0  0  0  0  0  3  0  0  0  0  0  0
   44.5430   31.3240   48.3840 H   0  0  0  0  0  0  0  0  0  0  0  0
   46.3160   31.1450   49.4880 O   0  0  0  0  0  0  0  0  0  0  0  0
   47.6280   30.9740   49.0870 C   0  0  0  0  0  3  0  0  0  0  0  0
   47.9140   29.9260   49.3650 H   0  0  0  0  0  0  0  0  0  0  0  0
   48.4900   30.1120   47.0170 O   0  0  0  0  0  0  0  0  0  0  0  0
   49.4410   30.4400   47.0470 H   0  0  0  0  0  0  0  0  0  0  0  0
   44.9210   34.7570   43.1070 C   0  0  0  0  0  3  0  0  0  0  0  0
   43.9370   34.6340   42.2310 C   0  0  0  0  0  3  0  0  0  0  0  0
   43.6630   35.7070   41.2060 C   0  0  0  0  0  0  0  0  0  0  0  0
   44.0980   35.4640   40.2200 H   0  0  0  0  0  0  0  0  0  0  0  0
   44.1510   36.6250   41.6000 H   0  0  0  0  0  0  0  0  0  0  0  0
   42.5880   35.9010   41.1820 H   0  0  0  0  0  0  0  0  0  0  0  0
  1  7  1  0  0  0  0
  1  6  1  0  0  0  0
  2  1  2  0  0  0  0
  3  2  1  0  0  0  0
  3  4  2  0  0  0  0
  4  5  1  0  0  0  0
  5  6  2  0  0  0  0
  8  3  1  0  0  0  0
  9 16  1  6  0  0  0
  9 14  1  0  0  0  0
 10  5  1  6  0  0  0
 10  9  1  0  0  0  0
 10 11  1  0  0  0  0
 11 13  1  0  0  0  0
 12 11  1  0  0  0  0
 14 15  1  0  0  0  0
 14 13  1  0  0  0  0
 16 17  1  0  0  0  0
 18  2  1  0  0  0  0
 19 18  2  0  0  0  0
 20 22  1  0  0  0  0
 20 19  1  0  0  0  0
 21 20  1  0  0  0  0
 23 20  1  0  0  0  0
M  END
>  <minimizedAffinity>
-3.95031571

>  <minimizedRMSD>
2.8773489

$$$$
