
 OpenBabel03252508293D

 39 42  0  0  1  0  0  0  0  0999 V2000
   41.4410   32.3130   39.9900 N   0  0  0  0  0  0  0  0  0  0  0  0
   41.7450   32.3510   41.4240 C   0  0  2  0  0  0  0  0  0  0  0  0
   40.6270   32.9220   42.2230 C   0  0  0  0  0  0  0  0  0  0  0  0
   39.4030   33.0390   41.4640 N   0  0  0  0  0  0  0  0  0  0  0  0
   39.5390   33.6640   40.1980 C   0  0  0  0  0  0  0  0  0  0  0  0
   40.9590   33.6470   39.6660 C   0  0  2  0  0  0  0  0  0  0  0  0
   42.2810   32.0350   39.4890 H   0  0  0  0  0  0  0  0  0  0  0  0
   42.0270   31.3080   41.7160 H   0  0  0  0  0  0  0  0  0  0  0  0
   40.4230   32.2220   43.0590 H   0  0  0  0  0  0  0  0  0  0  0  0
   40.7500   33.9650   42.5660 H   0  0  0  0  0  0  0  0  0  0  0  0
   38.7680   32.2370   41.5250 H   0  0  0  0  0  0  0  0  0  0  0  0
   39.1620   34.7160   40.3460 H   0  0  0  0  0  0  0  0  0  0  0  0
   38.9010   33.0840   39.4910 H   0  0  0  0  0  0  0  0  0  0  0  0
   41.5140   34.3980   40.2680 H   0  0  0  0  0  0  0  0  0  0  0  0
   44.9880   33.8950   41.7060 C   0  0  0  0  0  0  0  0  0  0  0  0
   44.0940   34.9230   42.0320 C   0  0  0  0  0  0  0  0  0  0  0  0
   42.7960   34.4500   41.9660 C   0  0  0  0  0  0  0  0  0  0  0  0
   42.9230   33.1750   41.6090 N   0  0  0  0  0  0  0  0  0  0  0  0
   44.1940   32.8530   41.4590 N   0  0  0  0  0  0  0  0  0  0  0  0
   44.5210   35.9100   42.2800 H   0  0  0  0  0  0  0  0  0  0  0  0
   42.1070   35.2460   42.2260 H   0  0  0  0  0  0  0  0  0  0  0  0
   48.5300   35.1020   42.1010 C   0  0  0  0  0  0  0  0  0  0  0  0
   47.1020   35.1330   42.1890 C   0  0  0  0  0  0  0  0  0  0  0  0
   46.4460   34.0170   41.6780 C   0  0  0  0  0  0  0  0  0  0  0  0
   47.1530   32.9960   41.1440 N   0  0  0  0  0  0  0  0  0  0  0  0
   48.5070   33.0080   41.0810 C   0  0  0  0  0  0  0  0  0  0  0  0
   49.1660   34.0560   41.5580 N   0  0  0  0  0  0  0  0  0  0  0  0
   49.0530   35.9600   42.4930 H   0  0  0  0  0  0  0  0  0  0  0  0
   46.5480   35.9420   42.6110 H   0  0  0  0  0  0  0  0  0  0  0  0
   48.9680   32.1500   40.6400 H   0  0  0  0  0  0  0  0  0  0  0  0
   39.8930   34.5220   37.5410 C   0  0  2  0  0  3  0  0  0  0  0  0
   41.0730   33.9450   38.2310 C   0  0  1  0  0  3  0  0  0  0  0  0
   42.1090   35.0110   37.9730 C   0  0  0  0  0  3  0  0  0  0  0  0
   42.8750   35.0860   38.7360 H   0  0  0  0  0  0  0  0  0  0  0  0
   41.3220   36.1790   38.1090 O   0  0  0  0  0  0  0  0  0  0  0  0
   40.3450   35.9250   37.1660 C   0  0  0  0  0  3  0  0  0  0  0  0
   40.8150   35.9560   36.1600 H   0  0  0  0  0  0  0  0  0  0  0  0
   38.7270   34.6390   38.2120 O   0  0  0  0  0  0  0  0  0  0  0  0
   38.0720   33.9680   37.8790 H   0  0  0  0  0  0  0  0  0  0  0  0
  1  2  1  0  0  0  0
  2 18  1  0  0  0  0
  2  8  1  1  0  0  0
  2  3  1  0  0  0  0
  3 10  1  0  0  0  0
  3  9  1  0  0  0  0
  4 11  1  0  0  0  0
  4  3  1  0  0  0  0
  5 12  1  0  0  0  0
  5  4  1  0  0  0  0
  6  1  1  0  0  0  0
  6  5  1  0  0  0  0
  6 14  1  1  0  0  0
  7  1  1  0  0  0  0
 13  5  1  0  0  0  0
 15 16  1  0  0  0  0
 16 20  1  0  0  0  0
 17 16  2  0  0  0  0
 17 21  1  0  0  0  0
 18 17  1  0  0  0  0
 19 18  1  0  0  0  0
 19 15  2  0  0  0  0
 22 23  1  0  0  0  0
 22 28  1  0  0  0  0
 23 29  1  0  0  0  0
 24 15  1  0  0  0  0
 24 23  2  0  0  0  0
 25 24  1  0  0  0  0
 26 25  2  0  0  0  0
 26 27  1  0  0  0  0
 27 22  2  0  0  0  0
 30 26  1  0  0  0  0
 31 38  1  1  0  0  0
 31 32  1  0  0  0  0
 32 33  1  1  0  0  0
 32  6  1  0  0  0  0
 33 35  1  0  0  0  0
 33 34  1  0  0  0  0
 36 31  1  0  0  0  0
 36 35  1  0  0  0  0
 37 36  1  0  0  0  0
 39 38  1  0  0  0  0
M  END
>  <minimizedAffinity>
-4.3212533

>  <minimizedRMSD>
1.86405909

$$$$
