
 OpenBabel03252505363D

 33 35  0  0  1  0  0  0  0  0999 V2000
   45.0050   34.1890   45.3200 C   0  0  0  0  0  0  0  0  0  0  0  0
   45.8310   33.9800   44.1780 C   0  0  0  0  0  0  0  0  0  0  0  0
   47.0070   33.2850   44.3580 C   0  0  0  0  0  0  0  0  0  0  0  0
   47.3230   32.8360   45.6060 N   0  0  0  0  0  0  0  0  0  0  0  0
   46.5040   33.0620   46.6660 C   0  0  0  0  0  0  0  0  0  0  0  0
   45.3530   33.7300   46.5310 N   0  0  0  0  0  0  0  0  0  0  0  0
   46.8690   32.6090   47.9700 N   0  0  0  0  0  0  0  0  0  0  0  0
   44.0630   34.7180   45.2880 H   0  0  0  0  0  0  0  0  0  0  0  0
   46.6900   31.6660   48.3940 H   0  0  0  0  0  0  0  0  0  0  0  0
   47.3510   33.4370   48.3900 H   0  0  0  0  0  0  0  0  0  0  0  0
   47.9250   32.9950   43.2980 C   0  0  0  0  0  0  0  0  0  0  0  0
   48.8850   33.9530   42.9940 C   0  0  0  0  0  0  0  0  0  0  0  0
   49.8270   33.7570   41.9720 C   0  0  0  0  0  0  0  0  0  0  0  0
   49.8070   32.5990   41.2480 C   0  0  0  0  0  0  0  0  0  0  0  0
   48.8680   31.6650   41.5470 C   0  0  0  0  0  0  0  0  0  0  0  0
   47.9320   31.8420   42.5540 C   0  0  0  0  0  0  0  0  0  0  0  0
   48.9210   34.8800   43.5540 H   0  0  0  0  0  0  0  0  0  0  0  0
   50.5460   34.5730   41.8060 H   0  0  0  0  0  0  0  0  0  0  0  0
   50.5630   32.5170   40.4760 H   0  0  0  0  0  0  0  0  0  0  0  0
   48.8820   30.7490   40.9490 H   0  0  0  0  0  0  0  0  0  0  0  0
   46.9210   30.8010   42.8660 C   0  0  0  0  0  0  0  0  0  0  0  0
   47.2050   29.6800   42.0900 F   0  0  0  0  0  0  0  0  0  0  0  0
   45.6620   31.2800   42.5660 F   0  0  0  0  0  0  0  0  0  0  0  0
   46.8860   30.4280   44.1880 F   0  0  0  0  0  0  0  0  0  0  0  0
   45.2200   36.0960   43.0350 C   0  0  1  0  0  3  0  0  0  0  0  0
   45.4020   34.5850   42.9290 C   0  0  2  0  0  3  0  0  0  0  0  0
   44.0570   34.1710   42.4180 C   0  0  0  0  0  3  0  0  0  0  0  0
   43.2270   34.3160   43.1330 H   0  0  0  0  0  0  0  0  0  0  0  0
   43.8560   35.0980   41.4010 O   0  0  0  0  0  0  0  0  0  0  0  0
   44.3250   36.3180   41.8290 C   0  0  0  0  0  3  0  0  0  0  0  0
   43.5460   37.0760   41.9900 H   0  0  0  0  0  0  0  0  0  0  0  0
   44.5410   36.4590   44.1820 O   0  0  0  0  0  0  0  0  0  0  0  0
   45.0880   37.1260   44.6950 H   0  0  0  0  0  0  0  0  0  0  0  0
  1  6  1  0  0  0  0
  2  3  1  0  0  0  0
  2  1  2  0  0  0  0
  3  4  2  0  0  0  0
  4  5  1  0  0  0  0
  5  7  1  0  0  0  0
  6  5  2  0  0  0  0
  7 10  1  0  0  0  0
  7  9  1  0  0  0  0
  8  1  1  0  0  0  0
 11  3  1  0  0  0  0
 12 11  1  0  0  0  0
 12 17  1  0  0  0  0
 13 12  2  0  0  0  0
 14 15  2  0  0  0  0
 14 13  1  0  0  0  0
 15 16  1  0  0  0  0
 16 21  1  0  0  0  0
 16 11  2  0  0  0  0
 18 13  1  0  0  0  0
 19 14  1  0  0  0  0
 20 15  1  0  0  0  0
 21 24  1  0  0  0  0
 22 21  1  0  0  0  0
 23 21  1  0  0  0  0
 25 32  1  1  0  0  0
 26 25  1  0  0  0  0
 26  2  1  1  0  0  0
 27 26  1  0  0  0  0
 27 28  1  0  0  0  0
 29 30  1  0  0  0  0
 29 27  1  0  0  0  0
 30 31  1  0  0  0  0
 30 25  1  0  0  0  0
 32 33  1  0  0  0  0
M  END
>  <minimizedAffinity>
-4.66308975

>  <minimizedRMSD>
2.96182847

$$$$
