
 OpenBabel03252509043D

 48 50  0  0  1  0  0  0  0  0999 V2000
   46.5790   34.5500   43.6110 N   0  0  0  0  0  0  0  0  0  0  0  0
   46.0950   35.5520   42.7410 C   0  0  0  0  0  0  0  0  0  0  0  0
   44.5800   35.6900   42.7330 C   0  0  0  0  0  0  0  0  0  0  0  0
   43.9420   35.4440   44.0790 C   0  0  0  0  0  0  0  0  0  0  0  0
   44.9810   35.1910   45.1550 C   0  0  0  0  0  0  0  0  0  0  0  0
   45.8000   33.9650   44.5780 C   0  0  2  0  0  0  0  0  0  0  0  0
   46.3960   35.4670   41.6930 H   0  0  0  0  0  0  0  0  0  0  0  0
   46.4950   36.5280   43.0910 H   0  0  0  0  0  0  0  0  0  0  0  0
   44.3440   36.6920   42.3200 H   0  0  0  0  0  0  0  0  0  0  0  0
   44.1990   34.9470   41.9920 H   0  0  0  0  0  0  0  0  0  0  0  0
   43.2700   34.5720   44.0430 H   0  0  0  0  0  0  0  0  0  0  0  0
   43.3340   36.3090   44.4080 H   0  0  0  0  0  0  0  0  0  0  0  0
   45.6670   36.0220   45.3040 H   0  0  0  0  0  0  0  0  0  0  0  0
   44.4440   34.8350   46.0480 H   0  0  0  0  0  0  0  0  0  0  0  0
   45.0570   33.2080   44.2580 H   0  0  0  0  0  0  0  0  0  0  0  0
   47.7080   33.8150   43.0980 C   0  0  0  0  0  0  0  0  0  0  0  0
   48.1820   33.3070   43.9880 H   0  0  0  0  0  0  0  0  0  0  0  0
   48.4390   34.4750   42.6170 H   0  0  0  0  0  0  0  0  0  0  0  0
   47.1950   32.7380   42.2140 C   0  0  0  0  0  0  0  0  0  0  0  0
   47.3630   31.7050   42.5850 H   0  0  0  0  0  0  0  0  0  0  0  0
   46.0810   32.8030   42.0750 H   0  0  0  0  0  0  0  0  0  0  0  0
   49.1710   32.0530   39.0970 C   0  0  0  0  0  0  0  0  0  0  0  0
   48.6170   31.9300   40.3880 C   0  0  0  0  0  0  0  0  0  0  0  0
   47.7620   32.8930   40.8540 C   0  0  0  0  0  0  0  0  0  0  0  0
   47.4960   33.9120   40.0430 N   0  0  0  0  0  0  0  0  0  0  0  0
   48.0110   34.0440   38.8190 C   0  0  0  0  0  0  0  0  0  0  0  0
   48.8590   33.1130   38.3250 N   0  0  0  0  0  0  0  0  0  0  0  0
   49.8390   31.2360   38.8190 H   0  0  0  0  0  0  0  0  0  0  0  0
   48.8550   31.0860   41.0220 H   0  0  0  0  0  0  0  0  0  0  0  0
   47.7890   34.8830   38.1600 H   0  0  0  0  0  0  0  0  0  0  0  0
   46.5080   33.5810   45.7030 O   0  0  0  0  0  0  0  0  0  0  0  0
   45.6180   31.1750   44.9770 O   0  0  0  0  0  0  0  0  0  0  0  0
   46.2080   31.9810   46.1330 P   0  0  2  0  0  0  0  0  0  0  0  0
   44.9630   32.0510   47.3130 O   0  0  0  0  0  0  0  0  0  0  0  0
   45.3550   31.9970   48.2200 H   0  0  0  0  0  0  0  0  0  0  0  0
   47.5290   31.2290   46.8270 O   0  0  0  0  0  0  0  0  0  0  0  0
   47.8190   30.0910   46.1020 C   0  0  0  0  0  0  0  0  0  0  0  0
   48.1430   30.4060   45.0710 H   0  0  0  0  0  0  0  0  0  0  0  0
   47.0220   29.3590   46.0120 H   0  0  0  0  0  0  0  0  0  0  0  0
   49.2890   27.5550   48.0530 C   0  0  2  0  0  3  0  0  0  0  0  0
   48.8240   28.9820   48.1070 C   0  0  0  0  0  3  0  0  0  0  0  0
   47.7800   29.1130   48.4500 H   0  0  0  0  0  0  0  0  0  0  0  0
   49.0880   29.4790   46.7140 C   0  0  1  0  0  3  0  0  0  0  0  0
   49.5520   28.4340   45.9640 O   0  0  0  0  0  0  0  0  0  0  0  0
   49.1650   27.2510   46.5740 C   0  0  0  0  0  3  0  0  0  0  0  0
   49.8440   26.4210   46.2640 H   0  0  0  0  0  0  0  0  0  0  0  0
   48.4170   26.7730   48.8080 O   0  0  0  0  0  0  0  0  0  0  0  0
   47.5020   27.1850   48.7290 H   0  0  0  0  0  0  0  0  0  0  0  0
  1  6  1  0  0  0  0
  2  8  1  0  0  0  0
  2  1  1  0  0  0  0
  3  2  1  0  0  0  0
  3  4  1  0  0  0  0
  4 12  1  0  0  0  0
  4  5  1  0  0  0  0
  5 13  1  0  0  0  0
  5 14  1  0  0  0  0
  6 15  1  6  0  0  0
  6  5  1  0  0  0  0
  6 31  1  0  0  0  0
  7  2  1  0  0  0  0
  9  3  1  0  0  0  0
 10  3  1  0  0  0  0
 11  4  1  0  0  0  0
 16  1  1  0  0  0  0
 16 17  1  0  0  0  0
 18 16  1  0  0  0  0
 19 20  1  0  0  0  0
 19 16  1  0  0  0  0
 21 19  1  0  0  0  0
 22 23  1  0  0  0  0
 23 24  2  0  0  0  0
 23 29  1  0  0  0  0
 24 19  1  0  0  0  0
 25 24  1  0  0  0  0
 26 25  2  0  0  0  0
 27 26  1  0  0  0  0
 27 22  2  0  0  0  0
 28 22  1  0  0  0  0
 30 26  1  0  0  0  0
 31 33  1  0  0  0  0
 33 32  2  6  0  0  0
 33 36  1  0  0  0  0
 33 34  1  0  0  0  0
 34 35  1  0  0  0  0
 37 36  1  0  0  0  0
 38 37  1  0  0  0  0
 39 37  1  0  0  0  0
 40 41  1  0  0  0  0
 40 47  1  1  0  0  0
 41 42  1  0  0  0  0
 43 37  1  6  0  0  0
 43 41  1  0  0  0  0
 44 45  1  0  0  0  0
 44 43  1  0  0  0  0
 45 40  1  0  0  0  0
 46 45  1  0  0  0  0
 48 47  1  0  0  0  0
M  END
>  <minimizedAffinity>
-4.31640244

>  <minimizedRMSD>
1.21607351

$$$$
