
 OpenBabel03242515383D

 36 39  0  0  1  0  0  0  0  0999 V2000
   43.9080   34.6560   40.7620 C   0  0  0  0  0  0  0  0  0  0  0  0
   43.8420   33.8790   39.6130 C   0  0  0  0  0  0  0  0  0  0  0  0
   45.0300   33.2700   39.1940 C   0  0  0  0  0  0  0  0  0  0  0  0
   46.1620   33.4570   39.9000 N   0  0  0  0  0  0  0  0  0  0  0  0
   46.1830   34.2230   41.0140 C   0  0  0  0  0  0  0  0  0  0  0  0
   45.0600   34.7980   41.4110 N   0  0  0  0  0  0  0  0  0  0  0  0
   42.9130   33.7400   39.0540 H   0  0  0  0  0  0  0  0  0  0  0  0
   45.3870   33.1980   36.7460 C   0  0  2  0  0  0  0  0  0  0  0  0
   45.0210   32.4310   37.9790 C   0  0  1  0  0  0  0  0  0  0  0  0
   46.1090   31.3830   38.0100 C   0  0  0  0  0  0  0  0  0  0  0  0
   46.9670   31.7800   38.5910 H   0  0  0  0  0  0  0  0  0  0  0  0
   46.4930   31.1320   36.7240 O   0  0  0  0  0  0  0  0  0  0  0  0
   46.0120   32.1230   35.8910 C   0  0  0  0  0  0  0  0  0  0  0  0
   45.2320   31.7180   35.2180 H   0  0  0  0  0  0  0  0  0  0  0  0
   46.3820   34.1230   37.1180 O   0  0  0  0  0  0  0  0  0  0  0  0
   47.2620   33.6550   37.2240 H   0  0  0  0  0  0  0  0  0  0  0  0
   42.3650   35.4320   41.2850 S   0  0  0  0  0  0  0  0  0  0  0  0
   39.9710   34.8290   40.2060 C   0  0  0  0  0  0  0  0  0  0  0  0
   40.9850   34.3290   41.0050 C   0  0  0  0  0  0  0  0  0  0  0  0
   40.9000   33.0680   41.5290 C   0  0  0  0  0  0  0  0  0  0  0  0
   39.8140   32.2450   41.2890 C   0  0  0  0  0  0  0  0  0  0  0  0
   38.7970   32.7570   40.4820 C   0  0  0  0  0  0  0  0  0  0  0  0
   38.8500   34.0270   39.9360 C   0  0  0  0  0  0  0  0  0  0  0  0
   37.8100   31.7480   40.3820 O   0  0  0  0  0  0  0  0  0  0  0  0
   38.1060   30.7940   41.3520 C   0  0  0  0  0  0  0  0  0  0  0  0
   39.4670   30.9480   41.6800 O   0  0  0  0  0  0  0  0  0  0  0  0
   39.9350   35.8130   39.7400 H   0  0  0  0  0  0  0  0  0  0  0  0
   41.7210   32.7030   42.1580 H   0  0  0  0  0  0  0  0  0  0  0  0
   38.0480   34.3900   39.3200 H   0  0  0  0  0  0  0  0  0  0  0  0
   37.4350   30.8080   42.2270 H   0  0  0  0  0  0  0  0  0  0  0  0
   37.9890   29.7880   40.8930 H   0  0  0  0  0  0  0  0  0  0  0  0
   47.2980   34.4550   41.7790 O   0  0  0  0  0  0  0  0  0  0  0  0
   48.4570   34.9590   41.1580 C   0  0  0  0  0  0  0  0  0  0  0  0
   49.5420   34.1550   41.3550 F   0  0  0  0  0  0  0  0  0  0  0  0
   48.1240   35.1320   39.8170 F   0  0  0  0  0  0  0  0  0  0  0  0
   48.7340   36.1940   41.7460 F   0  0  0  0  0  0  0  0  0  0  0  0
  1 17  1  0  0  0  0
  1  6  1  0  0  0  0
  2  1  2  0  0  0  0
  3  2  1  0  0  0  0
  3  4  2  0  0  0  0
  4  5  1  0  0  0  0
  5  6  2  0  0  0  0
  5 32  1  0  0  0  0
  7  2  1  0  0  0  0
  8 15  1  1  0  0  0
  8  9  1  0  0  0  0
  9 10  1  0  0  0  0
  9  3  1  1  0  0  0
 10 11  1  0  0  0  0
 12 10  1  0  0  0  0
 13 12  1  0  0  0  0
 13  8  1  0  0  0  0
 14 13  1  0  0  0  0
 15 16  1  0  0  0  0
 18 19  1  0  0  0  0
 19 17  1  0  0  0  0
 19 20  2  0  0  0  0
 20 28  1  0  0  0  0
 21 20  1  0  0  0  0
 21 26  1  0  0  0  0
 22 21  2  0  0  0  0
 23 18  2  0  0  0  0
 23 22  1  0  0  0  0
 24 22  1  0  0  0  0
 24 25  1  0  0  0  0
 25 26  1  0  0  0  0
 25 30  1  0  0  0  0
 27 18  1  0  0  0  0
 29 23  1  0  0  0  0
 31 25  1  0  0  0  0
 33 34  1  0  0  0  0
 33 36  1  0  0  0  0
 33 32  1  0  0  0  0
 35 33  1  0  0  0  0
M  END
>  <minimizedAffinity>
-6.38065147

>  <minimizedRMSD>
1.25038493

$$$$
