
 OpenBabel03242515383D

 36 39  0  0  1  0  0  0  0  0999 V2000
   43.9310   34.6590   40.7790 C   0  0  0  0  0  0  0  0  0  0  0  0
   43.8550   33.8780   39.6340 C   0  0  0  0  0  0  0  0  0  0  0  0
   45.0410   33.2760   39.2010 C   0  0  0  0  0  0  0  0  0  0  0  0
   46.1810   33.4720   39.8920 N   0  0  0  0  0  0  0  0  0  0  0  0
   46.2110   34.2420   41.0030 C   0  0  0  0  0  0  0  0  0  0  0  0
   45.0890   34.8100   41.4130 N   0  0  0  0  0  0  0  0  0  0  0  0
   42.9200   33.7310   39.0870 H   0  0  0  0  0  0  0  0  0  0  0  0
   45.3810   33.1980   36.7520 C   0  0  2  0  0  3  0  0  0  0  0  0
   45.0220   32.4320   37.9890 C   0  0  1  0  0  3  0  0  0  0  0  0
   46.1090   31.3850   38.0140 C   0  0  0  0  0  3  0  0  0  0  0  0
   46.9720   31.7820   38.5870 H   0  0  0  0  0  0  0  0  0  0  0  0
   46.4840   31.1320   36.7260 O   0  0  0  0  0  0  0  0  0  0  0  0
   45.9980   32.1200   35.8940 C   0  0  0  0  0  3  0  0  0  0  0  0
   45.2130   31.7150   35.2270 H   0  0  0  0  0  0  0  0  0  0  0  0
   46.3780   34.1230   37.1130 O   0  0  0  0  0  0  0  0  0  0  0  0
   47.2590   33.6550   37.2150 H   0  0  0  0  0  0  0  0  0  0  0  0
   42.3890   35.4260   41.3200 S   0  0  0  0  0  0  0  0  0  0  0  0
   40.0010   34.8310   40.2240 C   0  0  0  0  0  0  0  0  0  0  0  0
   41.0090   34.3270   41.0280 C   0  0  0  0  0  0  0  0  0  0  0  0
   40.9170   33.0640   41.5470 C   0  0  0  0  0  0  0  0  0  0  0  0
   39.8310   32.2440   41.2980 C   0  0  0  0  0  0  0  0  0  0  0  0
   38.8200   32.7620   40.4860 C   0  0  0  0  0  0  0  0  0  0  0  0
   38.8790   34.0330   39.9440 C   0  0  0  0  0  0  0  0  0  0  0  0
   37.8310   31.7550   40.3760 O   0  0  0  0  0  0  0  0  0  0  0  0
   38.1190   30.7980   41.3450 C   0  0  0  0  0  0  0  0  0  0  0  0
   39.4780   30.9480   41.6830 O   0  0  0  0  0  0  0  0  0  0  0  0
   39.9700   35.8170   39.7600 H   0  0  0  0  0  0  0  0  0  0  0  0
   41.7330   32.6960   42.1800 H   0  0  0  0  0  0  0  0  0  0  0  0
   38.0830   34.3990   39.3230 H   0  0  0  0  0  0  0  0  0  0  0  0
   37.4420   30.8110   42.2160 H   0  0  0  0  0  0  0  0  0  0  0  0
   38.0020   29.7930   40.8820 H   0  0  0  0  0  0  0  0  0  0  0  0
   47.3340   34.4840   41.7530 O   0  0  0  0  0  0  0  0  0  0  0  0
   48.5680   34.6550   41.0960 C   0  0  0  0  0  0  0  0  0  0  0  0
   49.2030   33.4680   40.8690 F   0  0  0  0  0  0  0  0  0  0  0  0
   48.2840   35.3690   39.9350 F   0  0  0  0  0  0  0  0  0  0  0  0
   49.3810   35.4140   41.9400 F   0  0  0  0  0  0  0  0  0  0  0  0
  1 17  1  0  0  0  0
  1  6  1  0  0  0  0
  2  1  2  0  0  0  0
  3  2  1  0  0  0  0
  3  4  2  0  0  0  0
  4  5  1  0  0  0  0
  5  6  2  0  0  0  0
  5 32  1  0  0  0  0
  7  2  1  0  0  0  0
  8 15  1  1  0  0  0
  8  9  1  0  0  0  0
  9 10  1  0  0  0  0
  9  3  1  1  0  0  0
 10 11  1  0  0  0  0
 12 10  1  0  0  0  0
 13 12  1  0  0  0  0
 13  8  1  0  0  0  0
 14 13  1  0  0  0  0
 15 16  1  0  0  0  0
 18 19  1  0  0  0  0
 19 17  1  0  0  0  0
 19 20  2  0  0  0  0
 20 28  1  0  0  0  0
 21 20  1  0  0  0  0
 21 26  1  0  0  0  0
 22 21  2  0  0  0  0
 23 18  2  0  0  0  0
 23 22  1  0  0  0  0
 24 22  1  0  0  0  0
 24 25  1  0  0  0  0
 25 26  1  0  0  0  0
 25 30  1  0  0  0  0
 27 18  1  0  0  0  0
 29 23  1  0  0  0  0
 31 25  1  0  0  0  0
 33 32  1  0  0  0  0
 33 36  1  0  0  0  0
 34 33  1  0  0  0  0
 35 33  1  0  0  0  0
M  END
>  <minimizedAffinity>
-6.2086935

>  <minimizedRMSD>
0.862420917

$$$$
