
 OpenBabel03242517133D

 23 24  0  0  1  0  0  0  0  0999 V2000
   42.2940   35.4960   39.5420 C   0  0  0  0  0  0  0  0  0  0  0  0
   42.9760   36.2350   39.0980 H   0  0  0  0  0  0  0  0  0  0  0  0
   41.3080   35.9760   39.6970 H   0  0  0  0  0  0  0  0  0  0  0  0
   41.5270   32.0700   38.4780 C   0  0  1  0  0  3  0  0  0  0  0  0
   42.3850   33.0070   39.3390 C   0  0  0  0  0  3  0  0  0  0  0  0
   43.4100   32.6250   39.3440 H   0  0  0  0  0  0  0  0  0  0  0  0
   42.1880   34.2950   38.6010 C   0  0  1  0  0  3  0  0  0  0  0  0
   40.9390   34.2680   38.0080 O   0  0  0  0  0  0  0  0  0  0  0  0
   40.3590   33.0350   38.2380 C   0  0  0  0  0  3  0  0  0  0  0  0
   39.7350   32.7080   37.4040 H   0  0  0  0  0  0  0  0  0  0  0  0
   42.1400   31.8810   37.2560 O   0  0  0  0  0  0  0  0  0  0  0  0
   43.0530   31.5010   37.3020 H   0  0  0  0  0  0  0  0  0  0  0  0
   43.6660   35.5890   41.6010 C   0  0  0  0  0  3  0  0  0  0  0  0
   42.8610   34.9310   40.8040 C   0  0  0  0  0  3  0  0  0  0  0  0
   44.3130   35.8520   44.0020 C   0  0  0  0  0  0  0  0  0  0  0  0
   44.2450   35.0970   42.8330 C   0  0  0  0  0  0  0  0  0  0  0  0
   44.7670   33.8080   42.8730 C   0  0  0  0  0  0  0  0  0  0  0  0
   45.3180   33.3410   44.0450 N   0  0  0  0  0  0  0  0  0  0  0  0
   45.3590   34.1130   45.1510 C   0  0  0  0  0  0  0  0  0  0  0  0
   44.8570   35.3590   45.1180 N   0  0  0  0  0  0  0  0  0  0  0  0
   43.9130   36.8600   43.9940 H   0  0  0  0  0  0  0  0  0  0  0  0
   44.7380   33.1790   41.9870 H   0  0  0  0  0  0  0  0  0  0  0  0
   45.8250   33.5870   45.9760 H   0  0  0  0  0  0  0  0  0  0  0  0
  1  3  1  0  0  0  0
  1 14  1  0  0  0  0
  2  1  1  0  0  0  0
  4 11  1  6  0  0  0
  4  5  1  0  0  0  0
  5  6  1  0  0  0  0
  7  5  1  0  0  0  0
  7  1  1  1  0  0  0
  8  9  1  0  0  0  0
  8  7  1  0  0  0  0
  9  4  1  0  0  0  0
 10  9  1  0  0  0  0
 11 12  1  0  0  0  0
 13 16  1  0  0  0  0
 14 13  2  0  0  0  0
 15 20  1  0  0  0  0
 16 17  1  0  0  0  0
 16 15  2  0  0  0  0
 17 18  2  0  0  0  0
 18 19  1  0  0  0  0
 19 23  1  0  0  0  0
 20 19  2  0  0  0  0
 21 15  1  0  0  0  0
 22 17  1  0  0  0  0
M  END
>  <minimizedAffinity>
-4.11583662

>  <minimizedRMSD>
1.47315085

$$$$
