
 OpenBabel03252504253D

 21 22  0  0  1  0  0  0  0  0999 V2000
   36.5860   27.8700   42.1280 C   0  0  0  0  0  0  0  0  0  0  0  0
   36.8750   28.8610   42.5100 H   0  0  0  0  0  0  0  0  0  0  0  0
   35.6580   27.5530   42.6520 H   0  0  0  0  0  0  0  0  0  0  0  0
   38.6920   27.3720   43.2730 C   0  0  0  0  0  0  0  0  0  0  0  0
   37.6250   26.8850   42.4870 C   0  0  0  0  0  0  0  0  0  0  0  0
   37.6760   25.5400   42.1450 C   0  0  0  0  0  0  0  0  0  0  0  0
   38.7130   24.7950   42.5710 N   0  0  0  0  0  0  0  0  0  0  0  0
   39.7110   25.2930   43.3170 C   0  0  0  0  0  0  0  0  0  0  0  0
   39.7130   26.5950   43.6800 N   0  0  0  0  0  0  0  0  0  0  0  0
   38.7420   28.4150   43.5930 H   0  0  0  0  0  0  0  0  0  0  0  0
   36.8450   25.1970   41.5440 H   0  0  0  0  0  0  0  0  0  0  0  0
   40.5240   24.6810   43.6430 H   0  0  0  0  0  0  0  0  0  0  0  0
   35.9800   30.3130   40.3630 C   0  0  2  0  0  3  0  0  0  0  0  0
   35.2340   28.9990   40.3360 C   0  0  0  0  0  3  0  0  0  0  0  0
   34.8170   28.8230   39.3250 H   0  0  0  0  0  0  0  0  0  0  0  0
   36.3140   28.0000   40.6730 C   0  0  1  0  0  3  0  0  0  0  0  0
   37.4420   28.5670   40.0870 O   0  0  0  0  0  0  0  0  0  0  0  0
   37.4440   29.9210   40.3680 C   0  0  0  0  0  3  0  0  0  0  0  0
   37.8590   30.2020   41.3370 H   0  0  0  0  0  0  0  0  0  0  0  0
   35.6100   31.0410   41.4850 O   0  0  0  0  0  0  0  0  0  0  0  0
   34.7380   31.4660   41.2540 H   0  0  0  0  0  0  0  0  0  0  0  0
  1  5  1  0  0  0  0
  1  2  1  0  0  0  0
  1  3  1  0  0  0  0
  4 10  1  0  0  0  0
  4  9  1  0  0  0  0
  5  4  2  0  0  0  0
  6  5  1  0  0  0  0
  6  7  2  0  0  0  0
  7  8  1  0  0  0  0
  8 12  1  0  0  0  0
  8  9  2  0  0  0  0
 11  6  1  0  0  0  0
 13 18  1  0  0  0  0
 13 20  1  1  0  0  0
 14 13  1  0  0  0  0
 14 16  1  0  0  0  0
 15 14  1  0  0  0  0
 16  1  1  1  0  0  0
 17 18  1  0  0  0  0
 17 16  1  0  0  0  0
 18 19  1  0  0  0  0
 21 20  1  0  0  0  0
M  END
>  <minimizedAffinity>
-4.55211115

$$$$

 OpenBabel03252504253D

 21 22  0  0  1  0  0  0  0  0999 V2000
   38.8080   30.7050   41.2900 C   0  0  0  0  0  0  0  0  0  0  0  0
   39.8170   30.3770   40.9970 H   0  0  0  0  0  0  0  0  0  0  0  0
   38.9110   31.5250   42.0350 H   0  0  0  0  0  0  0  0  0  0  0  0
   37.0040   29.0490   41.3020 C   0  0  0  0  0  0  0  0  0  0  0  0
   38.1150   29.6000   41.9810 C   0  0  0  0  0  0  0  0  0  0  0  0
   38.4250   29.0390   43.2120 C   0  0  0  0  0  0  0  0  0  0  0  0
   37.6690   28.0270   43.6790 N   0  0  0  0  0  0  0  0  0  0  0  0
   36.6200   27.5290   43.0070 C   0  0  0  0  0  0  0  0  0  0  0  0
   36.2730   28.0370   41.8030 N   0  0  0  0  0  0  0  0  0  0  0  0
   36.6820   29.4230   40.3280 H   0  0  0  0  0  0  0  0  0  0  0  0
   39.2800   29.4810   43.7060 H   0  0  0  0  0  0  0  0  0  0  0  0
   36.0350   26.7250   43.3990 H   0  0  0  0  0  0  0  0  0  0  0  0
   38.4650   33.5510   40.1780 C   0  0  2  0  0  3  0  0  0  0  0  0
   37.3740   32.5130   40.2960 C   0  0  0  0  0  3  0  0  0  0  0  0
   36.6090   32.6780   39.5110 H   0  0  0  0  0  0  0  0  0  0  0  0
   38.1230   31.2200   40.0770 C   0  0  1  0  0  3  0  0  0  0  0  0
   39.1080   31.5950   39.1670 O   0  0  0  0  0  0  0  0  0  0  0  0
   39.6380   32.8050   39.5740 C   0  0  0  0  0  3  0  0  0  0  0  0
   40.4200   32.7480   40.3320 H   0  0  0  0  0  0  0  0  0  0  0  0
   38.7470   34.0810   41.4300 O   0  0  0  0  0  0  0  0  0  0  0  0
   38.0330   34.7560   41.6020 H   0  0  0  0  0  0  0  0  0  0  0  0
  1  5  1  0  0  0  0
  1  3  1  0  0  0  0
  2  1  1  0  0  0  0
  4  9  2  0  0  0  0
  4  5  1  0  0  0  0
  5  6  2  0  0  0  0
  6  7  1  0  0  0  0
  6 11  1  0  0  0  0
  8 12  1  0  0  0  0
  8  7  2  0  0  0  0
  9  8  1  0  0  0  0
 10  4  1  0  0  0  0
 13 14  1  0  0  0  0
 13 20  1  1  0  0  0
 15 14  1  0  0  0  0
 16 14  1  0  0  0  0
 16  1  1  1  0  0  0
 17 18  1  0  0  0  0
 17 16  1  0  0  0  0
 18 13  1  0  0  0  0
 18 19  1  0  0  0  0
 20 21  1  0  0  0  0
M  END
>  <minimizedAffinity>
-4.13576698

$$$$

 OpenBabel03252504253D

 21 22  0  0  1  0  0  0  0  0999 V2000
   36.2550   28.4920   40.5700 C   0  0  0  0  0  0  0  0  0  0  0  0
   35.6390   27.9320   39.8510 H   0  0  0  0  0  0  0  0  0  0  0  0
   35.6430   28.6800   41.4790 H   0  0  0  0  0  0  0  0  0  0  0  0
   37.0010   29.8280   38.6580 C   0  0  0  0  0  0  0  0  0  0  0  0
   36.5830   29.8170   40.0080 C   0  0  0  0  0  0  0  0  0  0  0  0
   36.5280   31.0490   40.6460 C   0  0  0  0  0  0  0  0  0  0  0  0
   36.8670   32.1570   39.9600 N   0  0  0  0  0  0  0  0  0  0  0  0
   37.2600   32.1290   38.6780 C   0  0  0  0  0  0  0  0  0  0  0  0
   37.3330   30.9580   38.0070 N   0  0  0  0  0  0  0  0  0  0  0  0
   37.0770   28.9100   38.0720 H   0  0  0  0  0  0  0  0  0  0  0  0
   36.2040   31.0080   41.6770 H   0  0  0  0  0  0  0  0  0  0  0  0
   37.5260   33.0230   38.1540 H   0  0  0  0  0  0  0  0  0  0  0  0
   37.7930   28.1210   43.2070 C   0  0  2  0  0  3  0  0  0  0  0  0
   38.4140   28.3270   41.8450 C   0  0  0  0  0  3  0  0  0  0  0  0
   39.4080   27.8390   41.8060 H   0  0  0  0  0  0  0  0  0  0  0  0
   37.4270   27.6500   40.9250 C   0  0  1  0  0  3  0  0  0  0  0  0
   36.9620   26.5960   41.7080 O   0  0  0  0  0  0  0  0  0  0  0  0
   36.7200   27.0750   42.9820 C   0  0  0  0  0  3  0  0  0  0  0  0
   35.7520   27.5550   43.1310 H   0  0  0  0  0  0  0  0  0  0  0  0
   37.2860   29.3240   43.6790 O   0  0  0  0  0  0  0  0  0  0  0  0
   38.0710   29.8220   44.0410 H   0  0  0  0  0  0  0  0  0  0  0  0
  1  3  1  0  0  0  0
  2  1  1  0  0  0  0
  4  5  1  0  0  0  0
  5  1  1  0  0  0  0
  5  6  2  0  0  0  0
  6 11  1  0  0  0  0
  7  6  1  0  0  0  0
  8  7  2  0  0  0  0
  9  4  2  0  0  0  0
  9  8  1  0  0  0  0
 10  4  1  0  0  0  0
 12  8  1  0  0  0  0
 13 20  1  6  0  0  0
 14 13  1  0  0  0  0
 15 14  1  0  0  0  0
 16  1  1  1  0  0  0
 16 17  1  0  0  0  0
 16 14  1  0  0  0  0
 17 18  1  0  0  0  0
 18 19  1  0  0  0  0
 18 13  1  0  0  0  0
 20 21  1  0  0  0  0
M  END
>  <minimizedAffinity>
-3.9696703

$$$$

 OpenBabel03252504253D

 21 22  0  0  1  0  0  0  0  0999 V2000
   36.6210   27.8440   41.1020 C   0  0  0  0  0  0  0  0  0  0  0  0
   36.8170   28.3380   42.0650 H   0  0  0  0  0  0  0  0  0  0  0  0
   35.5200   27.8050   40.9490 H   0  0  0  0  0  0  0  0  0  0  0  0
   37.4910   25.8710   39.9420 C   0  0  0  0  0  0  0  0  0  0  0  0
   37.0820   26.4430   41.1670 C   0  0  0  0  0  0  0  0  0  0  0  0
   37.1620   25.6250   42.2870 C   0  0  0  0  0  0  0  0  0  0  0  0
   37.6150   24.3650   42.1450 N   0  0  0  0  0  0  0  0  0  0  0  0
   37.9950   23.8550   40.9640 C   0  0  0  0  0  0  0  0  0  0  0  0
   37.9370   24.6050   39.8410 N   0  0  0  0  0  0  0  0  0  0  0  0
   37.4650   26.4340   39.0070 H   0  0  0  0  0  0  0  0  0  0  0  0
   36.8430   26.0920   43.2090 H   0  0  0  0  0  0  0  0  0  0  0  0
   38.3500   22.8500   40.8770 H   0  0  0  0  0  0  0  0  0  0  0  0
   36.6690   30.8780   40.6050 C   0  0  2  0  0  3  0  0  0  0  0  0
   36.3870   29.8180   39.5650 C   0  0  0  0  0  3  0  0  0  0  0  0
   36.6990   30.1790   38.5650 H   0  0  0  0  0  0  0  0  0  0  0  0
   37.2420   28.6640   40.0300 C   0  0  1  0  0  3  0  0  0  0  0  0
   38.3440   29.3100   40.5840 O   0  0  0  0  0  0  0  0  0  0  0  0
   37.8880   30.3690   41.3480 C   0  0  0  0  0  3  0  0  0  0  0  0
   37.5780   30.1200   42.3630 H   0  0  0  0  0  0  0  0  0  0  0  0
   35.5620   31.0370   41.4270 O   0  0  0  0  0  0  0  0  0  0  0  0
   34.9290   31.6140   40.9150 H   0  0  0  0  0  0  0  0  0  0  0  0
  1  5  1  0  0  0  0
  1  2  1  0  0  0  0
  3  1  1  0  0  0  0
  4  5  1  0  0  0  0
  5  6  2  0  0  0  0
  6 11  1  0  0  0  0
  7  6  1  0  0  0  0
  8  7  2  0  0  0  0
  9  4  2  0  0  0  0
  9  8  1  0  0  0  0
 10  4  1  0  0  0  0
 12  8  1  0  0  0  0
 13 18  1  0  0  0  0
 13 20  1  1  0  0  0
 14 16  1  0  0  0  0
 14 13  1  0  0  0  0
 15 14  1  0  0  0  0
 16 17  1  0  0  0  0
 16  1  1  1  0  0  0
 17 18  1  0  0  0  0
 18 19  1  0  0  0  0
 21 20  1  0  0  0  0
M  END
>  <minimizedAffinity>
-3.95600057

$$$$

 OpenBabel03252504253D

 21 22  0  0  1  0  0  0  0  0999 V2000
   39.4360   31.0530   42.2740 C   0  0  0  0  0  0  0  0  0  0  0  0
   40.2260   31.5650   42.8440 H   0  0  0  0  0  0  0  0  0  0  0  0
   38.4620   31.5220   42.5310 H   0  0  0  0  0  0  0  0  0  0  0  0
   38.0800   29.2150   43.1590 C   0  0  0  0  0  0  0  0  0  0  0  0
   39.3500   29.6460   42.7120 C   0  0  0  0  0  0  0  0  0  0  0  0
   40.3640   28.6980   42.7350 C   0  0  0  0  0  0  0  0  0  0  0  0
   40.0890   27.4540   43.1700 N   0  0  0  0  0  0  0  0  0  0  0  0
   38.8690   27.0810   43.5880 C   0  0  0  0  0  0  0  0  0  0  0  0
   37.8440   27.9620   43.5880 N   0  0  0  0  0  0  0  0  0  0  0  0
   37.2190   29.8870   43.1790 H   0  0  0  0  0  0  0  0  0  0  0  0
   41.3230   29.0570   42.3860 H   0  0  0  0  0  0  0  0  0  0  0  0
   38.6750   26.0870   43.9300 H   0  0  0  0  0  0  0  0  0  0  0  0
   37.7690   32.3000   40.0120 C   0  0  2  0  0  3  0  0  0  0  0  0
   38.5260   30.9940   39.9330 C   0  0  0  0  0  3  0  0  0  0  0  0
   38.8370   30.8010   38.8870 H   0  0  0  0  0  0  0  0  0  0  0  0
   39.7150   31.2470   40.8280 C   0  0  1  0  0  3  0  0  0  0  0  0
   39.9580   32.6040   40.6280 O   0  0  0  0  0  0  0  0  0  0  0  0
   38.7470   33.2690   40.6450 C   0  0  0  0  0  3  0  0  0  0  0  0
   38.3630   33.5280   41.6330 H   0  0  0  0  0  0  0  0  0  0  0  0
   36.6130   32.1290   40.7610 O   0  0  0  0  0  0  0  0  0  0  0  0
   35.9530   31.7080   40.1430 H   0  0  0  0  0  0  0  0  0  0  0  0
  1  3  1  0  0  0  0
  1  5  1  0  0  0  0
  1  2  1  0  0  0  0
  4 10  1  0  0  0  0
  4  9  1  0  0  0  0
  5  6  1  0  0  0  0
  5  4  2  0  0  0  0
  6  7  2  0  0  0  0
  7  8  1  0  0  0  0
  8 12  1  0  0  0  0
  9  8  2  0  0  0  0
 11  6  1  0  0  0  0
 13 18  1  0  0  0  0
 13 20  1  1  0  0  0
 14 13  1  0  0  0  0
 14 16  1  0  0  0  0
 15 14  1  0  0  0  0
 16  1  1  1  0  0  0
 17 18  1  0  0  0  0
 17 16  1  0  0  0  0
 18 19  1  0  0  0  0
 21 20  1  0  0  0  0
M  END
>  <minimizedAffinity>
-3.92683077

$$$$

 OpenBabel03252504253D

 21 22  0  0  1  0  0  0  0  0999 V2000
   37.6110   29.9550   41.0710 C   0  0  0  0  0  0  0  0  0  0  0  0
   37.5720   29.3250   40.1700 H   0  0  0  0  0  0  0  0  0  0  0  0
   36.6190   29.9110   41.5700 H   0  0  0  0  0  0  0  0  0  0  0  0
   38.9950   31.9730   41.1620 C   0  0  0  0  0  0  0  0  0  0  0  0
   37.8180   31.3620   40.6760 C   0  0  0  0  0  0  0  0  0  0  0  0
   36.9950   32.1530   39.8850 C   0  0  0  0  0  0  0  0  0  0  0  0
   37.3570   33.4250   39.6310 N   0  0  0  0  0  0  0  0  0  0  0  0
   38.4840   33.9720   40.1110 C   0  0  0  0  0  0  0  0  0  0  0  0
   39.3220   33.2490   40.8870 N   0  0  0  0  0  0  0  0  0  0  0  0
   39.7050   31.4330   41.7930 H   0  0  0  0  0  0  0  0  0  0  0  0
   36.1030   31.6570   39.5270 H   0  0  0  0  0  0  0  0  0  0  0  0
   38.7490   34.9850   39.8960 H   0  0  0  0  0  0  0  0  0  0  0  0
   37.5120   27.6990   43.1580 C   0  0  2  0  0  3  0  0  0  0  0  0
   38.1390   29.0590   43.3590 C   0  0  0  0  0  3  0  0  0  0  0  0
   38.9670   28.9890   44.0910 H   0  0  0  0  0  0  0  0  0  0  0  0
   38.6480   29.3960   41.9770 C   0  0  1  0  0  3  0  0  0  0  0  0
   39.0090   28.1470   41.4780 O   0  0  0  0  0  0  0  0  0  0  0  0
   38.0130   27.2450   41.8020 C   0  0  0  0  0  3  0  0  0  0  0  0
   37.1590   27.2200   41.1240 H   0  0  0  0  0  0  0  0  0  0  0  0
   36.1290   27.8060   43.2170 O   0  0  0  0  0  0  0  0  0  0  0  0
   35.9040   27.8390   44.1880 H   0  0  0  0  0  0  0  0  0  0  0  0
  1  3  1  0  0  0  0
  2  1  1  0  0  0  0
  4 10  1  0  0  0  0
  5  1  1  0  0  0  0
  5  4  2  0  0  0  0
  6  5  1  0  0  0  0
  7  6  2  0  0  0  0
  7  8  1  0  0  0  0
  8  9  2  0  0  0  0
  9  4  1  0  0  0  0
 11  6  1  0  0  0  0
 12  8  1  0  0  0  0
 13 20  1  6  0  0  0
 13 14  1  0  0  0  0
 14 15  1  0  0  0  0
 16  1  1  6  0  0  0
 16 14  1  0  0  0  0
 17 18  1  0  0  0  0
 17 16  1  0  0  0  0
 18 13  1  0  0  0  0
 19 18  1  0  0  0  0
 20 21  1  0  0  0  0
M  END
>  <minimizedAffinity>
-3.91333914

$$$$

 OpenBabel03252504253D

 21 22  0  0  1  0  0  0  0  0999 V2000
   38.7310   29.5290   41.3860 C   0  0  0  0  0  0  0  0  0  0  0  0
   39.8250   29.5100   41.5090 H   0  0  0  0  0  0  0  0  0  0  0  0
   38.3120   30.2570   42.1140 H   0  0  0  0  0  0  0  0  0  0  0  0
   38.7360   27.0990   41.0800 C   0  0  0  0  0  0  0  0  0  0  0  0
   38.1750   28.2100   41.7480 C   0  0  0  0  0  0  0  0  0  0  0  0
   37.1690   27.9340   42.6640 C   0  0  0  0  0  0  0  0  0  0  0  0
   36.7950   26.6560   42.8600 N   0  0  0  0  0  0  0  0  0  0  0  0
   37.3520   25.6240   42.2060 C   0  0  0  0  0  0  0  0  0  0  0  0
   38.3340   25.8350   41.3030 N   0  0  0  0  0  0  0  0  0  0  0  0
   39.5330   27.2150   40.3410 H   0  0  0  0  0  0  0  0  0  0  0  0
   36.7600   28.8040   43.1600 H   0  0  0  0  0  0  0  0  0  0  0  0
   37.0370   24.6170   42.3790 H   0  0  0  0  0  0  0  0  0  0  0  0
   36.4760   31.2770   40.2400 C   0  0  2  0  0  3  0  0  0  0  0  0
   36.9630   29.9710   39.6560 C   0  0  0  0  0  3  0  0  0  0  0  0
   36.8040   29.9650   38.5600 H   0  0  0  0  0  0  0  0  0  0  0  0
   38.4330   29.9820   40.0030 C   0  0  1  0  0  3  0  0  0  0  0  0
   38.7490   31.3360   39.9300 O   0  0  0  0  0  0  0  0  0  0  0  0
   37.7420   32.0510   40.5500 C   0  0  0  0  0  3  0  0  0  0  0  0
   37.8210   32.1360   41.6350 H   0  0  0  0  0  0  0  0  0  0  0  0
   35.7030   31.0290   41.3660 O   0  0  0  0  0  0  0  0  0  0  0  0
   34.8030   30.7720   41.0220 H   0  0  0  0  0  0  0  0  0  0  0  0
  1  2  1  0  0  0  0
  1  5  1  0  0  0  0
  1  3  1  0  0  0  0
  4  9  2  0  0  0  0
  4  5  1  0  0  0  0
  5  6  2  0  0  0  0
  6  7  1  0  0  0  0
  6 11  1  0  0  0  0
  8 12  1  0  0  0  0
  8  7  2  0  0  0  0
  9  8  1  0  0  0  0
 10  4  1  0  0  0  0
 13 18  1  0  0  0  0
 13 20  1  1  0  0  0
 14 16  1  0  0  0  0
 14 13  1  0  0  0  0
 15 14  1  0  0  0  0
 16  1  1  1  0  0  0
 17 16  1  0  0  0  0
 17 18  1  0  0  0  0
 18 19  1  0  0  0  0
 21 20  1  0  0  0  0
M  END
>  <minimizedAffinity>
-3.83045745

$$$$

 OpenBabel03252504253D

 21 22  0  0  1  0  0  0  0  0999 V2000
   38.1350   31.3600   39.0100 C   0  0  0  0  0  0  0  0  0  0  0  0
   37.7360   31.0310   38.0380 H   0  0  0  0  0  0  0  0  0  0  0  0
   37.3710   32.0030   39.4990 H   0  0  0  0  0  0  0  0  0  0  0  0
   40.0910   31.9150   37.6450 C   0  0  0  0  0  0  0  0  0  0  0  0
   39.3190   32.2140   38.7900 C   0  0  0  0  0  0  0  0  0  0  0  0
   39.7610   33.2730   39.5720 C   0  0  0  0  0  0  0  0  0  0  0  0
   40.8720   33.9380   39.2040 N   0  0  0  0  0  0  0  0  0  0  0  0
   41.5810   33.6250   38.1080 C   0  0  0  0  0  0  0  0  0  0  0  0
   41.1970   32.6040   37.3110 N   0  0  0  0  0  0  0  0  0  0  0  0
   39.8240   31.1000   36.9680 H   0  0  0  0  0  0  0  0  0  0  0  0
   39.1490   33.4770   40.4400 H   0  0  0  0  0  0  0  0  0  0  0  0
   42.4610   34.1690   37.8380 H   0  0  0  0  0  0  0  0  0  0  0  0
   36.4170   29.9670   41.1460 C   0  0  2  0  0  3  0  0  0  0  0  0
   37.8900   30.2820   41.2660 C   0  0  0  0  0  3  0  0  0  0  0  0
   38.3810   29.5440   41.9310 H   0  0  0  0  0  0  0  0  0  0  0  0
   38.3730   30.1520   39.8420 C   0  0  1  0  0  3  0  0  0  0  0  0
   37.5650   29.1340   39.3420 O   0  0  0  0  0  0  0  0  0  0  0  0
   36.2690   29.3630   39.7640 C   0  0  0  0  0  3  0  0  0  0  0  0
   35.6900   30.0600   39.1580 H   0  0  0  0  0  0  0  0  0  0  0  0
   35.6730   31.1260   41.3140 O   0  0  0  0  0  0  0  0  0  0  0  0
   35.6270   31.2750   42.2980 H   0  0  0  0  0  0  0  0  0  0  0  0
  1  3  1  0  0  0  0
  2  1  1  0  0  0  0
  4  5  1  0  0  0  0
  5  1  1  0  0  0  0
  5  6  2  0  0  0  0
  6 11  1  0  0  0  0
  7  6  1  0  0  0  0
  8  7  2  0  0  0  0
  9  4  2  0  0  0  0
  9  8  1  0  0  0  0
 10  4  1  0  0  0  0
 12  8  1  0  0  0  0
 13 14  1  0  0  0  0
 13 20  1  6  0  0  0
 14 15  1  0  0  0  0
 16  1  1  6  0  0  0
 16 14  1  0  0  0  0
 17 18  1  0  0  0  0
 17 16  1  0  0  0  0
 18 13  1  0  0  0  0
 19 18  1  0  0  0  0
 20 21  1  0  0  0  0
M  END
>  <minimizedAffinity>
-3.82000303

$$$$

 OpenBabel03252504253D

 21 22  0  0  1  0  0  0  0  0999 V2000
   38.4290   29.6400   41.5700 C   0  0  0  0  0  0  0  0  0  0  0  0
   39.3410   29.4110   42.1400 H   0  0  0  0  0  0  0  0  0  0  0  0
   38.4260   29.0160   40.6500 H   0  0  0  0  0  0  0  0  0  0  0  0
   37.3250   31.5120   40.4400 C   0  0  0  0  0  0  0  0  0  0  0  0
   38.4720   31.0450   41.1200 C   0  0  0  0  0  0  0  0  0  0  0  0
   39.5040   31.9600   41.2860 C   0  0  0  0  0  0  0  0  0  0  0  0
   39.3560   33.2080   40.8030 N   0  0  0  0  0  0  0  0  0  0  0  0
   38.2510   33.6160   40.1610 C   0  0  0  0  0  0  0  0  0  0  0  0
   37.2160   32.7680   39.9700 N   0  0  0  0  0  0  0  0  0  0  0  0
   36.4620   30.8670   40.2600 H   0  0  0  0  0  0  0  0  0  0  0  0
   40.3670   31.5740   41.8110 H   0  0  0  0  0  0  0  0  0  0  0  0
   38.1570   34.6120   39.7860 H   0  0  0  0  0  0  0  0  0  0  0  0
   37.3520   26.9320   42.5510 C   0  0  2  0  0  3  0  0  0  0  0  0
   36.5230   28.0480   41.9570 C   0  0  0  0  0  3  0  0  0  0  0  0
   35.4940   28.0120   42.3650 H   0  0  0  0  0  0  0  0  0  0  0  0
   37.2590   29.2850   42.4150 C   0  0  1  0  0  3  0  0  0  0  0  0
   37.7450   28.9010   43.6620 O   0  0  0  0  0  0  0  0  0  0  0  0
   38.2560   27.6210   43.5530 C   0  0  0  0  0  3  0  0  0  0  0  0
   39.2790   27.5500   43.1810 H   0  0  0  0  0  0  0  0  0  0  0  0
   38.0540   26.2820   41.5450 O   0  0  0  0  0  0  0  0  0  0  0  0
   37.4000   25.6590   41.1220 H   0  0  0  0  0  0  0  0  0  0  0  0
  1  2  1  0  0  0  0
  3  1  1  0  0  0  0
  4  5  1  0  0  0  0
  5  6  2  0  0  0  0
  5  1  1  0  0  0  0
  6 11  1  0  0  0  0
  7  6  1  0  0  0  0
  8  7  2  0  0  0  0
  9  8  1  0  0  0  0
  9  4  2  0  0  0  0
 10  4  1  0  0  0  0
 12  8  1  0  0  0  0
 13 20  1  6  0  0  0
 13 18  1  0  0  0  0
 14 15  1  0  0  0  0
 14 16  1  0  0  0  0
 14 13  1  0  0  0  0
 16  1  1  6  0  0  0
 16 17  1  0  0  0  0
 18 17  1  0  0  0  0
 19 18  1  0  0  0  0
 21 20  1  0  0  0  0
M  END
>  <minimizedAffinity>
-3.80796552

$$$$
