
 OpenBabel03242523463D

 19 20  0  0  1  0  0  0  0  0999 V2000
   44.9830   35.5190   44.2910 C   0  0  0  0  0  0  0  0  0  0  0  0
   45.7460   35.1090   43.1780 C   0  0  0  0  0  0  0  0  0  0  0  0
   46.5020   33.9350   43.3330 C   0  0  0  0  0  0  0  0  0  0  0  0
   46.4570   33.2750   44.5190 N   0  0  0  0  0  0  0  0  0  0  0  0
   45.7120   33.7090   45.5490 C   0  0  0  0  0  0  0  0  0  0  0  0
   44.9810   34.8170   45.4450 N   0  0  0  0  0  0  0  0  0  0  0  0
   45.7650   35.6420   42.2640 H   0  0  0  0  0  0  0  0  0  0  0  0
   45.7070   33.1520   46.4730 H   0  0  0  0  0  0  0  0  0  0  0  0
   48.6920   32.9380   42.6950 C   0  0  2  0  0  3  0  0  0  0  0  0
   47.3340   33.4160   42.2370 C   0  0  2  0  0  3  0  0  0  0  0  0
   47.7840   34.4830   41.2500 C   0  0  0  0  0  3  0  0  0  0  0  0
   48.1160   35.3460   41.8680 H   0  0  0  0  0  0  0  0  0  0  0  0
   48.8200   33.8850   40.5560 O   0  0  0  0  0  0  0  0  0  0  0  0
   49.4240   32.9420   41.3550 C   0  0  0  0  0  3  0  0  0  0  0  0
   49.2800   31.9230   40.9220 H   0  0  0  0  0  0  0  0  0  0  0  0
   48.6290   31.6890   43.2770 O   0  0  0  0  0  0  0  0  0  0  0  0
   49.3210   31.5330   43.9490 H   0  0  0  0  0  0  0  0  0  0  0  0
   44.2440   36.6570   44.1550 O   0  0  0  0  0  0  0  0  0  0  0  0
   44.5310   37.4700   44.6870 H   0  0  0  0  0  0  0  0  0  0  0  0
  1  6  1  0  0  0  0
  2  3  1  0  0  0  0
  2  1  2  0  0  0  0
  3  4  2  0  0  0  0
  4  5  1  0  0  0  0
  5  8  1  0  0  0  0
  6  5  2  0  0  0  0
  7  2  1  0  0  0  0
  9 16  1  6  0  0  0
 10  9  1  0  0  0  0
 10  3  1  1  0  0  0
 11 12  1  0  0  0  0
 11 10  1  0  0  0  0
 13 11  1  0  0  0  0
 13 14  1  0  0  0  0
 14  9  1  0  0  0  0
 15 14  1  0  0  0  0
 16 17  1  0  0  0  0
 18  1  1  0  0  0  0
 18 19  1  0  0  0  0
M  END
>  <minimizedAffinity>
-3.92456007

>  <minimizedRMSD>
0.877148628

$$$$
