
 OpenBabel03252507133D

 42 44  0  0  1  0  0  0  0  0999 V2000
   46.6810   34.8290   42.1470 C   0  0  2  0  0  0  0  0  0  0  0  0
   45.7000   35.4540   43.1140 C   0  0  0  0  0  0  0  0  0  0  0  0
   44.3460   35.4810   42.4540 C   0  0  0  0  0  0  0  0  0  0  0  0
   43.8000   34.2090   42.3620 O   0  0  0  0  0  0  0  0  0  0  0  0
   44.7910   33.2650   42.1960 C   0  0  0  0  0  0  0  0  0  0  0  0
   45.9350   33.8000   41.3510 C   0  0  1  0  0  0  0  0  0  0  0  0
   46.9580   35.5980   41.3970 H   0  0  0  0  0  0  0  0  0  0  0  0
   45.6540   34.9050   44.0520 H   0  0  0  0  0  0  0  0  0  0  0  0
   46.0120   36.5120   43.2560 H   0  0  0  0  0  0  0  0  0  0  0  0
   43.6800   36.0010   43.2070 H   0  0  0  0  0  0  0  0  0  0  0  0
   44.2900   36.1010   41.5690 H   0  0  0  0  0  0  0  0  0  0  0  0
   45.2400   33.0970   43.2040 H   0  0  0  0  0  0  0  0  0  0  0  0
   44.4700   32.2800   41.8490 H   0  0  0  0  0  0  0  0  0  0  0  0
   46.6350   32.9010   41.3630 H   0  0  0  0  0  0  0  0  0  0  0  0
   44.6160   33.0310   39.3520 C   0  0  2  0  0  3  0  0  0  0  0  0
   45.6130   34.0150   39.9500 C   0  0  2  0  0  3  0  0  0  0  0  0
   46.7350   33.6610   38.9620 C   0  0  0  0  0  3  0  0  0  0  0  0
   46.4230   33.9290   37.9290 H   0  0  0  0  0  0  0  0  0  0  0  0
   46.7750   32.2450   39.0930 O   0  0  0  0  0  0  0  0  0  0  0  0
   45.4590   31.8860   38.8640 C   0  0  0  0  0  3  0  0  0  0  0  0
   45.2120   30.9400   39.4170 H   0  0  0  0  0  0  0  0  0  0  0  0
   44.0550   33.6160   38.2180 O   0  0  0  0  0  0  0  0  0  0  0  0
   44.4680   34.4990   38.0490 H   0  0  0  0  0  0  0  0  0  0  0  0
   47.8120   34.3700   42.7380 O   0  0  0  0  0  0  0  0  0  0  0  0
   50.4010   34.7520   42.7200 O   0  0  0  0  0  0  0  0  0  0  0  0
   49.2160   34.4530   41.8820 P   0  0  2  0  0  0  0  0  0  0  0  0
   49.0830   35.7310   40.7830 O   0  0  0  0  0  0  0  0  0  0  0  0
   48.8740   36.5750   41.2630 H   0  0  0  0  0  0  0  0  0  0  0  0
   49.4650   33.0000   40.9850 O   0  0  0  0  0  0  0  0  0  0  0  0
   49.8390   31.2820   42.5550 C   0  0  0  0  0  0  0  0  0  0  0  0
   50.2790   31.9920   41.4620 C   0  0  0  0  0  0  0  0  0  0  0  0
   51.5310   31.6580   40.8870 C   0  0  0  0  0  0  0  0  0  0  0  0
   52.2220   30.6430   41.4610 N   0  0  0  0  0  0  0  0  0  0  0  0
   51.7690   29.9850   42.5090 C   0  0  0  0  0  0  0  0  0  0  0  0
   50.5670   30.3130   43.0540 N   0  0  0  0  0  0  0  0  0  0  0  0
   47.4360   30.7720   42.9450 C   0  0  0  0  0  0  0  0  0  0  0  0
   47.2220   30.4370   41.7220 O   0  0  0  0  0  0  0  0  0  0  0  0
   48.7380   31.2200   43.4500 N   0  0  0  0  0  0  0  0  0  0  0  0
   51.7900   32.2560   40.0480 H   0  0  0  0  0  0  0  0  0  0  0  0
   52.3190   29.1680   42.9760 H   0  0  0  0  0  0  0  0  0  0  0  0
   46.5360   30.6770   43.5350 H   0  0  0  0  0  0  0  0  0  0  0  0
   48.7230   31.4650   44.4580 H   0  0  0  0  0  0  0  0  0  0  0  0
  1  7  1  6  0  0  0
  1 24  1  0  0  0  0
  1  2  1  0  0  0  0
  2  9  1  0  0  0  0
  2  8  1  0  0  0  0
  3  2  1  0  0  0  0
  3 10  1  0  0  0  0
  4  3  1  0  0  0  0
  5  4  1  0  0  0  0
  5 12  1  0  0  0  0
  6 14  1  6  0  0  0
  6  1  1  0  0  0  0
  6  5  1  0  0  0  0
 11  3  1  0  0  0  0
 13  5  1  0  0  0  0
 15 22  1  6  0  0  0
 15 16  1  0  0  0  0
 16 17  1  6  0  0  0
 16  6  1  0  0  0  0
 17 19  1  0  0  0  0
 18 17  1  0  0  0  0
 20 19  1  0  0  0  0
 20 15  1  0  0  0  0
 20 21  1  0  0  0  0
 23 22  1  0  0  0  0
 26 25  2  1  0  0  0
 26 24  1  0  0  0  0
 27 28  1  0  0  0  0
 27 26  1  0  0  0  0
 29 31  1  0  0  0  0
 29 26  1  0  0  0  0
 30 35  1  0  0  0  0
 30 38  1  0  0  0  0
 31 30  2  0  0  0  0
 32 33  2  0  0  0  0
 32 31  1  0  0  0  0
 33 34  1  0  0  0  0
 34 40  1  0  0  0  0
 34 35  2  0  0  0  0
 36 38  1  0  0  0  0
 36 41  1  0  0  0  0
 37 36  2  0  0  0  0
 38 42  1  0  0  0  0
 39 32  1  0  0  0  0
M  END
>  <minimizedAffinity>
-4.47539759

>  <minimizedRMSD>
0.583954811

$$$$
