
 OpenBabel03242521303D

 47 50  0  0  1  0  0  0  0  0999 V2000
   48.0670   33.3320   42.3990 C   0  0  1  0  0  0  0  0  0  0  0  0
   46.5980   33.6580   42.1490 C   0  0  2  0  0  0  0  0  0  0  0  0
   46.4410   34.5860   41.1570 O   0  0  0  0  0  0  0  0  0  0  0  0
   46.7840   33.9930   39.9760 C   0  0  0  0  0  0  0  0  0  0  0  0
   48.2680   33.7910   39.9370 C   0  0  2  0  0  0  0  0  0  0  0  0
   48.8760   33.1790   41.1830 C   0  0  2  0  0  0  0  0  0  0  0  0
   48.0660   32.3300   42.9280 H   0  0  0  0  0  0  0  0  0  0  0  0
   46.1200   32.6670   41.9240 H   0  0  0  0  0  0  0  0  0  0  0  0
   46.4930   34.5340   39.0780 H   0  0  0  0  0  0  0  0  0  0  0  0
   46.3030   32.9710   39.9780 H   0  0  0  0  0  0  0  0  0  0  0  0
   48.4410   33.1510   39.0520 H   0  0  0  0  0  0  0  0  0  0  0  0
   49.8410   33.7120   41.3010 H   0  0  0  0  0  0  0  0  0  0  0  0
   44.6070   35.7660   44.5900 C   0  0  0  0  0  0  0  0  0  0  0  0
   45.1880   35.3400   43.3900 C   0  0  0  0  0  0  0  0  0  0  0  0
   45.9630   34.1340   43.3840 C   0  0  0  0  0  0  0  0  0  0  0  0
   46.1060   33.4490   44.5370 N   0  0  0  0  0  0  0  0  0  0  0  0
   45.5180   33.9050   45.6940 C   0  0  0  0  0  0  0  0  0  0  0  0
   44.7760   35.0520   45.7170 N   0  0  0  0  0  0  0  0  0  0  0  0
   44.0190   36.6650   44.6320 H   0  0  0  0  0  0  0  0  0  0  0  0
   45.0610   35.9050   42.4730 H   0  0  0  0  0  0  0  0  0  0  0  0
   45.6820   33.2950   46.5790 H   0  0  0  0  0  0  0  0  0  0  0  0
   48.6410   34.1950   43.3210 O   0  0  0  0  0  0  0  0  0  0  0  0
   48.5420   33.9090   44.2560 H   0  0  0  0  0  0  0  0  0  0  0  0
   48.8070   35.0700   39.7170 O   0  0  0  0  0  0  0  0  0  0  0  0
   48.6150   35.2870   38.7820 H   0  0  0  0  0  0  0  0  0  0  0  0
   49.2390   31.8580   40.8930 O   0  0  0  0  0  0  0  0  0  0  0  0
   51.4090   32.2630   41.7050 N   0  0  0  0  0  0  0  0  0  0  0  0
   51.1300   31.3660   42.8350 C   0  0  0  0  0  0  0  0  0  0  0  0
   51.5600   30.0500   42.2300 C   0  0  0  0  0  0  0  0  0  0  0  0
   50.9120   30.1620   40.8690 C   0  0  0  0  0  0  0  0  0  0  0  0
   50.5740   31.6650   40.6940 C   0  0  1  0  0  0  0  0  0  0  0  0
   51.1220   33.2430   41.9400 H   0  0  0  0  0  0  0  0  0  0  0  0
   50.0870   31.3730   43.1460 H   0  0  0  0  0  0  0  0  0  0  0  0
   51.8510   31.6200   43.6260 H   0  0  0  0  0  0  0  0  0  0  0  0
   52.6410   29.9370   42.2240 H   0  0  0  0  0  0  0  0  0  0  0  0
   51.0620   29.1920   42.7710 H   0  0  0  0  0  0  0  0  0  0  0  0
   49.9540   29.6300   40.8420 H   0  0  0  0  0  0  0  0  0  0  0  0
   51.6240   29.7880   40.1500 H   0  0  0  0  0  0  0  0  0  0  0  0
   50.4290   31.5530   38.1580 C   0  0  1  0  0  0  0  0  0  0  0  0
   51.1830   31.9660   39.3660 C   0  0  2  0  0  0  0  0  0  0  0  0
   52.5070   31.2420   39.2710 C   0  0  0  0  0  0  0  0  0  0  0  0
   53.3710   31.9090   39.0500 H   0  0  0  0  0  0  0  0  0  0  0  0
   52.4280   30.3690   38.2030 O   0  0  0  0  0  0  0  0  0  0  0  0
   51.4450   30.8010   37.3300 C   0  0  0  0  0  0  0  0  0  0  0  0
   51.9360   31.4220   36.5530 H   0  0  0  0  0  0  0  0  0  0  0  0
   49.2960   30.7820   38.4110 O   0  0  0  0  0  0  0  0  0  0  0  0
   48.4850   31.1110   37.9320 H   0  0  0  0  0  0  0  0  0  0  0  0
  1  7  1  1  0  0  0
  1 22  1  0  0  0  0
  2  8  1  6  0  0  0
  2  1  1  0  0  0  0
  2 15  1  0  0  0  0
  3  2  1  0  0  0  0
  4 10  1  0  0  0  0
  4  3  1  0  0  0  0
  5 11  1  6  0  0  0
  5  4  1  0  0  0  0
  5  6  1  0  0  0  0
  6 12  1  1  0  0  0
  6  1  1  0  0  0  0
  9  4  1  0  0  0  0
 13 19  1  0  0  0  0
 13 18  1  0  0  0  0
 14 13  2  0  0  0  0
 15 14  1  0  0  0  0
 15 16  2  0  0  0  0
 16 17  1  0  0  0  0
 17 18  2  0  0  0  0
 17 21  1  0  0  0  0
 20 14  1  0  0  0  0
 22 23  1  0  0  0  0
 24  5  1  0  0  0  0
 25 24  1  0  0  0  0
 26  6  1  0  0  0  0
 27 32  1  0  0  0  0
 27 28  1  0  0  0  0
 28 33  1  0  0  0  0
 28 34  1  0  0  0  0
 29 36  1  0  0  0  0
 29 28  1  0  0  0  0
 30 29  1  0  0  0  0
 31 30  1  0  0  0  0
 31 26  1  1  0  0  0
 31 27  1  0  0  0  0
 35 29  1  0  0  0  0
 37 30  1  0  0  0  0
 38 30  1  0  0  0  0
 39 46  1  1  0  0  0
 39 40  1  0  0  0  0
 40 41  1  1  0  0  0
 40 31  1  0  0  0  0
 42 41  1  0  0  0  0
 43 41  1  0  0  0  0
 44 39  1  0  0  0  0
 44 43  1  0  0  0  0
 45 44  1  0  0  0  0
 47 46  1  0  0  0  0
M  END
>  <minimizedAffinity>
-5.54377937

>  <minimizedRMSD>
0.859154284

$$$$
