
 OpenBabel03252509043D

 48 50  0  0  1  0  0  0  0  0999 V2000
   47.1840   34.0790   42.9780 N   0  0  0  0  0  0  0  0  0  0  0  0
   46.7510   35.3470   42.5290 C   0  0  0  0  0  0  0  0  0  0  0  0
   45.2720   35.6170   42.7610 C   0  0  0  0  0  0  0  0  0  0  0  0
   44.7380   35.0110   44.0370 C   0  0  0  0  0  0  0  0  0  0  0  0
   45.8340   34.3340   44.8380 C   0  0  0  0  0  0  0  0  0  0  0  0
   46.4320   33.2890   43.8110 C   0  0  2  0  0  0  0  0  0  0  0  0
   46.9380   35.5750   41.4760 H   0  0  0  0  0  0  0  0  0  0  0  0
   47.3030   36.1190   43.1070 H   0  0  0  0  0  0  0  0  0  0  0  0
   45.1270   36.7150   42.7110 H   0  0  0  0  0  0  0  0  0  0  0  0
   44.7310   35.1880   41.8830 H   0  0  0  0  0  0  0  0  0  0  0  0
   43.9600   34.2610   43.8220 H   0  0  0  0  0  0  0  0  0  0  0  0
   44.2790   35.7770   44.6920 H   0  0  0  0  0  0  0  0  0  0  0  0
   46.6310   35.0080   45.1460 H   0  0  0  0  0  0  0  0  0  0  0  0
   45.3430   33.7610   45.6400 H   0  0  0  0  0  0  0  0  0  0  0  0
   45.5720   32.7450   43.3730 H   0  0  0  0  0  0  0  0  0  0  0  0
   48.1570   33.4490   42.1210 C   0  0  0  0  0  0  0  0  0  0  0  0
   48.6910   32.6870   42.7610 H   0  0  0  0  0  0  0  0  0  0  0  0
   48.8800   34.1700   41.7260 H   0  0  0  0  0  0  0  0  0  0  0  0
   47.4280   32.6910   41.0740 C   0  0  0  0  0  0  0  0  0  0  0  0
   47.3920   31.5910   41.2280 H   0  0  0  0  0  0  0  0  0  0  0  0
   46.3470   32.9950   41.0100 H   0  0  0  0  0  0  0  0  0  0  0  0
   49.3310   32.3370   37.8580 C   0  0  0  0  0  0  0  0  0  0  0  0
   48.7790   32.0640   39.1260 C   0  0  0  0  0  0  0  0  0  0  0  0
   47.9950   33.0040   39.7410 C   0  0  0  0  0  0  0  0  0  0  0  0
   47.7950   34.1460   39.0920 N   0  0  0  0  0  0  0  0  0  0  0  0
   48.3100   34.4210   37.8910 C   0  0  0  0  0  0  0  0  0  0  0  0
   49.0880   33.5170   37.2530 N   0  0  0  0  0  0  0  0  0  0  0  0
   49.9390   31.5260   37.4530 H   0  0  0  0  0  0  0  0  0  0  0  0
   48.9620   31.1220   39.6270 H   0  0  0  0  0  0  0  0  0  0  0  0
   48.1420   35.3590   37.3650 H   0  0  0  0  0  0  0  0  0  0  0  0
   47.1890   32.5020   44.6610 O   0  0  0  0  0  0  0  0  0  0  0  0
   47.2700   30.0270   43.6750 O   0  0  0  0  0  0  0  0  0  0  0  0
   46.6270   30.9170   44.7370 P   0  0  2  0  0  0  0  0  0  0  0  0
   44.9670   31.0010   44.3070 O   0  0  0  0  0  0  0  0  0  0  0  0
   44.4070   31.0120   45.1240 H   0  0  0  0  0  0  0  0  0  0  0  0
   46.7260   30.2570   46.2690 O   0  0  0  0  0  0  0  0  0  0  0  0
   48.0240   29.8410   46.4860 C   0  0  0  0  0  0  0  0  0  0  0  0
   48.7130   30.6900   46.2180 H   0  0  0  0  0  0  0  0  0  0  0  0
   48.3410   28.9500   45.9530 H   0  0  0  0  0  0  0  0  0  0  0  0
   49.7720   30.7360   49.4090 C   0  0  2  0  0  3  0  0  0  0  0  0
   49.6560   29.6560   48.3730 C   0  0  0  0  0  3  0  0  0  0  0  0
   50.3500   29.7650   47.5150 H   0  0  0  0  0  0  0  0  0  0  0  0
   48.2010   29.6910   48.0040 C   0  0  1  0  0  3  0  0  0  0  0  0
   47.6090   30.7220   48.6820 O   0  0  0  0  0  0  0  0  0  0  0  0
   48.5950   31.6210   49.0560 C   0  0  0  0  0  3  0  0  0  0  0  0
   48.2510   32.2210   49.9330 H   0  0  0  0  0  0  0  0  0  0  0  0
   50.9820   31.4030   49.2250 O   0  0  0  0  0  0  0  0  0  0  0  0
   51.1820   31.3930   48.2380 H   0  0  0  0  0  0  0  0  0  0  0  0
  1  6  1  0  0  0  0
  2  3  1  0  0  0  0
  2  1  1  0  0  0  0
  2  8  1  0  0  0  0
  3  4  1  0  0  0  0
  4 12  1  0  0  0  0
  4  5  1  0  0  0  0
  5 13  1  0  0  0  0
  5 14  1  0  0  0  0
  6 15  1  6  0  0  0
  6 31  1  0  0  0  0
  6  5  1  0  0  0  0
  7  2  1  0  0  0  0
  9  3  1  0  0  0  0
 10  3  1  0  0  0  0
 11  4  1  0  0  0  0
 16 17  1  0  0  0  0
 16  1  1  0  0  0  0
 18 16  1  0  0  0  0
 19 20  1  0  0  0  0
 19 16  1  0  0  0  0
 21 19  1  0  0  0  0
 22 23  1  0  0  0  0
 23 29  1  0  0  0  0
 23 24  2  0  0  0  0
 24 19  1  0  0  0  0
 25 24  1  0  0  0  0
 26 25  2  0  0  0  0
 27 22  2  0  0  0  0
 27 26  1  0  0  0  0
 28 22  1  0  0  0  0
 30 26  1  0  0  0  0
 31 33  1  0  0  0  0
 33 32  2  6  0  0  0
 33 36  1  0  0  0  0
 34 33  1  0  0  0  0
 34 35  1  0  0  0  0
 36 37  1  0  0  0  0
 38 37  1  0  0  0  0
 39 37  1  0  0  0  0
 40 47  1  6  0  0  0
 41 40  1  0  0  0  0
 42 41  1  0  0  0  0
 43 37  1  6  0  0  0
 43 41  1  0  0  0  0
 43 44  1  0  0  0  0
 44 45  1  0  0  0  0
 45 40  1  0  0  0  0
 45 46  1  0  0  0  0
 48 47  1  0  0  0  0
M  END
>  <minimizedAffinity>
-4.42631531

>  <minimizedRMSD>
1.89892709

$$$$
