
 OpenBabel03252501453D

 23 24  0  0  1  0  0  0  0  0999 V2000
   44.7430   35.0740   44.7780 C   0  0  0  0  0  0  0  0  0  0  0  0
   44.9620   34.3490   43.6090 C   0  0  0  0  0  0  0  0  0  0  0  0
   45.5340   33.0870   43.7320 C   0  0  0  0  0  0  0  0  0  0  0  0
   45.8520   32.6150   44.9650 N   0  0  0  0  0  0  0  0  0  0  0  0
   45.6210   33.3580   46.0800 C   0  0  0  0  0  0  0  0  0  0  0  0
   45.0700   34.5780   45.9850 N   0  0  0  0  0  0  0  0  0  0  0  0
   44.2950   36.0740   44.7230 H   0  0  0  0  0  0  0  0  0  0  0  0
   45.7400   32.4510   42.8830 H   0  0  0  0  0  0  0  0  0  0  0  0
   45.2230   31.6900   47.8980 C   0  0  1  0  0  3  0  0  0  0  0  0
   45.9320   32.9300   47.4600 C   0  0  1  0  0  3  0  0  0  0  0  0
   47.3730   32.4230   47.4430 C   0  0  0  0  0  3  0  0  0  0  0  0
   48.0250   33.3050   47.4790 H   0  0  0  0  0  0  0  0  0  0  0  0
   47.4860   31.5630   48.5140 O   0  0  0  0  0  0  0  0  0  0  0  0
   46.2570   30.9660   48.7170 C   0  0  0  0  0  3  0  0  0  0  0  0
   46.0070   31.1110   49.8010 H   0  0  0  0  0  0  0  0  0  0  0  0
   44.0580   31.9240   48.6100 O   0  0  0  0  0  0  0  0  0  0  0  0
   43.4860   31.1000   48.5300 H   0  0  0  0  0  0  0  0  0  0  0  0
   44.6160   34.8670   42.3010 C   0  0  0  0  0  3  0  0  0  0  0  0
   43.4400   34.7350   41.7080 C   0  0  0  0  0  3  0  0  0  0  0  0
   43.1850   35.3140   40.3380 C   0  0  0  0  0  0  0  0  0  0  0  0
   43.2780   34.5560   39.5390 H   0  0  0  0  0  0  0  0  0  0  0  0
   43.9690   36.0900   40.1940 H   0  0  0  0  0  0  0  0  0  0  0  0
   42.2230   35.8310   40.3520 H   0  0  0  0  0  0  0  0  0  0  0  0
  1  6  1  0  0  0  0
  2  3  1  0  0  0  0
  2  1  2  0  0  0  0
  3  4  2  0  0  0  0
  4  5  1  0  0  0  0
  6  5  2  0  0  0  0
  7  1  1  0  0  0  0
  8  3  1  0  0  0  0
  9 16  1  1  0  0  0
  9 14  1  0  0  0  0
 10  5  1  6  0  0  0
 10  9  1  0  0  0  0
 11 10  1  0  0  0  0
 11 12  1  0  0  0  0
 11 13  1  0  0  0  0
 13 14  1  0  0  0  0
 14 15  1  0  0  0  0
 17 16  1  0  0  0  0
 18  2  1  0  0  0  0
 19 18  2  0  0  0  0
 20 23  1  0  0  0  0
 20 19  1  0  0  0  0
 21 20  1  0  0  0  0
 22 20  1  0  0  0  0
M  END
>  <minimizedAffinity>
-4.46975279

>  <minimizedRMSD>
1.29165089

$$$$
