
 OpenBabel03252505153D

 25 27  0  0  1  0  0  0  0  0999 V2000
   45.0150   35.3080   44.2150 C   0  0  0  0  0  0  0  0  0  0  0  0
   45.6550   35.6490   43.0120 C   0  0  0  0  0  0  0  0  0  0  0  0
   46.6990   34.7960   42.6400 C   0  0  0  0  0  0  0  0  0  0  0  0
   47.0290   33.7220   43.4320 N   0  0  0  0  0  0  0  0  0  0  0  0
   46.3680   33.4480   44.5850 C   0  0  0  0  0  0  0  0  0  0  0  0
   45.3610   34.2500   44.9660 N   0  0  0  0  0  0  0  0  0  0  0  0
   44.1890   35.9290   44.5710 H   0  0  0  0  0  0  0  0  0  0  0  0
   45.3770   36.4890   42.4200 H   0  0  0  0  0  0  0  0  0  0  0  0
   47.4530   35.0370   41.3620 C   0  0  0  0  0  0  0  0  0  0  0  0
   48.8110   35.6630   41.6010 C   0  0  0  0  0  0  0  0  0  0  0  0
   48.6160   34.2050   41.0880 C   0  0  0  0  0  0  0  0  0  0  0  0
   46.8400   35.4710   40.5500 H   0  0  0  0  0  0  0  0  0  0  0  0
   49.1230   36.3880   40.8220 H   0  0  0  0  0  0  0  0  0  0  0  0
   49.1740   35.8070   42.6210 H   0  0  0  0  0  0  0  0  0  0  0  0
   48.9130   33.4500   41.8730 H   0  0  0  0  0  0  0  0  0  0  0  0
   48.9970   34.0040   40.0690 H   0  0  0  0  0  0  0  0  0  0  0  0
   45.8370   31.1790   45.3680 C   0  0  2  0  0  3  0  0  0  0  0  0
   46.9120   32.2380   45.2520 C   0  0  1  0  0  3  0  0  0  0  0  0
   47.9200   31.5360   44.3510 C   0  0  0  0  0  3  0  0  0  0  0  0
   48.9110   31.5280   44.8320 H   0  0  0  0  0  0  0  0  0  0  0  0
   47.4700   30.2480   44.1520 O   0  0  0  0  0  0  0  0  0  0  0  0
   46.6760   29.9050   45.2200 C   0  0  0  0  0  3  0  0  0  0  0  0
   47.3270   29.8000   46.1000 H   0  0  0  0  0  0  0  0  0  0  0  0
   44.8900   31.2820   44.3820 O   0  0  0  0  0  0  0  0  0  0  0  0
   44.5130   30.3900   44.1130 H   0  0  0  0  0  0  0  0  0  0  0  0
  1  7  1  0  0  0  0
  1  6  1  0  0  0  0
  2  1  2  0  0  0  0
  3  2  1  0  0  0  0
  3  4  2  0  0  0  0
  4  5  1  0  0  0  0
  5  6  2  0  0  0  0
  8  2  1  0  0  0  0
  9 10  1  0  0  0  0
  9  3  1  0  0  0  0
 10 14  1  0  0  0  0
 11  9  1  0  0  0  0
 11 10  1  0  0  0  0
 11 15  1  0  0  0  0
 12  9  1  0  0  0  0
 13 10  1  0  0  0  0
 16 11  1  0  0  0  0
 17 24  1  6  0  0  0
 18  5  1  6  0  0  0
 18 17  1  0  0  0  0
 19 20  1  0  0  0  0
 19 18  1  0  0  0  0
 21 19  1  0  0  0  0
 21 22  1  0  0  0  0
 22 17  1  0  0  0  0
 22 23  1  0  0  0  0
 25 24  1  0  0  0  0
M  END
>  <minimizedAffinity>
-4.22265053

>  <minimizedRMSD>
2.55686688

$$$$
