
 OpenBabel03242521063D

 34 37  0  0  1  0  0  0  0  0999 V2000
   37.4180   30.7810   40.6580 C   0  0  0  0  0  0  0  0  0  0  0  0
   36.2160   30.7490   39.9780 C   0  0  0  0  0  0  0  0  0  0  0  0
   35.3240   29.7150   39.9960 C   0  0  0  0  0  0  0  0  0  0  0  0
   35.6150   28.5930   40.7470 C   0  0  0  0  0  0  0  0  0  0  0  0
   36.8180   28.6350   41.4230 C   0  0  0  0  0  0  0  0  0  0  0  0
   37.6570   29.6700   41.3730 N   0  0  0  0  0  0  0  0  0  0  0  0
   35.9230   31.5960   39.3690 H   0  0  0  0  0  0  0  0  0  0  0  0
   34.3900   29.7310   39.4480 H   0  0  0  0  0  0  0  0  0  0  0  0
   34.9220   27.7720   40.7710 H   0  0  0  0  0  0  0  0  0  0  0  0
   39.0300   34.1610   40.2690 C   0  0  0  0  0  0  0  0  0  0  0  0
   38.0060   33.1980   40.2650 C   0  0  0  0  0  0  0  0  0  0  0  0
   38.3360   31.9060   40.6070 C   0  0  0  0  0  0  0  0  0  0  0  0
   39.6310   31.6390   40.9240 N   0  0  0  0  0  0  0  0  0  0  0  0
   40.5990   32.5860   40.9200 C   0  0  0  0  0  0  0  0  0  0  0  0
   40.2800   33.8400   40.5900 N   0  0  0  0  0  0  0  0  0  0  0  0
   38.7220   35.1640   39.9950 H   0  0  0  0  0  0  0  0  0  0  0  0
   36.9730   33.3830   40.0180 H   0  0  0  0  0  0  0  0  0  0  0  0
   41.6210   32.3670   41.1720 H   0  0  0  0  0  0  0  0  0  0  0  0
   37.1800   27.4450   42.2500 C   0  0  2  0  0  0  0  0  0  0  0  0
   36.7190   27.5080   43.6800 C   0  0  0  0  0  0  0  0  0  0  0  0
   38.1810   27.5960   43.3000 C   0  0  1  0  0  0  0  0  0  0  0  0
   37.0530   26.4480   41.7780 H   0  0  0  0  0  0  0  0  0  0  0  0
   36.3110   26.5960   44.1450 H   0  0  0  0  0  0  0  0  0  0  0  0
   36.2000   28.4230   44.0630 H   0  0  0  0  0  0  0  0  0  0  0  0
   38.6460   28.5730   43.5410 H   0  0  0  0  0  0  0  0  0  0  0  0
   39.2060   25.5060   42.3490 C   0  0  1  0  0  3  0  0  0  0  0  0
   39.1070   26.4430   43.5520 C   0  0  1  0  0  3  0  0  0  0  0  0
   40.5600   26.8220   43.6800 C   0  0  0  0  0  3  0  0  0  0  0  0
   40.9030   27.5010   42.8920 H   0  0  0  0  0  0  0  0  0  0  0  0
   41.2050   25.6020   43.5610 O   0  0  0  0  0  0  0  0  0  0  0  0
   40.5050   24.8340   42.6490 C   0  0  0  0  0  3  0  0  0  0  0  0
   40.2410   23.8800   43.1910 H   0  0  0  0  0  0  0  0  0  0  0  0
   38.1150   24.6500   42.4210 O   0  0  0  0  0  0  0  0  0  0  0  0
   38.0840   23.9910   41.7070 H   0  0  0  0  0  0  0  0  0  0  0  0
  1  6  1  0  0  0  0
  2  3  1  0  0  0  0
  2  1  2  0  0  0  0
  3  4  2  0  0  0  0
  4  9  1  0  0  0  0
  4  5  1  0  0  0  0
  5 19  1  0  0  0  0
  6  5  2  0  0  0  0
  7  2  1  0  0  0  0
  8  3  1  0  0  0  0
 10 15  1  0  0  0  0
 11 10  2  0  0  0  0
 11 12  1  0  0  0  0
 12  1  1  0  0  0  0
 12 13  2  0  0  0  0
 14 13  1  0  0  0  0
 14 18  1  0  0  0  0
 15 14  2  0  0  0  0
 16 10  1  0  0  0  0
 17 11  1  0  0  0  0
 19 22  1  6  0  0  0
 19 21  1  0  0  0  0
 19 20  1  0  0  0  0
 20 24  1  0  0  0  0
 20 23  1  0  0  0  0
 21 25  1  1  0  0  0
 21 27  1  0  0  0  0
 21 20  1  0  0  0  0
 26 33  1  1  0  0  0
 26 31  1  0  0  0  0
 26 27  1  0  0  0  0
 27 28  1  6  0  0  0
 29 28  1  0  0  0  0
 30 28  1  0  0  0  0
 31 32  1  0  0  0  0
 31 30  1  0  0  0  0
 34 33  1  0  0  0  0
M  END
>  <minimizedAffinity>
-5.93570137

$$$$

 OpenBabel03242521063D

 34 37  0  0  1  0  0  0  0  0999 V2000
   37.1840   26.8390   41.5410 C   0  0  0  0  0  0  0  0  0  0  0  0
   37.4760   26.8990   42.8900 C   0  0  0  0  0  0  0  0  0  0  0  0
   37.6720   28.0440   43.6080 C   0  0  0  0  0  0  0  0  0  0  0  0
   37.5790   29.2610   42.9630 C   0  0  0  0  0  0  0  0  0  0  0  0
   37.2870   29.1920   41.6160 C   0  0  0  0  0  0  0  0  0  0  0  0
   37.1040   28.0460   40.9590 N   0  0  0  0  0  0  0  0  0  0  0  0
   37.5640   25.9800   43.4600 H   0  0  0  0  0  0  0  0  0  0  0  0
   37.9000   28.0460   44.6670 H   0  0  0  0  0  0  0  0  0  0  0  0
   37.7310   30.1710   43.5160 H   0  0  0  0  0  0  0  0  0  0  0  0
   36.9670   23.2370   40.4720 C   0  0  0  0  0  0  0  0  0  0  0  0
   37.2180   24.3320   41.3160 C   0  0  0  0  0  0  0  0  0  0  0  0
   36.9840   25.5940   40.8210 C   0  0  0  0  0  0  0  0  0  0  0  0
   36.5260   25.7060   39.5450 N   0  0  0  0  0  0  0  0  0  0  0  0
   36.2930   24.6340   38.7510 C   0  0  0  0  0  0  0  0  0  0  0  0
   36.5190   23.4080   39.2320 N   0  0  0  0  0  0  0  0  0  0  0  0
   37.1660   22.2630   40.9060 H   0  0  0  0  0  0  0  0  0  0  0  0
   37.5800   24.2700   42.3300 H   0  0  0  0  0  0  0  0  0  0  0  0
   35.9300   24.7300   37.7440 H   0  0  0  0  0  0  0  0  0  0  0  0
   37.1750   30.4830   40.8720 C   0  0  2  0  0  0  0  0  0  0  0  0
   36.3340   30.4200   39.6270 C   0  0  0  0  0  0  0  0  0  0  0  0
   37.8350   30.6100   39.5790 C   0  0  1  0  0  0  0  0  0  0  0  0
   37.0160   31.3990   41.4790 H   0  0  0  0  0  0  0  0  0  0  0  0
   35.6530   31.2580   39.4050 H   0  0  0  0  0  0  0  0  0  0  0  0
   35.8980   29.4450   39.2920 H   0  0  0  0  0  0  0  0  0  0  0  0
   38.3750   29.7670   39.1020 H   0  0  0  0  0  0  0  0  0  0  0  0
   38.3020   32.9520   40.3650 C   0  0  1  0  0  3  0  0  0  0  0  0
   38.4270   31.9420   39.2250 C   0  0  1  0  0  3  0  0  0  0  0  0
   39.9260   31.9400   39.0700 C   0  0  0  0  0  3  0  0  0  0  0  0
   40.4460   31.4280   39.8850 H   0  0  0  0  0  0  0  0  0  0  0  0
   40.2350   33.2910   39.0920 O   0  0  0  0  0  0  0  0  0  0  0  0
   39.3770   33.9130   39.9790 C   0  0  0  0  0  3  0  0  0  0  0  0
   38.8660   34.7280   39.3900 H   0  0  0  0  0  0  0  0  0  0  0  0
   37.0250   33.4920   40.2780 O   0  0  0  0  0  0  0  0  0  0  0  0
   36.8370   34.1680   40.9510 H   0  0  0  0  0  0  0  0  0  0  0  0
  1  2  1  0  0  0  0
  2  7  1  0  0  0  0
  2  3  2  0  0  0  0
  3  8  1  0  0  0  0
  4  9  1  0  0  0  0
  4  3  1  0  0  0  0
  5  4  2  0  0  0  0
  6  1  2  0  0  0  0
  6  5  1  0  0  0  0
 10 16  1  0  0  0  0
 10 11  1  0  0  0  0
 11 17  1  0  0  0  0
 12 11  2  0  0  0  0
 12  1  1  0  0  0  0
 13 12  1  0  0  0  0
 14 15  1  0  0  0  0
 14 13  2  0  0  0  0
 15 10  2  0  0  0  0
 18 14  1  0  0  0  0
 19 22  1  1  0  0  0
 19  5  1  0  0  0  0
 20 19  1  0  0  0  0
 21 25  1  6  0  0  0
 21 20  1  0  0  0  0
 21 19  1  0  0  0  0
 23 20  1  0  0  0  0
 24 20  1  0  0  0  0
 26 33  1  6  0  0  0
 27 28  1  1  0  0  0
 27 21  1  0  0  0  0
 27 26  1  0  0  0  0
 28 30  1  0  0  0  0
 28 29  1  0  0  0  0
 30 31  1  0  0  0  0
 31 26  1  0  0  0  0
 32 31  1  0  0  0  0
 33 34  1  0  0  0  0
M  END
>  <minimizedAffinity>
-5.71667957

$$$$

 OpenBabel03242521063D

 34 37  0  0  1  0  0  0  0  0999 V2000
   37.5150   28.2330   41.7410 C   0  0  0  0  0  0  0  0  0  0  0  0
   36.2340   28.0900   41.2440 C   0  0  0  0  0  0  0  0  0  0  0  0
   35.4800   29.0880   40.6950 C   0  0  0  0  0  0  0  0  0  0  0  0
   36.0130   30.3590   40.6140 C   0  0  0  0  0  0  0  0  0  0  0  0
   37.2930   30.4930   41.1120 C   0  0  0  0  0  0  0  0  0  0  0  0
   37.9890   29.4850   41.6390 N   0  0  0  0  0  0  0  0  0  0  0  0
   35.7530   27.1180   41.2770 H   0  0  0  0  0  0  0  0  0  0  0  0
   34.4780   28.9310   40.3170 H   0  0  0  0  0  0  0  0  0  0  0  0
   35.4310   31.1550   40.1840 H   0  0  0  0  0  0  0  0  0  0  0  0
   39.9260   26.0890   43.6790 C   0  0  0  0  0  0  0  0  0  0  0  0
   39.2990   27.2640   43.2300 C   0  0  0  0  0  0  0  0  0  0  0  0
   38.2770   27.1390   42.3170 C   0  0  0  0  0  0  0  0  0  0  0  0
   37.9370   25.8880   41.9040 N   0  0  0  0  0  0  0  0  0  0  0  0
   38.5580   24.7720   42.3520 C   0  0  0  0  0  0  0  0  0  0  0  0
   39.5500   24.8920   43.2390 N   0  0  0  0  0  0  0  0  0  0  0  0
   40.7250   26.2370   44.3980 H   0  0  0  0  0  0  0  0  0  0  0  0
   39.5490   28.2660   43.5410 H   0  0  0  0  0  0  0  0  0  0  0  0
   38.2830   23.7870   42.0210 H   0  0  0  0  0  0  0  0  0  0  0  0
   37.9150   31.8500   41.0460 C   0  0  2  0  0  0  0  0  0  0  0  0
   37.5060   32.6730   39.8560 C   0  0  0  0  0  0  0  0  0  0  0  0
   38.9060   32.1210   40.0130 C   0  0  1  0  0  0  0  0  0  0  0  0
   37.9690   32.4240   41.9960 H   0  0  0  0  0  0  0  0  0  0  0  0
   37.3050   33.7480   40.0000 H   0  0  0  0  0  0  0  0  0  0  0  0
   36.8330   32.2370   39.0760 H   0  0  0  0  0  0  0  0  0  0  0  0
   39.1790   31.3730   39.2400 H   0  0  0  0  0  0  0  0  0  0  0  0
   41.2490   32.2560   40.9150 C   0  0  1  0  0  3  0  0  0  0  0  0
   40.0510   33.0250   40.3630 C   0  0  1  0  0  3  0  0  0  0  0  0
   40.7140   33.6830   39.1800 C   0  0  0  0  0  3  0  0  0  0  0  0
   40.9330   32.9890   38.3630 H   0  0  0  0  0  0  0  0  0  0  0  0
   41.8970   34.1600   39.7200 O   0  0  0  0  0  0  0  0  0  0  0  0
   42.3340   33.2490   40.6640 C   0  0  0  0  0  3  0  0  0  0  0  0
   42.4470   33.8330   41.6230 H   0  0  0  0  0  0  0  0  0  0  0  0
   40.9980   32.0460   42.2640 O   0  0  0  0  0  0  0  0  0  0  0  0
   41.7100   31.5740   42.7290 H   0  0  0  0  0  0  0  0  0  0  0  0
  1 12  1  0  0  0  0
  2  7  1  0  0  0  0
  2  1  2  0  0  0  0
  3  2  1  0  0  0  0
  4  3  2  0  0  0  0
  4  5  1  0  0  0  0
  5  6  2  0  0  0  0
  6  1  1  0  0  0  0
  8  3  1  0  0  0  0
  9  4  1  0  0  0  0
 10 16  1  0  0  0  0
 11 17  1  0  0  0  0
 11 10  2  0  0  0  0
 12 11  1  0  0  0  0
 13 12  2  0  0  0  0
 13 14  1  0  0  0  0
 14 15  2  0  0  0  0
 15 10  1  0  0  0  0
 18 14  1  0  0  0  0
 19  5  1  0  0  0  0
 19 22  1  1  0  0  0
 20 23  1  0  0  0  0
 20 21  1  0  0  0  0
 20 19  1  0  0  0  0
 21 25  1  6  0  0  0
 21 27  1  0  0  0  0
 21 19  1  0  0  0  0
 24 20  1  0  0  0  0
 26 33  1  1  0  0  0
 27 28  1  6  0  0  0
 27 26  1  0  0  0  0
 28 30  1  0  0  0  0
 29 28  1  0  0  0  0
 30 31  1  0  0  0  0
 31 26  1  0  0  0  0
 31 32  1  0  0  0  0
 33 34  1  0  0  0  0
M  END
>  <minimizedAffinity>
-5.52386951

$$$$

 OpenBabel03242521063D

 34 37  0  0  1  0  0  0  0  0999 V2000
   37.5890   27.2290   40.5620 C   0  0  0  0  0  0  0  0  0  0  0  0
   36.7290   26.4400   39.8220 C   0  0  0  0  0  0  0  0  0  0  0  0
   35.9460   26.8750   38.7900 C   0  0  0  0  0  0  0  0  0  0  0  0
   35.9920   28.2070   38.4310 C   0  0  0  0  0  0  0  0  0  0  0  0
   36.8540   28.9870   39.1760 C   0  0  0  0  0  0  0  0  0  0  0  0
   37.5990   28.5150   40.1760 N   0  0  0  0  0  0  0  0  0  0  0  0
   36.6420   25.3840   40.0490 H   0  0  0  0  0  0  0  0  0  0  0  0
   35.2850   26.2210   38.2350 H   0  0  0  0  0  0  0  0  0  0  0  0
   35.3820   28.5630   37.6210 H   0  0  0  0  0  0  0  0  0  0  0  0
   39.6530   26.7920   43.6800 C   0  0  0  0  0  0  0  0  0  0  0  0
   38.8770   27.4560   42.7140 C   0  0  0  0  0  0  0  0  0  0  0  0
   38.4020   26.7190   41.6530 C   0  0  0  0  0  0  0  0  0  0  0  0
   38.7130   25.3960   41.6010 N   0  0  0  0  0  0  0  0  0  0  0  0
   39.4630   24.7800   42.5460 C   0  0  0  0  0  0  0  0  0  0  0  0
   39.9240   25.4940   43.5760 N   0  0  0  0  0  0  0  0  0  0  0  0
   40.0040   27.4120   44.4970 H   0  0  0  0  0  0  0  0  0  0  0  0
   38.6160   28.5020   42.7310 H   0  0  0  0  0  0  0  0  0  0  0  0
   39.7050   23.7340   42.4990 H   0  0  0  0  0  0  0  0  0  0  0  0
   36.9410   30.4370   38.8270 C   0  0  2  0  0  0  0  0  0  0  0  0
   37.2610   30.7190   37.3850 C   0  0  0  0  0  0  0  0  0  0  0  0
   38.2430   31.0050   38.5000 C   0  0  1  0  0  0  0  0  0  0  0  0
   36.1640   31.1040   39.2570 H   0  0  0  0  0  0  0  0  0  0  0  0
   36.7300   31.5410   36.8760 H   0  0  0  0  0  0  0  0  0  0  0  0
   37.4680   29.8750   36.6800 H   0  0  0  0  0  0  0  0  0  0  0  0
   39.1640   30.3900   38.4500 H   0  0  0  0  0  0  0  0  0  0  0  0
   38.1160   32.6630   40.3860 C   0  0  1  0  0  3  0  0  0  0  0  0
   38.5190   32.4140   38.9330 C   0  0  1  0  0  3  0  0  0  0  0  0
   39.9820   32.7660   39.0280 C   0  0  0  0  0  3  0  0  0  0  0  0
   40.5750   32.0160   39.5590 H   0  0  0  0  0  0  0  0  0  0  0  0
   39.9640   33.9480   39.7500 O   0  0  0  0  0  0  0  0  0  0  0  0
   38.9500   33.8640   40.6850 C   0  0  0  0  0  3  0  0  0  0  0  0
   38.2850   34.7560   40.4970 H   0  0  0  0  0  0  0  0  0  0  0  0
   36.7530   32.9270   40.3800 O   0  0  0  0  0  0  0  0  0  0  0  0
   36.3850   33.1200   41.2590 H   0  0  0  0  0  0  0  0  0  0  0  0
  1 12  1  0  0  0  0
  2  7  1  0  0  0  0
  2  1  2  0  0  0  0
  3  2  1  0  0  0  0
  4  3  2  0  0  0  0
  4  5  1  0  0  0  0
  5  6  2  0  0  0  0
  6  1  1  0  0  0  0
  8  3  1  0  0  0  0
  9  4  1  0  0  0  0
 10 16  1  0  0  0  0
 11 17  1  0  0  0  0
 11 10  2  0  0  0  0
 12 11  1  0  0  0  0
 13 12  2  0  0  0  0
 13 14  1  0  0  0  0
 14 15  2  0  0  0  0
 15 10  1  0  0  0  0
 18 14  1  0  0  0  0
 19  5  1  0  0  0  0
 19 22  1  1  0  0  0
 20 21  1  0  0  0  0
 20 19  1  0  0  0  0
 21 25  1  1  0  0  0
 21 19  1  0  0  0  0
 21 27  1  0  0  0  0
 23 20  1  0  0  0  0
 24 20  1  0  0  0  0
 26 33  1  6  0  0  0
 26 31  1  0  0  0  0
 27 28  1  1  0  0  0
 27 26  1  0  0  0  0
 28 29  1  0  0  0  0
 28 30  1  0  0  0  0
 30 31  1  0  0  0  0
 32 31  1  0  0  0  0
 33 34  1  0  0  0  0
M  END
>  <minimizedAffinity>
-5.51596785

$$$$

 OpenBabel03242521063D

 34 37  0  0  1  0  0  0  0  0999 V2000
   38.7780   31.0530   41.3650 C   0  0  0  0  0  0  0  0  0  0  0  0
   37.8980   31.8690   40.6810 C   0  0  0  0  0  0  0  0  0  0  0  0
   36.6140   31.5460   40.3480 C   0  0  0  0  0  0  0  0  0  0  0  0
   36.1210   30.3070   40.7100 C   0  0  0  0  0  0  0  0  0  0  0  0
   37.0070   29.4990   41.3930 C   0  0  0  0  0  0  0  0  0  0  0  0
   38.2550   29.8610   41.6950 N   0  0  0  0  0  0  0  0  0  0  0  0
   38.2180   32.8560   40.3660 H   0  0  0  0  0  0  0  0  0  0  0  0
   35.9560   32.2170   39.8110 H   0  0  0  0  0  0  0  0  0  0  0  0
   35.1120   30.0390   40.4540 H   0  0  0  0  0  0  0  0  0  0  0  0
   42.1970   31.4280   42.8970 C   0  0  0  0  0  0  0  0  0  0  0  0
   40.8940   30.9280   42.7250 C   0  0  0  0  0  0  0  0  0  0  0  0
   40.1380   31.4430   41.6960 C   0  0  0  0  0  0  0  0  0  0  0  0
   40.6940   32.4050   40.9120 N   0  0  0  0  0  0  0  0  0  0  0  0
   41.9520   32.8690   41.0990 C   0  0  0  0  0  0  0  0  0  0  0  0
   42.6870   32.3690   42.0960 N   0  0  0  0  0  0  0  0  0  0  0  0
   42.7540   30.9920   43.7180 H   0  0  0  0  0  0  0  0  0  0  0  0
   40.4300   30.1670   43.3310 H   0  0  0  0  0  0  0  0  0  0  0  0
   42.3850   33.6290   40.4750 H   0  0  0  0  0  0  0  0  0  0  0  0
   36.5230   28.1480   41.8070 C   0  0  2  0  0  0  0  0  0  0  0  0
   36.8860   27.7520   43.2110 C   0  0  0  0  0  0  0  0  0  0  0  0
   37.4950   27.0800   42.0010 C   0  0  1  0  0  0  0  0  0  0  0  0
   35.4860   27.8750   41.5140 H   0  0  0  0  0  0  0  0  0  0  0  0
   36.1330   27.2310   43.8270 H   0  0  0  0  0  0  0  0  0  0  0  0
   37.5230   28.4260   43.8380 H   0  0  0  0  0  0  0  0  0  0  0  0
   38.5870   27.2450   41.9020 H   0  0  0  0  0  0  0  0  0  0  0  0
   37.3400   25.4030   40.1340 C   0  0  1  0  0  3  0  0  0  0  0  0
   37.0900   25.6880   41.6140 C   0  0  1  0  0  3  0  0  0  0  0  0
   37.9410   24.5980   42.2140 C   0  0  0  0  0  3  0  0  0  0  0  0
   39.0150   24.7870   42.1250 H   0  0  0  0  0  0  0  0  0  0  0  0
   37.5950   23.4910   41.4570 O   0  0  0  0  0  0  0  0  0  0  0  0
   37.3740   23.9110   40.1590 C   0  0  0  0  0  3  0  0  0  0  0  0
   36.3280   23.5730   39.9020 H   0  0  0  0  0  0  0  0  0  0  0  0
   36.2500   25.9160   39.4420 O   0  0  0  0  0  0  0  0  0  0  0  0
   36.2920   25.7750   38.4810 H   0  0  0  0  0  0  0  0  0  0  0  0
  1  6  1  0  0  0  0
  1 12  1  0  0  0  0
  2  1  2  0  0  0  0
  3  2  1  0  0  0  0
  3  4  2  0  0  0  0
  4  5  1  0  0  0  0
  5  6  2  0  0  0  0
  5 19  1  0  0  0  0
  7  2  1  0  0  0  0
  8  3  1  0  0  0  0
  9  4  1  0  0  0  0
 10 16  1  0  0  0  0
 11 10  1  0  0  0  0
 11 17  1  0  0  0  0
 12 11  2  0  0  0  0
 13 14  2  0  0  0  0
 13 12  1  0  0  0  0
 14 15  1  0  0  0  0
 15 10  2  0  0  0  0
 18 14  1  0  0  0  0
 19 22  1  6  0  0  0
 19 21  1  0  0  0  0
 19 20  1  0  0  0  0
 20 23  1  0  0  0  0
 20 24  1  0  0  0  0
 21 25  1  6  0  0  0
 21 20  1  0  0  0  0
 26 33  1  6  0  0  0
 26 31  1  0  0  0  0
 26 27  1  0  0  0  0
 27 21  1  0  0  0  0
 27 28  1  1  0  0  0
 29 28  1  0  0  0  0
 30 28  1  0  0  0  0
 31 30  1  0  0  0  0
 32 31  1  0  0  0  0
 34 33  1  0  0  0  0
M  END
>  <minimizedAffinity>
-5.45047998

$$$$

 OpenBabel03242521063D

 34 37  0  0  1  0  0  0  0  0999 V2000
   38.5610   24.8430   41.9600 C   0  0  0  0  0  0  0  0  0  0  0  0
   39.5670   24.3850   42.7890 C   0  0  0  0  0  0  0  0  0  0  0  0
   40.3140   25.1600   43.6300 C   0  0  0  0  0  0  0  0  0  0  0  0
   40.0720   26.5180   43.6800 C   0  0  0  0  0  0  0  0  0  0  0  0
   39.0660   26.9660   42.8480 C   0  0  0  0  0  0  0  0  0  0  0  0
   38.3630   26.1690   42.0430 N   0  0  0  0  0  0  0  0  0  0  0  0
   39.8110   23.3290   42.8010 H   0  0  0  0  0  0  0  0  0  0  0  0
   41.0940   24.7590   44.2650 H   0  0  0  0  0  0  0  0  0  0  0  0
   40.6530   27.1400   44.3370 H   0  0  0  0  0  0  0  0  0  0  0  0
   35.9210   23.2600   39.7940 C   0  0  0  0  0  0  0  0  0  0  0  0
   36.5100   24.2130   40.6430 C   0  0  0  0  0  0  0  0  0  0  0  0
   37.7930   23.9780   41.0810 C   0  0  0  0  0  0  0  0  0  0  0  0
   38.4130   22.8400   40.6680 N   0  0  0  0  0  0  0  0  0  0  0  0
   37.8220   21.9380   39.8490 C   0  0  0  0  0  0  0  0  0  0  0  0
   36.5770   22.1650   39.4220 N   0  0  0  0  0  0  0  0  0  0  0  0
   34.9100   23.4880   39.4740 H   0  0  0  0  0  0  0  0  0  0  0  0
   36.0410   25.1210   40.9850 H   0  0  0  0  0  0  0  0  0  0  0  0
   38.3190   21.0410   39.5260 H   0  0  0  0  0  0  0  0  0  0  0  0
   38.7640   28.4300   42.8650 C   0  0  2  0  0  0  0  0  0  0  0  0
   37.5520   28.8130   43.6680 C   0  0  0  0  0  0  0  0  0  0  0  0
   37.5850   28.9130   42.1580 C   0  0  1  0  0  0  0  0  0  0  0  0
   39.6270   29.1180   42.9910 H   0  0  0  0  0  0  0  0  0  0  0  0
   37.5970   29.7190   44.2940 H   0  0  0  0  0  0  0  0  0  0  0  0
   36.9220   28.0210   44.1470 H   0  0  0  0  0  0  0  0  0  0  0  0
   36.8740   28.2300   41.6510 H   0  0  0  0  0  0  0  0  0  0  0  0
   38.3560   30.1630   40.1180 C   0  0  1  0  0  3  0  0  0  0  0  0
   37.6750   30.2500   41.4820 C   0  0  1  0  0  3  0  0  0  0  0  0
   36.3500   30.8240   41.0520 C   0  0  0  0  0  3  0  0  0  0  0  0
   35.7150   30.1050   40.5260 H   0  0  0  0  0  0  0  0  0  0  0  0
   36.7250   31.8390   40.1860 O   0  0  0  0  0  0  0  0  0  0  0  0
   37.8440   31.4170   39.4920 C   0  0  0  0  0  3  0  0  0  0  0  0
   38.6330   32.2020   39.6790 H   0  0  0  0  0  0  0  0  0  0  0  0
   39.7240   30.1880   40.3560 O   0  0  0  0  0  0  0  0  0  0  0  0
   40.2660   30.1550   39.5490 H   0  0  0  0  0  0  0  0  0  0  0  0
  1  6  2  0  0  0  0
  1  2  1  0  0  0  0
  2  7  1  0  0  0  0
  2  3  2  0  0  0  0
  3  4  1  0  0  0  0
  3  8  1  0  0  0  0
  4  9  1  0  0  0  0
  5 19  1  0  0  0  0
  5  4  2  0  0  0  0
  6  5  1  0  0  0  0
 10 11  1  0  0  0  0
 11 17  1  0  0  0  0
 11 12  2  0  0  0  0
 12  1  1  0  0  0  0
 13 12  1  0  0  0  0
 14 13  2  0  0  0  0
 15 10  2  0  0  0  0
 15 14  1  0  0  0  0
 16 10  1  0  0  0  0
 18 14  1  0  0  0  0
 19 22  1  1  0  0  0
 19 20  1  0  0  0  0
 20 24  1  0  0  0  0
 20 23  1  0  0  0  0
 21 25  1  6  0  0  0
 21 19  1  0  0  0  0
 21 20  1  0  0  0  0
 26 33  1  1  0  0  0
 26 27  1  0  0  0  0
 27 28  1  6  0  0  0
 27 21  1  0  0  0  0
 29 28  1  0  0  0  0
 30 28  1  0  0  0  0
 31 32  1  0  0  0  0
 31 26  1  0  0  0  0
 31 30  1  0  0  0  0
 34 33  1  0  0  0  0
M  END
>  <minimizedAffinity>
-5.42704678

$$$$

 OpenBabel03242521063D

 34 37  0  0  1  0  0  0  0  0999 V2000
   35.9470   29.6460   38.3080 C   0  0  0  0  0  0  0  0  0  0  0  0
   35.3790   28.9060   39.3270 C   0  0  0  0  0  0  0  0  0  0  0  0
   35.4520   29.2040   40.6580 C   0  0  0  0  0  0  0  0  0  0  0  0
   36.1430   30.3320   41.0540 C   0  0  0  0  0  0  0  0  0  0  0  0
   36.7070   31.0650   40.0290 C   0  0  0  0  0  0  0  0  0  0  0  0
   36.6070   30.7310   38.7410 N   0  0  0  0  0  0  0  0  0  0  0  0
   34.8210   28.0070   39.0890 H   0  0  0  0  0  0  0  0  0  0  0  0
   34.9910   28.5950   41.4260 H   0  0  0  0  0  0  0  0  0  0  0  0
   36.2090   30.5790   42.0980 H   0  0  0  0  0  0  0  0  0  0  0  0
   36.5850   28.9110   34.6720 C   0  0  0  0  0  0  0  0  0  0  0  0
   36.8740   29.2890   35.9950 C   0  0  0  0  0  0  0  0  0  0  0  0
   35.8410   29.2870   36.9050 C   0  0  0  0  0  0  0  0  0  0  0  0
   34.6050   28.9210   36.4700 N   0  0  0  0  0  0  0  0  0  0  0  0
   34.3540   28.5610   35.1890 C   0  0  0  0  0  0  0  0  0  0  0  0
   35.3550   28.5620   34.3050 N   0  0  0  0  0  0  0  0  0  0  0  0
   37.4290   28.9270   33.9920 H   0  0  0  0  0  0  0  0  0  0  0  0
   37.8430   29.5820   36.3650 H   0  0  0  0  0  0  0  0  0  0  0  0
   33.3740   28.2730   34.8530 H   0  0  0  0  0  0  0  0  0  0  0  0
   37.4660   32.2960   40.4040 C   0  0  2  0  0  0  0  0  0  0  0  0
   37.3150   33.4440   39.4450 C   0  0  0  0  0  0  0  0  0  0  0  0
   38.6160   32.6860   39.5990 C   0  0  1  0  0  0  0  0  0  0  0  0
   37.4410   32.5940   41.4740 H   0  0  0  0  0  0  0  0  0  0  0  0
   37.2050   34.4630   39.8530 H   0  0  0  0  0  0  0  0  0  0  0  0
   36.7200   33.3180   38.5060 H   0  0  0  0  0  0  0  0  0  0  0  0
   38.9190   32.1320   38.6870 H   0  0  0  0  0  0  0  0  0  0  0  0
   40.7070   32.2610   40.9280 C   0  0  1  0  0  3  0  0  0  0  0  0
   39.7840   33.3070   40.3060 C   0  0  1  0  0  3  0  0  0  0  0  0
   40.7750   33.9900   39.3980 C   0  0  0  0  0  3  0  0  0  0  0  0
   41.0540   33.3880   38.5290 H   0  0  0  0  0  0  0  0  0  0  0  0
   41.8760   34.1610   40.2230 O   0  0  0  0  0  0  0  0  0  0  0  0
   41.9590   33.0630   41.0590 C   0  0  0  0  0  3  0  0  0  0  0  0
   41.9540   33.4760   42.1090 H   0  0  0  0  0  0  0  0  0  0  0  0
   40.1470   31.9150   42.1510 O   0  0  0  0  0  0  0  0  0  0  0  0
   40.6640   31.2600   42.6510 H   0  0  0  0  0  0  0  0  0  0  0  0
  1  6  2  0  0  0  0
  1  2  1  0  0  0  0
  2  3  2  0  0  0  0
  3  4  1  0  0  0  0
  3  8  1  0  0  0  0
  4  9  1  0  0  0  0
  5 19  1  0  0  0  0
  5  4  2  0  0  0  0
  6  5  1  0  0  0  0
  7  2  1  0  0  0  0
 10 11  1  0  0  0  0
 11 17  1  0  0  0  0
 11 12  2  0  0  0  0
 12  1  1  0  0  0  0
 13 12  1  0  0  0  0
 14 13  2  0  0  0  0
 15 10  2  0  0  0  0
 15 14  1  0  0  0  0
 16 10  1  0  0  0  0
 18 14  1  0  0  0  0
 19 22  1  1  0  0  0
 20 21  1  0  0  0  0
 20 23  1  0  0  0  0
 20 19  1  0  0  0  0
 21 25  1  6  0  0  0
 21 27  1  0  0  0  0
 21 19  1  0  0  0  0
 24 20  1  0  0  0  0
 26 31  1  0  0  0  0
 26 33  1  1  0  0  0
 27 28  1  6  0  0  0
 27 26  1  0  0  0  0
 28 30  1  0  0  0  0
 29 28  1  0  0  0  0
 30 31  1  0  0  0  0
 31 32  1  0  0  0  0
 33 34  1  0  0  0  0
M  END
>  <minimizedAffinity>
-5.41880798

$$$$

 OpenBabel03242521063D

 34 37  0  0  1  0  0  0  0  0999 V2000
   36.1850   29.8020   38.9870 C   0  0  0  0  0  0  0  0  0  0  0  0
   36.5510   31.0620   39.4180 C   0  0  0  0  0  0  0  0  0  0  0  0
   37.0010   31.3720   40.6700 C   0  0  0  0  0  0  0  0  0  0  0  0
   37.1110   30.3650   41.6080 C   0  0  0  0  0  0  0  0  0  0  0  0
   36.7440   29.1090   41.1680 C   0  0  0  0  0  0  0  0  0  0  0  0
   36.3100   28.8570   39.9320 N   0  0  0  0  0  0  0  0  0  0  0  0
   36.4890   31.9010   38.7330 H   0  0  0  0  0  0  0  0  0  0  0  0
   37.2770   32.3760   40.9670 H   0  0  0  0  0  0  0  0  0  0  0  0
   37.4640   30.5930   42.5970 H   0  0  0  0  0  0  0  0  0  0  0  0
   34.1940   28.7950   35.9550 C   0  0  0  0  0  0  0  0  0  0  0  0
   34.4810   29.0000   37.3150 C   0  0  0  0  0  0  0  0  0  0  0  0
   35.7120   29.5230   37.6420 C   0  0  0  0  0  0  0  0  0  0  0  0
   36.5750   29.8080   36.6300 N   0  0  0  0  0  0  0  0  0  0  0  0
   36.2740   29.6010   35.3270 C   0  0  0  0  0  0  0  0  0  0  0  0
   35.0790   29.0940   35.0090 N   0  0  0  0  0  0  0  0  0  0  0  0
   33.2130   28.3830   35.7460 H   0  0  0  0  0  0  0  0  0  0  0  0
   33.8160   28.7830   38.1350 H   0  0  0  0  0  0  0  0  0  0  0  0
   36.9610   29.8290   34.5330 H   0  0  0  0  0  0  0  0  0  0  0  0
   36.8460   27.9830   42.1460 C   0  0  2  0  0  0  0  0  0  0  0  0
   37.2710   28.3890   43.5290 C   0  0  0  0  0  0  0  0  0  0  0  0
   38.1640   27.5770   42.6160 C   0  0  1  0  0  0  0  0  0  0  0  0
   36.0330   27.2260   42.1260 H   0  0  0  0  0  0  0  0  0  0  0  0
   36.7740   27.9190   44.3950 H   0  0  0  0  0  0  0  0  0  0  0  0
   37.5380   29.4540   43.7460 H   0  0  0  0  0  0  0  0  0  0  0  0
   39.0920   28.1060   42.3160 H   0  0  0  0  0  0  0  0  0  0  0  0
   38.4540   25.3060   41.5790 C   0  0  1  0  0  3  0  0  0  0  0  0
   38.3950   26.1170   42.8720 C   0  0  1  0  0  3  0  0  0  0  0  0
   39.7580   25.7860   43.4240 C   0  0  0  0  0  3  0  0  0  0  0  0
   40.5750   26.2750   42.8860 H   0  0  0  0  0  0  0  0  0  0  0  0
   39.8330   24.4140   43.2450 O   0  0  0  0  0  0  0  0  0  0  0  0
   39.1900   24.1010   42.0620 C   0  0  0  0  0  3  0  0  0  0  0  0
   38.4000   23.3440   42.3350 H   0  0  0  0  0  0  0  0  0  0  0  0
   37.1400   25.0380   41.2190 O   0  0  0  0  0  0  0  0  0  0  0  0
   37.0530   24.5060   40.4100 H   0  0  0  0  0  0  0  0  0  0  0  0
  1  2  2  0  0  0  0
  1  6  1  0  0  0  0
  2  3  1  0  0  0  0
  3  8  1  0  0  0  0
  3  4  2  0  0  0  0
  4  9  1  0  0  0  0
  5  4  1  0  0  0  0
  5 19  1  0  0  0  0
  6  5  2  0  0  0  0
  7  2  1  0  0  0  0
 10 11  1  0  0  0  0
 11 12  2  0  0  0  0
 11 17  1  0  0  0  0
 12  1  1  0  0  0  0
 13 12  1  0  0  0  0
 14 13  2  0  0  0  0
 15 14  1  0  0  0  0
 15 10  2  0  0  0  0
 16 10  1  0  0  0  0
 18 14  1  0  0  0  0
 19 22  1  6  0  0  0
 19 21  1  0  0  0  0
 19 20  1  0  0  0  0
 20 24  1  0  0  0  0
 20 23  1  0  0  0  0
 21 25  1  6  0  0  0
 21 27  1  0  0  0  0
 21 20  1  0  0  0  0
 26 33  1  1  0  0  0
 26 31  1  0  0  0  0
 26 27  1  0  0  0  0
 27 28  1  6  0  0  0
 29 28  1  0  0  0  0
 30 28  1  0  0  0  0
 31 32  1  0  0  0  0
 31 30  1  0  0  0  0
 34 33  1  0  0  0  0
M  END
>  <minimizedAffinity>
-5.27380753

$$$$

 OpenBabel03242521063D

 34 37  0  0  1  0  0  0  0  0999 V2000
   37.7450   30.7430   40.6410 C   0  0  0  0  0  0  0  0  0  0  0  0
   36.4510   30.8880   40.1780 C   0  0  0  0  0  0  0  0  0  0  0  0
   35.4570   29.9610   40.3060 C   0  0  0  0  0  0  0  0  0  0  0  0
   35.7320   28.7680   40.9450 C   0  0  0  0  0  0  0  0  0  0  0  0
   37.0270   28.6330   41.4040 C   0  0  0  0  0  0  0  0  0  0  0  0
   37.9650   29.5690   41.2540 N   0  0  0  0  0  0  0  0  0  0  0  0
   36.1650   31.8000   39.6660 H   0  0  0  0  0  0  0  0  0  0  0  0
   34.4540   30.1150   39.9280 H   0  0  0  0  0  0  0  0  0  0  0  0
   34.9590   28.0290   41.0520 H   0  0  0  0  0  0  0  0  0  0  0  0
   39.7250   33.9430   40.5290 C   0  0  0  0  0  0  0  0  0  0  0  0
   38.6190   33.1020   40.7440 C   0  0  0  0  0  0  0  0  0  0  0  0
   38.7700   31.7600   40.4810 C   0  0  0  0  0  0  0  0  0  0  0  0
   39.9780   31.3290   40.0270 N   0  0  0  0  0  0  0  0  0  0  0  0
   41.0280   32.1600   39.8270 C   0  0  0  0  0  0  0  0  0  0  0  0
   40.8820   33.4630   40.0840 N   0  0  0  0  0  0  0  0  0  0  0  0
   39.5590   34.9910   40.7510 H   0  0  0  0  0  0  0  0  0  0  0  0
   37.6530   33.4180   41.1030 H   0  0  0  0  0  0  0  0  0  0  0  0
   41.9790   31.8110   39.4690 H   0  0  0  0  0  0  0  0  0  0  0  0
   37.3760   27.3600   42.1030 C   0  0  2  0  0  0  0  0  0  0  0  0
   38.6050   27.4330   42.9660 C   0  0  0  0  0  0  0  0  0  0  0  0
   38.5660   26.6290   41.6840 C   0  0  1  0  0  0  0  0  0  0  0  0
   36.5370   26.7910   42.5580 H   0  0  0  0  0  0  0  0  0  0  0  0
   38.5940   26.9290   43.9470 H   0  0  0  0  0  0  0  0  0  0  0  0
   39.2120   28.3720   43.0010 H   0  0  0  0  0  0  0  0  0  0  0  0
   39.2510   27.0100   40.8990 H   0  0  0  0  0  0  0  0  0  0  0  0
   37.1460   24.5880   41.3130 C   0  0  1  0  0  3  0  0  0  0  0  0
   38.5140   25.1310   41.7220 C   0  0  1  0  0  3  0  0  0  0  0  0
   39.3630   24.4480   40.6790 C   0  0  0  0  0  3  0  0  0  0  0  0
   39.2420   24.8700   39.6770 H   0  0  0  0  0  0  0  0  0  0  0  0
   38.8850   23.1480   40.7020 O   0  0  0  0  0  0  0  0  0  0  0  0
   37.5230   23.1960   40.9290 C   0  0  0  0  0  3  0  0  0  0  0  0
   37.3430   22.5630   41.8450 H   0  0  0  0  0  0  0  0  0  0  0  0
   36.3420   24.6470   42.4440 O   0  0  0  0  0  0  0  0  0  0  0  0
   35.4420   24.3070   42.3060 H   0  0  0  0  0  0  0  0  0  0  0  0
  1  6  1  0  0  0  0
  2  3  1  0  0  0  0
  2  1  2  0  0  0  0
  3  4  2  0  0  0  0
  4  9  1  0  0  0  0
  4  5  1  0  0  0  0
  5 19  1  0  0  0  0
  6  5  2  0  0  0  0
  7  2  1  0  0  0  0
  8  3  1  0  0  0  0
 10 11  1  0  0  0  0
 10 16  1  0  0  0  0
 11 17  1  0  0  0  0
 12  1  1  0  0  0  0
 12 11  2  0  0  0  0
 13 12  1  0  0  0  0
 14 13  2  0  0  0  0
 14 15  1  0  0  0  0
 15 10  2  0  0  0  0
 18 14  1  0  0  0  0
 19 22  1  1  0  0  0
 19 20  1  0  0  0  0
 20 24  1  0  0  0  0
 20 23  1  0  0  0  0
 21 25  1  6  0  0  0
 21 27  1  0  0  0  0
 21 19  1  0  0  0  0
 21 20  1  0  0  0  0
 26 27  1  0  0  0  0
 26 33  1  1  0  0  0
 27 28  1  6  0  0  0
 28 30  1  0  0  0  0
 29 28  1  0  0  0  0
 30 31  1  0  0  0  0
 31 26  1  0  0  0  0
 31 32  1  0  0  0  0
 34 33  1  0  0  0  0
M  END
>  <minimizedAffinity>
-5.26802778

$$$$
