
 OpenBabel03242518543D

 42 44  0  0  1  0  0  0  0  0999 V2000
   45.7960   31.2530   46.6290 C   0  0  2  0  0  0  0  0  0  0  0  0
   45.9500   30.4630   47.8900 C   0  0  0  0  0  0  0  0  0  0  0  0
   45.1620   29.2080   47.7100 C   0  0  0  0  0  0  0  0  0  0  0  0
   44.4040   29.1000   46.4320 C   0  0  0  0  0  0  0  0  0  0  0  0
   45.3190   29.3000   45.2550 C   0  0  0  0  0  0  0  0  0  0  0  0
   46.2520   30.4010   45.4590 C   0  0  2  0  0  0  0  0  0  0  0  0
   44.7170   31.4180   46.4320 H   0  0  0  0  0  0  0  0  0  0  0  0
   47.0080   30.2610   48.1500 H   0  0  0  0  0  0  0  0  0  0  0  0
   45.5740   31.0880   48.7390 H   0  0  0  0  0  0  0  0  0  0  0  0
   45.7240   28.2730   47.9510 H   0  0  0  0  0  0  0  0  0  0  0  0
   44.3650   29.2180   48.5160 H   0  0  0  0  0  0  0  0  0  0  0  0
   44.0100   28.0640   46.3850 H   0  0  0  0  0  0  0  0  0  0  0  0
   43.5160   29.7690   46.4260 H   0  0  0  0  0  0  0  0  0  0  0  0
   44.6270   29.5960   44.4050 H   0  0  0  0  0  0  0  0  0  0  0  0
   45.7130   28.3240   44.9310 H   0  0  0  0  0  0  0  0  0  0  0  0
   46.3880   31.0880   44.5970 H   0  0  0  0  0  0  0  0  0  0  0  0
   47.5750   29.7830   45.7520 C   0  0  0  0  0  0  0  0  0  0  0  0
   47.4790   28.7810   46.2420 H   0  0  0  0  0  0  0  0  0  0  0  0
   48.1650   30.3900   46.4780 H   0  0  0  0  0  0  0  0  0  0  0  0
   49.6400   30.4580   42.7850 C   0  0  1  0  0  0  0  0  0  0  0  0
   48.4180   30.7540   43.6310 C   0  0  0  0  0  0  0  0  0  0  0  0
   47.4990   30.8230   43.0180 H   0  0  0  0  0  0  0  0  0  0  0  0
   48.4030   29.5190   44.5180 C   0  0  1  0  0  0  0  0  0  0  0  0
   49.7590   29.4040   44.8590 O   0  0  0  0  0  0  0  0  0  0  0  0
   50.5180   29.7490   43.7760 C   0  0  0  0  0  0  0  0  0  0  0  0
   51.1370   28.9430   43.3420 H   0  0  0  0  0  0  0  0  0  0  0  0
   49.3130   29.6440   41.7130 O   0  0  0  0  0  0  0  0  0  0  0  0
   48.9860   28.7520   41.9600 H   0  0  0  0  0  0  0  0  0  0  0  0
   46.4740   32.5740   46.6640 C   0  0  0  0  0  0  0  0  0  0  0  0
   47.4000   32.8560   47.4670 O   0  0  0  0  0  0  0  0  0  0  0  0
   44.6110   35.3280   45.1470 C   0  0  0  0  0  0  0  0  0  0  0  0
   45.1500   35.4420   43.8420 C   0  0  0  0  0  0  0  0  0  0  0  0
   46.1610   34.5560   43.5180 C   0  0  0  0  0  0  0  0  0  0  0  0
   46.5040   33.7010   44.4820 N   0  0  0  0  0  0  0  0  0  0  0  0
   46.0120   33.5850   45.6940 C   0  0  0  0  0  0  0  0  0  0  0  0
   45.0300   34.4330   46.0350 N   0  0  0  0  0  0  0  0  0  0  0  0
   43.8060   36.0200   45.4300 H   0  0  0  0  0  0  0  0  0  0  0  0
   44.7820   36.1760   43.1630 H   0  0  0  0  0  0  0  0  0  0  0  0
   46.7160   34.6570   42.1780 C   0  0  0  0  0  0  0  0  0  0  0  0
   47.4380   33.5040   41.8790 F   0  0  0  0  0  0  0  0  0  0  0  0
   47.5630   35.7170   42.1780 F   0  0  0  0  0  0  0  0  0  0  0  0
   45.7300   34.7420   41.2030 F   0  0  0  0  0  0  0  0  0  0  0  0
  1  7  1  6  0  0  0
  1 29  1  0  0  0  0
  1  2  1  0  0  0  0
  2  8  1  0  0  0  0
  2  9  1  0  0  0  0
  3  2  1  0  0  0  0
  3 10  1  0  0  0  0
  3 11  1  0  0  0  0
  4  3  1  0  0  0  0
  5  6  1  0  0  0  0
  5  4  1  0  0  0  0
  6 16  1  6  0  0  0
  6 17  1  0  0  0  0
  6  1  1  0  0  0  0
 12  4  1  0  0  0  0
 13  4  1  0  0  0  0
 14  5  1  0  0  0  0
 15  5  1  0  0  0  0
 17 18  1  0  0  0  0
 17 19  1  0  0  0  0
 20 27  1  6  0  0  0
 20 21  1  0  0  0  0
 20 25  1  0  0  0  0
 21 23  1  0  0  0  0
 22 21  1  0  0  0  0
 23 24  1  0  0  0  0
 23 17  1  1  0  0  0
 25 24  1  0  0  0  0
 26 25  1  0  0  0  0
 27 28  1  0  0  0  0
 29 30  2  0  0  0  0
 31 37  1  0  0  0  0
 31 36  1  0  0  0  0
 32 31  2  0  0  0  0
 33 32  1  0  0  0  0
 33 34  2  0  0  0  0
 34 35  1  0  0  0  0
 35 36  2  0  0  0  0
 35 29  1  0  0  0  0
 38 32  1  0  0  0  0
 39 33  1  0  0  0  0
 40 39  1  0  0  0  0
 41 39  1  0  0  0  0
 42 39  1  0  0  0  0
M  END
>  <minimizedAffinity>
-5.27510881

>  <minimizedRMSD>
0.909646749

$$$$
