
 OpenBabel03242523233D

 43 46  0  0  1  0  0  0  0  0999 V2000
   47.3520   32.5150   44.3980 C   0  0  0  0  0  0  0  0  0  0  0  0
   48.1480   32.7630   43.3630 C   0  0  0  0  0  0  0  0  0  0  0  0
   48.9290   31.6950   42.9720 C   0  0  0  0  0  0  0  0  0  0  0  0
   48.8140   30.4910   43.6830 N   0  0  0  0  0  0  0  0  0  0  0  0
   48.0130   30.3130   44.6940 C   0  0  0  0  0  0  0  0  0  0  0  0
   47.2140   31.3570   45.1150 N   0  0  0  0  0  0  0  0  0  0  0  0
   49.6510   31.6340   42.1720 H   0  0  0  0  0  0  0  0  0  0  0  0
   48.0220   29.3230   45.1600 H   0  0  0  0  0  0  0  0  0  0  0  0
   48.3550   34.0010   42.7110 C   0  0  1  0  0  0  0  0  0  0  0  0
   49.2080   34.3010   41.6940 C   0  0  0  0  0  0  0  0  0  0  0  0
   47.7700   34.2220   41.2860 C   0  0  1  0  0  0  0  0  0  0  0  0
   48.1960   34.8680   43.4090 H   0  0  0  0  0  0  0  0  0  0  0  0
   49.9060   33.5000   41.3050 H   0  0  0  0  0  0  0  0  0  0  0  0
   49.6710   35.2830   41.4480 H   0  0  0  0  0  0  0  0  0  0  0  0
   47.2010   35.1700   41.1840 H   0  0  0  0  0  0  0  0  0  0  0  0
   46.2970   33.3710   39.4070 C   0  0  1  0  0  3  0  0  0  0  0  0
   47.4080   33.1390   40.3800 C   0  0  1  0  0  3  0  0  0  0  0  0
   48.5880   32.9090   39.4660 C   0  0  0  0  0  3  0  0  0  0  0  0
   49.5290   33.2150   39.9690 H   0  0  0  0  0  0  0  0  0  0  0  0
   48.3470   33.7520   38.4040 O   0  0  0  0  0  0  0  0  0  0  0  0
   46.9930   33.5900   38.1020 C   0  0  0  0  0  3  0  0  0  0  0  0
   46.5750   34.4880   37.6210 H   0  0  0  0  0  0  0  0  0  0  0  0
   45.5750   32.1670   39.2870 O   0  0  0  0  0  0  0  0  0  0  0  0
   45.7450   31.7000   38.4390 H   0  0  0  0  0  0  0  0  0  0  0  0
   46.3610   33.4420   44.9850 C   0  0  0  0  0  0  0  0  0  0  0  0
   45.8550   34.0510   45.8840 O   0  0  0  0  0  0  0  0  0  0  0  0
   44.7220   31.3740   43.3820 Cl  0  0  0  0  0  0  0  0  0  0  0  0
   44.6520   33.0980   43.0520 C   0  0  0  0  0  0  0  0  0  0  0  0
   45.4560   33.9150   43.8900 C   0  0  0  0  0  0  0  0  0  0  0  0
   45.3100   35.2370   43.5380 C   0  0  0  0  0  0  0  0  0  0  0  0
   44.5800   35.8130   42.5940 C   0  0  0  0  0  0  0  0  0  0  0  0
   43.8270   34.9560   41.8190 C   0  0  0  0  0  0  0  0  0  0  0  0
   43.8560   33.6110   42.0420 C   0  0  0  0  0  0  0  0  0  0  0  0
   45.8630   35.9950   44.1420 H   0  0  0  0  0  0  0  0  0  0  0  0
   44.5320   36.8810   42.3880 H   0  0  0  0  0  0  0  0  0  0  0  0
   43.2050   35.3970   41.0200 H   0  0  0  0  0  0  0  0  0  0  0  0
   43.0620   32.8690   41.2080 O   0  0  0  0  0  0  0  0  0  0  0  0
   41.0080   31.5910   40.1950 O   0  0  0  0  0  0  0  0  0  0  0  0
   41.4820   32.2960   41.4420 P   0  0  0  0  0  0  0  0  0  0  0  0
   41.4550   31.2570   42.7810 O   0  0  0  0  0  0  0  0  0  0  0  0
   41.4790   31.7650   43.6140 H   0  0  0  0  0  0  0  0  0  0  0  0
   40.4180   33.5570   41.8250 O   0  0  0  0  0  0  0  0  0  0  0  0
   39.5890   33.1630   42.2020 H   0  0  0  0  0  0  0  0  0  0  0  0
  1 25  1  0  0  0  0
  1  6  1  0  0  0  0
  2  1  2  0  0  0  0
  3  2  1  0  0  0  0
  3  4  2  0  0  0  0
  4  5  1  0  0  0  0
  5  6  2  0  0  0  0
  5  8  1  0  0  0  0
  7  3  1  0  0  0  0
  9  2  1  0  0  0  0
  9 12  1  1  0  0  0
 10  9  1  0  0  0  0
 11 15  1  6  0  0  0
 11 10  1  0  0  0  0
 11  9  1  0  0  0  0
 13 10  1  0  0  0  0
 14 10  1  0  0  0  0
 16 23  1  6  0  0  0
 16 17  1  0  0  0  0
 17 18  1  6  0  0  0
 17 11  1  0  0  0  0
 18 19  1  0  0  0  0
 20 18  1  0  0  0  0
 21 20  1  0  0  0  0
 21 16  1  0  0  0  0
 22 21  1  0  0  0  0
 24 23  1  0  0  0  0
 25 26  2  0  0  0  0
 28 27  1  0  0  0  0
 28 29  1  0  0  0  0
 29 25  1  0  0  0  0
 30 29  2  0  0  0  0
 30 34  1  0  0  0  0
 31 30  1  0  0  0  0
 32 33  1  0  0  0  0
 32 31  2  0  0  0  0
 33 28  2  0  0  0  0
 35 31  1  0  0  0  0
 36 32  1  0  0  0  0
 37 39  1  0  0  0  0
 37 33  1  0  0  0  0
 38 39  2  0  0  0  0
 39 42  1  0  0  0  0
 39 40  1  0  0  0  0
 40 41  1  0  0  0  0
 42 43  1  0  0  0  0
M  END
>  <minimizedAffinity>
-5.52218962

>  <minimizedRMSD>
1.42023742

$$$$
