
 OpenBabel03252509043D

 48 50  0  0  1  0  0  0  0  0999 V2000
   46.7100   34.3510   43.4900 N   0  0  0  0  0  0  0  0  0  0  0  0
   46.4680   34.9480   42.2330 C   0  0  0  0  0  0  0  0  0  0  0  0
   44.9990   34.9920   41.8390 C   0  0  0  0  0  0  0  0  0  0  0  0
   44.0640   35.2090   43.0050 C   0  0  0  0  0  0  0  0  0  0  0  0
   44.8240   35.4150   44.3030 C   0  0  0  0  0  0  0  0  0  0  0  0
   45.7150   34.1100   44.4040 C   0  0  2  0  0  0  0  0  0  0  0  0
   46.9960   34.5110   41.3810 H   0  0  0  0  0  0  0  0  0  0  0  0
   46.8070   36.0050   42.2870 H   0  0  0  0  0  0  0  0  0  0  0  0
   44.8940   35.7660   41.0520 H   0  0  0  0  0  0  0  0  0  0  0  0
   44.7740   34.0140   41.3510 H   0  0  0  0  0  0  0  0  0  0  0  0
   43.3920   34.3470   43.1370 H   0  0  0  0  0  0  0  0  0  0  0  0
   43.4250   36.1000   42.8560 H   0  0  0  0  0  0  0  0  0  0  0  0
   45.4830   36.2810   44.2900 H   0  0  0  0  0  0  0  0  0  0  0  0
   44.0880   35.3730   45.1200 H   0  0  0  0  0  0  0  0  0  0  0  0
   45.0410   33.2500   44.2210 H   0  0  0  0  0  0  0  0  0  0  0  0
   47.9030   33.5440   43.5420 C   0  0  0  0  0  0  0  0  0  0  0  0
   48.0040   33.2000   44.6130 H   0  0  0  0  0  0  0  0  0  0  0  0
   48.7930   34.1140   43.2530 H   0  0  0  0  0  0  0  0  0  0  0  0
   47.6740   32.3280   42.7220 C   0  0  0  0  0  0  0  0  0  0  0  0
   47.4520   31.4060   43.3000 H   0  0  0  0  0  0  0  0  0  0  0  0
   46.7900   32.4430   42.0370 H   0  0  0  0  0  0  0  0  0  0  0  0
   51.2030   32.1920   41.4520 C   0  0  0  0  0  0  0  0  0  0  0  0
   50.0860   32.3950   42.2870 C   0  0  0  0  0  0  0  0  0  0  0  0
   48.8300   32.1040   41.8230 C   0  0  0  0  0  0  0  0  0  0  0  0
   48.7360   31.6350   40.5830 N   0  0  0  0  0  0  0  0  0  0  0  0
   49.7820   31.4350   39.7800 C   0  0  0  0  0  0  0  0  0  0  0  0
   51.0370   31.7110   40.2030 N   0  0  0  0  0  0  0  0  0  0  0  0
   52.1580   32.4530   41.9130 H   0  0  0  0  0  0  0  0  0  0  0  0
   50.1990   32.7790   43.2930 H   0  0  0  0  0  0  0  0  0  0  0  0
   49.6970   31.0510   38.7650 H   0  0  0  0  0  0  0  0  0  0  0  0
   46.1360   34.1930   45.7190 O   0  0  0  0  0  0  0  0  0  0  0  0
   45.5930   31.5860   45.5930 O   0  0  0  0  0  0  0  0  0  0  0  0
   46.0110   32.7200   46.5260 P   0  0  2  0  0  0  0  0  0  0  0  0
   44.6990   32.9100   47.6180 O   0  0  0  0  0  0  0  0  0  0  0  0
   45.0420   33.1310   48.5200 H   0  0  0  0  0  0  0  0  0  0  0  0
   47.3710   32.3430   47.4200 O   0  0  0  0  0  0  0  0  0  0  0  0
   47.7170   31.0320   47.1640 C   0  0  0  0  0  0  0  0  0  0  0  0
   48.6590   31.0320   46.5480 H   0  0  0  0  0  0  0  0  0  0  0  0
   46.9690   30.4240   46.6610 H   0  0  0  0  0  0  0  0  0  0  0  0
   50.3300   30.0820   49.3240 C   0  0  2  0  0  3  0  0  0  0  0  0
   49.3600   29.5370   48.3160 C   0  0  0  0  0  3  0  0  0  0  0  0
   49.7470   29.5030   47.2780 H   0  0  0  0  0  0  0  0  0  0  0  0
   48.1510   30.4110   48.4990 C   0  0  1  0  0  3  0  0  0  0  0  0
   48.4510   31.3720   49.4260 O   0  0  0  0  0  0  0  0  0  0  0  0
   49.8290   31.5010   49.4910 C   0  0  0  0  0  3  0  0  0  0  0  0
   50.1250   31.9310   50.4780 H   0  0  0  0  0  0  0  0  0  0  0  0
   51.6090   30.0560   48.7720 O   0  0  0  0  0  0  0  0  0  0  0  0
   51.5120   30.2110   47.7820 H   0  0  0  0  0  0  0  0  0  0  0  0
  1 16  1  0  0  0  0
  1  6  1  0  0  0  0
  2  8  1  0  0  0  0
  2  1  1  0  0  0  0
  3  2  1  0  0  0  0
  3  4  1  0  0  0  0
  4 11  1  0  0  0  0
  4  5  1  0  0  0  0
  5  6  1  0  0  0  0
  5 14  1  0  0  0  0
  6 15  1  6  0  0  0
  6 31  1  0  0  0  0
  7  2  1  0  0  0  0
  9  3  1  0  0  0  0
 10  3  1  0  0  0  0
 12  4  1  0  0  0  0
 13  5  1  0  0  0  0
 16 17  1  0  0  0  0
 18 16  1  0  0  0  0
 19 20  1  0  0  0  0
 19 16  1  0  0  0  0
 21 19  1  0  0  0  0
 22 28  1  0  0  0  0
 22 23  1  0  0  0  0
 23 29  1  0  0  0  0
 24 23  2  0  0  0  0
 24 19  1  0  0  0  0
 25 24  1  0  0  0  0
 26 27  1  0  0  0  0
 26 25  2  0  0  0  0
 27 22  2  0  0  0  0
 30 26  1  0  0  0  0
 31 33  1  0  0  0  0
 33 32  2  6  0  0  0
 33 36  1  0  0  0  0
 33 34  1  0  0  0  0
 34 35  1  0  0  0  0
 37 36  1  0  0  0  0
 38 37  1  0  0  0  0
 39 37  1  0  0  0  0
 40 47  1  6  0  0  0
 40 45  1  0  0  0  0
 41 43  1  0  0  0  0
 41 40  1  0  0  0  0
 42 41  1  0  0  0  0
 43 37  1  6  0  0  0
 43 44  1  0  0  0  0
 44 45  1  0  0  0  0
 45 46  1  0  0  0  0
 48 47  1  0  0  0  0
M  END
>  <minimizedAffinity>
-4.91774273

>  <minimizedRMSD>
3.34584022

$$$$
