
 OpenBabel03252501443D

 23 24  0  0  1  0  0  0  0  0999 V2000
   44.3170   35.5800   43.7970 C   0  0  0  0  0  0  0  0  0  0  0  0
   44.2480   34.8840   42.5930 C   0  0  0  0  0  0  0  0  0  0  0  0
   44.8730   33.6410   42.5320 C   0  0  0  0  0  0  0  0  0  0  0  0
   45.5130   33.1620   43.6290 N   0  0  0  0  0  0  0  0  0  0  0  0
   45.5550   33.8770   44.7840 C   0  0  0  0  0  0  0  0  0  0  0  0
   44.9590   35.0780   44.8660 N   0  0  0  0  0  0  0  0  0  0  0  0
   43.8370   36.5630   43.8850 H   0  0  0  0  0  0  0  0  0  0  0  0
   44.8730   33.0280   41.6430 H   0  0  0  0  0  0  0  0  0  0  0  0
   45.3060   32.8670   47.0570 C   0  0  1  0  0  3  0  0  0  0  0  0
   46.2250   33.4390   46.0260 C   0  0  1  0  0  3  0  0  0  0  0  0
   47.0330   32.1920   45.6690 C   0  0  0  0  0  3  0  0  0  0  0  0
   47.9590   32.5360   45.1890 H   0  0  0  0  0  0  0  0  0  0  0  0
   47.2020   31.4970   46.8450 O   0  0  0  0  0  0  0  0  0  0  0  0
   46.1010   31.7340   47.6470 C   0  0  0  0  0  3  0  0  0  0  0  0
   46.4980   32.0670   48.6420 H   0  0  0  0  0  0  0  0  0  0  0  0
   44.8960   33.7780   48.0180 O   0  0  0  0  0  0  0  0  0  0  0  0
   44.0370   33.4330   48.4110 H   0  0  0  0  0  0  0  0  0  0  0  0
   43.5610   35.4090   41.4320 C   0  0  0  0  0  3  0  0  0  0  0  0
   43.0190   34.6850   40.4650 C   0  0  0  0  0  3  0  0  0  0  0  0
   42.3230   35.3360   39.2950 C   0  0  0  0  0  0  0  0  0  0  0  0
   42.9740   35.3970   38.4030 H   0  0  0  0  0  0  0  0  0  0  0  0
   42.0750   36.3650   39.6330 H   0  0  0  0  0  0  0  0  0  0  0  0
   41.3770   34.8190   39.1210 H   0  0  0  0  0  0  0  0  0  0  0  0
  1  7  1  0  0  0  0
  1  6  1  0  0  0  0
  2  1  2  0  0  0  0
  3  2  1  0  0  0  0
  3  4  2  0  0  0  0
  4  5  1  0  0  0  0
  5  6  2  0  0  0  0
  8  3  1  0  0  0  0
  9 14  1  0  0  0  0
  9 16  1  1  0  0  0
 10  5  1  6  0  0  0
 10  9  1  0  0  0  0
 11 10  1  0  0  0  0
 11 13  1  0  0  0  0
 12 11  1  0  0  0  0
 13 14  1  0  0  0  0
 14 15  1  0  0  0  0
 16 17  1  0  0  0  0
 18  2  1  0  0  0  0
 19 18  2  0  0  0  0
 20 22  1  0  0  0  0
 20 19  1  0  0  0  0
 21 20  1  0  0  0  0
 23 20  1  0  0  0  0
M  END
>  <minimizedAffinity>
-4.75801849

>  <minimizedRMSD>
1.18873632

$$$$
