
 OpenBabel03252509043D

 48 50  0  0  1  0  0  0  0  0999 V2000
   46.7310   34.4470   43.5830 N   0  0  0  0  0  0  0  0  0  0  0  0
   46.2870   35.5220   42.7810 C   0  0  0  0  0  0  0  0  0  0  0  0
   44.7770   35.7090   42.7730 C   0  0  0  0  0  0  0  0  0  0  0  0
   44.1200   35.3920   44.0950 C   0  0  0  0  0  0  0  0  0  0  0  0
   45.1420   35.0330   45.1580 C   0  0  0  0  0  0  0  0  0  0  0  0
   45.9260   33.8230   44.5030 C   0  0  2  0  0  0  0  0  0  0  0  0
   46.5930   35.4990   41.7310 H   0  0  0  0  0  0  0  0  0  0  0  0
   46.7150   36.4580   43.2000 H   0  0  0  0  0  0  0  0  0  0  0  0
   44.5770   36.7440   42.4290 H   0  0  0  0  0  0  0  0  0  0  0  0
   44.3790   35.0320   41.9800 H   0  0  0  0  0  0  0  0  0  0  0  0
   43.4210   34.5470   43.9950 H   0  0  0  0  0  0  0  0  0  0  0  0
   43.5380   36.2520   44.4790 H   0  0  0  0  0  0  0  0  0  0  0  0
   45.8530   35.8300   45.3680 H   0  0  0  0  0  0  0  0  0  0  0  0
   44.5860   34.6340   46.0210 H   0  0  0  0  0  0  0  0  0  0  0  0
   45.1620   33.1150   44.1270 H   0  0  0  0  0  0  0  0  0  0  0  0
   47.8400   33.7140   43.0280 C   0  0  0  0  0  0  0  0  0  0  0  0
   48.3250   33.1740   43.8940 H   0  0  0  0  0  0  0  0  0  0  0  0
   48.5710   34.3770   42.5520 H   0  0  0  0  0  0  0  0  0  0  0  0
   47.2970   32.6680   42.1240 C   0  0  0  0  0  0  0  0  0  0  0  0
   47.4630   31.6230   42.4600 H   0  0  0  0  0  0  0  0  0  0  0  0
   46.1810   32.7480   42.0130 H   0  0  0  0  0  0  0  0  0  0  0  0
   49.2220   32.0780   38.9570 C   0  0  0  0  0  0  0  0  0  0  0  0
   48.6960   31.9200   40.2550 C   0  0  0  0  0  0  0  0  0  0  0  0
   47.8340   32.8600   40.7560 C   0  0  0  0  0  0  0  0  0  0  0  0
   47.5350   33.8890   39.9710 N   0  0  0  0  0  0  0  0  0  0  0  0
   48.0220   34.0540   38.7400 C   0  0  0  0  0  0  0  0  0  0  0  0
   48.8770   33.1470   38.2110 N   0  0  0  0  0  0  0  0  0  0  0  0
   49.8980   31.2790   38.6490 H   0  0  0  0  0  0  0  0  0  0  0  0
   48.9610   31.0690   40.8680 H   0  0  0  0  0  0  0  0  0  0  0  0
   47.7730   34.9000   38.1020 H   0  0  0  0  0  0  0  0  0  0  0  0
   46.6120   33.3400   45.6040 O   0  0  0  0  0  0  0  0  0  0  0  0
   45.5600   31.0440   44.7500 O   0  0  0  0  0  0  0  0  0  0  0  0
   46.2450   31.7290   45.9300 P   0  0  2  0  0  0  0  0  0  0  0  0
   45.0630   31.7740   47.1730 O   0  0  0  0  0  0  0  0  0  0  0  0
   45.4930   31.6320   48.0530 H   0  0  0  0  0  0  0  0  0  0  0  0
   47.5550   30.8610   46.5000 O   0  0  0  0  0  0  0  0  0  0  0  0
   47.6270   29.6690   45.8080 C   0  0  0  0  0  0  0  0  0  0  0  0
   47.7730   29.9060   44.7170 H   0  0  0  0  0  0  0  0  0  0  0  0
   46.7790   28.9980   45.9110 H   0  0  0  0  0  0  0  0  0  0  0  0
   49.7300   28.4970   48.3770 C   0  0  2  0  0  3  0  0  0  0  0  0
   49.5290   29.6480   47.4330 C   0  0  0  0  0  3  0  0  0  0  0  0
   48.9210   30.4780   47.8440 H   0  0  0  0  0  0  0  0  0  0  0  0
   48.9430   28.9910   46.2150 C   0  0  1  0  0  3  0  0  0  0  0  0
   48.7590   27.6630   46.4880 O   0  0  0  0  0  0  0  0  0  0  0  0
   48.7110   27.5020   47.8620 C   0  0  0  0  0  3  0  0  0  0  0  0
   48.9830   26.4540   48.1340 H   0  0  0  0  0  0  0  0  0  0  0  0
   49.4230   28.9200   49.6680 O   0  0  0  0  0  0  0  0  0  0  0  0
   48.6890   29.6070   49.5920 H   0  0  0  0  0  0  0  0  0  0  0  0
  1  6  1  0  0  0  0
  2  8  1  0  0  0  0
  2  1  1  0  0  0  0
  3  2  1  0  0  0  0
  3  4  1  0  0  0  0
  4 12  1  0  0  0  0
  4  5  1  0  0  0  0
  5 13  1  0  0  0  0
  5 14  1  0  0  0  0
  6 15  1  6  0  0  0
  6  5  1  0  0  0  0
  6 31  1  0  0  0  0
  7  2  1  0  0  0  0
  9  3  1  0  0  0  0
 10  3  1  0  0  0  0
 11  4  1  0  0  0  0
 16  1  1  0  0  0  0
 16 17  1  0  0  0  0
 18 16  1  0  0  0  0
 19 20  1  0  0  0  0
 19 16  1  0  0  0  0
 21 19  1  0  0  0  0
 22 23  1  0  0  0  0
 23 24  2  0  0  0  0
 23 29  1  0  0  0  0
 24 19  1  0  0  0  0
 25 24  1  0  0  0  0
 26 25  2  0  0  0  0
 27 26  1  0  0  0  0
 27 22  2  0  0  0  0
 28 22  1  0  0  0  0
 30 26  1  0  0  0  0
 31 33  1  0  0  0  0
 33 32  2  6  0  0  0
 33 36  1  0  0  0  0
 33 34  1  0  0  0  0
 34 35  1  0  0  0  0
 37 39  1  0  0  0  0
 37 36  1  0  0  0  0
 38 37  1  0  0  0  0
 40 47  1  1  0  0  0
 41 42  1  0  0  0  0
 41 40  1  0  0  0  0
 43 37  1  1  0  0  0
 43 44  1  0  0  0  0
 43 41  1  0  0  0  0
 44 45  1  0  0  0  0
 45 46  1  0  0  0  0
 45 40  1  0  0  0  0
 48 47  1  0  0  0  0
M  END
>  <minimizedAffinity>
-4.27356625

>  <minimizedRMSD>
1.02423513

$$$$
