
 OpenBabel03252509043D

 48 50  0  0  1  0  0  0  0  0999 V2000
   46.5910   34.5120   43.6100 N   0  0  0  0  0  0  0  0  0  0  0  0
   46.1280   35.4640   42.6750 C   0  0  0  0  0  0  0  0  0  0  0  0
   44.6130   35.5900   42.6150 C   0  0  0  0  0  0  0  0  0  0  0  0
   43.9370   35.4110   43.9530 C   0  0  0  0  0  0  0  0  0  0  0  0
   44.9450   35.2210   45.0710 C   0  0  0  0  0  0  0  0  0  0  0  0
   45.7870   33.9730   44.5830 C   0  0  2  0  0  0  0  0  0  0  0  0
   46.4600   35.3270   41.6420 H   0  0  0  0  0  0  0  0  0  0  0  0
   46.5120   36.4600   42.9850 H   0  0  0  0  0  0  0  0  0  0  0  0
   44.3840   36.5680   42.1440 H   0  0  0  0  0  0  0  0  0  0  0  0
   44.2580   34.8070   41.9030 H   0  0  0  0  0  0  0  0  0  0  0  0
   43.2700   34.5330   43.9430 H   0  0  0  0  0  0  0  0  0  0  0  0
   43.3150   36.2870   44.2180 H   0  0  0  0  0  0  0  0  0  0  0  0
   45.6210   36.0640   45.1970 H   0  0  0  0  0  0  0  0  0  0  0  0
   44.3830   34.9090   45.9650 H   0  0  0  0  0  0  0  0  0  0  0  0
   45.0580   33.1950   44.2820 H   0  0  0  0  0  0  0  0  0  0  0  0
   47.7390   33.7600   43.1700 C   0  0  0  0  0  0  0  0  0  0  0  0
   48.2000   33.3160   44.1000 H   0  0  0  0  0  0  0  0  0  0  0  0
   48.4730   34.3950   42.6620 H   0  0  0  0  0  0  0  0  0  0  0  0
   47.2570   32.6210   42.3480 C   0  0  0  0  0  0  0  0  0  0  0  0
   47.4620   31.6140   42.7730 H   0  0  0  0  0  0  0  0  0  0  0  0
   46.1410   32.6410   42.2140 H   0  0  0  0  0  0  0  0  0  0  0  0
   49.4130   31.9940   39.3410 C   0  0  0  0  0  0  0  0  0  0  0  0
   48.8670   31.9170   40.6380 C   0  0  0  0  0  0  0  0  0  0  0  0
   47.8110   32.7220   40.9770 C   0  0  0  0  0  0  0  0  0  0  0  0
   47.3510   33.5450   40.0420 N   0  0  0  0  0  0  0  0  0  0  0  0
   47.8550   33.6300   38.8090 C   0  0  0  0  0  0  0  0  0  0  0  0
   48.8980   32.8520   38.4380 N   0  0  0  0  0  0  0  0  0  0  0  0
   50.2500   31.3140   39.1680 H   0  0  0  0  0  0  0  0  0  0  0  0
   49.2670   31.2340   41.3760 H   0  0  0  0  0  0  0  0  0  0  0  0
   47.4730   34.3080   38.0480 H   0  0  0  0  0  0  0  0  0  0  0  0
   46.4630   33.6530   45.7470 O   0  0  0  0  0  0  0  0  0  0  0  0
   45.6120   31.2090   45.1080 O   0  0  0  0  0  0  0  0  0  0  0  0
   46.1820   32.0660   46.2360 P   0  0  2  0  0  0  0  0  0  0  0  0
   44.9270   32.1650   47.4040 O   0  0  0  0  0  0  0  0  0  0  0  0
   45.3140   32.1510   48.3150 H   0  0  0  0  0  0  0  0  0  0  0  0
   47.5080   31.3600   46.9680 O   0  0  0  0  0  0  0  0  0  0  0  0
   47.7120   30.1170   46.4040 C   0  0  0  0  0  0  0  0  0  0  0  0
   48.1500   30.2650   45.3780 H   0  0  0  0  0  0  0  0  0  0  0  0
   46.8400   29.4740   46.3240 H   0  0  0  0  0  0  0  0  0  0  0  0
   49.4510   27.1720   47.2420 C   0  0  2  0  0  3  0  0  0  0  0  0
   48.3990   28.1180   47.7440 C   0  0  0  0  0  3  0  0  0  0  0  0
   47.3610   27.8370   47.4790 H   0  0  0  0  0  0  0  0  0  0  0  0
   48.8440   29.4440   47.1940 C   0  0  1  0  0  3  0  0  0  0  0  0
   49.9480   29.2370   46.4110 O   0  0  0  0  0  0  0  0  0  0  0  0
   49.9630   27.9080   46.0220 C   0  0  0  0  0  3  0  0  0  0  0  0
   51.0050   27.5990   45.7620 H   0  0  0  0  0  0  0  0  0  0  0  0
   48.8360   25.9710   46.8900 O   0  0  0  0  0  0  0  0  0  0  0  0
   47.9140   26.1940   46.5510 H   0  0  0  0  0  0  0  0  0  0  0  0
  1  6  1  0  0  0  0
  2  8  1  0  0  0  0
  2  1  1  0  0  0  0
  3  2  1  0  0  0  0
  3  4  1  0  0  0  0
  4 12  1  0  0  0  0
  4  5  1  0  0  0  0
  5 13  1  0  0  0  0
  5 14  1  0  0  0  0
  6 15  1  6  0  0  0
  6  5  1  0  0  0  0
  6 31  1  0  0  0  0
  7  2  1  0  0  0  0
  9  3  1  0  0  0  0
 10  3  1  0  0  0  0
 11  4  1  0  0  0  0
 16  1  1  0  0  0  0
 16 17  1  0  0  0  0
 18 16  1  0  0  0  0
 19 20  1  0  0  0  0
 19 16  1  0  0  0  0
 21 19  1  0  0  0  0
 22 23  1  0  0  0  0
 23 24  2  0  0  0  0
 23 29  1  0  0  0  0
 24 19  1  0  0  0  0
 25 24  1  0  0  0  0
 26 25  2  0  0  0  0
 27 26  1  0  0  0  0
 27 22  2  0  0  0  0
 28 22  1  0  0  0  0
 30 26  1  0  0  0  0
 31 33  1  0  0  0  0
 33 32  2  6  0  0  0
 33 36  1  0  0  0  0
 33 34  1  0  0  0  0
 34 35  1  0  0  0  0
 37 36  1  0  0  0  0
 38 37  1  0  0  0  0
 39 37  1  0  0  0  0
 40 47  1  6  0  0  0
 40 41  1  0  0  0  0
 42 41  1  0  0  0  0
 43 37  1  6  0  0  0
 43 41  1  0  0  0  0
 44 43  1  0  0  0  0
 45 44  1  0  0  0  0
 45 40  1  0  0  0  0
 46 45  1  0  0  0  0
 48 47  1  0  0  0  0
M  END
>  <minimizedAffinity>
-4.07741308

>  <minimizedRMSD>
1.45819068

$$$$
