
 OpenBabel03252501453D

 23 24  0  0  1  0  0  0  0  0999 V2000
   44.4410   35.7800   43.4410 C   0  0  0  0  0  0  0  0  0  0  0  0
   44.1520   34.9330   42.3740 C   0  0  0  0  0  0  0  0  0  0  0  0
   44.5210   33.5970   42.4960 C   0  0  0  0  0  0  0  0  0  0  0  0
   45.1360   33.1740   43.6300 N   0  0  0  0  0  0  0  0  0  0  0  0
   45.3980   34.0370   44.6470 C   0  0  0  0  0  0  0  0  0  0  0  0
   45.0510   35.3310   44.5520 N   0  0  0  0  0  0  0  0  0  0  0  0
   44.1660   36.8410   43.3830 H   0  0  0  0  0  0  0  0  0  0  0  0
   44.3390   32.8660   41.7220 H   0  0  0  0  0  0  0  0  0  0  0  0
   45.1470   33.0960   46.9500 C   0  0  1  0  0  3  0  0  0  0  0  0
   46.0610   33.6710   45.9160 C   0  0  1  0  0  3  0  0  0  0  0  0
   46.9290   32.4500   45.6170 C   0  0  0  0  0  3  0  0  0  0  0  0
   47.8480   32.8170   45.1440 H   0  0  0  0  0  0  0  0  0  0  0  0
   47.1030   31.8020   46.8210 O   0  0  0  0  0  0  0  0  0  0  0  0
   45.9780   32.0200   47.5940 C   0  0  0  0  0  3  0  0  0  0  0  0
   46.3380   32.4040   48.5830 H   0  0  0  0  0  0  0  0  0  0  0  0
   44.6790   34.0200   47.8690 O   0  0  0  0  0  0  0  0  0  0  0  0
   43.8270   33.6520   48.2570 H   0  0  0  0  0  0  0  0  0  0  0  0
   43.4950   35.4000   41.1700 C   0  0  0  0  0  3  0  0  0  0  0  0
   42.8960   34.6320   40.2740 C   0  0  0  0  0  3  0  0  0  0  0  0
   42.2390   35.2220   39.0510 C   0  0  0  0  0  0  0  0  0  0  0  0
   42.8860   35.1550   38.1570 H   0  0  0  0  0  0  0  0  0  0  0  0
   42.0690   36.2930   39.2940 H   0  0  0  0  0  0  0  0  0  0  0  0
   41.2570   34.7610   38.9250 H   0  0  0  0  0  0  0  0  0  0  0  0
  1  6  1  0  0  0  0
  2  3  1  0  0  0  0
  2  1  2  0  0  0  0
  3  4  2  0  0  0  0
  4  5  1  0  0  0  0
  6  5  2  0  0  0  0
  7  1  1  0  0  0  0
  8  3  1  0  0  0  0
  9 14  1  0  0  0  0
  9 16  1  1  0  0  0
 10  5  1  6  0  0  0
 10  9  1  0  0  0  0
 11 10  1  0  0  0  0
 11 13  1  0  0  0  0
 12 11  1  0  0  0  0
 13 14  1  0  0  0  0
 14 15  1  0  0  0  0
 16 17  1  0  0  0  0
 18  2  1  0  0  0  0
 19 18  2  0  0  0  0
 20 22  1  0  0  0  0
 20 19  1  0  0  0  0
 21 20  1  0  0  0  0
 23 20  1  0  0  0  0
M  END
>  <minimizedAffinity>
-4.84443188

>  <minimizedRMSD>
1.04149079

$$$$
