
 OpenBabel03252505303D

 27 28  0  0  1  0  0  0  0  0999 V2000
   46.8110   31.5800   48.5930 O   0  0  0  0  0  0  0  0  0  0  0  0
   45.8570   31.9460   47.4450 P   0  0  1  0  0  0  0  0  0  0  0  0
   44.4780   32.7130   48.0090 O   0  0  0  0  0  0  0  0  0  0  0  0
   44.6870   33.6110   48.4120 H   0  0  0  0  0  0  0  0  0  0  0  0
   46.7250   32.9440   46.3770 O   0  0  0  0  0  0  0  0  0  0  0  0
   44.5640   35.3890   44.9990 C   0  0  0  0  0  0  0  0  0  0  0  0
   44.9960   35.5570   43.6600 C   0  0  0  0  0  0  0  0  0  0  0  0
   46.0980   34.7540   43.2750 C   0  0  0  0  0  0  0  0  0  0  0  0
   46.6340   33.9110   44.1960 N   0  0  0  0  0  0  0  0  0  0  0  0
   46.1760   33.8030   45.4440 C   0  0  0  0  0  0  0  0  0  0  0  0
   45.1340   34.5460   45.8510 N   0  0  0  0  0  0  0  0  0  0  0  0
   43.7130   36.0140   45.2860 H   0  0  0  0  0  0  0  0  0  0  0  0
   44.5180   36.2510   42.9810 H   0  0  0  0  0  0  0  0  0  0  0  0
   46.4770   34.8350   42.2640 H   0  0  0  0  0  0  0  0  0  0  0  0
   45.4170   30.5020   46.7150 O   0  0  0  0  0  0  0  0  0  0  0  0
   45.0630   29.6040   47.6970 C   0  0  0  0  0  0  0  0  0  0  0  0
   44.1530   29.9880   48.2000 H   0  0  0  0  0  0  0  0  0  0  0  0
   45.8650   29.5880   48.4610 H   0  0  0  0  0  0  0  0  0  0  0  0
   45.5760   26.0950   48.0490 C   0  0  1  0  0  3  0  0  0  0  0  0
   44.6660   27.2680   48.3230 C   0  0  0  0  0  3  0  0  0  0  0  0
   43.6110   26.9770   48.5110 H   0  0  0  0  0  0  0  0  0  0  0  0
   44.8660   28.2000   47.1740 C   0  0  2  0  0  3  0  0  0  0  0  0
   46.0240   27.8080   46.5140 O   0  0  0  0  0  0  0  0  0  0  0  0
   46.2200   26.4770   46.7570 C   0  0  0  0  0  3  0  0  0  0  0  0
   45.7480   25.8890   45.9200 H   0  0  0  0  0  0  0  0  0  0  0  0
   46.5530   25.9250   49.0460 O   0  0  0  0  0  0  0  0  0  0  0  0
   46.1350   26.0370   49.9580 H   0  0  0  0  0  0  0  0  0  0  0  0
  2  3  1  0  0  0  0
  2  1  2  1  0  0  0
  3  4  1  0  0  0  0
  5  2  1  0  0  0  0
  6 12  1  0  0  0  0
  6 11  1  0  0  0  0
  7  6  2  0  0  0  0
  8  7  1  0  0  0  0
  8  9  2  0  0  0  0
  9 10  1  0  0  0  0
 10 11  2  0  0  0  0
 10  5  1  0  0  0  0
 13  7  1  0  0  0  0
 14  8  1  0  0  0  0
 15  2  1  0  0  0  0
 15 16  1  0  0  0  0
 16 17  1  0  0  0  0
 16 18  1  0  0  0  0
 19 20  1  0  0  0  0
 19 26  1  1  0  0  0
 20 21  1  0  0  0  0
 22 16  1  1  0  0  0
 22 20  1  0  0  0  0
 23 24  1  0  0  0  0
 23 22  1  0  0  0  0
 24 19  1  0  0  0  0
 25 24  1  0  0  0  0
 26 27  1  0  0  0  0
M  END
>  <minimizedAffinity>
-4.65325689

>  <minimizedRMSD>
0.951689363

$$$$
