
 OpenBabel03252507073D

 24 25  0  0  1  0  0  0  0  0999 V2000
   44.6700   35.9600   44.5940 C   0  0  0  0  0  0  0  0  0  0  0  0
   45.3070   36.0160   43.3320 C   0  0  0  0  0  0  0  0  0  0  0  0
   46.1030   34.9280   42.9780 C   0  0  0  0  0  0  0  0  0  0  0  0
   46.2290   33.8900   43.8370 N   0  0  0  0  0  0  0  0  0  0  0  0
   45.6070   33.8720   45.0320 C   0  0  0  0  0  0  0  0  0  0  0  0
   44.8280   34.9070   45.4090 N   0  0  0  0  0  0  0  0  0  0  0  0
   44.0330   36.7770   44.9320 H   0  0  0  0  0  0  0  0  0  0  0  0
   45.1270   36.8980   42.7380 H   0  0  0  0  0  0  0  0  0  0  0  0
   46.1420   31.4500   45.3700 C   0  0  1  0  0  3  0  0  0  0  0  0
   45.7180   32.7660   45.9900 C   0  0  1  0  0  3  0  0  0  0  0  0
   46.9230   32.9640   46.9190 C   0  0  0  0  0  3  0  0  0  0  0  0
   46.6020   33.6230   47.7530 H   0  0  0  0  0  0  0  0  0  0  0  0
   47.3520   31.7260   47.3000 O   0  0  0  0  0  0  0  0  0  0  0  0
   46.6120   30.7540   46.6480 C   0  0  0  0  0  3  0  0  0  0  0  0
   45.6870   30.5910   47.2600 H   0  0  0  0  0  0  0  0  0  0  0  0
   45.1200   30.7820   44.7380 O   0  0  0  0  0  0  0  0  0  0  0  0
   44.9500   29.9110   45.1830 H   0  0  0  0  0  0  0  0  0  0  0  0
   46.7250   34.9870   41.7410 O   0  0  0  0  0  0  0  0  0  0  0  0
   48.6380   33.3340   40.9420 O   0  0  0  0  0  0  0  0  0  0  0  0
   48.4090   34.6860   41.6190 P   0  0  0  0  0  0  0  0  0  0  0  0
   49.1200   35.9300   40.7720 O   0  0  0  0  0  0  0  0  0  0  0  0
   48.5950   36.7440   40.8960 H   0  0  0  0  0  0  0  0  0  0  0  0
   49.0090   34.5850   43.2020 O   0  0  0  0  0  0  0  0  0  0  0  0
   49.5850   35.3470   43.4370 H   0  0  0  0  0  0  0  0  0  0  0  0
  1  7  1  0  0  0  0
  1  6  1  0  0  0  0
  2  1  2  0  0  0  0
  3  2  1  0  0  0  0
  3  4  2  0  0  0  0
  4  5  1  0  0  0  0
  5  6  2  0  0  0  0
  8  2  1  0  0  0  0
  9 16  1  1  0  0  0
  9 10  1  0  0  0  0
  9 14  1  0  0  0  0
 10  5  1  6  0  0  0
 10 11  1  0  0  0  0
 11 13  1  0  0  0  0
 11 12  1  0  0  0  0
 14 15  1  0  0  0  0
 14 13  1  0  0  0  0
 16 17  1  0  0  0  0
 18  3  1  0  0  0  0
 19 20  2  0  0  0  0
 20 18  1  0  0  0  0
 20 23  1  0  0  0  0
 21 22  1  0  0  0  0
 21 20  1  0  0  0  0
 23 24  1  0  0  0  0
M  END
>  <minimizedAffinity>
-5.31564045

>  <minimizedRMSD>
0.249479666

$$$$
