
 OpenBabel03242512533D

 44 48  0  0  1  0  0  0  0  0999 V2000
   37.3730   25.5910   40.9990 N   0  0  0  0  0  0  0  0  0  0  0  0
   36.5670   25.1540   39.8550 C   0  0  0  0  0  0  0  0  0  0  0  0
   36.2000   23.7800   40.3800 C   0  0  0  0  0  0  0  0  0  0  0  0
   37.5640   23.2460   40.7310 C   0  0  0  0  0  0  0  0  0  0  0  0
   38.2490   24.4450   41.3590 C   0  0  1  0  0  0  0  0  0  0  0  0
   37.2270   25.0000   38.9870 H   0  0  0  0  0  0  0  0  0  0  0  0
   35.7000   25.7920   39.7000 H   0  0  0  0  0  0  0  0  0  0  0  0
   35.6960   23.2240   39.5850 H   0  0  0  0  0  0  0  0  0  0  0  0
   35.5770   23.9400   41.2910 H   0  0  0  0  0  0  0  0  0  0  0  0
   37.4520   22.3970   41.4130 H   0  0  0  0  0  0  0  0  0  0  0  0
   38.0480   22.9840   39.7650 H   0  0  0  0  0  0  0  0  0  0  0  0
   38.1250   24.3790   42.4040 H   0  0  0  0  0  0  0  0  0  0  0  0
   39.5380   24.7500   40.7690 C   0  0  0  0  0  0  0  0  0  0  0  0
   39.7390   24.6720   39.4310 N   0  0  0  0  0  0  0  0  0  0  0  0
   40.9070   24.9350   38.8100 C   0  0  0  0  0  0  0  0  0  0  0  0
   41.9580   25.3020   39.5610 N   0  0  0  0  0  0  0  0  0  0  0  0
   41.8170   25.3940   40.8790 C   0  0  0  0  0  0  0  0  0  0  0  0
   42.9350   25.7790   41.6010 C   0  0  0  0  0  0  0  0  0  0  0  0
   42.7800   25.8740   42.9780 C   0  0  0  0  0  0  0  0  0  0  0  0
   41.6050   25.6150   43.6790 C   0  0  0  0  0  0  0  0  0  0  0  0
   40.5480   25.2390   42.8750 C   0  0  0  0  0  0  0  0  0  0  0  0
   40.6150   25.1250   41.5310 C   0  0  0  0  0  0  0  0  0  0  0  0
   40.9750   24.8460   37.7330 H   0  0  0  0  0  0  0  0  0  0  0  0
   43.8880   26.0000   41.1450 H   0  0  0  0  0  0  0  0  0  0  0  0
   43.6770   26.1800   43.5280 H   0  0  0  0  0  0  0  0  0  0  0  0
   41.6010   25.7200   44.7480 H   0  0  0  0  0  0  0  0  0  0  0  0
   39.6620   25.0240   43.4450 H   0  0  0  0  0  0  0  0  0  0  0  0
   37.2800   28.1860   43.6500 C   0  0  0  0  0  0  0  0  0  0  0  0
   37.2280   26.9310   43.0660 C   0  0  0  0  0  0  0  0  0  0  0  0
   37.4040   26.8080   41.6970 C   0  0  0  0  0  0  0  0  0  0  0  0
   37.6210   27.9410   40.9790 N   0  0  0  0  0  0  0  0  0  0  0  0
   37.6710   29.1740   41.5580 C   0  0  0  0  0  0  0  0  0  0  0  0
   37.5000   29.2860   42.8920 N   0  0  0  0  0  0  0  0  0  0  0  0
   37.1450   28.3050   44.7220 H   0  0  0  0  0  0  0  0  0  0  0  0
   37.0350   26.1070   43.6870 H   0  0  0  0  0  0  0  0  0  0  0  0
   36.6280   31.0880   40.3360 C   0  0  1  0  0  3  0  0  0  0  0  0
   37.9150   30.3750   40.6870 C   0  0  2  0  0  3  0  0  0  0  0  0
   38.3990   29.9910   39.3070 C   0  0  0  0  0  3  0  0  0  0  0  0
   39.2150   30.6440   38.9380 H   0  0  0  0  0  0  0  0  0  0  0  0
   37.3330   29.9980   38.4580 O   0  0  0  0  0  0  0  0  0  0  0  0
   36.1850   30.2660   39.1470 C   0  0  0  0  0  3  0  0  0  0  0  0
   35.4360   30.8040   38.5280 H   0  0  0  0  0  0  0  0  0  0  0  0
   35.7020   31.0860   41.3660 O   0  0  0  0  0  0  0  0  0  0  0  0
   34.8000   30.8470   41.0750 H   0  0  0  0  0  0  0  0  0  0  0  0
  1  5  1  0  0  0  0
  1 30  1  0  0  0  0
  2  3  1  0  0  0  0
  2  1  1  0  0  0  0
  3  4  1  0  0  0  0
  3  9  1  0  0  0  0
  4  5  1  0  0  0  0
  4 10  1  0  0  0  0
  5 12  1  1  0  0  0
  6  2  1  0  0  0  0
  7  2  1  0  0  0  0
  8  3  1  0  0  0  0
 11  4  1  0  0  0  0
 13  5  1  0  0  0  0
 13 22  1  0  0  0  0
 14 13  2  0  0  0  0
 15 14  1  0  0  0  0
 15 16  2  0  0  0  0
 16 17  1  0  0  0  0
 17 22  2  0  0  0  0
 17 18  1  0  0  0  0
 18 19  2  0  0  0  0
 19 25  1  0  0  0  0
 19 20  1  0  0  0  0
 20 26  1  0  0  0  0
 21 27  1  0  0  0  0
 21 20  2  0  0  0  0
 22 21  1  0  0  0  0
 23 15  1  0  0  0  0
 24 18  1  0  0  0  0
 28 34  1  0  0  0  0
 29 28  1  0  0  0  0
 29 35  1  0  0  0  0
 30 29  2  0  0  0  0
 31 32  2  0  0  0  0
 31 30  1  0  0  0  0
 32 33  1  0  0  0  0
 33 28  2  0  0  0  0
 36 37  1  0  0  0  0
 36 43  1  1  0  0  0
 37 32  1  1  0  0  0
 38 37  1  0  0  0  0
 39 38  1  0  0  0  0
 40 41  1  0  0  0  0
 40 38  1  0  0  0  0
 41 36  1  0  0  0  0
 42 41  1  0  0  0  0
 44 43  1  0  0  0  0
M  END
>  <minimizedAffinity>
-6.47584438

$$$$

 OpenBabel03242512533D

 44 48  0  0  1  0  0  0  0  0999 V2000
   36.9800   29.0990   38.0910 N   0  0  0  0  0  0  0  0  0  0  0  0
   36.3080   28.6270   36.8760 C   0  0  0  0  0  0  0  0  0  0  0  0
   34.9720   29.3050   37.1080 C   0  0  0  0  0  0  0  0  0  0  0  0
   34.6630   28.8340   38.5060 C   0  0  0  0  0  0  0  0  0  0  0  0
   36.0070   28.9290   39.2030 C   0  0  1  0  0  0  0  0  0  0  0  0
   36.1360   27.5430   36.9580 H   0  0  0  0  0  0  0  0  0  0  0  0
   36.8070   28.9760   35.9740 H   0  0  0  0  0  0  0  0  0  0  0  0
   34.2640   28.9530   36.3540 H   0  0  0  0  0  0  0  0  0  0  0  0
   35.1600   30.4040   37.0810 H   0  0  0  0  0  0  0  0  0  0  0  0
   33.8960   29.4820   38.9420 H   0  0  0  0  0  0  0  0  0  0  0  0
   34.3500   27.7710   38.4080 H   0  0  0  0  0  0  0  0  0  0  0  0
   36.0540   29.8600   39.6940 H   0  0  0  0  0  0  0  0  0  0  0  0
   36.4010   27.7020   39.8690 C   0  0  0  0  0  0  0  0  0  0  0  0
   36.2990   26.4990   39.2550 N   0  0  0  0  0  0  0  0  0  0  0  0
   36.6400   25.3180   39.8090 C   0  0  0  0  0  0  0  0  0  0  0  0
   37.1170   25.3200   41.0640 N   0  0  0  0  0  0  0  0  0  0  0  0
   37.2380   26.4710   41.7140 C   0  0  0  0  0  0  0  0  0  0  0  0
   37.7390   26.4100   43.0050 C   0  0  0  0  0  0  0  0  0  0  0  0
   37.8630   27.6190   43.6780 C   0  0  0  0  0  0  0  0  0  0  0  0
   37.5280   28.8690   43.1640 C   0  0  0  0  0  0  0  0  0  0  0  0
   37.0390   28.8280   41.8740 C   0  0  0  0  0  0  0  0  0  0  0  0
   36.8890   27.6970   41.1520 C   0  0  0  0  0  0  0  0  0  0  0  0
   36.5230   24.4040   39.2410 H   0  0  0  0  0  0  0  0  0  0  0  0
   38.0250   25.4870   43.4870 H   0  0  0  0  0  0  0  0  0  0  0  0
   38.2610   27.5450   44.6980 H   0  0  0  0  0  0  0  0  0  0  0  0
   37.6660   29.7400   43.7780 H   0  0  0  0  0  0  0  0  0  0  0  0
   36.7680   29.8040   41.5130 H   0  0  0  0  0  0  0  0  0  0  0  0
   40.6150   29.8140   37.8710 C   0  0  0  0  0  0  0  0  0  0  0  0
   39.3930   29.2260   37.5890 C   0  0  0  0  0  0  0  0  0  0  0  0
   38.2670   29.6220   38.2920 C   0  0  0  0  0  0  0  0  0  0  0  0
   38.4140   30.5830   39.2420 N   0  0  0  0  0  0  0  0  0  0  0  0
   39.6190   31.1590   39.5160 C   0  0  0  0  0  0  0  0  0  0  0  0
   40.7110   30.7680   38.8270 N   0  0  0  0  0  0  0  0  0  0  0  0
   41.5110   29.5180   37.3320 H   0  0  0  0  0  0  0  0  0  0  0  0
   39.3660   28.4750   36.8560 H   0  0  0  0  0  0  0  0  0  0  0  0
   39.2290   33.5620   40.0780 C   0  0  1  0  0  3  0  0  0  0  0  0
   39.6920   32.2140   40.5840 C   0  0  2  0  0  3  0  0  0  0  0  0
   41.1180   32.5430   40.9660 C   0  0  0  0  0  3  0  0  0  0  0  0
   41.2560   32.6630   42.0590 H   0  0  0  0  0  0  0  0  0  0  0  0
   41.5000   33.6620   40.2890 O   0  0  0  0  0  0  0  0  0  0  0  0
   40.5060   34.0610   39.4420 C   0  0  0  0  0  3  0  0  0  0  0  0
   40.4930   35.1610   39.2930 H   0  0  0  0  0  0  0  0  0  0  0  0
   38.1780   33.4790   39.1800 O   0  0  0  0  0  0  0  0  0  0  0  0
   38.3030   34.0340   38.3850 H   0  0  0  0  0  0  0  0  0  0  0  0
  1 30  1  0  0  0  0
  1  5  1  0  0  0  0
  2  6  1  0  0  0  0
  2  3  1  0  0  0  0
  2  1  1  0  0  0  0
  3  4  1  0  0  0  0
  4 10  1  0  0  0  0
  4  5  1  0  0  0  0
  5 12  1  1  0  0  0
  5 13  1  0  0  0  0
  7  2  1  0  0  0  0
  8  3  1  0  0  0  0
  9  3  1  0  0  0  0
 11  4  1  0  0  0  0
 13 22  1  0  0  0  0
 14 15  1  0  0  0  0
 14 13  2  0  0  0  0
 15 16  2  0  0  0  0
 16 17  1  0  0  0  0
 17 18  1  0  0  0  0
 18 24  1  0  0  0  0
 18 19  2  0  0  0  0
 19 25  1  0  0  0  0
 20 19  1  0  0  0  0
 20 26  1  0  0  0  0
 21 20  2  0  0  0  0
 22 17  2  0  0  0  0
 22 21  1  0  0  0  0
 23 15  1  0  0  0  0
 27 21  1  0  0  0  0
 28 33  1  0  0  0  0
 29 28  2  0  0  0  0
 29 30  1  0  0  0  0
 30 31  2  0  0  0  0
 31 32  1  0  0  0  0
 33 32  2  0  0  0  0
 34 28  1  0  0  0  0
 35 29  1  0  0  0  0
 36 43  1  6  0  0  0
 36 37  1  0  0  0  0
 37 32  1  6  0  0  0
 37 38  1  0  0  0  0
 38 39  1  0  0  0  0
 40 38  1  0  0  0  0
 41 36  1  0  0  0  0
 41 40  1  0  0  0  0
 42 41  1  0  0  0  0
 44 43  1  0  0  0  0
M  END
>  <minimizedAffinity>
-6.17305279

$$$$

 OpenBabel03242512533D

 44 48  0  0  1  0  0  0  0  0999 V2000
   37.2520   28.4890   39.3580 N   0  0  0  0  0  0  0  0  0  0  0  0
   35.9100   28.3310   38.7900 C   0  0  0  0  0  0  0  0  0  0  0  0
   35.1790   29.2660   39.7330 C   0  0  0  0  0  0  0  0  0  0  0  0
   35.6250   28.7180   41.0640 C   0  0  0  0  0  0  0  0  0  0  0  0
   37.0940   28.4180   40.8360 C   0  0  1  0  0  0  0  0  0  0  0  0
   35.5460   27.3140   39.0020 H   0  0  0  0  0  0  0  0  0  0  0  0
   35.8650   28.6590   37.7530 H   0  0  0  0  0  0  0  0  0  0  0  0
   34.1050   29.1780   39.5540 H   0  0  0  0  0  0  0  0  0  0  0  0
   35.5900   30.2880   39.5550 H   0  0  0  0  0  0  0  0  0  0  0  0
   35.4460   29.4690   41.8400 H   0  0  0  0  0  0  0  0  0  0  0  0
   35.0540   27.7740   41.2130 H   0  0  0  0  0  0  0  0  0  0  0  0
   37.6510   29.2500   41.1670 H   0  0  0  0  0  0  0  0  0  0  0  0
   37.4710   27.0640   41.1940 C   0  0  0  0  0  0  0  0  0  0  0  0
   36.7930   25.9910   40.7190 N   0  0  0  0  0  0  0  0  0  0  0  0
   37.0790   24.7070   41.0100 C   0  0  0  0  0  0  0  0  0  0  0  0
   38.1120   24.4560   41.8320 N   0  0  0  0  0  0  0  0  0  0  0  0
   38.8120   25.4710   42.3270 C   0  0  0  0  0  0  0  0  0  0  0  0
   39.8670   25.1510   43.1670 C   0  0  0  0  0  0  0  0  0  0  0  0
   40.5950   26.2160   43.6800 C   0  0  0  0  0  0  0  0  0  0  0  0
   40.3490   27.5620   43.4210 C   0  0  0  0  0  0  0  0  0  0  0  0
   39.2800   27.7810   42.5750 C   0  0  0  0  0  0  0  0  0  0  0  0
   38.5250   26.8020   42.0330 C   0  0  0  0  0  0  0  0  0  0  0  0
   36.4800   23.9120   40.5840 H   0  0  0  0  0  0  0  0  0  0  0  0
   40.1320   24.1360   43.4250 H   0  0  0  0  0  0  0  0  0  0  0  0
   41.4240   25.9390   44.3410 H   0  0  0  0  0  0  0  0  0  0  0  0
   40.9790   28.3050   43.8750 H   0  0  0  0  0  0  0  0  0  0  0  0
   39.1020   28.8290   42.4110 H   0  0  0  0  0  0  0  0  0  0  0  0
   40.3460   28.0400   37.3600 C   0  0  0  0  0  0  0  0  0  0  0  0
   39.1110   27.7490   37.9140 C   0  0  0  0  0  0  0  0  0  0  0  0
   38.5010   28.6750   38.7440 C   0  0  0  0  0  0  0  0  0  0  0  0
   39.1520   29.8430   38.9830 N   0  0  0  0  0  0  0  0  0  0  0  0
   40.3680   30.1260   38.4360 C   0  0  0  0  0  0  0  0  0  0  0  0
   40.9560   29.2190   37.6280 N   0  0  0  0  0  0  0  0  0  0  0  0
   40.8430   27.3290   36.7050 H   0  0  0  0  0  0  0  0  0  0  0  0
   38.6830   26.8150   37.6970 H   0  0  0  0  0  0  0  0  0  0  0  0
   41.0030   32.3810   37.5690 C   0  0  1  0  0  3  0  0  0  0  0  0
   41.0180   31.4420   38.7550 C   0  0  2  0  0  3  0  0  0  0  0  0
   42.5090   31.3060   38.9730 C   0  0  0  0  0  3  0  0  0  0  0  0
   42.8780   31.9070   39.8270 H   0  0  0  0  0  0  0  0  0  0  0  0
   43.1470   31.6390   37.8160 O   0  0  0  0  0  0  0  0  0  0  0  0
   42.2350   31.9040   36.8360 C   0  0  0  0  0  3  0  0  0  0  0  0
   42.6030   32.6590   36.1080 H   0  0  0  0  0  0  0  0  0  0  0  0
   39.8500   32.2810   36.8060 O   0  0  0  0  0  0  0  0  0  0  0  0
   40.0250   32.2340   35.8450 H   0  0  0  0  0  0  0  0  0  0  0  0
  1  5  1  0  0  0  0
  2  6  1  0  0  0  0
  2  1  1  0  0  0  0
  2  3  1  0  0  0  0
  3  4  1  0  0  0  0
  4 11  1  0  0  0  0
  4 10  1  0  0  0  0
  5  4  1  0  0  0  0
  5 12  1  1  0  0  0
  5 13  1  0  0  0  0
  7  2  1  0  0  0  0
  8  3  1  0  0  0  0
  9  3  1  0  0  0  0
 13 22  1  0  0  0  0
 14 15  1  0  0  0  0
 14 13  2  0  0  0  0
 15 16  2  0  0  0  0
 16 17  1  0  0  0  0
 17 18  1  0  0  0  0
 18 24  1  0  0  0  0
 18 19  2  0  0  0  0
 19 25  1  0  0  0  0
 20 19  1  0  0  0  0
 20 26  1  0  0  0  0
 21 20  2  0  0  0  0
 22 17  2  0  0  0  0
 22 21  1  0  0  0  0
 23 15  1  0  0  0  0
 27 21  1  0  0  0  0
 28 33  2  0  0  0  0
 28 29  1  0  0  0  0
 29 30  2  0  0  0  0
 30 31  1  0  0  0  0
 30  1  1  0  0  0  0
 32 31  2  0  0  0  0
 33 32  1  0  0  0  0
 34 28  1  0  0  0  0
 35 29  1  0  0  0  0
 36 43  1  6  0  0  0
 36 37  1  0  0  0  0
 37 32  1  6  0  0  0
 37 38  1  0  0  0  0
 38 39  1  0  0  0  0
 40 38  1  0  0  0  0
 41 36  1  0  0  0  0
 41 40  1  0  0  0  0
 42 41  1  0  0  0  0
 44 43  1  0  0  0  0
M  END
>  <minimizedAffinity>
-6.13156033

$$$$

 OpenBabel03242512533D

 44 48  0  0  1  0  0  0  0  0999 V2000
   36.1120   28.9090   40.1270 N   0  0  0  0  0  0  0  0  0  0  0  0
   34.7170   29.3040   39.9070 C   0  0  0  0  0  0  0  0  0  0  0  0
   34.5690   28.7500   38.5040 C   0  0  0  0  0  0  0  0  0  0  0  0
   35.7620   29.3780   37.8320 C   0  0  0  0  0  0  0  0  0  0  0  0
   36.8490   29.2570   38.8830 C   0  0  1  0  0  0  0  0  0  0  0  0
   34.6620   30.4010   39.8260 H   0  0  0  0  0  0  0  0  0  0  0  0
   34.0430   28.8340   40.6200 H   0  0  0  0  0  0  0  0  0  0  0  0
   33.6070   29.0750   38.0980 H   0  0  0  0  0  0  0  0  0  0  0  0
   34.6810   27.6430   38.5820 H   0  0  0  0  0  0  0  0  0  0  0  0
   35.9820   28.8330   36.9080 H   0  0  0  0  0  0  0  0  0  0  0  0
   35.4950   30.4460   37.6700 H   0  0  0  0  0  0  0  0  0  0  0  0
   37.3960   28.3770   38.6850 H   0  0  0  0  0  0  0  0  0  0  0  0
   37.5150   30.5120   39.1740 C   0  0  0  0  0  0  0  0  0  0  0  0
   36.8210   31.6700   39.2940 N   0  0  0  0  0  0  0  0  0  0  0  0
   37.3680   32.8730   39.5580 C   0  0  0  0  0  0  0  0  0  0  0  0
   38.7000   32.9450   39.7150 N   0  0  0  0  0  0  0  0  0  0  0  0
   39.4300   31.8400   39.6080 C   0  0  0  0  0  0  0  0  0  0  0  0
   40.7980   31.9760   39.7830 C   0  0  0  0  0  0  0  0  0  0  0  0
   41.5540   30.8170   39.6690 C   0  0  0  0  0  0  0  0  0  0  0  0
   41.0510   29.5470   39.3970 C   0  0  0  0  0  0  0  0  0  0  0  0
   39.6800   29.5120   39.2390 C   0  0  0  0  0  0  0  0  0  0  0  0
   38.8750   30.5920   39.3350 C   0  0  0  0  0  0  0  0  0  0  0  0
   36.7340   33.7470   39.6360 H   0  0  0  0  0  0  0  0  0  0  0  0
   41.2780   32.9200   39.9960 H   0  0  0  0  0  0  0  0  0  0  0  0
   42.6330   30.9490   39.8110 H   0  0  0  0  0  0  0  0  0  0  0  0
   41.7330   28.7190   39.3310 H   0  0  0  0  0  0  0  0  0  0  0  0
   39.3250   28.5240   39.0080 H   0  0  0  0  0  0  0  0  0  0  0  0
   37.8850   28.3310   43.3350 C   0  0  0  0  0  0  0  0  0  0  0  0
   37.2880   29.0220   42.2940 C   0  0  0  0  0  0  0  0  0  0  0  0
   36.7420   28.3170   41.2320 C   0  0  0  0  0  0  0  0  0  0  0  0
   36.8220   26.9610   41.2610 N   0  0  0  0  0  0  0  0  0  0  0  0
   37.4110   26.2850   42.2870 C   0  0  0  0  0  0  0  0  0  0  0  0
   37.9390   26.9780   43.3180 N   0  0  0  0  0  0  0  0  0  0  0  0
   38.3180   28.8640   44.1780 H   0  0  0  0  0  0  0  0  0  0  0  0
   37.2850   30.0700   42.3360 H   0  0  0  0  0  0  0  0  0  0  0  0
   38.8600   24.2690   42.0110 C   0  0  1  0  0  3  0  0  0  0  0  0
   37.4560   24.7840   42.2370 C   0  0  2  0  0  3  0  0  0  0  0  0
   36.7640   24.2320   41.0110 C   0  0  0  0  0  3  0  0  0  0  0  0
   36.1470   23.3380   41.2280 H   0  0  0  0  0  0  0  0  0  0  0  0
   37.7080   23.9680   40.0640 O   0  0  0  0  0  0  0  0  0  0  0  0
   38.9390   24.3610   40.5050 C   0  0  0  0  0  3  0  0  0  0  0  0
   39.7560   23.7320   40.0930 H   0  0  0  0  0  0  0  0  0  0  0  0
   39.8300   25.0250   42.6480 O   0  0  0  0  0  0  0  0  0  0  0  0
   40.5940   25.2360   42.0760 H   0  0  0  0  0  0  0  0  0  0  0  0
  1 30  1  0  0  0  0
  2  1  1  0  0  0  0
  2  7  1  0  0  0  0
  3  9  1  0  0  0  0
  3  2  1  0  0  0  0
  4  3  1  0  0  0  0
  4  5  1  0  0  0  0
  5 12  1  6  0  0  0
  5 13  1  0  0  0  0
  5  1  1  0  0  0  0
  6  2  1  0  0  0  0
  8  3  1  0  0  0  0
 10  4  1  0  0  0  0
 11  4  1  0  0  0  0
 13 14  2  0  0  0  0
 13 22  1  0  0  0  0
 14 15  1  0  0  0  0
 15 23  1  0  0  0  0
 15 16  2  0  0  0  0
 17 16  1  0  0  0  0
 17 18  1  0  0  0  0
 18 24  1  0  0  0  0
 19 18  2  0  0  0  0
 19 25  1  0  0  0  0
 20 19  1  0  0  0  0
 21 22  1  0  0  0  0
 21 20  2  0  0  0  0
 22 17  2  0  0  0  0
 26 20  1  0  0  0  0
 27 21  1  0  0  0  0
 28 34  1  0  0  0  0
 29 35  1  0  0  0  0
 29 28  2  0  0  0  0
 30 31  2  0  0  0  0
 30 29  1  0  0  0  0
 31 32  1  0  0  0  0
 32 33  2  0  0  0  0
 33 28  1  0  0  0  0
 36 37  1  0  0  0  0
 36 43  1  1  0  0  0
 37 32  1  6  0  0  0
 38 39  1  0  0  0  0
 38 37  1  0  0  0  0
 40 41  1  0  0  0  0
 40 38  1  0  0  0  0
 41 36  1  0  0  0  0
 42 41  1  0  0  0  0
 44 43  1  0  0  0  0
M  END
>  <minimizedAffinity>
-6.09713697

$$$$

 OpenBabel03242512533D

 44 48  0  0  1  0  0  0  0  0999 V2000
   36.4560   25.6910   39.2540 N   0  0  0  0  0  0  0  0  0  0  0  0
   36.1730   24.4820   38.4730 C   0  0  0  0  0  0  0  0  0  0  0  0
   35.4490   23.7070   39.5570 C   0  0  0  0  0  0  0  0  0  0  0  0
   36.4530   23.7970   40.6770 C   0  0  0  0  0  0  0  0  0  0  0  0
   36.9440   25.2290   40.5820 C   0  0  1  0  0  0  0  0  0  0  0  0
   37.1170   23.9510   38.2760 H   0  0  0  0  0  0  0  0  0  0  0  0
   35.5420   24.6920   37.6120 H   0  0  0  0  0  0  0  0  0  0  0  0
   35.2710   22.6880   39.2010 H   0  0  0  0  0  0  0  0  0  0  0  0
   34.5210   24.2770   39.7950 H   0  0  0  0  0  0  0  0  0  0  0  0
   35.9550   23.5660   41.6240 H   0  0  0  0  0  0  0  0  0  0  0  0
   37.2690   23.0880   40.4150 H   0  0  0  0  0  0  0  0  0  0  0  0
   36.3760   25.8120   41.2510 H   0  0  0  0  0  0  0  0  0  0  0  0
   38.3880   25.3420   40.5170 C   0  0  0  0  0  0  0  0  0  0  0  0
   39.0890   24.8670   39.4590 N   0  0  0  0  0  0  0  0  0  0  0  0
   40.4290   24.9310   39.3300 C   0  0  0  0  0  0  0  0  0  0  0  0
   41.1360   25.5060   40.3160 N   0  0  0  0  0  0  0  0  0  0  0  0
   40.5000   25.9890   41.3770 C   0  0  0  0  0  0  0  0  0  0  0  0
   41.2820   26.5730   42.3610 C   0  0  0  0  0  0  0  0  0  0  0  0
   40.6100   27.0770   43.4680 C   0  0  0  0  0  0  0  0  0  0  0  0
   39.2320   27.0400   43.6620 C   0  0  0  0  0  0  0  0  0  0  0  0
   38.5390   26.4410   42.6300 C   0  0  0  0  0  0  0  0  0  0  0  0
   39.1160   25.9280   41.5220 C   0  0  0  0  0  0  0  0  0  0  0  0
   40.9040   24.5220   38.4470 H   0  0  0  0  0  0  0  0  0  0  0  0
   42.3580   26.6470   42.2980 H   0  0  0  0  0  0  0  0  0  0  0  0
   41.2490   27.5340   44.2320 H   0  0  0  0  0  0  0  0  0  0  0  0
   38.8210   27.4620   44.5610 H   0  0  0  0  0  0  0  0  0  0  0  0
   37.4810   26.4070   42.8190 H   0  0  0  0  0  0  0  0  0  0  0  0
   35.5130   28.9070   37.6640 C   0  0  0  0  0  0  0  0  0  0  0  0
   35.5600   27.5420   37.8910 C   0  0  0  0  0  0  0  0  0  0  0  0
   36.3340   27.0510   38.9310 C   0  0  0  0  0  0  0  0  0  0  0  0
   37.0230   27.9430   39.6890 N   0  0  0  0  0  0  0  0  0  0  0  0
   36.9730   29.2860   39.4620 C   0  0  0  0  0  0  0  0  0  0  0  0
   36.2170   29.7570   38.4480 N   0  0  0  0  0  0  0  0  0  0  0  0
   34.9120   29.3150   36.8550 H   0  0  0  0  0  0  0  0  0  0  0  0
   35.0160   26.9170   37.2480 H   0  0  0  0  0  0  0  0  0  0  0  0
   36.9270   31.3410   40.8820 C   0  0  1  0  0  3  0  0  0  0  0  0
   37.7680   30.2020   40.3490 C   0  0  2  0  0  3  0  0  0  0  0  0
   38.8160   30.9750   39.5800 C   0  0  0  0  0  3  0  0  0  0  0  0
   39.7840   31.0410   40.1150 H   0  0  0  0  0  0  0  0  0  0  0  0
   38.3180   32.2120   39.2970 O   0  0  0  0  0  0  0  0  0  0  0  0
   37.0260   32.3090   39.7270 C   0  0  0  0  0  3  0  0  0  0  0  0
   36.7570   33.3440   40.0280 H   0  0  0  0  0  0  0  0  0  0  0  0
   35.6210   30.9720   41.1650 O   0  0  0  0  0  0  0  0  0  0  0  0
   34.9580   31.6030   40.8210 H   0  0  0  0  0  0  0  0  0  0  0  0
  1  5  1  0  0  0  0
  2  1  1  0  0  0  0
  2  3  1  0  0  0  0
  3  9  1  0  0  0  0
  3  4  1  0  0  0  0
  4 10  1  0  0  0  0
  5  4  1  0  0  0  0
  5 12  1  1  0  0  0
  6  2  1  0  0  0  0
  7  2  1  0  0  0  0
  8  3  1  0  0  0  0
 11  4  1  0  0  0  0
 13  5  1  0  0  0  0
 13 22  1  0  0  0  0
 14 13  2  0  0  0  0
 15 14  1  0  0  0  0
 15 16  2  0  0  0  0
 16 17  1  0  0  0  0
 17 22  2  0  0  0  0
 17 18  1  0  0  0  0
 18 19  2  0  0  0  0
 19 20  1  0  0  0  0
 19 25  1  0  0  0  0
 20 26  1  0  0  0  0
 21 27  1  0  0  0  0
 21 20  2  0  0  0  0
 22 21  1  0  0  0  0
 23 15  1  0  0  0  0
 24 18  1  0  0  0  0
 28 29  2  0  0  0  0
 28 33  1  0  0  0  0
 29 30  1  0  0  0  0
 30  1  1  0  0  0  0
 30 31  2  0  0  0  0
 32 31  1  0  0  0  0
 33 32  2  0  0  0  0
 34 28  1  0  0  0  0
 35 29  1  0  0  0  0
 36 43  1  6  0  0  0
 37 32  1  6  0  0  0
 37 36  1  0  0  0  0
 38 39  1  0  0  0  0
 38 37  1  0  0  0  0
 40 38  1  0  0  0  0
 40 41  1  0  0  0  0
 41 42  1  0  0  0  0
 41 36  1  0  0  0  0
 44 43  1  0  0  0  0
M  END
>  <minimizedAffinity>
-6.0924964

$$$$

 OpenBabel03242512533D

 44 48  0  0  1  0  0  0  0  0999 V2000
   38.9400   31.4040   39.2130 N   0  0  0  0  0  0  0  0  0  0  0  0
   38.1590   31.8560   38.0560 C   0  0  0  0  0  0  0  0  0  0  0  0
   37.1400   32.6860   38.8120 C   0  0  0  0  0  0  0  0  0  0  0  0
   36.6710   31.6840   39.8330 C   0  0  0  0  0  0  0  0  0  0  0  0
   37.9550   30.9920   40.2490 C   0  0  1  0  0  0  0  0  0  0  0  0
   37.6190   30.9970   37.6290 H   0  0  0  0  0  0  0  0  0  0  0  0
   38.7580   32.4480   37.3670 H   0  0  0  0  0  0  0  0  0  0  0  0
   36.3620   33.0070   38.1140 H   0  0  0  0  0  0  0  0  0  0  0  0
   37.7000   33.5240   39.2900 H   0  0  0  0  0  0  0  0  0  0  0  0
   36.1720   32.2120   40.6520 H   0  0  0  0  0  0  0  0  0  0  0  0
   36.0080   30.9760   39.2870 H   0  0  0  0  0  0  0  0  0  0  0  0
   38.3180   31.4730   41.1150 H   0  0  0  0  0  0  0  0  0  0  0  0
   37.8900   29.5460   40.1580 C   0  0  0  0  0  0  0  0  0  0  0  0
   37.9140   28.9110   38.9610 N   0  0  0  0  0  0  0  0  0  0  0  0
   37.8530   27.5740   38.7960 C   0  0  0  0  0  0  0  0  0  0  0  0
   37.7600   26.8020   39.8910 N   0  0  0  0  0  0  0  0  0  0  0  0
   37.7320   27.3720   41.0900 C   0  0  0  0  0  0  0  0  0  0  0  0
   37.6370   26.5250   42.1830 C   0  0  0  0  0  0  0  0  0  0  0  0
   37.6090   27.1280   43.4330 C   0  0  0  0  0  0  0  0  0  0  0  0
   37.6670   28.4990   43.6710 C   0  0  0  0  0  0  0  0  0  0  0  0
   37.7600   29.2600   42.5230 C   0  0  0  0  0  0  0  0  0  0  0  0
   37.7950   28.7520   41.2730 C   0  0  0  0  0  0  0  0  0  0  0  0
   37.8780   27.1540   37.7980 H   0  0  0  0  0  0  0  0  0  0  0  0
   37.5870   25.4500   42.0960 H   0  0  0  0  0  0  0  0  0  0  0  0
   37.5340   26.4380   44.2820 H   0  0  0  0  0  0  0  0  0  0  0  0
   37.6370   28.8540   44.6850 H   0  0  0  0  0  0  0  0  0  0  0  0
   37.7800   30.3140   42.7370 H   0  0  0  0  0  0  0  0  0  0  0  0
   42.3710   30.2260   39.9900 C   0  0  0  0  0  0  0  0  0  0  0  0
   40.9980   30.1840   39.8160 C   0  0  0  0  0  0  0  0  0  0  0  0
   40.3260   31.3300   39.4210 C   0  0  0  0  0  0  0  0  0  0  0  0
   41.0540   32.4590   39.2220 N   0  0  0  0  0  0  0  0  0  0  0  0
   42.4060   32.4960   39.3940 C   0  0  0  0  0  0  0  0  0  0  0  0
   43.0540   31.3760   39.7780 N   0  0  0  0  0  0  0  0  0  0  0  0
   42.9190   29.3390   40.2990 H   0  0  0  0  0  0  0  0  0  0  0  0
   40.5050   29.2780   40.0110 H   0  0  0  0  0  0  0  0  0  0  0  0
   43.3400   34.0530   37.6780 C   0  0  1  0  0  3  0  0  0  0  0  0
   43.1330   33.7890   39.1530 C   0  0  2  0  0  3  0  0  0  0  0  0
   44.5690   33.7330   39.6230 C   0  0  0  0  0  3  0  0  0  0  0  0
   44.8910   34.6570   40.1410 H   0  0  0  0  0  0  0  0  0  0  0  0
   45.3650   33.4610   38.5500 O   0  0  0  0  0  0  0  0  0  0  0  0
   44.5990   33.2530   37.4380 C   0  0  0  0  0  3  0  0  0  0  0  0
   45.1160   33.5630   36.5050 H   0  0  0  0  0  0  0  0  0  0  0  0
   42.2780   33.6330   36.8920 O   0  0  0  0  0  0  0  0  0  0  0  0
   42.5570   33.1320   36.1010 H   0  0  0  0  0  0  0  0  0  0  0  0
  1 30  1  0  0  0  0
  1  5  1  0  0  0  0
  2  3  1  0  0  0  0
  2  1  1  0  0  0  0
  3  9  1  0  0  0  0
  3  4  1  0  0  0  0
  4  5  1  0  0  0  0
  4 10  1  0  0  0  0
  5 12  1  1  0  0  0
  6  2  1  0  0  0  0
  7  2  1  0  0  0  0
  8  3  1  0  0  0  0
 11  4  1  0  0  0  0
 13  5  1  0  0  0  0
 13 22  1  0  0  0  0
 14 13  2  0  0  0  0
 15 14  1  0  0  0  0
 15 16  2  0  0  0  0
 16 17  1  0  0  0  0
 17 22  2  0  0  0  0
 17 18  1  0  0  0  0
 18 19  2  0  0  0  0
 19 20  1  0  0  0  0
 19 25  1  0  0  0  0
 20 26  1  0  0  0  0
 21 27  1  0  0  0  0
 21 20  2  0  0  0  0
 22 21  1  0  0  0  0
 23 15  1  0  0  0  0
 24 18  1  0  0  0  0
 28 34  1  0  0  0  0
 29 28  1  0  0  0  0
 29 35  1  0  0  0  0
 30 29  2  0  0  0  0
 31 32  2  0  0  0  0
 31 30  1  0  0  0  0
 32 33  1  0  0  0  0
 33 28  2  0  0  0  0
 36 43  1  6  0  0  0
 36 37  1  0  0  0  0
 37 32  1  6  0  0  0
 37 38  1  0  0  0  0
 38 39  1  0  0  0  0
 40 38  1  0  0  0  0
 41 36  1  0  0  0  0
 41 40  1  0  0  0  0
 42 41  1  0  0  0  0
 44 43  1  0  0  0  0
M  END
>  <minimizedAffinity>
-6.0879097

$$$$

 OpenBabel03242512533D

 44 48  0  0  1  0  0  0  0  0999 V2000
   39.4180   31.7180   40.9070 N   0  0  0  0  0  0  0  0  0  0  0  0
   40.0230   32.9490   40.3890 C   0  0  0  0  0  0  0  0  0  0  0  0
   38.9550   33.9150   40.8640 C   0  0  0  0  0  0  0  0  0  0  0  0
   37.7210   33.2570   40.3050 C   0  0  0  0  0  0  0  0  0  0  0  0
   37.9720   31.7830   40.5620 C   0  0  1  0  0  0  0  0  0  0  0  0
   39.9780   32.9370   39.2890 H   0  0  0  0  0  0  0  0  0  0  0  0
   40.9960   33.1430   40.8350 H   0  0  0  0  0  0  0  0  0  0  0  0
   39.1620   34.9020   40.4420 H   0  0  0  0  0  0  0  0  0  0  0  0
   38.9650   33.8820   41.9790 H   0  0  0  0  0  0  0  0  0  0  0  0
   36.8390   33.6480   40.8220 H   0  0  0  0  0  0  0  0  0  0  0  0
   37.7290   33.4670   39.2120 H   0  0  0  0  0  0  0  0  0  0  0  0
   37.5070   31.5280   41.4740 H   0  0  0  0  0  0  0  0  0  0  0  0
   37.8250   30.9550   39.3810 C   0  0  0  0  0  0  0  0  0  0  0  0
   38.7660   30.9400   38.4060 N   0  0  0  0  0  0  0  0  0  0  0  0
   38.6980   30.2030   37.2790 C   0  0  0  0  0  0  0  0  0  0  0  0
   37.6220   29.4200   37.0960 N   0  0  0  0  0  0  0  0  0  0  0  0
   36.6680   29.3970   38.0200 C   0  0  0  0  0  0  0  0  0  0  0  0
   35.5830   28.5690   37.7770 C   0  0  0  0  0  0  0  0  0  0  0  0
   34.5910   28.5490   38.7480 C   0  0  0  0  0  0  0  0  0  0  0  0
   34.6000   29.2860   39.9300 C   0  0  0  0  0  0  0  0  0  0  0  0
   35.7190   30.0790   40.0820 C   0  0  0  0  0  0  0  0  0  0  0  0
   36.7280   30.1540   39.1880 C   0  0  0  0  0  0  0  0  0  0  0  0
   39.4990   30.2550   36.5530 H   0  0  0  0  0  0  0  0  0  0  0  0
   35.4880   27.9610   36.8900 H   0  0  0  0  0  0  0  0  0  0  0  0
   33.7430   27.8870   38.5340 H   0  0  0  0  0  0  0  0  0  0  0  0
   33.7740   29.1910   40.6100 H   0  0  0  0  0  0  0  0  0  0  0  0
   35.6870   30.6530   40.9920 H   0  0  0  0  0  0  0  0  0  0  0  0
   41.7760   29.2700   42.3940 C   0  0  0  0  0  0  0  0  0  0  0  0
   41.3360   30.3720   41.6810 C   0  0  0  0  0  0  0  0  0  0  0  0
   39.9770   30.6320   41.5990 C   0  0  0  0  0  0  0  0  0  0  0  0
   39.1260   29.7810   42.2290 N   0  0  0  0  0  0  0  0  0  0  0  0
   39.5640   28.6970   42.9300 C   0  0  0  0  0  0  0  0  0  0  0  0
   40.8880   28.4500   43.0060 N   0  0  0  0  0  0  0  0  0  0  0  0
   42.8370   29.0470   42.4730 H   0  0  0  0  0  0  0  0  0  0  0  0
   42.0550   30.9690   41.2050 H   0  0  0  0  0  0  0  0  0  0  0  0
   38.4490   26.4610   42.9130 C   0  0  1  0  0  3  0  0  0  0  0  0
   38.5520   27.8070   43.5950 C   0  0  2  0  0  3  0  0  0  0  0  0
   37.1390   28.3120   43.4140 C   0  0  0  0  0  3  0  0  0  0  0  0
   36.5280   28.2300   44.3350 H   0  0  0  0  0  0  0  0  0  0  0  0
   36.5690   27.6370   42.3760 O   0  0  0  0  0  0  0  0  0  0  0  0
   37.4810   26.7980   41.8040 C   0  0  0  0  0  3  0  0  0  0  0  0
   37.0080   25.8890   41.3750 H   0  0  0  0  0  0  0  0  0  0  0  0
   39.6650   25.9910   42.4420 O   0  0  0  0  0  0  0  0  0  0  0  0
   39.6190   25.6460   41.5290 H   0  0  0  0  0  0  0  0  0  0  0  0
  1 30  1  0  0  0  0
  2  7  1  0  0  0  0
  2  3  1  0  0  0  0
  2  1  1  0  0  0  0
  3  9  1  0  0  0  0
  4  5  1  0  0  0  0
  4 10  1  0  0  0  0
  4  3  1  0  0  0  0
  5  1  1  0  0  0  0
  5 12  1  1  0  0  0
  6  2  1  0  0  0  0
  8  3  1  0  0  0  0
 11  4  1  0  0  0  0
 13  5  1  0  0  0  0
 14 13  2  0  0  0  0
 15 14  1  0  0  0  0
 16 15  2  0  0  0  0
 16 17  1  0  0  0  0
 17 22  1  0  0  0  0
 18 17  2  0  0  0  0
 18 19  1  0  0  0  0
 19 20  2  0  0  0  0
 20 21  1  0  0  0  0
 20 26  1  0  0  0  0
 21 27  1  0  0  0  0
 22 13  1  0  0  0  0
 22 21  2  0  0  0  0
 23 15  1  0  0  0  0
 24 18  1  0  0  0  0
 25 19  1  0  0  0  0
 28 34  1  0  0  0  0
 28 33  1  0  0  0  0
 29 28  2  0  0  0  0
 30 29  1  0  0  0  0
 30 31  2  0  0  0  0
 31 32  1  0  0  0  0
 32 33  2  0  0  0  0
 35 29  1  0  0  0  0
 36 43  1  6  0  0  0
 36 37  1  0  0  0  0
 37 32  1  6  0  0  0
 38 37  1  0  0  0  0
 38 39  1  0  0  0  0
 40 38  1  0  0  0  0
 41 40  1  0  0  0  0
 41 36  1  0  0  0  0
 42 41  1  0  0  0  0
 44 43  1  0  0  0  0
M  END
>  <minimizedAffinity>
-6.06185246

$$$$

 OpenBabel03242512533D

 44 48  0  0  1  0  0  0  0  0999 V2000
   36.7420   29.7140   38.5830 N   0  0  0  0  0  0  0  0  0  0  0  0
   36.5270   29.3740   37.1730 C   0  0  0  0  0  0  0  0  0  0  0  0
   35.0390   29.0960   37.2560 C   0  0  0  0  0  0  0  0  0  0  0  0
   35.0050   28.1140   38.3980 C   0  0  0  0  0  0  0  0  0  0  0  0
   36.0070   28.6940   39.3780 C   0  0  1  0  0  0  0  0  0  0  0  0
   37.0200   28.4140   36.9550 H   0  0  0  0  0  0  0  0  0  0  0  0
   36.7650   30.2060   36.5130 H   0  0  0  0  0  0  0  0  0  0  0  0
   34.7050   28.6810   36.3020 H   0  0  0  0  0  0  0  0  0  0  0  0
   34.5470   30.0590   37.5330 H   0  0  0  0  0  0  0  0  0  0  0  0
   33.9860   28.0570   38.7930 H   0  0  0  0  0  0  0  0  0  0  0  0
   35.3800   27.1510   37.9840 H   0  0  0  0  0  0  0  0  0  0  0  0
   35.4760   29.2830   40.0730 H   0  0  0  0  0  0  0  0  0  0  0  0
   37.0160   27.7450   39.8050 C   0  0  0  0  0  0  0  0  0  0  0  0
   37.6070   26.8980   38.9280 N   0  0  0  0  0  0  0  0  0  0  0  0
   38.5470   25.9870   39.2500 C   0  0  0  0  0  0  0  0  0  0  0  0
   38.9370   25.9010   40.5320 N   0  0  0  0  0  0  0  0  0  0  0  0
   38.3900   26.7070   41.4350 C   0  0  0  0  0  0  0  0  0  0  0  0
   38.8330   26.5740   42.7410 C   0  0  0  0  0  0  0  0  0  0  0  0
   38.2570   27.4200   43.6790 C   0  0  0  0  0  0  0  0  0  0  0  0
   37.2820   28.3790   43.4130 C   0  0  0  0  0  0  0  0  0  0  0  0
   36.9060   28.4370   42.0860 C   0  0  0  0  0  0  0  0  0  0  0  0
   37.4170   27.6520   41.1140 C   0  0  0  0  0  0  0  0  0  0  0  0
   38.9650   25.3500   38.4800 H   0  0  0  0  0  0  0  0  0  0  0  0
   39.5840   25.8580   43.0430 H   0  0  0  0  0  0  0  0  0  0  0  0
   38.6230   27.2960   44.7060 H   0  0  0  0  0  0  0  0  0  0  0  0
   36.9070   28.9800   44.2210 H   0  0  0  0  0  0  0  0  0  0  0  0
   36.1370   29.1690   41.9160 H   0  0  0  0  0  0  0  0  0  0  0  0
   37.7120   32.7580   40.4700 C   0  0  0  0  0  0  0  0  0  0  0  0
   36.8980   31.7820   39.9210 C   0  0  0  0  0  0  0  0  0  0  0  0
   37.4660   30.7560   39.1830 C   0  0  0  0  0  0  0  0  0  0  0  0
   38.8160   30.7550   39.0270 N   0  0  0  0  0  0  0  0  0  0  0  0
   39.6140   31.7180   39.5690 C   0  0  0  0  0  0  0  0  0  0  0  0
   39.0530   32.7140   40.2870 N   0  0  0  0  0  0  0  0  0  0  0  0
   37.2880   33.5710   41.0530 H   0  0  0  0  0  0  0  0  0  0  0  0
   35.8620   31.8640   40.0700 H   0  0  0  0  0  0  0  0  0  0  0  0
   41.5870   32.7330   38.4210 C   0  0  1  0  0  3  0  0  0  0  0  0
   41.0980   31.6410   39.3460 C   0  0  2  0  0  3  0  0  0  0  0  0
   41.4940   30.4160   38.5530 C   0  0  0  0  0  3  0  0  0  0  0  0
   42.4050   29.9230   38.9450 H   0  0  0  0  0  0  0  0  0  0  0  0
   41.6440   30.7760   37.2470 O   0  0  0  0  0  0  0  0  0  0  0  0
   41.3120   32.0900   37.0820 C   0  0  0  0  0  3  0  0  0  0  0  0
   41.8890   32.5720   36.2640 H   0  0  0  0  0  0  0  0  0  0  0  0
   40.9170   33.9340   38.5890 O   0  0  0  0  0  0  0  0  0  0  0  0
   40.6410   34.3440   37.7460 H   0  0  0  0  0  0  0  0  0  0  0  0
  1 30  1  0  0  0  0
  1  5  1  0  0  0  0
  2  3  1  0  0  0  0
  2  1  1  0  0  0  0
  3  9  1  0  0  0  0
  3  4  1  0  0  0  0
  4 10  1  0  0  0  0
  4  5  1  0  0  0  0
  5 13  1  0  0  0  0
  5 12  1  1  0  0  0
  6  2  1  0  0  0  0
  7  2  1  0  0  0  0
  8  3  1  0  0  0  0
 11  4  1  0  0  0  0
 13 22  1  0  0  0  0
 14 15  1  0  0  0  0
 14 13  2  0  0  0  0
 15 16  2  0  0  0  0
 16 17  1  0  0  0  0
 17 18  1  0  0  0  0
 18 24  1  0  0  0  0
 18 19  2  0  0  0  0
 19 25  1  0  0  0  0
 20 19  1  0  0  0  0
 20 26  1  0  0  0  0
 21 20  2  0  0  0  0
 22 17  2  0  0  0  0
 22 21  1  0  0  0  0
 23 15  1  0  0  0  0
 27 21  1  0  0  0  0
 28 34  1  0  0  0  0
 29 35  1  0  0  0  0
 29 28  2  0  0  0  0
 30 29  1  0  0  0  0
 31 30  2  0  0  0  0
 31 32  1  0  0  0  0
 32 33  2  0  0  0  0
 33 28  1  0  0  0  0
 36 43  1  6  0  0  0
 36 37  1  0  0  0  0
 37 32  1  6  0  0  0
 38 39  1  0  0  0  0
 38 37  1  0  0  0  0
 40 38  1  0  0  0  0
 41 40  1  0  0  0  0
 41 36  1  0  0  0  0
 42 41  1  0  0  0  0
 44 43  1  0  0  0  0
M  END
>  <minimizedAffinity>
-6.05996132

$$$$

 OpenBabel03242512533D

 44 48  0  0  1  0  0  0  0  0999 V2000
   36.5960   29.8810   38.4490 N   0  0  0  0  0  0  0  0  0  0  0  0
   36.2010   29.4370   37.1080 C   0  0  0  0  0  0  0  0  0  0  0  0
   34.7370   29.1800   37.4030 C   0  0  0  0  0  0  0  0  0  0  0  0
   34.8510   28.2870   38.6110 C   0  0  0  0  0  0  0  0  0  0  0  0
   35.9700   28.9310   39.4070 C   0  0  1  0  0  0  0  0  0  0  0  0
   36.6630   28.4590   36.9020 H   0  0  0  0  0  0  0  0  0  0  0  0
   36.3520   30.2140   36.3610 H   0  0  0  0  0  0  0  0  0  0  0  0
   34.2830   28.6960   36.5340 H   0  0  0  0  0  0  0  0  0  0  0  0
   34.2840   30.1650   37.6660 H   0  0  0  0  0  0  0  0  0  0  0  0
   33.8920   28.2700   39.1370 H   0  0  0  0  0  0  0  0  0  0  0  0
   35.1700   27.2930   38.2270 H   0  0  0  0  0  0  0  0  0  0  0  0
   35.5330   29.5760   40.1180 H   0  0  0  0  0  0  0  0  0  0  0  0
   37.0270   28.0070   39.7720 C   0  0  0  0  0  0  0  0  0  0  0  0
   37.6620   27.2550   38.8410 N   0  0  0  0  0  0  0  0  0  0  0  0
   38.6480   26.3730   39.1030 C   0  0  0  0  0  0  0  0  0  0  0  0
   39.0390   26.2180   40.3780 N   0  0  0  0  0  0  0  0  0  0  0  0
   38.4500   26.9300   41.3320 C   0  0  0  0  0  0  0  0  0  0  0  0
   38.8970   26.7290   42.6290 C   0  0  0  0  0  0  0  0  0  0  0  0
   38.2770   27.4770   43.6200 C   0  0  0  0  0  0  0  0  0  0  0  0
   37.2550   28.4010   43.4170 C   0  0  0  0  0  0  0  0  0  0  0  0
   36.8780   28.5320   42.0950 C   0  0  0  0  0  0  0  0  0  0  0  0
   37.4310   27.8440   41.0730 C   0  0  0  0  0  0  0  0  0  0  0  0
   39.0980   25.8140   38.2930 H   0  0  0  0  0  0  0  0  0  0  0  0
   39.6840   26.0340   42.8830 H   0  0  0  0  0  0  0  0  0  0  0  0
   38.6480   27.3010   44.6370 H   0  0  0  0  0  0  0  0  0  0  0  0
   36.8480   28.9240   44.2620 H   0  0  0  0  0  0  0  0  0  0  0  0
   36.0720   29.2340   41.9720 H   0  0  0  0  0  0  0  0  0  0  0  0
   37.9170   32.8580   40.2250 C   0  0  0  0  0  0  0  0  0  0  0  0
   37.0530   31.8290   39.8930 C   0  0  0  0  0  0  0  0  0  0  0  0
   37.3910   30.9580   38.8690 C   0  0  0  0  0  0  0  0  0  0  0  0
   38.5720   31.1580   38.2270 N   0  0  0  0  0  0  0  0  0  0  0  0
   39.4190   32.1730   38.5560 C   0  0  0  0  0  0  0  0  0  0  0  0
   39.0840   33.0170   39.5550 N   0  0  0  0  0  0  0  0  0  0  0  0
   37.6730   33.5520   41.0250 H   0  0  0  0  0  0  0  0  0  0  0  0
   36.1510   31.7540   40.4240 H   0  0  0  0  0  0  0  0  0  0  0  0
   41.7110   31.2580   38.1680 C   0  0  1  0  0  3  0  0  0  0  0  0
   40.7050   32.3220   37.7920 C   0  0  2  0  0  3  0  0  0  0  0  0
   41.4650   33.5680   38.1900 C   0  0  0  0  0  3  0  0  0  0  0  0
   41.9020   34.1020   37.3240 H   0  0  0  0  0  0  0  0  0  0  0  0
   42.4220   33.2190   39.0950 O   0  0  0  0  0  0  0  0  0  0  0  0
   42.3220   31.8910   39.3970 C   0  0  0  0  0  3  0  0  0  0  0  0
   43.3050   31.4400   39.6510 H   0  0  0  0  0  0  0  0  0  0  0  0
   41.1340   30.0250   38.4280 O   0  0  0  0  0  0  0  0  0  0  0  0
   41.4700   29.6050   39.2440 H   0  0  0  0  0  0  0  0  0  0  0  0
  1 30  1  0  0  0  0
  1  5  1  0  0  0  0
  2  3  1  0  0  0  0
  2  1  1  0  0  0  0
  3  9  1  0  0  0  0
  3  4  1  0  0  0  0
  4 10  1  0  0  0  0
  4  5  1  0  0  0  0
  5 13  1  0  0  0  0
  5 12  1  1  0  0  0
  6  2  1  0  0  0  0
  7  2  1  0  0  0  0
  8  3  1  0  0  0  0
 11  4  1  0  0  0  0
 13 22  1  0  0  0  0
 14 15  1  0  0  0  0
 14 13  2  0  0  0  0
 15 16  2  0  0  0  0
 16 17  1  0  0  0  0
 17 18  1  0  0  0  0
 18 24  1  0  0  0  0
 18 19  2  0  0  0  0
 19 25  1  0  0  0  0
 20 19  1  0  0  0  0
 20 26  1  0  0  0  0
 21 20  2  0  0  0  0
 22 17  2  0  0  0  0
 22 21  1  0  0  0  0
 23 15  1  0  0  0  0
 27 21  1  0  0  0  0
 28 34  1  0  0  0  0
 29 28  1  0  0  0  0
 29 35  1  0  0  0  0
 30 29  2  0  0  0  0
 31 32  2  0  0  0  0
 31 30  1  0  0  0  0
 32 33  1  0  0  0  0
 33 28  2  0  0  0  0
 36 43  1  1  0  0  0
 36 41  1  0  0  0  0
 37 36  1  0  0  0  0
 37 38  1  0  0  0  0
 37 32  1  1  0  0  0
 38 40  1  0  0  0  0
 39 38  1  0  0  0  0
 40 41  1  0  0  0  0
 41 42  1  0  0  0  0
 43 44  1  0  0  0  0
M  END
>  <minimizedAffinity>
-5.93833256

$$$$
