
 OpenBabel03252508293D

 39 42  0  0  1  0  0  0  0  0999 V2000
   40.6000   31.2280   39.9050 N   0  0  0  0  0  0  0  0  0  0  0  0
   41.1850   31.0280   41.2340 C   0  0  2  0  0  0  0  0  0  0  0  0
   40.1560   31.0160   42.3090 C   0  0  0  0  0  0  0  0  0  0  0  0
   38.8120   30.9120   41.7900 N   0  0  0  0  0  0  0  0  0  0  0  0
   38.4970   31.8220   40.7490 C   0  0  0  0  0  0  0  0  0  0  0  0
   39.7200   32.3770   40.0440 C   0  0  2  0  0  0  0  0  0  0  0  0
   41.3540   31.3530   39.2360 H   0  0  0  0  0  0  0  0  0  0  0  0
   41.7940   30.0900   41.1760 H   0  0  0  0  0  0  0  0  0  0  0  0
   40.3330   30.1140   42.9310 H   0  0  0  0  0  0  0  0  0  0  0  0
   40.0670   31.9360   42.9150 H   0  0  0  0  0  0  0  0  0  0  0  0
   38.4440   29.9590   41.7070 H   0  0  0  0  0  0  0  0  0  0  0  0
   37.8930   32.6360   41.2410 H   0  0  0  0  0  0  0  0  0  0  0  0
   37.9000   31.2490   40.0010 H   0  0  0  0  0  0  0  0  0  0  0  0
   40.1690   33.1060   40.7530 H   0  0  0  0  0  0  0  0  0  0  0  0
   43.9050   33.2850   41.9360 C   0  0  0  0  0  0  0  0  0  0  0  0
   42.8250   34.1330   41.6580 C   0  0  0  0  0  0  0  0  0  0  0  0
   41.7010   33.3780   41.3760 C   0  0  0  0  0  0  0  0  0  0  0  0
   42.1100   32.1170   41.4830 N   0  0  0  0  0  0  0  0  0  0  0  0
   43.3890   32.0630   41.8080 N   0  0  0  0  0  0  0  0  0  0  0  0
   43.0070   35.2210   41.7000 H   0  0  0  0  0  0  0  0  0  0  0  0
   40.8650   34.0360   41.1700 H   0  0  0  0  0  0  0  0  0  0  0  0
   47.3260   34.8510   41.9130 C   0  0  0  0  0  0  0  0  0  0  0  0
   46.0300   34.4920   41.4250 C   0  0  0  0  0  0  0  0  0  0  0  0
   45.2570   33.7220   42.2880 C   0  0  0  0  0  0  0  0  0  0  0  0
   45.7400   33.3610   43.4970 N   0  0  0  0  0  0  0  0  0  0  0  0
   46.9760   33.7240   43.9210 C   0  0  0  0  0  0  0  0  0  0  0  0
   47.7410   34.4590   43.1240 N   0  0  0  0  0  0  0  0  0  0  0  0
   47.9380   35.4490   41.2560 H   0  0  0  0  0  0  0  0  0  0  0  0
   45.6530   34.7800   40.4680 H   0  0  0  0  0  0  0  0  0  0  0  0
   47.2600   33.3860   44.8950 H   0  0  0  0  0  0  0  0  0  0  0  0
   39.2450   34.4880   38.7280 C   0  0  2  0  0  3  0  0  0  0  0  0
   39.4350   33.0180   38.7520 C   0  0  1  0  0  3  0  0  0  0  0  0
   40.5910   32.8610   37.7950 C   0  0  0  0  0  3  0  0  0  0  0  0
   41.2230   32.0020   37.9940 H   0  0  0  0  0  0  0  0  0  0  0  0
   41.3690   33.9940   38.1360 O   0  0  0  0  0  0  0  0  0  0  0  0
   40.4400   34.9950   37.9350 C   0  0  0  0  0  3  0  0  0  0  0  0
   40.2220   35.0570   36.8470 H   0  0  0  0  0  0  0  0  0  0  0  0
   39.2150   35.1710   39.8930 O   0  0  0  0  0  0  0  0  0  0  0  0
   38.2860   35.4720   40.0890 H   0  0  0  0  0  0  0  0  0  0  0  0
  1  6  1  0  0  0  0
  1  2  1  0  0  0  0
  2  8  1  1  0  0  0
  2 18  1  0  0  0  0
  2  3  1  0  0  0  0
  3 10  1  0  0  0  0
  3  9  1  0  0  0  0
  4  3  1  0  0  0  0
  5 12  1  0  0  0  0
  5  4  1  0  0  0  0
  6  5  1  0  0  0  0
  6 14  1  1  0  0  0
  7  1  1  0  0  0  0
 11  4  1  0  0  0  0
 13  5  1  0  0  0  0
 15 24  1  0  0  0  0
 16 20  1  0  0  0  0
 16 15  1  0  0  0  0
 17 18  1  0  0  0  0
 17 16  2  0  0  0  0
 18 19  1  0  0  0  0
 19 15  2  0  0  0  0
 21 17  1  0  0  0  0
 22 27  1  0  0  0  0
 23 22  2  0  0  0  0
 23 24  1  0  0  0  0
 24 25  2  0  0  0  0
 25 26  1  0  0  0  0
 26 30  1  0  0  0  0
 27 26  2  0  0  0  0
 28 22  1  0  0  0  0
 29 23  1  0  0  0  0
 31 32  1  0  0  0  0
 31 38  1  1  0  0  0
 32 33  1  6  0  0  0
 32  6  1  0  0  0  0
 33 34  1  0  0  0  0
 33 35  1  0  0  0  0
 36 35  1  0  0  0  0
 36 31  1  0  0  0  0
 37 36  1  0  0  0  0
 38 39  1  0  0  0  0
M  END
>  <minimizedAffinity>
-4.98529577

>  <minimizedRMSD>
3.27314806

$$$$
