
 OpenBabel03252504183D

 38 40  0  0  1  0  0  0  0  0999 V2000
   47.3070   29.7830   44.9640 F   0  0  0  0  0  0  0  0  0  0  0  0
   47.3590   30.5720   46.0870 C   0  0  0  0  0  0  0  0  0  0  0  0
   46.9710   31.8770   46.0250 C   0  0  0  0  0  0  0  0  0  0  0  0
   47.0590   32.5960   47.2120 C   0  0  0  0  0  0  0  0  0  0  0  0
   47.5070   32.0200   48.3680 C   0  0  0  0  0  0  0  0  0  0  0  0
   47.8850   30.6940   48.3690 C   0  0  0  0  0  0  0  0  0  0  0  0
   47.8180   29.9230   47.2020 C   0  0  0  0  0  0  0  0  0  0  0  0
   46.7620   33.6370   47.2090 H   0  0  0  0  0  0  0  0  0  0  0  0
   47.5590   32.6200   49.2690 H   0  0  0  0  0  0  0  0  0  0  0  0
   48.2440   30.2210   49.2810 H   0  0  0  0  0  0  0  0  0  0  0  0
   46.8060   34.0750   43.1140 C   0  0  0  0  0  0  0  0  0  0  0  0
   45.6440   33.6770   42.4560 C   0  0  0  0  0  0  0  0  0  0  0  0
   44.9080   32.6300   43.0360 C   0  0  0  0  0  0  0  0  0  0  0  0
   45.3430   32.0610   44.1810 N   0  0  0  0  0  0  0  0  0  0  0  0
   46.4860   32.4840   44.7840 C   0  0  0  0  0  0  0  0  0  0  0  0
   47.2000   33.4810   44.2480 N   0  0  0  0  0  0  0  0  0  0  0  0
   43.9970   32.2980   42.5490 H   0  0  0  0  0  0  0  0  0  0  0  0
   45.2450   34.3500   41.2190 C   0  0  0  0  0  0  0  0  0  0  0  0
   45.0070   35.6910   41.4520 F   0  0  0  0  0  0  0  0  0  0  0  0
   46.3120   34.2730   40.3270 F   0  0  0  0  0  0  0  0  0  0  0  0
   44.1550   33.8280   40.6020 F   0  0  0  0  0  0  0  0  0  0  0  0
   47.5190   35.0830   42.5610 O   0  0  0  0  0  0  0  0  0  0  0  0
   48.8230   34.9980   42.0180 C   0  0  0  0  0  0  0  0  0  0  0  0
   49.7230   35.2230   43.0620 F   0  0  0  0  0  0  0  0  0  0  0  0
   49.0010   33.7880   41.4170 F   0  0  0  0  0  0  0  0  0  0  0  0
   49.0220   36.0490   41.1470 F   0  0  0  0  0  0  0  0  0  0  0  0
   48.2180   28.4760   47.1920 C   0  0  0  0  0  0  0  0  0  0  0  0
   47.6230   27.8930   46.4620 H   0  0  0  0  0  0  0  0  0  0  0  0
   48.0410   28.1160   48.2230 H   0  0  0  0  0  0  0  0  0  0  0  0
   51.0960   28.5230   44.9890 C   0  0  2  0  0  3  0  0  0  0  0  0
   49.8060   27.8260   45.4410 C   0  0  0  0  0  3  0  0  0  0  0  0
   48.9600   28.1540   44.8370 H   0  0  0  0  0  0  0  0  0  0  0  0
   49.6600   28.2870   46.8760 C   0  0  1  0  0  3  0  0  0  0  0  0
   50.4050   29.4480   46.9140 O   0  0  0  0  0  0  0  0  0  0  0  0
   51.6200   29.0100   46.3480 C   0  0  0  0  0  3  0  0  0  0  0  0
   51.9090   28.0920   46.8910 H   0  0  0  0  0  0  0  0  0  0  0  0
   50.7810   29.6500   44.2190 O   0  0  0  0  0  0  0  0  0  0  0  0
   51.4350   30.3560   44.5160 H   0  0  0  0  0  0  0  0  0  0  0  0
  1  2  1  0  0  0  0
  2  7  1  0  0  0  0
  3  2  2  0  0  0  0
  3  4  1  0  0  0  0
  4  5  2  0  0  0  0
  5  6  1  0  0  0  0
  5  9  1  0  0  0  0
  6 10  1  0  0  0  0
  7  6  2  0  0  0  0
  8  4  1  0  0  0  0
 11 16  1  0  0  0  0
 12 13  1  0  0  0  0
 12 11  2  0  0  0  0
 13 14  2  0  0  0  0
 14 15  1  0  0  0  0
 15  3  1  0  0  0  0
 16 15  2  0  0  0  0
 17 13  1  0  0  0  0
 18 19  1  0  0  0  0
 18 12  1  0  0  0  0
 20 18  1  0  0  0  0
 21 18  1  0  0  0  0
 22 11  1  0  0  0  0
 23 22  1  0  0  0  0
 23 24  1  0  0  0  0
 25 23  1  0  0  0  0
 26 23  1  0  0  0  0
 27  7  1  0  0  0  0
 27 29  1  0  0  0  0
 28 27  1  0  0  0  0
 30 37  1  6  0  0  0
 30 31  1  0  0  0  0
 30 35  1  0  0  0  0
 31 33  1  0  0  0  0
 32 31  1  0  0  0  0
 33 34  1  0  0  0  0
 33 27  1  6  0  0  0
 35 36  1  0  0  0  0
 35 34  1  0  0  0  0
 37 38  1  0  0  0  0
M  END
>  <minimizedAffinity>
-5.3580575

>  <minimizedRMSD>
0.407291174

$$$$
