
 OpenBabel03252505153D

 25 27  0  0  1  0  0  0  0  0999 V2000
   44.7620   35.1530   45.4890 C   0  0  0  0  0  0  0  0  0  0  0  0
   45.4190   35.1530   44.2470 C   0  0  0  0  0  0  0  0  0  0  0  0
   46.2120   34.0270   44.0030 C   0  0  0  0  0  0  0  0  0  0  0  0
   46.3030   33.0300   44.9440 N   0  0  0  0  0  0  0  0  0  0  0  0
   45.6400   33.0930   46.1260 C   0  0  0  0  0  0  0  0  0  0  0  0
   44.8720   34.1620   46.3860 N   0  0  0  0  0  0  0  0  0  0  0  0
   44.1240   36.0010   45.7500 H   0  0  0  0  0  0  0  0  0  0  0  0
   45.3290   35.9420   43.5380 H   0  0  0  0  0  0  0  0  0  0  0  0
   46.9530   33.8920   42.7020 C   0  0  0  0  0  0  0  0  0  0  0  0
   48.3230   34.5350   42.7470 C   0  0  0  0  0  0  0  0  0  0  0  0
   48.1000   32.9960   42.6590 C   0  0  0  0  0  0  0  0  0  0  0  0
   46.3360   34.0950   41.8060 H   0  0  0  0  0  0  0  0  0  0  0  0
   48.6360   35.0110   41.7960 H   0  0  0  0  0  0  0  0  0  0  0  0
   48.7010   34.9490   43.6840 H   0  0  0  0  0  0  0  0  0  0  0  0
   48.3960   32.4830   43.6190 H   0  0  0  0  0  0  0  0  0  0  0  0
   48.4650   32.5140   41.7320 H   0  0  0  0  0  0  0  0  0  0  0  0
   47.2570   32.0110   47.6310 C   0  0  2  0  0  3  0  0  0  0  0  0
   45.9020   31.8950   46.9640 C   0  0  1  0  0  3  0  0  0  0  0  0
   44.9800   31.8770   48.1750 C   0  0  0  0  0  3  0  0  0  0  0  0
   44.3330   30.9850   48.1420 H   0  0  0  0  0  0  0  0  0  0  0  0
   45.7750   31.8530   49.3020 O   0  0  0  0  0  0  0  0  0  0  0  0
   46.9820   31.2940   48.9570 C   0  0  0  0  0  3  0  0  0  0  0  0
   46.8130   30.2270   48.7590 H   0  0  0  0  0  0  0  0  0  0  0  0
   47.6340   33.3140   47.8260 O   0  0  0  0  0  0  0  0  0  0  0  0
   48.1910   33.4370   48.6540 H   0  0  0  0  0  0  0  0  0  0  0  0
  1  7  1  0  0  0  0
  1  6  1  0  0  0  0
  2  1  2  0  0  0  0
  3  2  1  0  0  0  0
  3  4  2  0  0  0  0
  4  5  1  0  0  0  0
  5  6  2  0  0  0  0
  8  2  1  0  0  0  0
  9 10  1  0  0  0  0
  9  3  1  0  0  0  0
 10 14  1  0  0  0  0
 11  9  1  0  0  0  0
 11 10  1  0  0  0  0
 11 15  1  0  0  0  0
 12  9  1  0  0  0  0
 13 10  1  0  0  0  0
 16 11  1  0  0  0  0
 17 24  1  1  0  0  0
 17 22  1  0  0  0  0
 18  5  1  6  0  0  0
 18 17  1  0  0  0  0
 18 19  1  0  0  0  0
 19 21  1  0  0  0  0
 20 19  1  0  0  0  0
 22 21  1  0  0  0  0
 23 22  1  0  0  0  0
 24 25  1  0  0  0  0
M  END
>  <minimizedAffinity>
-4.73456144

>  <minimizedRMSD>
1.44420636

$$$$
