
 OpenBabel03242515383D

 36 39  0  0  1  0  0  0  0  0999 V2000
   43.9100   34.7660   40.9620 C   0  0  0  0  0  0  0  0  0  0  0  0
   43.8560   33.9100   39.8710 C   0  0  0  0  0  0  0  0  0  0  0  0
   45.0600   33.3160   39.4750 C   0  0  0  0  0  0  0  0  0  0  0  0
   46.1940   33.5910   40.1490 N   0  0  0  0  0  0  0  0  0  0  0  0
   46.2020   34.4320   41.2080 C   0  0  0  0  0  0  0  0  0  0  0  0
   45.0640   34.9930   41.5820 N   0  0  0  0  0  0  0  0  0  0  0  0
   42.9260   33.7010   39.3370 H   0  0  0  0  0  0  0  0  0  0  0  0
   45.6630   31.0620   38.6520 C   0  0  2  0  0  3  0  0  0  0  0  0
   45.0650   32.3950   38.3210 C   0  0  1  0  0  3  0  0  0  0  0  0
   43.6670   32.0000   37.9090 C   0  0  0  0  0  3  0  0  0  0  0  0
   43.0180   32.0050   38.8080 H   0  0  0  0  0  0  0  0  0  0  0  0
   43.7200   30.7430   37.3800 O   0  0  0  0  0  0  0  0  0  0  0  0
   44.9290   30.1530   37.6970 C   0  0  0  0  0  3  0  0  0  0  0  0
   45.5500   30.0310   36.7880 H   0  0  0  0  0  0  0  0  0  0  0  0
   45.2740   30.7520   39.9680 O   0  0  0  0  0  0  0  0  0  0  0  0
   44.3170   30.4530   39.9820 H   0  0  0  0  0  0  0  0  0  0  0  0
   42.3470   35.5220   41.4550 S   0  0  0  0  0  0  0  0  0  0  0  0
   39.9940   34.9210   40.2900 C   0  0  0  0  0  0  0  0  0  0  0  0
   40.9840   34.4160   41.1140 C   0  0  0  0  0  0  0  0  0  0  0  0
   40.8890   33.1460   41.6170 C   0  0  0  0  0  0  0  0  0  0  0  0
   39.8170   32.3210   41.3300 C   0  0  0  0  0  0  0  0  0  0  0  0
   38.8230   32.8400   40.4980 C   0  0  0  0  0  0  0  0  0  0  0  0
   38.8860   34.1170   39.9720 C   0  0  0  0  0  0  0  0  0  0  0  0
   37.8460   31.8260   40.3500 O   0  0  0  0  0  0  0  0  0  0  0  0
   38.1160   30.8600   41.3150 C   0  0  0  0  0  0  0  0  0  0  0  0
   39.4650   31.0170   41.6900 O   0  0  0  0  0  0  0  0  0  0  0  0
   39.9670   35.9120   39.8380 H   0  0  0  0  0  0  0  0  0  0  0  0
   41.6910   32.7770   42.2670 H   0  0  0  0  0  0  0  0  0  0  0  0
   38.1030   34.4850   39.3350 H   0  0  0  0  0  0  0  0  0  0  0  0
   37.4160   30.8580   42.1680 H   0  0  0  0  0  0  0  0  0  0  0  0
   38.0200   29.8600   40.8380 H   0  0  0  0  0  0  0  0  0  0  0  0
   47.3180   34.7550   41.9380 O   0  0  0  0  0  0  0  0  0  0  0  0
   48.5130   35.0600   41.2560 C   0  0  0  0  0  0  0  0  0  0  0  0
   49.4790   34.1190   41.4600 F   0  0  0  0  0  0  0  0  0  0  0  0
   48.1570   35.2190   39.9190 F   0  0  0  0  0  0  0  0  0  0  0  0
   48.9840   36.2680   41.7740 F   0  0  0  0  0  0  0  0  0  0  0  0
  1 17  1  0  0  0  0
  1  6  1  0  0  0  0
  2  1  2  0  0  0  0
  3  2  1  0  0  0  0
  3  4  2  0  0  0  0
  4  5  1  0  0  0  0
  5  6  2  0  0  0  0
  5 32  1  0  0  0  0
  7  2  1  0  0  0  0
  8 15  1  1  0  0  0
  9  8  1  0  0  0  0
  9  3  1  1  0  0  0
 10  9  1  0  0  0  0
 10 11  1  0  0  0  0
 12 13  1  0  0  0  0
 12 10  1  0  0  0  0
 13  8  1  0  0  0  0
 14 13  1  0  0  0  0
 15 16  1  0  0  0  0
 18 19  1  0  0  0  0
 19 17  1  0  0  0  0
 19 20  2  0  0  0  0
 20 28  1  0  0  0  0
 21 20  1  0  0  0  0
 21 26  1  0  0  0  0
 22 21  2  0  0  0  0
 23 18  2  0  0  0  0
 23 22  1  0  0  0  0
 24 22  1  0  0  0  0
 24 25  1  0  0  0  0
 25 26  1  0  0  0  0
 25 30  1  0  0  0  0
 27 18  1  0  0  0  0
 29 23  1  0  0  0  0
 31 25  1  0  0  0  0
 33 34  1  0  0  0  0
 33 36  1  0  0  0  0
 33 32  1  0  0  0  0
 35 33  1  0  0  0  0
M  END
>  <minimizedAffinity>
-5.77689791

>  <minimizedRMSD>
0.57488966

$$$$
