
 OpenBabel03242512513D

 44 48  0  0  1  0  0  0  0  0999 V2000
   47.6290   34.2310   43.0260 N   0  0  0  0  0  0  0  0  0  0  0  0
   49.0030   33.7540   42.8300 C   0  0  0  0  0  0  0  0  0  0  0  0
   49.5890   35.0430   42.2890 C   0  0  0  0  0  0  0  0  0  0  0  0
   48.6130   35.3460   41.1820 C   0  0  0  0  0  0  0  0  0  0  0  0
   47.2730   34.9990   41.8030 C   0  0  1  0  0  0  0  0  0  0  0  0
   49.0160   33.0250   42.0060 H   0  0  0  0  0  0  0  0  0  0  0  0
   49.4620   33.4420   43.7660 H   0  0  0  0  0  0  0  0  0  0  0  0
   50.6070   34.8470   41.9420 H   0  0  0  0  0  0  0  0  0  0  0  0
   49.5220   35.7960   43.1090 H   0  0  0  0  0  0  0  0  0  0  0  0
   48.7060   36.3990   40.9000 H   0  0  0  0  0  0  0  0  0  0  0  0
   48.8540   34.6380   40.3580 H   0  0  0  0  0  0  0  0  0  0  0  0
   46.8600   35.8840   42.2000 H   0  0  0  0  0  0  0  0  0  0  0  0
   46.4810   34.0880   41.0000 C   0  0  0  0  0  0  0  0  0  0  0  0
   47.0400   33.0180   40.3840 N   0  0  0  0  0  0  0  0  0  0  0  0
   46.3710   32.1320   39.6190 C   0  0  0  0  0  0  0  0  0  0  0  0
   45.0520   32.3120   39.4440 N   0  0  0  0  0  0  0  0  0  0  0  0
   44.4520   33.3450   40.0240 C   0  0  0  0  0  0  0  0  0  0  0  0
   43.0890   33.4770   39.8090 C   0  0  0  0  0  0  0  0  0  0  0  0
   42.4690   34.5590   40.4190 C   0  0  0  0  0  0  0  0  0  0  0  0
   43.1010   35.5090   41.2180 C   0  0  0  0  0  0  0  0  0  0  0  0
   44.4560   35.2940   41.3730 C   0  0  0  0  0  0  0  0  0  0  0  0
   45.1320   34.2670   40.8160 C   0  0  0  0  0  0  0  0  0  0  0  0
   46.9030   31.3050   39.1650 H   0  0  0  0  0  0  0  0  0  0  0  0
   42.5150   32.7910   39.2040 H   0  0  0  0  0  0  0  0  0  0  0  0
   41.3910   34.6440   40.2350 H   0  0  0  0  0  0  0  0  0  0  0  0
   42.5180   36.3080   41.6390 H   0  0  0  0  0  0  0  0  0  0  0  0
   44.9200   36.0540   41.9750 H   0  0  0  0  0  0  0  0  0  0  0  0
   44.9670   34.7340   45.5610 C   0  0  0  0  0  0  0  0  0  0  0  0
   45.8000   35.0070   44.4880 C   0  0  0  0  0  0  0  0  0  0  0  0
   46.7360   34.0640   44.0960 C   0  0  0  0  0  0  0  0  0  0  0  0
   46.7980   32.8990   44.7920 N   0  0  0  0  0  0  0  0  0  0  0  0
   45.9760   32.6350   45.8470 C   0  0  0  0  0  0  0  0  0  0  0  0
   45.0660   33.5570   46.2230 N   0  0  0  0  0  0  0  0  0  0  0  0
   44.2240   35.4590   45.8850 H   0  0  0  0  0  0  0  0  0  0  0  0
   45.7040   35.9390   44.0160 H   0  0  0  0  0  0  0  0  0  0  0  0
   45.6160   31.3980   47.9880 C   0  0  1  0  0  0  0  0  0  0  0  0
   46.1130   31.3200   46.5620 C   0  0  2  0  0  0  0  0  0  0  0  0
   47.5600   30.9460   46.7990 C   0  0  0  0  0  0  0  0  0  0  0  0
   47.7660   29.8740   46.6110 H   0  0  0  0  0  0  0  0  0  0  0  0
   47.8950   31.3030   48.0710 O   0  0  0  0  0  0  0  0  0  0  0  0
   46.8490   31.9430   48.6700 C   0  0  0  0  0  0  0  0  0  0  0  0
   46.8240   31.7760   49.7680 H   0  0  0  0  0  0  0  0  0  0  0  0
   44.5110   32.2200   48.1380 O   0  0  0  0  0  0  0  0  0  0  0  0
   44.5840   32.8330   48.8960 H   0  0  0  0  0  0  0  0  0  0  0  0
  1 30  1  0  0  0  0
  2  1  1  0  0  0  0
  2  7  1  0  0  0  0
  3  2  1  0  0  0  0
  3  9  1  0  0  0  0
  4  5  1  0  0  0  0
  4  3  1  0  0  0  0
  5 12  1  1  0  0  0
  5  1  1  0  0  0  0
  6  2  1  0  0  0  0
  8  3  1  0  0  0  0
 10  4  1  0  0  0  0
 11  4  1  0  0  0  0
 13  5  1  0  0  0  0
 14 13  2  0  0  0  0
 15 14  1  0  0  0  0
 16 15  2  0  0  0  0
 16 17  1  0  0  0  0
 17 22  1  0  0  0  0
 18 17  2  0  0  0  0
 18 19  1  0  0  0  0
 19 20  2  0  0  0  0
 20 21  1  0  0  0  0
 20 26  1  0  0  0  0
 21 27  1  0  0  0  0
 22 13  1  0  0  0  0
 22 21  2  0  0  0  0
 23 15  1  0  0  0  0
 24 18  1  0  0  0  0
 25 19  1  0  0  0  0
 28 34  1  0  0  0  0
 28 33  1  0  0  0  0
 29 28  2  0  0  0  0
 30 29  1  0  0  0  0
 30 31  2  0  0  0  0
 31 32  1  0  0  0  0
 32 33  2  0  0  0  0
 35 29  1  0  0  0  0
 36 43  1  6  0  0  0
 36 41  1  0  0  0  0
 37 32  1  1  0  0  0
 37 38  1  0  0  0  0
 37 36  1  0  0  0  0
 38 40  1  0  0  0  0
 39 38  1  0  0  0  0
 40 41  1  0  0  0  0
 41 42  1  0  0  0  0
 43 44  1  0  0  0  0
M  END
>  <minimizedAffinity>
-6.80609369

>  <minimizedRMSD>
1.36053884

$$$$
