
 OpenBabel03252504413D

 45 48  0  0  1  0  0  0  0  0999 V2000
   46.4400   32.1100   47.7240 C   0  0  0  0  0  0  0  0  0  0  0  0
   45.9710   31.8360   48.9770 C   0  0  0  0  0  0  0  0  0  0  0  0
   46.9320   31.1570   49.6100 N   0  0  0  0  0  0  0  0  0  0  0  0
   47.9910   30.9830   48.8200 C   0  0  0  0  0  0  0  0  0  0  0  0
   47.6790   31.5820   47.6410 N   0  0  0  0  0  0  0  0  0  0  0  0
   49.2350   30.3360   49.0410 N   0  0  0  0  0  0  0  0  0  0  0  0
   50.3320   31.1260   49.6160 C   0  0  0  0  0  0  0  0  0  0  0  0
   50.4140   30.6660   51.0700 C   0  0  0  0  0  0  0  0  0  0  0  0
   50.4240   29.1620   51.1360 C   0  0  0  0  0  0  0  0  0  0  0  0
   50.7430   28.5740   49.7700 C   0  0  0  0  0  0  0  0  0  0  0  0
   49.6640   28.9800   48.7990 C   0  0  0  0  0  0  0  0  0  0  0  0
   45.0110   32.1110   49.3890 H   0  0  0  0  0  0  0  0  0  0  0  0
   46.8650   30.8070   50.5900 H   0  0  0  0  0  0  0  0  0  0  0  0
   51.2860   30.9630   49.0930 H   0  0  0  0  0  0  0  0  0  0  0  0
   50.0610   32.2060   49.6340 H   0  0  0  0  0  0  0  0  0  0  0  0
   51.2690   31.1490   51.5670 H   0  0  0  0  0  0  0  0  0  0  0  0
   49.4860   31.0880   51.5540 H   0  0  0  0  0  0  0  0  0  0  0  0
   51.1060   28.7880   51.9130 H   0  0  0  0  0  0  0  0  0  0  0  0
   49.4030   28.8280   51.4290 H   0  0  0  0  0  0  0  0  0  0  0  0
   51.7180   28.9370   49.4090 H   0  0  0  0  0  0  0  0  0  0  0  0
   50.8320   27.4840   49.8840 H   0  0  0  0  0  0  0  0  0  0  0  0
   48.8270   28.2300   48.8980 H   0  0  0  0  0  0  0  0  0  0  0  0
   49.9920   28.8690   47.7370 H   0  0  0  0  0  0  0  0  0  0  0  0
   45.7370   32.8480   46.6410 C   0  0  0  0  0  0  0  0  0  0  0  0
   45.2980   33.7770   47.0540 H   0  0  0  0  0  0  0  0  0  0  0  0
   44.8540   32.2340   46.3010 H   0  0  0  0  0  0  0  0  0  0  0  0
   46.2640   33.6880   44.3800 C   0  0  0  0  0  3  0  0  0  0  0  0
   46.6640   33.1630   45.5280 C   0  0  0  0  0  3  0  0  0  0  0  0
   47.2810   33.9540   43.3570 C   0  0  0  0  0  0  0  0  0  0  0  0
   47.1460   35.0110   42.4370 C   0  0  0  0  0  0  0  0  0  0  0  0
   48.1550   35.1890   41.5030 C   0  0  0  0  0  0  0  0  0  0  0  0
   49.2150   34.3590   41.5080 N   0  0  0  0  0  0  0  0  0  0  0  0
   49.3270   33.3390   42.4110 C   0  0  0  0  0  0  0  0  0  0  0  0
   48.3810   33.1530   43.3040 N   0  0  0  0  0  0  0  0  0  0  0  0
   46.2780   35.6430   42.4780 H   0  0  0  0  0  0  0  0  0  0  0  0
   48.0870   35.9900   40.7790 H   0  0  0  0  0  0  0  0  0  0  0  0
   51.0010   32.2750   40.9140 C   0  0  1  0  0  3  0  0  0  0  0  0
   50.5320   32.4730   42.3410 C   0  0  2  0  0  3  0  0  0  0  0  0
   50.1890   31.0640   42.7210 C   0  0  0  0  0  3  0  0  0  0  0  0
   50.2230   30.8950   43.8270 H   0  0  0  0  0  0  0  0  0  0  0  0
   51.0390   30.2210   42.0270 O   0  0  0  0  0  0  0  0  0  0  0  0
   51.6980   30.9290   41.0530 C   0  0  0  0  0  3  0  0  0  0  0  0
   51.7650   30.3960   40.0840 H   0  0  0  0  0  0  0  0  0  0  0  0
   49.9340   32.1150   40.0350 O   0  0  0  0  0  0  0  0  0  0  0  0
   49.4850   31.2460   40.2010 H   0  0  0  0  0  0  0  0  0  0  0  0
  1  2  2  0  0  0  0
  2 12  1  0  0  0  0
  2  3  1  0  0  0  0
  3 13  1  0  0  0  0
  4  6  1  0  0  0  0
  4  3  1  0  0  0  0
  5  1  1  0  0  0  0
  5  4  2  0  0  0  0
  6  7  1  0  0  0  0
  7 15  1  0  0  0  0
  7  8  1  0  0  0  0
  8  9  1  0  0  0  0
  8 17  1  0  0  0  0
  8 16  1  0  0  0  0
  9 19  1  0  0  0  0
  9 18  1  0  0  0  0
 10 21  1  0  0  0  0
 10  9  1  0  0  0  0
 11 22  1  0  0  0  0
 11  6  1  0  0  0  0
 11 10  1  0  0  0  0
 14  7  1  0  0  0  0
 20 10  1  0  0  0  0
 23 11  1  0  0  0  0
 24 25  1  0  0  0  0
 24  1  1  0  0  0  0
 26 24  1  0  0  0  0
 27 28  2  0  0  0  0
 28 24  1  0  0  0  0
 29 27  1  0  0  0  0
 30 35  1  0  0  0  0
 30 29  2  0  0  0  0
 31 32  2  0  0  0  0
 31 30  1  0  0  0  0
 32 33  1  0  0  0  0
 33 34  2  0  0  0  0
 34 29  1  0  0  0  0
 36 31  1  0  0  0  0
 37 44  1  6  0  0  0
 37 42  1  0  0  0  0
 37 38  1  0  0  0  0
 38 33  1  6  0  0  0
 38 39  1  0  0  0  0
 39 40  1  0  0  0  0
 41 39  1  0  0  0  0
 42 41  1  0  0  0  0
 43 42  1  0  0  0  0
 44 45  1  0  0  0  0
M  END
>  <minimizedAffinity>
-6.03462172

>  <minimizedRMSD>
0.336136878

$$$$
