
 OpenBabel03242516093D

 25 27  0  0  1  0  0  0  0  0999 V2000
   48.3990   34.7280   41.8220 C   0  0  0  0  0  0  0  0  0  0  0  0
   49.0790   36.0490   41.6300 C   0  0  0  0  0  0  0  0  0  0  0  0
   49.7730   34.9470   42.3130 C   0  0  0  0  0  0  0  0  0  0  0  0
   48.6350   36.8920   42.1950 H   0  0  0  0  0  0  0  0  0  0  0  0
   49.4150   36.3560   40.6270 H   0  0  0  0  0  0  0  0  0  0  0  0
   49.8750   35.0920   43.4290 H   0  0  0  0  0  0  0  0  0  0  0  0
   50.6590   34.4470   41.8950 H   0  0  0  0  0  0  0  0  0  0  0  0
   46.1940   35.5260   42.6640 C   0  0  0  0  0  0  0  0  0  0  0  0
   47.2740   34.6570   42.7790 C   0  0  0  0  0  0  0  0  0  0  0  0
   47.2310   33.7110   43.8050 C   0  0  0  0  0  0  0  0  0  0  0  0
   46.1420   33.6820   44.6390 N   0  0  0  0  0  0  0  0  0  0  0  0
   45.1180   34.5360   44.4980 C   0  0  0  0  0  0  0  0  0  0  0  0
   45.1450   35.4540   43.5150 N   0  0  0  0  0  0  0  0  0  0  0  0
   46.1130   36.2950   41.9250 H   0  0  0  0  0  0  0  0  0  0  0  0
   48.0610   33.0550   43.8810 H   0  0  0  0  0  0  0  0  0  0  0  0
   44.3010   34.4380   45.2020 H   0  0  0  0  0  0  0  0  0  0  0  0
   48.7270   32.6340   40.5990 C   0  0  1  0  0  3  0  0  0  0  0  0
   48.1010   34.0090   40.5450 C   0  0  1  0  0  3  0  0  0  0  0  0
   46.6770   33.8130   40.1940 C   0  0  0  0  0  3  0  0  0  0  0  0
   45.9910   33.5080   40.9710 H   0  0  0  0  0  0  0  0  0  0  0  0
   46.7710   32.7050   39.3170 O   0  0  0  0  0  0  0  0  0  0  0  0
   47.6350   31.8110   39.9300 C   0  0  0  0  0  3  0  0  0  0  0  0
   48.1240   31.1500   39.2120 H   0  0  0  0  0  0  0  0  0  0  0  0
   49.9110   32.5590   39.8590 O   0  0  0  0  0  0  0  0  0  0  0  0
   49.7660   32.9200   38.9410 H   0  0  0  0  0  0  0  0  0  0  0  0
  1  3  1  0  0  0  0
  1  9  1  0  0  0  0
  2  1  1  0  0  0  0
  2  4  1  0  0  0  0
  2  3  1  0  0  0  0
  3  6  1  0  0  0  0
  5  2  1  0  0  0  0
  7  3  1  0  0  0  0
  8  9  2  0  0  0  0
  8 13  1  0  0  0  0
  9 10  1  0  0  0  0
 10 15  1  0  0  0  0
 10 11  2  0  0  0  0
 12 11  1  0  0  0  0
 12 16  1  0  0  0  0
 13 12  2  0  0  0  0
 14  8  1  0  0  0  0
 17 24  1  6  0  0  0
 18 17  1  0  0  0  0
 18  1  1  1  0  0  0
 19 18  1  0  0  0  0
 19 20  1  0  0  0  0
 21 22  1  0  0  0  0
 21 19  1  0  0  0  0
 22 17  1  0  0  0  0
 23 22  1  0  0  0  0
 25 24  1  0  0  0  0
M  END
>  <minimizedAffinity>
-4.8287015

>  <minimizedRMSD>
0.905483127

$$$$
