
 OpenBabel03252502403D

 46 49  0  0  1  0  0  0  0  0999 V2000
   36.8930   29.3320   39.5560 C   0  0  1  0  0  0  0  0  0  0  0  0
   37.9050   29.4410   39.0650 H   0  0  0  0  0  0  0  0  0  0  0  0
   37.0310   28.2430   40.4860 N   0  0  0  0  0  0  0  0  0  0  0  0
   38.3260   27.6700   40.4820 C   0  0  0  0  0  0  0  0  0  0  0  0
   38.1680   26.3180   41.2030 C   0  0  0  0  0  0  0  0  0  0  0  0
   37.9970   26.7070   42.5800 N   0  0  0  0  0  0  0  0  0  0  0  0
   36.8440   27.4830   42.7910 C   0  0  0  0  0  0  0  0  0  0  0  0
   36.5940   28.5880   41.7740 C   0  0  0  0  0  0  0  0  0  0  0  0
   39.0990   28.2310   41.0120 H   0  0  0  0  0  0  0  0  0  0  0  0
   38.6230   27.3970   39.4290 H   0  0  0  0  0  0  0  0  0  0  0  0
   39.0710   25.7040   41.0890 H   0  0  0  0  0  0  0  0  0  0  0  0
   37.2350   25.8050   40.8940 H   0  0  0  0  0  0  0  0  0  0  0  0
   38.8700   27.1510   42.9230 H   0  0  0  0  0  0  0  0  0  0  0  0
   36.8730   27.8770   43.8310 H   0  0  0  0  0  0  0  0  0  0  0  0
   35.9590   26.7960   42.7720 H   0  0  0  0  0  0  0  0  0  0  0  0
   37.3880   29.3110   42.1470 H   0  0  0  0  0  0  0  0  0  0  0  0
   35.6000   28.8920   41.9910 H   0  0  0  0  0  0  0  0  0  0  0  0
   34.5690   28.9130   38.7590 C   0  0  0  0  0  0  0  0  0  0  0  0
   35.9040   29.1830   38.5340 C   0  0  0  0  0  0  0  0  0  0  0  0
   36.2820   29.3190   37.1820 C   0  0  0  0  0  0  0  0  0  0  0  0
   35.3380   29.1810   36.2000 N   0  0  0  0  0  0  0  0  0  0  0  0
   34.0460   28.9150   36.4970 C   0  0  0  0  0  0  0  0  0  0  0  0
   33.6590   28.7800   37.7900 N   0  0  0  0  0  0  0  0  0  0  0  0
   34.2500   28.8050   39.7880 H   0  0  0  0  0  0  0  0  0  0  0  0
   37.3180   29.5320   36.9440 H   0  0  0  0  0  0  0  0  0  0  0  0
   33.4740   28.8460   35.5950 H   0  0  0  0  0  0  0  0  0  0  0  0
   36.5820   30.6150   40.3380 C   0  0  0  0  0  0  0  0  0  0  0  0
   35.5440   30.9300   40.3460 H   0  0  0  0  0  0  0  0  0  0  0  0
   36.6580   30.1700   41.3820 H   0  0  0  0  0  0  0  0  0  0  0  0
   37.4730   31.7110   40.1360 C   0  0  0  0  0  0  0  0  0  0  0  0
   37.4640   33.0560   40.2880 C   0  0  0  0  0  0  0  0  0  0  0  0
   38.4800   33.9490   40.0090 C   0  0  0  0  0  0  0  0  0  0  0  0
   39.6000   33.4200   39.5330 N   0  0  0  0  0  0  0  0  0  0  0  0
   39.6920   32.1220   39.3550 C   0  0  0  0  0  0  0  0  0  0  0  0
   38.6740   31.3320   39.6470 N   0  0  0  0  0  0  0  0  0  0  0  0
   36.4890   33.4070   40.6810 H   0  0  0  0  0  0  0  0  0  0  0  0
   38.2430   34.9930   40.2130 H   0  0  0  0  0  0  0  0  0  0  0  0
   41.2450   32.2470   37.4390 C   0  0  1  0  0  3  0  0  0  0  0  0
   41.0030   31.6300   38.8130 C   0  0  2  0  0  3  0  0  0  0  0  0
   40.9580   30.1760   38.4750 C   0  0  0  0  0  3  0  0  0  0  0  0
   41.3430   29.5000   39.2510 H   0  0  0  0  0  0  0  0  0  0  0  0
   41.5200   29.9780   37.2310 O   0  0  0  0  0  0  0  0  0  0  0  0
   42.0920   31.1560   36.8150 C   0  0  0  0  0  3  0  0  0  0  0  0
   43.1400   31.1660   37.1980 H   0  0  0  0  0  0  0  0  0  0  0  0
   40.0720   32.3460   36.7260 O   0  0  0  0  0  0  0  0  0  0  0  0
   39.8910   31.4760   36.2940 H   0  0  0  0  0  0  0  0  0  0  0  0
  1  2  1  6  0  0  0
  1 27  1  0  0  0  0
  1  3  1  0  0  0  0
  3  8  1  0  0  0  0
  4  3  1  0  0  0  0
  4  9  1  0  0  0  0
  4  5  1  0  0  0  0
  5  6  1  0  0  0  0
  6  7  1  0  0  0  0
  6 13  1  0  0  0  0
  7 14  1  0  0  0  0
  8 17  1  0  0  0  0
  8 16  1  0  0  0  0
  8  7  1  0  0  0  0
 10  4  1  0  0  0  0
 11  5  1  0  0  0  0
 12  5  1  0  0  0  0
 15  7  1  0  0  0  0
 18 24  1  0  0  0  0
 19 18  1  0  0  0  0
 19  1  1  0  0  0  0
 20 19  2  0  0  0  0
 21 22  2  0  0  0  0
 21 20  1  0  0  0  0
 22 23  1  0  0  0  0
 23 18  2  0  0  0  0
 25 20  1  0  0  0  0
 26 22  1  0  0  0  0
 27 28  1  0  0  0  0
 27 29  1  0  0  0  0
 30 31  1  0  0  0  0
 30 27  1  0  0  0  0
 31 36  1  0  0  0  0
 32 37  1  0  0  0  0
 32 31  2  0  0  0  0
 33 32  1  0  0  0  0
 34 33  2  0  0  0  0
 34 35  1  0  0  0  0
 35 30  2  0  0  0  0
 38 45  1  6  0  0  0
 38 39  1  0  0  0  0
 39 34  1  6  0  0  0
 40 39  1  0  0  0  0
 40 41  1  0  0  0  0
 42 40  1  0  0  0  0
 43 44  1  0  0  0  0
 43 42  1  0  0  0  0
 43 38  1  0  0  0  0
 46 45  1  0  0  0  0
M  END
>  <minimizedAffinity>
-5.66253424

$$$$

 OpenBabel03252502403D

 46 49  0  0  1  0  0  0  0  0999 V2000
   37.0450   29.8510   39.0590 C   0  0  1  0  0  0  0  0  0  0  0  0
   37.8320   29.0440   38.9830 H   0  0  0  0  0  0  0  0  0  0  0  0
   36.3010   29.7800   37.8300 N   0  0  0  0  0  0  0  0  0  0  0  0
   37.0570   29.2560   36.7520 C   0  0  0  0  0  0  0  0  0  0  0  0
   36.2620   29.6280   35.4870 C   0  0  0  0  0  0  0  0  0  0  0  0
   35.1310   28.7380   35.5450 N   0  0  0  0  0  0  0  0  0  0  0  0
   34.3240   28.9480   36.6780 C   0  0  0  0  0  0  0  0  0  0  0  0
   35.0670   29.1320   37.9930 C   0  0  0  0  0  0  0  0  0  0  0  0
   37.1890   28.1720   36.7440 H   0  0  0  0  0  0  0  0  0  0  0  0
   38.0290   29.8190   36.6540 H   0  0  0  0  0  0  0  0  0  0  0  0
   36.8520   29.4380   34.5810 H   0  0  0  0  0  0  0  0  0  0  0  0
   35.8630   30.6610   35.5530 H   0  0  0  0  0  0  0  0  0  0  0  0
   35.4580   27.7590   35.4390 H   0  0  0  0  0  0  0  0  0  0  0  0
   33.5800   28.1240   36.7340 H   0  0  0  0  0  0  0  0  0  0  0  0
   33.7150   29.8710   36.4980 H   0  0  0  0  0  0  0  0  0  0  0  0
   35.3510   28.0430   38.1540 H   0  0  0  0  0  0  0  0  0  0  0  0
   34.3080   29.4800   38.6500 H   0  0  0  0  0  0  0  0  0  0  0  0
   37.0430   32.2920   39.5620 C   0  0  0  0  0  0  0  0  0  0  0  0
   37.6920   31.0920   39.3470 C   0  0  0  0  0  0  0  0  0  0  0  0
   39.1000   31.1350   39.4310 C   0  0  0  0  0  0  0  0  0  0  0  0
   39.7250   32.3200   39.7110 N   0  0  0  0  0  0  0  0  0  0  0  0
   39.0210   33.4580   39.9090 C   0  0  0  0  0  0  0  0  0  0  0  0
   37.6660   33.4420   39.8340 N   0  0  0  0  0  0  0  0  0  0  0  0
   35.9620   32.2900   39.5050 H   0  0  0  0  0  0  0  0  0  0  0  0
   39.6650   30.2220   39.2720 H   0  0  0  0  0  0  0  0  0  0  0  0
   39.6910   34.2670   40.1130 H   0  0  0  0  0  0  0  0  0  0  0  0
   36.1060   29.5200   40.2260 C   0  0  0  0  0  0  0  0  0  0  0  0
   35.4140   30.3020   40.5190 H   0  0  0  0  0  0  0  0  0  0  0  0
   35.3970   28.8390   39.6520 H   0  0  0  0  0  0  0  0  0  0  0  0
   36.6990   28.8790   41.3540 C   0  0  0  0  0  0  0  0  0  0  0  0
   37.2670   29.2340   42.5300 C   0  0  0  0  0  0  0  0  0  0  0  0
   37.8000   28.4070   43.5000 C   0  0  0  0  0  0  0  0  0  0  0  0
   37.7490   27.1070   43.2420 N   0  0  0  0  0  0  0  0  0  0  0  0
   37.2140   26.6770   42.1230 C   0  0  0  0  0  0  0  0  0  0  0  0
   36.7230   27.5320   41.2430 N   0  0  0  0  0  0  0  0  0  0  0  0
   37.2730   30.3360   42.6540 H   0  0  0  0  0  0  0  0  0  0  0  0
   38.2050   28.9230   44.3700 H   0  0  0  0  0  0  0  0  0  0  0  0
   38.6440   24.6840   41.8370 C   0  0  1  0  0  3  0  0  0  0  0  0
   37.2070   25.1870   41.9340 C   0  0  2  0  0  3  0  0  0  0  0  0
   36.6710   24.7960   40.5960 C   0  0  0  0  0  3  0  0  0  0  0  0
   35.6080   24.5240   40.5750 H   0  0  0  0  0  0  0  0  0  0  0  0
   37.5020   23.8510   40.0290 O   0  0  0  0  0  0  0  0  0  0  0  0
   38.4280   23.4630   40.9660 C   0  0  0  0  0  3  0  0  0  0  0  0
   37.9830   22.6120   41.5360 H   0  0  0  0  0  0  0  0  0  0  0  0
   39.4370   25.5730   41.1480 O   0  0  0  0  0  0  0  0  0  0  0  0
   39.3240   25.4120   40.1800 H   0  0  0  0  0  0  0  0  0  0  0  0
  1  2  1  6  0  0  0
  1 19  1  0  0  0  0
  1 27  1  0  0  0  0
  3  8  1  0  0  0  0
  3  1  1  0  0  0  0
  4  3  1  0  0  0  0
  5  6  1  0  0  0  0
  5 12  1  0  0  0  0
  5  4  1  0  0  0  0
  6  7  1  0  0  0  0
  7 14  1  0  0  0  0
  7  8  1  0  0  0  0
  8 16  1  0  0  0  0
  8 17  1  0  0  0  0
  9  4  1  0  0  0  0
 10  4  1  0  0  0  0
 11  5  1  0  0  0  0
 13  6  1  0  0  0  0
 15  7  1  0  0  0  0
 18 23  1  0  0  0  0
 19 20  1  0  0  0  0
 19 18  2  0  0  0  0
 20 21  2  0  0  0  0
 21 22  1  0  0  0  0
 22 26  1  0  0  0  0
 23 22  2  0  0  0  0
 24 18  1  0  0  0  0
 25 20  1  0  0  0  0
 27 28  1  0  0  0  0
 27 30  1  0  0  0  0
 29 27  1  0  0  0  0
 30 31  1  0  0  0  0
 31 36  1  0  0  0  0
 31 32  2  0  0  0  0
 32 37  1  0  0  0  0
 33 32  1  0  0  0  0
 34 33  2  0  0  0  0
 35 30  2  0  0  0  0
 35 34  1  0  0  0  0
 38 45  1  6  0  0  0
 38 39  1  0  0  0  0
 39 34  1  6  0  0  0
 40 39  1  0  0  0  0
 41 40  1  0  0  0  0
 42 40  1  0  0  0  0
 42 43  1  0  0  0  0
 43 44  1  0  0  0  0
 43 38  1  0  0  0  0
 46 45  1  0  0  0  0
M  END
>  <minimizedAffinity>
-5.43181419

$$$$

 OpenBabel03252502403D

 46 49  0  0  1  0  0  0  0  0999 V2000
   39.0090   32.5770   38.8600 C   0  0  1  0  0  0  0  0  0  0  0  0
   38.8440   33.4660   38.1820 H   0  0  0  0  0  0  0  0  0  0  0  0
   40.3830   32.6610   39.2780 N   0  0  0  0  0  0  0  0  0  0  0  0
   41.2560   33.0700   38.2400 C   0  0  0  0  0  0  0  0  0  0  0  0
   42.6680   32.7170   38.7420 C   0  0  0  0  0  0  0  0  0  0  0  0
   42.9020   33.7070   39.7620 N   0  0  0  0  0  0  0  0  0  0  0  0
   41.9940   33.6170   40.8320 C   0  0  0  0  0  0  0  0  0  0  0  0
   40.5350   33.4230   40.4460 C   0  0  0  0  0  0  0  0  0  0  0  0
   41.2530   34.1370   38.0050 H   0  0  0  0  0  0  0  0  0  0  0  0
   41.1050   32.4190   37.3320 H   0  0  0  0  0  0  0  0  0  0  0  0
   43.4080   32.8160   37.9370 H   0  0  0  0  0  0  0  0  0  0  0  0
   42.6810   31.7280   39.2420 H   0  0  0  0  0  0  0  0  0  0  0  0
   42.9450   34.6470   39.3270 H   0  0  0  0  0  0  0  0  0  0  0  0
   42.1350   34.5060   41.4860 H   0  0  0  0  0  0  0  0  0  0  0  0
   42.2980   32.7460   41.4680 H   0  0  0  0  0  0  0  0  0  0  0  0
   40.3320   34.4880   40.1060 H   0  0  0  0  0  0  0  0  0  0  0  0
   40.0750   33.1720   41.3710 H   0  0  0  0  0  0  0  0  0  0  0  0
   39.2090   30.1520   38.3180 C   0  0  0  0  0  0  0  0  0  0  0  0
   38.6230   31.3920   38.1580 C   0  0  0  0  0  0  0  0  0  0  0  0
   37.5640   31.4530   37.2280 C   0  0  0  0  0  0  0  0  0  0  0  0
   37.1880   30.3210   36.5570 N   0  0  0  0  0  0  0  0  0  0  0  0
   37.8110   29.1390   36.7650 C   0  0  0  0  0  0  0  0  0  0  0  0
   38.8320   29.0550   37.6550 N   0  0  0  0  0  0  0  0  0  0  0  0
   40.0240   30.0740   39.0270 H   0  0  0  0  0  0  0  0  0  0  0  0
   37.0650   32.4010   37.0610 H   0  0  0  0  0  0  0  0  0  0  0  0
   37.3710   28.3840   36.1480 H   0  0  0  0  0  0  0  0  0  0  0  0
   38.1060   32.7180   40.0920 C   0  0  0  0  0  0  0  0  0  0  0  0
   38.5080   33.3010   40.9140 H   0  0  0  0  0  0  0  0  0  0  0  0
   37.3810   33.4770   39.6530 H   0  0  0  0  0  0  0  0  0  0  0  0
   37.4610   31.5290   40.5440 C   0  0  0  0  0  0  0  0  0  0  0  0
   36.3100   30.8580   40.3090 C   0  0  0  0  0  0  0  0  0  0  0  0
   35.8760   29.6840   40.8940 C   0  0  0  0  0  0  0  0  0  0  0  0
   36.6900   29.1530   41.7980 N   0  0  0  0  0  0  0  0  0  0  0  0
   37.8280   29.7420   42.0860 C   0  0  0  0  0  0  0  0  0  0  0  0
   38.1740   30.8650   41.4800 N   0  0  0  0  0  0  0  0  0  0  0  0
   35.6920   31.3770   39.5480 H   0  0  0  0  0  0  0  0  0  0  0  0
   34.9080   29.3260   40.5440 H   0  0  0  0  0  0  0  0  0  0  0  0
   39.9390   28.5180   42.4630 C   0  0  1  0  0  3  0  0  0  0  0  0
   38.6730   29.0570   43.1210 C   0  0  2  0  0  3  0  0  0  0  0  0
   38.0420   27.7960   43.6130 C   0  0  0  0  0  3  0  0  0  0  0  0
   37.4680   27.8890   44.5450 H   0  0  0  0  0  0  0  0  0  0  0  0
   38.9860   26.7900   43.6340 O   0  0  0  0  0  0  0  0  0  0  0  0
   40.2180   27.3390   43.3740 C   0  0  0  0  0  3  0  0  0  0  0  0
   40.6500   27.6570   44.3530 H   0  0  0  0  0  0  0  0  0  0  0  0
   39.6780   28.0390   41.2000 O   0  0  0  0  0  0  0  0  0  0  0  0
   39.3350   27.1150   41.2790 H   0  0  0  0  0  0  0  0  0  0  0  0
  1  2  1  6  0  0  0
  1  3  1  0  0  0  0
  1 27  1  0  0  0  0
  3  8  1  0  0  0  0
  4  5  1  0  0  0  0
  4  3  1  0  0  0  0
  5 12  1  0  0  0  0
  5  6  1  0  0  0  0
  6  7  1  0  0  0  0
  7 15  1  0  0  0  0
  7 14  1  0  0  0  0
  8  7  1  0  0  0  0
  8 17  1  0  0  0  0
  9  4  1  0  0  0  0
 10  4  1  0  0  0  0
 11  5  1  0  0  0  0
 13  6  1  0  0  0  0
 16  8  1  0  0  0  0
 18 24  1  0  0  0  0
 19 18  1  0  0  0  0
 19  1  1  0  0  0  0
 20 19  2  0  0  0  0
 21 22  2  0  0  0  0
 21 20  1  0  0  0  0
 22 23  1  0  0  0  0
 23 18  2  0  0  0  0
 25 20  1  0  0  0  0
 26 22  1  0  0  0  0
 27 30  1  0  0  0  0
 27 28  1  0  0  0  0
 29 27  1  0  0  0  0
 30 35  1  0  0  0  0
 31 30  2  0  0  0  0
 31 32  1  0  0  0  0
 32 33  2  0  0  0  0
 33 34  1  0  0  0  0
 35 34  2  0  0  0  0
 36 31  1  0  0  0  0
 37 32  1  0  0  0  0
 38 45  1  6  0  0  0
 38 39  1  0  0  0  0
 38 43  1  0  0  0  0
 39 34  1  6  0  0  0
 39 40  1  0  0  0  0
 40 42  1  0  0  0  0
 40 41  1  0  0  0  0
 43 42  1  0  0  0  0
 43 44  1  0  0  0  0
 45 46  1  0  0  0  0
M  END
>  <minimizedAffinity>
-5.35716963

$$$$

 OpenBabel03252502403D

 46 49  0  0  1  0  0  0  0  0999 V2000
   39.2140   29.7370   39.8460 C   0  0  1  0  0  0  0  0  0  0  0  0
   38.3420   29.0950   39.5230 H   0  0  0  0  0  0  0  0  0  0  0  0
   38.7580   31.0960   39.7250 N   0  0  0  0  0  0  0  0  0  0  0  0
   37.3480   31.2030   39.6470 C   0  0  0  0  0  0  0  0  0  0  0  0
   37.0830   32.6290   39.1270 C   0  0  0  0  0  0  0  0  0  0  0  0
   37.4020   33.4500   40.2670 N   0  0  0  0  0  0  0  0  0  0  0  0
   38.7470   33.3430   40.6610 C   0  0  0  0  0  0  0  0  0  0  0  0
   39.3120   31.9300   40.7070 C   0  0  0  0  0  0  0  0  0  0  0  0
   36.8070   31.0970   40.5900 H   0  0  0  0  0  0  0  0  0  0  0  0
   36.9540   30.5270   38.8350 H   0  0  0  0  0  0  0  0  0  0  0  0
   36.0290   32.7560   38.8470 H   0  0  0  0  0  0  0  0  0  0  0  0
   37.7960   32.9020   38.3230 H   0  0  0  0  0  0  0  0  0  0  0  0
   36.7250   33.2580   41.0300 H   0  0  0  0  0  0  0  0  0  0  0  0
   38.8690   33.8700   41.6330 H   0  0  0  0  0  0  0  0  0  0  0  0
   39.3650   33.9340   39.9380 H   0  0  0  0  0  0  0  0  0  0  0  0
   38.8000   31.6000   41.6670 H   0  0  0  0  0  0  0  0  0  0  0  0
   40.3570   32.0950   40.8130 H   0  0  0  0  0  0  0  0  0  0  0  0
   41.6240   29.1570   39.5830 C   0  0  0  0  0  0  0  0  0  0  0  0
   40.3600   29.3730   39.0720 C   0  0  0  0  0  0  0  0  0  0  0  0
   40.2270   29.2080   37.6770 C   0  0  0  0  0  0  0  0  0  0  0  0
   41.3200   28.8560   36.9310 N   0  0  0  0  0  0  0  0  0  0  0  0
   42.5300   28.6620   37.5030 C   0  0  0  0  0  0  0  0  0  0  0  0
   42.6820   28.8140   38.8430 N   0  0  0  0  0  0  0  0  0  0  0  0
   41.7550   29.2760   40.6510 H   0  0  0  0  0  0  0  0  0  0  0  0
   39.2570   29.3640   37.2180 H   0  0  0  0  0  0  0  0  0  0  0  0
   43.2460   28.3940   36.7540 H   0  0  0  0  0  0  0  0  0  0  0  0
   39.5230   29.4480   41.3210 C   0  0  0  0  0  0  0  0  0  0  0  0
   40.5400   29.1440   41.5450 H   0  0  0  0  0  0  0  0  0  0  0  0
   39.5600   30.5280   41.6750 H   0  0  0  0  0  0  0  0  0  0  0  0
   38.5630   28.6640   42.0270 C   0  0  0  0  0  0  0  0  0  0  0  0
   37.8520   28.7390   43.1760 C   0  0  0  0  0  0  0  0  0  0  0  0
   36.9510   27.8200   43.6790 C   0  0  0  0  0  0  0  0  0  0  0  0
   36.7640   26.7320   42.9440 N   0  0  0  0  0  0  0  0  0  0  0  0
   37.4150   26.5800   41.8140 C   0  0  0  0  0  0  0  0  0  0  0  0
   38.2610   27.5070   41.3980 N   0  0  0  0  0  0  0  0  0  0  0  0
   38.0790   29.6750   43.7260 H   0  0  0  0  0  0  0  0  0  0  0  0
   36.4960   28.0970   44.6300 H   0  0  0  0  0  0  0  0  0  0  0  0
   37.6030   24.1190   41.8820 C   0  0  1  0  0  3  0  0  0  0  0  0
   37.1270   25.3130   41.0610 C   0  0  2  0  0  3  0  0  0  0  0  0
   37.9770   25.1840   39.8390 C   0  0  0  0  0  3  0  0  0  0  0  0
   37.5100   25.5170   38.9030 H   0  0  0  0  0  0  0  0  0  0  0  0
   38.5010   23.9090   39.7800 O   0  0  0  0  0  0  0  0  0  0  0  0
   37.9140   23.1470   40.7610 C   0  0  0  0  0  3  0  0  0  0  0  0
   36.9900   22.7010   40.3220 H   0  0  0  0  0  0  0  0  0  0  0  0
   38.7750   24.4060   42.5440 O   0  0  0  0  0  0  0  0  0  0  0  0
   39.5300   24.2700   41.9220 H   0  0  0  0  0  0  0  0  0  0  0  0
  1  2  1  6  0  0  0
  1 27  1  0  0  0  0
  3  1  1  0  0  0  0
  3  8  1  0  0  0  0
  4  3  1  0  0  0  0
  4  9  1  0  0  0  0
  5  4  1  0  0  0  0
  5  6  1  0  0  0  0
  6  7  1  0  0  0  0
  6 13  1  0  0  0  0
  7  8  1  0  0  0  0
  7 14  1  0  0  0  0
  8 17  1  0  0  0  0
  8 16  1  0  0  0  0
 10  4  1  0  0  0  0
 11  5  1  0  0  0  0
 12  5  1  0  0  0  0
 15  7  1  0  0  0  0
 18 24  1  0  0  0  0
 19 18  1  0  0  0  0
 19  1  1  0  0  0  0
 20 19  2  0  0  0  0
 21 22  2  0  0  0  0
 21 20  1  0  0  0  0
 22 23  1  0  0  0  0
 23 18  2  0  0  0  0
 25 20  1  0  0  0  0
 26 22  1  0  0  0  0
 27 28  1  0  0  0  0
 27 29  1  0  0  0  0
 27 30  1  0  0  0  0
 30 31  1  0  0  0  0
 31 32  2  0  0  0  0
 31 36  1  0  0  0  0
 32 37  1  0  0  0  0
 33 32  1  0  0  0  0
 34 33  2  0  0  0  0
 35 34  1  0  0  0  0
 35 30  2  0  0  0  0
 38 45  1  6  0  0  0
 39 34  1  1  0  0  0
 39 38  1  0  0  0  0
 40 39  1  0  0  0  0
 41 40  1  0  0  0  0
 42 40  1  0  0  0  0
 42 43  1  0  0  0  0
 43 38  1  0  0  0  0
 44 43  1  0  0  0  0
 46 45  1  0  0  0  0
M  END
>  <minimizedAffinity>
-5.35525799

$$$$

 OpenBabel03252502403D

 46 49  0  0  1  0  0  0  0  0999 V2000
   36.2540   29.7230   39.0050 C   0  0  1  0  0  0  0  0  0  0  0  0
   35.6200   29.9050   39.9230 H   0  0  0  0  0  0  0  0  0  0  0  0
   36.9850   30.9440   38.7950 N   0  0  0  0  0  0  0  0  0  0  0  0
   36.8840   31.8470   39.8820 C   0  0  0  0  0  0  0  0  0  0  0  0
   37.3650   33.1990   39.3240 C   0  0  0  0  0  0  0  0  0  0  0  0
   38.7880   33.0080   39.2030 N   0  0  0  0  0  0  0  0  0  0  0  0
   39.1290   31.9860   38.2980 C   0  0  0  0  0  0  0  0  0  0  0  0
   38.3140   30.7060   38.4100 C   0  0  0  0  0  0  0  0  0  0  0  0
   37.5010   31.6180   40.7530 H   0  0  0  0  0  0  0  0  0  0  0  0
   35.8000   32.0160   40.1410 H   0  0  0  0  0  0  0  0  0  0  0  0
   37.1490   34.0140   40.0280 H   0  0  0  0  0  0  0  0  0  0  0  0
   36.9750   33.3750   38.3020 H   0  0  0  0  0  0  0  0  0  0  0  0
   39.2020   32.8870   40.1460 H   0  0  0  0  0  0  0  0  0  0  0  0
   40.2200   31.7920   38.3850 H   0  0  0  0  0  0  0  0  0  0  0  0
   38.9940   32.3880   37.2610 H   0  0  0  0  0  0  0  0  0  0  0  0
   38.8040   30.3030   39.3530 H   0  0  0  0  0  0  0  0  0  0  0  0
   38.5800   30.1760   37.5280 H   0  0  0  0  0  0  0  0  0  0  0  0
   35.7490   29.2830   36.6050 C   0  0  0  0  0  0  0  0  0  0  0  0
   35.4020   29.2940   37.9410 C   0  0  0  0  0  0  0  0  0  0  0  0
   34.1020   28.8350   38.2380 C   0  0  0  0  0  0  0  0  0  0  0  0
   33.2830   28.4190   37.2240 N   0  0  0  0  0  0  0  0  0  0  0  0
   33.6930   28.4380   35.9350 C   0  0  0  0  0  0  0  0  0  0  0  0
   34.9390   28.8750   35.6240 N   0  0  0  0  0  0  0  0  0  0  0  0
   36.7420   29.6290   36.3460 H   0  0  0  0  0  0  0  0  0  0  0  0
   33.7730   28.8190   39.2720 H   0  0  0  0  0  0  0  0  0  0  0  0
   32.9110   28.0760   35.3010 H   0  0  0  0  0  0  0  0  0  0  0  0
   37.2490   28.5950   39.3060 C   0  0  0  0  0  0  0  0  0  0  0  0
   37.3800   27.8530   38.5250 H   0  0  0  0  0  0  0  0  0  0  0  0
   38.2020   29.1990   39.1610 H   0  0  0  0  0  0  0  0  0  0  0  0
   37.1600   28.0000   40.5990 C   0  0  0  0  0  0  0  0  0  0  0  0
   37.1450   28.4000   41.8920 C   0  0  0  0  0  0  0  0  0  0  0  0
   37.0570   27.6130   43.0240 C   0  0  0  0  0  0  0  0  0  0  0  0
   36.9790   26.3050   42.8140 N   0  0  0  0  0  0  0  0  0  0  0  0
   36.9870   25.8330   41.5890 C   0  0  0  0  0  0  0  0  0  0  0  0
   37.0730   26.6520   40.5550 N   0  0  0  0  0  0  0  0  0  0  0  0
   37.2230   29.5030   41.9690 H   0  0  0  0  0  0  0  0  0  0  0  0
   37.0620   28.1610   43.9660 H   0  0  0  0  0  0  0  0  0  0  0  0
   38.2880   23.7610   41.2490 C   0  0  1  0  0  3  0  0  0  0  0  0
   36.8930   24.3390   41.4650 C   0  0  2  0  0  3  0  0  0  0  0  0
   36.2080   23.9240   40.2050 C   0  0  0  0  0  3  0  0  0  0  0  0
   35.1360   23.7050   40.3010 H   0  0  0  0  0  0  0  0  0  0  0  0
   36.9330   22.9180   39.6000 O   0  0  0  0  0  0  0  0  0  0  0  0
   37.9300   22.5200   40.4570 C   0  0  0  0  0  3  0  0  0  0  0  0
   37.5050   21.7160   41.1040 H   0  0  0  0  0  0  0  0  0  0  0  0
   39.0470   24.5830   40.4480 O   0  0  0  0  0  0  0  0  0  0  0  0
   38.8300   24.3910   39.5040 H   0  0  0  0  0  0  0  0  0  0  0  0
  1 27  1  0  0  0  0
  1  2  1  1  0  0  0
  3  1  1  0  0  0  0
  3  4  1  0  0  0  0
  4 10  1  0  0  0  0
  4  9  1  0  0  0  0
  5  4  1  0  0  0  0
  5 11  1  0  0  0  0
  6  5  1  0  0  0  0
  6 13  1  0  0  0  0
  7 14  1  0  0  0  0
  7  8  1  0  0  0  0
  7  6  1  0  0  0  0
  8  3  1  0  0  0  0
  8 16  1  0  0  0  0
 12  5  1  0  0  0  0
 15  7  1  0  0  0  0
 17  8  1  0  0  0  0
 18 19  1  0  0  0  0
 19 20  2  0  0  0  0
 19  1  1  0  0  0  0
 20 25  1  0  0  0  0
 21 20  1  0  0  0  0
 22 21  2  0  0  0  0
 23 22  1  0  0  0  0
 23 18  2  0  0  0  0
 24 18  1  0  0  0  0
 26 22  1  0  0  0  0
 27 30  1  0  0  0  0
 28 27  1  0  0  0  0
 29 27  1  0  0  0  0
 30 31  1  0  0  0  0
 31 36  1  0  0  0  0
 31 32  2  0  0  0  0
 32 37  1  0  0  0  0
 33 32  1  0  0  0  0
 34 33  2  0  0  0  0
 35 30  2  0  0  0  0
 35 34  1  0  0  0  0
 38 45  1  6  0  0  0
 38 39  1  0  0  0  0
 39 34  1  6  0  0  0
 40 41  1  0  0  0  0
 40 39  1  0  0  0  0
 42 40  1  0  0  0  0
 42 43  1  0  0  0  0
 43 44  1  0  0  0  0
 43 38  1  0  0  0  0
 46 45  1  0  0  0  0
M  END
>  <minimizedAffinity>
-5.31971979

$$$$

 OpenBabel03252502403D

 46 49  0  0  1  0  0  0  0  0999 V2000
   37.7550   29.7800   39.0380 C   0  0  1  0  0  0  0  0  0  0  0  0
   37.0880   30.6880   39.1300 H   0  0  0  0  0  0  0  0  0  0  0  0
   37.4000   29.1660   37.7870 N   0  0  0  0  0  0  0  0  0  0  0  0
   36.9740   30.0990   36.8110 C   0  0  0  0  0  0  0  0  0  0  0  0
   36.2740   29.2560   35.7290 C   0  0  0  0  0  0  0  0  0  0  0  0
   37.3740   28.5930   35.0770 N   0  0  0  0  0  0  0  0  0  0  0  0
   38.0900   27.7420   35.9370 C   0  0  0  0  0  0  0  0  0  0  0  0
   38.4030   28.3060   37.3150 C   0  0  0  0  0  0  0  0  0  0  0  0
   37.7640   30.6680   36.3160 H   0  0  0  0  0  0  0  0  0  0  0  0
   36.1580   30.7530   37.2330 H   0  0  0  0  0  0  0  0  0  0  0  0
   35.7370   29.8970   35.0170 H   0  0  0  0  0  0  0  0  0  0  0  0
   35.6430   28.4650   36.1820 H   0  0  0  0  0  0  0  0  0  0  0  0
   37.9660   29.2990   34.5970 H   0  0  0  0  0  0  0  0  0  0  0  0
   39.0080   27.4030   35.4090 H   0  0  0  0  0  0  0  0  0  0  0  0
   37.4840   26.8100   36.0800 H   0  0  0  0  0  0  0  0  0  0  0  0
   39.2380   29.0100   36.9980 H   0  0  0  0  0  0  0  0  0  0  0  0
   38.7410   27.4530   37.8510 H   0  0  0  0  0  0  0  0  0  0  0  0
   36.3890   28.6480   40.7890 C   0  0  0  0  0  0  0  0  0  0  0  0
   37.5990   28.9810   40.2140 C   0  0  0  0  0  0  0  0  0  0  0  0
   38.7440   28.4710   40.8600 C   0  0  0  0  0  0  0  0  0  0  0  0
   38.6010   27.7020   41.9830 N   0  0  0  0  0  0  0  0  0  0  0  0
   37.3800   27.4180   42.4910 C   0  0  0  0  0  0  0  0  0  0  0  0
   36.2630   27.8970   41.8870 N   0  0  0  0  0  0  0  0  0  0  0  0
   35.4920   29.0240   40.3140 H   0  0  0  0  0  0  0  0  0  0  0  0
   39.7240   28.6990   40.4530 H   0  0  0  0  0  0  0  0  0  0  0  0
   37.4840   26.8090   43.3640 H   0  0  0  0  0  0  0  0  0  0  0  0
   39.2150   30.2430   38.9660 C   0  0  0  0  0  0  0  0  0  0  0  0
   39.9470   29.5880   39.4260 H   0  0  0  0  0  0  0  0  0  0  0  0
   39.3930   29.9930   37.8710 H   0  0  0  0  0  0  0  0  0  0  0  0
   39.4600   31.6160   39.2680 C   0  0  0  0  0  0  0  0  0  0  0  0
   38.7510   32.7060   39.6430 C   0  0  0  0  0  0  0  0  0  0  0  0
   39.2190   33.9840   39.8800 C   0  0  0  0  0  0  0  0  0  0  0  0
   40.5240   34.1610   39.7160 N   0  0  0  0  0  0  0  0  0  0  0  0
   41.2850   33.1550   39.3530 C   0  0  0  0  0  0  0  0  0  0  0  0
   40.7620   31.9590   39.1460 N   0  0  0  0  0  0  0  0  0  0  0  0
   37.6740   32.4650   39.7470 H   0  0  0  0  0  0  0  0  0  0  0  0
   38.4570   34.7050   40.1750 H   0  0  0  0  0  0  0  0  0  0  0  0
   42.9810   34.1300   37.8450 C   0  0  1  0  0  3  0  0  0  0  0  0
   42.7460   33.4650   39.1980 C   0  0  2  0  0  3  0  0  0  0  0  0
   43.5700   32.2270   39.0610 C   0  0  0  0  0  3  0  0  0  0  0  0
   44.0310   31.8620   39.9880 H   0  0  0  0  0  0  0  0  0  0  0  0
   44.4590   32.3820   38.0170 O   0  0  0  0  0  0  0  0  0  0  0  0
   44.4060   33.6860   37.5870 C   0  0  0  0  0  3  0  0  0  0  0  0
   45.1430   34.2630   38.1960 H   0  0  0  0  0  0  0  0  0  0  0  0
   42.1730   33.5800   36.8760 O   0  0  0  0  0  0  0  0  0  0  0  0
   42.6030   32.7580   36.5370 H   0  0  0  0  0  0  0  0  0  0  0  0
  1  2  1  1  0  0  0
  1 19  1  0  0  0  0
  3  1  1  0  0  0  0
  4 10  1  0  0  0  0
  4  3  1  0  0  0  0
  5 12  1  0  0  0  0
  5  4  1  0  0  0  0
  6  5  1  0  0  0  0
  6  7  1  0  0  0  0
  7 15  1  0  0  0  0
  7  8  1  0  0  0  0
  8  3  1  0  0  0  0
  8 17  1  0  0  0  0
  9  4  1  0  0  0  0
 11  5  1  0  0  0  0
 13  6  1  0  0  0  0
 14  7  1  0  0  0  0
 16  8  1  0  0  0  0
 18 23  1  0  0  0  0
 19 18  2  0  0  0  0
 19 20  1  0  0  0  0
 20 21  2  0  0  0  0
 21 22  1  0  0  0  0
 22 26  1  0  0  0  0
 23 22  2  0  0  0  0
 24 18  1  0  0  0  0
 25 20  1  0  0  0  0
 27  1  1  0  0  0  0
 27 30  1  0  0  0  0
 27 28  1  0  0  0  0
 29 27  1  0  0  0  0
 30 31  1  0  0  0  0
 31 36  1  0  0  0  0
 31 32  2  0  0  0  0
 32 37  1  0  0  0  0
 33 32  1  0  0  0  0
 34 33  2  0  0  0  0
 35 30  2  0  0  0  0
 35 34  1  0  0  0  0
 38 45  1  6  0  0  0
 38 39  1  0  0  0  0
 39 34  1  6  0  0  0
 40 39  1  0  0  0  0
 40 41  1  0  0  0  0
 42 40  1  0  0  0  0
 43 38  1  0  0  0  0
 43 42  1  0  0  0  0
 43 44  1  0  0  0  0
 46 45  1  0  0  0  0
M  END
>  <minimizedAffinity>
-5.27593374

$$$$

 OpenBabel03252502403D

 46 49  0  0  1  0  0  0  0  0999 V2000
   37.6900   29.0950   40.5300 C   0  0  1  0  0  0  0  0  0  0  0  0
   38.5770   29.2110   39.8400 H   0  0  0  0  0  0  0  0  0  0  0  0
   37.9750   27.9370   41.3340 N   0  0  0  0  0  0  0  0  0  0  0  0
   38.8260   27.0080   40.6870 C   0  0  0  0  0  0  0  0  0  0  0  0
   38.6880   25.7060   41.4980 C   0  0  0  0  0  0  0  0  0  0  0  0
   39.4080   26.0050   42.7090 N   0  0  0  0  0  0  0  0  0  0  0  0
   38.8400   27.0670   43.4360 C   0  0  0  0  0  0  0  0  0  0  0  0
   38.4240   28.2810   42.6180 C   0  0  0  0  0  0  0  0  0  0  0  0
   39.8880   27.2650   40.6660 H   0  0  0  0  0  0  0  0  0  0  0  0
   38.4150   26.7540   39.6680 H   0  0  0  0  0  0  0  0  0  0  0  0
   39.1580   24.8640   40.9720 H   0  0  0  0  0  0  0  0  0  0  0  0
   37.6340   25.5220   41.7850 H   0  0  0  0  0  0  0  0  0  0  0  0
   40.4130   26.1380   42.4890 H   0  0  0  0  0  0  0  0  0  0  0  0
   39.5380   27.3400   44.2580 H   0  0  0  0  0  0  0  0  0  0  0  0
   37.9280   26.6770   43.9570 H   0  0  0  0  0  0  0  0  0  0  0  0
   39.4650   28.7000   42.4400 H   0  0  0  0  0  0  0  0  0  0  0  0
   37.8450   28.8460   43.3070 H   0  0  0  0  0  0  0  0  0  0  0  0
   35.2140   29.0780   40.2420 C   0  0  0  0  0  0  0  0  0  0  0  0
   36.4990   29.0510   39.7390 C   0  0  0  0  0  0  0  0  0  0  0  0
   36.6050   28.9780   38.3340 C   0  0  0  0  0  0  0  0  0  0  0  0
   35.4690   28.9400   37.5720 N   0  0  0  0  0  0  0  0  0  0  0  0
   34.2410   28.9680   38.1370 C   0  0  0  0  0  0  0  0  0  0  0  0
   34.1130   29.0380   39.4860 N   0  0  0  0  0  0  0  0  0  0  0  0
   35.1020   29.1340   41.3180 H   0  0  0  0  0  0  0  0  0  0  0  0
   37.5910   28.9550   37.8810 H   0  0  0  0  0  0  0  0  0  0  0  0
   33.4910   28.9290   37.3750 H   0  0  0  0  0  0  0  0  0  0  0  0
   37.6100   30.3250   41.4440 C   0  0  0  0  0  0  0  0  0  0  0  0
   36.7990   30.3330   42.1650 H   0  0  0  0  0  0  0  0  0  0  0  0
   38.4760   30.0520   42.1300 H   0  0  0  0  0  0  0  0  0  0  0  0
   37.7790   31.5940   40.8150 C   0  0  0  0  0  0  0  0  0  0  0  0
   37.0200   32.4980   40.1540 C   0  0  0  0  0  0  0  0  0  0  0  0
   37.4180   33.7020   39.6040 C   0  0  0  0  0  0  0  0  0  0  0  0
   38.7020   34.0040   39.7420 N   0  0  0  0  0  0  0  0  0  0  0  0
   39.5090   33.1800   40.3710 C   0  0  0  0  0  0  0  0  0  0  0  0
   39.0510   32.0450   40.8710 N   0  0  0  0  0  0  0  0  0  0  0  0
   35.9670   32.1590   40.0800 H   0  0  0  0  0  0  0  0  0  0  0  0
   36.6240   34.2680   39.1160 H   0  0  0  0  0  0  0  0  0  0  0  0
   41.4110   34.1240   39.1090 C   0  0  1  0  0  3  0  0  0  0  0  0
   40.9410   33.6200   40.4700 C   0  0  2  0  0  3  0  0  0  0  0  0
   41.8660   32.4680   40.6890 C   0  0  0  0  0  3  0  0  0  0  0  0
   42.1430   32.2770   41.7340 H   0  0  0  0  0  0  0  0  0  0  0  0
   42.9450   32.5790   39.8360 O   0  0  0  0  0  0  0  0  0  0  0  0
   42.8880   33.8030   39.2140 C   0  0  0  0  0  3  0  0  0  0  0  0
   43.4310   34.5290   39.8670 H   0  0  0  0  0  0  0  0  0  0  0  0
   40.8750   33.3720   38.0890 O   0  0  0  0  0  0  0  0  0  0  0  0
   41.4280   32.5620   37.9710 H   0  0  0  0  0  0  0  0  0  0  0  0
  1  2  1  6  0  0  0
  1  3  1  0  0  0  0
  1 27  1  0  0  0  0
  3  8  1  0  0  0  0
  4  3  1  0  0  0  0
  4  5  1  0  0  0  0
  5 12  1  0  0  0  0
  5  6  1  0  0  0  0
  6  7  1  0  0  0  0
  7 15  1  0  0  0  0
  7 14  1  0  0  0  0
  8 17  1  0  0  0  0
  8  7  1  0  0  0  0
  9  4  1  0  0  0  0
 10  4  1  0  0  0  0
 11  5  1  0  0  0  0
 13  6  1  0  0  0  0
 16  8  1  0  0  0  0
 18 24  1  0  0  0  0
 19 18  1  0  0  0  0
 19  1  1  0  0  0  0
 20 19  2  0  0  0  0
 21 22  2  0  0  0  0
 21 20  1  0  0  0  0
 22 23  1  0  0  0  0
 23 18  2  0  0  0  0
 25 20  1  0  0  0  0
 26 22  1  0  0  0  0
 27 29  1  0  0  0  0
 27 28  1  0  0  0  0
 30 35  1  0  0  0  0
 30 27  1  0  0  0  0
 31 30  2  0  0  0  0
 32 33  2  0  0  0  0
 32 31  1  0  0  0  0
 33 34  1  0  0  0  0
 34 35  2  0  0  0  0
 36 31  1  0  0  0  0
 37 32  1  0  0  0  0
 38 45  1  6  0  0  0
 38 43  1  0  0  0  0
 38 39  1  0  0  0  0
 39 34  1  6  0  0  0
 39 40  1  0  0  0  0
 40 41  1  0  0  0  0
 42 40  1  0  0  0  0
 43 42  1  0  0  0  0
 43 44  1  0  0  0  0
 46 45  1  0  0  0  0
M  END
>  <minimizedAffinity>
-5.24930954

$$$$

 OpenBabel03252502403D

 46 49  0  0  1  0  0  0  0  0999 V2000
   38.0180   25.4150   40.1960 C   0  0  1  0  0  0  0  0  0  0  0  0
   38.3910   26.3070   39.6110 H   0  0  0  0  0  0  0  0  0  0  0  0
   39.1500   24.9510   40.9520 N   0  0  0  0  0  0  0  0  0  0  0  0
   40.1920   25.9060   41.0370 C   0  0  0  0  0  0  0  0  0  0  0  0
   41.4250   25.1130   41.5070 C   0  0  0  0  0  0  0  0  0  0  0  0
   41.1270   24.8460   42.8910 N   0  0  0  0  0  0  0  0  0  0  0  0
   39.9760   24.0560   43.0610 C   0  0  0  0  0  0  0  0  0  0  0  0
   38.7770   24.4420   42.2060 C   0  0  0  0  0  0  0  0  0  0  0  0
   40.0390   26.7190   41.7500 H   0  0  0  0  0  0  0  0  0  0  0  0
   40.4650   26.2700   40.0050 H   0  0  0  0  0  0  0  0  0  0  0  0
   42.3380   25.7180   41.4230 H   0  0  0  0  0  0  0  0  0  0  0  0
   41.4910   24.1320   40.9960 H   0  0  0  0  0  0  0  0  0  0  0  0
   41.1030   25.7400   43.4170 H   0  0  0  0  0  0  0  0  0  0  0  0
   39.7230   24.0360   44.1430 H   0  0  0  0  0  0  0  0  0  0  0  0
   40.2460   22.9980   42.8120 H   0  0  0  0  0  0  0  0  0  0  0  0
   38.4700   25.3660   42.7940 H   0  0  0  0  0  0  0  0  0  0  0  0
   38.1200   23.6160   42.3290 H   0  0  0  0  0  0  0  0  0  0  0  0
   38.0690   23.3770   38.7620 C   0  0  0  0  0  0  0  0  0  0  0  0
   37.4310   24.4850   39.2830 C   0  0  0  0  0  0  0  0  0  0  0  0
   36.0980   24.6770   38.8610 C   0  0  0  0  0  0  0  0  0  0  0  0
   35.5290   23.7880   37.9900 N   0  0  0  0  0  0  0  0  0  0  0  0
   36.2190   22.7240   37.5200 C   0  0  0  0  0  0  0  0  0  0  0  0
   37.5020   22.5170   37.9110 N   0  0  0  0  0  0  0  0  0  0  0  0
   39.0930   23.2030   39.0680 H   0  0  0  0  0  0  0  0  0  0  0  0
   35.5450   25.5310   39.2380 H   0  0  0  0  0  0  0  0  0  0  0  0
   35.6000   22.1560   36.8570 H   0  0  0  0  0  0  0  0  0  0  0  0
   36.9280   25.8810   41.1700 C   0  0  0  0  0  0  0  0  0  0  0  0
   35.9080   25.8290   40.8050 H   0  0  0  0  0  0  0  0  0  0  0  0
   36.9390   24.9660   41.8470 H   0  0  0  0  0  0  0  0  0  0  0  0
   37.1840   27.0950   41.8730 C   0  0  0  0  0  0  0  0  0  0  0  0
   37.2200   27.5270   43.1550 C   0  0  0  0  0  0  0  0  0  0  0  0
   37.4950   28.8010   43.6150 C   0  0  0  0  0  0  0  0  0  0  0  0
   37.7540   29.7090   42.6830 N   0  0  0  0  0  0  0  0  0  0  0  0
   37.7400   29.3720   41.4140 C   0  0  0  0  0  0  0  0  0  0  0  0
   37.4680   28.1300   41.0520 N   0  0  0  0  0  0  0  0  0  0  0  0
   36.9840   26.7050   43.8610 H   0  0  0  0  0  0  0  0  0  0  0  0
   37.4660   28.9130   44.6990 H   0  0  0  0  0  0  0  0  0  0  0  0
   37.0440   31.6090   40.6330 C   0  0  1  0  0  3  0  0  0  0  0  0
   38.0470   30.4760   40.4440 C   0  0  2  0  0  3  0  0  0  0  0  0
   37.7690   30.0740   39.0320 C   0  0  0  0  0  3  0  0  0  0  0  0
   38.6370   29.7120   38.4660 H   0  0  0  0  0  0  0  0  0  0  0  0
   37.0680   31.0810   38.4000 O   0  0  0  0  0  0  0  0  0  0  0  0
   37.0310   32.1760   39.2280 C   0  0  0  0  0  3  0  0  0  0  0  0
   37.9420   32.7840   39.0110 H   0  0  0  0  0  0  0  0  0  0  0  0
   35.7890   31.1200   40.9150 O   0  0  0  0  0  0  0  0  0  0  0  0
   35.3460   30.8810   40.0650 H   0  0  0  0  0  0  0  0  0  0  0  0
  1  2  1  6  0  0  0
  1  3  1  0  0  0  0
  1 27  1  0  0  0  0
  3  4  1  0  0  0  0
  3  8  1  0  0  0  0
  4  5  1  0  0  0  0
  4  9  1  0  0  0  0
  5  6  1  0  0  0  0
  6  7  1  0  0  0  0
  6 13  1  0  0  0  0
  7 14  1  0  0  0  0
  8 17  1  0  0  0  0
  8 16  1  0  0  0  0
  8  7  1  0  0  0  0
 10  4  1  0  0  0  0
 11  5  1  0  0  0  0
 12  5  1  0  0  0  0
 15  7  1  0  0  0  0
 18 24  1  0  0  0  0
 18 19  1  0  0  0  0
 19  1  1  0  0  0  0
 20 25  1  0  0  0  0
 20 19  2  0  0  0  0
 21 20  1  0  0  0  0
 22 23  1  0  0  0  0
 22 21  2  0  0  0  0
 23 18  2  0  0  0  0
 26 22  1  0  0  0  0
 27 29  1  0  0  0  0
 27 30  1  0  0  0  0
 28 27  1  0  0  0  0
 30 31  1  0  0  0  0
 31 32  2  0  0  0  0
 31 36  1  0  0  0  0
 32 37  1  0  0  0  0
 33 32  1  0  0  0  0
 34 33  2  0  0  0  0
 35 34  1  0  0  0  0
 35 30  2  0  0  0  0
 38 45  1  6  0  0  0
 39 38  1  0  0  0  0
 39 34  1  1  0  0  0
 40 39  1  0  0  0  0
 41 40  1  0  0  0  0
 42 40  1  0  0  0  0
 42 43  1  0  0  0  0
 43 38  1  0  0  0  0
 44 43  1  0  0  0  0
 46 45  1  0  0  0  0
M  END
>  <minimizedAffinity>
-5.21977425

$$$$

 OpenBabel03252502403D

 46 49  0  0  1  0  0  0  0  0999 V2000
   36.6910   30.0600   39.0960 C   0  0  1  0  0  0  0  0  0  0  0  0
   35.9490   30.1830   39.9390 H   0  0  0  0  0  0  0  0  0  0  0  0
   37.3650   31.3260   38.9880 N   0  0  0  0  0  0  0  0  0  0  0  0
   37.0400   32.2190   40.0380 C   0  0  0  0  0  0  0  0  0  0  0  0
   37.5120   33.6010   39.5480 C   0  0  0  0  0  0  0  0  0  0  0  0
   38.9460   33.5040   39.6470 N   0  0  0  0  0  0  0  0  0  0  0  0
   39.4860   32.5080   38.8140 C   0  0  0  0  0  0  0  0  0  0  0  0
   38.7490   31.1760   38.8120 C   0  0  0  0  0  0  0  0  0  0  0  0
   37.5310   32.0310   40.9960 H   0  0  0  0  0  0  0  0  0  0  0  0
   35.9200   32.3170   40.1280 H   0  0  0  0  0  0  0  0  0  0  0  0
   37.1370   34.3990   40.2030 H   0  0  0  0  0  0  0  0  0  0  0  0
   37.2710   33.7510   38.4770 H   0  0  0  0  0  0  0  0  0  0  0  0
   39.2170   33.4100   40.6440 H   0  0  0  0  0  0  0  0  0  0  0  0
   40.5620   32.3860   39.0680 H   0  0  0  0  0  0  0  0  0  0  0  0
   39.4850   32.9010   37.7640 H   0  0  0  0  0  0  0  0  0  0  0  0
   39.1140   30.8060   39.8220 H   0  0  0  0  0  0  0  0  0  0  0  0
   39.1810   30.6660   37.9860 H   0  0  0  0  0  0  0  0  0  0  0  0
   36.4760   29.6680   36.6440 C   0  0  0  0  0  0  0  0  0  0  0  0
   35.9910   29.6040   37.9350 C   0  0  0  0  0  0  0  0  0  0  0  0
   34.7080   29.0370   38.0800 C   0  0  0  0  0  0  0  0  0  0  0  0
   34.0350   28.5950   36.9730 N   0  0  0  0  0  0  0  0  0  0  0  0
   34.5740   28.6920   35.7370 C   0  0  0  0  0  0  0  0  0  0  0  0
   35.8070   29.2330   35.5720 N   0  0  0  0  0  0  0  0  0  0  0  0
   37.4590   30.0970   36.5020 H   0  0  0  0  0  0  0  0  0  0  0  0
   34.2760   28.9600   39.0720 H   0  0  0  0  0  0  0  0  0  0  0  0
   33.8930   28.2930   35.0130 H   0  0  0  0  0  0  0  0  0  0  0  0
   37.7140   28.9860   39.4890 C   0  0  0  0  0  0  0  0  0  0  0  0
   38.0230   28.3090   38.6990 H   0  0  0  0  0  0  0  0  0  0  0  0
   38.6270   29.6640   39.5300 H   0  0  0  0  0  0  0  0  0  0  0  0
   37.4740   28.3020   40.7170 C   0  0  0  0  0  0  0  0  0  0  0  0
   36.5800   28.3400   41.7320 C   0  0  0  0  0  0  0  0  0  0  0  0
   36.5490   27.5540   42.8680 C   0  0  0  0  0  0  0  0  0  0  0  0
   37.5180   26.6540   42.9740 N   0  0  0  0  0  0  0  0  0  0  0  0
   38.4280   26.5510   42.0330 C   0  0  0  0  0  0  0  0  0  0  0  0
   38.3880   27.3400   40.9730 N   0  0  0  0  0  0  0  0  0  0  0  0
   35.8150   29.1250   41.5620 H   0  0  0  0  0  0  0  0  0  0  0  0
   35.7270   27.7670   43.5510 H   0  0  0  0  0  0  0  0  0  0  0  0
   40.3490   25.8970   43.4390 C   0  0  1  0  0  3  0  0  0  0  0  0
   39.4770   25.5000   42.2520 C   0  0  2  0  0  3  0  0  0  0  0  0
   40.4820   25.4730   41.1480 C   0  0  0  0  0  3  0  0  0  0  0  0
   40.2980   24.7290   40.3610 H   0  0  0  0  0  0  0  0  0  0  0  0
   41.7510   25.4170   41.6860 O   0  0  0  0  0  0  0  0  0  0  0  0
   41.6450   25.2180   43.0410 C   0  0  0  0  0  3  0  0  0  0  0  0
   41.6110   24.1150   43.2100 H   0  0  0  0  0  0  0  0  0  0  0  0
   40.5620   27.2560   43.4650 O   0  0  0  0  0  0  0  0  0  0  0  0
   41.3090   27.4700   42.8550 H   0  0  0  0  0  0  0  0  0  0  0  0
  1 27  1  0  0  0  0
  1  2  1  1  0  0  0
  3  1  1  0  0  0  0
  3  4  1  0  0  0  0
  4 10  1  0  0  0  0
  4  9  1  0  0  0  0
  5  6  1  0  0  0  0
  5  4  1  0  0  0  0
  5 11  1  0  0  0  0
  6 13  1  0  0  0  0
  7 14  1  0  0  0  0
  7  6  1  0  0  0  0
  8  7  1  0  0  0  0
  8  3  1  0  0  0  0
  8 16  1  0  0  0  0
 12  5  1  0  0  0  0
 15  7  1  0  0  0  0
 17  8  1  0  0  0  0
 18 19  1  0  0  0  0
 19 20  2  0  0  0  0
 19  1  1  0  0  0  0
 20 25  1  0  0  0  0
 21 20  1  0  0  0  0
 22 21  2  0  0  0  0
 23 22  1  0  0  0  0
 23 18  2  0  0  0  0
 24 18  1  0  0  0  0
 26 22  1  0  0  0  0
 27 29  1  0  0  0  0
 27 30  1  0  0  0  0
 28 27  1  0  0  0  0
 30 35  2  0  0  0  0
 30 31  1  0  0  0  0
 31 32  2  0  0  0  0
 32 33  1  0  0  0  0
 32 37  1  0  0  0  0
 34 33  2  0  0  0  0
 35 34  1  0  0  0  0
 36 31  1  0  0  0  0
 38 45  1  6  0  0  0
 39 34  1  6  0  0  0
 39 38  1  0  0  0  0
 40 42  1  0  0  0  0
 40 39  1  0  0  0  0
 41 40  1  0  0  0  0
 42 43  1  0  0  0  0
 43 44  1  0  0  0  0
 43 38  1  0  0  0  0
 46 45  1  0  0  0  0
M  END
>  <minimizedAffinity>
-5.21732092

$$$$
