
 OpenBabel03252505303D

 27 28  0  0  1  0  0  0  0  0999 V2000
   46.9470   32.2210   48.3850 O   0  0  0  0  0  0  0  0  0  0  0  0
   45.9040   32.4590   47.2810 P   0  0  1  0  0  0  0  0  0  0  0  0
   44.6140   33.3720   47.8370 O   0  0  0  0  0  0  0  0  0  0  0  0
   44.8930   34.3090   48.0760 H   0  0  0  0  0  0  0  0  0  0  0  0
   46.7040   33.2380   45.9990 O   0  0  0  0  0  0  0  0  0  0  0  0
   44.4810   35.6280   44.6270 C   0  0  0  0  0  0  0  0  0  0  0  0
   44.8650   35.7600   43.2690 C   0  0  0  0  0  0  0  0  0  0  0  0
   45.9590   34.9520   42.8700 C   0  0  0  0  0  0  0  0  0  0  0  0
   46.5310   34.1400   43.7960 N   0  0  0  0  0  0  0  0  0  0  0  0
   46.1170   34.0660   45.0610 C   0  0  0  0  0  0  0  0  0  0  0  0
   45.0850   34.8140   45.4830 N   0  0  0  0  0  0  0  0  0  0  0  0
   43.6350   36.2570   44.9250 H   0  0  0  0  0  0  0  0  0  0  0  0
   44.3590   36.4310   42.5870 H   0  0  0  0  0  0  0  0  0  0  0  0
   46.3020   35.0060   41.8450 H   0  0  0  0  0  0  0  0  0  0  0  0
   45.3430   30.9460   46.8260 O   0  0  0  0  0  0  0  0  0  0  0  0
   45.0150   30.2390   47.9610 C   0  0  0  0  0  0  0  0  0  0  0  0
   43.9760   30.5030   48.2400 H   0  0  0  0  0  0  0  0  0  0  0  0
   45.6640   30.5870   48.7890 H   0  0  0  0  0  0  0  0  0  0  0  0
   46.4280   27.4810   46.2020 C   0  0  1  0  0  3  0  0  0  0  0  0
   46.5810   28.4580   47.3410 C   0  0  0  0  0  3  0  0  0  0  0  0
   47.2760   28.1110   48.1340 H   0  0  0  0  0  0  0  0  0  0  0  0
   45.1920   28.7470   47.8030 C   0  0  2  0  0  3  0  0  0  0  0  0
   44.3210   28.3000   46.8180 O   0  0  0  0  0  0  0  0  0  0  0  0
   44.9480   27.3050   46.1190 C   0  0  0  0  0  3  0  0  0  0  0  0
   44.6650   26.3160   46.5780 H   0  0  0  0  0  0  0  0  0  0  0  0
   46.9240   27.9840   44.9870 O   0  0  0  0  0  0  0  0  0  0  0  0
   47.8100   28.4410   45.1410 H   0  0  0  0  0  0  0  0  0  0  0  0
  2  3  1  0  0  0  0
  2  1  2  1  0  0  0
  3  4  1  0  0  0  0
  5  2  1  0  0  0  0
  6 12  1  0  0  0  0
  6 11  1  0  0  0  0
  7  6  2  0  0  0  0
  8  7  1  0  0  0  0
  8  9  2  0  0  0  0
  9 10  1  0  0  0  0
 10 11  2  0  0  0  0
 10  5  1  0  0  0  0
 13  7  1  0  0  0  0
 14  8  1  0  0  0  0
 15  2  1  0  0  0  0
 15 16  1  0  0  0  0
 16 17  1  0  0  0  0
 16 18  1  0  0  0  0
 19 26  1  6  0  0  0
 19 20  1  0  0  0  0
 20 22  1  0  0  0  0
 20 21  1  0  0  0  0
 22 16  1  6  0  0  0
 23 22  1  0  0  0  0
 24 19  1  0  0  0  0
 24 25  1  0  0  0  0
 24 23  1  0  0  0  0
 26 27  1  0  0  0  0
M  END
>  <minimizedAffinity>
-4.40801477

>  <minimizedRMSD>
1.0633055

$$$$
