
 OpenBabel03242517133D

 23 24  0  0  1  0  0  0  0  0999 V2000
   42.3510   35.4350   39.5230 C   0  0  0  0  0  0  0  0  0  0  0  0
   43.1040   36.0470   39.0080 H   0  0  0  0  0  0  0  0  0  0  0  0
   41.4350   36.0420   39.6610 H   0  0  0  0  0  0  0  0  0  0  0  0
   40.9680   32.1420   38.6830 C   0  0  1  0  0  3  0  0  0  0  0  0
   41.9320   32.9710   39.5430 C   0  0  0  0  0  3  0  0  0  0  0  0
   42.8510   32.3920   39.6820 H   0  0  0  0  0  0  0  0  0  0  0  0
   42.0720   34.1880   38.6830 C   0  0  1  0  0  3  0  0  0  0  0  0
   40.8960   34.3520   37.9720 O   0  0  0  0  0  0  0  0  0  0  0  0
   40.0530   33.2920   38.2460 C   0  0  0  0  0  3  0  0  0  0  0  0
   39.4440   33.0120   37.3850 H   0  0  0  0  0  0  0  0  0  0  0  0
   41.6230   31.7070   37.5500 O   0  0  0  0  0  0  0  0  0  0  0  0
   42.4300   31.1570   37.7190 H   0  0  0  0  0  0  0  0  0  0  0  0
   43.7270   35.5480   41.5790 C   0  0  0  0  0  3  0  0  0  0  0  0
   42.8820   34.9000   40.8140 C   0  0  0  0  0  3  0  0  0  0  0  0
   44.3090   35.8640   43.9890 C   0  0  0  0  0  0  0  0  0  0  0  0
   44.2760   35.0850   42.8360 C   0  0  0  0  0  0  0  0  0  0  0  0
   44.8020   33.7990   42.9160 C   0  0  0  0  0  0  0  0  0  0  0  0
   45.3250   33.3600   44.1110 N   0  0  0  0  0  0  0  0  0  0  0  0
   45.3320   34.1540   45.2020 C   0  0  0  0  0  0  0  0  0  0  0  0
   44.8260   35.3980   45.1300 N   0  0  0  0  0  0  0  0  0  0  0  0
   43.9040   36.8690   43.9500 H   0  0  0  0  0  0  0  0  0  0  0  0
   44.8000   33.1520   42.0430 H   0  0  0  0  0  0  0  0  0  0  0  0
   45.7790   33.6490   46.0500 H   0  0  0  0  0  0  0  0  0  0  0  0
  1  3  1  0  0  0  0
  1 14  1  0  0  0  0
  2  1  1  0  0  0  0
  4 11  1  6  0  0  0
  4  5  1  0  0  0  0
  5  6  1  0  0  0  0
  7  1  1  1  0  0  0
  7  5  1  0  0  0  0
  8  9  1  0  0  0  0
  8  7  1  0  0  0  0
  9  4  1  0  0  0  0
 10  9  1  0  0  0  0
 11 12  1  0  0  0  0
 13 16  1  0  0  0  0
 14 13  2  0  0  0  0
 15 20  1  0  0  0  0
 16 17  1  0  0  0  0
 16 15  2  0  0  0  0
 17 18  2  0  0  0  0
 18 19  1  0  0  0  0
 19 23  1  0  0  0  0
 20 19  2  0  0  0  0
 21 15  1  0  0  0  0
 22 17  1  0  0  0  0
M  END
>  <minimizedAffinity>
-4.02543592

>  <minimizedRMSD>
0.816279113

$$$$
