
 OpenBabel03252504193D

 38 40  0  0  1  0  0  0  0  0999 V2000
   39.1980   29.4910   38.3180 F   0  0  0  0  0  0  0  0  0  0  0  0
   38.4010   30.3730   39.0070 C   0  0  0  0  0  0  0  0  0  0  0  0
   37.4710   29.9080   39.8890 C   0  0  0  0  0  0  0  0  0  0  0  0
   36.7110   30.8760   40.5390 C   0  0  0  0  0  0  0  0  0  0  0  0
   36.8940   32.2100   40.3010 C   0  0  0  0  0  0  0  0  0  0  0  0
   37.8510   32.6190   39.3970 C   0  0  0  0  0  0  0  0  0  0  0  0
   38.6440   31.6880   38.7140 C   0  0  0  0  0  0  0  0  0  0  0  0
   35.9600   30.5530   41.2470 H   0  0  0  0  0  0  0  0  0  0  0  0
   36.2780   32.9270   40.8310 H   0  0  0  0  0  0  0  0  0  0  0  0
   38.0080   33.6770   39.1970 H   0  0  0  0  0  0  0  0  0  0  0  0
   37.6610   26.6650   41.5530 C   0  0  0  0  0  0  0  0  0  0  0  0
   36.9890   25.8030   40.6900 C   0  0  0  0  0  0  0  0  0  0  0  0
   36.4630   26.3590   39.5120 C   0  0  0  0  0  0  0  0  0  0  0  0
   36.6250   27.6770   39.2660 N   0  0  0  0  0  0  0  0  0  0  0  0
   37.2880   28.4780   40.1420 C   0  0  0  0  0  0  0  0  0  0  0  0
   37.7970   27.9670   41.2690 N   0  0  0  0  0  0  0  0  0  0  0  0
   35.9360   25.7140   38.8180 H   0  0  0  0  0  0  0  0  0  0  0  0
   36.8610   24.3860   41.0360 C   0  0  0  0  0  0  0  0  0  0  0  0
   36.2900   24.2420   42.2850 F   0  0  0  0  0  0  0  0  0  0  0  0
   35.9920   23.7980   40.1190 F   0  0  0  0  0  0  0  0  0  0  0  0
   38.0190   23.6790   41.0160 F   0  0  0  0  0  0  0  0  0  0  0  0
   38.1700   26.1360   42.6900 O   0  0  0  0  0  0  0  0  0  0  0  0
   39.5370   25.9150   42.9830 C   0  0  0  0  0  0  0  0  0  0  0  0
   40.1930   25.7000   41.7690 F   0  0  0  0  0  0  0  0  0  0  0  0
   40.0420   26.9740   43.6770 F   0  0  0  0  0  0  0  0  0  0  0  0
   39.6690   24.7270   43.6720 F   0  0  0  0  0  0  0  0  0  0  0  0
   39.6960   32.1210   37.7350 C   0  0  0  0  0  0  0  0  0  0  0  0
   39.3460   32.9610   37.1040 H   0  0  0  0  0  0  0  0  0  0  0  0
   39.9100   31.2260   37.1190 H   0  0  0  0  0  0  0  0  0  0  0  0
   43.1290   33.2860   37.7660 C   0  0  2  0  0  3  0  0  0  0  0  0
   42.1410   32.1320   37.5470 C   0  0  0  0  0  3  0  0  0  0  0  0
   41.8560   32.0650   36.4970 H   0  0  0  0  0  0  0  0  0  0  0  0
   40.9600   32.5350   38.4040 C   0  0  1  0  0  3  0  0  0  0  0  0
   41.1120   33.9000   38.5360 O   0  0  0  0  0  0  0  0  0  0  0  0
   42.4550   33.9840   38.9560 C   0  0  0  0  0  3  0  0  0  0  0  0
   42.5660   33.2830   39.8040 H   0  0  0  0  0  0  0  0  0  0  0  0
   43.0880   34.1590   36.6730 O   0  0  0  0  0  0  0  0  0  0  0  0
   43.1400   35.0820   37.0790 H   0  0  0  0  0  0  0  0  0  0  0  0
  1  2  1  0  0  0  0
  2  3  1  0  0  0  0
  3 15  1  0  0  0  0
  3  4  2  0  0  0  0
  4  8  1  0  0  0  0
  5  4  1  0  0  0  0
  5  9  1  0  0  0  0
  6  5  2  0  0  0  0
  7  2  2  0  0  0  0
  7  6  1  0  0  0  0
 10  6  1  0  0  0  0
 11 22  1  0  0  0  0
 12 18  1  0  0  0  0
 12 11  2  0  0  0  0
 13 12  1  0  0  0  0
 14 13  2  0  0  0  0
 14 15  1  0  0  0  0
 15 16  2  0  0  0  0
 16 11  1  0  0  0  0
 17 13  1  0  0  0  0
 18 19  1  0  0  0  0
 20 18  1  0  0  0  0
 21 18  1  0  0  0  0
 22 23  1  0  0  0  0
 23 26  1  0  0  0  0
 23 25  1  0  0  0  0
 24 23  1  0  0  0  0
 27  7  1  0  0  0  0
 28 27  1  0  0  0  0
 29 27  1  0  0  0  0
 30 37  1  6  0  0  0
 30 35  1  0  0  0  0
 31 30  1  0  0  0  0
 31 33  1  0  0  0  0
 32 31  1  0  0  0  0
 33 27  1  6  0  0  0
 33 34  1  0  0  0  0
 34 35  1  0  0  0  0
 35 36  1  0  0  0  0
 37 38  1  0  0  0  0
M  END
>  <minimizedAffinity>
-6.15403605

$$$$

 OpenBabel03252504193D

 38 40  0  0  1  0  0  0  0  0999 V2000
   34.0880   28.7860   38.9980 F   0  0  0  0  0  0  0  0  0  0  0  0
   34.6820   29.0660   37.7910 C   0  0  0  0  0  0  0  0  0  0  0  0
   35.9750   29.4950   37.7500 C   0  0  0  0  0  0  0  0  0  0  0  0
   36.4910   29.7530   36.4840 C   0  0  0  0  0  0  0  0  0  0  0  0
   35.7380   29.5830   35.3550 C   0  0  0  0  0  0  0  0  0  0  0  0
   34.4350   29.1460   35.4610 C   0  0  0  0  0  0  0  0  0  0  0  0
   33.8650   28.8710   36.7100 C   0  0  0  0  0  0  0  0  0  0  0  0
   37.5130   30.0970   36.4020 H   0  0  0  0  0  0  0  0  0  0  0  0
   36.1820   29.7970   34.3900 H   0  0  0  0  0  0  0  0  0  0  0  0
   33.8230   29.0050   34.5720 H   0  0  0  0  0  0  0  0  0  0  0  0
   37.8110   28.6740   40.7960 C   0  0  0  0  0  0  0  0  0  0  0  0
   38.2710   29.9060   41.2560 C   0  0  0  0  0  0  0  0  0  0  0  0
   37.9360   31.0380   40.4940 C   0  0  0  0  0  0  0  0  0  0  0  0
   37.1980   30.8940   39.3720 N   0  0  0  0  0  0  0  0  0  0  0  0
   36.7750   29.6680   38.9640 C   0  0  0  0  0  0  0  0  0  0  0  0
   37.0830   28.5780   39.6760 N   0  0  0  0  0  0  0  0  0  0  0  0
   38.2760   32.0130   40.8260 H   0  0  0  0  0  0  0  0  0  0  0  0
   39.0640   29.9710   42.4840 C   0  0  0  0  0  0  0  0  0  0  0  0
   39.5450   31.2510   42.6830 F   0  0  0  0  0  0  0  0  0  0  0  0
   38.2210   29.6810   43.5540 F   0  0  0  0  0  0  0  0  0  0  0  0
   40.1120   29.1120   42.5430 F   0  0  0  0  0  0  0  0  0  0  0  0
   38.1310   27.5800   41.5250 O   0  0  0  0  0  0  0  0  0  0  0  0
   37.2710   26.8540   42.3840 C   0  0  0  0  0  0  0  0  0  0  0  0
   36.1780   27.6750   42.6670 F   0  0  0  0  0  0  0  0  0  0  0  0
   36.9120   25.6770   41.8000 F   0  0  0  0  0  0  0  0  0  0  0  0
   37.8960   26.6660   43.6000 F   0  0  0  0  0  0  0  0  0  0  0  0
   32.4500   28.3850   36.8390 C   0  0  0  0  0  0  0  0  0  0  0  0
   32.3340   27.6870   37.6910 H   0  0  0  0  0  0  0  0  0  0  0  0
   32.2250   27.8810   35.8810 H   0  0  0  0  0  0  0  0  0  0  0  0
   29.1720   29.7630   37.5420 C   0  0  2  0  0  3  0  0  0  0  0  0
   30.1080   29.0540   36.5550 C   0  0  0  0  0  3  0  0  0  0  0  0
   30.0030   27.9720   36.6360 H   0  0  0  0  0  0  0  0  0  0  0  0
   31.4800   29.5010   37.0140 C   0  0  1  0  0  3  0  0  0  0  0  0
   31.2720   29.8710   38.3270 O   0  0  0  0  0  0  0  0  0  0  0  0
   30.1660   30.7360   38.1930 C   0  0  0  0  0  3  0  0  0  0  0  0
   30.4250   31.4590   37.3990 H   0  0  0  0  0  0  0  0  0  0  0  0
   28.7460   28.8600   38.5240 O   0  0  0  0  0  0  0  0  0  0  0  0
   28.7660   29.3860   39.3840 H   0  0  0  0  0  0  0  0  0  0  0  0
  2  1  1  0  0  0  0
  3  2  1  0  0  0  0
  3 15  1  0  0  0  0
  4  3  2  0  0  0  0
  5  6  2  0  0  0  0
  5  4  1  0  0  0  0
  6  7  1  0  0  0  0
  7 27  1  0  0  0  0
  7  2  2  0  0  0  0
  8  4  1  0  0  0  0
  9  5  1  0  0  0  0
 10  6  1  0  0  0  0
 11 12  1  0  0  0  0
 11 22  1  0  0  0  0
 12 18  1  0  0  0  0
 13 17  1  0  0  0  0
 13 12  2  0  0  0  0
 14 13  1  0  0  0  0
 15 14  2  0  0  0  0
 15 16  1  0  0  0  0
 16 11  2  0  0  0  0
 18 21  1  0  0  0  0
 18 19  1  0  0  0  0
 18 20  1  0  0  0  0
 22 23  1  0  0  0  0
 23 24  1  0  0  0  0
 23 26  1  0  0  0  0
 25 23  1  0  0  0  0
 27 28  1  0  0  0  0
 29 27  1  0  0  0  0
 30 35  1  0  0  0  0
 30 37  1  1  0  0  0
 31 32  1  0  0  0  0
 31 33  1  0  0  0  0
 31 30  1  0  0  0  0
 33 27  1  1  0  0  0
 33 34  1  0  0  0  0
 35 34  1  0  0  0  0
 36 35  1  0  0  0  0
 37 38  1  0  0  0  0
M  END
>  <minimizedAffinity>
-6.1078577

$$$$

 OpenBabel03252504193D

 38 40  0  0  1  0  0  0  0  0999 V2000
   40.2950   30.3380   41.3690 F   0  0  0  0  0  0  0  0  0  0  0  0
   39.2550   31.0880   40.8790 C   0  0  0  0  0  0  0  0  0  0  0  0
   38.0190   30.5300   40.7320 C   0  0  0  0  0  0  0  0  0  0  0  0
   37.0290   31.3680   40.2280 C   0  0  0  0  0  0  0  0  0  0  0  0
   37.2890   32.6700   39.9040 C   0  0  0  0  0  0  0  0  0  0  0  0
   38.5590   33.1780   40.0750 C   0  0  0  0  0  0  0  0  0  0  0  0
   39.5940   32.3800   40.5780 C   0  0  0  0  0  0  0  0  0  0  0  0
   36.0330   30.9680   40.0940 H   0  0  0  0  0  0  0  0  0  0  0  0
   36.4850   33.2850   39.5140 H   0  0  0  0  0  0  0  0  0  0  0  0
   38.7810   34.2130   39.8210 H   0  0  0  0  0  0  0  0  0  0  0  0
   37.9790   26.8850   40.5410 C   0  0  0  0  0  0  0  0  0  0  0  0
   37.2860   26.4950   41.6840 C   0  0  0  0  0  0  0  0  0  0  0  0
   36.8250   27.5160   42.5320 C   0  0  0  0  0  0  0  0  0  0  0  0
   37.0650   28.8070   42.2160 N   0  0  0  0  0  0  0  0  0  0  0  0
   37.7500   29.1370   41.0880 C   0  0  0  0  0  0  0  0  0  0  0  0
   38.1960   28.1790   40.2670 N   0  0  0  0  0  0  0  0  0  0  0  0
   36.2790   27.2450   43.4290 H   0  0  0  0  0  0  0  0  0  0  0  0
   37.0680   25.0720   41.9490 C   0  0  0  0  0  0  0  0  0  0  0  0
   38.2490   24.4650   42.3330 F   0  0  0  0  0  0  0  0  0  0  0  0
   36.1870   24.9660   43.0230 F   0  0  0  0  0  0  0  0  0  0  0  0
   36.5450   24.3640   40.9170 F   0  0  0  0  0  0  0  0  0  0  0  0
   38.4260   25.9070   39.7200 O   0  0  0  0  0  0  0  0  0  0  0  0
   39.7620   25.4600   39.5830 C   0  0  0  0  0  0  0  0  0  0  0  0
   39.7350   24.0640   39.5820 F   0  0  0  0  0  0  0  0  0  0  0  0
   40.3150   25.9800   38.4510 F   0  0  0  0  0  0  0  0  0  0  0  0
   40.4730   25.7990   40.7160 F   0  0  0  0  0  0  0  0  0  0  0  0
   40.9790   32.9230   40.7780 C   0  0  0  0  0  0  0  0  0  0  0  0
   41.5650   32.2990   41.4810 H   0  0  0  0  0  0  0  0  0  0  0  0
   40.8380   33.9450   41.1790 H   0  0  0  0  0  0  0  0  0  0  0  0
   41.4830   32.3310   37.2380 C   0  0  2  0  0  3  0  0  0  0  0  0
   41.5020   31.7830   38.6700 C   0  0  0  0  0  3  0  0  0  0  0  0
   40.5440   31.3240   38.9190 H   0  0  0  0  0  0  0  0  0  0  0  0
   41.7380   33.0270   39.5020 C   0  0  1  0  0  3  0  0  0  0  0  0
   41.3190   34.0480   38.6730 O   0  0  0  0  0  0  0  0  0  0  0  0
   42.0250   33.7450   37.4900 C   0  0  0  0  0  3  0  0  0  0  0  0
   43.0810   33.6020   37.7800 H   0  0  0  0  0  0  0  0  0  0  0  0
   40.1610   32.4480   36.7920 O   0  0  0  0  0  0  0  0  0  0  0  0
   40.1360   33.3200   36.2850 H   0  0  0  0  0  0  0  0  0  0  0  0
  2  1  1  0  0  0  0
  3  2  1  0  0  0  0
  3 15  1  0  0  0  0
  4  3  2  0  0  0  0
  5  6  2  0  0  0  0
  5  4  1  0  0  0  0
  6  7  1  0  0  0  0
  7 27  1  0  0  0  0
  7  2  2  0  0  0  0
  8  4  1  0  0  0  0
  9  5  1  0  0  0  0
 10  6  1  0  0  0  0
 11 12  1  0  0  0  0
 12 18  1  0  0  0  0
 12 13  2  0  0  0  0
 13 17  1  0  0  0  0
 14 13  1  0  0  0  0
 15 14  2  0  0  0  0
 16 11  2  0  0  0  0
 16 15  1  0  0  0  0
 18 19  1  0  0  0  0
 18 20  1  0  0  0  0
 21 18  1  0  0  0  0
 22 11  1  0  0  0  0
 23 22  1  0  0  0  0
 23 26  1  0  0  0  0
 24 23  1  0  0  0  0
 25 23  1  0  0  0  0
 27 29  1  0  0  0  0
 27 28  1  0  0  0  0
 30 37  1  1  0  0  0
 30 35  1  0  0  0  0
 30 31  1  0  0  0  0
 31 32  1  0  0  0  0
 31 33  1  0  0  0  0
 33 27  1  1  0  0  0
 34 33  1  0  0  0  0
 35 36  1  0  0  0  0
 35 34  1  0  0  0  0
 38 37  1  0  0  0  0
M  END
>  <minimizedAffinity>
-6.09870815

$$$$

 OpenBabel03252504193D

 38 40  0  0  1  0  0  0  0  0999 V2000
   33.4200   28.5990   38.0100 F   0  0  0  0  0  0  0  0  0  0  0  0
   34.4440   28.8050   37.1180 C   0  0  0  0  0  0  0  0  0  0  0  0
   35.7370   28.8110   37.5510 C   0  0  0  0  0  0  0  0  0  0  0  0
   36.7050   29.0270   36.5760 C   0  0  0  0  0  0  0  0  0  0  0  0
   36.3700   29.2190   35.2640 C   0  0  0  0  0  0  0  0  0  0  0  0
   35.0450   29.2010   34.8860 C   0  0  0  0  0  0  0  0  0  0  0  0
   34.0290   28.9880   35.8260 C   0  0  0  0  0  0  0  0  0  0  0  0
   37.7450   29.0420   36.8740 H   0  0  0  0  0  0  0  0  0  0  0  0
   37.1600   29.3840   34.5400 H   0  0  0  0  0  0  0  0  0  0  0  0
   34.7620   29.3510   33.8460 H   0  0  0  0  0  0  0  0  0  0  0  0
   36.9650   27.1720   40.5730 C   0  0  0  0  0  0  0  0  0  0  0  0
   36.7660   28.1190   41.5750 C   0  0  0  0  0  0  0  0  0  0  0  0
   36.1950   29.3440   41.1930 C   0  0  0  0  0  0  0  0  0  0  0  0
   35.8680   29.5550   39.9000 N   0  0  0  0  0  0  0  0  0  0  0  0
   36.0850   28.5990   38.9570 C   0  0  0  0  0  0  0  0  0  0  0  0
   36.6270   27.4240   39.3010 N   0  0  0  0  0  0  0  0  0  0  0  0
   36.0240   30.1020   41.9500 H   0  0  0  0  0  0  0  0  0  0  0  0
   37.1480   27.8060   42.9530 C   0  0  0  0  0  0  0  0  0  0  0  0
   37.3360   28.9670   43.6790 F   0  0  0  0  0  0  0  0  0  0  0  0
   36.0910   27.1210   43.5460 F   0  0  0  0  0  0  0  0  0  0  0  0
   38.2600   27.0410   43.0860 F   0  0  0  0  0  0  0  0  0  0  0  0
   37.5150   25.9900   40.9340 O   0  0  0  0  0  0  0  0  0  0  0  0
   36.8620   24.7360   40.9940 C   0  0  0  0  0  0  0  0  0  0  0  0
   36.3350   24.6040   42.2800 F   0  0  0  0  0  0  0  0  0  0  0  0
   35.9110   24.6570   40.0210 F   0  0  0  0  0  0  0  0  0  0  0  0
   37.8000   23.7290   40.8920 F   0  0  0  0  0  0  0  0  0  0  0  0
   32.5820   28.9560   35.4260 C   0  0  0  0  0  0  0  0  0  0  0  0
   31.9840   28.3180   36.1060 H   0  0  0  0  0  0  0  0  0  0  0  0
   32.5720   28.5530   34.3960 H   0  0  0  0  0  0  0  0  0  0  0  0
   29.8740   31.2900   34.8300 C   0  0  2  0  0  3  0  0  0  0  0  0
   30.9820   30.3990   34.2550 C   0  0  0  0  0  3  0  0  0  0  0  0
   30.5910   29.4130   34.0020 H   0  0  0  0  0  0  0  0  0  0  0  0
   31.9700   30.3130   35.4000 C   0  0  1  0  0  3  0  0  0  0  0  0
   31.2020   30.6100   36.5070 O   0  0  0  0  0  0  0  0  0  0  0  0
   30.5800   31.8060   36.0910 C   0  0  0  0  0  3  0  0  0  0  0  0
   31.3840   32.4690   35.7220 H   0  0  0  0  0  0  0  0  0  0  0  0
   28.7920   30.4990   35.2340 O   0  0  0  0  0  0  0  0  0  0  0  0
   28.4850   30.9070   36.1040 H   0  0  0  0  0  0  0  0  0  0  0  0
  2  3  1  0  0  0  0
  2  1  1  0  0  0  0
  3 15  1  0  0  0  0
  4  8  1  0  0  0  0
  4  3  2  0  0  0  0
  5  4  1  0  0  0  0
  6  5  2  0  0  0  0
  6  7  1  0  0  0  0
  7  2  2  0  0  0  0
  9  5  1  0  0  0  0
 10  6  1  0  0  0  0
 11 22  1  0  0  0  0
 11 12  1  0  0  0  0
 12 18  1  0  0  0  0
 13 12  2  0  0  0  0
 13 17  1  0  0  0  0
 14 13  1  0  0  0  0
 15 16  1  0  0  0  0
 15 14  2  0  0  0  0
 16 11  2  0  0  0  0
 18 21  1  0  0  0  0
 18 20  1  0  0  0  0
 18 19  1  0  0  0  0
 22 23  1  0  0  0  0
 23 24  1  0  0  0  0
 25 23  1  0  0  0  0
 26 23  1  0  0  0  0
 27  7  1  0  0  0  0
 27 28  1  0  0  0  0
 29 27  1  0  0  0  0
 30 37  1  1  0  0  0
 30 35  1  0  0  0  0
 31 30  1  0  0  0  0
 31 33  1  0  0  0  0
 32 31  1  0  0  0  0
 33 27  1  1  0  0  0
 33 34  1  0  0  0  0
 35 34  1  0  0  0  0
 36 35  1  0  0  0  0
 37 38  1  0  0  0  0
M  END
>  <minimizedAffinity>
-5.96421623

$$$$

 OpenBabel03252504193D

 38 40  0  0  1  0  0  0  0  0999 V2000
   33.1190   28.9630   38.8170 F   0  0  0  0  0  0  0  0  0  0  0  0
   33.8190   29.0060   37.6360 C   0  0  0  0  0  0  0  0  0  0  0  0
   35.1820   28.9740   37.6480 C   0  0  0  0  0  0  0  0  0  0  0  0
   35.8040   29.0210   36.4050 C   0  0  0  0  0  0  0  0  0  0  0  0
   35.0820   29.0940   35.2450 C   0  0  0  0  0  0  0  0  0  0  0  0
   33.7050   29.1230   35.2970 C   0  0  0  0  0  0  0  0  0  0  0  0
   33.0270   29.0780   36.5220 C   0  0  0  0  0  0  0  0  0  0  0  0
   36.8850   29.0000   36.3660 H   0  0  0  0  0  0  0  0  0  0  0  0
   35.6100   29.1290   34.2990 H   0  0  0  0  0  0  0  0  0  0  0  0
   33.1170   29.1800   34.3830 H   0  0  0  0  0  0  0  0  0  0  0  0
   37.0310   30.0170   40.6180 C   0  0  0  0  0  0  0  0  0  0  0  0
   37.3810   28.8180   41.2360 C   0  0  0  0  0  0  0  0  0  0  0  0
   36.9690   27.6310   40.6080 C   0  0  0  0  0  0  0  0  0  0  0  0
   36.2650   27.6930   39.4570 N   0  0  0  0  0  0  0  0  0  0  0  0
   35.9450   28.8890   38.8950 C   0  0  0  0  0  0  0  0  0  0  0  0
   36.3300   30.0310   39.4760 N   0  0  0  0  0  0  0  0  0  0  0  0
   37.2280   26.6810   41.0620 H   0  0  0  0  0  0  0  0  0  0  0  0
   38.1480   28.8430   42.4820 C   0  0  0  0  0  0  0  0  0  0  0  0
   37.3350   29.1870   43.5450 F   0  0  0  0  0  0  0  0  0  0  0  0
   38.6120   27.5520   42.7250 F   0  0  0  0  0  0  0  0  0  0  0  0
   39.2220   29.6720   42.4860 F   0  0  0  0  0  0  0  0  0  0  0  0
   37.4250   31.1640   41.2170 O   0  0  0  0  0  0  0  0  0  0  0  0
   38.1180   32.2400   40.6130 C   0  0  0  0  0  0  0  0  0  0  0  0
   38.9760   31.6960   39.6550 F   0  0  0  0  0  0  0  0  0  0  0  0
   37.2300   33.1290   40.0850 F   0  0  0  0  0  0  0  0  0  0  0  0
   38.9520   32.8240   41.5440 F   0  0  0  0  0  0  0  0  0  0  0  0
   31.5280   29.0980   36.5910 C   0  0  0  0  0  0  0  0  0  0  0  0
   31.1390   28.3070   37.2610 H   0  0  0  0  0  0  0  0  0  0  0  0
   31.1840   28.9400   35.5520 H   0  0  0  0  0  0  0  0  0  0  0  0
   29.7300   32.2170   36.1690 C   0  0  2  0  0  3  0  0  0  0  0  0
   30.9980   31.3930   35.9090 C   0  0  0  0  0  3  0  0  0  0  0  0
   30.9290   30.8750   34.9520 H   0  0  0  0  0  0  0  0  0  0  0  0
   30.9990   30.4080   37.0600 C   0  0  1  0  0  3  0  0  0  0  0  0
   29.6770   30.3790   37.4550 O   0  0  0  0  0  0  0  0  0  0  0  0
   29.4050   31.7550   37.5970 C   0  0  0  0  0  3  0  0  0  0  0  0
   30.2110   32.1740   38.2260 H   0  0  0  0  0  0  0  0  0  0  0  0
   28.7000   31.7800   35.3290 O   0  0  0  0  0  0  0  0  0  0  0  0
   27.8740   31.7880   35.9080 H   0  0  0  0  0  0  0  0  0  0  0  0
  2  3  1  0  0  0  0
  2  1  1  0  0  0  0
  3 15  1  0  0  0  0
  4  3  2  0  0  0  0
  5  6  2  0  0  0  0
  5  4  1  0  0  0  0
  6  7  1  0  0  0  0
  7 27  1  0  0  0  0
  7  2  2  0  0  0  0
  8  4  1  0  0  0  0
  9  5  1  0  0  0  0
 10  6  1  0  0  0  0
 11 22  1  0  0  0  0
 11 12  1  0  0  0  0
 12 18  1  0  0  0  0
 13 17  1  0  0  0  0
 13 12  2  0  0  0  0
 14 13  1  0  0  0  0
 15 14  2  0  0  0  0
 15 16  1  0  0  0  0
 16 11  2  0  0  0  0
 18 21  1  0  0  0  0
 18 20  1  0  0  0  0
 18 19  1  0  0  0  0
 23 22  1  0  0  0  0
 23 26  1  0  0  0  0
 24 23  1  0  0  0  0
 25 23  1  0  0  0  0
 27 28  1  0  0  0  0
 29 27  1  0  0  0  0
 30 37  1  6  0  0  0
 30 35  1  0  0  0  0
 31 30  1  0  0  0  0
 31 33  1  0  0  0  0
 32 31  1  0  0  0  0
 33 27  1  6  0  0  0
 33 34  1  0  0  0  0
 34 35  1  0  0  0  0
 35 36  1  0  0  0  0
 37 38  1  0  0  0  0
M  END
>  <minimizedAffinity>
-5.92802906

$$$$

 OpenBabel03252504193D

 38 40  0  0  1  0  0  0  0  0999 V2000
   36.6750   27.3890   41.1750 F   0  0  0  0  0  0  0  0  0  0  0  0
   37.8230   26.9690   41.8030 C   0  0  0  0  0  0  0  0  0  0  0  0
   38.8390   27.8490   42.0290 C   0  0  0  0  0  0  0  0  0  0  0  0
   39.9600   27.3330   42.6710 C   0  0  0  0  0  0  0  0  0  0  0  0
   40.0290   26.0210   43.0490 C   0  0  0  0  0  0  0  0  0  0  0  0
   38.9680   25.1790   42.7930 C   0  0  0  0  0  0  0  0  0  0  0  0
   37.8150   25.6450   42.1500 C   0  0  0  0  0  0  0  0  0  0  0  0
   40.7920   27.9950   42.8700 H   0  0  0  0  0  0  0  0  0  0  0  0
   40.9230   25.6630   43.5460 H   0  0  0  0  0  0  0  0  0  0  0  0
   39.0070   24.1320   43.0880 H   0  0  0  0  0  0  0  0  0  0  0  0
   37.9010   30.8260   40.1350 C   0  0  0  0  0  0  0  0  0  0  0  0
   38.5410   31.8670   40.8030 C   0  0  0  0  0  0  0  0  0  0  0  0
   39.3110   31.5260   41.9270 C   0  0  0  0  0  0  0  0  0  0  0  0
   39.4000   30.2350   42.3110 N   0  0  0  0  0  0  0  0  0  0  0  0
   38.7540   29.2540   41.6260 C   0  0  0  0  0  0  0  0  0  0  0  0
   38.0160   29.5570   40.5520 N   0  0  0  0  0  0  0  0  0  0  0  0
   39.8250   32.3140   42.4680 H   0  0  0  0  0  0  0  0  0  0  0  0
   38.3920   33.2390   40.3170 C   0  0  0  0  0  0  0  0  0  0  0  0
   38.8080   34.1410   41.2780 F   0  0  0  0  0  0  0  0  0  0  0  0
   39.2310   33.3980   39.2170 F   0  0  0  0  0  0  0  0  0  0  0  0
   37.1380   33.5830   39.9300 F   0  0  0  0  0  0  0  0  0  0  0  0
   37.1570   31.1460   39.0510 O   0  0  0  0  0  0  0  0  0  0  0  0
   37.5180   30.9670   37.6940 C   0  0  0  0  0  0  0  0  0  0  0  0
   36.6350   30.0310   37.1500 F   0  0  0  0  0  0  0  0  0  0  0  0
   37.4900   32.1630   37.0420 F   0  0  0  0  0  0  0  0  0  0  0  0
   38.7570   30.3630   37.6290 F   0  0  0  0  0  0  0  0  0  0  0  0
   36.6480   24.7410   41.8740 C   0  0  0  0  0  0  0  0  0  0  0  0
   35.7290   25.3170   41.6490 H   0  0  0  0  0  0  0  0  0  0  0  0
   36.5210   24.1380   42.7930 H   0  0  0  0  0  0  0  0  0  0  0  0
   38.4910   23.5780   38.9780 C   0  0  2  0  0  3  0  0  0  0  0  0
   37.4990   24.5810   39.5800 C   0  0  0  0  0  3  0  0  0  0  0  0
   38.0190   25.4740   39.9290 H   0  0  0  0  0  0  0  0  0  0  0  0
   36.9070   23.8110   40.7410 C   0  0  1  0  0  3  0  0  0  0  0  0
   37.8590   22.8470   41.0030 O   0  0  0  0  0  0  0  0  0  0  0  0
   38.0570   22.3050   39.7170 C   0  0  0  0  0  3  0  0  0  0  0  0
   37.0560   22.0650   39.3170 H   0  0  0  0  0  0  0  0  0  0  0  0
   39.7920   23.8940   39.3880 O   0  0  0  0  0  0  0  0  0  0  0  0
   40.2240   23.0030   39.5830 H   0  0  0  0  0  0  0  0  0  0  0  0
  1  2  1  0  0  0  0
  2  3  2  0  0  0  0
  2  7  1  0  0  0  0
  3  4  1  0  0  0  0
  4  8  1  0  0  0  0
  4  5  2  0  0  0  0
  5  9  1  0  0  0  0
  6  5  1  0  0  0  0
  6 10  1  0  0  0  0
  7  6  2  0  0  0  0
 11 16  2  0  0  0  0
 11 12  1  0  0  0  0
 12 13  2  0  0  0  0
 13 14  1  0  0  0  0
 13 17  1  0  0  0  0
 15  3  1  0  0  0  0
 15 14  2  0  0  0  0
 16 15  1  0  0  0  0
 18 12  1  0  0  0  0
 18 19  1  0  0  0  0
 20 18  1  0  0  0  0
 21 18  1  0  0  0  0
 22 11  1  0  0  0  0
 23 22  1  0  0  0  0
 24 23  1  0  0  0  0
 25 23  1  0  0  0  0
 26 23  1  0  0  0  0
 27  7  1  0  0  0  0
 27 29  1  0  0  0  0
 28 27  1  0  0  0  0
 30 37  1  1  0  0  0
 30 31  1  0  0  0  0
 30 35  1  0  0  0  0
 31 32  1  0  0  0  0
 31 33  1  0  0  0  0
 33 34  1  0  0  0  0
 33 27  1  1  0  0  0
 35 34  1  0  0  0  0
 36 35  1  0  0  0  0
 37 38  1  0  0  0  0
M  END
>  <minimizedAffinity>
-5.87580061

$$$$

 OpenBabel03252504193D

 38 40  0  0  1  0  0  0  0  0999 V2000
   32.9980   29.0410   38.7860 F   0  0  0  0  0  0  0  0  0  0  0  0
   33.6500   29.0690   37.5780 C   0  0  0  0  0  0  0  0  0  0  0  0
   35.0070   29.1930   37.5370 C   0  0  0  0  0  0  0  0  0  0  0  0
   35.5790   29.2120   36.2690 C   0  0  0  0  0  0  0  0  0  0  0  0
   34.8170   29.1100   35.1380 C   0  0  0  0  0  0  0  0  0  0  0  0
   33.4480   28.9860   35.2430 C   0  0  0  0  0  0  0  0  0  0  0  0
   32.8200   28.9620   36.4940 C   0  0  0  0  0  0  0  0  0  0  0  0
   36.6530   29.3100   36.1870 H   0  0  0  0  0  0  0  0  0  0  0  0
   35.3070   29.1300   34.1710 H   0  0  0  0  0  0  0  0  0  0  0  0
   32.8280   28.9050   34.3520 H   0  0  0  0  0  0  0  0  0  0  0  0
   36.5920   28.2640   40.6910 C   0  0  0  0  0  0  0  0  0  0  0  0
   37.3060   29.4020   41.0580 C   0  0  0  0  0  0  0  0  0  0  0  0
   37.2320   30.5080   40.1960 C   0  0  0  0  0  0  0  0  0  0  0  0
   36.4920   30.4300   39.0700 N   0  0  0  0  0  0  0  0  0  0  0  0
   35.8140   29.2940   38.7530 C   0  0  0  0  0  0  0  0  0  0  0  0
   35.8700   28.2300   39.5630 N   0  0  0  0  0  0  0  0  0  0  0  0
   37.7750   31.4120   40.4550 H   0  0  0  0  0  0  0  0  0  0  0  0
   38.0830   29.4010   42.2990 C   0  0  0  0  0  0  0  0  0  0  0  0
   39.1140   28.4840   42.2240 F   0  0  0  0  0  0  0  0  0  0  0  0
   38.6650   30.6590   42.4400 F   0  0  0  0  0  0  0  0  0  0  0  0
   37.3730   29.1480   43.4270 F   0  0  0  0  0  0  0  0  0  0  0  0
   36.6580   27.1940   41.5170 O   0  0  0  0  0  0  0  0  0  0  0  0
   37.2850   25.9540   41.2490 C   0  0  0  0  0  0  0  0  0  0  0  0
   38.3480   26.2060   40.3800 F   0  0  0  0  0  0  0  0  0  0  0  0
   37.6800   25.3680   42.4140 F   0  0  0  0  0  0  0  0  0  0  0  0
   36.4210   25.1550   40.5280 F   0  0  0  0  0  0  0  0  0  0  0  0
   31.3310   28.8180   36.6240 C   0  0  0  0  0  0  0  0  0  0  0  0
   31.0320   28.5850   37.6640 H   0  0  0  0  0  0  0  0  0  0  0  0
   31.0560   27.9940   35.9390 H   0  0  0  0  0  0  0  0  0  0  0  0
   29.2920   31.7600   37.1960 C   0  0  2  0  0  3  0  0  0  0  0  0
   29.3770   30.2340   37.0610 C   0  0  0  0  0  3  0  0  0  0  0  0
   29.5150   29.7700   38.0380 H   0  0  0  0  0  0  0  0  0  0  0  0
   30.6030   30.0420   36.1920 C   0  0  1  0  0  3  0  0  0  0  0  0
   31.3070   31.2150   36.3710 O   0  0  0  0  0  0  0  0  0  0  0  0
   30.3050   32.1750   36.1190 C   0  0  0  0  0  3  0  0  0  0  0  0
   29.8350   31.8970   35.1580 H   0  0  0  0  0  0  0  0  0  0  0  0
   29.7980   32.1550   38.4400 O   0  0  0  0  0  0  0  0  0  0  0  0
   30.3300   32.9910   38.2480 H   0  0  0  0  0  0  0  0  0  0  0  0
  2  1  1  0  0  0  0
  3  2  1  0  0  0  0
  3 15  1  0  0  0  0
  4  3  2  0  0  0  0
  5  6  2  0  0  0  0
  5  4  1  0  0  0  0
  6  7  1  0  0  0  0
  7 27  1  0  0  0  0
  7  2  2  0  0  0  0
  8  4  1  0  0  0  0
  9  5  1  0  0  0  0
 10  6  1  0  0  0  0
 11 12  1  0  0  0  0
 11 22  1  0  0  0  0
 12 18  1  0  0  0  0
 13 17  1  0  0  0  0
 13 12  2  0  0  0  0
 14 13  1  0  0  0  0
 15 14  2  0  0  0  0
 15 16  1  0  0  0  0
 16 11  2  0  0  0  0
 18 20  1  0  0  0  0
 18 21  1  0  0  0  0
 19 18  1  0  0  0  0
 23 22  1  0  0  0  0
 23 25  1  0  0  0  0
 24 23  1  0  0  0  0
 26 23  1  0  0  0  0
 27 28  1  0  0  0  0
 29 27  1  0  0  0  0
 30 37  1  1  0  0  0
 31 30  1  0  0  0  0
 31 32  1  0  0  0  0
 33 34  1  0  0  0  0
 33 27  1  1  0  0  0
 33 31  1  0  0  0  0
 35 34  1  0  0  0  0
 35 30  1  0  0  0  0
 36 35  1  0  0  0  0
 38 37  1  0  0  0  0
M  END
>  <minimizedAffinity>
-5.86777496

$$$$

 OpenBabel03252504193D

 38 40  0  0  1  0  0  0  0  0999 V2000
   39.5420   26.9710   40.9340 F   0  0  0  0  0  0  0  0  0  0  0  0
   38.5250   27.1600   41.8390 C   0  0  0  0  0  0  0  0  0  0  0  0
   38.2240   28.4150   42.2760 C   0  0  0  0  0  0  0  0  0  0  0  0
   37.1800   28.5070   43.1900 C   0  0  0  0  0  0  0  0  0  0  0  0
   36.5020   27.3990   43.6190 C   0  0  0  0  0  0  0  0  0  0  0  0
   36.8540   26.1550   43.1400 C   0  0  0  0  0  0  0  0  0  0  0  0
   37.8970   26.0040   42.2180 C   0  0  0  0  0  0  0  0  0  0  0  0
   36.9060   29.4840   43.5660 H   0  0  0  0  0  0  0  0  0  0  0  0
   35.6960   27.5200   44.3330 H   0  0  0  0  0  0  0  0  0  0  0  0
   36.3240   25.2640   43.4710 H   0  0  0  0  0  0  0  0  0  0  0  0
   38.8500   31.7370   40.8960 C   0  0  0  0  0  0  0  0  0  0  0  0
   40.2390   31.8490   40.9050 C   0  0  0  0  0  0  0  0  0  0  0  0
   40.9650   30.7530   41.3970 C   0  0  0  0  0  0  0  0  0  0  0  0
   40.3090   29.6560   41.8330 N   0  0  0  0  0  0  0  0  0  0  0  0
   38.9510   29.5960   41.8060 C   0  0  0  0  0  0  0  0  0  0  0  0
   38.2400   30.6290   41.3400 N   0  0  0  0  0  0  0  0  0  0  0  0
   42.0490   30.8080   41.4150 H   0  0  0  0  0  0  0  0  0  0  0  0
   40.8690   33.0740   40.4110 C   0  0  0  0  0  0  0  0  0  0  0  0
   40.8150   33.1250   39.0310 F   0  0  0  0  0  0  0  0  0  0  0  0
   40.1330   34.1570   40.8880 F   0  0  0  0  0  0  0  0  0  0  0  0
   42.1590   33.2550   40.7910 F   0  0  0  0  0  0  0  0  0  0  0  0
   38.1430   32.7890   40.4230 O   0  0  0  0  0  0  0  0  0  0  0  0
   37.3170   32.8060   39.2750 C   0  0  0  0  0  0  0  0  0  0  0  0
   36.3230   31.8440   39.4640 F   0  0  0  0  0  0  0  0  0  0  0  0
   36.8130   34.0570   39.0810 F   0  0  0  0  0  0  0  0  0  0  0  0
   38.0390   32.3590   38.1870 F   0  0  0  0  0  0  0  0  0  0  0  0
   38.2820   24.6560   41.6810 C   0  0  0  0  0  0  0  0  0  0  0  0
   38.6040   23.9720   42.4900 H   0  0  0  0  0  0  0  0  0  0  0  0
   39.1100   24.8490   40.9730 H   0  0  0  0  0  0  0  0  0  0  0  0
   36.4420   23.8230   38.6720 C   0  0  2  0  0  3  0  0  0  0  0  0
   36.7950   24.8630   39.7420 C   0  0  0  0  0  3  0  0  0  0  0  0
   37.6370   25.4760   39.4200 H   0  0  0  0  0  0  0  0  0  0  0  0
   37.1730   24.0050   40.9320 C   0  0  1  0  0  3  0  0  0  0  0  0
   37.5090   22.7960   40.3580 O   0  0  0  0  0  0  0  0  0  0  0  0
   36.3830   22.5600   39.5430 C   0  0  0  0  0  3  0  0  0  0  0  0
   35.4940   22.6930   40.1850 H   0  0  0  0  0  0  0  0  0  0  0  0
   37.5100   23.6810   37.7780 O   0  0  0  0  0  0  0  0  0  0  0  0
   37.5660   22.6900   37.5980 H   0  0  0  0  0  0  0  0  0  0  0  0
  1  2  1  0  0  0  0
  2  7  2  0  0  0  0
  2  3  1  0  0  0  0
  3  4  2  0  0  0  0
  4  8  1  0  0  0  0
  4  5  1  0  0  0  0
  5  9  1  0  0  0  0
  6 10  1  0  0  0  0
  6  5  2  0  0  0  0
  7  6  1  0  0  0  0
 11 12  2  0  0  0  0
 11 16  1  0  0  0  0
 12 13  1  0  0  0  0
 13 17  1  0  0  0  0
 13 14  2  0  0  0  0
 15 14  1  0  0  0  0
 15  3  1  0  0  0  0
 16 15  2  0  0  0  0
 18 21  1  0  0  0  0
 18 20  1  0  0  0  0
 18 12  1  0  0  0  0
 19 18  1  0  0  0  0
 22 11  1  0  0  0  0
 23 24  1  0  0  0  0
 23 22  1  0  0  0  0
 25 23  1  0  0  0  0
 26 23  1  0  0  0  0
 27  7  1  0  0  0  0
 27 28  1  0  0  0  0
 29 27  1  0  0  0  0
 30 37  1  6  0  0  0
 30 35  1  0  0  0  0
 30 31  1  0  0  0  0
 31 33  1  0  0  0  0
 32 31  1  0  0  0  0
 33 27  1  6  0  0  0
 34 33  1  0  0  0  0
 35 36  1  0  0  0  0
 35 34  1  0  0  0  0
 38 37  1  0  0  0  0
M  END
>  <minimizedAffinity>
-5.77381182

$$$$

 OpenBabel03252504193D

 38 40  0  0  1  0  0  0  0  0999 V2000
   36.2590   26.5830   40.2360 F   0  0  0  0  0  0  0  0  0  0  0  0
   36.3700   27.9300   40.4810 C   0  0  0  0  0  0  0  0  0  0  0  0
   35.9200   28.8310   39.5620 C   0  0  0  0  0  0  0  0  0  0  0  0
   36.0750   30.1720   39.8980 C   0  0  0  0  0  0  0  0  0  0  0  0
   36.6430   30.5530   41.0820 C   0  0  0  0  0  0  0  0  0  0  0  0
   37.0790   29.5950   41.9720 C   0  0  0  0  0  0  0  0  0  0  0  0
   36.9480   28.2300   41.6850 C   0  0  0  0  0  0  0  0  0  0  0  0
   35.7340   30.9230   39.1980 H   0  0  0  0  0  0  0  0  0  0  0  0
   36.7430   31.6100   41.3000 H   0  0  0  0  0  0  0  0  0  0  0  0
   37.5330   29.8820   42.9180 H   0  0  0  0  0  0  0  0  0  0  0  0
   34.8990   28.8860   36.0570 C   0  0  0  0  0  0  0  0  0  0  0  0
   34.1860   27.7010   35.8950 C   0  0  0  0  0  0  0  0  0  0  0  0
   34.0580   26.8730   37.0220 C   0  0  0  0  0  0  0  0  0  0  0  0
   34.6180   27.2450   38.1930 N   0  0  0  0  0  0  0  0  0  0  0  0
   35.3070   28.4120   38.3000 C   0  0  0  0  0  0  0  0  0  0  0  0
   35.4390   29.2160   37.2390 N   0  0  0  0  0  0  0  0  0  0  0  0
   33.5060   25.9430   36.9300 H   0  0  0  0  0  0  0  0  0  0  0  0
   33.6100   27.3750   34.5900 C   0  0  0  0  0  0  0  0  0  0  0  0
   32.7050   28.3450   34.2030 F   0  0  0  0  0  0  0  0  0  0  0  0
   34.6410   27.3820   33.6530 F   0  0  0  0  0  0  0  0  0  0  0  0
   32.9950   26.1680   34.5130 F   0  0  0  0  0  0  0  0  0  0  0  0
   35.0260   29.6900   34.9760 O   0  0  0  0  0  0  0  0  0  0  0  0
   36.2340   30.1380   34.3920 C   0  0  0  0  0  0  0  0  0  0  0  0
   36.7720   31.1060   35.2410 F   0  0  0  0  0  0  0  0  0  0  0  0
   37.0750   29.0840   34.1910 F   0  0  0  0  0  0  0  0  0  0  0  0
   35.9510   30.8120   33.2210 F   0  0  0  0  0  0  0  0  0  0  0  0
   37.4090   27.1770   42.6500 C   0  0  0  0  0  0  0  0  0  0  0  0
   36.7610   26.2790   42.6150 H   0  0  0  0  0  0  0  0  0  0  0  0
   37.3690   27.6550   43.6470 H   0  0  0  0  0  0  0  0  0  0  0  0
   40.3140   25.0750   43.1820 C   0  0  2  0  0  3  0  0  0  0  0  0
   39.4170   26.2160   43.6780 C   0  0  0  0  0  3  0  0  0  0  0  0
   38.6440   25.8350   44.3460 H   0  0  0  0  0  0  0  0  0  0  0  0
   38.8120   26.7500   42.3960 C   0  0  1  0  0  3  0  0  0  0  0  0
   38.9340   25.6890   41.5220 O   0  0  0  0  0  0  0  0  0  0  0  0
   40.2980   25.3660   41.6740 C   0  0  0  0  0  3  0  0  0  0  0  0
   40.8610   26.3100   41.5560 H   0  0  0  0  0  0  0  0  0  0  0  0
   39.6770   23.8460   43.3910 O   0  0  0  0  0  0  0  0  0  0  0  0
   39.8750   23.3090   42.5600 H   0  0  0  0  0  0  0  0  0  0  0  0
  1  2  1  0  0  0  0
  2  7  1  0  0  0  0
  3  4  1  0  0  0  0
  3  2  2  0  0  0  0
  4  5  2  0  0  0  0
  5  9  1  0  0  0  0
  5  6  1  0  0  0  0
  6 10  1  0  0  0  0
  7  6  2  0  0  0  0
  7 27  1  0  0  0  0
  8  4  1  0  0  0  0
 11 16  1  0  0  0  0
 12 11  2  0  0  0  0
 12 13  1  0  0  0  0
 13 14  2  0  0  0  0
 14 15  1  0  0  0  0
 15  3  1  0  0  0  0
 16 15  2  0  0  0  0
 17 13  1  0  0  0  0
 18 12  1  0  0  0  0
 19 18  1  0  0  0  0
 20 18  1  0  0  0  0
 21 18  1  0  0  0  0
 22 11  1  0  0  0  0
 23 22  1  0  0  0  0
 23 24  1  0  0  0  0
 25 23  1  0  0  0  0
 26 23  1  0  0  0  0
 27 29  1  0  0  0  0
 28 27  1  0  0  0  0
 30 37  1  6  0  0  0
 30 31  1  0  0  0  0
 31 32  1  0  0  0  0
 33 27  1  1  0  0  0
 33 31  1  0  0  0  0
 34 35  1  0  0  0  0
 34 33  1  0  0  0  0
 35 30  1  0  0  0  0
 36 35  1  0  0  0  0
 38 37  1  0  0  0  0
M  END
>  <minimizedAffinity>
-5.5281477

$$$$
