
 OpenBabel03252509213D

 25 27  0  0  1  0  0  0  0  0999 V2000
   36.5220   27.7820   39.1550 C   0  0  0  0  0  0  0  0  0  0  0  0
   37.2100   28.4950   40.1640 C   0  0  0  0  0  0  0  0  0  0  0  0
   37.6100   27.7090   41.2310 C   0  0  0  0  0  0  0  0  0  0  0  0
   37.3310   26.3510   41.2450 N   0  0  0  0  0  0  0  0  0  0  0  0
   36.6760   25.7330   40.2550 C   0  0  0  0  0  0  0  0  0  0  0  0
   36.2670   26.4560   39.2000 N   0  0  0  0  0  0  0  0  0  0  0  0
   36.1330   28.2240   38.2500 H   0  0  0  0  0  0  0  0  0  0  0  0
   36.5900   24.6870   40.5070 H   0  0  0  0  0  0  0  0  0  0  0  0
   38.4490   28.3300   42.3220 C   0  0  0  0  0  0  0  0  0  0  0  0
   37.7080   28.2560   43.6700 C   0  0  0  0  0  0  0  0  0  0  0  0
   39.0060   27.4670   43.3250 C   0  0  0  0  0  0  0  0  0  0  0  0
   38.7920   29.3740   42.1410 H   0  0  0  0  0  0  0  0  0  0  0  0
   37.8420   29.1540   44.2930 H   0  0  0  0  0  0  0  0  0  0  0  0
   36.7750   27.7120   43.7060 H   0  0  0  0  0  0  0  0  0  0  0  0
   39.8870   27.7890   43.9540 H   0  0  0  0  0  0  0  0  0  0  0  0
   38.8150   26.3560   43.3070 H   0  0  0  0  0  0  0  0  0  0  0  0
   36.8000   30.8000   41.0760 C   0  0  1  0  0  3  0  0  0  0  0  0
   37.4370   29.9080   40.0280 C   0  0  2  0  0  3  0  0  0  0  0  0
   36.8430   30.5660   38.8040 C   0  0  0  0  0  3  0  0  0  0  0  0
   37.3640   30.2950   37.8870 H   0  0  0  0  0  0  0  0  0  0  0  0
   37.1020   31.9250   39.0340 O   0  0  0  0  0  0  0  0  0  0  0  0
   37.1270   32.1320   40.3960 C   0  0  0  0  0  3  0  0  0  0  0  0
   36.3980   32.9140   40.6800 H   0  0  0  0  0  0  0  0  0  0  0  0
   35.4260   30.7320   41.1140 O   0  0  0  0  0  0  0  0  0  0  0  0
   35.0210   31.2450   40.3710 H   0  0  0  0  0  0  0  0  0  0  0  0
  1  6  2  0  0  0  0
  1  2  1  0  0  0  0
  2  3  2  0  0  0  0
  3  4  1  0  0  0  0
  3  9  1  0  0  0  0
  5  8  1  0  0  0  0
  5  4  2  0  0  0  0
  6  5  1  0  0  0  0
  7  1  1  0  0  0  0
  9 11  1  0  0  0  0
  9 10  1  0  0  0  0
 10 14  1  0  0  0  0
 10 13  1  0  0  0  0
 11 10  1  0  0  0  0
 11 15  1  0  0  0  0
 12  9  1  0  0  0  0
 16 11  1  0  0  0  0
 17 24  1  6  0  0  0
 18  2  1  1  0  0  0
 18 17  1  0  0  0  0
 19 21  1  0  0  0  0
 19 18  1  0  0  0  0
 20 19  1  0  0  0  0
 21 22  1  0  0  0  0
 22 23  1  0  0  0  0
 22 17  1  0  0  0  0
 25 24  1  0  0  0  0
M  END
>  <minimizedAffinity>
-4.55349922

$$$$

 OpenBabel03252509213D

 25 27  0  0  1  0  0  0  0  0999 V2000
   37.6680   32.6710   40.3090 C   0  0  0  0  0  0  0  0  0  0  0  0
   38.4320   31.5670   40.7530 C   0  0  0  0  0  0  0  0  0  0  0  0
   39.7620   31.8670   40.9930 C   0  0  0  0  0  0  0  0  0  0  0  0
   40.2370   33.1550   40.7970 N   0  0  0  0  0  0  0  0  0  0  0  0
   39.4600   34.1600   40.3760 C   0  0  0  0  0  0  0  0  0  0  0  0
   38.1630   33.9150   40.1290 N   0  0  0  0  0  0  0  0  0  0  0  0
   36.6160   32.6320   40.0700 H   0  0  0  0  0  0  0  0  0  0  0  0
   40.0660   35.0510   40.3060 H   0  0  0  0  0  0  0  0  0  0  0  0
   40.6580   30.8000   41.5750 C   0  0  0  0  0  0  0  0  0  0  0  0
   42.1360   31.1550   41.3300 C   0  0  0  0  0  0  0  0  0  0  0  0
   41.4480   31.1300   42.7270 C   0  0  0  0  0  0  0  0  0  0  0  0
   40.4620   29.7580   41.2340 H   0  0  0  0  0  0  0  0  0  0  0  0
   42.7610   30.2820   41.0860 H   0  0  0  0  0  0  0  0  0  0  0  0
   42.3610   32.1150   40.8870 H   0  0  0  0  0  0  0  0  0  0  0  0
   41.8680   30.3280   43.4010 H   0  0  0  0  0  0  0  0  0  0  0  0
   41.4110   32.1620   43.1810 H   0  0  0  0  0  0  0  0  0  0  0  0
   36.3290   30.1990   40.6350 C   0  0  1  0  0  3  0  0  0  0  0  0
   37.8170   30.2790   40.9180 C   0  0  2  0  0  3  0  0  0  0  0  0
   37.7920   29.7230   42.3220 C   0  0  0  0  0  3  0  0  0  0  0  0
   38.7760   29.4040   42.6650 H   0  0  0  0  0  0  0  0  0  0  0  0
   37.0160   28.5640   42.1780 O   0  0  0  0  0  0  0  0  0  0  0  0
   36.1280   28.7690   41.1440 C   0  0  0  0  0  3  0  0  0  0  0  0
   35.0910   28.6110   41.4920 H   0  0  0  0  0  0  0  0  0  0  0  0
   35.5570   30.9940   41.4520 O   0  0  0  0  0  0  0  0  0  0  0  0
   35.4500   30.5890   42.3490 H   0  0  0  0  0  0  0  0  0  0  0  0
  1  2  1  0  0  0  0
  2  3  2  0  0  0  0
  3  9  1  0  0  0  0
  4  3  1  0  0  0  0
  5  4  2  0  0  0  0
  6  1  2  0  0  0  0
  6  5  1  0  0  0  0
  7  1  1  0  0  0  0
  8  5  1  0  0  0  0
  9 11  1  0  0  0  0
 10  9  1  0  0  0  0
 10 11  1  0  0  0  0
 11 16  1  0  0  0  0
 11 15  1  0  0  0  0
 12  9  1  0  0  0  0
 13 10  1  0  0  0  0
 14 10  1  0  0  0  0
 17 18  1  0  0  0  0
 17 22  1  0  0  0  0
 17 24  1  1  0  0  0
 18  2  1  1  0  0  0
 18 19  1  0  0  0  0
 19 20  1  0  0  0  0
 21 19  1  0  0  0  0
 22 23  1  0  0  0  0
 22 21  1  0  0  0  0
 24 25  1  0  0  0  0
M  END
>  <minimizedAffinity>
-4.53059626

$$$$

 OpenBabel03252509213D

 25 27  0  0  1  0  0  0  0  0999 V2000
   38.6350   31.3190   41.2710 C   0  0  0  0  0  0  0  0  0  0  0  0
   37.9430   30.1280   40.9510 C   0  0  0  0  0  0  0  0  0  0  0  0
   36.9830   30.2860   39.9660 C   0  0  0  0  0  0  0  0  0  0  0  0
   36.7710   31.5270   39.3860 N   0  0  0  0  0  0  0  0  0  0  0  0
   37.4630   32.6200   39.7320 C   0  0  0  0  0  0  0  0  0  0  0  0
   38.4040   32.5140   40.6840 N   0  0  0  0  0  0  0  0  0  0  0  0
   39.4160   31.3930   42.0130 H   0  0  0  0  0  0  0  0  0  0  0  0
   37.1100   33.4470   39.1370 H   0  0  0  0  0  0  0  0  0  0  0  0
   36.2500   29.0670   39.4580 C   0  0  0  0  0  0  0  0  0  0  0  0
   34.7550   29.1610   39.8100 C   0  0  0  0  0  0  0  0  0  0  0  0
   35.3340   29.2320   38.3660 C   0  0  0  0  0  0  0  0  0  0  0  0
   36.6510   28.0820   39.7890 H   0  0  0  0  0  0  0  0  0  0  0  0
   34.3120   28.1970   40.1040 H   0  0  0  0  0  0  0  0  0  0  0  0
   34.3960   30.0760   40.2610 H   0  0  0  0  0  0  0  0  0  0  0  0
   35.0150   28.3560   37.7290 H   0  0  0  0  0  0  0  0  0  0  0  0
   35.1560   30.2460   37.9040 H   0  0  0  0  0  0  0  0  0  0  0  0
   37.2380   28.3950   42.6270 C   0  0  1  0  0  3  0  0  0  0  0  0
   38.2610   28.9010   41.6280 C   0  0  2  0  0  3  0  0  0  0  0  0
   39.4560   28.9350   42.5520 C   0  0  0  0  0  3  0  0  0  0  0  0
   40.4010   28.9960   42.0140 H   0  0  0  0  0  0  0  0  0  0  0  0
   39.4110   27.6710   43.1560 O   0  0  0  0  0  0  0  0  0  0  0  0
   38.0950   27.2640   43.2010 C   0  0  0  0  0  3  0  0  0  0  0  0
   37.8010   27.0280   44.2400 H   0  0  0  0  0  0  0  0  0  0  0  0
   37.0060   29.2530   43.6790 O   0  0  0  0  0  0  0  0  0  0  0  0
   37.7390   29.2100   44.3440 H   0  0  0  0  0  0  0  0  0  0  0  0
  1  7  1  0  0  0  0
  2  1  1  0  0  0  0
  3  2  2  0  0  0  0
  4  5  2  0  0  0  0
  4  3  1  0  0  0  0
  5  6  1  0  0  0  0
  6  1  2  0  0  0  0
  8  5  1  0  0  0  0
  9 12  1  0  0  0  0
  9 10  1  0  0  0  0
  9  3  1  0  0  0  0
 10 13  1  0  0  0  0
 10 14  1  0  0  0  0
 11  9  1  0  0  0  0
 11 10  1  0  0  0  0
 15 11  1  0  0  0  0
 16 11  1  0  0  0  0
 17 22  1  0  0  0  0
 17 24  1  1  0  0  0
 18  2  1  1  0  0  0
 18 19  1  0  0  0  0
 18 17  1  0  0  0  0
 19 21  1  0  0  0  0
 20 19  1  0  0  0  0
 21 22  1  0  0  0  0
 22 23  1  0  0  0  0
 24 25  1  0  0  0  0
M  END
>  <minimizedAffinity>
-4.4946723

$$$$

 OpenBabel03252509213D

 25 27  0  0  1  0  0  0  0  0999 V2000
   36.5490   30.4690   39.2180 C   0  0  0  0  0  0  0  0  0  0  0  0
   37.4860   30.6120   40.2670 C   0  0  0  0  0  0  0  0  0  0  0  0
   37.2500   29.7780   41.3460 C   0  0  0  0  0  0  0  0  0  0  0  0
   36.1730   28.9040   41.3350 N   0  0  0  0  0  0  0  0  0  0  0  0
   35.3200   28.8150   40.3080 C   0  0  0  0  0  0  0  0  0  0  0  0
   35.5100   29.6060   39.2390 N   0  0  0  0  0  0  0  0  0  0  0  0
   36.5690   31.0340   38.2980 H   0  0  0  0  0  0  0  0  0  0  0  0
   34.5800   28.0670   40.5460 H   0  0  0  0  0  0  0  0  0  0  0  0
   38.2420   29.7560   42.4850 C   0  0  0  0  0  0  0  0  0  0  0  0
   37.8210   28.7160   43.5380 C   0  0  0  0  0  0  0  0  0  0  0  0
   39.0820   28.6010   42.6320 C   0  0  0  0  0  0  0  0  0  0  0  0
   38.4380   30.7340   42.9810 H   0  0  0  0  0  0  0  0  0  0  0  0
   38.0000   29.0440   44.5740 H   0  0  0  0  0  0  0  0  0  0  0  0
   36.9720   28.0840   43.3160 H   0  0  0  0  0  0  0  0  0  0  0  0
   40.0430   28.6450   43.2220 H   0  0  0  0  0  0  0  0  0  0  0  0
   38.9970   27.7270   41.9240 H   0  0  0  0  0  0  0  0  0  0  0  0
   38.3210   32.9320   40.7470 C   0  0  1  0  0  3  0  0  0  0  0  0
   38.5630   31.5570   40.1540 C   0  0  2  0  0  3  0  0  0  0  0  0
   38.9270   31.9940   38.7540 C   0  0  0  0  0  3  0  0  0  0  0  0
   39.4260   31.2110   38.1860 H   0  0  0  0  0  0  0  0  0  0  0  0
   39.8770   32.9990   38.9860 O   0  0  0  0  0  0  0  0  0  0  0  0
   39.5920   33.5870   40.1990 C   0  0  0  0  0  3  0  0  0  0  0  0
   39.4570   34.6780   40.0750 H   0  0  0  0  0  0  0  0  0  0  0  0
   37.2750   33.6170   40.1710 O   0  0  0  0  0  0  0  0  0  0  0  0
   37.5340   33.9950   39.2940 H   0  0  0  0  0  0  0  0  0  0  0  0
  1  6  2  0  0  0  0
  1  2  1  0  0  0  0
  2  3  2  0  0  0  0
  3  9  1  0  0  0  0
  4  3  1  0  0  0  0
  5  8  1  0  0  0  0
  5  4  2  0  0  0  0
  6  5  1  0  0  0  0
  7  1  1  0  0  0  0
  9 11  1  0  0  0  0
  9 12  1  0  0  0  0
  9 10  1  0  0  0  0
 10 13  1  0  0  0  0
 11 15  1  0  0  0  0
 11 10  1  0  0  0  0
 14 10  1  0  0  0  0
 16 11  1  0  0  0  0
 17 24  1  6  0  0  0
 18  2  1  6  0  0  0
 18 17  1  0  0  0  0
 19 21  1  0  0  0  0
 19 18  1  0  0  0  0
 20 19  1  0  0  0  0
 21 22  1  0  0  0  0
 22 17  1  0  0  0  0
 23 22  1  0  0  0  0
 25 24  1  0  0  0  0
M  END
>  <minimizedAffinity>
-4.46088171

$$$$

 OpenBabel03252509213D

 25 27  0  0  1  0  0  0  0  0999 V2000
   36.6520   28.3260   41.8510 C   0  0  0  0  0  0  0  0  0  0  0  0
   37.7350   29.1230   41.4140 C   0  0  0  0  0  0  0  0  0  0  0  0
   38.8730   28.9960   42.1920 C   0  0  0  0  0  0  0  0  0  0  0  0
   38.8820   28.1460   43.2870 N   0  0  0  0  0  0  0  0  0  0  0  0
   37.8210   27.4150   43.6500 C   0  0  0  0  0  0  0  0  0  0  0  0
   36.6960   27.5070   42.9240 N   0  0  0  0  0  0  0  0  0  0  0  0
   35.6840   28.2920   41.3730 H   0  0  0  0  0  0  0  0  0  0  0  0
   38.0870   26.8440   44.5260 H   0  0  0  0  0  0  0  0  0  0  0  0
   40.1330   29.7120   41.7660 C   0  0  0  0  0  0  0  0  0  0  0  0
   40.3550   30.9620   42.6370 C   0  0  0  0  0  0  0  0  0  0  0  0
   41.2590   29.6930   42.6560 C   0  0  0  0  0  0  0  0  0  0  0  0
   40.1980   29.9890   40.6900 H   0  0  0  0  0  0  0  0  0  0  0  0
   40.7480   31.8230   42.0740 H   0  0  0  0  0  0  0  0  0  0  0  0
   39.6860   31.1250   43.4700 H   0  0  0  0  0  0  0  0  0  0  0  0
   42.3040   29.9020   42.2860 H   0  0  0  0  0  0  0  0  0  0  0  0
   41.2020   29.1680   43.6540 H   0  0  0  0  0  0  0  0  0  0  0  0
   37.1070   31.3780   40.5030 C   0  0  1  0  0  3  0  0  0  0  0  0
   37.5960   29.9640   40.2560 C   0  0  2  0  0  3  0  0  0  0  0  0
   36.5460   29.5520   39.2510 C   0  0  0  0  0  3  0  0  0  0  0  0
   36.8280   28.6620   38.6900 H   0  0  0  0  0  0  0  0  0  0  0  0
   36.5530   30.6230   38.3470 O   0  0  0  0  0  0  0  0  0  0  0  0
   36.9220   31.7600   39.0320 C   0  0  0  0  0  3  0  0  0  0  0  0
   36.1510   32.5450   38.9180 H   0  0  0  0  0  0  0  0  0  0  0  0
   35.8510   31.4500   41.0640 O   0  0  0  0  0  0  0  0  0  0  0  0
   35.1470   31.2790   40.3890 H   0  0  0  0  0  0  0  0  0  0  0  0
  1  6  1  0  0  0  0
  2  1  2  0  0  0  0
  2  3  1  0  0  0  0
  3  4  2  0  0  0  0
  4  5  1  0  0  0  0
  5  8  1  0  0  0  0
  6  5  2  0  0  0  0
  7  1  1  0  0  0  0
  9  3  1  0  0  0  0
  9 10  1  0  0  0  0
  9 11  1  0  0  0  0
 10 11  1  0  0  0  0
 10 14  1  0  0  0  0
 11 16  1  0  0  0  0
 12  9  1  0  0  0  0
 13 10  1  0  0  0  0
 15 11  1  0  0  0  0
 17 24  1  1  0  0  0
 18 17  1  0  0  0  0
 18  2  1  1  0  0  0
 19 18  1  0  0  0  0
 20 19  1  0  0  0  0
 21 22  1  0  0  0  0
 21 19  1  0  0  0  0
 22 17  1  0  0  0  0
 23 22  1  0  0  0  0
 25 24  1  0  0  0  0
M  END
>  <minimizedAffinity>
-4.34847689

$$$$

 OpenBabel03252509213D

 25 27  0  0  1  0  0  0  0  0999 V2000
   37.6640   31.1520   37.3850 C   0  0  0  0  0  0  0  0  0  0  0  0
   37.4280   31.1590   38.7800 C   0  0  0  0  0  0  0  0  0  0  0  0
   36.4400   30.2790   39.1840 C   0  0  0  0  0  0  0  0  0  0  0  0
   35.7810   29.4880   38.2550 N   0  0  0  0  0  0  0  0  0  0  0  0
   36.0530   29.5260   36.9450 C   0  0  0  0  0  0  0  0  0  0  0  0
   37.0040   30.3660   36.5070 N   0  0  0  0  0  0  0  0  0  0  0  0
   38.3950   31.7700   36.8850 H   0  0  0  0  0  0  0  0  0  0  0  0
   35.4090   28.8200   36.4440 H   0  0  0  0  0  0  0  0  0  0  0  0
   36.1680   30.1130   40.6610 C   0  0  0  0  0  0  0  0  0  0  0  0
   35.4830   28.7610   40.9270 C   0  0  0  0  0  0  0  0  0  0  0  0
   36.9250   29.1320   41.3850 C   0  0  0  0  0  0  0  0  0  0  0  0
   35.5860   30.9300   41.1450 H   0  0  0  0  0  0  0  0  0  0  0  0
   34.7040   28.8100   41.7040 H   0  0  0  0  0  0  0  0  0  0  0  0
   35.3700   28.0770   40.0980 H   0  0  0  0  0  0  0  0  0  0  0  0
   37.0230   29.1770   42.5090 H   0  0  0  0  0  0  0  0  0  0  0  0
   37.6950   28.4920   40.8650 H   0  0  0  0  0  0  0  0  0  0  0  0
   37.5180   33.3330   40.0350 C   0  0  1  0  0  3  0  0  0  0  0  0
   38.1830   32.0290   39.6390 C   0  0  2  0  0  3  0  0  0  0  0  0
   39.4510   32.6110   39.0560 C   0  0  0  0  0  3  0  0  0  0  0  0
   40.2420   31.8700   38.9490 H   0  0  0  0  0  0  0  0  0  0  0  0
   39.8620   33.5050   40.0540 O   0  0  0  0  0  0  0  0  0  0  0  0
   38.7400   33.9560   40.7150 C   0  0  0  0  0  3  0  0  0  0  0  0
   38.6940   35.0610   40.6840 H   0  0  0  0  0  0  0  0  0  0  0  0
   37.2230   34.1610   38.9750 O   0  0  0  0  0  0  0  0  0  0  0  0
   38.0340   34.6250   38.6470 H   0  0  0  0  0  0  0  0  0  0  0  0
  1  2  1  0  0  0  0
  2  3  2  0  0  0  0
  3  9  1  0  0  0  0
  4  3  1  0  0  0  0
  5  4  2  0  0  0  0
  6  5  1  0  0  0  0
  6  1  2  0  0  0  0
  7  1  1  0  0  0  0
  8  5  1  0  0  0  0
  9 10  1  0  0  0  0
  9 12  1  0  0  0  0
  9 11  1  0  0  0  0
 10 11  1  0  0  0  0
 10 13  1  0  0  0  0
 11 15  1  0  0  0  0
 14 10  1  0  0  0  0
 16 11  1  0  0  0  0
 17 24  1  6  0  0  0
 17 22  1  0  0  0  0
 18  2  1  6  0  0  0
 18 17  1  0  0  0  0
 19 18  1  0  0  0  0
 19 21  1  0  0  0  0
 20 19  1  0  0  0  0
 21 22  1  0  0  0  0
 23 22  1  0  0  0  0
 25 24  1  0  0  0  0
M  END
>  <minimizedAffinity>
-4.25268698

$$$$

 OpenBabel03252509213D

 25 27  0  0  1  0  0  0  0  0999 V2000
   37.2880   28.9210   42.2490 C   0  0  0  0  0  0  0  0  0  0  0  0
   37.0100   27.8360   41.3860 C   0  0  0  0  0  0  0  0  0  0  0  0
   37.6840   26.6730   41.7130 C   0  0  0  0  0  0  0  0  0  0  0  0
   38.5400   26.6410   42.8040 N   0  0  0  0  0  0  0  0  0  0  0  0
   38.7600   27.7050   43.5860 C   0  0  0  0  0  0  0  0  0  0  0  0
   38.1270   28.8560   43.3050 N   0  0  0  0  0  0  0  0  0  0  0  0
   36.8580   29.9060   42.1520 H   0  0  0  0  0  0  0  0  0  0  0  0
   39.4590   27.4200   44.3570 H   0  0  0  0  0  0  0  0  0  0  0  0
   37.3900   25.4130   40.9340 C   0  0  0  0  0  0  0  0  0  0  0  0
   38.2530   24.2500   41.4570 C   0  0  0  0  0  0  0  0  0  0  0  0
   36.7050   24.3440   41.6040 C   0  0  0  0  0  0  0  0  0  0  0  0
   37.4930   25.4870   39.8280 H   0  0  0  0  0  0  0  0  0  0  0  0
   38.6210   23.5850   40.6610 H   0  0  0  0  0  0  0  0  0  0  0  0
   38.8610   24.4240   42.3340 H   0  0  0  0  0  0  0  0  0  0  0  0
   36.1670   23.5370   41.0260 H   0  0  0  0  0  0  0  0  0  0  0  0
   36.4030   24.4350   42.6880 H   0  0  0  0  0  0  0  0  0  0  0  0
   36.7080   28.3840   38.9530 C   0  0  1  0  0  3  0  0  0  0  0  0
   36.0970   27.9990   40.2870 C   0  0  2  0  0  3  0  0  0  0  0  0
   35.1080   29.1360   40.4000 C   0  0  0  0  0  3  0  0  0  0  0  0
   34.3340   28.9460   41.1410 H   0  0  0  0  0  0  0  0  0  0  0  0
   34.4840   29.1220   39.1440 O   0  0  0  0  0  0  0  0  0  0  0  0
   35.3870   28.6410   38.2220 C   0  0  0  0  0  3  0  0  0  0  0  0
   35.5210   29.3680   37.4000 H   0  0  0  0  0  0  0  0  0  0  0  0
   37.3660   29.5930   38.9620 O   0  0  0  0  0  0  0  0  0  0  0  0
   36.7270   30.3490   38.9360 H   0  0  0  0  0  0  0  0  0  0  0  0
  1  6  1  0  0  0  0
  2  3  1  0  0  0  0
  2  1  2  0  0  0  0
  3  4  2  0  0  0  0
  4  5  1  0  0  0  0
  5  8  1  0  0  0  0
  6  5  2  0  0  0  0
  7  1  1  0  0  0  0
  9 10  1  0  0  0  0
  9 11  1  0  0  0  0
  9  3  1  0  0  0  0
 10 11  1  0  0  0  0
 10 14  1  0  0  0  0
 11 16  1  0  0  0  0
 12  9  1  0  0  0  0
 13 10  1  0  0  0  0
 15 11  1  0  0  0  0
 17 24  1  1  0  0  0
 17 18  1  0  0  0  0
 18 19  1  0  0  0  0
 18  2  1  1  0  0  0
 19 20  1  0  0  0  0
 21 19  1  0  0  0  0
 22 17  1  0  0  0  0
 22 21  1  0  0  0  0
 23 22  1  0  0  0  0
 25 24  1  0  0  0  0
M  END
>  <minimizedAffinity>
-4.10261631

$$$$

 OpenBabel03252509213D

 25 27  0  0  1  0  0  0  0  0999 V2000
   40.7230   29.6360   42.1300 C   0  0  0  0  0  0  0  0  0  0  0  0
   39.3140   29.7200   42.2210 C   0  0  0  0  0  0  0  0  0  0  0  0
   38.7300   28.6420   42.8620 C   0  0  0  0  0  0  0  0  0  0  0  0
   39.5130   27.6070   43.3490 N   0  0  0  0  0  0  0  0  0  0  0  0
   40.8460   27.5870   43.2330 C   0  0  0  0  0  0  0  0  0  0  0  0
   41.4560   28.6120   42.6170 N   0  0  0  0  0  0  0  0  0  0  0  0
   41.3520   30.3800   41.6650 H   0  0  0  0  0  0  0  0  0  0  0  0
   41.2130   26.6810   43.6900 H   0  0  0  0  0  0  0  0  0  0  0  0
   37.2410   28.6640   43.1190 C   0  0  0  0  0  0  0  0  0  0  0  0
   36.5190   27.7180   42.1430 C   0  0  0  0  0  0  0  0  0  0  0  0
   36.6320   27.4910   43.6800 C   0  0  0  0  0  0  0  0  0  0  0  0
   36.7560   29.6650   43.0970 H   0  0  0  0  0  0  0  0  0  0  0  0
   35.5550   28.1110   41.7840 H   0  0  0  0  0  0  0  0  0  0  0  0
   37.1240   27.1040   41.4900 H   0  0  0  0  0  0  0  0  0  0  0  0
   35.6310   27.5400   44.1980 H   0  0  0  0  0  0  0  0  0  0  0  0
   37.2440   26.5720   43.9120 H   0  0  0  0  0  0  0  0  0  0  0  0
   37.9960   30.6680   40.3040 C   0  0  1  0  0  3  0  0  0  0  0  0
   38.6180   30.8530   41.6740 C   0  0  2  0  0  3  0  0  0  0  0  0
   39.4600   32.0680   41.3590 C   0  0  0  0  0  3  0  0  0  0  0  0
   39.8010   32.5860   42.2540 H   0  0  0  0  0  0  0  0  0  0  0  0
   38.5440   32.9150   40.7200 O   0  0  0  0  0  0  0  0  0  0  0  0
   37.6030   32.1320   40.0880 C   0  0  0  0  0  3  0  0  0  0  0  0
   37.5580   32.3780   39.0120 H   0  0  0  0  0  0  0  0  0  0  0  0
   38.9020   30.3780   39.3080 O   0  0  0  0  0  0  0  0  0  0  0  0
   39.3920   31.1900   39.0220 H   0  0  0  0  0  0  0  0  0  0  0  0
  1  2  2  0  0  0  0
  1  6  1  0  0  0  0
  2  3  1  0  0  0  0
  3  9  1  0  0  0  0
  3  4  2  0  0  0  0
  5  4  1  0  0  0  0
  5  8  1  0  0  0  0
  6  5  2  0  0  0  0
  7  1  1  0  0  0  0
  9 11  1  0  0  0  0
 10  9  1  0  0  0  0
 10 11  1  0  0  0  0
 11 16  1  0  0  0  0
 11 15  1  0  0  0  0
 12  9  1  0  0  0  0
 13 10  1  0  0  0  0
 14 10  1  0  0  0  0
 17 24  1  6  0  0  0
 17 18  1  0  0  0  0
 18  2  1  6  0  0  0
 19 18  1  0  0  0  0
 19 20  1  0  0  0  0
 21 19  1  0  0  0  0
 22 17  1  0  0  0  0
 22 21  1  0  0  0  0
 23 22  1  0  0  0  0
 25 24  1  0  0  0  0
M  END
>  <minimizedAffinity>
-4.09697437

$$$$

 OpenBabel03252509213D

 25 27  0  0  1  0  0  0  0  0999 V2000
   37.0800   28.7490   38.8710 C   0  0  0  0  0  0  0  0  0  0  0  0
   37.1100   29.7850   39.8330 C   0  0  0  0  0  0  0  0  0  0  0  0
   37.2130   31.0530   39.2870 C   0  0  0  0  0  0  0  0  0  0  0  0
   37.2760   31.2220   37.9120 N   0  0  0  0  0  0  0  0  0  0  0  0
   37.2420   30.1970   37.0520 C   0  0  0  0  0  0  0  0  0  0  0  0
   37.1420   28.9490   37.5360 N   0  0  0  0  0  0  0  0  0  0  0  0
   37.0040   27.6980   39.1050 H   0  0  0  0  0  0  0  0  0  0  0  0
   37.3040   30.5930   36.0500 H   0  0  0  0  0  0  0  0  0  0  0  0
   37.1450   32.2510   40.2040 C   0  0  0  0  0  0  0  0  0  0  0  0
   38.5550   32.8270   40.4320 C   0  0  0  0  0  0  0  0  0  0  0  0
   37.4170   33.5470   39.6490 C   0  0  0  0  0  0  0  0  0  0  0  0
   36.6450   32.0880   41.1850 H   0  0  0  0  0  0  0  0  0  0  0  0
   38.7250   33.1750   41.4630 H   0  0  0  0  0  0  0  0  0  0  0  0
   39.3740   32.4030   39.8680 H   0  0  0  0  0  0  0  0  0  0  0  0
   37.0700   34.4900   40.1620 H   0  0  0  0  0  0  0  0  0  0  0  0
   37.6850   33.6680   38.5600 H   0  0  0  0  0  0  0  0  0  0  0  0
   38.3530   29.3980   41.9810 C   0  0  1  0  0  3  0  0  0  0  0  0
   37.0350   29.4760   41.2350 C   0  0  2  0  0  3  0  0  0  0  0  0
   36.5120   28.1030   41.5910 C   0  0  0  0  0  3  0  0  0  0  0  0
   35.4430   28.0020   41.4120 H   0  0  0  0  0  0  0  0  0  0  0  0
   36.7010   28.0570   42.9790 O   0  0  0  0  0  0  0  0  0  0  0  0
   37.7810   28.8520   43.2920 C   0  0  0  0  0  3  0  0  0  0  0  0
   38.5400   28.2680   43.8460 H   0  0  0  0  0  0  0  0  0  0  0  0
   39.2070   28.4240   41.5170 O   0  0  0  0  0  0  0  0  0  0  0  0
   38.9300   27.5260   41.8280 H   0  0  0  0  0  0  0  0  0  0  0  0
  1  7  1  0  0  0  0
  1  2  1  0  0  0  0
  3  2  2  0  0  0  0
  3  9  1  0  0  0  0
  4  3  1  0  0  0  0
  5  6  1  0  0  0  0
  5  4  2  0  0  0  0
  6  1  2  0  0  0  0
  8  5  1  0  0  0  0
  9 10  1  0  0  0  0
  9 12  1  0  0  0  0
 10 13  1  0  0  0  0
 11 15  1  0  0  0  0
 11  9  1  0  0  0  0
 11 10  1  0  0  0  0
 14 10  1  0  0  0  0
 16 11  1  0  0  0  0
 17 24  1  6  0  0  0
 17 22  1  0  0  0  0
 18  2  1  6  0  0  0
 18 19  1  0  0  0  0
 18 17  1  0  0  0  0
 19 21  1  0  0  0  0
 20 19  1  0  0  0  0
 21 22  1  0  0  0  0
 22 23  1  0  0  0  0
 24 25  1  0  0  0  0
M  END
>  <minimizedAffinity>
-4.04542923

$$$$
