
 OpenBabel03252509163D

 25 27  0  0  1  0  0  0  0  0999 V2000
   45.8490   33.2510   46.2850 C   0  0  0  0  0  0  0  0  0  0  0  0
   45.1830   33.1050   47.5310 C   0  0  0  0  0  0  0  0  0  0  0  0
   45.5780   32.1290   48.3690 C   0  0  0  0  0  0  0  0  0  0  0  0
   46.6430   31.2800   47.9830 C   0  0  0  0  0  0  0  0  0  0  0  0
   47.0940   31.9200   46.3350 S   0  0  0  0  0  0  0  0  0  0  0  0
   44.3780   33.7650   47.7950 H   0  0  0  0  0  0  0  0  0  0  0  0
   45.1870   31.8930   49.3220 H   0  0  0  0  0  0  0  0  0  0  0  0
   44.4560   36.1370   44.4170 C   0  0  0  0  0  0  0  0  0  0  0  0
   45.1390   35.9830   43.1880 C   0  0  0  0  0  0  0  0  0  0  0  0
   46.0380   34.9080   43.0570 C   0  0  0  0  0  0  0  0  0  0  0  0
   46.1980   34.0690   44.1350 N   0  0  0  0  0  0  0  0  0  0  0  0
   45.5160   34.2680   45.2850 C   0  0  0  0  0  0  0  0  0  0  0  0
   44.6440   35.2960   45.4360 N   0  0  0  0  0  0  0  0  0  0  0  0
   43.7660   36.9630   44.5140 H   0  0  0  0  0  0  0  0  0  0  0  0
   45.0080   36.6480   42.3440 H   0  0  0  0  0  0  0  0  0  0  0  0
   46.6030   34.7130   42.1560 H   0  0  0  0  0  0  0  0  0  0  0  0
   48.7880   30.5710   48.7940 C   0  0  2  0  0  3  0  0  0  0  0  0
   47.3490   30.1770   48.5280 C   0  0  2  0  0  3  0  0  0  0  0  0
   47.5310   29.1100   47.4960 C   0  0  0  0  0  3  0  0  0  0  0  0
   47.4920   29.4830   46.4420 H   0  0  0  0  0  0  0  0  0  0  0  0
   48.7360   28.4710   47.7500 O   0  0  0  0  0  0  0  0  0  0  0  0
   49.4250   29.1820   48.7160 C   0  0  0  0  0  3  0  0  0  0  0  0
   49.2820   28.6810   49.7040 H   0  0  0  0  0  0  0  0  0  0  0  0
   48.9580   31.0840   50.0750 O   0  0  0  0  0  0  0  0  0  0  0  0
   48.0880   31.1750   50.5330 H   0  0  0  0  0  0  0  0  0  0  0  0
  1  5  1  0  0  0  0
  1  2  2  0  0  0  0
  2  6  1  0  0  0  0
  2  3  1  0  0  0  0
  3  7  1  0  0  0  0
  4  3  2  0  0  0  0
  5  4  1  0  0  0  0
  8 14  1  0  0  0  0
  8 13  1  0  0  0  0
  9  8  2  0  0  0  0
 10  9  1  0  0  0  0
 10 11  2  0  0  0  0
 11 12  1  0  0  0  0
 12 13  2  0  0  0  0
 12  1  1  0  0  0  0
 15  9  1  0  0  0  0
 16 10  1  0  0  0  0
 17 24  1  1  0  0  0
 18  4  1  6  0  0  0
 18 17  1  0  0  0  0
 19 21  1  0  0  0  0
 19 18  1  0  0  0  0
 20 19  1  0  0  0  0
 21 22  1  0  0  0  0
 22 17  1  0  0  0  0
 22 23  1  0  0  0  0
 24 25  1  0  0  0  0
M  END
>  <minimizedAffinity>
-5.11009836

>  <minimizedRMSD>
0.573620677

$$$$
