
 OpenBabel03242515383D

 36 39  0  0  1  0  0  0  0  0999 V2000
   43.9090   34.6560   40.7610 C   0  0  0  0  0  0  0  0  0  0  0  0
   43.8420   33.8780   39.6130 C   0  0  0  0  0  0  0  0  0  0  0  0
   45.0300   33.2690   39.1940 C   0  0  0  0  0  0  0  0  0  0  0  0
   46.1620   33.4560   39.9000 N   0  0  0  0  0  0  0  0  0  0  0  0
   46.1830   34.2230   41.0130 C   0  0  0  0  0  0  0  0  0  0  0  0
   45.0600   34.7980   41.4100 N   0  0  0  0  0  0  0  0  0  0  0  0
   42.9130   33.7390   39.0530 H   0  0  0  0  0  0  0  0  0  0  0  0
   45.3880   33.1980   36.7470 C   0  0  2  0  0  3  0  0  0  0  0  0
   45.0210   32.4290   37.9790 C   0  0  1  0  0  3  0  0  0  0  0  0
   46.1090   31.3820   38.0100 C   0  0  0  0  0  3  0  0  0  0  0  0
   46.9660   31.7790   38.5910 H   0  0  0  0  0  0  0  0  0  0  0  0
   46.4940   31.1330   36.7240 O   0  0  0  0  0  0  0  0  0  0  0  0
   46.0130   32.1240   35.8900 C   0  0  0  0  0  3  0  0  0  0  0  0
   45.2330   31.7190   35.2170 H   0  0  0  0  0  0  0  0  0  0  0  0
   46.3820   34.1240   37.1190 O   0  0  0  0  0  0  0  0  0  0  0  0
   47.2630   33.6550   37.2270 H   0  0  0  0  0  0  0  0  0  0  0  0
   42.3650   35.4320   41.2830 S   0  0  0  0  0  0  0  0  0  0  0  0
   39.9710   34.8290   40.2050 C   0  0  0  0  0  0  0  0  0  0  0  0
   40.9850   34.3290   41.0040 C   0  0  0  0  0  0  0  0  0  0  0  0
   40.9000   33.0680   41.5280 C   0  0  0  0  0  0  0  0  0  0  0  0
   39.8150   32.2450   41.2890 C   0  0  0  0  0  0  0  0  0  0  0  0
   38.7970   32.7570   40.4820 C   0  0  0  0  0  0  0  0  0  0  0  0
   38.8500   34.0270   39.9360 C   0  0  0  0  0  0  0  0  0  0  0  0
   37.8100   31.7480   40.3830 O   0  0  0  0  0  0  0  0  0  0  0  0
   38.1070   30.7950   41.3520 C   0  0  0  0  0  0  0  0  0  0  0  0
   39.4680   30.9490   41.6800 O   0  0  0  0  0  0  0  0  0  0  0  0
   39.9350   35.8130   39.7400 H   0  0  0  0  0  0  0  0  0  0  0  0
   41.7210   32.7030   42.1570 H   0  0  0  0  0  0  0  0  0  0  0  0
   38.0480   34.3900   39.3200 H   0  0  0  0  0  0  0  0  0  0  0  0
   37.4360   30.8090   42.2280 H   0  0  0  0  0  0  0  0  0  0  0  0
   37.9890   29.7880   40.8940 H   0  0  0  0  0  0  0  0  0  0  0  0
   47.2980   34.4550   41.7790 O   0  0  0  0  0  0  0  0  0  0  0  0
   48.4570   34.9590   41.1570 C   0  0  0  0  0  0  0  0  0  0  0  0
   49.5420   34.1550   41.3550 F   0  0  0  0  0  0  0  0  0  0  0  0
   48.1240   35.1320   39.8160 F   0  0  0  0  0  0  0  0  0  0  0  0
   48.7350   36.1940   41.7460 F   0  0  0  0  0  0  0  0  0  0  0  0
  1 17  1  0  0  0  0
  1  6  1  0  0  0  0
  2  1  2  0  0  0  0
  3  2  1  0  0  0  0
  3  4  2  0  0  0  0
  4  5  1  0  0  0  0
  5  6  2  0  0  0  0
  5 32  1  0  0  0  0
  7  2  1  0  0  0  0
  8 15  1  1  0  0  0
  8  9  1  0  0  0  0
  9 10  1  0  0  0  0
  9  3  1  1  0  0  0
 10 11  1  0  0  0  0
 12 10  1  0  0  0  0
 13 12  1  0  0  0  0
 13  8  1  0  0  0  0
 14 13  1  0  0  0  0
 15 16  1  0  0  0  0
 18 19  1  0  0  0  0
 19 17  1  0  0  0  0
 19 20  2  0  0  0  0
 20 28  1  0  0  0  0
 21 20  1  0  0  0  0
 21 26  1  0  0  0  0
 22 21  2  0  0  0  0
 23 18  2  0  0  0  0
 23 22  1  0  0  0  0
 24 22  1  0  0  0  0
 24 25  1  0  0  0  0
 25 26  1  0  0  0  0
 25 30  1  0  0  0  0
 27 18  1  0  0  0  0
 29 23  1  0  0  0  0
 31 25  1  0  0  0  0
 33 34  1  0  0  0  0
 33 36  1  0  0  0  0
 33 32  1  0  0  0  0
 35 33  1  0  0  0  0
M  END
>  <minimizedAffinity>
-6.37789965

>  <minimizedRMSD>
0.991153777

$$$$
