
 OpenBabel03242520503D

 22 23  0  0  1  0  0  0  0  0999 V2000
   44.8640   34.9570   44.0940 C   0  0  0  0  0  0  0  0  0  0  0  0
   45.7000   35.4790   43.1060 C   0  0  0  0  0  0  0  0  0  0  0  0
   46.9690   34.9440   42.8920 C   0  0  0  0  0  0  0  0  0  0  0  0
   47.3290   33.9070   43.6900 N   0  0  0  0  0  0  0  0  0  0  0  0
   46.5260   33.4060   44.6400 C   0  0  0  0  0  0  0  0  0  0  0  0
   45.2960   33.9370   44.8350 N   0  0  0  0  0  0  0  0  0  0  0  0
   43.8880   35.4050   44.2220 H   0  0  0  0  0  0  0  0  0  0  0  0
   45.4510   36.2940   42.4580 H   0  0  0  0  0  0  0  0  0  0  0  0
   46.1330   31.0750   45.4410 C   0  0  1  0  0  0  0  0  0  0  0  0
   47.0100   32.2800   45.4530 C   0  0  2  0  0  0  0  0  0  0  0  0
   46.9680   32.7260   46.9130 C   0  0  0  0  0  0  0  0  0  0  0  0
   47.7150   32.0940   47.4470 H   0  0  0  0  0  0  0  0  0  0  0  0
   45.6510   32.4070   47.2810 O   0  0  0  0  0  0  0  0  0  0  0  0
   45.5620   31.0640   46.8460 C   0  0  0  0  0  0  0  0  0  0  0  0
   44.4980   30.7450   46.8190 H   0  0  0  0  0  0  0  0  0  0  0  0
   45.1120   31.1190   44.4930 O   0  0  0  0  0  0  0  0  0  0  0  0
   44.2420   31.1560   44.9840 H   0  0  0  0  0  0  0  0  0  0  0  0
   47.8810   35.3620   41.9600 O   0  0  0  0  0  0  0  0  0  0  0  0
   47.9200   34.6300   40.7320 C   0  0  0  0  0  0  0  0  0  0  0  0
   46.6290   34.3830   40.2880 F   0  0  0  0  0  0  0  0  0  0  0  0
   48.5690   35.4120   39.7790 F   0  0  0  0  0  0  0  0  0  0  0  0
   48.6560   33.4450   40.8640 F   0  0  0  0  0  0  0  0  0  0  0  0
  1  7  1  0  0  0  0
  1  6  1  0  0  0  0
  2  1  2  0  0  0  0
  3  2  1  0  0  0  0
  3  4  2  0  0  0  0
  4  5  1  0  0  0  0
  5  6  2  0  0  0  0
  8  2  1  0  0  0  0
  9 16  1  6  0  0  0
  9 10  1  0  0  0  0
  9 14  1  0  0  0  0
 10  5  1  6  0  0  0
 10 11  1  0  0  0  0
 11 13  1  0  0  0  0
 11 12  1  0  0  0  0
 14 13  1  0  0  0  0
 15 14  1  0  0  0  0
 16 17  1  0  0  0  0
 18  3  1  0  0  0  0
 19 22  1  0  0  0  0
 19 18  1  0  0  0  0
 20 19  1  0  0  0  0
 21 19  1  0  0  0  0
M  END
>  <minimizedAffinity>
-4.87377119

>  <minimizedRMSD>
1.38730299

$$$$
