
 OpenBabel03242512073D

 27 29  0  0  1  0  0  0  0  0999 V2000
   44.3400   34.8770   41.3670 C   0  0  1  0  0  0  0  0  0  0  0  0
   44.4510   33.8700   40.1750 C   0  0  0  0  0  0  0  0  0  0  0  0
   43.4850   33.7170   41.2960 C   0  0  2  0  0  0  0  0  0  0  0  0
   44.2640   35.8700   40.8580 H   0  0  0  0  0  0  0  0  0  0  0  0
   45.3770   33.2950   40.1020 H   0  0  0  0  0  0  0  0  0  0  0  0
   43.9870   34.1250   39.2220 H   0  0  0  0  0  0  0  0  0  0  0  0
   43.7540   32.8870   41.9850 H   0  0  0  0  0  0  0  0  0  0  0  0
   41.2970   34.8550   41.8240 C   0  0  1  0  0  0  0  0  0  0  0  0
   41.9950   33.7810   41.0910 C   0  0  1  0  0  0  0  0  0  0  0  0
   41.6040   34.0010   39.6740 C   0  0  0  0  0  0  0  0  0  0  0  0
   40.8360   33.2970   39.2960 H   0  0  0  0  0  0  0  0  0  0  0  0
   41.1770   35.2980   39.5220 O   0  0  0  0  0  0  0  0  0  0  0  0
   41.0240   35.8840   40.7640 C   0  0  0  0  0  0  0  0  0  0  0  0
   39.9580   36.2070   40.8190 H   0  0  0  0  0  0  0  0  0  0  0  0
   40.0560   34.3390   42.2650 O   0  0  0  0  0  0  0  0  0  0  0  0
   39.4200   34.2780   41.5050 H   0  0  0  0  0  0  0  0  0  0  0  0
   45.5550   34.8660   42.2400 C   0  0  0  0  0  0  0  0  0  0  0  0
   46.6190   35.2090   41.7090 O   0  0  0  0  0  0  0  0  0  0  0  0
   46.2800   33.4560   44.0950 C   0  0  0  0  0  0  0  0  0  0  0  0
   45.5430   34.5000   43.6160 C   0  0  0  0  0  0  0  0  0  0  0  0
   44.7620   35.2370   44.5250 C   0  0  0  0  0  0  0  0  0  0  0  0
   44.7630   34.8940   45.8380 N   0  0  0  0  0  0  0  0  0  0  0  0
   45.5110   33.8450   46.2830 C   0  0  0  0  0  0  0  0  0  0  0  0
   46.2430   33.1570   45.4180 N   0  0  0  0  0  0  0  0  0  0  0  0
   46.9060   32.8380   43.4670 H   0  0  0  0  0  0  0  0  0  0  0  0
   44.1890   36.0600   44.1150 H   0  0  0  0  0  0  0  0  0  0  0  0
   45.4670   33.6220   47.3480 H   0  0  0  0  0  0  0  0  0  0  0  0
  1  4  1  6  0  0  0
  1 17  1  0  0  0  0
  2  3  1  0  0  0  0
  2  1  1  0  0  0  0
  3  1  1  0  0  0  0
  3  7  1  1  0  0  0
  5  2  1  0  0  0  0
  6  2  1  0  0  0  0
  8 15  1  6  0  0  0
  9 10  1  6  0  0  0
  9  3  1  0  0  0  0
  9  8  1  0  0  0  0
 11 10  1  0  0  0  0
 12 10  1  0  0  0  0
 12 13  1  0  0  0  0
 13 14  1  0  0  0  0
 13  8  1  0  0  0  0
 16 15  1  0  0  0  0
 17 20  1  0  0  0  0
 18 17  2  0  0  0  0
 19 24  1  0  0  0  0
 20 19  2  0  0  0  0
 20 21  1  0  0  0  0
 21 22  2  0  0  0  0
 22 23  1  0  0  0  0
 23 27  1  0  0  0  0
 24 23  2  0  0  0  0
 25 19  1  0  0  0  0
 26 21  1  0  0  0  0
M  END
>  <minimizedAffinity>
-4.58571815

>  <minimizedRMSD>
6.68676424

$$$$
