
 OpenBabel03242511123D

 44 48  0  0  1  0  0  0  0  0999 V2000
   49.9860   32.4310   41.0900 C   0  0  1  0  0  0  0  0  0  0  0  0
   48.8620   31.9900   40.1960 C   0  0  0  0  0  0  0  0  0  0  0  0
   48.7150   32.1160   41.7410 C   0  0  2  0  0  0  0  0  0  0  0  0
   50.2500   33.4840   41.0410 H   0  0  0  0  0  0  0  0  0  0  0  0
   48.8770   30.9510   39.8410 H   0  0  0  0  0  0  0  0  0  0  0  0
   48.3430   32.7620   39.5810 H   0  0  0  0  0  0  0  0  0  0  0  0
   48.6540   31.1850   42.3090 H   0  0  0  0  0  0  0  0  0  0  0  0
   53.0660   30.4950   40.3820 C   0  0  0  0  0  0  0  0  0  0  0  0
   53.2790   29.8180   41.6360 C   0  0  0  0  0  0  0  0  0  0  0  0
   52.3480   30.0590   42.6930 C   0  0  0  0  0  0  0  0  0  0  0  0
   51.3350   30.8880   42.4790 N   0  0  0  0  0  0  0  0  0  0  0  0
   51.1680   31.5080   41.2760 C   0  0  0  0  0  0  0  0  0  0  0  0
   52.0270   31.3260   40.2070 N   0  0  0  0  0  0  0  0  0  0  0  0
   53.8000   30.2820   39.6060 H   0  0  0  0  0  0  0  0  0  0  0  0
   54.1010   29.1610   41.7730 H   0  0  0  0  0  0  0  0  0  0  0  0
   53.8220   29.6160   44.6710 C   0  0  2  0  0  0  0  0  0  0  0  0
   52.5120   29.3990   43.9900 C   0  0  2  0  0  0  0  0  0  0  0  0
   52.4170   27.8920   43.9480 C   0  0  0  0  0  0  0  0  0  0  0  0
   51.3520   27.5890   43.8380 H   0  0  0  0  0  0  0  0  0  0  0  0
   52.8470   27.5580   45.2290 O   0  0  0  0  0  0  0  0  0  0  0  0
   53.9260   28.3770   45.5270 C   0  0  0  0  0  0  0  0  0  0  0  0
   54.8940   27.8910   45.4220 H   0  0  0  0  0  0  0  0  0  0  0  0
   53.7190   30.7620   45.4870 O   0  0  0  0  0  0  0  0  0  0  0  0
   53.0100   30.6090   46.1650 H   0  0  0  0  0  0  0  0  0  0  0  0
   47.9030   33.1950   42.2140 N   0  0  0  0  0  0  0  0  0  0  0  0
   47.9880   33.9300   41.4850 H   0  0  0  0  0  0  0  0  0  0  0  0
   47.2210   33.1360   43.4380 C   0  0  0  0  0  0  0  0  0  0  0  0
   47.5110   32.1200   44.3220 C   0  0  0  0  0  0  0  0  0  0  0  0
   46.9400   32.0290   45.5800 C   0  0  0  0  0  0  0  0  0  0  0  0
   46.0400   32.9700   46.0070 C   0  0  0  0  0  0  0  0  0  0  0  0
   45.7250   34.0020   45.1420 C   0  0  0  0  0  0  0  0  0  0  0  0
   44.8190   34.9550   45.5560 C   0  0  0  0  0  0  0  0  0  0  0  0
   44.4540   36.0020   44.7540 C   0  0  0  0  0  0  0  0  0  0  0  0
   45.0400   36.0580   43.5000 C   0  0  0  0  0  0  0  0  0  0  0  0
   45.9450   35.0970   43.1020 C   0  0  0  0  0  0  0  0  0  0  0  0
   46.3100   34.0580   43.9010 C   0  0  0  0  0  0  0  0  0  0  0  0
   48.2260   31.3510   44.0130 H   0  0  0  0  0  0  0  0  0  0  0  0
   47.2320   31.1970   46.1980 H   0  0  0  0  0  0  0  0  0  0  0  0
   45.6120   32.8720   46.9960 H   0  0  0  0  0  0  0  0  0  0  0  0
   44.3930   34.8560   46.5500 H   0  0  0  0  0  0  0  0  0  0  0  0
   43.7470   36.7600   45.0580 H   0  0  0  0  0  0  0  0  0  0  0  0
   44.7520   36.8860   42.8610 H   0  0  0  0  0  0  0  0  0  0  0  0
   46.4950   35.1920   41.8470 O   0  0  0  0  0  0  0  0  0  0  0  0
   46.0090   35.1070   40.9690 H   0  0  0  0  0  0  0  0  0  0  0  0
  1  4  1  6  0  0  0
  1 12  1  0  0  0  0
  1  3  1  0  0  0  0
  2  1  1  0  0  0  0
  2  3  1  0  0  0  0
  3 25  1  0  0  0  0
  3  7  1  1  0  0  0
  5  2  1  0  0  0  0
  6  2  1  0  0  0  0
  8  9  1  0  0  0  0
  9 15  1  0  0  0  0
  9 10  2  0  0  0  0
 11 10  1  0  0  0  0
 12 11  2  0  0  0  0
 13  8  2  0  0  0  0
 13 12  1  0  0  0  0
 14  8  1  0  0  0  0
 16 23  1  1  0  0  0
 16 21  1  0  0  0  0
 17 10  1  6  0  0  0
 17 16  1  0  0  0  0
 18 17  1  0  0  0  0
 18 20  1  0  0  0  0
 19 18  1  0  0  0  0
 20 21  1  0  0  0  0
 22 21  1  0  0  0  0
 23 24  1  0  0  0  0
 25 27  1  0  0  0  0
 26 25  1  0  0  0  0
 27 36  2  0  0  0  0
 27 28  1  0  0  0  0
 28 29  2  0  0  0  0
 29 30  1  0  0  0  0
 29 38  1  0  0  0  0
 30 39  1  0  0  0  0
 31 32  1  0  0  0  0
 31 30  2  0  0  0  0
 32 40  1  0  0  0  0
 33 41  1  0  0  0  0
 33 32  2  0  0  0  0
 34 33  1  0  0  0  0
 35 34  2  0  0  0  0
 35 36  1  0  0  0  0
 36 31  1  0  0  0  0
 37 28  1  0  0  0  0
 42 34  1  0  0  0  0
 43 35  1  0  0  0  0
 44 43  1  0  0  0  0
M  END
>  <minimizedAffinity>
-5.45037651

>  <minimizedRMSD>
1.56820214

$$$$
