
 OpenBabel03252505163D

 25 27  0  0  1  0  0  0  0  0999 V2000
   37.6700   28.4550   43.6290 C   0  0  0  0  0  0  0  0  0  0  0  0
   37.3850   27.1550   43.1770 C   0  0  0  0  0  0  0  0  0  0  0  0
   37.2830   27.0260   41.7880 C   0  0  0  0  0  0  0  0  0  0  0  0
   37.4590   28.1230   40.9780 N   0  0  0  0  0  0  0  0  0  0  0  0
   37.7340   29.3520   41.4810 C   0  0  0  0  0  0  0  0  0  0  0  0
   37.8370   29.5050   42.8110 N   0  0  0  0  0  0  0  0  0  0  0  0
   37.7650   28.6330   44.7040 H   0  0  0  0  0  0  0  0  0  0  0  0
   37.2540   26.3250   43.8310 H   0  0  0  0  0  0  0  0  0  0  0  0
   37.0020   25.6840   41.1730 C   0  0  0  0  0  0  0  0  0  0  0  0
   38.1980   24.7590   41.2310 C   0  0  0  0  0  0  0  0  0  0  0  0
   36.8980   24.5340   42.0590 C   0  0  0  0  0  0  0  0  0  0  0  0
   36.4550   25.7330   40.2120 H   0  0  0  0  0  0  0  0  0  0  0  0
   38.3050   24.0930   40.3510 H   0  0  0  0  0  0  0  0  0  0  0  0
   39.1010   25.0670   41.7610 H   0  0  0  0  0  0  0  0  0  0  0  0
   37.0780   24.7070   43.1600 H   0  0  0  0  0  0  0  0  0  0  0  0
   36.3270   23.6200   41.8100 H   0  0  0  0  0  0  0  0  0  0  0  0
   36.5550   31.0550   40.1540 C   0  0  2  0  0  3  0  0  0  0  0  0
   37.8790   30.3630   40.4030 C   0  0  1  0  0  3  0  0  0  0  0  0
   38.7370   31.5300   40.8740 C   0  0  0  0  0  3  0  0  0  0  0  0
   39.6460   31.6000   40.2570 H   0  0  0  0  0  0  0  0  0  0  0  0
   37.9790   32.6770   40.7510 O   0  0  0  0  0  0  0  0  0  0  0  0
   37.0360   32.4600   39.7760 C   0  0  0  0  0  3  0  0  0  0  0  0
   37.5590   32.4110   38.8090 H   0  0  0  0  0  0  0  0  0  0  0  0
   35.7570   31.0730   41.2690 O   0  0  0  0  0  0  0  0  0  0  0  0
   35.1810   31.8960   41.3180 H   0  0  0  0  0  0  0  0  0  0  0  0
  1  7  1  0  0  0  0
  2  1  1  0  0  0  0
  2  8  1  0  0  0  0
  3  2  2  0  0  0  0
  4  5  2  0  0  0  0
  4  3  1  0  0  0  0
  5  6  1  0  0  0  0
  6  1  2  0  0  0  0
  9 10  1  0  0  0  0
  9  3  1  0  0  0  0
  9 11  1  0  0  0  0
 10 14  1  0  0  0  0
 10 11  1  0  0  0  0
 11 15  1  0  0  0  0
 12  9  1  0  0  0  0
 13 10  1  0  0  0  0
 16 11  1  0  0  0  0
 17 18  1  0  0  0  0
 17 24  1  1  0  0  0
 18 19  1  0  0  0  0
 18  5  1  1  0  0  0
 20 19  1  0  0  0  0
 21 19  1  0  0  0  0
 22 17  1  0  0  0  0
 22 21  1  0  0  0  0
 23 22  1  0  0  0  0
 24 25  1  0  0  0  0
M  END
>  <minimizedAffinity>
-5.0970068

$$$$

 OpenBabel03252505163D

 25 27  0  0  1  0  0  0  0  0999 V2000
   35.6940   29.1300   39.9070 C   0  0  0  0  0  0  0  0  0  0  0  0
   35.9280   28.6160   41.1930 C   0  0  0  0  0  0  0  0  0  0  0  0
   37.0490   29.1440   41.8410 C   0  0  0  0  0  0  0  0  0  0  0  0
   37.8240   30.0910   41.2160 N   0  0  0  0  0  0  0  0  0  0  0  0
   37.5410   30.5460   39.9700 C   0  0  0  0  0  0  0  0  0  0  0  0
   36.4710   30.0560   39.3250 N   0  0  0  0  0  0  0  0  0  0  0  0
   34.8350   28.7640   39.3380 H   0  0  0  0  0  0  0  0  0  0  0  0
   35.3080   27.8810   41.6510 H   0  0  0  0  0  0  0  0  0  0  0  0
   37.4000   28.6940   43.2320 C   0  0  0  0  0  0  0  0  0  0  0  0
   36.6290   27.4610   43.6520 C   0  0  0  0  0  0  0  0  0  0  0  0
   38.1630   27.4630   43.3790 C   0  0  0  0  0  0  0  0  0  0  0  0
   37.4670   29.5160   43.9700 H   0  0  0  0  0  0  0  0  0  0  0  0
   36.3520   27.4400   44.7260 H   0  0  0  0  0  0  0  0  0  0  0  0
   35.9780   26.9540   42.9380 H   0  0  0  0  0  0  0  0  0  0  0  0
   38.4130   26.8900   42.4400 H   0  0  0  0  0  0  0  0  0  0  0  0
   38.8030   27.2420   44.2550 H   0  0  0  0  0  0  0  0  0  0  0  0
   37.8890   32.9380   39.5150 C   0  0  2  0  0  3  0  0  0  0  0  0
   38.5260   31.5630   39.5230 C   0  0  1  0  0  3  0  0  0  0  0  0
   39.6170   31.7500   40.5700 C   0  0  0  0  0  3  0  0  0  0  0  0
   40.5950   31.4710   40.1460 H   0  0  0  0  0  0  0  0  0  0  0  0
   39.6110   33.0790   40.9400 O   0  0  0  0  0  0  0  0  0  0  0  0
   39.0910   33.8080   39.8990 C   0  0  0  0  0  3  0  0  0  0  0  0
   39.8230   33.7900   39.0780 H   0  0  0  0  0  0  0  0  0  0  0  0
   36.8710   33.0470   40.4260 O   0  0  0  0  0  0  0  0  0  0  0  0
   36.7930   33.9740   40.8100 H   0  0  0  0  0  0  0  0  0  0  0  0
  1  2  1  0  0  0  0
  2  8  1  0  0  0  0
  2  3  2  0  0  0  0
  3  9  1  0  0  0  0
  4  3  1  0  0  0  0
  5  4  2  0  0  0  0
  6  1  2  0  0  0  0
  6  5  1  0  0  0  0
  7  1  1  0  0  0  0
  9 11  1  0  0  0  0
  9 10  1  0  0  0  0
  9 12  1  0  0  0  0
 10 13  1  0  0  0  0
 11 10  1  0  0  0  0
 11 16  1  0  0  0  0
 14 10  1  0  0  0  0
 15 11  1  0  0  0  0
 17 18  1  0  0  0  0
 17 22  1  0  0  0  0
 17 24  1  1  0  0  0
 18  5  1  1  0  0  0
 18 19  1  0  0  0  0
 19 21  1  0  0  0  0
 20 19  1  0  0  0  0
 22 21  1  0  0  0  0
 23 22  1  0  0  0  0
 24 25  1  0  0  0  0
M  END
>  <minimizedAffinity>
-4.89122105

$$$$

 OpenBabel03252505163D

 25 27  0  0  1  0  0  0  0  0999 V2000
   36.1810   28.2990   39.0850 C   0  0  0  0  0  0  0  0  0  0  0  0
   36.4090   27.6020   40.2840 C   0  0  0  0  0  0  0  0  0  0  0  0
   37.3050   28.2200   41.1610 C   0  0  0  0  0  0  0  0  0  0  0  0
   37.8870   29.4190   40.8220 N   0  0  0  0  0  0  0  0  0  0  0  0
   37.6220   30.0400   39.6460 C   0  0  0  0  0  0  0  0  0  0  0  0
   36.7660   29.4690   38.7850 N   0  0  0  0  0  0  0  0  0  0  0  0
   35.4920   27.8760   38.3490 H   0  0  0  0  0  0  0  0  0  0  0  0
   35.9430   26.6730   40.5180 H   0  0  0  0  0  0  0  0  0  0  0  0
   37.6210   27.5890   42.4890 C   0  0  0  0  0  0  0  0  0  0  0  0
   37.6050   28.5910   43.6230 C   0  0  0  0  0  0  0  0  0  0  0  0
   36.5430   27.4630   43.4580 C   0  0  0  0  0  0  0  0  0  0  0  0
   38.4700   26.8800   42.4620 H   0  0  0  0  0  0  0  0  0  0  0  0
   38.3610   28.4000   44.4120 H   0  0  0  0  0  0  0  0  0  0  0  0
   37.2960   29.6210   43.4380 H   0  0  0  0  0  0  0  0  0  0  0  0
   35.5360   27.8860   43.1760 H   0  0  0  0  0  0  0  0  0  0  0  0
   36.5290   26.7010   44.2610 H   0  0  0  0  0  0  0  0  0  0  0  0
   37.4580   32.4890   39.8030 C   0  0  2  0  0  3  0  0  0  0  0  0
   38.3730   31.3150   39.5210 C   0  0  1  0  0  3  0  0  0  0  0  0
   39.3870   31.4540   40.6500 C   0  0  0  0  0  3  0  0  0  0  0  0
   40.4060   31.4940   40.2350 H   0  0  0  0  0  0  0  0  0  0  0  0
   39.0940   32.6190   41.3280 O   0  0  0  0  0  0  0  0  0  0  0  0
   38.4430   33.4630   40.4620 C   0  0  0  0  0  3  0  0  0  0  0  0
   39.1710   33.7980   39.7090 H   0  0  0  0  0  0  0  0  0  0  0  0
   36.4290   32.1590   40.6470 O   0  0  0  0  0  0  0  0  0  0  0  0
   36.1510   32.9250   41.2360 H   0  0  0  0  0  0  0  0  0  0  0  0
  1  2  1  0  0  0  0
  2  8  1  0  0  0  0
  2  3  2  0  0  0  0
  3  9  1  0  0  0  0
  4  3  1  0  0  0  0
  5  4  2  0  0  0  0
  6  1  2  0  0  0  0
  6  5  1  0  0  0  0
  7  1  1  0  0  0  0
  9 11  1  0  0  0  0
  9 10  1  0  0  0  0
 10 13  1  0  0  0  0
 11 10  1  0  0  0  0
 11 16  1  0  0  0  0
 12  9  1  0  0  0  0
 14 10  1  0  0  0  0
 15 11  1  0  0  0  0
 17 22  1  0  0  0  0
 17 24  1  1  0  0  0
 18  5  1  1  0  0  0
 18 17  1  0  0  0  0
 18 19  1  0  0  0  0
 19 21  1  0  0  0  0
 20 19  1  0  0  0  0
 22 21  1  0  0  0  0
 23 22  1  0  0  0  0
 24 25  1  0  0  0  0
M  END
>  <minimizedAffinity>
-4.6162591

$$$$

 OpenBabel03252505163D

 25 27  0  0  1  0  0  0  0  0999 V2000
   35.4410   28.8990   40.7000 C   0  0  0  0  0  0  0  0  0  0  0  0
   35.7150   30.1730   40.1740 C   0  0  0  0  0  0  0  0  0  0  0  0
   36.8320   30.8080   40.7270 C   0  0  0  0  0  0  0  0  0  0  0  0
   37.5660   30.1840   41.7070 N   0  0  0  0  0  0  0  0  0  0  0  0
   37.2460   28.9500   42.1700 C   0  0  0  0  0  0  0  0  0  0  0  0
   36.1800   28.3170   41.6570 N   0  0  0  0  0  0  0  0  0  0  0  0
   34.5830   28.3410   40.3160 H   0  0  0  0  0  0  0  0  0  0  0  0
   35.1260   30.6310   39.4140 H   0  0  0  0  0  0  0  0  0  0  0  0
   37.2470   32.1680   40.2390 C   0  0  0  0  0  0  0  0  0  0  0  0
   38.5790   32.1420   39.5190 C   0  0  0  0  0  0  0  0  0  0  0  0
   37.2220   32.4150   38.8040 C   0  0  0  0  0  0  0  0  0  0  0  0
   37.0940   32.9790   40.9750 H   0  0  0  0  0  0  0  0  0  0  0  0
   39.2040   33.0430   39.6820 H   0  0  0  0  0  0  0  0  0  0  0  0
   39.0790   31.1900   39.3300 H   0  0  0  0  0  0  0  0  0  0  0  0
   36.9310   31.5570   38.1330 H   0  0  0  0  0  0  0  0  0  0  0  0
   37.1120   33.4230   38.3600 H   0  0  0  0  0  0  0  0  0  0  0  0
   38.5070   27.0270   43.0450 C   0  0  2  0  0  3  0  0  0  0  0  0
   38.1930   28.4990   43.2220 C   0  0  1  0  0  3  0  0  0  0  0  0
   39.5670   29.1210   43.0090 C   0  0  0  0  0  3  0  0  0  0  0  0
   39.8290   29.7540   43.8710 H   0  0  0  0  0  0  0  0  0  0  0  0
   40.4720   28.0880   42.8740 O   0  0  0  0  0  0  0  0  0  0  0  0
   39.9630   26.9900   43.5230 C   0  0  0  0  0  3  0  0  0  0  0  0
   39.9910   27.1950   44.6030 H   0  0  0  0  0  0  0  0  0  0  0  0
   38.3900   26.6210   41.7410 O   0  0  0  0  0  0  0  0  0  0  0  0
   39.0390   25.8900   41.5030 H   0  0  0  0  0  0  0  0  0  0  0  0
  1  6  1  0  0  0  0
  2  1  2  0  0  0  0
  2  3  1  0  0  0  0
  3  4  2  0  0  0  0
  4  5  1  0  0  0  0
  6  5  2  0  0  0  0
  7  1  1  0  0  0  0
  8  2  1  0  0  0  0
  9  3  1  0  0  0  0
  9 12  1  0  0  0  0
 10 13  1  0  0  0  0
 10  9  1  0  0  0  0
 11 10  1  0  0  0  0
 11  9  1  0  0  0  0
 14 10  1  0  0  0  0
 15 11  1  0  0  0  0
 16 11  1  0  0  0  0
 17 24  1  6  0  0  0
 17 18  1  0  0  0  0
 17 22  1  0  0  0  0
 18  5  1  6  0  0  0
 19 18  1  0  0  0  0
 19 20  1  0  0  0  0
 21 19  1  0  0  0  0
 21 22  1  0  0  0  0
 22 23  1  0  0  0  0
 25 24  1  0  0  0  0
M  END
>  <minimizedAffinity>
-4.43718338

$$$$

 OpenBabel03252505163D

 25 27  0  0  1  0  0  0  0  0999 V2000
   36.3110   27.8040   41.8960 C   0  0  0  0  0  0  0  0  0  0  0  0
   37.3620   27.3500   42.7110 C   0  0  0  0  0  0  0  0  0  0  0  0
   38.5600   28.0580   42.5730 C   0  0  0  0  0  0  0  0  0  0  0  0
   38.6430   29.1090   41.6910 N   0  0  0  0  0  0  0  0  0  0  0  0
   37.5870   29.4980   40.9330 C   0  0  0  0  0  0  0  0  0  0  0  0
   36.4250   28.8360   41.0450 N   0  0  0  0  0  0  0  0  0  0  0  0
   35.3430   27.2990   41.9490 H   0  0  0  0  0  0  0  0  0  0  0  0
   37.2670   26.5300   43.3840 H   0  0  0  0  0  0  0  0  0  0  0  0
   39.7570   27.6860   43.4020 C   0  0  0  0  0  0  0  0  0  0  0  0
   40.6980   26.7510   42.6730 C   0  0  0  0  0  0  0  0  0  0  0  0
   41.0510   28.2300   43.0150 C   0  0  0  0  0  0  0  0  0  0  0  0
   39.5190   27.4340   44.4530 H   0  0  0  0  0  0  0  0  0  0  0  0
   41.1890   25.9980   43.3230 H   0  0  0  0  0  0  0  0  0  0  0  0
   40.5120   26.4940   41.6290 H   0  0  0  0  0  0  0  0  0  0  0  0
   41.0910   28.8680   42.0860 H   0  0  0  0  0  0  0  0  0  0  0  0
   41.8920   28.3670   43.7220 H   0  0  0  0  0  0  0  0  0  0  0  0
   36.7770   31.6310   40.0160 C   0  0  2  0  0  3  0  0  0  0  0  0
   37.9330   30.6540   40.0670 C   0  0  1  0  0  3  0  0  0  0  0  0
   39.0120   31.5080   40.7200 C   0  0  0  0  0  3  0  0  0  0  0  0
   39.9150   31.5170   40.0880 H   0  0  0  0  0  0  0  0  0  0  0  0
   38.5040   32.7840   40.8560 O   0  0  0  0  0  0  0  0  0  0  0  0
   37.5340   32.9590   39.8990 C   0  0  0  0  0  3  0  0  0  0  0  0
   38.0330   33.0010   38.9200 H   0  0  0  0  0  0  0  0  0  0  0  0
   36.0030   31.5850   41.1470 O   0  0  0  0  0  0  0  0  0  0  0  0
   35.6070   32.4800   41.3810 H   0  0  0  0  0  0  0  0  0  0  0  0
  1  7  1  0  0  0  0
  1  2  1  0  0  0  0
  2  8  1  0  0  0  0
  3  2  2  0  0  0  0
  3  9  1  0  0  0  0
  4  3  1  0  0  0  0
  5  6  1  0  0  0  0
  5  4  2  0  0  0  0
  6  1  2  0  0  0  0
  9 12  1  0  0  0  0
 10 11  1  0  0  0  0
 10 13  1  0  0  0  0
 10  9  1  0  0  0  0
 11  9  1  0  0  0  0
 11 16  1  0  0  0  0
 14 10  1  0  0  0  0
 15 11  1  0  0  0  0
 17 18  1  0  0  0  0
 17 24  1  1  0  0  0
 18 19  1  0  0  0  0
 18  5  1  1  0  0  0
 19 21  1  0  0  0  0
 20 19  1  0  0  0  0
 22 17  1  0  0  0  0
 22 21  1  0  0  0  0
 23 22  1  0  0  0  0
 24 25  1  0  0  0  0
M  END
>  <minimizedAffinity>
-4.39303923

$$$$

 OpenBabel03252505163D

 25 27  0  0  1  0  0  0  0  0999 V2000
   39.8490   25.8650   43.6780 C   0  0  0  0  0  0  0  0  0  0  0  0
   39.4040   24.7300   42.9790 C   0  0  0  0  0  0  0  0  0  0  0  0
   38.2120   24.9070   42.2700 C   0  0  0  0  0  0  0  0  0  0  0  0
   37.5700   26.1220   42.2930 N   0  0  0  0  0  0  0  0  0  0  0  0
   38.0550   27.1800   42.9890 C   0  0  0  0  0  0  0  0  0  0  0  0
   39.1970   27.0380   43.6790 N   0  0  0  0  0  0  0  0  0  0  0  0
   40.7750   25.8020   44.2560 H   0  0  0  0  0  0  0  0  0  0  0  0
   39.9250   23.8010   42.9820 H   0  0  0  0  0  0  0  0  0  0  0  0
   37.6380   23.7770   41.4630 C   0  0  0  0  0  0  0  0  0  0  0  0
   36.5890   24.2450   40.4760 C   0  0  0  0  0  0  0  0  0  0  0  0
   37.9860   23.7000   40.0510 C   0  0  0  0  0  0  0  0  0  0  0  0
   37.3970   22.8740   42.0560 H   0  0  0  0  0  0  0  0  0  0  0  0
   35.7520   23.5340   40.3270 H   0  0  0  0  0  0  0  0  0  0  0  0
   36.3930   25.3120   40.3540 H   0  0  0  0  0  0  0  0  0  0  0  0
   38.6360   24.5200   39.6300 H   0  0  0  0  0  0  0  0  0  0  0  0
   37.9720   22.7590   39.4690 H   0  0  0  0  0  0  0  0  0  0  0  0
   37.9690   29.5360   42.2870 C   0  0  2  0  0  3  0  0  0  0  0  0
   37.1800   28.3720   42.8510 C   0  0  1  0  0  3  0  0  0  0  0  0
   36.1480   28.1560   41.7510 C   0  0  0  0  0  3  0  0  0  0  0  0
   35.1330   28.1890   42.1780 H   0  0  0  0  0  0  0  0  0  0  0  0
   36.3170   29.1620   40.8230 O   0  0  0  0  0  0  0  0  0  0  0  0
   36.8860   30.2380   41.4600 C   0  0  0  0  0  3  0  0  0  0  0  0
   36.1340   30.6610   42.1410 H   0  0  0  0  0  0  0  0  0  0  0  0
   39.0190   29.1260   41.5070 O   0  0  0  0  0  0  0  0  0  0  0  0
   39.2140   29.7640   40.7540 H   0  0  0  0  0  0  0  0  0  0  0  0
  1  6  1  0  0  0  0
  1  7  1  0  0  0  0
  2  8  1  0  0  0  0
  2  1  2  0  0  0  0
  3  4  2  0  0  0  0
  3  2  1  0  0  0  0
  4  5  1  0  0  0  0
  5  6  2  0  0  0  0
  9 12  1  0  0  0  0
  9  3  1  0  0  0  0
 10  9  1  0  0  0  0
 11 10  1  0  0  0  0
 11  9  1  0  0  0  0
 13 10  1  0  0  0  0
 14 10  1  0  0  0  0
 15 11  1  0  0  0  0
 16 11  1  0  0  0  0
 17 24  1  6  0  0  0
 17 18  1  0  0  0  0
 18  5  1  6  0  0  0
 19 20  1  0  0  0  0
 19 18  1  0  0  0  0
 21 22  1  0  0  0  0
 21 19  1  0  0  0  0
 22 23  1  0  0  0  0
 22 17  1  0  0  0  0
 25 24  1  0  0  0  0
M  END
>  <minimizedAffinity>
-4.31889629

$$$$

 OpenBabel03252505163D

 25 27  0  0  1  0  0  0  0  0999 V2000
   39.5990   32.0270   41.5060 C   0  0  0  0  0  0  0  0  0  0  0  0
   38.7850   32.3750   40.4150 C   0  0  0  0  0  0  0  0  0  0  0  0
   37.9990   31.3330   39.9140 C   0  0  0  0  0  0  0  0  0  0  0  0
   38.0600   30.0850   40.4870 N   0  0  0  0  0  0  0  0  0  0  0  0
   38.8700   29.8160   41.5420 C   0  0  0  0  0  0  0  0  0  0  0  0
   39.6350   30.7980   42.0430 N   0  0  0  0  0  0  0  0  0  0  0  0
   40.2430   32.7910   41.9520 H   0  0  0  0  0  0  0  0  0  0  0  0
   38.7600   33.3520   39.9920 H   0  0  0  0  0  0  0  0  0  0  0  0
   37.0670   31.5770   38.7600 C   0  0  0  0  0  0  0  0  0  0  0  0
   37.7480   31.4000   37.4200 C   0  0  0  0  0  0  0  0  0  0  0  0
   36.6550   30.4310   37.9610 C   0  0  0  0  0  0  0  0  0  0  0  0
   36.4240   32.4690   38.8790 H   0  0  0  0  0  0  0  0  0  0  0  0
   37.3970   32.0980   36.6330 H   0  0  0  0  0  0  0  0  0  0  0  0
   38.7780   31.0420   37.3740 H   0  0  0  0  0  0  0  0  0  0  0  0
   37.0930   29.4260   38.2270 H   0  0  0  0  0  0  0  0  0  0  0  0
   35.7150   30.4000   37.3780 H   0  0  0  0  0  0  0  0  0  0  0  0
   37.9410   28.3110   43.2510 C   0  0  2  0  0  3  0  0  0  0  0  0
   38.7510   28.4000   41.9740 C   0  0  1  0  0  3  0  0  0  0  0  0
   37.8690   27.6170   41.0100 C   0  0  0  0  0  3  0  0  0  0  0  0
   38.4530   26.8110   40.5390 H   0  0  0  0  0  0  0  0  0  0  0  0
   36.8220   27.0940   41.7410 O   0  0  0  0  0  0  0  0  0  0  0  0
   37.2350   26.9660   43.0440 C   0  0  0  0  0  3  0  0  0  0  0  0
   37.9820   26.1600   43.0820 H   0  0  0  0  0  0  0  0  0  0  0  0
   37.0460   29.3420   43.3750 O   0  0  0  0  0  0  0  0  0  0  0  0
   36.2060   29.0690   43.8580 H   0  0  0  0  0  0  0  0  0  0  0  0
  1  7  1  0  0  0  0
  1  6  1  0  0  0  0
  2  1  2  0  0  0  0
  3  2  1  0  0  0  0
  3  4  2  0  0  0  0
  4  5  1  0  0  0  0
  5  6  2  0  0  0  0
  8  2  1  0  0  0  0
  9 12  1  0  0  0  0
  9  3  1  0  0  0  0
 10 11  1  0  0  0  0
 10  9  1  0  0  0  0
 11 15  1  0  0  0  0
 11  9  1  0  0  0  0
 13 10  1  0  0  0  0
 14 10  1  0  0  0  0
 16 11  1  0  0  0  0
 17 24  1  6  0  0  0
 18  5  1  6  0  0  0
 18 17  1  0  0  0  0
 19 21  1  0  0  0  0
 19 18  1  0  0  0  0
 20 19  1  0  0  0  0
 21 22  1  0  0  0  0
 22 23  1  0  0  0  0
 22 17  1  0  0  0  0
 24 25  1  0  0  0  0
M  END
>  <minimizedAffinity>
-4.31216145

$$$$

 OpenBabel03252505163D

 25 27  0  0  1  0  0  0  0  0999 V2000
   36.7800   28.1110   38.9080 C   0  0  0  0  0  0  0  0  0  0  0  0
   36.8200   27.2050   39.9810 C   0  0  0  0  0  0  0  0  0  0  0  0
   36.9980   27.7920   41.2380 C   0  0  0  0  0  0  0  0  0  0  0  0
   37.1180   29.1560   41.3520 N   0  0  0  0  0  0  0  0  0  0  0  0
   37.0700   29.9760   40.2720 C   0  0  0  0  0  0  0  0  0  0  0  0
   36.9000   29.4390   39.0530 N   0  0  0  0  0  0  0  0  0  0  0  0
   36.6430   27.7250   37.8940 H   0  0  0  0  0  0  0  0  0  0  0  0
   36.7250   26.1510   39.8600 H   0  0  0  0  0  0  0  0  0  0  0  0
   37.0380   26.9360   42.4730 C   0  0  0  0  0  0  0  0  0  0  0  0
   37.9560   27.4990   43.5370 C   0  0  0  0  0  0  0  0  0  0  0  0
   36.4060   27.4480   43.6800 C   0  0  0  0  0  0  0  0  0  0  0  0
   37.1180   25.8510   42.2690 H   0  0  0  0  0  0  0  0  0  0  0  0
   38.4990   26.7310   44.1250 H   0  0  0  0  0  0  0  0  0  0  0  0
   38.4290   28.4720   43.3910 H   0  0  0  0  0  0  0  0  0  0  0  0
   35.9550   28.4810   43.6330 H   0  0  0  0  0  0  0  0  0  0  0  0
   36.0230   26.8000   44.4910 H   0  0  0  0  0  0  0  0  0  0  0  0
   38.6550   31.6810   41.0630 C   0  0  2  0  0  3  0  0  0  0  0  0
   37.2220   31.4010   40.6600 C   0  0  1  0  0  3  0  0  0  0  0  0
   37.0750   32.3070   39.4450 C   0  0  0  0  0  3  0  0  0  0  0  0
   36.2080   32.9730   39.5770 H   0  0  0  0  0  0  0  0  0  0  0  0
   38.2370   33.0420   39.3340 O   0  0  0  0  0  0  0  0  0  0  0  0
   38.8060   33.1290   40.5810 C   0  0  0  0  0  3  0  0  0  0  0  0
   38.1670   33.7800   41.1960 H   0  0  0  0  0  0  0  0  0  0  0  0
   39.5460   30.8440   40.4440 O   0  0  0  0  0  0  0  0  0  0  0  0
   40.4320   31.2860   40.2640 H   0  0  0  0  0  0  0  0  0  0  0  0
  1  6  2  0  0  0  0
  1  2  1  0  0  0  0
  2  3  2  0  0  0  0
  3  4  1  0  0  0  0
  3  9  1  0  0  0  0
  5  4  2  0  0  0  0
  6  5  1  0  0  0  0
  7  1  1  0  0  0  0
  8  2  1  0  0  0  0
  9 10  1  0  0  0  0
  9 11  1  0  0  0  0
 10 11  1  0  0  0  0
 10 13  1  0  0  0  0
 11 16  1  0  0  0  0
 12  9  1  0  0  0  0
 14 10  1  0  0  0  0
 15 11  1  0  0  0  0
 17 24  1  6  0  0  0
 18  5  1  6  0  0  0
 18 17  1  0  0  0  0
 19 20  1  0  0  0  0
 19 18  1  0  0  0  0
 21 19  1  0  0  0  0
 21 22  1  0  0  0  0
 22 17  1  0  0  0  0
 22 23  1  0  0  0  0
 25 24  1  0  0  0  0
M  END
>  <minimizedAffinity>
-4.28742456

$$$$

 OpenBabel03252505163D

 25 27  0  0  1  0  0  0  0  0999 V2000
   36.5850   29.9020   38.6460 C   0  0  0  0  0  0  0  0  0  0  0  0
   36.9190   31.2660   38.6040 C   0  0  0  0  0  0  0  0  0  0  0  0
   37.8130   31.6820   39.5950 C   0  0  0  0  0  0  0  0  0  0  0  0
   38.2950   30.7790   40.5130 N   0  0  0  0  0  0  0  0  0  0  0  0
   37.9310   29.4730   40.4970 C   0  0  0  0  0  0  0  0  0  0  0  0
   37.0740   29.0460   39.5560 N   0  0  0  0  0  0  0  0  0  0  0  0
   35.8910   29.5030   37.9020 H   0  0  0  0  0  0  0  0  0  0  0  0
   36.5280   31.9410   37.8790 H   0  0  0  0  0  0  0  0  0  0  0  0
   38.2690   33.1130   39.6500 C   0  0  0  0  0  0  0  0  0  0  0  0
   38.9440   33.4560   40.9610 C   0  0  0  0  0  0  0  0  0  0  0  0
   39.6990   33.3770   39.6000 C   0  0  0  0  0  0  0  0  0  0  0  0
   37.5260   33.8390   39.2670 H   0  0  0  0  0  0  0  0  0  0  0  0
   38.7480   34.4860   41.3200 H   0  0  0  0  0  0  0  0  0  0  0  0
   39.1300   32.6740   41.6990 H   0  0  0  0  0  0  0  0  0  0  0  0
   40.3920   32.4870   39.5660 H   0  0  0  0  0  0  0  0  0  0  0  0
   40.1330   34.3300   39.2410 H   0  0  0  0  0  0  0  0  0  0  0  0
   38.0020   29.1040   42.9280 C   0  0  2  0  0  3  0  0  0  0  0  0
   38.5890   28.7090   41.5880 C   0  0  1  0  0  3  0  0  0  0  0  0
   38.2050   27.2370   41.5200 C   0  0  0  0  0  3  0  0  0  0  0  0
   39.1030   26.6230   41.3460 H   0  0  0  0  0  0  0  0  0  0  0  0
   37.6190   26.9060   42.7240 O   0  0  0  0  0  0  0  0  0  0  0  0
   38.0940   27.7710   43.6800 C   0  0  0  0  0  3  0  0  0  0  0  0
   39.1530   27.5300   43.8530 H   0  0  0  0  0  0  0  0  0  0  0  0
   36.7060   29.5390   42.8230 O   0  0  0  0  0  0  0  0  0  0  0  0
   36.1550   29.3130   43.6330 H   0  0  0  0  0  0  0  0  0  0  0  0
  1  6  1  0  0  0  0
  2  1  2  0  0  0  0
  2  3  1  0  0  0  0
  3  9  1  0  0  0  0
  3  4  2  0  0  0  0
  5  4  1  0  0  0  0
  6  5  2  0  0  0  0
  7  1  1  0  0  0  0
  8  2  1  0  0  0  0
  9 10  1  0  0  0  0
 10 13  1  0  0  0  0
 10 14  1  0  0  0  0
 11  9  1  0  0  0  0
 11 10  1  0  0  0  0
 12  9  1  0  0  0  0
 15 11  1  0  0  0  0
 16 11  1  0  0  0  0
 17 24  1  6  0  0  0
 17 22  1  0  0  0  0
 18  5  1  6  0  0  0
 18 17  1  0  0  0  0
 19 18  1  0  0  0  0
 19 21  1  0  0  0  0
 20 19  1  0  0  0  0
 21 22  1  0  0  0  0
 22 23  1  0  0  0  0
 24 25  1  0  0  0  0
M  END
>  <minimizedAffinity>
-4.23551321

$$$$
