
 OpenBabel03252504053D

 19 20  0  0  1  0  0  0  0  0999 V2000
   37.6440   31.9380   40.5210 C   0  0  0  0  0  0  0  0  0  0  0  0
   36.8580   30.8700   40.9650 C   0  0  0  0  0  0  0  0  0  0  0  0
   37.4550   29.6160   40.9880 C   0  0  0  0  0  0  0  0  0  0  0  0
   38.7520   29.4740   40.5900 N   0  0  0  0  0  0  0  0  0  0  0  0
   39.4800   30.5300   40.1670 C   0  0  0  0  0  0  0  0  0  0  0  0
   38.9120   31.7570   40.1380 N   0  0  0  0  0  0  0  0  0  0  0  0
   37.1890   32.9270   40.4970 H   0  0  0  0  0  0  0  0  0  0  0  0
   40.5030   30.3680   39.8610 H   0  0  0  0  0  0  0  0  0  0  0  0
   36.8470   28.1580   42.9060 C   0  0  1  0  0  3  0  0  0  0  0  0
   36.6790   28.4430   41.4470 C   0  0  2  0  0  3  0  0  0  0  0  0
   37.2460   27.1930   40.7950 C   0  0  0  0  0  3  0  0  0  0  0  0
   36.4890   26.3820   40.7660 H   0  0  0  0  0  0  0  0  0  0  0  0
   38.3230   26.8870   41.6020 O   0  0  0  0  0  0  0  0  0  0  0  0
   37.9500   27.1380   42.9130 C   0  0  0  0  0  3  0  0  0  0  0  0
   38.8500   27.5590   43.4290 H   0  0  0  0  0  0  0  0  0  0  0  0
   37.2480   29.2900   43.6260 O   0  0  0  0  0  0  0  0  0  0  0  0
   37.6390   28.9190   44.4730 H   0  0  0  0  0  0  0  0  0  0  0  0
   35.5420   30.9940   41.3730 O   0  0  0  0  0  0  0  0  0  0  0  0
   35.1850   31.7060   41.9890 H   0  0  0  0  0  0  0  0  0  0  0  0
  1  2  1  0  0  0  0
  2  3  2  0  0  0  0
  2 18  1  0  0  0  0
  4  3  1  0  0  0  0
  5  4  2  0  0  0  0
  6  5  1  0  0  0  0
  6  1  2  0  0  0  0
  7  1  1  0  0  0  0
  8  5  1  0  0  0  0
  9 14  1  0  0  0  0
  9 16  1  1  0  0  0
 10  3  1  6  0  0  0
 10  9  1  0  0  0  0
 11 10  1  0  0  0  0
 11 13  1  0  0  0  0
 12 11  1  0  0  0  0
 13 14  1  0  0  0  0
 14 15  1  0  0  0  0
 16 17  1  0  0  0  0
 18 19  1  0  0  0  0
M  END
>  <minimizedAffinity>
-4.64315653

$$$$

 OpenBabel03252504053D

 19 20  0  0  1  0  0  0  0  0999 V2000
   37.1300   27.0270   42.6090 C   0  0  0  0  0  0  0  0  0  0  0  0
   37.2550   28.4200   42.5930 C   0  0  0  0  0  0  0  0  0  0  0  0
   37.6740   29.0000   41.4020 C   0  0  0  0  0  0  0  0  0  0  0  0
   37.9410   28.2140   40.3210 N   0  0  0  0  0  0  0  0  0  0  0  0
   37.8090   26.8710   40.3750 C   0  0  0  0  0  0  0  0  0  0  0  0
   37.4030   26.2910   41.5270 N   0  0  0  0  0  0  0  0  0  0  0  0
   36.8030   26.5580   43.5360 H   0  0  0  0  0  0  0  0  0  0  0  0
   38.0330   26.2900   39.4920 H   0  0  0  0  0  0  0  0  0  0  0  0
   36.5920   31.1640   40.8350 C   0  0  1  0  0  3  0  0  0  0  0  0
   37.8270   30.4700   41.3180 C   0  0  2  0  0  3  0  0  0  0  0  0
   38.8390   30.7970   40.2340 C   0  0  0  0  0  3  0  0  0  0  0  0
   39.2880   31.7980   40.3980 H   0  0  0  0  0  0  0  0  0  0  0  0
   38.0860   30.7350   39.0790 O   0  0  0  0  0  0  0  0  0  0  0  0
   36.8450   31.2860   39.3590 C   0  0  0  0  0  3  0  0  0  0  0  0
   36.0890   30.6810   38.7960 H   0  0  0  0  0  0  0  0  0  0  0  0
   35.4360   30.4060   41.0540 O   0  0  0  0  0  0  0  0  0  0  0  0
   34.7620   30.7930   40.4180 H   0  0  0  0  0  0  0  0  0  0  0  0
   36.9890   29.2330   43.6790 O   0  0  0  0  0  0  0  0  0  0  0  0
   36.1830   29.1650   44.2790 H   0  0  0  0  0  0  0  0  0  0  0  0
  1  7  1  0  0  0  0
  2  1  1  0  0  0  0
  2 18  1  0  0  0  0
  3  2  2  0  0  0  0
  4  5  2  0  0  0  0
  4  3  1  0  0  0  0
  5  6  1  0  0  0  0
  6  1  2  0  0  0  0
  8  5  1  0  0  0  0
  9 16  1  6  0  0  0
  9 10  1  0  0  0  0
 10  3  1  6  0  0  0
 11 12  1  0  0  0  0
 11 10  1  0  0  0  0
 13 14  1  0  0  0  0
 13 11  1  0  0  0  0
 14  9  1  0  0  0  0
 15 14  1  0  0  0  0
 17 16  1  0  0  0  0
 18 19  1  0  0  0  0
M  END
>  <minimizedAffinity>
-4.39909363

$$$$

 OpenBabel03252504053D

 19 20  0  0  1  0  0  0  0  0999 V2000
   35.7900   29.9450   39.1940 C   0  0  0  0  0  0  0  0  0  0  0  0
   36.3020   30.8280   40.1510 C   0  0  0  0  0  0  0  0  0  0  0  0
   37.4470   31.5360   39.8050 C   0  0  0  0  0  0  0  0  0  0  0  0
   38.0150   31.3500   38.5790 N   0  0  0  0  0  0  0  0  0  0  0  0
   37.4910   30.4870   37.6820 C   0  0  0  0  0  0  0  0  0  0  0  0
   36.3780   29.7920   38.0040 N   0  0  0  0  0  0  0  0  0  0  0  0
   34.8930   29.3840   39.4520 H   0  0  0  0  0  0  0  0  0  0  0  0
   37.9770   30.3740   36.7230 H   0  0  0  0  0  0  0  0  0  0  0  0
   38.2440   33.8560   40.2020 C   0  0  1  0  0  3  0  0  0  0  0  0
   38.0400   32.4870   40.7710 C   0  0  2  0  0  3  0  0  0  0  0  0
   39.4580   32.0430   41.0890 C   0  0  0  0  0  3  0  0  0  0  0  0
   39.7900   32.4460   42.0680 H   0  0  0  0  0  0  0  0  0  0  0  0
   40.1840   32.5520   40.0310 O   0  0  0  0  0  0  0  0  0  0  0  0
   39.6700   33.8040   39.7330 C   0  0  0  0  0  3  0  0  0  0  0  0
   39.7030   33.9090   38.6180 H   0  0  0  0  0  0  0  0  0  0  0  0
   37.3980   34.1110   39.1150 O   0  0  0  0  0  0  0  0  0  0  0  0
   37.8390   34.8730   38.6320 H   0  0  0  0  0  0  0  0  0  0  0  0
   35.7390   31.0300   41.3980 O   0  0  0  0  0  0  0  0  0  0  0  0
   34.7590   31.1640   41.5840 H   0  0  0  0  0  0  0  0  0  0  0  0
  1  7  1  0  0  0  0
  1  2  1  0  0  0  0
  2 18  1  0  0  0  0
  3  2  2  0  0  0  0
  4  3  1  0  0  0  0
  5  6  1  0  0  0  0
  5  4  2  0  0  0  0
  6  1  2  0  0  0  0
  8  5  1  0  0  0  0
  9 16  1  6  0  0  0
  9 10  1  0  0  0  0
 10  3  1  6  0  0  0
 10 11  1  0  0  0  0
 11 12  1  0  0  0  0
 13 11  1  0  0  0  0
 14 13  1  0  0  0  0
 14  9  1  0  0  0  0
 15 14  1  0  0  0  0
 17 16  1  0  0  0  0
 18 19  1  0  0  0  0
M  END
>  <minimizedAffinity>
-4.2788105

$$$$

 OpenBabel03252504053D

 19 20  0  0  1  0  0  0  0  0999 V2000
   41.3590   33.1040   38.3920 C   0  0  0  0  0  0  0  0  0  0  0  0
   40.1310   32.5270   38.0530 C   0  0  0  0  0  0  0  0  0  0  0  0
   39.3240   32.1050   39.1030 C   0  0  0  0  0  0  0  0  0  0  0  0
   39.7460   32.2630   40.3900 N   0  0  0  0  0  0  0  0  0  0  0  0
   40.9410   32.8240   40.6770 C   0  0  0  0  0  0  0  0  0  0  0  0
   41.7370   33.2400   39.6670 N   0  0  0  0  0  0  0  0  0  0  0  0
   42.0020   33.4400   37.5790 H   0  0  0  0  0  0  0  0  0  0  0  0
   41.2320   32.9280   41.7130 H   0  0  0  0  0  0  0  0  0  0  0  0
   36.8960   32.0610   39.6300 C   0  0  1  0  0  3  0  0  0  0  0  0
   38.0110   31.4860   38.8140 C   0  0  2  0  0  3  0  0  0  0  0  0
   38.0420   30.0360   39.2660 C   0  0  0  0  0  3  0  0  0  0  0  0
   37.2820   29.4350   38.7260 H   0  0  0  0  0  0  0  0  0  0  0  0
   37.7830   30.1290   40.6190 O   0  0  0  0  0  0  0  0  0  0  0  0
   36.8250   31.1150   40.7950 C   0  0  0  0  0  3  0  0  0  0  0  0
   37.0900   31.6580   41.7370 H   0  0  0  0  0  0  0  0  0  0  0  0
   37.1840   33.3520   40.0880 O   0  0  0  0  0  0  0  0  0  0  0  0
   36.5550   33.4870   40.8600 H   0  0  0  0  0  0  0  0  0  0  0  0
   39.6860   32.3590   36.7550 O   0  0  0  0  0  0  0  0  0  0  0  0
   39.7280   33.0530   36.0270 H   0  0  0  0  0  0  0  0  0  0  0  0
  1  6  1  0  0  0  0
  2  1  2  0  0  0  0
  2  3  1  0  0  0  0
  3  4  2  0  0  0  0
  4  5  1  0  0  0  0
  5  8  1  0  0  0  0
  6  5  2  0  0  0  0
  7  1  1  0  0  0  0
  9 16  1  1  0  0  0
  9 14  1  0  0  0  0
 10  3  1  1  0  0  0
 10 11  1  0  0  0  0
 10  9  1  0  0  0  0
 11 13  1  0  0  0  0
 12 11  1  0  0  0  0
 13 14  1  0  0  0  0
 14 15  1  0  0  0  0
 16 17  1  0  0  0  0
 18  2  1  0  0  0  0
 19 18  1  0  0  0  0
M  END
>  <minimizedAffinity>
-4.23196507

$$$$

 OpenBabel03252504053D

 19 20  0  0  1  0  0  0  0  0999 V2000
   36.4270   30.3340   39.1940 C   0  0  0  0  0  0  0  0  0  0  0  0
   36.3370   30.1720   40.5810 C   0  0  0  0  0  0  0  0  0  0  0  0
   37.0970   29.1550   41.1460 C   0  0  0  0  0  0  0  0  0  0  0  0
   37.8820   28.3730   40.3520 N   0  0  0  0  0  0  0  0  0  0  0  0
   37.9430   28.5600   39.0160 C   0  0  0  0  0  0  0  0  0  0  0  0
   37.2100   29.5450   38.4510 N   0  0  0  0  0  0  0  0  0  0  0  0
   35.8360   31.1270   38.7380 H   0  0  0  0  0  0  0  0  0  0  0  0
   38.5810   27.9150   38.4280 H   0  0  0  0  0  0  0  0  0  0  0  0
   38.3820   29.0610   43.2710 C   0  0  1  0  0  3  0  0  0  0  0  0
   37.0470   28.9290   42.6070 C   0  0  2  0  0  3  0  0  0  0  0  0
   36.6870   27.4760   42.8680 C   0  0  0  0  0  3  0  0  0  0  0  0
   36.2440   27.3510   43.8770 H   0  0  0  0  0  0  0  0  0  0  0  0
   37.8990   26.8300   42.7360 O   0  0  0  0  0  0  0  0  0  0  0  0
   38.8700   27.6410   43.3030 C   0  0  0  0  0  3  0  0  0  0  0  0
   39.7850   27.5430   42.6640 H   0  0  0  0  0  0  0  0  0  0  0  0
   39.2690   29.8490   42.5270 O   0  0  0  0  0  0  0  0  0  0  0  0
   40.1760   29.5940   42.8740 H   0  0  0  0  0  0  0  0  0  0  0  0
   35.5460   30.9540   41.4020 O   0  0  0  0  0  0  0  0  0  0  0  0
   35.4780   31.9580   41.3670 H   0  0  0  0  0  0  0  0  0  0  0  0
  1  2  1  0  0  0  0
  2  3  2  0  0  0  0
  2 18  1  0  0  0  0
  4  3  1  0  0  0  0
  5  4  2  0  0  0  0
  6  5  1  0  0  0  0
  6  1  2  0  0  0  0
  7  1  1  0  0  0  0
  8  5  1  0  0  0  0
  9 16  1  6  0  0  0
  9 14  1  0  0  0  0
 10  3  1  6  0  0  0
 10 11  1  0  0  0  0
 10  9  1  0  0  0  0
 11 12  1  0  0  0  0
 13 11  1  0  0  0  0
 13 14  1  0  0  0  0
 15 14  1  0  0  0  0
 16 17  1  0  0  0  0
 19 18  1  0  0  0  0
M  END
>  <minimizedAffinity>
-4.22723722

$$$$

 OpenBabel03252504053D

 19 20  0  0  1  0  0  0  0  0999 V2000
   39.3130   32.9820   39.6420 C   0  0  0  0  0  0  0  0  0  0  0  0
   38.2630   32.2220   39.1170 C   0  0  0  0  0  0  0  0  0  0  0  0
   37.8280   31.1410   39.8740 C   0  0  0  0  0  0  0  0  0  0  0  0
   38.4230   30.8670   41.0700 N   0  0  0  0  0  0  0  0  0  0  0  0
   39.4350   31.6250   41.5450 C   0  0  0  0  0  0  0  0  0  0  0  0
   39.8700   32.6790   40.8190 N   0  0  0  0  0  0  0  0  0  0  0  0
   39.6650   33.8320   39.0590 H   0  0  0  0  0  0  0  0  0  0  0  0
   39.8750   31.3680   42.4980 H   0  0  0  0  0  0  0  0  0  0  0  0
   35.6600   30.0460   40.4020 C   0  0  1  0  0  3  0  0  0  0  0  0
   36.7200   30.2960   39.3760 C   0  0  2  0  0  3  0  0  0  0  0  0
   37.2530   28.9010   39.1000 C   0  0  0  0  0  3  0  0  0  0  0  0
   36.6120   28.3670   38.3680 H   0  0  0  0  0  0  0  0  0  0  0  0
   37.2370   28.3120   40.3490 O   0  0  0  0  0  0  0  0  0  0  0  0
   36.0860   28.7330   40.9950 C   0  0  0  0  0  3  0  0  0  0  0  0
   36.3550   28.8770   42.0730 H   0  0  0  0  0  0  0  0  0  0  0  0
   35.6430   31.0300   41.3980 O   0  0  0  0  0  0  0  0  0  0  0  0
   35.1590   30.5980   42.1650 H   0  0  0  0  0  0  0  0  0  0  0  0
   37.6470   32.4850   37.9070 O   0  0  0  0  0  0  0  0  0  0  0  0
   37.3480   33.3910   37.5860 H   0  0  0  0  0  0  0  0  0  0  0  0
  1  6  1  0  0  0  0
  2  1  2  0  0  0  0
  2  3  1  0  0  0  0
  3  4  2  0  0  0  0
  4  5  1  0  0  0  0
  5  8  1  0  0  0  0
  6  5  2  0  0  0  0
  7  1  1  0  0  0  0
  9 14  1  0  0  0  0
  9 16  1  1  0  0  0
 10  3  1  1  0  0  0
 10  9  1  0  0  0  0
 11 10  1  0  0  0  0
 11 13  1  0  0  0  0
 12 11  1  0  0  0  0
 13 14  1  0  0  0  0
 14 15  1  0  0  0  0
 16 17  1  0  0  0  0
 18  2  1  0  0  0  0
 19 18  1  0  0  0  0
M  END
>  <minimizedAffinity>
-4.2264967

$$$$

 OpenBabel03252504053D

 19 20  0  0  1  0  0  0  0  0999 V2000
   36.7690   28.9070   41.8010 C   0  0  0  0  0  0  0  0  0  0  0  0
   36.6960   30.2260   41.3430 C   0  0  0  0  0  0  0  0  0  0  0  0
   37.8590   30.7750   40.8150 C   0  0  0  0  0  0  0  0  0  0  0  0
   38.9990   30.0280   40.7640 N   0  0  0  0  0  0  0  0  0  0  0  0
   39.0300   28.7560   41.2180 C   0  0  0  0  0  0  0  0  0  0  0  0
   37.9070   28.2080   41.7340 N   0  0  0  0  0  0  0  0  0  0  0  0
   35.8650   28.4650   42.2180 H   0  0  0  0  0  0  0  0  0  0  0  0
   39.9580   28.2040   41.1560 H   0  0  0  0  0  0  0  0  0  0  0  0
   38.2110   32.2720   38.8640 C   0  0  1  0  0  3  0  0  0  0  0  0
   37.8510   32.1660   40.3130 C   0  0  2  0  0  3  0  0  0  0  0  0
   38.9670   32.9410   40.9920 C   0  0  0  0  0  3  0  0  0  0  0  0
   38.7600   34.0300   40.9780 H   0  0  0  0  0  0  0  0  0  0  0  0
   40.0770   32.6010   40.2460 O   0  0  0  0  0  0  0  0  0  0  0  0
   39.6870   32.5470   38.9170 C   0  0  0  0  0  3  0  0  0  0  0  0
   40.2450   31.6940   38.4510 H   0  0  0  0  0  0  0  0  0  0  0  0
   37.9780   31.0790   38.1690 O   0  0  0  0  0  0  0  0  0  0  0  0
   38.5450   31.1580   37.3450 H   0  0  0  0  0  0  0  0  0  0  0  0
   35.5500   30.9990   41.3860 O   0  0  0  0  0  0  0  0  0  0  0  0
   34.6290   30.6970   41.1120 H   0  0  0  0  0  0  0  0  0  0  0  0
  1  7  1  0  0  0  0
  2 18  1  0  0  0  0
  2  1  2  0  0  0  0
  3  2  1  0  0  0  0
  4  3  2  0  0  0  0
  4  5  1  0  0  0  0
  5  6  2  0  0  0  0
  6  1  1  0  0  0  0
  8  5  1  0  0  0  0
  9 16  1  6  0  0  0
  9 14  1  0  0  0  0
  9 10  1  0  0  0  0
 10  3  1  1  0  0  0
 10 11  1  0  0  0  0
 12 11  1  0  0  0  0
 13 11  1  0  0  0  0
 14 13  1  0  0  0  0
 15 14  1  0  0  0  0
 17 16  1  0  0  0  0
 19 18  1  0  0  0  0
M  END
>  <minimizedAffinity>
-4.0685544

$$$$

 OpenBabel03252504053D

 19 20  0  0  1  0  0  0  0  0999 V2000
   37.7380   32.2270   38.1690 C   0  0  0  0  0  0  0  0  0  0  0  0
   37.0980   31.9340   39.3770 C   0  0  0  0  0  0  0  0  0  0  0  0
   36.8300   30.5950   39.6390 C   0  0  0  0  0  0  0  0  0  0  0  0
   37.1910   29.6410   38.7340 N   0  0  0  0  0  0  0  0  0  0  0  0
   37.8080   29.9640   37.5770 C   0  0  0  0  0  0  0  0  0  0  0  0
   38.0760   31.2610   37.3080 N   0  0  0  0  0  0  0  0  0  0  0  0
   37.9540   33.2720   37.9500 H   0  0  0  0  0  0  0  0  0  0  0  0
   38.0750   29.1720   36.8910 H   0  0  0  0  0  0  0  0  0  0  0  0
   37.0870   29.6410   41.9190 C   0  0  1  0  0  3  0  0  0  0  0  0
   36.1540   30.2170   40.9000 C   0  0  2  0  0  3  0  0  0  0  0  0
   35.2090   29.0610   40.6220 C   0  0  0  0  0  3  0  0  0  0  0  0
   34.4070   29.0100   41.3870 H   0  0  0  0  0  0  0  0  0  0  0  0
   36.0450   27.9630   40.6550 O   0  0  0  0  0  0  0  0  0  0  0  0
   36.9590   28.1640   41.6780 C   0  0  0  0  0  3  0  0  0  0  0  0
   37.9380   27.7540   41.3210 H   0  0  0  0  0  0  0  0  0  0  0  0
   38.4130   30.0400   41.7110 O   0  0  0  0  0  0  0  0  0  0  0  0
   38.9570   29.3590   42.2100 H   0  0  0  0  0  0  0  0  0  0  0  0
   36.7240   32.8870   40.3060 O   0  0  0  0  0  0  0  0  0  0  0  0
   37.2980   33.6510   40.6250 H   0  0  0  0  0  0  0  0  0  0  0  0
  1  2  1  0  0  0  0
  2  3  2  0  0  0  0
  2 18  1  0  0  0  0
  4  3  1  0  0  0  0
  5  4  2  0  0  0  0
  6  5  1  0  0  0  0
  6  1  2  0  0  0  0
  7  1  1  0  0  0  0
  8  5  1  0  0  0  0
  9 16  1  6  0  0  0
 10  3  1  6  0  0  0
 10  9  1  0  0  0  0
 11 13  1  0  0  0  0
 11 10  1  0  0  0  0
 11 12  1  0  0  0  0
 13 14  1  0  0  0  0
 14  9  1  0  0  0  0
 15 14  1  0  0  0  0
 16 17  1  0  0  0  0
 18 19  1  0  0  0  0
M  END
>  <minimizedAffinity>
-4.01692104

$$$$

 OpenBabel03252504053D

 19 20  0  0  1  0  0  0  0  0999 V2000
   41.2010   31.7730   37.8260 C   0  0  0  0  0  0  0  0  0  0  0  0
   39.8150   31.9120   37.6970 C   0  0  0  0  0  0  0  0  0  0  0  0
   39.0390   31.5200   38.7810 C   0  0  0  0  0  0  0  0  0  0  0  0
   39.6390   31.0290   39.9030 N   0  0  0  0  0  0  0  0  0  0  0  0
   40.9820   30.9110   39.9910 C   0  0  0  0  0  0  0  0  0  0  0  0
   41.7500   31.2870   38.9440 N   0  0  0  0  0  0  0  0  0  0  0  0
   41.8210   32.0760   36.9840 H   0  0  0  0  0  0  0  0  0  0  0  0
   41.4110   30.5160   40.9010 H   0  0  0  0  0  0  0  0  0  0  0  0
   36.9680   32.2950   39.9150 C   0  0  1  0  0  3  0  0  0  0  0  0
   37.5660   31.6400   38.7090 C   0  0  2  0  0  3  0  0  0  0  0  0
   36.9580   30.2480   38.7490 C   0  0  0  0  0  3  0  0  0  0  0  0
   35.9440   30.2450   38.2990 H   0  0  0  0  0  0  0  0  0  0  0  0
   36.9420   29.9580   40.0980 O   0  0  0  0  0  0  0  0  0  0  0  0
   36.5980   31.1190   40.7730 C   0  0  0  0  0  3  0  0  0  0  0  0
   37.2030   31.1350   41.7150 H   0  0  0  0  0  0  0  0  0  0  0  0
   37.8890   33.1020   40.5930 O   0  0  0  0  0  0  0  0  0  0  0  0
   37.5000   33.2030   41.5130 H   0  0  0  0  0  0  0  0  0  0  0  0
   39.1890   32.4070   36.5680 O   0  0  0  0  0  0  0  0  0  0  0  0
   39.4670   33.2280   36.0560 H   0  0  0  0  0  0  0  0  0  0  0  0
  1  6  1  0  0  0  0
  2  1  2  0  0  0  0
  2  3  1  0  0  0  0
  3  4  2  0  0  0  0
  4  5  1  0  0  0  0
  5  8  1  0  0  0  0
  6  5  2  0  0  0  0
  7  1  1  0  0  0  0
  9 16  1  1  0  0  0
  9 14  1  0  0  0  0
 10 11  1  0  0  0  0
 10  3  1  1  0  0  0
 10  9  1  0  0  0  0
 11 13  1  0  0  0  0
 12 11  1  0  0  0  0
 13 14  1  0  0  0  0
 14 15  1  0  0  0  0
 16 17  1  0  0  0  0
 18  2  1  0  0  0  0
 19 18  1  0  0  0  0
M  END
>  <minimizedAffinity>
-3.95413637

$$$$
