
 OpenBabel03252501153D

 28 30  0  0  1  0  0  0  0  0999 V2000
   46.2170   32.5080   44.2730 C   0  0  1  0  0  0  0  0  0  0  0  0
   46.2230   33.6710   45.2170 C   0  0  0  0  0  0  0  0  0  0  0  0
   47.2470   33.5430   44.1020 C   0  0  2  0  0  0  0  0  0  0  0  0
   45.4680   32.3450   43.4950 H   0  0  0  0  0  0  0  0  0  0  0  0
   46.6050   33.5020   46.2720 H   0  0  0  0  0  0  0  0  0  0  0  0
   45.4430   34.4220   45.2160 H   0  0  0  0  0  0  0  0  0  0  0  0
   48.2720   33.2230   44.4660 H   0  0  0  0  0  0  0  0  0  0  0  0
   46.2030   29.3680   46.3380 C   0  0  0  0  0  0  0  0  0  0  0  0
   45.7280   30.5670   45.7920 C   0  0  0  0  0  0  0  0  0  0  0  0
   46.5980   31.2060   44.9200 C   0  0  0  0  0  0  0  0  0  0  0  0
   47.8180   30.6700   44.6430 N   0  0  0  0  0  0  0  0  0  0  0  0
   48.2240   29.4970   45.2090 C   0  0  0  0  0  0  0  0  0  0  0  0
   47.3980   28.8440   46.0660 N   0  0  0  0  0  0  0  0  0  0  0  0
   44.7700   30.9470   46.0340 H   0  0  0  0  0  0  0  0  0  0  0  0
   49.2030   29.1290   44.9460 H   0  0  0  0  0  0  0  0  0  0  0  0
   45.2910   28.6380   47.2760 C   0  0  0  0  0  0  0  0  0  0  0  0
   46.0680   27.7320   47.9860 F   0  0  0  0  0  0  0  0  0  0  0  0
   44.3970   27.9230   46.5260 F   0  0  0  0  0  0  0  0  0  0  0  0
   44.7010   29.4900   48.1730 F   0  0  0  0  0  0  0  0  0  0  0  0
   48.6390   34.9110   42.4520 C   0  0  2  0  0  3  0  0  0  0  0  0
   47.3540   34.4470   42.9560 C   0  0  1  0  0  3  0  0  0  0  0  0
   46.6210   33.8820   41.7270 C   0  0  0  0  0  3  0  0  0  0  0  0
   45.5810   34.2060   41.6720 H   0  0  0  0  0  0  0  0  0  0  0  0
   47.3430   34.3860   40.6750 O   0  0  0  0  0  0  0  0  0  0  0  0
   48.6880   34.2450   41.0630 C   0  0  0  0  0  3  0  0  0  0  0  0
   48.9070   33.1790   41.1140 H   0  0  0  0  0  0  0  0  0  0  0  0
   49.7730   34.7350   43.1730 O   0  0  0  0  0  0  0  0  0  0  0  0
   50.4620   34.2570   42.6130 H   0  0  0  0  0  0  0  0  0  0  0  0
  1  4  1  6  0  0  0
  1 10  1  0  0  0  0
  1  2  1  0  0  0  0
  2  5  1  0  0  0  0
  3  1  1  0  0  0  0
  3  7  1  1  0  0  0
  3  2  1  0  0  0  0
  6  2  1  0  0  0  0
  8 16  1  0  0  0  0
  9 14  1  0  0  0  0
  9  8  2  0  0  0  0
 10  9  1  0  0  0  0
 11 10  2  0  0  0  0
 11 12  1  0  0  0  0
 12 13  2  0  0  0  0
 13  8  1  0  0  0  0
 15 12  1  0  0  0  0
 16 17  1  0  0  0  0
 16 19  1  0  0  0  0
 18 16  1  0  0  0  0
 20 21  1  0  0  0  0
 20 27  1  1  0  0  0
 21 22  1  6  0  0  0
 21  3  1  0  0  0  0
 23 22  1  0  0  0  0
 24 25  1  0  0  0  0
 24 22  1  0  0  0  0
 25 26  1  0  0  0  0
 25 20  1  0  0  0  0
 28 27  1  0  0  0  0
M  END
>  <minimizedAffinity>
-4.28294754

>  <minimizedRMSD>
5.43079853

$$$$
