
 OpenBabel03242521453D

 47 50  0  0  1  0  0  0  0  0999 V2000
   45.1090   36.9960   42.7930 C   0  0  0  0  0  0  0  0  0  0  0  0
   44.2270   36.7350   42.1830 H   0  0  0  0  0  0  0  0  0  0  0  0
   45.9950   37.2650   42.1990 H   0  0  0  0  0  0  0  0  0  0  0  0
   45.4610   35.7920   43.6390 C   0  0  0  0  0  0  0  0  0  0  0  0
   46.4940   34.9530   43.2010 C   0  0  0  0  0  0  0  0  0  0  0  0
   46.8430   33.8330   43.9780 C   0  0  0  0  0  0  0  0  0  0  0  0
   46.1690   33.6280   45.0930 N   0  0  0  0  0  0  0  0  0  0  0  0
   45.1720   34.4460   45.5050 C   0  0  0  0  0  0  0  0  0  0  0  0
   44.8160   35.5280   44.7800 N   0  0  0  0  0  0  0  0  0  0  0  0
   46.9630   35.2280   42.2790 H   0  0  0  0  0  0  0  0  0  0  0  0
   44.6440   34.2310   46.4370 H   0  0  0  0  0  0  0  0  0  0  0  0
   48.9650   33.7230   42.6820 C   0  0  2  0  0  0  0  0  0  0  0  0
   47.9240   33.0180   43.4480 C   0  0  2  0  0  0  0  0  0  0  0  0
   47.4920   32.0230   42.5000 O   0  0  0  0  0  0  0  0  0  0  0  0
   48.7230   31.4660   42.1590 C   0  0  0  0  0  0  0  0  0  0  0  0
   49.7950   32.4940   42.2450 C   0  0  1  0  0  0  0  0  0  0  0  0
   48.5830   34.1440   41.7230 H   0  0  0  0  0  0  0  0  0  0  0  0
   48.3930   32.3980   44.2590 H   0  0  0  0  0  0  0  0  0  0  0  0
   48.6920   30.9720   41.1850 H   0  0  0  0  0  0  0  0  0  0  0  0
   48.9570   30.6640   42.9080 H   0  0  0  0  0  0  0  0  0  0  0  0
   50.5250   32.3360   43.0720 H   0  0  0  0  0  0  0  0  0  0  0  0
   49.6690   34.6600   43.3520 O   0  0  0  0  0  0  0  0  0  0  0  0
   49.4230   35.5760   43.0620 H   0  0  0  0  0  0  0  0  0  0  0  0
   50.4160   32.7870   41.0260 O   0  0  0  0  0  0  0  0  0  0  0  0
   51.3620   32.5740   41.1500 H   0  0  0  0  0  0  0  0  0  0  0  0
   45.3930   39.3250   43.8800 C   0  0  0  0  0  0  0  0  0  0  0  0
   46.3250   39.5780   43.0510 O   0  0  0  0  0  0  0  0  0  0  0  0
   44.7660   38.0600   43.7210 N   0  0  0  0  0  0  0  0  0  0  0  0
   43.9430   37.8730   44.3660 H   0  0  0  0  0  0  0  0  0  0  0  0
   44.9700   40.2400   44.9280 C   0  0  0  0  0  0  0  0  0  0  0  0
   45.2400   39.9510   46.2250 C   0  0  0  0  0  0  0  0  0  0  0  0
   44.8050   40.8750   47.1690 C   0  0  0  0  0  0  0  0  0  0  0  0
   44.1240   42.0470   46.8560 C   0  0  0  0  0  0  0  0  0  0  0  0
   43.8920   42.2610   45.5320 C   0  0  0  0  0  0  0  0  0  0  0  0
   44.3070   41.3810   44.6210 N   0  0  0  0  0  0  0  0  0  0  0  0
   45.7690   39.0560   46.5550 H   0  0  0  0  0  0  0  0  0  0  0  0
   44.9940   40.6960   48.2360 H   0  0  0  0  0  0  0  0  0  0  0  0
   43.8060   42.7330   47.6290 H   0  0  0  0  0  0  0  0  0  0  0  0
   41.9300   43.0500   44.3150 C   0  0  1  0  0  3  0  0  0  0  0  0
   43.1650   43.4920   45.0640 C   0  0  1  0  0  3  0  0  0  0  0  0
   42.5940   44.2630   46.2060 C   0  0  0  0  0  3  0  0  0  0  0  0
   43.2800   44.2610   47.0830 H   0  0  0  0  0  0  0  0  0  0  0  0
   41.3390   43.7410   46.4810 O   0  0  0  0  0  0  0  0  0  0  0  0
   40.8490   43.1880   45.3250 C   0  0  0  0  0  3  0  0  0  0  0  0
   40.3410   42.1990   45.4780 H   0  0  0  0  0  0  0  0  0  0  0  0
   41.6920   43.9430   43.2640 O   0  0  0  0  0  0  0  0  0  0  0  0
   41.0140   44.6290   43.5270 H   0  0  0  0  0  0  0  0  0  0  0  0
  1  4  1  0  0  0  0
  1 28  1  0  0  0  0
  2  1  1  0  0  0  0
  3  1  1  0  0  0  0
  4  9  1  0  0  0  0
  5  4  2  0  0  0  0
  5  6  1  0  0  0  0
  6  7  2  0  0  0  0
  7  8  1  0  0  0  0
  8 11  1  0  0  0  0
  9  8  2  0  0  0  0
 10  5  1  0  0  0  0
 12 17  1  6  0  0  0
 12 22  1  0  0  0  0
 12 13  1  0  0  0  0
 13  6  1  0  0  0  0
 13 18  1  1  0  0  0
 14 13  1  0  0  0  0
 15 16  1  0  0  0  0
 15 14  1  0  0  0  0
 15 20  1  0  0  0  0
 16 12  1  0  0  0  0
 16 21  1  1  0  0  0
 19 15  1  0  0  0  0
 23 22  1  0  0  0  0
 24 25  1  0  0  0  0
 24 16  1  0  0  0  0
 26 30  1  0  0  0  0
 27 26  2  0  0  0  0
 28 26  1  0  0  0  0
 28 29  1  0  0  0  0
 30 31  1  0  0  0  0
 31 36  1  0  0  0  0
 31 32  2  0  0  0  0
 32 37  1  0  0  0  0
 33 32  1  0  0  0  0
 33 38  1  0  0  0  0
 34 33  2  0  0  0  0
 35 30  2  0  0  0  0
 35 34  1  0  0  0  0
 39 46  1  6  0  0  0
 39 40  1  0  0  0  0
 39 44  1  0  0  0  0
 40 34  1  1  0  0  0
 40 41  1  0  0  0  0
 41 43  1  0  0  0  0
 41 42  1  0  0  0  0
 44 45  1  0  0  0  0
 44 43  1  0  0  0  0
 46 47  1  0  0  0  0
M  END
>  <minimizedAffinity>
-2.06718206

>  <minimizedRMSD>
0.398808509

$$$$
