
 OpenBabel03252507073D

 24 25  0  0  1  0  0  0  0  0999 V2000
   44.8590   35.1190   44.9190 C   0  0  0  0  0  0  0  0  0  0  0  0
   45.3700   35.4940   43.6550 C   0  0  0  0  0  0  0  0  0  0  0  0
   46.4190   34.7290   43.1460 C   0  0  0  0  0  0  0  0  0  0  0  0
   46.8910   33.6860   43.8670 N   0  0  0  0  0  0  0  0  0  0  0  0
   46.3780   33.3580   45.0690 C   0  0  0  0  0  0  0  0  0  0  0  0
   45.3620   34.0740   45.5930 N   0  0  0  0  0  0  0  0  0  0  0  0
   44.0380   35.6740   45.3730 H   0  0  0  0  0  0  0  0  0  0  0  0
   44.9090   36.3450   43.1790 H   0  0  0  0  0  0  0  0  0  0  0  0
   46.6370   32.4050   47.3690 C   0  0  1  0  0  3  0  0  0  0  0  0
   46.8610   32.2340   45.8800 C   0  0  1  0  0  3  0  0  0  0  0  0
   45.9880   30.9900   45.6710 C   0  0  0  0  0  3  0  0  0  0  0  0
   46.3590   30.4660   44.7670 H   0  0  0  0  0  0  0  0  0  0  0  0
   46.0420   30.2580   46.8210 O   0  0  0  0  0  0  0  0  0  0  0  0
   46.7810   30.9390   47.7750 C   0  0  0  0  0  3  0  0  0  0  0  0
   47.8550   30.6780   47.5940 H   0  0  0  0  0  0  0  0  0  0  0  0
   47.5590   33.2240   47.9780 O   0  0  0  0  0  0  0  0  0  0  0  0
   48.0820   32.7160   48.6500 H   0  0  0  0  0  0  0  0  0  0  0  0
   46.9180   35.1000   41.9080 O   0  0  0  0  0  0  0  0  0  0  0  0
   48.6890   33.3750   40.9520 O   0  0  0  0  0  0  0  0  0  0  0  0
   48.5590   34.7880   41.5210 P   0  0  0  0  0  0  0  0  0  0  0  0
   49.0880   35.9400   40.4430 O   0  0  0  0  0  0  0  0  0  0  0  0
   48.5790   36.7620   40.5760 H   0  0  0  0  0  0  0  0  0  0  0  0
   49.4290   34.8480   42.9760 O   0  0  0  0  0  0  0  0  0  0  0  0
   50.0240   35.6280   43.0280 H   0  0  0  0  0  0  0  0  0  0  0  0
  1  7  1  0  0  0  0
  1  6  1  0  0  0  0
  2  1  2  0  0  0  0
  3  2  1  0  0  0  0
  3  4  2  0  0  0  0
  4  5  1  0  0  0  0
  5  6  2  0  0  0  0
  8  2  1  0  0  0  0
  9 14  1  0  0  0  0
  9 16  1  1  0  0  0
 10  5  1  6  0  0  0
 10  9  1  0  0  0  0
 11 10  1  0  0  0  0
 11 13  1  0  0  0  0
 12 11  1  0  0  0  0
 13 14  1  0  0  0  0
 15 14  1  0  0  0  0
 16 17  1  0  0  0  0
 18  3  1  0  0  0  0
 19 20  2  0  0  0  0
 20 18  1  0  0  0  0
 20 23  1  0  0  0  0
 21 22  1  0  0  0  0
 21 20  1  0  0  0  0
 23 24  1  0  0  0  0
M  END
>  <minimizedAffinity>
-5.62291098

>  <minimizedRMSD>
1.19227743

$$$$
