
 OpenBabel03252500413D

 28 30  0  0  1  0  0  0  0  0999 V2000
   47.5420   34.6230   41.2130 C   0  0  1  0  0  0  0  0  0  0  0  0
   48.6790   35.4270   40.6260 C   0  0  0  0  0  0  0  0  0  0  0  0
   48.3620   34.0540   40.1040 C   0  0  2  0  0  0  0  0  0  0  0  0
   46.5710   35.0080   40.8650 H   0  0  0  0  0  0  0  0  0  0  0  0
   49.6130   35.5140   41.2620 H   0  0  0  0  0  0  0  0  0  0  0  0
   48.4880   36.3090   40.0280 H   0  0  0  0  0  0  0  0  0  0  0  0
   49.0700   33.2310   40.4380 H   0  0  0  0  0  0  0  0  0  0  0  0
   48.3920   34.3840   37.5880 C   0  0  2  0  0  0  0  0  0  0  0  0
   47.7160   33.7910   38.8050 C   0  0  1  0  0  0  0  0  0  0  0  0
   47.6660   32.3460   38.3710 C   0  0  0  0  0  0  0  0  0  0  0  0
   46.8190   31.8500   38.8910 H   0  0  0  0  0  0  0  0  0  0  0  0
   47.5430   32.3500   36.9880 O   0  0  0  0  0  0  0  0  0  0  0  0
   47.5080   33.6660   36.5390 C   0  0  0  0  0  0  0  0  0  0  0  0
   47.8970   33.7720   35.5280 H   0  0  0  0  0  0  0  0  0  0  0  0
   49.6730   33.8430   37.4680 O   0  0  0  0  0  0  0  0  0  0  0  0
   49.6180   32.9160   37.1210 H   0  0  0  0  0  0  0  0  0  0  0  0
   47.7600   34.0790   42.5870 C   0  0  0  0  0  0  0  0  0  0  0  0
   48.7010   34.4890   43.0560 H   0  0  0  0  0  0  0  0  0  0  0  0
   47.9120   32.9680   42.4990 H   0  0  0  0  0  0  0  0  0  0  0  0
   46.6660   34.4190   43.5150 C   0  0  0  0  0  0  0  0  0  0  0  0
   45.8840   35.4780   43.1020 C   0  0  0  0  0  0  0  0  0  0  0  0
   44.8090   35.9230   43.8900 C   0  0  0  0  0  0  0  0  0  0  0  0
   44.6050   35.2460   45.0600 N   0  0  0  0  0  0  0  0  0  0  0  0
   45.3920   34.2060   45.4420 C   0  0  0  0  0  0  0  0  0  0  0  0
   46.4080   33.7980   44.6790 N   0  0  0  0  0  0  0  0  0  0  0  0
   45.8250   36.1490   42.2590 H   0  0  0  0  0  0  0  0  0  0  0  0
   44.0840   36.6900   43.7960 H   0  0  0  0  0  0  0  0  0  0  0  0
   45.2220   33.6770   46.3690 H   0  0  0  0  0  0  0  0  0  0  0  0
  1  4  1  6  0  0  0
  1 17  1  0  0  0  0
  2  1  1  0  0  0  0
  2  5  1  0  0  0  0
  3  7  1  1  0  0  0
  3  2  1  0  0  0  0
  3  1  1  0  0  0  0
  6  2  1  0  0  0  0
  8 15  1  6  0  0  0
  8  9  1  0  0  0  0
  9 10  1  6  0  0  0
  9  3  1  0  0  0  0
 10 11  1  0  0  0  0
 12 10  1  0  0  0  0
 13 12  1  0  0  0  0
 13  8  1  0  0  0  0
 14 13  1  0  0  0  0
 16 15  1  0  0  0  0
 17 18  1  0  0  0  0
 17 20  1  0  0  0  0
 19 17  1  0  0  0  0
 20 25  1  0  0  0  0
 21 20  2  0  0  0  0
 21 22  1  0  0  0  0
 22 23  2  0  0  0  0
 23 24  1  0  0  0  0
 24 28  1  0  0  0  0
 25 24  2  0  0  0  0
 26 21  1  0  0  0  0
 27 22  1  0  0  0  0
M  END
>  <minimizedAffinity>
-4.99095488

>  <minimizedRMSD>
1.56504297

$$$$
