
 OpenBabel03252505363D

 33 35  0  0  1  0  0  0  0  0999 V2000
   44.9770   34.3290   45.1790 C   0  0  0  0  0  0  0  0  0  0  0  0
   45.8510   34.0740   44.0820 C   0  0  0  0  0  0  0  0  0  0  0  0
   46.9980   33.3530   44.3310 C   0  0  0  0  0  0  0  0  0  0  0  0
   47.2430   32.9240   45.6020 N   0  0  0  0  0  0  0  0  0  0  0  0
   46.3810   33.1930   46.6160 C   0  0  0  0  0  0  0  0  0  0  0  0
   45.2570   33.8870   46.4140 N   0  0  0  0  0  0  0  0  0  0  0  0
   46.6730   32.7590   47.9450 N   0  0  0  0  0  0  0  0  0  0  0  0
   44.0530   34.8810   45.0910 H   0  0  0  0  0  0  0  0  0  0  0  0
   46.4490   31.8300   48.3800 H   0  0  0  0  0  0  0  0  0  0  0  0
   47.1560   33.5840   48.3710 H   0  0  0  0  0  0  0  0  0  0  0  0
   47.9560   33.0170   43.3210 C   0  0  0  0  0  0  0  0  0  0  0  0
   48.8440   34.0060   42.9190 C   0  0  0  0  0  0  0  0  0  0  0  0
   49.8190   33.7700   41.9360 C   0  0  0  0  0  0  0  0  0  0  0  0
   49.9040   32.5380   41.3520 C   0  0  0  0  0  0  0  0  0  0  0  0
   49.0350   31.5730   41.7480 C   0  0  0  0  0  0  0  0  0  0  0  0
   48.0680   31.7900   42.7170 C   0  0  0  0  0  0  0  0  0  0  0  0
   48.7970   34.9920   43.3670 H   0  0  0  0  0  0  0  0  0  0  0  0
   50.4760   34.6160   41.6850 H   0  0  0  0  0  0  0  0  0  0  0  0
   50.6790   32.4280   40.6020 H   0  0  0  0  0  0  0  0  0  0  0  0
   49.1310   30.5990   41.2610 H   0  0  0  0  0  0  0  0  0  0  0  0
   47.1350   30.7150   43.1380 C   0  0  0  0  0  0  0  0  0  0  0  0
   47.3620   29.6070   42.3240 F   0  0  0  0  0  0  0  0  0  0  0  0
   45.8350   31.1530   42.9910 F   0  0  0  0  0  0  0  0  0  0  0  0
   47.2680   30.3360   44.4510 F   0  0  0  0  0  0  0  0  0  0  0  0
   44.6520   35.9250   42.9440 C   0  0  1  0  0  3  0  0  0  0  0  0
   45.4970   34.6630   42.8010 C   0  0  2  0  0  3  0  0  0  0  0  0
   44.6260   33.8370   41.9070 C   0  0  0  0  0  3  0  0  0  0  0  0
   43.6780   33.5030   42.3660 H   0  0  0  0  0  0  0  0  0  0  0  0
   44.2780   34.7660   40.9330 O   0  0  0  0  0  0  0  0  0  0  0  0
   44.0520   35.9760   41.5500 C   0  0  0  0  0  3  0  0  0  0  0  0
   43.0050   36.3110   41.5310 H   0  0  0  0  0  0  0  0  0  0  0  0
   43.6400   35.7710   43.8730 O   0  0  0  0  0  0  0  0  0  0  0  0
   43.7070   36.5000   44.5600 H   0  0  0  0  0  0  0  0  0  0  0  0
  1  6  1  0  0  0  0
  2  3  1  0  0  0  0
  2  1  2  0  0  0  0
  3  4  2  0  0  0  0
  4  5  1  0  0  0  0
  5  7  1  0  0  0  0
  6  5  2  0  0  0  0
  7 10  1  0  0  0  0
  7  9  1  0  0  0  0
  8  1  1  0  0  0  0
 11  3  1  0  0  0  0
 12 11  1  0  0  0  0
 12 17  1  0  0  0  0
 13 12  2  0  0  0  0
 14 15  2  0  0  0  0
 14 13  1  0  0  0  0
 15 16  1  0  0  0  0
 16 21  1  0  0  0  0
 16 11  2  0  0  0  0
 18 13  1  0  0  0  0
 19 14  1  0  0  0  0
 20 15  1  0  0  0  0
 21 24  1  0  0  0  0
 22 21  1  0  0  0  0
 23 21  1  0  0  0  0
 25 32  1  1  0  0  0
 26 25  1  0  0  0  0
 26  2  1  1  0  0  0
 27 28  1  0  0  0  0
 27 26  1  0  0  0  0
 29 30  1  0  0  0  0
 29 27  1  0  0  0  0
 30 25  1  0  0  0  0
 31 30  1  0  0  0  0
 32 33  1  0  0  0  0
M  END
>  <minimizedAffinity>
-5.24975872

>  <minimizedRMSD>
3.34480643

$$$$
