
 OpenBabel03252505303D

 27 28  0  0  1  0  0  0  0  0999 V2000
   46.8230   31.6470   48.5920 O   0  0  0  0  0  0  0  0  0  0  0  0
   45.8650   31.9990   47.4420 P   0  0  1  0  0  0  0  0  0  0  0  0
   44.4810   32.7580   48.0040 O   0  0  0  0  0  0  0  0  0  0  0  0
   44.6830   33.6600   48.4010 H   0  0  0  0  0  0  0  0  0  0  0  0
   46.7230   32.9970   46.3670 O   0  0  0  0  0  0  0  0  0  0  0  0
   44.5450   35.4120   44.9630 C   0  0  0  0  0  0  0  0  0  0  0  0
   44.9710   35.5620   43.6190 C   0  0  0  0  0  0  0  0  0  0  0  0
   46.0740   34.7570   43.2410 C   0  0  0  0  0  0  0  0  0  0  0  0
   46.6170   33.9300   44.1730 N   0  0  0  0  0  0  0  0  0  0  0  0
   46.1660   33.8400   45.4240 C   0  0  0  0  0  0  0  0  0  0  0  0
   45.1230   34.5840   45.8250 N   0  0  0  0  0  0  0  0  0  0  0  0
   43.6930   36.0380   45.2450 H   0  0  0  0  0  0  0  0  0  0  0  0
   44.4860   36.2430   42.9320 H   0  0  0  0  0  0  0  0  0  0  0  0
   46.4470   34.8240   42.2280 H   0  0  0  0  0  0  0  0  0  0  0  0
   45.4350   30.5470   46.7230 O   0  0  0  0  0  0  0  0  0  0  0  0
   45.1140   29.6450   47.7120 C   0  0  0  0  0  0  0  0  0  0  0  0
   44.2280   30.0300   48.2520 H   0  0  0  0  0  0  0  0  0  0  0  0
   45.9450   29.6190   48.4440 H   0  0  0  0  0  0  0  0  0  0  0  0
   45.5730   26.1280   48.0510 C   0  0  1  0  0  3  0  0  0  0  0  0
   44.6850   27.3140   48.3370 C   0  0  0  0  0  3  0  0  0  0  0  0
   43.6280   27.0400   48.5360 H   0  0  0  0  0  0  0  0  0  0  0  0
   44.8890   28.2450   47.1880 C   0  0  2  0  0  3  0  0  0  0  0  0
   46.0330   27.8360   46.5140 O   0  0  0  0  0  0  0  0  0  0  0  0
   46.2090   26.5000   46.7530 C   0  0  0  0  0  3  0  0  0  0  0  0
   45.7190   25.9230   45.9200 H   0  0  0  0  0  0  0  0  0  0  0  0
   46.5560   25.9380   49.0370 O   0  0  0  0  0  0  0  0  0  0  0  0
   46.1520   26.0540   49.9530 H   0  0  0  0  0  0  0  0  0  0  0  0
  2  3  1  0  0  0  0
  2  1  2  1  0  0  0
  3  4  1  0  0  0  0
  5  2  1  0  0  0  0
  6 12  1  0  0  0  0
  6 11  1  0  0  0  0
  7  6  2  0  0  0  0
  8  7  1  0  0  0  0
  8  9  2  0  0  0  0
  9 10  1  0  0  0  0
 10 11  2  0  0  0  0
 10  5  1  0  0  0  0
 13  7  1  0  0  0  0
 14  8  1  0  0  0  0
 15  2  1  0  0  0  0
 15 16  1  0  0  0  0
 16 17  1  0  0  0  0
 16 18  1  0  0  0  0
 19 20  1  0  0  0  0
 19 26  1  1  0  0  0
 20 21  1  0  0  0  0
 22 16  1  1  0  0  0
 22 20  1  0  0  0  0
 23 24  1  0  0  0  0
 23 22  1  0  0  0  0
 24 19  1  0  0  0  0
 25 24  1  0  0  0  0
 26 27  1  0  0  0  0
M  END
>  <minimizedAffinity>
-4.6448555

>  <minimizedRMSD>
0.793951452

$$$$
