
 OpenBabel03252502033D

 34 37  0  0  1  0  0  0  0  0999 V2000
   37.1570   30.2100   36.6040 C   0  0  0  0  0  0  0  0  0  0  0  0
   37.7550   31.4080   37.0110 C   0  0  0  0  0  0  0  0  0  0  0  0
   38.2110   31.4950   38.2950 C   0  0  0  0  0  0  0  0  0  0  0  0
   38.0580   30.4230   39.0900 N   0  0  0  0  0  0  0  0  0  0  0  0
   37.5010   29.2850   38.7380 C   0  0  0  0  0  0  0  0  0  0  0  0
   37.0530   29.2020   37.4720 N   0  0  0  0  0  0  0  0  0  0  0  0
   36.7860   30.1340   35.5690 H   0  0  0  0  0  0  0  0  0  0  0  0
   37.2560   28.0350   39.4630 C   0  0  0  0  0  0  0  0  0  0  0  0
   37.0110   26.8450   38.8630 N   0  0  0  0  0  0  0  0  0  0  0  0
   36.7860   25.6880   39.4630 C   0  0  0  0  0  0  0  0  0  0  0  0
   36.7930   25.6440   40.8260 N   0  0  0  0  0  0  0  0  0  0  0  0
   37.0250   26.7600   41.5470 C   0  0  0  0  0  0  0  0  0  0  0  0
   37.0300   26.7050   42.9260 C   0  0  0  0  0  0  0  0  0  0  0  0
   37.2660   27.8380   43.6700 C   0  0  0  0  0  0  0  0  0  0  0  0
   37.4940   29.0120   42.9890 C   0  0  0  0  0  0  0  0  0  0  0  0
   37.4780   29.0160   41.6190 C   0  0  0  0  0  0  0  0  0  0  0  0
   37.2490   27.9210   40.8330 C   0  0  0  0  0  0  0  0  0  0  0  0
   36.6010   24.7970   38.8900 H   0  0  0  0  0  0  0  0  0  0  0  0
   36.8460   25.7580   43.4210 H   0  0  0  0  0  0  0  0  0  0  0  0
   37.2630   27.7580   44.7470 H   0  0  0  0  0  0  0  0  0  0  0  0
   37.6820   29.9180   43.5500 H   0  0  0  0  0  0  0  0  0  0  0  0
   37.6650   29.9810   41.1330 H   0  0  0  0  0  0  0  0  0  0  0  0
   38.1070   33.3340   39.9590 C   0  0  2  0  0  3  0  0  0  0  0  0
   38.8360   32.6970   38.7820 C   0  0  1  0  0  3  0  0  0  0  0  0
   40.2270   32.6700   39.2570 C   0  0  0  0  0  3  0  0  0  0  0  0
   40.9150   32.0210   38.7230 H   0  0  0  0  0  0  0  0  0  0  0  0
   40.2000   32.5050   40.6390 O   0  0  0  0  0  0  0  0  0  0  0  0
   39.0110   32.9800   41.1040 C   0  0  0  0  0  3  0  0  0  0  0  0
   38.4930   32.2470   41.7910 H   0  0  0  0  0  0  0  0  0  0  0  0
   36.8060   32.8800   40.0900 O   0  0  0  0  0  0  0  0  0  0  0  0
   36.1900   33.5930   39.7340 H   0  0  0  0  0  0  0  0  0  0  0  0
   37.8430   32.4410   36.0560 N   0  0  0  0  0  0  0  0  0  0  0  0
   38.7850   32.1840   35.6340 H   0  0  0  0  0  0  0  0  0  0  0  0
   37.1630   33.2070   35.8580 H   0  0  0  0  0  0  0  0  0  0  0  0
  1  2  2  0  0  0  0
  1  6  1  0  0  0  0
  2  3  1  0  0  0  0
  3  4  2  0  0  0  0
  5  4  1  0  0  0  0
  5  8  1  0  0  0  0
  6  5  2  0  0  0  0
  7  1  1  0  0  0  0
  8 17  1  0  0  0  0
  9  8  2  0  0  0  0
  9 10  1  0  0  0  0
 10 11  2  0  0  0  0
 11 12  1  0  0  0  0
 12 13  1  0  0  0  0
 13 19  1  0  0  0  0
 13 14  2  0  0  0  0
 14 20  1  0  0  0  0
 15 21  1  0  0  0  0
 15 14  1  0  0  0  0
 16 15  2  0  0  0  0
 17 12  2  0  0  0  0
 17 16  1  0  0  0  0
 18 10  1  0  0  0  0
 22 16  1  0  0  0  0
 23 30  1  1  0  0  0
 23 28  1  0  0  0  0
 24  3  1  1  0  0  0
 24 25  1  0  0  0  0
 24 23  1  0  0  0  0
 25 27  1  0  0  0  0
 26 25  1  0  0  0  0
 27 28  1  0  0  0  0
 28 29  1  0  0  0  0
 31 30  1  0  0  0  0
 32  2  1  0  0  0  0
 33 32  1  0  0  0  0
 34 32  1  0  0  0  0
M  END
>  <minimizedAffinity>
-6.47162247

$$$$

 OpenBabel03252502033D

 34 37  0  0  1  0  0  0  0  0999 V2000
   35.2590   29.5000   39.6990 C   0  0  0  0  0  0  0  0  0  0  0  0
   36.0150   29.8430   40.8260 C   0  0  0  0  0  0  0  0  0  0  0  0
   36.8930   28.9190   41.3160 C   0  0  0  0  0  0  0  0  0  0  0  0
   36.9780   27.7350   40.6850 N   0  0  0  0  0  0  0  0  0  0  0  0
   36.2830   27.3840   39.6260 C   0  0  0  0  0  0  0  0  0  0  0  0
   35.4180   28.2960   39.1450 N   0  0  0  0  0  0  0  0  0  0  0  0
   34.5490   30.2410   39.2980 H   0  0  0  0  0  0  0  0  0  0  0  0
   36.2490   26.1580   38.8250 C   0  0  0  0  0  0  0  0  0  0  0  0
   35.7890   26.0950   37.5520 N   0  0  0  0  0  0  0  0  0  0  0  0
   35.7370   25.0210   36.7820 C   0  0  0  0  0  0  0  0  0  0  0  0
   36.1830   23.8330   37.2810 N   0  0  0  0  0  0  0  0  0  0  0  0
   36.6670   23.7570   38.5380 C   0  0  0  0  0  0  0  0  0  0  0  0
   37.1160   22.5500   39.0350 C   0  0  0  0  0  0  0  0  0  0  0  0
   37.6120   22.4610   40.3140 C   0  0  0  0  0  0  0  0  0  0  0  0
   37.6420   23.6130   41.0670 C   0  0  0  0  0  0  0  0  0  0  0  0
   37.1840   24.7880   40.5310 C   0  0  0  0  0  0  0  0  0  0  0  0
   36.6820   24.9300   39.2660 C   0  0  0  0  0  0  0  0  0  0  0  0
   35.3510   25.0800   35.7800 H   0  0  0  0  0  0  0  0  0  0  0  0
   37.0750   21.6670   38.4060 H   0  0  0  0  0  0  0  0  0  0  0  0
   37.9550   21.5010   40.6700 H   0  0  0  0  0  0  0  0  0  0  0  0
   38.0270   23.5710   42.0780 H   0  0  0  0  0  0  0  0  0  0  0  0
   37.2320   25.6700   41.1780 H   0  0  0  0  0  0  0  0  0  0  0  0
   37.3910   28.3160   43.6720 C   0  0  2  0  0  3  0  0  0  0  0  0
   37.7020   29.2030   42.4730 C   0  0  1  0  0  3  0  0  0  0  0  0
   39.1670   29.1140   42.3940 C   0  0  0  0  0  3  0  0  0  0  0  0
   39.6280   29.4360   41.4640 H   0  0  0  0  0  0  0  0  0  0  0  0
   39.5400   27.8490   42.8390 O   0  0  0  0  0  0  0  0  0  0  0  0
   38.5710   27.3880   43.6770 C   0  0  0  0  0  3  0  0  0  0  0  0
   38.2380   26.3400   43.4150 H   0  0  0  0  0  0  0  0  0  0  0  0
   36.1630   27.6860   43.5660 O   0  0  0  0  0  0  0  0  0  0  0  0
   35.5110   28.1720   44.1610 H   0  0  0  0  0  0  0  0  0  0  0  0
   35.8120   31.1260   41.3720 N   0  0  0  0  0  0  0  0  0  0  0  0
   36.5360   31.6560   40.8000 H   0  0  0  0  0  0  0  0  0  0  0  0
   35.1410   31.4210   42.1140 H   0  0  0  0  0  0  0  0  0  0  0  0
  1  2  1  0  0  0  0
  2  3  2  0  0  0  0
  2 32  1  0  0  0  0
  4  3  1  0  0  0  0
  5  4  2  0  0  0  0
  6  5  1  0  0  0  0
  6  1  2  0  0  0  0
  7  1  1  0  0  0  0
  8 17  1  0  0  0  0
  8  5  1  0  0  0  0
  9  8  2  0  0  0  0
 10 11  2  0  0  0  0
 10  9  1  0  0  0  0
 11 12  1  0  0  0  0
 12 13  2  0  0  0  0
 12 17  1  0  0  0  0
 13 14  1  0  0  0  0
 14 20  1  0  0  0  0
 14 15  2  0  0  0  0
 15 21  1  0  0  0  0
 16 15  1  0  0  0  0
 16 22  1  0  0  0  0
 17 16  2  0  0  0  0
 18 10  1  0  0  0  0
 19 13  1  0  0  0  0
 23 30  1  6  0  0  0
 23 28  1  0  0  0  0
 24  3  1  6  0  0  0
 24 23  1  0  0  0  0
 25 24  1  0  0  0  0
 25 27  1  0  0  0  0
 26 25  1  0  0  0  0
 27 28  1  0  0  0  0
 29 28  1  0  0  0  0
 30 31  1  0  0  0  0
 32 34  1  0  0  0  0
 33 32  1  0  0  0  0
M  END
>  <minimizedAffinity>
-6.21817303

$$$$

 OpenBabel03252502033D

 34 37  0  0  1  0  0  0  0  0999 V2000
   36.4930   31.1650   41.1070 C   0  0  0  0  0  0  0  0  0  0  0  0
   37.3310   31.9790   40.3350 C   0  0  0  0  0  0  0  0  0  0  0  0
   38.5920   31.5320   40.0670 C   0  0  0  0  0  0  0  0  0  0  0  0
   38.9540   30.3350   40.5610 N   0  0  0  0  0  0  0  0  0  0  0  0
   38.1920   29.5480   41.2880 C   0  0  0  0  0  0  0  0  0  0  0  0
   36.9490   29.9920   41.5510 N   0  0  0  0  0  0  0  0  0  0  0  0
   35.4740   31.5200   41.3270 H   0  0  0  0  0  0  0  0  0  0  0  0
   38.4180   28.2360   41.8980 C   0  0  0  0  0  0  0  0  0  0  0  0
   39.1580   28.0350   43.0150 N   0  0  0  0  0  0  0  0  0  0  0  0
   39.3940   26.8770   43.6090 C   0  0  0  0  0  0  0  0  0  0  0  0
   38.8560   25.7430   43.0760 N   0  0  0  0  0  0  0  0  0  0  0  0
   38.0980   25.8040   41.9620 C   0  0  0  0  0  0  0  0  0  0  0  0
   37.5570   24.6510   41.4290 C   0  0  0  0  0  0  0  0  0  0  0  0
   36.7810   24.7010   40.2950 C   0  0  0  0  0  0  0  0  0  0  0  0
   36.5710   25.9350   39.7210 C   0  0  0  0  0  0  0  0  0  0  0  0
   37.1290   27.0510   40.2860 C   0  0  0  0  0  0  0  0  0  0  0  0
   37.9060   27.0560   41.4120 C   0  0  0  0  0  0  0  0  0  0  0  0
   39.9990   26.8270   44.4970 H   0  0  0  0  0  0  0  0  0  0  0  0
   37.7480   23.7000   41.9150 H   0  0  0  0  0  0  0  0  0  0  0  0
   36.3740   23.7800   39.9060 H   0  0  0  0  0  0  0  0  0  0  0  0
   35.9650   26.0030   38.8280 H   0  0  0  0  0  0  0  0  0  0  0  0
   36.9270   28.0040   39.7850 H   0  0  0  0  0  0  0  0  0  0  0  0
   40.7100   32.8260   40.0650 C   0  0  2  0  0  3  0  0  0  0  0  0
   39.5080   32.3170   39.2800 C   0  0  1  0  0  3  0  0  0  0  0  0
   40.1400   31.7420   38.0840 C   0  0  0  0  0  3  0  0  0  0  0  0
   39.5340   31.0700   37.4840 H   0  0  0  0  0  0  0  0  0  0  0  0
   41.3860   31.2480   38.4590 O   0  0  0  0  0  0  0  0  0  0  0  0
   41.8040   31.9320   39.5600 C   0  0  0  0  0  3  0  0  0  0  0  0
   42.1530   31.2450   40.3870 H   0  0  0  0  0  0  0  0  0  0  0  0
   40.5130   32.7790   41.4350 O   0  0  0  0  0  0  0  0  0  0  0  0
   40.3120   33.7130   41.7530 H   0  0  0  0  0  0  0  0  0  0  0  0
   36.8020   33.2060   39.8880 N   0  0  0  0  0  0  0  0  0  0  0  0
   36.3820   32.8720   38.9700 H   0  0  0  0  0  0  0  0  0  0  0  0
   36.8370   34.1400   40.3530 H   0  0  0  0  0  0  0  0  0  0  0  0
  1  7  1  0  0  0  0
  1  6  1  0  0  0  0
  2  1  2  0  0  0  0
  3  2  1  0  0  0  0
  3  4  2  0  0  0  0
  4  5  1  0  0  0  0
  5  6  2  0  0  0  0
  5  8  1  0  0  0  0
  8  9  1  0  0  0  0
  9 10  2  0  0  0  0
 10 18  1  0  0  0  0
 11 10  1  0  0  0  0
 12 11  2  0  0  0  0
 13 19  1  0  0  0  0
 13 12  1  0  0  0  0
 14 13  2  0  0  0  0
 15 16  2  0  0  0  0
 15 14  1  0  0  0  0
 16 17  1  0  0  0  0
 17  8  2  0  0  0  0
 17 12  1  0  0  0  0
 20 14  1  0  0  0  0
 21 15  1  0  0  0  0
 22 16  1  0  0  0  0
 23 30  1  1  0  0  0
 24 23  1  0  0  0  0
 24  3  1  1  0  0  0
 25 27  1  0  0  0  0
 25 24  1  0  0  0  0
 26 25  1  0  0  0  0
 27 28  1  0  0  0  0
 28 23  1  0  0  0  0
 28 29  1  0  0  0  0
 30 31  1  0  0  0  0
 32  2  1  0  0  0  0
 32 34  1  0  0  0  0
 33 32  1  0  0  0  0
M  END
>  <minimizedAffinity>
-6.16753387

$$$$

 OpenBabel03252502033D

 34 37  0  0  1  0  0  0  0  0999 V2000
   36.2710   30.8000   40.8850 C   0  0  0  0  0  0  0  0  0  0  0  0
   37.2510   31.6520   40.3640 C   0  0  0  0  0  0  0  0  0  0  0  0
   38.4250   31.0980   39.9390 C   0  0  0  0  0  0  0  0  0  0  0  0
   38.5670   29.7660   40.0470 N   0  0  0  0  0  0  0  0  0  0  0  0
   37.6670   28.9400   40.5310 C   0  0  0  0  0  0  0  0  0  0  0  0
   36.5110   29.4880   40.9490 N   0  0  0  0  0  0  0  0  0  0  0  0
   35.3220   31.2410   41.2300 H   0  0  0  0  0  0  0  0  0  0  0  0
   37.6540   27.4870   40.7190 C   0  0  0  0  0  0  0  0  0  0  0  0
   36.9140   26.6310   39.9740 N   0  0  0  0  0  0  0  0  0  0  0  0
   36.8650   25.3150   40.0960 C   0  0  0  0  0  0  0  0  0  0  0  0
   37.6210   24.7170   41.0600 N   0  0  0  0  0  0  0  0  0  0  0  0
   38.4040   25.4550   41.8730 C   0  0  0  0  0  0  0  0  0  0  0  0
   39.1660   24.8410   42.8460 C   0  0  0  0  0  0  0  0  0  0  0  0
   39.9690   25.5840   43.6800 C   0  0  0  0  0  0  0  0  0  0  0  0
   39.9790   26.9490   43.5030 C   0  0  0  0  0  0  0  0  0  0  0  0
   39.2040   27.5140   42.5240 C   0  0  0  0  0  0  0  0  0  0  0  0
   38.3900   26.8210   41.6700 C   0  0  0  0  0  0  0  0  0  0  0  0
   36.2410   24.7240   39.4490 H   0  0  0  0  0  0  0  0  0  0  0  0
   39.1280   23.7620   42.9490 H   0  0  0  0  0  0  0  0  0  0  0  0
   40.5520   25.0700   44.4290 H   0  0  0  0  0  0  0  0  0  0  0  0
   40.6010   27.5580   44.1460 H   0  0  0  0  0  0  0  0  0  0  0  0
   39.2530   28.6040   42.4330 H   0  0  0  0  0  0  0  0  0  0  0  0
   40.4600   32.4290   40.4380 C   0  0  2  0  0  3  0  0  0  0  0  0
   39.4770   31.9150   39.3930 C   0  0  1  0  0  3  0  0  0  0  0  0
   40.3760   31.3760   38.3620 C   0  0  0  0  0  3  0  0  0  0  0  0
   39.9350   30.7070   37.6290 H   0  0  0  0  0  0  0  0  0  0  0  0
   41.5150   30.8960   39.0010 O   0  0  0  0  0  0  0  0  0  0  0  0
   41.6590   31.5640   40.1790 C   0  0  0  0  0  3  0  0  0  0  0  0
   41.8270   30.8670   41.0520 H   0  0  0  0  0  0  0  0  0  0  0  0
   39.9600   32.3500   41.7270 O   0  0  0  0  0  0  0  0  0  0  0  0
   39.6720   33.2730   42.0060 H   0  0  0  0  0  0  0  0  0  0  0  0
   36.9490   33.0280   40.3160 N   0  0  0  0  0  0  0  0  0  0  0  0
   36.4990   33.0560   39.3520 H   0  0  0  0  0  0  0  0  0  0  0  0
   37.1320   33.7620   41.0350 H   0  0  0  0  0  0  0  0  0  0  0  0
  1  6  1  0  0  0  0
  1  7  1  0  0  0  0
  2  1  2  0  0  0  0
  3  4  2  0  0  0  0
  3  2  1  0  0  0  0
  4  5  1  0  0  0  0
  5  8  1  0  0  0  0
  5  6  2  0  0  0  0
  8 17  1  0  0  0  0
  9 10  1  0  0  0  0
  9  8  2  0  0  0  0
 10 11  2  0  0  0  0
 11 12  1  0  0  0  0
 12 13  1  0  0  0  0
 13 19  1  0  0  0  0
 13 14  2  0  0  0  0
 14 20  1  0  0  0  0
 15 14  1  0  0  0  0
 15 21  1  0  0  0  0
 16 15  2  0  0  0  0
 17 12  2  0  0  0  0
 17 16  1  0  0  0  0
 18 10  1  0  0  0  0
 22 16  1  0  0  0  0
 23 30  1  1  0  0  0
 24  3  1  1  0  0  0
 24 23  1  0  0  0  0
 25 27  1  0  0  0  0
 25 24  1  0  0  0  0
 26 25  1  0  0  0  0
 27 28  1  0  0  0  0
 28 23  1  0  0  0  0
 28 29  1  0  0  0  0
 30 31  1  0  0  0  0
 32  2  1  0  0  0  0
 32 34  1  0  0  0  0
 33 32  1  0  0  0  0
M  END
>  <minimizedAffinity>
-6.15475893

$$$$

 OpenBabel03252502033D

 34 37  0  0  1  0  0  0  0  0999 V2000
   37.6180   29.7690   37.8540 C   0  0  0  0  0  0  0  0  0  0  0  0
   38.0590   31.0960   37.7870 C   0  0  0  0  0  0  0  0  0  0  0  0
   38.4780   31.6920   38.9420 C   0  0  0  0  0  0  0  0  0  0  0  0
   38.4410   30.9690   40.0740 N   0  0  0  0  0  0  0  0  0  0  0  0
   38.0320   29.7230   40.1690 C   0  0  0  0  0  0  0  0  0  0  0  0
   37.6210   29.1370   39.0300 N   0  0  0  0  0  0  0  0  0  0  0  0
   37.2790   29.2810   36.9260 H   0  0  0  0  0  0  0  0  0  0  0  0
   37.9270   28.7980   41.3000 C   0  0  0  0  0  0  0  0  0  0  0  0
   36.7540   28.3540   41.8120 N   0  0  0  0  0  0  0  0  0  0  0  0
   36.5980   27.5190   42.8270 C   0  0  0  0  0  0  0  0  0  0  0  0
   37.7080   27.0310   43.4510 N   0  0  0  0  0  0  0  0  0  0  0  0
   38.9400   27.3950   43.0400 C   0  0  0  0  0  0  0  0  0  0  0  0
   40.0580   26.8950   43.6780 C   0  0  0  0  0  0  0  0  0  0  0  0
   41.3190   27.2580   43.2670 C   0  0  0  0  0  0  0  0  0  0  0  0
   41.4170   28.1290   42.2050 C   0  0  0  0  0  0  0  0  0  0  0  0
   40.2790   28.5980   41.6040 C   0  0  0  0  0  0  0  0  0  0  0  0
   39.0030   28.2690   41.9730 C   0  0  0  0  0  0  0  0  0  0  0  0
   35.6160   27.2290   43.1560 H   0  0  0  0  0  0  0  0  0  0  0  0
   39.9340   26.2110   44.5100 H   0  0  0  0  0  0  0  0  0  0  0  0
   42.1710   26.8480   43.7890 H   0  0  0  0  0  0  0  0  0  0  0  0
   42.3970   28.4310   41.8610 H   0  0  0  0  0  0  0  0  0  0  0  0
   40.4200   29.2880   40.7650 H   0  0  0  0  0  0  0  0  0  0  0  0
   38.1700   33.9640   39.8950 C   0  0  2  0  0  3  0  0  0  0  0  0
   38.9440   33.0550   38.9470 C   0  0  1  0  0  3  0  0  0  0  0  0
   40.3390   33.3610   39.2960 C   0  0  0  0  0  3  0  0  0  0  0  0
   41.0940   32.6560   38.9600 H   0  0  0  0  0  0  0  0  0  0  0  0
   40.3780   33.6780   40.6510 O   0  0  0  0  0  0  0  0  0  0  0  0
   39.1490   34.1360   41.0190 C   0  0  0  0  0  3  0  0  0  0  0  0
   38.7610   33.6260   41.9500 H   0  0  0  0  0  0  0  0  0  0  0  0
   36.9490   33.4290   40.2700 O   0  0  0  0  0  0  0  0  0  0  0  0
   36.2290   33.8970   39.7440 H   0  0  0  0  0  0  0  0  0  0  0  0
   38.0400   31.7180   36.5230 N   0  0  0  0  0  0  0  0  0  0  0  0
   39.0140   31.4410   36.1970 H   0  0  0  0  0  0  0  0  0  0  0  0
   37.2750   32.2740   36.0810 H   0  0  0  0  0  0  0  0  0  0  0  0
  1  6  1  0  0  0  0
  2  1  2  0  0  0  0
  2  3  1  0  0  0  0
  3  4  2  0  0  0  0
  4  5  1  0  0  0  0
  5  8  1  0  0  0  0
  6  5  2  0  0  0  0
  7  1  1  0  0  0  0
  8  9  2  0  0  0  0
  8 17  1  0  0  0  0
  9 10  1  0  0  0  0
 10 18  1  0  0  0  0
 10 11  2  0  0  0  0
 12 11  1  0  0  0  0
 12 13  1  0  0  0  0
 13 19  1  0  0  0  0
 14 13  2  0  0  0  0
 14 20  1  0  0  0  0
 15 14  1  0  0  0  0
 16 17  1  0  0  0  0
 16 15  2  0  0  0  0
 17 12  2  0  0  0  0
 21 15  1  0  0  0  0
 22 16  1  0  0  0  0
 23 30  1  1  0  0  0
 23 28  1  0  0  0  0
 24  3  1  1  0  0  0
 24 25  1  0  0  0  0
 24 23  1  0  0  0  0
 25 27  1  0  0  0  0
 26 25  1  0  0  0  0
 27 28  1  0  0  0  0
 28 29  1  0  0  0  0
 31 30  1  0  0  0  0
 32  2  1  0  0  0  0
 33 32  1  0  0  0  0
 34 32  1  0  0  0  0
M  END
>  <minimizedAffinity>
-5.96004915

$$$$

 OpenBabel03252502033D

 34 37  0  0  1  0  0  0  0  0999 V2000
   37.2920   29.5760   42.4470 C   0  0  0  0  0  0  0  0  0  0  0  0
   37.0800   30.5390   41.4530 C   0  0  0  0  0  0  0  0  0  0  0  0
   38.1720   31.0600   40.8200 C   0  0  0  0  0  0  0  0  0  0  0  0
   39.3850   30.6160   41.1900 N   0  0  0  0  0  0  0  0  0  0  0  0
   39.6170   29.7140   42.1190 C   0  0  0  0  0  0  0  0  0  0  0  0
   38.5390   29.2030   42.7410 N   0  0  0  0  0  0  0  0  0  0  0  0
   36.4150   29.1520   42.9620 H   0  0  0  0  0  0  0  0  0  0  0  0
   40.8520   29.1240   42.6410 C   0  0  0  0  0  0  0  0  0  0  0  0
   41.8990   29.8430   43.1100 N   0  0  0  0  0  0  0  0  0  0  0  0
   43.0340   29.3660   43.5940 C   0  0  0  0  0  0  0  0  0  0  0  0
   43.2090   28.0150   43.6440 N   0  0  0  0  0  0  0  0  0  0  0  0
   42.2410   27.1820   43.2080 C   0  0  0  0  0  0  0  0  0  0  0  0
   42.4270   25.8150   43.2630 C   0  0  0  0  0  0  0  0  0  0  0  0
   41.4470   24.9570   42.8210 C   0  0  0  0  0  0  0  0  0  0  0  0
   40.2880   25.5140   42.3290 C   0  0  0  0  0  0  0  0  0  0  0  0
   40.1500   26.8760   42.2940 C   0  0  0  0  0  0  0  0  0  0  0  0
   41.0920   27.7720   42.7200 C   0  0  0  0  0  0  0  0  0  0  0  0
   43.8060   30.0280   43.9420 H   0  0  0  0  0  0  0  0  0  0  0  0
   43.3560   25.4210   43.6590 H   0  0  0  0  0  0  0  0  0  0  0  0
   41.6270   23.8940   42.8790 H   0  0  0  0  0  0  0  0  0  0  0  0
   39.5010   24.8610   41.9750 H   0  0  0  0  0  0  0  0  0  0  0  0
   39.2060   27.2600   41.8910 H   0  0  0  0  0  0  0  0  0  0  0  0
   38.6110   33.4120   40.1600 C   0  0  2  0  0  3  0  0  0  0  0  0
   38.0290   32.0540   39.7880 C   0  0  1  0  0  3  0  0  0  0  0  0
   38.6010   31.8270   38.4540 C   0  0  0  0  0  3  0  0  0  0  0  0
   38.5650   30.8110   38.0720 H   0  0  0  0  0  0  0  0  0  0  0  0
   39.8540   32.4330   38.4210 O   0  0  0  0  0  0  0  0  0  0  0  0
   39.8660   33.4400   39.3380 C   0  0  0  0  0  3  0  0  0  0  0  0
   40.7710   33.3970   40.0140 H   0  0  0  0  0  0  0  0  0  0  0  0
   38.8120   33.5530   41.5230 O   0  0  0  0  0  0  0  0  0  0  0  0
   38.0700   34.1270   41.8900 H   0  0  0  0  0  0  0  0  0  0  0  0
   35.7450   30.8980   41.1780 N   0  0  0  0  0  0  0  0  0  0  0  0
   35.5370   30.1690   40.4320 H   0  0  0  0  0  0  0  0  0  0  0  0
   35.1730   31.6590   41.6050 H   0  0  0  0  0  0  0  0  0  0  0  0
  1  6  1  0  0  0  0
  1  7  1  0  0  0  0
  2  1  2  0  0  0  0
  3  4  2  0  0  0  0
  3  2  1  0  0  0  0
  4  5  1  0  0  0  0
  5  8  1  0  0  0  0
  5  6  2  0  0  0  0
  8 17  2  0  0  0  0
  8  9  1  0  0  0  0
  9 10  2  0  0  0  0
 10 11  1  0  0  0  0
 10 18  1  0  0  0  0
 12 13  1  0  0  0  0
 12 11  2  0  0  0  0
 13 19  1  0  0  0  0
 14 20  1  0  0  0  0
 14 13  2  0  0  0  0
 15 14  1  0  0  0  0
 16 15  2  0  0  0  0
 16 17  1  0  0  0  0
 17 12  1  0  0  0  0
 21 15  1  0  0  0  0
 22 16  1  0  0  0  0
 23 30  1  1  0  0  0
 24 23  1  0  0  0  0
 24  3  1  1  0  0  0
 25 24  1  0  0  0  0
 26 25  1  0  0  0  0
 27 25  1  0  0  0  0
 27 28  1  0  0  0  0
 28 29  1  0  0  0  0
 28 23  1  0  0  0  0
 30 31  1  0  0  0  0
 32  2  1  0  0  0  0
 32 34  1  0  0  0  0
 33 32  1  0  0  0  0
M  END
>  <minimizedAffinity>
-5.87874556

$$$$

 OpenBabel03252502033D

 34 37  0  0  1  0  0  0  0  0999 V2000
   39.3770   30.4050   42.6260 C   0  0  0  0  0  0  0  0  0  0  0  0
   38.2330   29.6090   42.4970 C   0  0  0  0  0  0  0  0  0  0  0  0
   37.7380   29.3960   41.2420 C   0  0  0  0  0  0  0  0  0  0  0  0
   38.3800   29.9630   40.2070 N   0  0  0  0  0  0  0  0  0  0  0  0
   39.4550   30.7150   40.2960 C   0  0  0  0  0  0  0  0  0  0  0  0
   39.9410   30.9240   41.5340 N   0  0  0  0  0  0  0  0  0  0  0  0
   39.7820   30.5810   43.6360 H   0  0  0  0  0  0  0  0  0  0  0  0
   40.2700   31.4020   39.2910 C   0  0  0  0  0  0  0  0  0  0  0  0
   40.3870   32.7480   39.1990 N   0  0  0  0  0  0  0  0  0  0  0  0
   41.1080   33.4210   38.3170 C   0  0  0  0  0  0  0  0  0  0  0  0
   41.8240   32.7260   37.3880 N   0  0  0  0  0  0  0  0  0  0  0  0
   41.7950   31.3780   37.3690 C   0  0  0  0  0  0  0  0  0  0  0  0
   42.5230   30.6830   36.4240 C   0  0  0  0  0  0  0  0  0  0  0  0
   42.5020   29.3080   36.3960 C   0  0  0  0  0  0  0  0  0  0  0  0
   41.7340   28.6640   37.3390 C   0  0  0  0  0  0  0  0  0  0  0  0
   41.0280   29.3970   38.2570 C   0  0  0  0  0  0  0  0  0  0  0  0
   41.0150   30.7630   38.3280 C   0  0  0  0  0  0  0  0  0  0  0  0
   41.1320   34.4960   38.3310 H   0  0  0  0  0  0  0  0  0  0  0  0
   43.1150   31.2320   35.7000 H   0  0  0  0  0  0  0  0  0  0  0  0
   43.0830   28.7970   35.6430 H   0  0  0  0  0  0  0  0  0  0  0  0
   41.6980   27.5830   37.3400 H   0  0  0  0  0  0  0  0  0  0  0  0
   40.4340   28.8290   38.9820 H   0  0  0  0  0  0  0  0  0  0  0  0
   35.3160   29.3960   40.6980 C   0  0  2  0  0  3  0  0  0  0  0  0
   36.5640   28.5880   41.0340 C   0  0  1  0  0  3  0  0  0  0  0  0
   36.5510   27.5510   39.9930 C   0  0  0  0  0  3  0  0  0  0  0  0
   37.4750   27.0030   39.8350 H   0  0  0  0  0  0  0  0  0  0  0  0
   35.9830   28.1050   38.8490 O   0  0  0  0  0  0  0  0  0  0  0  0
   35.1670   29.1270   39.2290 C   0  0  0  0  0  3  0  0  0  0  0  0
   35.3610   30.0740   38.6430 H   0  0  0  0  0  0  0  0  0  0  0  0
   35.4390   30.7340   41.0300 O   0  0  0  0  0  0  0  0  0  0  0  0
   34.9250   30.8930   41.8810 H   0  0  0  0  0  0  0  0  0  0  0  0
   37.6770   29.0830   43.6790 N   0  0  0  0  0  0  0  0  0  0  0  0
   38.2300   28.1750   43.7230 H   0  0  0  0  0  0  0  0  0  0  0  0
   36.9430   29.4960   44.2960 H   0  0  0  0  0  0  0  0  0  0  0  0
  1  7  1  0  0  0  0
  2  1  1  0  0  0  0
  2 32  1  0  0  0  0
  3  2  2  0  0  0  0
  4  5  2  0  0  0  0
  4  3  1  0  0  0  0
  5  6  1  0  0  0  0
  6  1  2  0  0  0  0
  8  5  1  0  0  0  0
  9  8  1  0  0  0  0
 10 18  1  0  0  0  0
 10  9  2  0  0  0  0
 11 10  1  0  0  0  0
 12 11  2  0  0  0  0
 12 17  1  0  0  0  0
 13 12  1  0  0  0  0
 14 13  2  0  0  0  0
 14 15  1  0  0  0  0
 15 21  1  0  0  0  0
 15 16  2  0  0  0  0
 16 17  1  0  0  0  0
 16 22  1  0  0  0  0
 17  8  2  0  0  0  0
 19 13  1  0  0  0  0
 20 14  1  0  0  0  0
 23 30  1  6  0  0  0
 23 24  1  0  0  0  0
 24  3  1  6  0  0  0
 25 24  1  0  0  0  0
 26 25  1  0  0  0  0
 27 28  1  0  0  0  0
 27 25  1  0  0  0  0
 28 23  1  0  0  0  0
 29 28  1  0  0  0  0
 30 31  1  0  0  0  0
 32 33  1  0  0  0  0
 32 34  1  0  0  0  0
M  END
>  <minimizedAffinity>
-5.7834096

$$$$

 OpenBabel03252502033D

 34 37  0  0  1  0  0  0  0  0999 V2000
   37.1960   32.1410   39.8310 C   0  0  0  0  0  0  0  0  0  0  0  0
   36.9370   31.1060   40.7370 C   0  0  0  0  0  0  0  0  0  0  0  0
   37.9550   30.2470   41.0390 C   0  0  0  0  0  0  0  0  0  0  0  0
   39.1450   30.4490   40.4490 N   0  0  0  0  0  0  0  0  0  0  0  0
   39.4200   31.4110   39.5950 C   0  0  0  0  0  0  0  0  0  0  0  0
   38.4150   32.2550   39.2980 N   0  0  0  0  0  0  0  0  0  0  0  0
   36.3790   32.8370   39.5820 H   0  0  0  0  0  0  0  0  0  0  0  0
   40.6390   31.7740   38.8680 C   0  0  0  0  0  0  0  0  0  0  0  0
   40.9050   31.3960   37.5950 N   0  0  0  0  0  0  0  0  0  0  0  0
   41.9840   31.6950   36.8900 C   0  0  0  0  0  0  0  0  0  0  0  0
   42.9540   32.4600   37.4670 N   0  0  0  0  0  0  0  0  0  0  0  0
   42.8130   32.9030   38.7340 C   0  0  0  0  0  0  0  0  0  0  0  0
   43.8000   33.6780   39.3090 C   0  0  0  0  0  0  0  0  0  0  0  0
   43.6670   34.1350   40.5990 C   0  0  0  0  0  0  0  0  0  0  0  0
   42.5220   33.7920   41.2820 C   0  0  0  0  0  0  0  0  0  0  0  0
   41.5710   33.0210   40.6680 C   0  0  0  0  0  0  0  0  0  0  0  0
   41.6540   32.5410   39.3900 C   0  0  0  0  0  0  0  0  0  0  0  0
   42.0980   31.3420   35.8800 H   0  0  0  0  0  0  0  0  0  0  0  0
   44.6860   33.9240   38.7340 H   0  0  0  0  0  0  0  0  0  0  0  0
   44.4590   34.7390   41.0180 H   0  0  0  0  0  0  0  0  0  0  0  0
   42.3920   34.1390   42.2980 H   0  0  0  0  0  0  0  0  0  0  0  0
   40.6820   32.7800   41.2620 H   0  0  0  0  0  0  0  0  0  0  0  0
   38.0110   27.7850   41.3520 C   0  0  2  0  0  3  0  0  0  0  0  0
   37.7600   29.1590   41.9620 C   0  0  1  0  0  3  0  0  0  0  0  0
   38.5400   29.0920   43.2060 C   0  0  0  0  0  3  0  0  0  0  0  0
   38.7550   30.0350   43.7010 H   0  0  0  0  0  0  0  0  0  0  0  0
   39.6430   28.2750   42.9720 O   0  0  0  0  0  0  0  0  0  0  0  0
   39.3350   27.4210   41.9570 C   0  0  0  0  0  3  0  0  0  0  0  0
   40.1310   27.3980   41.1560 H   0  0  0  0  0  0  0  0  0  0  0  0
   37.9950   27.8040   39.9680 O   0  0  0  0  0  0  0  0  0  0  0  0
   37.1130   27.4280   39.6610 H   0  0  0  0  0  0  0  0  0  0  0  0
   35.6370   31.0290   41.2730 N   0  0  0  0  0  0  0  0  0  0  0  0
   35.7790   31.6540   42.1210 H   0  0  0  0  0  0  0  0  0  0  0  0
   34.8110   30.5030   40.9100 H   0  0  0  0  0  0  0  0  0  0  0  0
  1  2  1  0  0  0  0
  2  3  2  0  0  0  0
  2 32  1  0  0  0  0
  4  3  1  0  0  0  0
  5  4  2  0  0  0  0
  6  5  1  0  0  0  0
  6  1  2  0  0  0  0
  7  1  1  0  0  0  0
  8 17  1  0  0  0  0
  8  5  1  0  0  0  0
  9  8  2  0  0  0  0
 10 11  2  0  0  0  0
 10  9  1  0  0  0  0
 11 12  1  0  0  0  0
 12 13  2  0  0  0  0
 12 17  1  0  0  0  0
 13 14  1  0  0  0  0
 14 20  1  0  0  0  0
 14 15  2  0  0  0  0
 15 21  1  0  0  0  0
 16 22  1  0  0  0  0
 16 15  1  0  0  0  0
 17 16  2  0  0  0  0
 18 10  1  0  0  0  0
 19 13  1  0  0  0  0
 23 30  1  6  0  0  0
 23 28  1  0  0  0  0
 23 24  1  0  0  0  0
 24  3  1  6  0  0  0
 24 25  1  0  0  0  0
 25 26  1  0  0  0  0
 27 25  1  0  0  0  0
 28 27  1  0  0  0  0
 29 28  1  0  0  0  0
 31 30  1  0  0  0  0
 32 33  1  0  0  0  0
 34 32  1  0  0  0  0
M  END
>  <minimizedAffinity>
-5.73928165

$$$$

 OpenBabel03252502033D

 34 37  0  0  1  0  0  0  0  0999 V2000
   39.0700   31.8480   39.8070 C   0  0  0  0  0  0  0  0  0  0  0  0
   39.3320   31.3550   41.0900 C   0  0  0  0  0  0  0  0  0  0  0  0
   39.0240   30.0510   41.3530 C   0  0  0  0  0  0  0  0  0  0  0  0
   38.4870   29.3190   40.3620 N   0  0  0  0  0  0  0  0  0  0  0  0
   38.2290   29.7520   39.1470 C   0  0  0  0  0  0  0  0  0  0  0  0
   38.5340   31.0380   38.8910 N   0  0  0  0  0  0  0  0  0  0  0  0
   39.3160   32.8990   39.5880 H   0  0  0  0  0  0  0  0  0  0  0  0
   37.6570   29.1050   37.9640 C   0  0  0  0  0  0  0  0  0  0  0  0
   38.3880   28.6610   36.9130 N   0  0  0  0  0  0  0  0  0  0  0  0
   37.9280   28.0690   35.8240 C   0  0  0  0  0  0  0  0  0  0  0  0
   36.5850   27.8640   35.7050 N   0  0  0  0  0  0  0  0  0  0  0  0
   35.7430   28.2590   36.6830 C   0  0  0  0  0  0  0  0  0  0  0  0
   34.3850   28.0470   36.5540 C   0  0  0  0  0  0  0  0  0  0  0  0
   33.5180   28.4450   37.5440 C   0  0  0  0  0  0  0  0  0  0  0  0
   34.0560   29.0560   38.6550 C   0  0  0  0  0  0  0  0  0  0  0  0
   35.4110   29.2450   38.7370 C   0  0  0  0  0  0  0  0  0  0  0  0
   36.3150   28.8680   37.7820 C   0  0  0  0  0  0  0  0  0  0  0  0
   38.5970   27.7530   35.0440 H   0  0  0  0  0  0  0  0  0  0  0  0
   34.0050   27.5620   35.6620 H   0  0  0  0  0  0  0  0  0  0  0  0
   32.4620   28.2640   37.4110 H   0  0  0  0  0  0  0  0  0  0  0  0
   33.3970   29.3790   39.4490 H   0  0  0  0  0  0  0  0  0  0  0  0
   35.7800   29.7360   39.6440 H   0  0  0  0  0  0  0  0  0  0  0  0
   38.0000   29.0150   43.3630 C   0  0  2  0  0  3  0  0  0  0  0  0
   39.2660   29.4770   42.6510 C   0  0  1  0  0  3  0  0  0  0  0  0
   40.1450   28.3080   42.7940 C   0  0  0  0  0  3  0  0  0  0  0  0
   41.0140   28.2660   42.1440 H   0  0  0  0  0  0  0  0  0  0  0  0
   39.3430   27.1710   42.7940 O   0  0  0  0  0  0  0  0  0  0  0  0
   38.0990   27.5240   43.2230 C   0  0  0  0  0  3  0  0  0  0  0  0
   37.2840   27.1460   42.5370 H   0  0  0  0  0  0  0  0  0  0  0  0
   36.8510   29.5690   42.8240 O   0  0  0  0  0  0  0  0  0  0  0  0
   36.5440   30.3060   43.4370 H   0  0  0  0  0  0  0  0  0  0  0  0
   39.9000   32.2480   42.0200 N   0  0  0  0  0  0  0  0  0  0  0  0
   40.9260   32.0660   41.8060 H   0  0  0  0  0  0  0  0  0  0  0  0
   39.4180   32.8810   42.6960 H   0  0  0  0  0  0  0  0  0  0  0  0
  1  2  1  0  0  0  0
  2  3  2  0  0  0  0
  2 32  1  0  0  0  0
  4  3  1  0  0  0  0
  5  4  2  0  0  0  0
  6  5  1  0  0  0  0
  6  1  2  0  0  0  0
  7  1  1  0  0  0  0
  8  5  1  0  0  0  0
  9  8  2  0  0  0  0
 10  9  1  0  0  0  0
 11 10  2  0  0  0  0
 11 12  1  0  0  0  0
 12 17  1  0  0  0  0
 13 12  2  0  0  0  0
 13 14  1  0  0  0  0
 14 15  2  0  0  0  0
 15 16  1  0  0  0  0
 15 21  1  0  0  0  0
 16 22  1  0  0  0  0
 17  8  1  0  0  0  0
 17 16  2  0  0  0  0
 18 10  1  0  0  0  0
 19 13  1  0  0  0  0
 20 14  1  0  0  0  0
 23 30  1  6  0  0  0
 24  3  1  6  0  0  0
 24 25  1  0  0  0  0
 24 23  1  0  0  0  0
 25 27  1  0  0  0  0
 26 25  1  0  0  0  0
 27 28  1  0  0  0  0
 28 23  1  0  0  0  0
 29 28  1  0  0  0  0
 30 31  1  0  0  0  0
 32 34  1  0  0  0  0
 33 32  1  0  0  0  0
M  END
>  <minimizedAffinity>
-5.71104193

$$$$
