
 OpenBabel03242520523D

 22 23  0  0  1  0  0  0  0  0999 V2000
   37.2750   28.1510   43.6790 C   0  0  0  0  0  0  0  0  0  0  0  0
   36.9800   26.9870   42.9700 C   0  0  0  0  0  0  0  0  0  0  0  0
   37.0360   26.9690   41.5760 C   0  0  0  0  0  0  0  0  0  0  0  0
   37.3860   28.1330   40.9730 N   0  0  0  0  0  0  0  0  0  0  0  0
   37.6690   29.2520   41.6550 C   0  0  0  0  0  0  0  0  0  0  0  0
   37.6100   29.2520   43.0070 N   0  0  0  0  0  0  0  0  0  0  0  0
   37.2190   28.1150   44.7590 H   0  0  0  0  0  0  0  0  0  0  0  0
   36.7020   26.0510   43.4100 H   0  0  0  0  0  0  0  0  0  0  0  0
   36.9100   31.3960   40.6280 C   0  0  1  0  0  3  0  0  0  0  0  0
   38.0380   30.4620   40.9050 C   0  0  2  0  0  3  0  0  0  0  0  0
   38.4700   30.0160   39.5100 C   0  0  0  0  0  3  0  0  0  0  0  0
   39.1410   30.8190   39.1260 H   0  0  0  0  0  0  0  0  0  0  0  0
   37.2470   29.9790   38.8200 O   0  0  0  0  0  0  0  0  0  0  0  0
   36.7190   31.2530   39.1300 C   0  0  0  0  0  3  0  0  0  0  0  0
   35.6360   31.2840   38.8830 H   0  0  0  0  0  0  0  0  0  0  0  0
   35.7330   31.0910   41.3080 O   0  0  0  0  0  0  0  0  0  0  0  0
   35.0490   30.8260   40.6290 H   0  0  0  0  0  0  0  0  0  0  0  0
   36.7720   25.8980   40.7660 O   0  0  0  0  0  0  0  0  0  0  0  0
   37.6790   24.7960   40.8500 C   0  0  0  0  0  0  0  0  0  0  0  0
   37.2160   23.8720   41.7750 F   0  0  0  0  0  0  0  0  0  0  0  0
   37.7310   24.1780   39.6020 F   0  0  0  0  0  0  0  0  0  0  0  0
   38.9790   25.2220   41.1530 F   0  0  0  0  0  0  0  0  0  0  0  0
  1  7  1  0  0  0  0
  2  8  1  0  0  0  0
  2  1  2  0  0  0  0
  3  2  1  0  0  0  0
  4  3  2  0  0  0  0
  4  5  1  0  0  0  0
  5  6  2  0  0  0  0
  6  1  1  0  0  0  0
  9 10  1  0  0  0  0
  9 16  1  1  0  0  0
 10  5  1  1  0  0  0
 11 10  1  0  0  0  0
 12 11  1  0  0  0  0
 13 14  1  0  0  0  0
 13 11  1  0  0  0  0
 14  9  1  0  0  0  0
 15 14  1  0  0  0  0
 17 16  1  0  0  0  0
 18 19  1  0  0  0  0
 18  3  1  0  0  0  0
 19 22  1  0  0  0  0
 19 20  1  0  0  0  0
 21 19  1  0  0  0  0
M  END
>  <minimizedAffinity>
-4.83503199

$$$$

 OpenBabel03242520523D

 22 23  0  0  1  0  0  0  0  0999 V2000
   38.5840   29.3430   38.9700 C   0  0  0  0  0  0  0  0  0  0  0  0
   37.6440   28.6690   39.7490 C   0  0  0  0  0  0  0  0  0  0  0  0
   37.2660   29.1630   40.9960 C   0  0  0  0  0  0  0  0  0  0  0  0
   37.8620   30.3160   41.3920 N   0  0  0  0  0  0  0  0  0  0  0  0
   38.7660   30.9640   40.6440 C   0  0  0  0  0  0  0  0  0  0  0  0
   39.1220   30.4700   39.4350 N   0  0  0  0  0  0  0  0  0  0  0  0
   38.8440   28.9200   38.0090 H   0  0  0  0  0  0  0  0  0  0  0  0
   37.1520   27.7590   39.4700 H   0  0  0  0  0  0  0  0  0  0  0  0
   38.5720   33.4420   40.8720 C   0  0  1  0  0  3  0  0  0  0  0  0
   39.3540   32.2080   41.1650 C   0  0  2  0  0  3  0  0  0  0  0  0
   40.6630   32.4400   40.4100 C   0  0  0  0  0  3  0  0  0  0  0  0
   41.2900   33.0760   41.0760 H   0  0  0  0  0  0  0  0  0  0  0  0
   40.2280   33.1380   39.2720 O   0  0  0  0  0  0  0  0  0  0  0  0
   39.4450   34.1590   39.8600 C   0  0  0  0  0  3  0  0  0  0  0  0
   38.8090   34.6410   39.0870 H   0  0  0  0  0  0  0  0  0  0  0  0
   37.3020   33.2050   40.3490 O   0  0  0  0  0  0  0  0  0  0  0  0
   37.2890   33.5520   39.4120 H   0  0  0  0  0  0  0  0  0  0  0  0
   36.3590   28.6010   41.8530 O   0  0  0  0  0  0  0  0  0  0  0  0
   36.8540   27.5880   42.7320 C   0  0  0  0  0  0  0  0  0  0  0  0
   35.8890   27.2690   43.6760 F   0  0  0  0  0  0  0  0  0  0  0  0
   37.1210   26.4480   41.9770 F   0  0  0  0  0  0  0  0  0  0  0  0
   38.0580   27.9740   43.3350 F   0  0  0  0  0  0  0  0  0  0  0  0
  1  6  2  0  0  0  0
  1  2  1  0  0  0  0
  2  3  2  0  0  0  0
  3  4  1  0  0  0  0
  3 18  1  0  0  0  0
  5  4  2  0  0  0  0
  6  5  1  0  0  0  0
  7  1  1  0  0  0  0
  8  2  1  0  0  0  0
  9 16  1  6  0  0  0
  9 10  1  0  0  0  0
 10  5  1  6  0  0  0
 11 12  1  0  0  0  0
 11 10  1  0  0  0  0
 13 14  1  0  0  0  0
 13 11  1  0  0  0  0
 14  9  1  0  0  0  0
 15 14  1  0  0  0  0
 17 16  1  0  0  0  0
 18 19  1  0  0  0  0
 19 22  1  0  0  0  0
 19 20  1  0  0  0  0
 21 19  1  0  0  0  0
M  END
>  <minimizedAffinity>
-4.69445133

$$$$

 OpenBabel03242520523D

 22 23  0  0  1  0  0  0  0  0999 V2000
   39.0310   29.6170   42.8040 C   0  0  0  0  0  0  0  0  0  0  0  0
   38.5330   28.3640   43.1610 C   0  0  0  0  0  0  0  0  0  0  0  0
   37.3240   27.9030   42.6420 C   0  0  0  0  0  0  0  0  0  0  0  0
   36.6790   28.7380   41.7880 N   0  0  0  0  0  0  0  0  0  0  0  0
   37.1560   29.9430   41.4450 C   0  0  0  0  0  0  0  0  0  0  0  0
   38.3330   30.3740   41.9590 N   0  0  0  0  0  0  0  0  0  0  0  0
   39.9730   29.9300   43.2320 H   0  0  0  0  0  0  0  0  0  0  0  0
   39.0130   27.6780   43.8290 H   0  0  0  0  0  0  0  0  0  0  0  0
   36.2730   30.2260   39.1290 C   0  0  1  0  0  3  0  0  0  0  0  0
   36.3800   30.7720   40.5110 C   0  0  2  0  0  3  0  0  0  0  0  0
   37.1540   32.0740   40.3120 C   0  0  0  0  0  3  0  0  0  0  0  0
   36.4000   32.8320   39.9980 H   0  0  0  0  0  0  0  0  0  0  0  0
   38.0280   31.7390   39.2650 O   0  0  0  0  0  0  0  0  0  0  0  0
   37.1310   31.1830   38.3240 C   0  0  0  0  0  3  0  0  0  0  0  0
   37.6950   30.6240   37.5480 H   0  0  0  0  0  0  0  0  0  0  0  0
   36.7310   28.9170   38.9920 O   0  0  0  0  0  0  0  0  0  0  0  0
   37.5400   28.9380   38.4060 H   0  0  0  0  0  0  0  0  0  0  0  0
   36.7300   26.7000   42.9100 O   0  0  0  0  0  0  0  0  0  0  0  0
   37.2540   25.5620   42.2200 C   0  0  0  0  0  0  0  0  0  0  0  0
   38.4590   25.1790   42.7880 F   0  0  0  0  0  0  0  0  0  0  0  0
   36.3490   24.5120   42.3620 F   0  0  0  0  0  0  0  0  0  0  0  0
   37.3850   25.8090   40.8480 F   0  0  0  0  0  0  0  0  0  0  0  0
  1  2  1  0  0  0  0
  1  7  1  0  0  0  0
  2  8  1  0  0  0  0
  3 18  1  0  0  0  0
  3  2  2  0  0  0  0
  4  3  1  0  0  0  0
  5  4  2  0  0  0  0
  5  6  1  0  0  0  0
  6  1  2  0  0  0  0
  9 16  1  1  0  0  0
  9 10  1  0  0  0  0
 10  5  1  1  0  0  0
 11 10  1  0  0  0  0
 12 11  1  0  0  0  0
 13 11  1  0  0  0  0
 14  9  1  0  0  0  0
 14 13  1  0  0  0  0
 15 14  1  0  0  0  0
 17 16  1  0  0  0  0
 19 21  1  0  0  0  0
 19 20  1  0  0  0  0
 19 18  1  0  0  0  0
 22 19  1  0  0  0  0
M  END
>  <minimizedAffinity>
-4.66294622

$$$$

 OpenBabel03242520523D

 22 23  0  0  1  0  0  0  0  0999 V2000
   36.5720   31.1470   40.0210 C   0  0  0  0  0  0  0  0  0  0  0  0
   36.2910   30.3990   41.1640 C   0  0  0  0  0  0  0  0  0  0  0  0
   37.3200   29.8410   41.9210 C   0  0  0  0  0  0  0  0  0  0  0  0
   38.5830   30.0690   41.4810 N   0  0  0  0  0  0  0  0  0  0  0  0
   38.8540   30.7880   40.3820 C   0  0  0  0  0  0  0  0  0  0  0  0
   37.8420   31.3220   39.6580 N   0  0  0  0  0  0  0  0  0  0  0  0
   35.7400   31.5600   39.4670 H   0  0  0  0  0  0  0  0  0  0  0  0
   35.3090   30.1990   41.5420 H   0  0  0  0  0  0  0  0  0  0  0  0
   41.0710   31.7910   40.9360 C   0  0  1  0  0  3  0  0  0  0  0  0
   40.2580   30.9770   39.9890 C   0  0  2  0  0  3  0  0  0  0  0  0
   40.2620   31.8210   38.7150 C   0  0  0  0  0  3  0  0  0  0  0  0
   41.2210   31.5890   38.1980 H   0  0  0  0  0  0  0  0  0  0  0  0
   40.2440   33.1280   39.2280 O   0  0  0  0  0  0  0  0  0  0  0  0
   41.3060   33.0720   40.1600 C   0  0  0  0  0  3  0  0  0  0  0  0
   41.2550   33.9440   40.8450 H   0  0  0  0  0  0  0  0  0  0  0  0
   40.4390   32.0570   42.1490 O   0  0  0  0  0  0  0  0  0  0  0  0
   40.2740   33.0420   42.1970 H   0  0  0  0  0  0  0  0  0  0  0  0
   37.1790   29.0920   43.0570 O   0  0  0  0  0  0  0  0  0  0  0  0
   37.0540   27.6780   42.8790 C   0  0  0  0  0  0  0  0  0  0  0  0
   36.0320   27.1900   43.6800 F   0  0  0  0  0  0  0  0  0  0  0  0
   36.7220   27.4350   41.5470 F   0  0  0  0  0  0  0  0  0  0  0  0
   38.2650   27.0200   43.1280 F   0  0  0  0  0  0  0  0  0  0  0  0
  1  2  1  0  0  0  0
  2  8  1  0  0  0  0
  2  3  2  0  0  0  0
  3 18  1  0  0  0  0
  4  3  1  0  0  0  0
  5  4  2  0  0  0  0
  6  1  2  0  0  0  0
  6  5  1  0  0  0  0
  7  1  1  0  0  0  0
  9 16  1  1  0  0  0
 10  5  1  1  0  0  0
 10  9  1  0  0  0  0
 11 13  1  0  0  0  0
 11 10  1  0  0  0  0
 12 11  1  0  0  0  0
 13 14  1  0  0  0  0
 14 15  1  0  0  0  0
 14  9  1  0  0  0  0
 16 17  1  0  0  0  0
 19 18  1  0  0  0  0
 19 22  1  0  0  0  0
 19 20  1  0  0  0  0
 21 19  1  0  0  0  0
M  END
>  <minimizedAffinity>
-4.54758263

$$$$

 OpenBabel03242520523D

 22 23  0  0  1  0  0  0  0  0999 V2000
   36.2480   28.3790   38.5630 C   0  0  0  0  0  0  0  0  0  0  0  0
   36.6290   27.3780   39.4560 C   0  0  0  0  0  0  0  0  0  0  0  0
   37.5640   27.6340   40.4570 C   0  0  0  0  0  0  0  0  0  0  0  0
   38.0680   28.8930   40.5020 N   0  0  0  0  0  0  0  0  0  0  0  0
   37.7030   29.8560   39.6430 C   0  0  0  0  0  0  0  0  0  0  0  0
   36.7930   29.5900   38.6770 N   0  0  0  0  0  0  0  0  0  0  0  0
   35.5190   28.1320   37.8030 H   0  0  0  0  0  0  0  0  0  0  0  0
   36.2530   26.3750   39.4520 H   0  0  0  0  0  0  0  0  0  0  0  0
   37.4250   32.2210   40.3920 C   0  0  1  0  0  3  0  0  0  0  0  0
   38.3090   31.1900   39.7770 C   0  0  2  0  0  3  0  0  0  0  0  0
   38.5370   31.7260   38.3640 C   0  0  0  0  0  3  0  0  0  0  0  0
   39.3580   32.4740   38.4510 H   0  0  0  0  0  0  0  0  0  0  0  0
   37.3020   32.3310   38.0760 O   0  0  0  0  0  0  0  0  0  0  0  0
   37.1170   33.1370   39.2230 C   0  0  0  0  0  3  0  0  0  0  0  0
   36.0610   33.4780   39.2790 H   0  0  0  0  0  0  0  0  0  0  0  0
   36.2520   31.7140   40.9460 O   0  0  0  0  0  0  0  0  0  0  0  0
   35.4850   32.0670   40.4110 H   0  0  0  0  0  0  0  0  0  0  0  0
   38.0190   26.7440   41.3920 O   0  0  0  0  0  0  0  0  0  0  0  0
   37.2480   26.6260   42.5900 C   0  0  0  0  0  0  0  0  0  0  0  0
   36.6540   25.3750   42.6480 F   0  0  0  0  0  0  0  0  0  0  0  0
   38.1100   26.7530   43.6780 F   0  0  0  0  0  0  0  0  0  0  0  0
   36.3000   27.6530   42.6940 F   0  0  0  0  0  0  0  0  0  0  0  0
  1  6  2  0  0  0  0
  1  2  1  0  0  0  0
  2  3  2  0  0  0  0
  3  4  1  0  0  0  0
  3 18  1  0  0  0  0
  5  4  2  0  0  0  0
  6  5  1  0  0  0  0
  7  1  1  0  0  0  0
  8  2  1  0  0  0  0
  9 16  1  6  0  0  0
 10  5  1  6  0  0  0
 10  9  1  0  0  0  0
 11 12  1  0  0  0  0
 11 10  1  0  0  0  0
 13 11  1  0  0  0  0
 13 14  1  0  0  0  0
 14 15  1  0  0  0  0
 14  9  1  0  0  0  0
 17 16  1  0  0  0  0
 18 19  1  0  0  0  0
 19 20  1  0  0  0  0
 19 22  1  0  0  0  0
 19 21  1  0  0  0  0
M  END
>  <minimizedAffinity>
-4.52813864

$$$$

 OpenBabel03242520523D

 22 23  0  0  1  0  0  0  0  0999 V2000
   39.5940   31.1850   42.0860 C   0  0  0  0  0  0  0  0  0  0  0  0
   38.6630   31.5690   41.1210 C   0  0  0  0  0  0  0  0  0  0  0  0
   37.4900   30.8380   40.9330 C   0  0  0  0  0  0  0  0  0  0  0  0
   37.3210   29.7550   41.7320 N   0  0  0  0  0  0  0  0  0  0  0  0
   38.2170   29.3860   42.6600 C   0  0  0  0  0  0  0  0  0  0  0  0
   39.3500   30.1070   42.8290 N   0  0  0  0  0  0  0  0  0  0  0  0
   40.4880   31.7840   42.1940 H   0  0  0  0  0  0  0  0  0  0  0  0
   38.7600   32.4160   40.4740 H   0  0  0  0  0  0  0  0  0  0  0  0
   38.9050   27.0720   43.2950 C   0  0  1  0  0  3  0  0  0  0  0  0
   37.9400   28.1940   43.4750 C   0  0  2  0  0  3  0  0  0  0  0  0
   36.6220   27.6010   42.9770 C   0  0  0  0  0  3  0  0  0  0  0  0
   36.2080   27.0180   43.8310 H   0  0  0  0  0  0  0  0  0  0  0  0
   37.0510   26.7680   41.9310 O   0  0  0  0  0  0  0  0  0  0  0  0
   38.0750   26.0310   42.5690 C   0  0  0  0  0  3  0  0  0  0  0  0
   38.6990   25.5150   41.8080 H   0  0  0  0  0  0  0  0  0  0  0  0
   40.0380   27.4050   42.5560 O   0  0  0  0  0  0  0  0  0  0  0  0
   40.0110   26.8830   41.7040 H   0  0  0  0  0  0  0  0  0  0  0  0
   36.5010   31.1080   40.0270 O   0  0  0  0  0  0  0  0  0  0  0  0
   36.7820   30.7890   38.6610 C   0  0  0  0  0  0  0  0  0  0  0  0
   37.1270   31.9400   37.9690 F   0  0  0  0  0  0  0  0  0  0  0  0
   37.8680   29.9170   38.6320 F   0  0  0  0  0  0  0  0  0  0  0  0
   35.7050   30.1260   38.0570 F   0  0  0  0  0  0  0  0  0  0  0  0
  1  7  1  0  0  0  0
  1  6  1  0  0  0  0
  2  1  2  0  0  0  0
  3  2  1  0  0  0  0
  3  4  2  0  0  0  0
  4  5  1  0  0  0  0
  5  6  2  0  0  0  0
  8  2  1  0  0  0  0
  9 16  1  6  0  0  0
  9 10  1  0  0  0  0
 10  5  1  6  0  0  0
 11 10  1  0  0  0  0
 11 12  1  0  0  0  0
 13 14  1  0  0  0  0
 13 11  1  0  0  0  0
 14  9  1  0  0  0  0
 15 14  1  0  0  0  0
 17 16  1  0  0  0  0
 18  3  1  0  0  0  0
 19 18  1  0  0  0  0
 20 19  1  0  0  0  0
 21 19  1  0  0  0  0
 22 19  1  0  0  0  0
M  END
>  <minimizedAffinity>
-4.52709484

$$$$

 OpenBabel03242520523D

 22 23  0  0  1  0  0  0  0  0999 V2000
   35.4900   28.9190   40.3730 C   0  0  0  0  0  0  0  0  0  0  0  0
   35.7650   30.2280   39.9760 C   0  0  0  0  0  0  0  0  0  0  0  0
   36.6810   31.0080   40.6810 C   0  0  0  0  0  0  0  0  0  0  0  0
   37.2720   30.4220   41.7520 N   0  0  0  0  0  0  0  0  0  0  0  0
   37.0080   29.1640   42.1340 C   0  0  0  0  0  0  0  0  0  0  0  0
   36.1150   28.4210   41.4390 N   0  0  0  0  0  0  0  0  0  0  0  0
   34.7730   28.3530   39.7940 H   0  0  0  0  0  0  0  0  0  0  0  0
   35.3210   30.7230   39.1370 H   0  0  0  0  0  0  0  0  0  0  0  0
   39.1370   28.2850   43.0930 C   0  0  1  0  0  3  0  0  0  0  0  0
   37.7020   28.6220   43.3120 C   0  0  2  0  0  3  0  0  0  0  0  0
   37.0710   27.2660   43.6240 C   0  0  0  0  0  3  0  0  0  0  0  0
   37.2620   27.0820   44.7060 H   0  0  0  0  0  0  0  0  0  0  0  0
   37.8140   26.3990   42.8050 O   0  0  0  0  0  0  0  0  0  0  0  0
   39.1360   26.7700   43.1420 C   0  0  0  0  0  3  0  0  0  0  0  0
   39.8460   26.3670   42.3880 H   0  0  0  0  0  0  0  0  0  0  0  0
   39.6550   28.7410   41.8830 O   0  0  0  0  0  0  0  0  0  0  0  0
   39.8790   27.9400   41.3270 H   0  0  0  0  0  0  0  0  0  0  0  0
   37.0390   32.2980   40.3960 O   0  0  0  0  0  0  0  0  0  0  0  0
   37.8970   32.4890   39.2680 C   0  0  0  0  0  0  0  0  0  0  0  0
   37.1370   32.6780   38.1230 F   0  0  0  0  0  0  0  0  0  0  0  0
   38.6550   33.6380   39.4860 F   0  0  0  0  0  0  0  0  0  0  0  0
   38.7960   31.4240   39.1210 F   0  0  0  0  0  0  0  0  0  0  0  0
  1  6  1  0  0  0  0
  2  1  2  0  0  0  0
  2  3  1  0  0  0  0
  3  4  2  0  0  0  0
  4  5  1  0  0  0  0
  6  5  2  0  0  0  0
  7  1  1  0  0  0  0
  8  2  1  0  0  0  0
  9 16  1  6  0  0  0
  9 14  1  0  0  0  0
  9 10  1  0  0  0  0
 10  5  1  6  0  0  0
 10 11  1  0  0  0  0
 11 12  1  0  0  0  0
 13 14  1  0  0  0  0
 13 11  1  0  0  0  0
 15 14  1  0  0  0  0
 17 16  1  0  0  0  0
 18  3  1  0  0  0  0
 19 21  1  0  0  0  0
 19 18  1  0  0  0  0
 20 19  1  0  0  0  0
 22 19  1  0  0  0  0
M  END
>  <minimizedAffinity>
-4.52702236

$$$$

 OpenBabel03242520523D

 22 23  0  0  1  0  0  0  0  0999 V2000
   35.7990   29.9800   40.5180 C   0  0  0  0  0  0  0  0  0  0  0  0
   36.5300   30.9460   39.8270 C   0  0  0  0  0  0  0  0  0  0  0  0
   37.8720   31.1750   40.1280 C   0  0  0  0  0  0  0  0  0  0  0  0
   38.4060   30.4130   41.1160 N   0  0  0  0  0  0  0  0  0  0  0  0
   37.7040   29.4840   41.7810 C   0  0  0  0  0  0  0  0  0  0  0  0
   36.4010   29.2750   41.4760 N   0  0  0  0  0  0  0  0  0  0  0  0
   34.7620   29.8390   40.2490 H   0  0  0  0  0  0  0  0  0  0  0  0
   36.1440   31.5650   39.0430 H   0  0  0  0  0  0  0  0  0  0  0  0
   39.1720   27.5480   42.3490 C   0  0  1  0  0  3  0  0  0  0  0  0
   38.3760   28.7100   42.8350 C   0  0  2  0  0  3  0  0  0  0  0  0
   37.2840   28.0540   43.6790 C   0  0  0  0  0  3  0  0  0  0  0  0
   37.7430   27.8640   44.6770 H   0  0  0  0  0  0  0  0  0  0  0  0
   37.0450   26.8610   42.9770 O   0  0  0  0  0  0  0  0  0  0  0  0
   38.3600   26.3610   42.8300 C   0  0  0  0  0  3  0  0  0  0  0  0
   38.3750   25.5580   42.0620 H   0  0  0  0  0  0  0  0  0  0  0  0
   39.3400   27.5060   40.9670 O   0  0  0  0  0  0  0  0  0  0  0  0
   38.8540   26.7020   40.6260 H   0  0  0  0  0  0  0  0  0  0  0  0
   38.6960   32.0880   39.5270 O   0  0  0  0  0  0  0  0  0  0  0  0
   38.6120   33.4340   40.0020 C   0  0  0  0  0  0  0  0  0  0  0  0
   38.7120   33.4530   41.3850 F   0  0  0  0  0  0  0  0  0  0  0  0
   39.6850   34.1500   39.4750 F   0  0  0  0  0  0  0  0  0  0  0  0
   37.4410   34.0620   39.5600 F   0  0  0  0  0  0  0  0  0  0  0  0
  1  6  1  0  0  0  0
  2  3  1  0  0  0  0
  2  1  2  0  0  0  0
  3  4  2  0  0  0  0
  4  5  1  0  0  0  0
  6  5  2  0  0  0  0
  7  1  1  0  0  0  0
  8  2  1  0  0  0  0
  9 16  1  6  0  0  0
  9 14  1  0  0  0  0
  9 10  1  0  0  0  0
 10  5  1  6  0  0  0
 10 11  1  0  0  0  0
 11 12  1  0  0  0  0
 13 11  1  0  0  0  0
 14 13  1  0  0  0  0
 15 14  1  0  0  0  0
 17 16  1  0  0  0  0
 18 19  1  0  0  0  0
 18  3  1  0  0  0  0
 19 20  1  0  0  0  0
 21 19  1  0  0  0  0
 22 19  1  0  0  0  0
M  END
>  <minimizedAffinity>
-4.52367926

$$$$

 OpenBabel03242520523D

 22 23  0  0  1  0  0  0  0  0999 V2000
   37.7250   31.2040   40.7540 C   0  0  0  0  0  0  0  0  0  0  0  0
   36.5640   30.9030   40.0430 C   0  0  0  0  0  0  0  0  0  0  0  0
   35.7810   29.8030   40.3900 C   0  0  0  0  0  0  0  0  0  0  0  0
   36.2160   29.0620   41.4410 N   0  0  0  0  0  0  0  0  0  0  0  0
   37.3320   29.3510   42.1240 C   0  0  0  0  0  0  0  0  0  0  0  0
   38.0810   30.4230   41.7730 N   0  0  0  0  0  0  0  0  0  0  0  0
   38.2990   32.0680   40.4470 H   0  0  0  0  0  0  0  0  0  0  0  0
   36.1890   31.4630   39.2110 H   0  0  0  0  0  0  0  0  0  0  0  0
   39.0030   27.7520   43.0630 C   0  0  1  0  0  3  0  0  0  0  0  0
   37.7180   28.4840   43.2480 C   0  0  2  0  0  3  0  0  0  0  0  0
   36.6870   27.3590   43.3260 C   0  0  0  0  0  3  0  0  0  0  0  0
   36.7090   26.9960   44.3790 H   0  0  0  0  0  0  0  0  0  0  0  0
   37.2150   26.4120   42.4330 O   0  0  0  0  0  0  0  0  0  0  0  0
   38.5490   26.3160   42.8930 C   0  0  0  0  0  3  0  0  0  0  0  0
   39.1760   25.8090   42.1290 H   0  0  0  0  0  0  0  0  0  0  0  0
   39.7470   28.1700   41.9620 O   0  0  0  0  0  0  0  0  0  0  0  0
   39.7770   27.4130   41.3100 H   0  0  0  0  0  0  0  0  0  0  0  0
   34.6250   29.4020   39.7780 O   0  0  0  0  0  0  0  0  0  0  0  0
   34.7660   28.7330   38.5210 C   0  0  0  0  0  0  0  0  0  0  0  0
   33.5400   28.2320   38.1120 F   0  0  0  0  0  0  0  0  0  0  0  0
   35.1960   29.6650   37.5780 F   0  0  0  0  0  0  0  0  0  0  0  0
   35.7410   27.7290   38.5820 F   0  0  0  0  0  0  0  0  0  0  0  0
  1  6  1  0  0  0  0
  2  3  1  0  0  0  0
  2  1  2  0  0  0  0
  3  4  2  0  0  0  0
  4  5  1  0  0  0  0
  6  5  2  0  0  0  0
  7  1  1  0  0  0  0
  8  2  1  0  0  0  0
  9 16  1  6  0  0  0
  9 10  1  0  0  0  0
 10  5  1  6  0  0  0
 10 11  1  0  0  0  0
 11 12  1  0  0  0  0
 13 14  1  0  0  0  0
 13 11  1  0  0  0  0
 14  9  1  0  0  0  0
 15 14  1  0  0  0  0
 17 16  1  0  0  0  0
 18  3  1  0  0  0  0
 19 22  1  0  0  0  0
 19 18  1  0  0  0  0
 20 19  1  0  0  0  0
 21 19  1  0  0  0  0
M  END
>  <minimizedAffinity>
-4.48058033

$$$$
