
 OpenBabel03252504413D

 45 48  0  0  1  0  0  0  0  0999 V2000
   46.3530   32.2200   47.7810 C   0  0  0  0  0  0  0  0  0  0  0  0
   45.8980   31.8110   49.0020 C   0  0  0  0  0  0  0  0  0  0  0  0
   46.8940   31.1340   49.5800 N   0  0  0  0  0  0  0  0  0  0  0  0
   47.9620   31.0900   48.7850 C   0  0  0  0  0  0  0  0  0  0  0  0
   47.6190   31.7720   47.6610 N   0  0  0  0  0  0  0  0  0  0  0  0
   49.2400   30.4960   48.9560 N   0  0  0  0  0  0  0  0  0  0  0  0
   50.2900   31.2920   49.6070 C   0  0  0  0  0  0  0  0  0  0  0  0
   50.3950   30.7120   51.0150 C   0  0  0  0  0  0  0  0  0  0  0  0
   50.4890   29.2100   50.9490 C   0  0  0  0  0  0  0  0  0  0  0  0
   50.8440   28.7640   49.5390 C   0  0  0  0  0  0  0  0  0  0  0  0
   49.7460   29.1930   48.5990 C   0  0  0  0  0  0  0  0  0  0  0  0
   44.9220   31.9950   49.4300 H   0  0  0  0  0  0  0  0  0  0  0  0
   46.8450   30.6960   50.5250 H   0  0  0  0  0  0  0  0  0  0  0  0
   51.2530   31.2300   49.0780 H   0  0  0  0  0  0  0  0  0  0  0  0
   49.9590   32.3500   49.7170 H   0  0  0  0  0  0  0  0  0  0  0  0
   51.2210   31.1960   51.5580 H   0  0  0  0  0  0  0  0  0  0  0  0
   49.4440   31.0370   51.5270 H   0  0  0  0  0  0  0  0  0  0  0  0
   51.1900   28.8080   51.6950 H   0  0  0  0  0  0  0  0  0  0  0  0
   49.4880   28.7960   51.2040 H   0  0  0  0  0  0  0  0  0  0  0  0
   51.7970   29.2110   49.2170 H   0  0  0  0  0  0  0  0  0  0  0  0
   50.9940   27.6750   49.5570 H   0  0  0  0  0  0  0  0  0  0  0  0
   48.9520   28.3920   48.6260 H   0  0  0  0  0  0  0  0  0  0  0  0
   50.0810   29.1950   47.5340 H   0  0  0  0  0  0  0  0  0  0  0  0
   45.6110   33.0100   46.7620 C   0  0  0  0  0  0  0  0  0  0  0  0
   45.2990   33.9780   47.2020 H   0  0  0  0  0  0  0  0  0  0  0  0
   44.6490   32.4740   46.5210 H   0  0  0  0  0  0  0  0  0  0  0  0
   45.9760   33.7710   44.4420 C   0  0  0  0  0  3  0  0  0  0  0  0
   46.4460   33.2350   45.5580 C   0  0  0  0  0  3  0  0  0  0  0  0
   46.9040   33.9410   43.3200 C   0  0  0  0  0  0  0  0  0  0  0  0
   46.9500   35.1330   42.5710 C   0  0  0  0  0  0  0  0  0  0  0  0
   47.8580   35.2060   41.5260 C   0  0  0  0  0  0  0  0  0  0  0  0
   48.6550   34.1530   41.2670 N   0  0  0  0  0  0  0  0  0  0  0  0
   48.5960   33.0050   42.0070 C   0  0  0  0  0  0  0  0  0  0  0  0
   47.7410   32.9150   43.0010 N   0  0  0  0  0  0  0  0  0  0  0  0
   46.2890   35.9430   42.8210 H   0  0  0  0  0  0  0  0  0  0  0  0
   47.9230   36.1060   40.9270 H   0  0  0  0  0  0  0  0  0  0  0  0
   50.9060   32.1110   42.2050 C   0  0  1  0  0  3  0  0  0  0  0  0
   49.5140   31.8930   41.6480 C   0  0  2  0  0  3  0  0  0  0  0  0
   49.7960   31.9000   40.1750 C   0  0  0  0  0  3  0  0  0  0  0  0
   49.0210   31.3500   39.5860 H   0  0  0  0  0  0  0  0  0  0  0  0
   51.0690   31.3890   39.9890 O   0  0  0  0  0  0  0  0  0  0  0  0
   51.7190   31.3140   41.1960 C   0  0  0  0  0  3  0  0  0  0  0  0
   52.7730   31.6490   41.1560 H   0  0  0  0  0  0  0  0  0  0  0  0
   51.2990   33.4450   42.1110 O   0  0  0  0  0  0  0  0  0  0  0  0
   51.4430   33.6900   41.1610 H   0  0  0  0  0  0  0  0  0  0  0  0
  1  2  2  0  0  0  0
  2 12  1  0  0  0  0
  2  3  1  0  0  0  0
  3 13  1  0  0  0  0
  4  6  1  0  0  0  0
  4  3  1  0  0  0  0
  5  1  1  0  0  0  0
  5  4  2  0  0  0  0
  6  7  1  0  0  0  0
  7 15  1  0  0  0  0
  7  8  1  0  0  0  0
  8 17  1  0  0  0  0
  8 16  1  0  0  0  0
  9  8  1  0  0  0  0
  9 19  1  0  0  0  0
  9 18  1  0  0  0  0
 10 21  1  0  0  0  0
 10  9  1  0  0  0  0
 11 22  1  0  0  0  0
 11  6  1  0  0  0  0
 11 10  1  0  0  0  0
 14  7  1  0  0  0  0
 20 10  1  0  0  0  0
 23 11  1  0  0  0  0
 24 25  1  0  0  0  0
 24  1  1  0  0  0  0
 26 24  1  0  0  0  0
 27 28  2  0  0  0  0
 28 24  1  0  0  0  0
 29 27  1  0  0  0  0
 30 35  1  0  0  0  0
 30 29  2  0  0  0  0
 31 30  1  0  0  0  0
 32 31  2  0  0  0  0
 32 33  1  0  0  0  0
 33 34  2  0  0  0  0
 34 29  1  0  0  0  0
 36 31  1  0  0  0  0
 37 44  1  6  0  0  0
 38 33  1  6  0  0  0
 38 37  1  0  0  0  0
 39 38  1  0  0  0  0
 40 39  1  0  0  0  0
 41 39  1  0  0  0  0
 41 42  1  0  0  0  0
 42 37  1  0  0  0  0
 43 42  1  0  0  0  0
 45 44  1  0  0  0  0
M  END
>  <minimizedAffinity>
-6.42252398

>  <minimizedRMSD>
0.656721473

$$$$
