
 OpenBabel03252501013D

 25 27  0  0  1  0  0  0  0  0999 V2000
   46.3030   34.8350   41.7470 C   0  0  1  0  0  0  0  0  0  0  0  0
   47.8110   34.9560   41.7170 C   0  0  0  0  0  0  0  0  0  0  0  0
   47.0710   33.6410   41.4140 C   0  0  2  0  0  0  0  0  0  0  0  0
   45.7390   35.3740   40.9600 H   0  0  0  0  0  0  0  0  0  0  0  0
   48.1840   35.5790   40.9040 H   0  0  0  0  0  0  0  0  0  0  0  0
   48.3420   35.0610   42.6800 H   0  0  0  0  0  0  0  0  0  0  0  0
   47.1970   32.9130   42.2770 H   0  0  0  0  0  0  0  0  0  0  0  0
   44.5010   36.0390   44.8310 C   0  0  0  0  0  0  0  0  0  0  0  0
   44.9750   36.0540   43.5070 C   0  0  0  0  0  0  0  0  0  0  0  0
   45.7410   34.9610   43.1390 C   0  0  0  0  0  0  0  0  0  0  0  0
   45.9870   33.9580   44.0490 N   0  0  0  0  0  0  0  0  0  0  0  0
   45.5070   33.9920   45.3120 C   0  0  0  0  0  0  0  0  0  0  0  0
   44.7580   35.0520   45.6870 N   0  0  0  0  0  0  0  0  0  0  0  0
   43.8950   36.8740   45.1730 H   0  0  0  0  0  0  0  0  0  0  0  0
   44.7690   36.8510   42.8100 H   0  0  0  0  0  0  0  0  0  0  0  0
   45.8190   33.1080   45.8520 H   0  0  0  0  0  0  0  0  0  0  0  0
   48.2050   33.7320   39.2400 C   0  0  2  0  0  3  0  0  0  0  0  0
   47.1320   33.0430   40.0550 C   0  0  2  0  0  3  0  0  0  0  0  0
   45.9190   33.2360   39.1890 C   0  0  0  0  0  3  0  0  0  0  0  0
   45.4050   34.1940   39.2930 H   0  0  0  0  0  0  0  0  0  0  0  0
   46.3670   33.1920   37.8710 O   0  0  0  0  0  0  0  0  0  0  0  0
   47.6780   33.6210   37.8500 C   0  0  0  0  0  3  0  0  0  0  0  0
   47.6990   34.6420   37.4040 H   0  0  0  0  0  0  0  0  0  0  0  0
   49.4310   33.0990   39.3650 O   0  0  0  0  0  0  0  0  0  0  0  0
   50.0350   33.5180   38.7000 H   0  0  0  0  0  0  0  0  0  0  0  0
  1  4  1  6  0  0  0
  1 10  1  0  0  0  0
  2  1  1  0  0  0  0
  2  6  1  0  0  0  0
  3  2  1  0  0  0  0
  3  1  1  0  0  0  0
  3  7  1  1  0  0  0
  5  2  1  0  0  0  0
  8 14  1  0  0  0  0
  8 13  1  0  0  0  0
  9  8  2  0  0  0  0
 10  9  1  0  0  0  0
 10 11  2  0  0  0  0
 11 12  1  0  0  0  0
 12 13  2  0  0  0  0
 12 16  1  0  0  0  0
 15  9  1  0  0  0  0
 17 24  1  6  0  0  0
 17 18  1  0  0  0  0
 18 19  1  6  0  0  0
 18  3  1  0  0  0  0
 19 20  1  0  0  0  0
 21 19  1  0  0  0  0
 22 21  1  0  0  0  0
 22 17  1  0  0  0  0
 23 22  1  0  0  0  0
 25 24  1  0  0  0  0
M  END
>  <minimizedAffinity>
-4.62561893

>  <minimizedRMSD>
1.52444398

$$$$
