
 OpenBabel03252509043D

 48 50  0  0  1  0  0  0  0  0999 V2000
   46.7090   34.3500   43.4900 N   0  0  0  0  0  0  0  0  0  0  0  0
   46.4670   34.9480   42.2330 C   0  0  0  0  0  0  0  0  0  0  0  0
   44.9990   34.9940   41.8400 C   0  0  0  0  0  0  0  0  0  0  0  0
   44.0650   35.2120   43.0060 C   0  0  0  0  0  0  0  0  0  0  0  0
   44.8250   35.4160   44.3030 C   0  0  0  0  0  0  0  0  0  0  0  0
   45.7140   34.1100   44.4040 C   0  0  2  0  0  0  0  0  0  0  0  0
   46.9950   34.5100   41.3810 H   0  0  0  0  0  0  0  0  0  0  0  0
   46.8090   36.0040   42.2880 H   0  0  0  0  0  0  0  0  0  0  0  0
   44.8950   35.7680   41.0520 H   0  0  0  0  0  0  0  0  0  0  0  0
   44.7720   34.0160   41.3510 H   0  0  0  0  0  0  0  0  0  0  0  0
   43.3910   34.3510   43.1370 H   0  0  0  0  0  0  0  0  0  0  0  0
   43.4260   36.1040   42.8570 H   0  0  0  0  0  0  0  0  0  0  0  0
   45.4850   36.2810   44.2910 H   0  0  0  0  0  0  0  0  0  0  0  0
   44.0880   35.3750   45.1210 H   0  0  0  0  0  0  0  0  0  0  0  0
   45.0390   33.2510   44.2210 H   0  0  0  0  0  0  0  0  0  0  0  0
   47.9010   33.5410   43.5410 C   0  0  0  0  0  0  0  0  0  0  0  0
   48.0000   33.1940   44.6110 H   0  0  0  0  0  0  0  0  0  0  0  0
   48.7930   34.1100   43.2550 H   0  0  0  0  0  0  0  0  0  0  0  0
   47.6710   32.3270   42.7180 C   0  0  0  0  0  0  0  0  0  0  0  0
   47.4460   31.4040   43.2930 H   0  0  0  0  0  0  0  0  0  0  0  0
   46.7880   32.4460   42.0310 H   0  0  0  0  0  0  0  0  0  0  0  0
   51.2020   32.1920   41.4530 C   0  0  0  0  0  0  0  0  0  0  0  0
   50.0840   32.3960   42.2860 C   0  0  0  0  0  0  0  0  0  0  0  0
   48.8290   32.1030   41.8200 C   0  0  0  0  0  0  0  0  0  0  0  0
   48.7360   31.6330   40.5810 N   0  0  0  0  0  0  0  0  0  0  0  0
   49.7840   31.4340   39.7790 C   0  0  0  0  0  0  0  0  0  0  0  0
   51.0380   31.7110   40.2040 N   0  0  0  0  0  0  0  0  0  0  0  0
   52.1560   32.4540   41.9140 H   0  0  0  0  0  0  0  0  0  0  0  0
   50.1960   32.7800   43.2910 H   0  0  0  0  0  0  0  0  0  0  0  0
   49.7000   31.0490   38.7640 H   0  0  0  0  0  0  0  0  0  0  0  0
   46.1360   34.1920   45.7190 O   0  0  0  0  0  0  0  0  0  0  0  0
   45.5900   31.5850   45.5910 O   0  0  0  0  0  0  0  0  0  0  0  0
   46.0100   32.7180   46.5250 P   0  0  2  0  0  0  0  0  0  0  0  0
   44.7010   32.9070   47.6190 O   0  0  0  0  0  0  0  0  0  0  0  0
   45.0440   33.1280   48.5200 H   0  0  0  0  0  0  0  0  0  0  0  0
   47.3710   32.3390   47.4170 O   0  0  0  0  0  0  0  0  0  0  0  0
   47.7120   31.0260   47.1640 C   0  0  0  0  0  0  0  0  0  0  0  0
   48.6520   31.0200   46.5450 H   0  0  0  0  0  0  0  0  0  0  0  0
   46.9610   30.4190   46.6660 H   0  0  0  0  0  0  0  0  0  0  0  0
   50.3280   30.0890   49.3270 C   0  0  2  0  0  3  0  0  0  0  0  0
   49.3610   29.5390   48.3190 C   0  0  0  0  0  3  0  0  0  0  0  0
   49.7470   29.5030   47.2810 H   0  0  0  0  0  0  0  0  0  0  0  0
   48.1480   30.4080   48.5010 C   0  0  1  0  0  3  0  0  0  0  0  0
   48.4450   31.3730   49.4250 O   0  0  0  0  0  0  0  0  0  0  0  0
   49.8220   31.5070   49.4900 C   0  0  0  0  0  3  0  0  0  0  0  0
   50.1170   31.9400   50.4760 H   0  0  0  0  0  0  0  0  0  0  0  0
   51.6080   30.0660   48.7740 O   0  0  0  0  0  0  0  0  0  0  0  0
   51.5090   30.2190   47.7840 H   0  0  0  0  0  0  0  0  0  0  0  0
  1 16  1  0  0  0  0
  1  6  1  0  0  0  0
  2  8  1  0  0  0  0
  2  1  1  0  0  0  0
  3  2  1  0  0  0  0
  3  4  1  0  0  0  0
  4 11  1  0  0  0  0
  4  5  1  0  0  0  0
  5  6  1  0  0  0  0
  5 14  1  0  0  0  0
  6 15  1  6  0  0  0
  6 31  1  0  0  0  0
  7  2  1  0  0  0  0
  9  3  1  0  0  0  0
 10  3  1  0  0  0  0
 12  4  1  0  0  0  0
 13  5  1  0  0  0  0
 16 17  1  0  0  0  0
 18 16  1  0  0  0  0
 19 20  1  0  0  0  0
 19 16  1  0  0  0  0
 21 19  1  0  0  0  0
 22 28  1  0  0  0  0
 22 23  1  0  0  0  0
 23 29  1  0  0  0  0
 24 23  2  0  0  0  0
 24 19  1  0  0  0  0
 25 24  1  0  0  0  0
 26 27  1  0  0  0  0
 26 25  2  0  0  0  0
 27 22  2  0  0  0  0
 30 26  1  0  0  0  0
 31 33  1  0  0  0  0
 33 32  2  6  0  0  0
 33 36  1  0  0  0  0
 33 34  1  0  0  0  0
 34 35  1  0  0  0  0
 37 36  1  0  0  0  0
 38 37  1  0  0  0  0
 39 37  1  0  0  0  0
 40 47  1  6  0  0  0
 40 45  1  0  0  0  0
 41 43  1  0  0  0  0
 41 40  1  0  0  0  0
 42 41  1  0  0  0  0
 43 37  1  6  0  0  0
 43 44  1  0  0  0  0
 44 45  1  0  0  0  0
 45 46  1  0  0  0  0
 48 47  1  0  0  0  0
M  END
>  <minimizedAffinity>
-4.92062712

>  <minimizedRMSD>
2.63883233

$$$$
