
 OpenBabel03252505303D

 27 28  0  0  1  0  0  0  0  0999 V2000
   46.8470   32.1050   48.4980 O   0  0  0  0  0  0  0  0  0  0  0  0
   45.8110   32.3810   47.3960 P   0  0  1  0  0  0  0  0  0  0  0  0
   44.5610   33.3470   47.9520 O   0  0  0  0  0  0  0  0  0  0  0  0
   44.8780   34.2730   48.1880 H   0  0  0  0  0  0  0  0  0  0  0  0
   46.6390   33.1230   46.1100 O   0  0  0  0  0  0  0  0  0  0  0  0
   44.4990   35.6060   44.7700 C   0  0  0  0  0  0  0  0  0  0  0  0
   44.9110   35.7680   43.4240 C   0  0  0  0  0  0  0  0  0  0  0  0
   45.9920   34.9450   43.0200 C   0  0  0  0  0  0  0  0  0  0  0  0
   46.5280   34.0930   43.9320 N   0  0  0  0  0  0  0  0  0  0  0  0
   46.0890   33.9920   45.1870 C   0  0  0  0  0  0  0  0  0  0  0  0
   45.0680   34.7530   45.6120 N   0  0  0  0  0  0  0  0  0  0  0  0
   43.6640   36.2460   45.0720 H   0  0  0  0  0  0  0  0  0  0  0  0
   44.4340   36.4700   42.7530 H   0  0  0  0  0  0  0  0  0  0  0  0
   46.3540   35.0200   42.0030 H   0  0  0  0  0  0  0  0  0  0  0  0
   45.1900   30.8910   46.9470 O   0  0  0  0  0  0  0  0  0  0  0  0
   45.3930   30.0010   47.9790 C   0  0  0  0  0  0  0  0  0  0  0  0
   44.5520   30.1060   48.6920 H   0  0  0  0  0  0  0  0  0  0  0  0
   46.3100   30.3010   48.5230 H   0  0  0  0  0  0  0  0  0  0  0  0
   44.1370   27.1970   46.1720 C   0  0  1  0  0  3  0  0  0  0  0  0
   44.9960   28.4370   46.1320 C   0  0  0  0  0  3  0  0  0  0  0  0
   45.7510   28.4290   45.3180 H   0  0  0  0  0  0  0  0  0  0  0  0
   45.5560   28.5740   47.5090 C   0  0  2  0  0  3  0  0  0  0  0  0
   44.8180   27.7460   48.3460 O   0  0  0  0  0  0  0  0  0  0  0  0
   44.2880   26.7400   47.5860 C   0  0  0  0  0  3  0  0  0  0  0  0
   44.9910   25.8610   47.6200 H   0  0  0  0  0  0  0  0  0  0  0  0
   42.7870   27.4660   45.8910 O   0  0  0  0  0  0  0  0  0  0  0  0
   42.7190   28.1000   45.1100 H   0  0  0  0  0  0  0  0  0  0  0  0
  2  3  1  0  0  0  0
  2  1  2  1  0  0  0
  3  4  1  0  0  0  0
  5  2  1  0  0  0  0
  6 12  1  0  0  0  0
  6 11  1  0  0  0  0
  7  6  2  0  0  0  0
  8  7  1  0  0  0  0
  8  9  2  0  0  0  0
  9 10  1  0  0  0  0
 10 11  2  0  0  0  0
 10  5  1  0  0  0  0
 13  7  1  0  0  0  0
 14  8  1  0  0  0  0
 15  2  1  0  0  0  0
 15 16  1  0  0  0  0
 16 18  1  0  0  0  0
 16 17  1  0  0  0  0
 19 26  1  1  0  0  0
 19 24  1  0  0  0  0
 20 19  1  0  0  0  0
 20 22  1  0  0  0  0
 21 20  1  0  0  0  0
 22 16  1  1  0  0  0
 22 23  1  0  0  0  0
 24 25  1  0  0  0  0
 24 23  1  0  0  0  0
 27 26  1  0  0  0  0
M  END
>  <minimizedAffinity>
-4.58274221

>  <minimizedRMSD>
0.870797813

$$$$
