
 OpenBabel03242517143D

 23 24  0  0  1  0  0  0  0  0999 V2000
   42.7380   35.4840   41.6150 C   0  0  0  0  0  0  0  0  0  0  0  0
   42.6620   36.5660   41.4400 H   0  0  0  0  0  0  0  0  0  0  0  0
   42.4060   35.2700   42.6500 H   0  0  0  0  0  0  0  0  0  0  0  0
   39.8910   34.9070   39.3740 C   0  0  1  0  0  3  0  0  0  0  0  0
   40.4140   35.0410   40.8110 C   0  0  0  0  0  3  0  0  0  0  0  0
   39.8890   34.3100   41.4360 H   0  0  0  0  0  0  0  0  0  0  0  0
   41.8680   34.7570   40.5890 C   0  0  1  0  0  3  0  0  0  0  0  0
   42.1980   35.1720   39.3110 O   0  0  0  0  0  0  0  0  0  0  0  0
   41.0560   35.6160   38.6730 C   0  0  0  0  0  3  0  0  0  0  0  0
   41.0670   35.4010   37.6030 H   0  0  0  0  0  0  0  0  0  0  0  0
   39.9450   33.5840   38.9870 O   0  0  0  0  0  0  0  0  0  0  0  0
   39.4270   32.9610   39.5580 H   0  0  0  0  0  0  0  0  0  0  0  0
   45.1060   35.0700   42.2060 C   0  0  0  0  0  3  0  0  0  0  0  0
   44.1220   34.9900   41.3440 C   0  0  0  0  0  3  0  0  0  0  0  0
   47.3800   34.4490   43.0400 C   0  0  0  0  0  0  0  0  0  0  0  0
   46.4640   34.6100   42.0030 C   0  0  0  0  0  0  0  0  0  0  0  0
   46.8960   34.3110   40.7150 C   0  0  0  0  0  0  0  0  0  0  0  0
   48.1880   33.8750   40.5230 N   0  0  0  0  0  0  0  0  0  0  0  0
   49.0370   33.7340   41.5620 C   0  0  0  0  0  0  0  0  0  0  0  0
   48.6250   34.0230   42.8090 N   0  0  0  0  0  0  0  0  0  0  0  0
   47.0660   34.6760   44.0520 H   0  0  0  0  0  0  0  0  0  0  0  0
   46.2190   34.4210   39.8720 H   0  0  0  0  0  0  0  0  0  0  0  0
   50.0060   33.3830   41.2290 H   0  0  0  0  0  0  0  0  0  0  0  0
  1  3  1  0  0  0  0
  2  1  1  0  0  0  0
  4 11  1  6  0  0  0
  4  5  1  0  0  0  0
  5  6  1  0  0  0  0
  7  5  1  0  0  0  0
  7  1  1  1  0  0  0
  8  7  1  0  0  0  0
  9  8  1  0  0  0  0
  9  4  1  0  0  0  0
 10  9  1  0  0  0  0
 11 12  1  0  0  0  0
 14  1  1  0  0  0  0
 14 13  2  0  0  0  0
 15 21  1  0  0  0  0
 16 13  1  0  0  0  0
 16 15  2  0  0  0  0
 17 16  1  0  0  0  0
 18 17  2  0  0  0  0
 18 19  1  0  0  0  0
 19 20  2  0  0  0  0
 20 15  1  0  0  0  0
 22 17  1  0  0  0  0
 23 19  1  0  0  0  0
M  END
>  <minimizedAffinity>
-4.16563606

>  <minimizedRMSD>
3.38736534

$$$$
