
 OpenBabel03242513303D

 37 40  0  0  1  0  0  0  0  0999 V2000
   46.1200   33.7200   40.6240 C   0  0  0  0  0  0  0  0  0  0  0  0
   46.7020   34.5680   41.5430 C   0  0  0  0  0  0  0  0  0  0  0  0
   47.8960   35.1380   41.1900 C   0  0  0  0  0  0  0  0  0  0  0  0
   48.4980   34.8830   39.9710 C   0  0  0  0  0  0  0  0  0  0  0  0
   47.9100   34.0400   39.0680 C   0  0  0  0  0  0  0  0  0  0  0  0
   46.6860   33.4340   39.3870 C   0  0  0  0  0  0  0  0  0  0  0  0
   48.3470   35.8060   41.9250 H   0  0  0  0  0  0  0  0  0  0  0  0
   49.4410   35.3800   39.7830 H   0  0  0  0  0  0  0  0  0  0  0  0
   48.3670   33.8310   38.1140 H   0  0  0  0  0  0  0  0  0  0  0  0
   44.6670   36.1210   44.3030 C   0  0  0  0  0  0  0  0  0  0  0  0
   45.3090   35.9360   43.0730 C   0  0  0  0  0  0  0  0  0  0  0  0
   46.0300   34.7940   42.7940 C   0  0  0  0  0  0  0  0  0  0  0  0
   46.0600   33.8840   43.8000 N   0  0  0  0  0  0  0  0  0  0  0  0
   45.4500   34.0480   44.9870 C   0  0  0  0  0  0  0  0  0  0  0  0
   44.7530   35.1740   45.2310 N   0  0  0  0  0  0  0  0  0  0  0  0
   44.1010   37.0240   44.5140 H   0  0  0  0  0  0  0  0  0  0  0  0
   45.2250   36.7220   42.3310 H   0  0  0  0  0  0  0  0  0  0  0  0
   45.5980   33.1990   45.6550 H   0  0  0  0  0  0  0  0  0  0  0  0
   44.9060   33.1120   40.9280 O   0  0  0  0  0  0  0  0  0  0  0  0
   44.0770   33.5600   40.5950 H   0  0  0  0  0  0  0  0  0  0  0  0
   46.0320   32.5760   38.5360 O   0  0  0  0  0  0  0  0  0  0  0  0
   46.3620   32.3530   37.2500 C   0  0  0  0  0  0  0  0  0  0  0  0
   45.6050   32.4970   36.1060 C   0  0  0  0  0  0  0  0  0  0  0  0
   46.1520   32.2090   34.8920 C   0  0  0  0  0  0  0  0  0  0  0  0
   47.5040   31.7680   34.8890 C   0  0  0  0  0  0  0  0  0  0  0  0
   47.9550   31.7790   36.6430 S   0  0  0  0  0  0  0  0  0  0  0  0
   44.5830   32.8380   36.1790 H   0  0  0  0  0  0  0  0  0  0  0  0
   45.7080   32.2670   33.9330 H   0  0  0  0  0  0  0  0  0  0  0  0
   48.6120   32.5060   32.8790 C   0  0  1  0  0  0  0  0  0  0  0  0
   48.4300   31.3720   33.8600 C   0  0  2  0  0  0  0  0  0  0  0  0
   47.8750   30.2550   33.0380 C   0  0  0  0  0  0  0  0  0  0  0  0
   46.7930   30.0650   33.2940 H   0  0  0  0  0  0  0  0  0  0  0  0
   47.8740   30.6280   31.7110 O   0  0  0  0  0  0  0  0  0  0  0  0
   48.6070   31.7870   31.5590 C   0  0  0  0  0  0  0  0  0  0  0  0
   49.6260   31.6500   31.1720 H   0  0  0  0  0  0  0  0  0  0  0  0
   47.5570   33.3870   32.9570 O   0  0  0  0  0  0  0  0  0  0  0  0
   47.7800   34.1890   33.4900 H   0  0  0  0  0  0  0  0  0  0  0  0
  1 19  1  0  0  0  0
  1  2  1  0  0  0  0
  2 12  1  0  0  0  0
  3  2  2  0  0  0  0
  3  7  1  0  0  0  0
  4  3  1  0  0  0  0
  5  6  1  0  0  0  0
  5  4  2  0  0  0  0
  6  1  2  0  0  0  0
  8  4  1  0  0  0  0
  9  5  1  0  0  0  0
 10 16  1  0  0  0  0
 10 15  1  0  0  0  0
 11 10  2  0  0  0  0
 12 11  1  0  0  0  0
 12 13  2  0  0  0  0
 13 14  1  0  0  0  0
 14 15  2  0  0  0  0
 14 18  1  0  0  0  0
 17 11  1  0  0  0  0
 20 19  1  0  0  0  0
 21  6  1  0  0  0  0
 22 21  1  0  0  0  0
 23 27  1  0  0  0  0
 23 22  2  0  0  0  0
 24 23  1  0  0  0  0
 25 24  2  0  0  0  0
 25 26  1  0  0  0  0
 26 22  1  0  0  0  0
 28 24  1  0  0  0  0
 29 36  1  6  0  0  0
 29 30  1  0  0  0  0
 30 25  1  1  0  0  0
 31 32  1  0  0  0  0
 31 30  1  0  0  0  0
 33 31  1  0  0  0  0
 34 33  1  0  0  0  0
 34 29  1  0  0  0  0
 35 34  1  0  0  0  0
 36 37  1  0  0  0  0
M  END
>  <minimizedAffinity>
-6.67025423

>  <minimizedRMSD>
1.20969474

$$$$
