
 OpenBabel03252505153D

 25 27  0  0  1  0  0  0  0  0999 V2000
   44.5620   35.6360   44.8220 C   0  0  0  0  0  0  0  0  0  0  0  0
   45.0850   35.7330   43.5220 C   0  0  0  0  0  0  0  0  0  0  0  0
   46.0890   34.8060   43.2220 C   0  0  0  0  0  0  0  0  0  0  0  0
   46.4900   33.8940   44.1680 N   0  0  0  0  0  0  0  0  0  0  0  0
   45.9420   33.8540   45.4080 C   0  0  0  0  0  0  0  0  0  0  0  0
   44.9770   34.7320   45.7230 N   0  0  0  0  0  0  0  0  0  0  0  0
   43.7740   36.3290   45.1300 H   0  0  0  0  0  0  0  0  0  0  0  0
   44.7530   36.4530   42.8100 H   0  0  0  0  0  0  0  0  0  0  0  0
   46.7180   34.7890   41.8570 C   0  0  0  0  0  0  0  0  0  0  0  0
   48.1480   35.2870   41.8740 C   0  0  0  0  0  0  0  0  0  0  0  0
   47.7580   33.8040   41.5980 C   0  0  0  0  0  0  0  0  0  0  0  0
   46.0650   35.1760   41.0530 H   0  0  0  0  0  0  0  0  0  0  0  0
   48.4420   35.8620   40.9720 H   0  0  0  0  0  0  0  0  0  0  0  0
   48.6320   35.5250   42.8230 H   0  0  0  0  0  0  0  0  0  0  0  0
   48.0650   33.1330   42.4510 H   0  0  0  0  0  0  0  0  0  0  0  0
   48.0040   33.4270   40.5860 H   0  0  0  0  0  0  0  0  0  0  0  0
   45.9670   32.8150   47.6380 C   0  0  2  0  0  3  0  0  0  0  0  0
   46.5460   32.7810   46.2380 C   0  0  1  0  0  3  0  0  0  0  0  0
   46.0840   31.4100   45.7620 C   0  0  0  0  0  3  0  0  0  0  0  0
   46.9500   30.8210   45.4190 H   0  0  0  0  0  0  0  0  0  0  0  0
   45.4690   30.7870   46.8270 O   0  0  0  0  0  0  0  0  0  0  0  0
   45.9790   31.3220   47.9850 C   0  0  0  0  0  3  0  0  0  0  0  0
   47.0220   30.9850   48.0780 H   0  0  0  0  0  0  0  0  0  0  0  0
   44.6970   33.3330   47.6660 O   0  0  0  0  0  0  0  0  0  0  0  0
   44.1270   32.9190   48.3830 H   0  0  0  0  0  0  0  0  0  0  0  0
  1  7  1  0  0  0  0
  1  6  1  0  0  0  0
  2  1  2  0  0  0  0
  3  2  1  0  0  0  0
  3  4  2  0  0  0  0
  4  5  1  0  0  0  0
  5  6  2  0  0  0  0
  8  2  1  0  0  0  0
  9 10  1  0  0  0  0
  9  3  1  0  0  0  0
 10 14  1  0  0  0  0
 11  9  1  0  0  0  0
 11 10  1  0  0  0  0
 11 15  1  0  0  0  0
 12  9  1  0  0  0  0
 13 10  1  0  0  0  0
 16 11  1  0  0  0  0
 17 24  1  6  0  0  0
 17 22  1  0  0  0  0
 18  5  1  6  0  0  0
 18 17  1  0  0  0  0
 19 18  1  0  0  0  0
 19 21  1  0  0  0  0
 20 19  1  0  0  0  0
 21 22  1  0  0  0  0
 22 23  1  0  0  0  0
 24 25  1  0  0  0  0
M  END
>  <minimizedAffinity>
-5.30234098

>  <minimizedRMSD>
0.678860843

$$$$
