
 OpenBabel03252505363D

 33 35  0  0  1  0  0  0  0  0999 V2000
   44.9650   34.3380   45.3360 C   0  0  0  0  0  0  0  0  0  0  0  0
   45.8070   34.0960   44.2120 C   0  0  0  0  0  0  0  0  0  0  0  0
   46.9460   33.3460   44.4150 C   0  0  0  0  0  0  0  0  0  0  0  0
   47.2110   32.8800   45.6680 N   0  0  0  0  0  0  0  0  0  0  0  0
   46.3790   33.1390   46.7090 C   0  0  0  0  0  0  0  0  0  0  0  0
   45.2640   33.8600   46.5520 N   0  0  0  0  0  0  0  0  0  0  0  0
   46.6930   32.6650   48.0200 N   0  0  0  0  0  0  0  0  0  0  0  0
   44.0500   34.9100   45.2850 H   0  0  0  0  0  0  0  0  0  0  0  0
   46.4610   31.7290   48.4350 H   0  0  0  0  0  0  0  0  0  0  0  0
   47.2030   33.4680   48.4550 H   0  0  0  0  0  0  0  0  0  0  0  0
   47.8730   33.0190   43.3740 C   0  0  0  0  0  0  0  0  0  0  0  0
   48.7530   34.0100   42.9580 C   0  0  0  0  0  0  0  0  0  0  0  0
   49.6980   33.7820   41.9450 C   0  0  0  0  0  0  0  0  0  0  0  0
   49.7610   32.5560   41.3440 C   0  0  0  0  0  0  0  0  0  0  0  0
   48.9000   31.5890   41.7540 C   0  0  0  0  0  0  0  0  0  0  0  0
   47.9620   31.7990   42.7530 C   0  0  0  0  0  0  0  0  0  0  0  0
   48.7220   34.9900   43.4180 H   0  0  0  0  0  0  0  0  0  0  0  0
   50.3500   34.6280   41.6840 H   0  0  0  0  0  0  0  0  0  0  0  0
   50.5140   32.4520   40.5720 H   0  0  0  0  0  0  0  0  0  0  0  0
   48.9790   30.6200   41.2540 H   0  0  0  0  0  0  0  0  0  0  0  0
   47.0390   30.7210   43.1890 C   0  0  0  0  0  0  0  0  0  0  0  0
   47.2040   29.6400   42.3270 F   0  0  0  0  0  0  0  0  0  0  0  0
   45.7390   31.1810   43.1290 F   0  0  0  0  0  0  0  0  0  0  0  0
   47.2370   30.2960   44.4800 F   0  0  0  0  0  0  0  0  0  0  0  0
   44.5170   35.9280   43.1460 C   0  0  1  0  0  0  0  0  0  0  0  0
   45.4350   34.7240   42.9560 C   0  0  2  0  0  0  0  0  0  0  0  0
   44.6210   33.8940   42.0110 C   0  0  0  0  0  0  0  0  0  0  0  0
   43.6900   33.4850   42.4420 H   0  0  0  0  0  0  0  0  0  0  0  0
   44.2310   34.8460   41.0790 O   0  0  0  0  0  0  0  0  0  0  0  0
   43.9300   36.0100   41.7490 C   0  0  0  0  0  0  0  0  0  0  0  0
   42.8660   36.2860   41.7300 H   0  0  0  0  0  0  0  0  0  0  0  0
   43.5060   35.6740   44.0530 O   0  0  0  0  0  0  0  0  0  0  0  0
   43.5240   36.3720   44.7750 H   0  0  0  0  0  0  0  0  0  0  0  0
  1  6  1  0  0  0  0
  2  3  1  0  0  0  0
  2  1  2  0  0  0  0
  3  4  2  0  0  0  0
  4  5  1  0  0  0  0
  5  7  1  0  0  0  0
  6  5  2  0  0  0  0
  7  9  1  0  0  0  0
  7 10  1  0  0  0  0
  8  1  1  0  0  0  0
 11  3  1  0  0  0  0
 12 11  1  0  0  0  0
 12 17  1  0  0  0  0
 13 12  2  0  0  0  0
 14 15  2  0  0  0  0
 14 13  1  0  0  0  0
 15 16  1  0  0  0  0
 16 21  1  0  0  0  0
 16 11  2  0  0  0  0
 18 13  1  0  0  0  0
 19 14  1  0  0  0  0
 20 15  1  0  0  0  0
 21 24  1  0  0  0  0
 22 21  1  0  0  0  0
 23 21  1  0  0  0  0
 25 32  1  1  0  0  0
 26 25  1  0  0  0  0
 26  2  1  1  0  0  0
 27 28  1  0  0  0  0
 27 26  1  0  0  0  0
 29 30  1  0  0  0  0
 29 27  1  0  0  0  0
 30 25  1  0  0  0  0
 31 30  1  0  0  0  0
 32 33  1  0  0  0  0
M  END
>  <minimizedAffinity>
-5.27887678

>  <minimizedRMSD>
3.00924802

$$$$
