
 OpenBabel03252504413D

 45 48  0  0  1  0  0  0  0  0999 V2000
   46.2000   32.2480   48.0340 C   0  0  0  0  0  0  0  0  0  0  0  0
   45.7590   31.5460   49.1180 C   0  0  0  0  0  0  0  0  0  0  0  0
   46.8010   30.8460   49.5760 N   0  0  0  0  0  0  0  0  0  0  0  0
   47.8850   31.0670   48.8350 C   0  0  0  0  0  0  0  0  0  0  0  0
   47.5050   31.9460   47.8710 N   0  0  0  0  0  0  0  0  0  0  0  0
   49.2080   30.5610   48.9260 N   0  0  0  0  0  0  0  0  0  0  0  0
   50.1670   31.2820   49.7740 C   0  0  0  0  0  0  0  0  0  0  0  0
   50.2950   30.4190   51.0270 C   0  0  0  0  0  0  0  0  0  0  0  0
   50.5280   28.9820   50.6430 C   0  0  0  0  0  0  0  0  0  0  0  0
   50.9510   28.8850   49.1850 C   0  0  0  0  0  0  0  0  0  0  0  0
   49.8380   29.4140   48.3170 C   0  0  0  0  0  0  0  0  0  0  0  0
   44.7620   31.5480   49.5370 H   0  0  0  0  0  0  0  0  0  0  0  0
   46.7720   30.2100   50.4020 H   0  0  0  0  0  0  0  0  0  0  0  0
   51.1420   31.4180   49.2830 H   0  0  0  0  0  0  0  0  0  0  0  0
   49.7380   32.2580   50.0960 H   0  0  0  0  0  0  0  0  0  0  0  0
   51.0620   30.8410   51.6950 H   0  0  0  0  0  0  0  0  0  0  0  0
   49.3080   30.5430   51.5590 H   0  0  0  0  0  0  0  0  0  0  0  0
   51.2460   28.4880   51.3120 H   0  0  0  0  0  0  0  0  0  0  0  0
   49.5640   28.4390   50.7620 H   0  0  0  0  0  0  0  0  0  0  0  0
   51.8660   29.4710   49.0060 H   0  0  0  0  0  0  0  0  0  0  0  0
   51.2000   27.8350   48.9740 H   0  0  0  0  0  0  0  0  0  0  0  0
   49.1210   28.5630   48.1380 H   0  0  0  0  0  0  0  0  0  0  0  0
   50.1940   29.6770   47.2920 H   0  0  0  0  0  0  0  0  0  0  0  0
   45.4110   33.1760   47.1800 C   0  0  0  0  0  0  0  0  0  0  0  0
   45.1800   34.0960   47.7520 H   0  0  0  0  0  0  0  0  0  0  0  0
   44.4090   32.7050   46.9670 H   0  0  0  0  0  0  0  0  0  0  0  0
   45.8640   32.9790   44.7610 C   0  0  0  0  0  3  0  0  0  0  0  0
   46.1500   33.5100   45.9390 C   0  0  0  0  0  3  0  0  0  0  0  0
   46.6710   33.3920   43.6080 C   0  0  0  0  0  0  0  0  0  0  0  0
   46.4940   34.6470   42.9940 C   0  0  0  0  0  0  0  0  0  0  0  0
   47.3010   34.9550   41.9080 C   0  0  0  0  0  0  0  0  0  0  0  0
   48.2120   34.0590   41.4860 N   0  0  0  0  0  0  0  0  0  0  0  0
   48.3670   32.8460   42.0970 C   0  0  0  0  0  0  0  0  0  0  0  0
   47.6120   32.5340   43.1260 N   0  0  0  0  0  0  0  0  0  0  0  0
   45.7510   35.3240   43.3730 H   0  0  0  0  0  0  0  0  0  0  0  0
   47.1950   35.9090   41.4090 H   0  0  0  0  0  0  0  0  0  0  0  0
   50.7870   32.2890   42.0400 C   0  0  1  0  0  3  0  0  0  0  0  0
   49.3980   31.9200   41.5610 C   0  0  2  0  0  3  0  0  0  0  0  0
   49.5530   32.1060   40.0820 C   0  0  0  0  0  3  0  0  0  0  0  0
   48.8170   31.5050   39.4920 H   0  0  0  0  0  0  0  0  0  0  0  0
   50.8650   31.8080   39.7550 O   0  0  0  0  0  0  0  0  0  0  0  0
   51.6170   31.7180   40.9000 C   0  0  0  0  0  3  0  0  0  0  0  0
   52.6070   32.2070   40.8230 H   0  0  0  0  0  0  0  0  0  0  0  0
   50.9810   33.6680   42.0600 O   0  0  0  0  0  0  0  0  0  0  0  0
   51.0090   34.0190   41.1320 H   0  0  0  0  0  0  0  0  0  0  0  0
  1  2  2  0  0  0  0
  2 12  1  0  0  0  0
  2  3  1  0  0  0  0
  3 13  1  0  0  0  0
  4  6  1  0  0  0  0
  4  3  1  0  0  0  0
  5  1  1  0  0  0  0
  5  4  2  0  0  0  0
  6  7  1  0  0  0  0
  7 15  1  0  0  0  0
  7  8  1  0  0  0  0
  8 17  1  0  0  0  0
  8 16  1  0  0  0  0
  9 19  1  0  0  0  0
  9  8  1  0  0  0  0
  9 18  1  0  0  0  0
 10  9  1  0  0  0  0
 11  6  1  0  0  0  0
 11 10  1  0  0  0  0
 14  7  1  0  0  0  0
 20 10  1  0  0  0  0
 21 10  1  0  0  0  0
 22 11  1  0  0  0  0
 23 11  1  0  0  0  0
 24 25  1  0  0  0  0
 24  1  1  0  0  0  0
 26 24  1  0  0  0  0
 27 28  2  0  0  0  0
 28 24  1  0  0  0  0
 29 27  1  0  0  0  0
 30 35  1  0  0  0  0
 30 29  2  0  0  0  0
 31 30  1  0  0  0  0
 32 31  2  0  0  0  0
 32 33  1  0  0  0  0
 33 34  2  0  0  0  0
 34 29  1  0  0  0  0
 36 31  1  0  0  0  0
 37 44  1  6  0  0  0
 38 37  1  0  0  0  0
 38 33  1  1  0  0  0
 39 38  1  0  0  0  0
 40 39  1  0  0  0  0
 41 39  1  0  0  0  0
 41 42  1  0  0  0  0
 42 37  1  0  0  0  0
 43 42  1  0  0  0  0
 45 44  1  0  0  0  0
M  END
>  <minimizedAffinity>
-6.3752594

>  <minimizedRMSD>
1.30926478

$$$$
