
 OpenBabel03242523463D

 19 20  0  0  1  0  0  0  0  0999 V2000
   41.5520   35.3150   38.9690 C   0  0  0  0  0  0  0  0  0  0  0  0
   42.7260   34.9060   39.6340 C   0  0  0  0  0  0  0  0  0  0  0  0
   42.7190   35.0010   41.0360 C   0  0  0  0  0  0  0  0  0  0  0  0
   41.6070   35.4700   41.6580 N   0  0  0  0  0  0  0  0  0  0  0  0
   40.5130   35.8470   40.9750 C   0  0  0  0  0  0  0  0  0  0  0  0
   40.4770   35.7730   39.6460 N   0  0  0  0  0  0  0  0  0  0  0  0
   43.5810   34.5440   39.1260 H   0  0  0  0  0  0  0  0  0  0  0  0
   39.6520   36.2140   41.5130 H   0  0  0  0  0  0  0  0  0  0  0  0
   44.3940   35.6970   42.7420 C   0  0  2  0  0  3  0  0  0  0  0  0
   43.8900   34.6020   41.8310 C   0  0  2  0  0  3  0  0  0  0  0  0
   45.1510   34.3910   41.0050 C   0  0  0  0  0  3  0  0  0  0  0  0
   45.1970   35.2510   40.2990 H   0  0  0  0  0  0  0  0  0  0  0  0
   46.1720   34.4020   41.9370 O   0  0  0  0  0  0  0  0  0  0  0  0
   45.8000   35.1700   43.0170 C   0  0  0  0  0  3  0  0  0  0  0  0
   45.7160   34.5320   43.9300 H   0  0  0  0  0  0  0  0  0  0  0  0
   43.6240   35.8150   43.8800 O   0  0  0  0  0  0  0  0  0  0  0  0
   43.6080   36.7160   44.2550 H   0  0  0  0  0  0  0  0  0  0  0  0
   41.5440   35.2280   37.6080 O   0  0  0  0  0  0  0  0  0  0  0  0
   41.5420   36.0940   37.0810 H   0  0  0  0  0  0  0  0  0  0  0  0
  1  2  2  0  0  0  0
  1  6  1  0  0  0  0
  2  3  1  0  0  0  0
  3  4  2  0  0  0  0
  5  8  1  0  0  0  0
  5  4  1  0  0  0  0
  6  5  2  0  0  0  0
  7  2  1  0  0  0  0
  9 14  1  0  0  0  0
  9 16  1  1  0  0  0
 10  3  1  6  0  0  0
 10  9  1  0  0  0  0
 11 10  1  0  0  0  0
 11 13  1  0  0  0  0
 12 11  1  0  0  0  0
 13 14  1  0  0  0  0
 14 15  1  0  0  0  0
 16 17  1  0  0  0  0
 18  1  1  0  0  0  0
 19 18  1  0  0  0  0
M  END
>  <minimizedAffinity>
-4.73547792

>  <minimizedRMSD>
5.61575985

$$$$
