
 OpenBabel03242511153D

 44 48  0  0  1  0  0  0  0  0999 V2000
   37.4290   32.0830   39.3590 C   0  0  1  0  0  0  0  0  0  0  0  0
   37.3750   31.3190   38.0670 C   0  0  0  0  0  0  0  0  0  0  0  0
   37.7740   30.6630   39.4210 C   0  0  2  0  0  0  0  0  0  0  0  0
   36.4700   32.3600   39.7900 H   0  0  0  0  0  0  0  0  0  0  0  0
   38.2190   31.4410   37.3740 H   0  0  0  0  0  0  0  0  0  0  0  0
   36.3760   31.0460   37.6550 H   0  0  0  0  0  0  0  0  0  0  0  0
   38.8270   30.4040   39.5530 H   0  0  0  0  0  0  0  0  0  0  0  0
   39.1290   35.2470   40.2710 C   0  0  0  0  0  0  0  0  0  0  0  0
   40.4780   34.9870   39.8390 C   0  0  0  0  0  0  0  0  0  0  0  0
   40.7580   33.7180   39.2470 C   0  0  0  0  0  0  0  0  0  0  0  0
   39.7750   32.8370   39.1210 N   0  0  0  0  0  0  0  0  0  0  0  0
   38.5090   33.1220   39.5430 C   0  0  0  0  0  0  0  0  0  0  0  0
   38.1610   34.3280   40.1250 N   0  0  0  0  0  0  0  0  0  0  0  0
   38.9610   36.2270   40.7160 H   0  0  0  0  0  0  0  0  0  0  0  0
   41.2420   35.7150   39.9540 H   0  0  0  0  0  0  0  0  0  0  0  0
   42.2770   33.2300   37.3140 C   0  0  2  0  0  3  0  0  0  0  0  0
   42.1110   33.3960   38.7870 C   0  0  2  0  0  3  0  0  0  0  0  0
   42.6680   32.0970   39.3220 C   0  0  0  0  0  3  0  0  0  0  0  0
   42.9740   32.2330   40.3830 H   0  0  0  0  0  0  0  0  0  0  0  0
   43.8120   31.9510   38.5420 O   0  0  0  0  0  0  0  0  0  0  0  0
   43.4740   32.3120   37.2460 C   0  0  0  0  0  3  0  0  0  0  0  0
   43.3020   31.4680   36.5810 H   0  0  0  0  0  0  0  0  0  0  0  0
   42.5960   34.4850   36.7530 O   0  0  0  0  0  0  0  0  0  0  0  0
   43.4470   34.8070   37.1520 H   0  0  0  0  0  0  0  0  0  0  0  0
   36.8280   29.7520   39.9870 N   0  0  0  0  0  0  0  0  0  0  0  0
   35.9690   29.8720   39.4130 H   0  0  0  0  0  0  0  0  0  0  0  0
   37.1310   28.9540   41.1000 C   0  0  0  0  0  0  0  0  0  0  0  0
   37.4710   29.5590   42.2890 C   0  0  0  0  0  0  0  0  0  0  0  0
   37.7130   28.8510   43.4540 C   0  0  0  0  0  0  0  0  0  0  0  0
   37.6200   27.4840   43.4700 C   0  0  0  0  0  0  0  0  0  0  0  0
   37.2820   26.8450   42.2910 C   0  0  0  0  0  0  0  0  0  0  0  0
   37.1880   25.4700   42.2900 C   0  0  0  0  0  0  0  0  0  0  0  0
   36.8640   24.7680   41.1610 C   0  0  0  0  0  0  0  0  0  0  0  0
   36.6360   25.5080   40.0130 C   0  0  0  0  0  0  0  0  0  0  0  0
   36.7330   26.8830   40.0320 C   0  0  0  0  0  0  0  0  0  0  0  0
   37.0520   27.5820   41.1550 C   0  0  0  0  0  0  0  0  0  0  0  0
   37.5540   30.6500   42.3120 H   0  0  0  0  0  0  0  0  0  0  0  0
   37.9710   29.4160   44.3330 H   0  0  0  0  0  0  0  0  0  0  0  0
   37.8130   26.9590   44.3960 H   0  0  0  0  0  0  0  0  0  0  0  0
   37.3800   24.9450   43.2220 H   0  0  0  0  0  0  0  0  0  0  0  0
   36.7840   23.6900   41.1390 H   0  0  0  0  0  0  0  0  0  0  0  0
   36.3800   24.9550   39.1160 H   0  0  0  0  0  0  0  0  0  0  0  0
   36.5040   27.5740   38.8660 O   0  0  0  0  0  0  0  0  0  0  0  0
   37.0590   27.5380   38.0270 H   0  0  0  0  0  0  0  0  0  0  0  0
  1  3  1  0  0  0  0
  1 12  1  0  0  0  0
  1  4  1  1  0  0  0
  2  1  1  0  0  0  0
  2  3  1  0  0  0  0
  3  7  1  1  0  0  0
  3 25  1  0  0  0  0
  5  2  1  0  0  0  0
  6  2  1  0  0  0  0
  8 14  1  0  0  0  0
  9 15  1  0  0  0  0
  9  8  2  0  0  0  0
 10  9  1  0  0  0  0
 11 10  2  0  0  0  0
 11 12  1  0  0  0  0
 12 13  2  0  0  0  0
 13  8  1  0  0  0  0
 16 23  1  6  0  0  0
 16 17  1  0  0  0  0
 17 10  1  6  0  0  0
 17 18  1  0  0  0  0
 18 19  1  0  0  0  0
 20 18  1  0  0  0  0
 21 16  1  0  0  0  0
 21 20  1  0  0  0  0
 22 21  1  0  0  0  0
 23 24  1  0  0  0  0
 25 27  1  0  0  0  0
 26 25  1  0  0  0  0
 27 36  2  0  0  0  0
 27 28  1  0  0  0  0
 28 37  1  0  0  0  0
 28 29  2  0  0  0  0
 29 30  1  0  0  0  0
 29 38  1  0  0  0  0
 30 39  1  0  0  0  0
 31 30  2  0  0  0  0
 32 31  1  0  0  0  0
 32 40  1  0  0  0  0
 33 32  2  0  0  0  0
 34 35  2  0  0  0  0
 34 33  1  0  0  0  0
 35 36  1  0  0  0  0
 36 31  1  0  0  0  0
 41 33  1  0  0  0  0
 42 34  1  0  0  0  0
 43 35  1  0  0  0  0
 44 43  1  0  0  0  0
M  END
>  <minimizedAffinity>
-7.71845198

$$$$

 OpenBabel03242511153D

 44 48  0  0  1  0  0  0  0  0999 V2000
   37.4050   32.4150   39.2690 C   0  0  1  0  0  0  0  0  0  0  0  0
   37.3270   31.7290   37.9340 C   0  0  0  0  0  0  0  0  0  0  0  0
   37.5980   30.9650   39.2640 C   0  0  2  0  0  0  0  0  0  0  0  0
   36.4620   32.7690   39.6780 H   0  0  0  0  0  0  0  0  0  0  0  0
   38.2070   31.7950   37.2810 H   0  0  0  0  0  0  0  0  0  0  0  0
   36.3230   31.5840   37.4720 H   0  0  0  0  0  0  0  0  0  0  0  0
   38.6120   30.5900   39.4200 H   0  0  0  0  0  0  0  0  0  0  0  0
   39.4000   35.2830   40.5050 C   0  0  0  0  0  0  0  0  0  0  0  0
   40.7140   34.9540   40.0180 C   0  0  0  0  0  0  0  0  0  0  0  0
   40.8710   33.7420   39.2780 C   0  0  0  0  0  0  0  0  0  0  0  0
   39.8090   32.9750   39.0710 N   0  0  0  0  0  0  0  0  0  0  0  0
   38.5790   33.3230   39.5490 C   0  0  0  0  0  0  0  0  0  0  0  0
   38.3500   34.4790   40.2740 N   0  0  0  0  0  0  0  0  0  0  0  0
   39.3280   36.2150   41.0630 H   0  0  0  0  0  0  0  0  0  0  0  0
   41.5440   35.5910   40.2010 H   0  0  0  0  0  0  0  0  0  0  0  0
   42.2850   33.2300   37.2740 C   0  0  2  0  0  3  0  0  0  0  0  0
   42.1830   33.3550   38.7570 C   0  0  2  0  0  3  0  0  0  0  0  0
   42.6770   32.0070   39.2280 C   0  0  0  0  0  3  0  0  0  0  0  0
   43.0290   32.0870   40.2810 H   0  0  0  0  0  0  0  0  0  0  0  0
   43.7810   31.8190   38.4000 O   0  0  0  0  0  0  0  0  0  0  0  0
   43.4200   32.2440   37.1310 C   0  0  0  0  0  3  0  0  0  0  0  0
   43.1710   31.4350   36.4460 H   0  0  0  0  0  0  0  0  0  0  0  0
   42.6610   34.4820   36.7420 O   0  0  0  0  0  0  0  0  0  0  0  0
   43.5440   34.7370   37.1180 H   0  0  0  0  0  0  0  0  0  0  0  0
   36.5390   30.1320   39.7440 N   0  0  0  0  0  0  0  0  0  0  0  0
   35.8160   30.7940   40.0880 H   0  0  0  0  0  0  0  0  0  0  0  0
   36.6180   28.7320   39.7160 C   0  0  0  0  0  0  0  0  0  0  0  0
   36.6390   28.0830   38.5010 C   0  0  0  0  0  0  0  0  0  0  0  0
   36.7890   26.7120   38.3810 C   0  0  0  0  0  0  0  0  0  0  0  0
   36.9270   25.9260   39.4950 C   0  0  0  0  0  0  0  0  0  0  0  0
   36.9080   26.5460   40.7300 C   0  0  0  0  0  0  0  0  0  0  0  0
   37.0430   25.7690   41.8610 C   0  0  0  0  0  0  0  0  0  0  0  0
   37.0280   26.3100   43.1170 C   0  0  0  0  0  0  0  0  0  0  0  0
   36.8690   27.6840   43.2000 C   0  0  0  0  0  0  0  0  0  0  0  0
   36.7370   28.4470   42.0590 C   0  0  0  0  0  0  0  0  0  0  0  0
   36.7550   27.9090   40.8100 C   0  0  0  0  0  0  0  0  0  0  0  0
   36.5310   28.6810   37.5910 H   0  0  0  0  0  0  0  0  0  0  0  0
   36.7940   26.2990   37.3860 H   0  0  0  0  0  0  0  0  0  0  0  0
   37.0450   24.8580   39.3680 H   0  0  0  0  0  0  0  0  0  0  0  0
   37.1630   24.6960   41.7310 H   0  0  0  0  0  0  0  0  0  0  0  0
   37.1330   25.7190   44.0150 H   0  0  0  0  0  0  0  0  0  0  0  0
   36.8560   28.1160   44.1940 H   0  0  0  0  0  0  0  0  0  0  0  0
   36.5750   29.8040   42.1930 O   0  0  0  0  0  0  0  0  0  0  0  0
   35.7910   30.2790   42.6100 H   0  0  0  0  0  0  0  0  0  0  0  0
  1 12  1  0  0  0  0
  1  4  1  1  0  0  0
  2  3  1  0  0  0  0
  2  1  1  0  0  0  0
  3  1  1  0  0  0  0
  3  7  1  1  0  0  0
  3 25  1  0  0  0  0
  5  2  1  0  0  0  0
  6  2  1  0  0  0  0
  8 14  1  0  0  0  0
  9 15  1  0  0  0  0
  9  8  2  0  0  0  0
 10  9  1  0  0  0  0
 11 10  2  0  0  0  0
 11 12  1  0  0  0  0
 12 13  2  0  0  0  0
 13  8  1  0  0  0  0
 16 23  1  6  0  0  0
 16 17  1  0  0  0  0
 17 18  1  0  0  0  0
 17 10  1  6  0  0  0
 18 19  1  0  0  0  0
 20 18  1  0  0  0  0
 21 16  1  0  0  0  0
 21 20  1  0  0  0  0
 22 21  1  0  0  0  0
 23 24  1  0  0  0  0
 25 26  1  0  0  0  0
 27 25  1  0  0  0  0
 27 36  1  0  0  0  0
 28 27  2  0  0  0  0
 29 28  1  0  0  0  0
 29 30  2  0  0  0  0
 30 31  1  0  0  0  0
 31 36  2  0  0  0  0
 31 32  1  0  0  0  0
 32 33  2  0  0  0  0
 33 34  1  0  0  0  0
 33 41  1  0  0  0  0
 34 42  1  0  0  0  0
 35 43  1  0  0  0  0
 35 34  2  0  0  0  0
 36 35  1  0  0  0  0
 37 28  1  0  0  0  0
 38 29  1  0  0  0  0
 39 30  1  0  0  0  0
 40 32  1  0  0  0  0
 43 44  1  0  0  0  0
M  END
>  <minimizedAffinity>
-7.35469151

$$$$

 OpenBabel03242511153D

 44 48  0  0  1  0  0  0  0  0999 V2000
   34.9290   29.2890   37.7590 C   0  0  1  0  0  0  0  0  0  0  0  0
   34.8670   27.7880   37.7930 C   0  0  0  0  0  0  0  0  0  0  0  0
   33.6540   28.6930   38.1590 C   0  0  2  0  0  0  0  0  0  0  0  0
   34.9540   29.7430   36.7720 H   0  0  0  0  0  0  0  0  0  0  0  0
   35.3140   27.2850   38.6610 H   0  0  0  0  0  0  0  0  0  0  0  0
   34.8060   27.2400   36.8250 H   0  0  0  0  0  0  0  0  0  0  0  0
   33.3790   28.7480   39.2140 H   0  0  0  0  0  0  0  0  0  0  0  0
   36.2110   30.4780   41.0270 C   0  0  0  0  0  0  0  0  0  0  0  0
   37.3020   31.3250   40.6200 C   0  0  0  0  0  0  0  0  0  0  0  0
   37.5640   31.4540   39.2210 C   0  0  0  0  0  0  0  0  0  0  0  0
   36.7990   30.7950   38.3620 N   0  0  0  0  0  0  0  0  0  0  0  0
   35.7730   30.0030   38.7880 C   0  0  0  0  0  0  0  0  0  0  0  0
   35.4590   29.8280   40.1240 N   0  0  0  0  0  0  0  0  0  0  0  0
   36.0480   30.4090   42.1010 H   0  0  0  0  0  0  0  0  0  0  0  0
   37.8950   31.8390   41.3350 H   0  0  0  0  0  0  0  0  0  0  0  0
   39.4160   31.7900   37.5670 C   0  0  2  0  0  3  0  0  0  0  0  0
   38.6600   32.3020   38.7470 C   0  0  2  0  0  3  0  0  0  0  0  0
   39.7590   32.5360   39.7570 C   0  0  0  0  0  3  0  0  0  0  0  0
   39.4140   33.2700   40.5190 H   0  0  0  0  0  0  0  0  0  0  0  0
   40.7320   33.1390   38.9640 O   0  0  0  0  0  0  0  0  0  0  0  0
   40.7590   32.4560   37.7570 C   0  0  0  0  0  3  0  0  0  0  0  0
   41.5800   31.7480   37.6660 H   0  0  0  0  0  0  0  0  0  0  0  0
   38.7980   32.2710   36.3940 O   0  0  0  0  0  0  0  0  0  0  0  0
   38.8230   33.2640   36.4030 H   0  0  0  0  0  0  0  0  0  0  0  0
   32.5690   28.7060   37.2260 N   0  0  0  0  0  0  0  0  0  0  0  0
   32.7440   27.8900   36.6060 H   0  0  0  0  0  0  0  0  0  0  0  0
   31.5740   29.6940   37.2490 C   0  0  0  0  0  0  0  0  0  0  0  0
   30.8420   29.8840   38.4000 C   0  0  0  0  0  0  0  0  0  0  0  0
   29.8940   30.8830   38.5340 C   0  0  0  0  0  0  0  0  0  0  0  0
   29.6390   31.7460   37.5000 C   0  0  0  0  0  0  0  0  0  0  0  0
   30.3560   31.5800   36.3290 C   0  0  0  0  0  0  0  0  0  0  0  0
   30.1080   32.4380   35.2780 C   0  0  0  0  0  0  0  0  0  0  0  0
   30.7740   32.3320   34.0870 C   0  0  0  0  0  0  0  0  0  0  0  0
   31.7110   31.3170   33.9860 C   0  0  0  0  0  0  0  0  0  0  0  0
   31.9460   30.4690   35.0470 C   0  0  0  0  0  0  0  0  0  0  0  0
   31.2870   30.5760   36.2330 C   0  0  0  0  0  0  0  0  0  0  0  0
   31.0210   29.2140   39.2460 H   0  0  0  0  0  0  0  0  0  0  0  0
   29.3740   30.9520   39.4750 H   0  0  0  0  0  0  0  0  0  0  0  0
   28.8930   32.5180   37.6360 H   0  0  0  0  0  0  0  0  0  0  0  0
   29.3610   33.2140   35.4180 H   0  0  0  0  0  0  0  0  0  0  0  0
   30.5960   32.9940   33.2520 H   0  0  0  0  0  0  0  0  0  0  0  0
   32.2380   31.2300   33.0430 H   0  0  0  0  0  0  0  0  0  0  0  0
   32.8800   29.4730   34.8970 O   0  0  0  0  0  0  0  0  0  0  0  0
   32.8260   28.6860   34.2710 H   0  0  0  0  0  0  0  0  0  0  0  0
  1  4  1  6  0  0  0
  1  2  1  0  0  0  0
  1  3  1  0  0  0  0
  1 12  1  0  0  0  0
  2  3  1  0  0  0  0
  2  5  1  0  0  0  0
  3  7  1  1  0  0  0
  6  2  1  0  0  0  0
  8 14  1  0  0  0  0
  9  8  1  0  0  0  0
  9 15  1  0  0  0  0
 10  9  2  0  0  0  0
 11 12  2  0  0  0  0
 11 10  1  0  0  0  0
 12 13  1  0  0  0  0
 13  8  2  0  0  0  0
 16 23  1  6  0  0  0
 16 21  1  0  0  0  0
 16 17  1  0  0  0  0
 17 10  1  1  0  0  0
 17 18  1  0  0  0  0
 18 19  1  0  0  0  0
 20 18  1  0  0  0  0
 21 20  1  0  0  0  0
 22 21  1  0  0  0  0
 23 24  1  0  0  0  0
 25 27  1  0  0  0  0
 25  3  1  0  0  0  0
 26 25  1  0  0  0  0
 27 28  1  0  0  0  0
 28 29  2  0  0  0  0
 28 37  1  0  0  0  0
 29 38  1  0  0  0  0
 30 39  1  0  0  0  0
 30 29  1  0  0  0  0
 31 30  2  0  0  0  0
 32 40  1  0  0  0  0
 32 31  1  0  0  0  0
 33 32  2  0  0  0  0
 34 33  1  0  0  0  0
 34 35  2  0  0  0  0
 35 36  1  0  0  0  0
 36 31  1  0  0  0  0
 36 27  2  0  0  0  0
 41 33  1  0  0  0  0
 42 34  1  0  0  0  0
 43 35  1  0  0  0  0
 44 43  1  0  0  0  0
M  END
>  <minimizedAffinity>
-7.07182169

$$$$

 OpenBabel03242511153D

 44 48  0  0  1  0  0  0  0  0999 V2000
   39.9850   31.0770   41.3900 C   0  0  1  0  0  0  0  0  0  0  0  0
   40.8820   30.6460   42.5160 C   0  0  0  0  0  0  0  0  0  0  0  0
   39.3720   30.9700   42.7140 C   0  0  2  0  0  0  0  0  0  0  0  0
   39.7130   30.3050   40.6740 H   0  0  0  0  0  0  0  0  0  0  0  0
   41.5510   31.4030   42.9450 H   0  0  0  0  0  0  0  0  0  0  0  0
   41.1740   29.5720   42.5770 H   0  0  0  0  0  0  0  0  0  0  0  0
   39.1300   31.8980   43.2360 H   0  0  0  0  0  0  0  0  0  0  0  0
   39.3590   34.5560   40.2770 C   0  0  0  0  0  0  0  0  0  0  0  0
   40.6050   34.8840   39.6350 C   0  0  0  0  0  0  0  0  0  0  0  0
   41.6300   33.8890   39.6120 C   0  0  0  0  0  0  0  0  0  0  0  0
   41.3940   32.7130   40.1780 N   0  0  0  0  0  0  0  0  0  0  0  0
   40.1980   32.4400   40.7750 C   0  0  0  0  0  0  0  0  0  0  0  0
   39.1600   33.3530   40.8370 N   0  0  0  0  0  0  0  0  0  0  0  0
   38.6080   35.3440   40.2700 H   0  0  0  0  0  0  0  0  0  0  0  0
   40.7610   35.8360   39.1910 H   0  0  0  0  0  0  0  0  0  0  0  0
   43.1150   33.5710   37.6190 C   0  0  2  0  0  3  0  0  0  0  0  0
   42.9190   34.1650   38.9740 C   0  0  2  0  0  3  0  0  0  0  0  0
   44.1210   33.6480   39.7290 C   0  0  0  0  0  3  0  0  0  0  0  0
   44.3220   34.3070   40.6030 H   0  0  0  0  0  0  0  0  0  0  0  0
   45.1310   33.8320   38.7890 O   0  0  0  0  0  0  0  0  0  0  0  0
   44.6200   33.4530   37.5570 C   0  0  0  0  0  3  0  0  0  0  0  0
   44.9360   32.4640   37.2300 H   0  0  0  0  0  0  0  0  0  0  0  0
   42.6610   34.4950   36.6540 O   0  0  0  0  0  0  0  0  0  0  0  0
   43.1930   35.3300   36.7350 H   0  0  0  0  0  0  0  0  0  0  0  0
   38.5150   29.8560   42.9830 N   0  0  0  0  0  0  0  0  0  0  0  0
   38.7780   29.5450   43.9400 H   0  0  0  0  0  0  0  0  0  0  0  0
   37.5870   29.3820   42.0450 C   0  0  0  0  0  0  0  0  0  0  0  0
   36.6750   30.2570   41.4990 C   0  0  0  0  0  0  0  0  0  0  0  0
   35.7740   29.8910   40.5140 C   0  0  0  0  0  0  0  0  0  0  0  0
   35.7530   28.6090   40.0300 C   0  0  0  0  0  0  0  0  0  0  0  0
   36.6550   27.7040   40.5600 C   0  0  0  0  0  0  0  0  0  0  0  0
   36.6450   26.4090   40.0860 C   0  0  0  0  0  0  0  0  0  0  0  0
   37.5030   25.4570   40.5660 C   0  0  0  0  0  0  0  0  0  0  0  0
   38.3860   25.8580   41.5550 C   0  0  0  0  0  0  0  0  0  0  0  0
   38.3830   27.1570   42.0170 C   0  0  0  0  0  0  0  0  0  0  0  0
   37.5320   28.1040   41.5380 C   0  0  0  0  0  0  0  0  0  0  0  0
   36.6640   31.2900   41.8620 H   0  0  0  0  0  0  0  0  0  0  0  0
   35.1010   30.6490   40.1500 H   0  0  0  0  0  0  0  0  0  0  0  0
   35.0390   28.3530   39.2590 H   0  0  0  0  0  0  0  0  0  0  0  0
   35.9280   26.1560   39.3100 H   0  0  0  0  0  0  0  0  0  0  0  0
   37.5120   24.4370   40.2080 H   0  0  0  0  0  0  0  0  0  0  0  0
   39.0660   25.1050   41.9380 H   0  0  0  0  0  0  0  0  0  0  0  0
   39.2730   27.5050   43.0030 O   0  0  0  0  0  0  0  0  0  0  0  0
   39.2870   27.1610   43.9500 H   0  0  0  0  0  0  0  0  0  0  0  0
  1  4  1  6  0  0  0
  1  2  1  0  0  0  0
  1  3  1  0  0  0  0
  2  6  1  0  0  0  0
  2  3  1  0  0  0  0
  2  5  1  0  0  0  0
  3 25  1  0  0  0  0
  3  7  1  1  0  0  0
  8 13  1  0  0  0  0
  9  8  2  0  0  0  0
 10  9  1  0  0  0  0
 10 11  2  0  0  0  0
 11 12  1  0  0  0  0
 12 13  2  0  0  0  0
 12  1  1  0  0  0  0
 14  8  1  0  0  0  0
 15  9  1  0  0  0  0
 16 23  1  6  0  0  0
 16 17  1  0  0  0  0
 17 10  1  1  0  0  0
 17 18  1  0  0  0  0
 18 19  1  0  0  0  0
 20 18  1  0  0  0  0
 21 16  1  0  0  0  0
 21 20  1  0  0  0  0
 22 21  1  0  0  0  0
 23 24  1  0  0  0  0
 25 26  1  0  0  0  0
 27 25  1  0  0  0  0
 28 37  1  0  0  0  0
 28 27  2  0  0  0  0
 29 28  1  0  0  0  0
 30 29  2  0  0  0  0
 30 31  1  0  0  0  0
 31 36  1  0  0  0  0
 32 31  2  0  0  0  0
 32 33  1  0  0  0  0
 33 34  2  0  0  0  0
 34 42  1  0  0  0  0
 34 35  1  0  0  0  0
 35 43  1  0  0  0  0
 36 35  2  0  0  0  0
 36 27  1  0  0  0  0
 38 29  1  0  0  0  0
 39 30  1  0  0  0  0
 40 32  1  0  0  0  0
 41 33  1  0  0  0  0
 43 44  1  0  0  0  0
M  END
>  <minimizedAffinity>
-7.05415249

$$$$

 OpenBabel03242511153D

 44 48  0  0  1  0  0  0  0  0999 V2000
   37.2930   29.6610   40.1870 C   0  0  1  0  0  0  0  0  0  0  0  0
   36.2310   30.7240   40.1540 C   0  0  0  0  0  0  0  0  0  0  0  0
   37.7420   31.0430   40.3550 C   0  0  2  0  0  0  0  0  0  0  0  0
   37.5300   29.1950   39.2350 H   0  0  0  0  0  0  0  0  0  0  0  0
   35.6300   30.8650   41.0620 H   0  0  0  0  0  0  0  0  0  0  0  0
   35.7900   31.0000   39.1680 H   0  0  0  0  0  0  0  0  0  0  0  0
   38.0520   31.3560   41.3550 H   0  0  0  0  0  0  0  0  0  0  0  0
   37.4540   28.4060   43.6710 C   0  0  0  0  0  0  0  0  0  0  0  0
   37.4310   26.9800   43.4670 C   0  0  0  0  0  0  0  0  0  0  0  0
   37.3540   26.4970   42.1250 C   0  0  0  0  0  0  0  0  0  0  0  0
   37.3080   27.3710   41.1290 N   0  0  0  0  0  0  0  0  0  0  0  0
   37.3340   28.7150   41.3640 C   0  0  0  0  0  0  0  0  0  0  0  0
   37.4070   29.2580   42.6350 N   0  0  0  0  0  0  0  0  0  0  0  0
   37.5140   28.7290   44.7090 H   0  0  0  0  0  0  0  0  0  0  0  0
   37.4690   26.3070   44.2870 H   0  0  0  0  0  0  0  0  0  0  0  0
   38.6560   24.3950   41.7150 C   0  0  2  0  0  3  0  0  0  0  0  0
   37.3260   25.0570   41.8560 C   0  0  2  0  0  3  0  0  0  0  0  0
   36.6360   24.6690   40.5690 C   0  0  0  0  0  3  0  0  0  0  0  0
   35.5340   24.7470   40.7010 H   0  0  0  0  0  0  0  0  0  0  0  0
   36.9810   23.3230   40.4720 O   0  0  0  0  0  0  0  0  0  0  0  0
   38.3140   23.2130   40.8390 C   0  0  0  0  0  3  0  0  0  0  0  0
   38.9990   23.1190   39.9980 H   0  0  0  0  0  0  0  0  0  0  0  0
   39.0730   23.9510   42.9870 O   0  0  0  0  0  0  0  0  0  0  0  0
   38.4080   23.2980   43.3320 H   0  0  0  0  0  0  0  0  0  0  0  0
   38.4050   31.6850   39.2620 N   0  0  0  0  0  0  0  0  0  0  0  0
   38.2190   31.0720   38.4430 H   0  0  0  0  0  0  0  0  0  0  0  0
   39.1380   32.8690   39.4240 C   0  0  0  0  0  0  0  0  0  0  0  0
   38.7250   33.7940   40.3570 C   0  0  0  0  0  0  0  0  0  0  0  0
   39.4290   34.9540   40.6320 C   0  0  0  0  0  0  0  0  0  0  0  0
   40.5960   35.2340   39.9710 C   0  0  0  0  0  0  0  0  0  0  0  0
   41.0370   34.3270   39.0260 C   0  0  0  0  0  0  0  0  0  0  0  0
   42.2080   34.5960   38.3490 C   0  0  0  0  0  0  0  0  0  0  0  0
   42.7040   33.7490   37.3970 C   0  0  0  0  0  0  0  0  0  0  0  0
   41.9700   32.6020   37.1420 C   0  0  0  0  0  0  0  0  0  0  0  0
   40.8020   32.3470   37.8280 C   0  0  0  0  0  0  0  0  0  0  0  0
   40.3100   33.1890   38.7780 C   0  0  0  0  0  0  0  0  0  0  0  0
   37.7970   33.6010   40.9040 H   0  0  0  0  0  0  0  0  0  0  0  0
   39.0240   35.6140   41.3810 H   0  0  0  0  0  0  0  0  0  0  0  0
   41.1250   36.1480   40.2100 H   0  0  0  0  0  0  0  0  0  0  0  0
   42.7380   35.5130   38.5930 H   0  0  0  0  0  0  0  0  0  0  0  0
   43.6200   33.9410   36.8560 H   0  0  0  0  0  0  0  0  0  0  0  0
   42.3600   31.9290   36.3870 H   0  0  0  0  0  0  0  0  0  0  0  0
   40.1060   31.2000   37.5360 O   0  0  0  0  0  0  0  0  0  0  0  0
   39.6510   30.9770   36.6660 H   0  0  0  0  0  0  0  0  0  0  0  0
  1  4  1  6  0  0  0
  1  3  1  0  0  0  0
  1 12  1  0  0  0  0
  2  1  1  0  0  0  0
  2  3  1  0  0  0  0
  2  5  1  0  0  0  0
  3  7  1  1  0  0  0
  6  2  1  0  0  0  0
  8 14  1  0  0  0  0
  9  8  1  0  0  0  0
  9 15  1  0  0  0  0
 10  9  2  0  0  0  0
 11 12  2  0  0  0  0
 11 10  1  0  0  0  0
 12 13  1  0  0  0  0
 13  8  2  0  0  0  0
 16 17  1  0  0  0  0
 16 23  1  1  0  0  0
 17 10  1  6  0  0  0
 18 19  1  0  0  0  0
 18 17  1  0  0  0  0
 20 18  1  0  0  0  0
 20 21  1  0  0  0  0
 21 16  1  0  0  0  0
 22 21  1  0  0  0  0
 23 24  1  0  0  0  0
 25 27  1  0  0  0  0
 25  3  1  0  0  0  0
 26 25  1  0  0  0  0
 27 28  1  0  0  0  0
 28 29  2  0  0  0  0
 28 37  1  0  0  0  0
 29 38  1  0  0  0  0
 30 39  1  0  0  0  0
 30 29  1  0  0  0  0
 31 30  2  0  0  0  0
 32 40  1  0  0  0  0
 32 31  1  0  0  0  0
 33 32  2  0  0  0  0
 34 33  1  0  0  0  0
 34 35  2  0  0  0  0
 35 36  1  0  0  0  0
 36 31  1  0  0  0  0
 36 27  2  0  0  0  0
 41 33  1  0  0  0  0
 42 34  1  0  0  0  0
 43 35  1  0  0  0  0
 44 43  1  0  0  0  0
M  END
>  <minimizedAffinity>
-6.94001961

$$$$

 OpenBabel03242511153D

 44 48  0  0  1  0  0  0  0  0999 V2000
   34.9950   29.3350   37.8170 C   0  0  1  0  0  0  0  0  0  0  0  0
   35.1630   27.8440   37.7390 C   0  0  0  0  0  0  0  0  0  0  0  0
   33.8720   28.5230   38.2830 C   0  0  2  0  0  0  0  0  0  0  0  0
   34.8510   29.8490   36.8700 H   0  0  0  0  0  0  0  0  0  0  0  0
   35.7670   27.3640   38.5200 H   0  0  0  0  0  0  0  0  0  0  0  0
   35.0870   27.3560   36.7400 H   0  0  0  0  0  0  0  0  0  0  0  0
   33.7010   28.4660   39.3600 H   0  0  0  0  0  0  0  0  0  0  0  0
   36.2400   30.6870   41.0350 C   0  0  0  0  0  0  0  0  0  0  0  0
   37.3220   31.5300   40.5970 C   0  0  0  0  0  0  0  0  0  0  0  0
   37.5920   31.5990   39.1960 C   0  0  0  0  0  0  0  0  0  0  0  0
   36.8420   30.8920   38.3620 N   0  0  0  0  0  0  0  0  0  0  0  0
   35.8230   30.1070   38.8170 C   0  0  0  0  0  0  0  0  0  0  0  0
   35.5030   29.9880   40.1580 N   0  0  0  0  0  0  0  0  0  0  0  0
   36.0700   30.6650   42.1100 H   0  0  0  0  0  0  0  0  0  0  0  0
   37.9040   32.0830   41.2920 H   0  0  0  0  0  0  0  0  0  0  0  0
   39.4270   31.9010   37.5160 C   0  0  2  0  0  3  0  0  0  0  0  0
   38.6810   32.4390   38.6910 C   0  0  2  0  0  3  0  0  0  0  0  0
   39.7890   32.7020   39.6830 C   0  0  0  0  0  3  0  0  0  0  0  0
   39.4480   33.4530   40.4310 H   0  0  0  0  0  0  0  0  0  0  0  0
   40.7510   33.2880   38.8660 O   0  0  0  0  0  0  0  0  0  0  0  0
   40.7690   32.5770   37.6760 C   0  0  0  0  0  3  0  0  0  0  0  0
   41.5920   31.8690   37.5940 H   0  0  0  0  0  0  0  0  0  0  0  0
   38.7950   32.3510   36.3380 O   0  0  0  0  0  0  0  0  0  0  0  0
   38.8170   33.3450   36.3220 H   0  0  0  0  0  0  0  0  0  0  0  0
   32.7080   28.4250   37.4560 N   0  0  0  0  0  0  0  0  0  0  0  0
   32.2770   27.5140   37.7130 H   0  0  0  0  0  0  0  0  0  0  0  0
   32.3680   29.4140   36.5220 C   0  0  0  0  0  0  0  0  0  0  0  0
   33.0070   29.4360   35.3020 C   0  0  0  0  0  0  0  0  0  0  0  0
   32.6820   30.3290   34.2970 C   0  0  0  0  0  0  0  0  0  0  0  0
   31.6850   31.2520   34.4800 C   0  0  0  0  0  0  0  0  0  0  0  0
   31.0260   31.2580   35.6950 C   0  0  0  0  0  0  0  0  0  0  0  0
   30.0230   32.1830   35.8960 C   0  0  0  0  0  0  0  0  0  0  0  0
   29.3300   32.2540   37.0740 C   0  0  0  0  0  0  0  0  0  0  0  0
   29.6860   31.3490   38.0600 C   0  0  0  0  0  0  0  0  0  0  0  0
   30.6910   30.4300   37.8420 C   0  0  0  0  0  0  0  0  0  0  0  0
   31.3780   30.3580   36.6700 C   0  0  0  0  0  0  0  0  0  0  0  0
   33.8070   28.7120   35.1220 H   0  0  0  0  0  0  0  0  0  0  0  0
   33.2390   30.2660   33.3770 H   0  0  0  0  0  0  0  0  0  0  0  0
   31.4530   31.9360   33.6740 H   0  0  0  0  0  0  0  0  0  0  0  0
   29.7900   32.8680   35.0850 H   0  0  0  0  0  0  0  0  0  0  0  0
   28.5400   32.9700   37.2510 H   0  0  0  0  0  0  0  0  0  0  0  0
   29.1400   31.4030   38.9950 H   0  0  0  0  0  0  0  0  0  0  0  0
   31.0130   29.5570   38.8530 O   0  0  0  0  0  0  0  0  0  0  0  0
   31.4120   29.7920   39.7470 H   0  0  0  0  0  0  0  0  0  0  0  0
  1  4  1  6  0  0  0
  1  3  1  0  0  0  0
  1 12  1  0  0  0  0
  2  1  1  0  0  0  0
  2  3  1  0  0  0  0
  2  5  1  0  0  0  0
  3  7  1  1  0  0  0
  6  2  1  0  0  0  0
  8 14  1  0  0  0  0
  9  8  1  0  0  0  0
  9 15  1  0  0  0  0
 10  9  2  0  0  0  0
 11 12  2  0  0  0  0
 11 10  1  0  0  0  0
 12 13  1  0  0  0  0
 13  8  2  0  0  0  0
 16 23  1  6  0  0  0
 16 21  1  0  0  0  0
 16 17  1  0  0  0  0
 17 10  1  1  0  0  0
 17 18  1  0  0  0  0
 18 19  1  0  0  0  0
 20 18  1  0  0  0  0
 21 20  1  0  0  0  0
 22 21  1  0  0  0  0
 24 23  1  0  0  0  0
 25 26  1  0  0  0  0
 25  3  1  0  0  0  0
 27 36  1  0  0  0  0
 27 25  1  0  0  0  0
 28 27  2  0  0  0  0
 29 30  2  0  0  0  0
 29 28  1  0  0  0  0
 30 31  1  0  0  0  0
 31 32  2  0  0  0  0
 31 36  1  0  0  0  0
 32 33  1  0  0  0  0
 33 41  1  0  0  0  0
 33 34  2  0  0  0  0
 34 42  1  0  0  0  0
 35 34  1  0  0  0  0
 35 43  1  0  0  0  0
 36 35  2  0  0  0  0
 37 28  1  0  0  0  0
 38 29  1  0  0  0  0
 39 30  1  0  0  0  0
 40 32  1  0  0  0  0
 43 44  1  0  0  0  0
M  END
>  <minimizedAffinity>
-6.86723518

$$$$

 OpenBabel03242511153D

 44 48  0  0  1  0  0  0  0  0999 V2000
   36.9710   30.2170   39.7190 C   0  0  1  0  0  0  0  0  0  0  0  0
   36.8180   31.6480   40.1500 C   0  0  0  0  0  0  0  0  0  0  0  0
   36.2400   30.4530   40.9630 C   0  0  2  0  0  0  0  0  0  0  0  0
   37.9660   29.7910   39.8230 H   0  0  0  0  0  0  0  0  0  0  0  0
   36.0490   32.2470   39.6450 H   0  0  0  0  0  0  0  0  0  0  0  0
   37.7040   32.1660   40.5850 H   0  0  0  0  0  0  0  0  0  0  0  0
   35.1560   30.3230   40.9460 H   0  0  0  0  0  0  0  0  0  0  0  0
   34.4020   28.6170   37.5800 C   0  0  0  0  0  0  0  0  0  0  0  0
   34.9120   28.8870   36.2610 C   0  0  0  0  0  0  0  0  0  0  0  0
   36.1320   29.6230   36.1530 C   0  0  0  0  0  0  0  0  0  0  0  0
   36.7400   30.0240   37.2610 N   0  0  0  0  0  0  0  0  0  0  0  0
   36.2250   29.7450   38.4930 C   0  0  0  0  0  0  0  0  0  0  0  0
   35.0490   29.0400   38.6780 N   0  0  0  0  0  0  0  0  0  0  0  0
   33.4710   28.0540   37.6150 H   0  0  0  0  0  0  0  0  0  0  0  0
   34.4000   28.5520   35.3940 H   0  0  0  0  0  0  0  0  0  0  0  0
   36.4250   31.2970   34.3110 C   0  0  2  0  0  3  0  0  0  0  0  0
   36.7000   29.9280   34.8380 C   0  0  2  0  0  3  0  0  0  0  0  0
   36.2050   29.0460   33.7160 C   0  0  0  0  0  3  0  0  0  0  0  0
   36.6940   28.0480   33.7850 H   0  0  0  0  0  0  0  0  0  0  0  0
   36.7080   29.7150   32.6030 O   0  0  0  0  0  0  0  0  0  0  0  0
   36.5220   31.0720   32.8210 C   0  0  0  0  0  3  0  0  0  0  0  0
   35.6710   31.4930   32.2890 H   0  0  0  0  0  0  0  0  0  0  0  0
   37.4560   32.1590   34.7390 O   0  0  0  0  0  0  0  0  0  0  0  0
   38.3210   31.8280   34.3780 H   0  0  0  0  0  0  0  0  0  0  0  0
   36.8880   30.1590   42.2050 N   0  0  0  0  0  0  0  0  0  0  0  0
   36.8510   31.0500   42.7400 H   0  0  0  0  0  0  0  0  0  0  0  0
   37.4330   28.8980   42.4830 C   0  0  0  0  0  0  0  0  0  0  0  0
   36.6010   27.8020   42.5400 C   0  0  0  0  0  0  0  0  0  0  0  0
   37.0640   26.5130   42.7350 C   0  0  0  0  0  0  0  0  0  0  0  0
   38.4050   26.2680   42.8850 C   0  0  0  0  0  0  0  0  0  0  0  0
   39.2670   27.3480   42.8360 C   0  0  0  0  0  0  0  0  0  0  0  0
   40.6180   27.1190   42.9870 C   0  0  0  0  0  0  0  0  0  0  0  0
   41.5320   28.1370   42.9560 C   0  0  0  0  0  0  0  0  0  0  0  0
   41.0320   29.4150   42.7650 C   0  0  0  0  0  0  0  0  0  0  0  0
   39.6790   29.6260   42.6140 C   0  0  0  0  0  0  0  0  0  0  0  0
   38.7700   28.6130   42.6420 C   0  0  0  0  0  0  0  0  0  0  0  0
   35.5250   27.9610   42.4240 H   0  0  0  0  0  0  0  0  0  0  0  0
   36.3340   25.7220   42.7630 H   0  0  0  0  0  0  0  0  0  0  0  0
   38.7360   25.2500   43.0340 H   0  0  0  0  0  0  0  0  0  0  0  0
   40.9490   26.0950   43.1350 H   0  0  0  0  0  0  0  0  0  0  0  0
   42.5950   27.9800   43.0720 H   0  0  0  0  0  0  0  0  0  0  0  0
   41.7530   30.2240   42.7410 H   0  0  0  0  0  0  0  0  0  0  0  0
   39.2300   30.9120   42.4340 O   0  0  0  0  0  0  0  0  0  0  0  0
   39.2810   31.6660   43.0990 H   0  0  0  0  0  0  0  0  0  0  0  0
  1  4  1  1  0  0  0
  1  2  1  0  0  0  0
  1  3  1  0  0  0  0
  2  6  1  0  0  0  0
  2  3  1  0  0  0  0
  3  7  1  6  0  0  0
  3 25  1  0  0  0  0
  5  2  1  0  0  0  0
  8 14  1  0  0  0  0
  8 13  1  0  0  0  0
  9  8  2  0  0  0  0
 10  9  1  0  0  0  0
 10 11  2  0  0  0  0
 11 12  1  0  0  0  0
 12 13  2  0  0  0  0
 12  1  1  0  0  0  0
 15  9  1  0  0  0  0
 16 23  1  1  0  0  0
 16 17  1  0  0  0  0
 17 10  1  1  0  0  0
 18 19  1  0  0  0  0
 18 17  1  0  0  0  0
 20 21  1  0  0  0  0
 20 18  1  0  0  0  0
 21 16  1  0  0  0  0
 22 21  1  0  0  0  0
 24 23  1  0  0  0  0
 25 27  1  0  0  0  0
 25 26  1  0  0  0  0
 27 28  2  0  0  0  0
 27 36  1  0  0  0  0
 28 29  1  0  0  0  0
 29 38  1  0  0  0  0
 29 30  2  0  0  0  0
 30 39  1  0  0  0  0
 31 30  1  0  0  0  0
 31 32  1  0  0  0  0
 32 40  1  0  0  0  0
 33 32  2  0  0  0  0
 33 41  1  0  0  0  0
 34 33  1  0  0  0  0
 35 36  1  0  0  0  0
 35 34  2  0  0  0  0
 36 31  2  0  0  0  0
 37 28  1  0  0  0  0
 42 34  1  0  0  0  0
 43 35  1  0  0  0  0
 43 44  1  0  0  0  0
M  END
>  <minimizedAffinity>
-6.8551774

$$$$

 OpenBabel03242511153D

 44 48  0  0  1  0  0  0  0  0999 V2000
   34.9760   29.0280   37.5910 C   0  0  1  0  0  0  0  0  0  0  0  0
   34.7310   27.5550   37.7520 C   0  0  0  0  0  0  0  0  0  0  0  0
   33.6440   28.6300   38.0440 C   0  0  2  0  0  0  0  0  0  0  0  0
   35.0440   29.3920   36.5690 H   0  0  0  0  0  0  0  0  0  0  0  0
   35.1250   27.0740   38.6570 H   0  0  0  0  0  0  0  0  0  0  0  0
   34.5900   26.9400   36.8330 H   0  0  0  0  0  0  0  0  0  0  0  0
   33.3910   28.8050   39.0920 H   0  0  0  0  0  0  0  0  0  0  0  0
   37.4460   31.4230   38.9700 C   0  0  0  0  0  0  0  0  0  0  0  0
   37.6230   30.9200   40.3080 C   0  0  0  0  0  0  0  0  0  0  0  0
   36.8740   29.7660   40.6940 C   0  0  0  0  0  0  0  0  0  0  0  0
   36.0540   29.2090   39.8130 N   0  0  0  0  0  0  0  0  0  0  0  0
   35.9160   29.7150   38.5540 C   0  0  0  0  0  0  0  0  0  0  0  0
   36.6060   30.8290   38.1080 N   0  0  0  0  0  0  0  0  0  0  0  0
   38.0360   32.3030   38.7200 H   0  0  0  0  0  0  0  0  0  0  0  0
   38.2880   31.3900   40.9890 H   0  0  0  0  0  0  0  0  0  0  0  0
   38.4100   29.0270   42.5320 C   0  0  2  0  0  3  0  0  0  0  0  0
   37.0120   29.2090   42.0410 C   0  0  2  0  0  3  0  0  0  0  0  0
   36.4280   27.8260   42.2160 C   0  0  0  0  0  3  0  0  0  0  0  0
   35.3180   27.8960   42.2710 H   0  0  0  0  0  0  0  0  0  0  0  0
   36.9180   27.4820   43.4730 O   0  0  0  0  0  0  0  0  0  0  0  0
   38.2360   27.9080   43.5310 C   0  0  0  0  0  3  0  0  0  0  0  0
   38.9660   27.1140   43.3830 H   0  0  0  0  0  0  0  0  0  0  0  0
   38.8110   30.2080   43.1910 O   0  0  0  0  0  0  0  0  0  0  0  0
   38.2040   30.3670   43.9610 H   0  0  0  0  0  0  0  0  0  0  0  0
   32.5560   28.7000   37.1160 N   0  0  0  0  0  0  0  0  0  0  0  0
   32.7240   27.9160   36.4530 H   0  0  0  0  0  0  0  0  0  0  0  0
   31.5680   29.6910   37.1960 C   0  0  0  0  0  0  0  0  0  0  0  0
   30.8780   29.8600   38.3760 C   0  0  0  0  0  0  0  0  0  0  0  0
   29.9400   30.8600   38.5650 C   0  0  0  0  0  0  0  0  0  0  0  0
   29.6530   31.7450   37.5590 C   0  0  0  0  0  0  0  0  0  0  0  0
   30.3260   31.6010   36.3590 C   0  0  0  0  0  0  0  0  0  0  0  0
   30.0460   32.4810   35.3360 C   0  0  0  0  0  0  0  0  0  0  0  0
   30.6670   32.3970   34.1200 C   0  0  0  0  0  0  0  0  0  0  0  0
   31.5950   31.3810   33.9640 C   0  0  0  0  0  0  0  0  0  0  0  0
   31.8640   30.5100   34.9980 C   0  0  0  0  0  0  0  0  0  0  0  0
   31.2480   30.5940   36.2090 C   0  0  0  0  0  0  0  0  0  0  0  0
   31.0840   29.1710   39.2010 H   0  0  0  0  0  0  0  0  0  0  0  0
   29.4550   30.9110   39.5250 H   0  0  0  0  0  0  0  0  0  0  0  0
   28.9160   32.5170   37.7370 H   0  0  0  0  0  0  0  0  0  0  0  0
   29.3070   33.2570   35.5190 H   0  0  0  0  0  0  0  0  0  0  0  0
   30.4630   33.0770   33.3050 H   0  0  0  0  0  0  0  0  0  0  0  0
   32.0880   31.3110   33.0020 H   0  0  0  0  0  0  0  0  0  0  0  0
   32.7880   29.5130   34.7940 O   0  0  0  0  0  0  0  0  0  0  0  0
   32.7070   28.7400   34.1540 H   0  0  0  0  0  0  0  0  0  0  0  0
  1  4  1  6  0  0  0
  1  2  1  0  0  0  0
  1  3  1  0  0  0  0
  1 12  1  0  0  0  0
  2  3  1  0  0  0  0
  2  5  1  0  0  0  0
  3  7  1  1  0  0  0
  6  2  1  0  0  0  0
  8  9  1  0  0  0  0
  9 10  2  0  0  0  0
  9 15  1  0  0  0  0
 11 10  1  0  0  0  0
 12 11  2  0  0  0  0
 13 12  1  0  0  0  0
 13  8  2  0  0  0  0
 14  8  1  0  0  0  0
 16 23  1  1  0  0  0
 16 21  1  0  0  0  0
 17 10  1  6  0  0  0
 17 18  1  0  0  0  0
 17 16  1  0  0  0  0
 18 19  1  0  0  0  0
 18 20  1  0  0  0  0
 20 21  1  0  0  0  0
 22 21  1  0  0  0  0
 23 24  1  0  0  0  0
 25 27  1  0  0  0  0
 25  3  1  0  0  0  0
 26 25  1  0  0  0  0
 27 28  1  0  0  0  0
 28 29  2  0  0  0  0
 28 37  1  0  0  0  0
 29 38  1  0  0  0  0
 30 39  1  0  0  0  0
 30 29  1  0  0  0  0
 31 30  2  0  0  0  0
 32 40  1  0  0  0  0
 32 31  1  0  0  0  0
 33 32  2  0  0  0  0
 34 33  1  0  0  0  0
 34 35  2  0  0  0  0
 35 36  1  0  0  0  0
 36 31  1  0  0  0  0
 36 27  2  0  0  0  0
 41 33  1  0  0  0  0
 42 34  1  0  0  0  0
 43 35  1  0  0  0  0
 44 43  1  0  0  0  0
M  END
>  <minimizedAffinity>
-6.6638751

$$$$

 OpenBabel03242511153D

 44 48  0  0  1  0  0  0  0  0999 V2000
   39.7730   30.6130   41.3660 C   0  0  1  0  0  0  0  0  0  0  0  0
   40.5120   30.1480   42.5890 C   0  0  0  0  0  0  0  0  0  0  0  0
   38.9620   30.2850   42.5380 C   0  0  2  0  0  0  0  0  0  0  0  0
   39.7250   29.9080   40.5400 H   0  0  0  0  0  0  0  0  0  0  0  0
   40.9990   30.9150   43.2060 H   0  0  0  0  0  0  0  0  0  0  0  0
   40.9210   29.1110   42.5960 H   0  0  0  0  0  0  0  0  0  0  0  0
   38.5210   31.1130   43.0970 H   0  0  0  0  0  0  0  0  0  0  0  0
   38.9160   34.1170   40.5130 C   0  0  0  0  0  0  0  0  0  0  0  0
   40.2010   34.6470   40.1400 C   0  0  0  0  0  0  0  0  0  0  0  0
   41.3300   33.7740   40.2000 C   0  0  0  0  0  0  0  0  0  0  0  0
   41.1510   32.5200   40.5950 N   0  0  0  0  0  0  0  0  0  0  0  0
   39.9150   32.0550   40.9390 C   0  0  0  0  0  0  0  0  0  0  0  0
   38.7760   32.8410   40.9060 N   0  0  0  0  0  0  0  0  0  0  0  0
   38.0850   34.8180   40.4520 H   0  0  0  0  0  0  0  0  0  0  0  0
   40.3100   35.6570   39.8280 H   0  0  0  0  0  0  0  0  0  0  0  0
   43.0330   34.1160   38.3940 C   0  0  2  0  0  3  0  0  0  0  0  0
   42.6630   34.2570   39.8320 C   0  0  2  0  0  3  0  0  0  0  0  0
   43.8040   33.5530   40.5280 C   0  0  0  0  0  3  0  0  0  0  0  0
   43.8760   33.9110   41.5800 H   0  0  0  0  0  0  0  0  0  0  0  0
   44.8970   34.0370   39.8150 O   0  0  0  0  0  0  0  0  0  0  0  0
   44.5400   34.0500   38.4750 C   0  0  0  0  0  3  0  0  0  0  0  0
   44.9410   33.2160   37.9010 H   0  0  0  0  0  0  0  0  0  0  0  0
   42.6350   35.2850   37.7110 O   0  0  0  0  0  0  0  0  0  0  0  0
   43.1110   36.0630   38.1050 H   0  0  0  0  0  0  0  0  0  0  0  0
   38.2180   29.0630   42.5360 N   0  0  0  0  0  0  0  0  0  0  0  0
   37.9220   28.9310   43.5240 H   0  0  0  0  0  0  0  0  0  0  0  0
   38.0360   28.3000   41.3730 C   0  0  0  0  0  0  0  0  0  0  0  0
   38.9510   27.3190   41.0620 C   0  0  0  0  0  0  0  0  0  0  0  0
   38.8100   26.4720   39.9770 C   0  0  0  0  0  0  0  0  0  0  0  0
   37.7250   26.5790   39.1460 C   0  0  0  0  0  0  0  0  0  0  0  0
   36.7890   27.5570   39.4290 C   0  0  0  0  0  0  0  0  0  0  0  0
   35.6940   27.6800   38.6000 C   0  0  0  0  0  0  0  0  0  0  0  0
   34.7290   28.6270   38.8130 C   0  0  0  0  0  0  0  0  0  0  0  0
   34.9060   29.4600   39.9050 C   0  0  0  0  0  0  0  0  0  0  0  0
   36.0070   29.3230   40.7230 C   0  0  0  0  0  0  0  0  0  0  0  0
   36.9650   28.3800   40.5140 C   0  0  0  0  0  0  0  0  0  0  0  0
   39.8290   27.2050   41.7060 H   0  0  0  0  0  0  0  0  0  0  0  0
   39.5790   25.7350   39.8180 H   0  0  0  0  0  0  0  0  0  0  0  0
   37.6420   25.9020   38.3060 H   0  0  0  0  0  0  0  0  0  0  0  0
   35.6110   26.9970   37.7590 H   0  0  0  0  0  0  0  0  0  0  0  0
   33.8630   28.7390   38.1770 H   0  0  0  0  0  0  0  0  0  0  0  0
   34.1440   30.2120   40.0750 H   0  0  0  0  0  0  0  0  0  0  0  0
   36.1420   30.1780   41.7900 O   0  0  0  0  0  0  0  0  0  0  0  0
   36.2880   31.1740   41.7490 H   0  0  0  0  0  0  0  0  0  0  0  0
  1  4  1  6  0  0  0
  1  3  1  0  0  0  0
  1  2  1  0  0  0  0
  2  6  1  0  0  0  0
  2  5  1  0  0  0  0
  3  2  1  0  0  0  0
  3  7  1  1  0  0  0
  8 13  1  0  0  0  0
  9 10  1  0  0  0  0
  9  8  2  0  0  0  0
 10 11  2  0  0  0  0
 11 12  1  0  0  0  0
 12  1  1  0  0  0  0
 13 12  2  0  0  0  0
 14  8  1  0  0  0  0
 15  9  1  0  0  0  0
 16 23  1  6  0  0  0
 16 21  1  0  0  0  0
 16 17  1  0  0  0  0
 17 10  1  6  0  0  0
 17 18  1  0  0  0  0
 18 19  1  0  0  0  0
 20 18  1  0  0  0  0
 21 20  1  0  0  0  0
 22 21  1  0  0  0  0
 23 24  1  0  0  0  0
 25  3  1  0  0  0  0
 25 26  1  0  0  0  0
 27 25  1  0  0  0  0
 28 27  1  0  0  0  0
 28 37  1  0  0  0  0
 29 28  2  0  0  0  0
 30 31  2  0  0  0  0
 30 29  1  0  0  0  0
 31 36  1  0  0  0  0
 32 33  2  0  0  0  0
 32 31  1  0  0  0  0
 33 34  1  0  0  0  0
 34 42  1  0  0  0  0
 34 35  2  0  0  0  0
 35 43  1  0  0  0  0
 36 35  1  0  0  0  0
 36 27  2  0  0  0  0
 38 29  1  0  0  0  0
 39 30  1  0  0  0  0
 40 32  1  0  0  0  0
 41 33  1  0  0  0  0
 44 43  1  0  0  0  0
M  END
>  <minimizedAffinity>
-6.63166094

$$$$
