
 OpenBabel03242521383D

 21 22  0  0  1  0  0  0  0  0999 V2000
   44.8050   35.3960   43.1100 C   0  0  0  0  0  0  0  0  0  0  0  0
   43.7170   35.5120   42.2460 C   0  0  0  0  0  0  0  0  0  0  0  0
   43.8620   34.9960   40.9490 C   0  0  0  0  0  0  0  0  0  0  0  0
   45.0330   34.4170   40.6020 N   0  0  0  0  0  0  0  0  0  0  0  0
   46.0770   34.3230   41.4780 C   0  0  0  0  0  0  0  0  0  0  0  0
   45.9440   34.8210   42.7360 N   0  0  0  0  0  0  0  0  0  0  0  0
   42.7780   35.9740   42.5210 H   0  0  0  0  0  0  0  0  0  0  0  0
   46.9970   33.8520   41.1590 H   0  0  0  0  0  0  0  0  0  0  0  0
   42.7840   33.9880   38.9430 C   0  0  1  0  0  0  0  0  0  0  0  0
   42.7630   35.0800   39.9850 C   0  0  1  0  0  0  0  0  0  0  0  0
   41.3910   34.8450   40.5880 C   0  0  0  0  0  0  0  0  0  0  0  0
   41.0370   35.6400   41.2400 H   0  0  0  0  0  0  0  0  0  0  0  0
   40.6220   34.7550   39.4140 O   0  0  0  0  0  0  0  0  0  0  0  0
   41.3200   33.9550   38.5490 C   0  0  0  0  0  0  0  0  0  0  0  0
   41.2640   34.2780   37.4730 H   0  0  0  0  0  0  0  0  0  0  0  0
   43.6050   34.2720   37.8760 O   0  0  0  0  0  0  0  0  0  0  0  0
   43.1490   34.9190   37.2540 H   0  0  0  0  0  0  0  0  0  0  0  0
   44.6380   35.9510   44.4930 C   0  0  0  0  0  0  0  0  0  0  0  0
   45.6170   36.0870   44.9950 H   0  0  0  0  0  0  0  0  0  0  0  0
   43.9980   35.2930   45.1260 H   0  0  0  0  0  0  0  0  0  0  0  0
   44.1460   36.9530   44.4690 H   0  0  0  0  0  0  0  0  0  0  0  0
  1 18  1  0  0  0  0
  2  7  1  0  0  0  0
  2  1  2  0  0  0  0
  3  2  1  0  0  0  0
  4  3  2  0  0  0  0
  4  5  1  0  0  0  0
  5  6  2  0  0  0  0
  6  1  1  0  0  0  0
  8  5  1  0  0  0  0
  9 16  1  6  0  0  0
  9 10  1  0  0  0  0
 10 11  1  0  0  0  0
 10  3  1  1  0  0  0
 11 12  1  0  0  0  0
 13 11  1  0  0  0  0
 14  9  1  0  0  0  0
 14 13  1  0  0  0  0
 15 14  1  0  0  0  0
 17 16  1  0  0  0  0
 18 19  1  0  0  0  0
 18 20  1  0  0  0  0
 21 18  1  0  0  0  0
M  END
>  <minimizedAffinity>
-4.30898762

>  <minimizedRMSD>
6.56001616

$$$$
