
 OpenBabel03252502003D

 34 37  0  0  1  0  0  0  0  0999 V2000
   47.7700   32.1670   48.3350 C   0  0  0  0  0  0  0  0  0  0  0  0
   47.5910   30.7810   48.2530 C   0  0  0  0  0  0  0  0  0  0  0  0
   46.8600   30.2890   47.2110 C   0  0  0  0  0  0  0  0  0  0  0  0
   46.3560   31.1660   46.3250 N   0  0  0  0  0  0  0  0  0  0  0  0
   46.5060   32.4710   46.3750 C   0  0  0  0  0  0  0  0  0  0  0  0
   47.2270   32.9540   47.4040 N   0  0  0  0  0  0  0  0  0  0  0  0
   48.3590   32.5710   49.1740 H   0  0  0  0  0  0  0  0  0  0  0  0
   46.0360   33.5560   45.5110 C   0  0  0  0  0  0  0  0  0  0  0  0
   45.0410   34.4140   45.8430 N   0  0  0  0  0  0  0  0  0  0  0  0
   44.5780   35.4110   45.1060 C   0  0  0  0  0  0  0  0  0  0  0  0
   45.1310   35.6330   43.8800 N   0  0  0  0  0  0  0  0  0  0  0  0
   46.1320   34.8490   43.4280 C   0  0  0  0  0  0  0  0  0  0  0  0
   46.6850   35.0820   42.1850 C   0  0  0  0  0  0  0  0  0  0  0  0
   47.7060   34.2900   41.7140 C   0  0  0  0  0  0  0  0  0  0  0  0
   48.1460   33.2690   42.5260 C   0  0  0  0  0  0  0  0  0  0  0  0
   47.5650   33.0770   43.7520 C   0  0  0  0  0  0  0  0  0  0  0  0
   46.5480   33.8350   44.2660 C   0  0  0  0  0  0  0  0  0  0  0  0
   43.7810   36.0370   45.4660 H   0  0  0  0  0  0  0  0  0  0  0  0
   46.3080   35.8990   41.5790 H   0  0  0  0  0  0  0  0  0  0  0  0
   48.1160   34.5010   40.7370 H   0  0  0  0  0  0  0  0  0  0  0  0
   48.9480   32.6300   42.1800 H   0  0  0  0  0  0  0  0  0  0  0  0
   47.9560   32.2480   44.3520 H   0  0  0  0  0  0  0  0  0  0  0  0
   45.4010   28.3690   47.8020 C   0  0  2  0  0  0  0  0  0  0  0  0
   46.6350   28.8740   47.0640 C   0  0  1  0  0  0  0  0  0  0  0  0
   46.4590   28.2850   45.7290 C   0  0  0  0  0  0  0  0  0  0  0  0
   47.0570   28.7050   44.9250 H   0  0  0  0  0  0  0  0  0  0  0  0
   45.0920   28.2050   45.4770 O   0  0  0  0  0  0  0  0  0  0  0  0
   44.4400   28.1470   46.6710 C   0  0  0  0  0  0  0  0  0  0  0  0
   43.5910   28.8910   46.7350 H   0  0  0  0  0  0  0  0  0  0  0  0
   44.9580   29.2550   48.7700 O   0  0  0  0  0  0  0  0  0  0  0  0
   45.2470   28.9050   49.6680 H   0  0  0  0  0  0  0  0  0  0  0  0
   48.1860   29.9940   49.2590 N   0  0  0  0  0  0  0  0  0  0  0  0
   49.1320   29.8390   48.7980 H   0  0  0  0  0  0  0  0  0  0  0  0
   47.7800   29.6820   50.1690 H   0  0  0  0  0  0  0  0  0  0  0  0
  1  7  1  0  0  0  0
  2  1  1  0  0  0  0
  2 32  1  0  0  0  0
  3  2  2  0  0  0  0
  4  5  2  0  0  0  0
  4  3  1  0  0  0  0
  5  6  1  0  0  0  0
  6  1  2  0  0  0  0
  8  9  1  0  0  0  0
  8  5  1  0  0  0  0
 10 18  1  0  0  0  0
 10  9  2  0  0  0  0
 11 10  1  0  0  0  0
 12 11  2  0  0  0  0
 12 17  1  0  0  0  0
 13 12  1  0  0  0  0
 14 13  2  0  0  0  0
 14 15  1  0  0  0  0
 15 16  2  0  0  0  0
 16 17  1  0  0  0  0
 16 22  1  0  0  0  0
 17  8  2  0  0  0  0
 19 13  1  0  0  0  0
 20 14  1  0  0  0  0
 21 15  1  0  0  0  0
 23 30  1  1  0  0  0
 24  3  1  6  0  0  0
 24 23  1  0  0  0  0
 25 24  1  0  0  0  0
 26 25  1  0  0  0  0
 27 25  1  0  0  0  0
 27 28  1  0  0  0  0
 28 29  1  0  0  0  0
 28 23  1  0  0  0  0
 30 31  1  0  0  0  0
 32 34  1  0  0  0  0
 33 32  1  0  0  0  0
M  END
>  <minimizedAffinity>
-6.33278513

>  <minimizedRMSD>
0.941085279

$$$$
