
 OpenBabel03252506423D

 40 43  0  0  1  0  0  0  0  0999 V2000
   49.3350   33.2420   41.4580 N   0  0  1  0  0  0  0  0  0  0  0  0
   50.6550   33.1310   42.0390 C   0  0  0  0  0  0  0  0  0  0  0  0
   51.3340   31.8280   41.8280 C   0  0  0  0  0  0  0  0  0  0  0  0
   50.5650   30.7470   42.5260 C   0  0  0  0  0  0  0  0  0  0  0  0
   49.0910   30.9900   42.4350 C   0  0  0  0  0  0  0  0  0  0  0  0
   48.7520   31.9330   41.3410 C   0  0  2  0  0  0  0  0  0  0  0  0
   50.5700   33.2750   43.1380 H   0  0  0  0  0  0  0  0  0  0  0  0
   51.2590   33.9780   41.6560 H   0  0  0  0  0  0  0  0  0  0  0  0
   52.3230   31.9230   42.3730 H   0  0  0  0  0  0  0  0  0  0  0  0
   51.6460   31.5970   40.7960 H   0  0  0  0  0  0  0  0  0  0  0  0
   50.8260   30.7900   43.6060 H   0  0  0  0  0  0  0  0  0  0  0  0
   50.8640   29.7270   42.2180 H   0  0  0  0  0  0  0  0  0  0  0  0
   48.5820   30.0370   42.2380 H   0  0  0  0  0  0  0  0  0  0  0  0
   48.6600   31.3630   43.3870 H   0  0  0  0  0  0  0  0  0  0  0  0
   47.6520   32.1470   41.5440 H   0  0  0  0  0  0  0  0  0  0  0  0
   47.1840   34.5660   41.9880 C   0  0  1  0  0  0  0  0  0  0  0  0
   48.3060   35.4810   41.7110 C   0  0  0  0  0  0  0  0  0  0  0  0
   48.5860   34.1360   42.2760 C   0  0  2  0  0  0  0  0  0  0  0  0
   46.6810   34.1600   41.0880 H   0  0  0  0  0  0  0  0  0  0  0  0
   48.4680   36.3450   42.3740 H   0  0  0  0  0  0  0  0  0  0  0  0
   48.5810   35.7050   40.6590 H   0  0  0  0  0  0  0  0  0  0  0  0
   48.8260   34.0940   43.3770 H   0  0  0  0  0  0  0  0  0  0  0  0
   45.5040   36.0340   43.1650 C   0  0  0  0  0  0  0  0  0  0  0  0
   46.2760   34.8540   43.1370 C   0  0  0  0  0  0  0  0  0  0  0  0
   46.1630   33.9630   44.2160 C   0  0  0  0  0  0  0  0  0  0  0  0
   45.3130   34.2850   45.2290 N   0  0  0  0  0  0  0  0  0  0  0  0
   44.5860   35.4280   45.2220 C   0  0  0  0  0  0  0  0  0  0  0  0
   44.6780   36.3090   44.1880 N   0  0  0  0  0  0  0  0  0  0  0  0
   45.5860   36.7200   42.3410 H   0  0  0  0  0  0  0  0  0  0  0  0
   46.7420   33.0460   44.2280 H   0  0  0  0  0  0  0  0  0  0  0  0
   43.9140   35.6760   46.0290 H   0  0  0  0  0  0  0  0  0  0  0  0
   49.9280   31.7410   39.0900 C   0  0  1  0  0  0  0  0  0  0  0  0
   48.7540   31.4190   39.9430 C   0  0  1  0  0  0  0  0  0  0  0  0
   48.8740   29.8850   39.9650 C   0  0  0  0  0  0  0  0  0  0  0  0
   47.9830   29.3930   40.3470 H   0  0  0  0  0  0  0  0  0  0  0  0
   49.2770   29.5200   38.6980 O   0  0  0  0  0  0  0  0  0  0  0  0
   49.8010   30.6170   38.0480 C   0  0  0  0  0  0  0  0  0  0  0  0
   49.0210   30.9280   37.2990 H   0  0  0  0  0  0  0  0  0  0  0  0
   49.7860   32.9070   38.3470 O   0  0  0  0  0  0  0  0  0  0  0  0
   50.5000   33.5620   38.5030 H   0  0  0  0  0  0  0  0  0  0  0  0
  1  2  1  1  0  0  0
  1 18  1  0  0  0  0
  2  7  1  0  0  0  0
  3  2  1  0  0  0  0
  3  9  1  0  0  0  0
  3  4  1  0  0  0  0
  4 11  1  0  0  0  0
  5  4  1  0  0  0  0
  5 14  1  0  0  0  0
  6  1  1  0  0  0  0
  6 15  1  1  0  0  0
  6  5  1  0  0  0  0
  8  2  1  0  0  0  0
 10  3  1  0  0  0  0
 12  4  1  0  0  0  0
 13  5  1  0  0  0  0
 16 19  1  6  0  0  0
 16 18  1  0  0  0  0
 16 24  1  0  0  0  0
 17 16  1  0  0  0  0
 17 18  1  0  0  0  0
 17 20  1  0  0  0  0
 18 22  1  1  0  0  0
 21 17  1  0  0  0  0
 23 28  1  0  0  0  0
 24 23  2  0  0  0  0
 24 25  1  0  0  0  0
 25 30  1  0  0  0  0
 25 26  2  0  0  0  0
 27 26  1  0  0  0  0
 27 31  1  0  0  0  0
 28 27  2  0  0  0  0
 29 23  1  0  0  0  0
 32 39  1  6  0  0  0
 32 33  1  0  0  0  0
 33 34  1  1  0  0  0
 33  6  1  0  0  0  0
 34 35  1  0  0  0  0
 36 34  1  0  0  0  0
 37 36  1  0  0  0  0
 37 32  1  0  0  0  0
 38 37  1  0  0  0  0
 39 40  1  0  0  0  0
M  END
>  <minimizedAffinity>
-5.03995132

>  <minimizedRMSD>
0.653701425

$$$$
