
 OpenBabel03252505153D

 25 27  0  0  1  0  0  0  0  0999 V2000
   44.5620   35.6370   44.8220 C   0  0  0  0  0  0  0  0  0  0  0  0
   45.0850   35.7330   43.5220 C   0  0  0  0  0  0  0  0  0  0  0  0
   46.0880   34.8060   43.2230 C   0  0  0  0  0  0  0  0  0  0  0  0
   46.4900   33.8940   44.1690 N   0  0  0  0  0  0  0  0  0  0  0  0
   45.9410   33.8550   45.4090 C   0  0  0  0  0  0  0  0  0  0  0  0
   44.9760   34.7330   45.7240 N   0  0  0  0  0  0  0  0  0  0  0  0
   43.7740   36.3290   45.1290 H   0  0  0  0  0  0  0  0  0  0  0  0
   44.7530   36.4530   42.8100 H   0  0  0  0  0  0  0  0  0  0  0  0
   46.7180   34.7880   41.8580 C   0  0  0  0  0  0  0  0  0  0  0  0
   48.1470   35.2870   41.8740 C   0  0  0  0  0  0  0  0  0  0  0  0
   47.7590   33.8040   41.5990 C   0  0  0  0  0  0  0  0  0  0  0  0
   46.0650   35.1740   41.0530 H   0  0  0  0  0  0  0  0  0  0  0  0
   48.4410   35.8620   40.9720 H   0  0  0  0  0  0  0  0  0  0  0  0
   48.6310   35.5260   42.8230 H   0  0  0  0  0  0  0  0  0  0  0  0
   48.0660   33.1340   42.4530 H   0  0  0  0  0  0  0  0  0  0  0  0
   48.0050   33.4270   40.5880 H   0  0  0  0  0  0  0  0  0  0  0  0
   45.9660   32.8160   47.6380 C   0  0  2  0  0  3  0  0  0  0  0  0
   46.5450   32.7820   46.2400 C   0  0  1  0  0  3  0  0  0  0  0  0
   46.0840   31.4110   45.7630 C   0  0  0  0  0  3  0  0  0  0  0  0
   46.9490   30.8220   45.4200 H   0  0  0  0  0  0  0  0  0  0  0  0
   45.4680   30.7870   46.8280 O   0  0  0  0  0  0  0  0  0  0  0  0
   45.9790   31.3230   47.9860 C   0  0  0  0  0  3  0  0  0  0  0  0
   47.0210   30.9860   48.0790 H   0  0  0  0  0  0  0  0  0  0  0  0
   44.6960   33.3330   47.6660 O   0  0  0  0  0  0  0  0  0  0  0  0
   44.1260   32.9200   48.3830 H   0  0  0  0  0  0  0  0  0  0  0  0
  1  7  1  0  0  0  0
  1  6  1  0  0  0  0
  2  1  2  0  0  0  0
  3  2  1  0  0  0  0
  3  4  2  0  0  0  0
  4  5  1  0  0  0  0
  5  6  2  0  0  0  0
  8  2  1  0  0  0  0
  9 10  1  0  0  0  0
  9  3  1  0  0  0  0
 10 14  1  0  0  0  0
 11  9  1  0  0  0  0
 11 10  1  0  0  0  0
 11 15  1  0  0  0  0
 12  9  1  0  0  0  0
 13 10  1  0  0  0  0
 16 11  1  0  0  0  0
 17 24  1  6  0  0  0
 17 22  1  0  0  0  0
 18  5  1  6  0  0  0
 18 17  1  0  0  0  0
 19 18  1  0  0  0  0
 19 21  1  0  0  0  0
 20 19  1  0  0  0  0
 21 22  1  0  0  0  0
 22 23  1  0  0  0  0
 24 25  1  0  0  0  0
M  END
>  <minimizedAffinity>
-5.3048439

>  <minimizedRMSD>
0.704573512

$$$$
