
 OpenBabel03242521403D

 21 22  0  0  1  0  0  0  0  0999 V2000
   37.2780   26.2690   42.1430 C   0  0  0  0  0  0  0  0  0  0  0  0
   36.8380   27.1040   41.1170 C   0  0  0  0  0  0  0  0  0  0  0  0
   36.9150   28.4890   41.3310 C   0  0  0  0  0  0  0  0  0  0  0  0
   37.4060   28.9430   42.5050 N   0  0  0  0  0  0  0  0  0  0  0  0
   37.8270   28.0920   43.4870 C   0  0  0  0  0  0  0  0  0  0  0  0
   37.7560   26.7490   43.2880 N   0  0  0  0  0  0  0  0  0  0  0  0
   36.4440   26.7430   40.1760 H   0  0  0  0  0  0  0  0  0  0  0  0
   38.2130   28.4990   44.4120 H   0  0  0  0  0  0  0  0  0  0  0  0
   36.6960   30.8760   40.6620 C   0  0  1  0  0  3  0  0  0  0  0  0
   36.4710   29.4280   40.3000 C   0  0  1  0  0  3  0  0  0  0  0  0
   37.2650   29.3510   39.0090 C   0  0  0  0  0  3  0  0  0  0  0  0
   37.0980   28.4490   38.4250 H   0  0  0  0  0  0  0  0  0  0  0  0
   36.7720   30.4930   38.3530 O   0  0  0  0  0  0  0  0  0  0  0  0
   36.7520   31.5000   39.2800 C   0  0  0  0  0  3  0  0  0  0  0  0
   35.8660   32.1880   39.1960 H   0  0  0  0  0  0  0  0  0  0  0  0
   35.6870   31.4070   41.4330 O   0  0  0  0  0  0  0  0  0  0  0  0
   34.8920   31.6270   40.8540 H   0  0  0  0  0  0  0  0  0  0  0  0
   37.1910   24.7910   41.9030 C   0  0  0  0  0  0  0  0  0  0  0  0
   37.2710   24.2210   42.8510 H   0  0  0  0  0  0  0  0  0  0  0  0
   37.9870   24.4400   41.2050 H   0  0  0  0  0  0  0  0  0  0  0  0
   36.2120   24.5140   41.4430 H   0  0  0  0  0  0  0  0  0  0  0  0
  1  6  1  0  0  0  0
  2  3  1  0  0  0  0
  2  1  2  0  0  0  0
  3  4  2  0  0  0  0
  4  5  1  0  0  0  0
  5  8  1  0  0  0  0
  6  5  2  0  0  0  0
  7  2  1  0  0  0  0
  9 16  1  1  0  0  0
 10  9  1  0  0  0  0
 10  3  1  1  0  0  0
 11 10  1  0  0  0  0
 12 11  1  0  0  0  0
 13 11  1  0  0  0  0
 13 14  1  0  0  0  0
 14  9  1  0  0  0  0
 15 14  1  0  0  0  0
 17 16  1  0  0  0  0
 18  1  1  0  0  0  0
 18 19  1  0  0  0  0
 20 18  1  0  0  0  0
 21 18  1  0  0  0  0
M  END
>  <minimizedAffinity>
-4.39458561

$$$$

 OpenBabel03242521403D

 21 22  0  0  1  0  0  0  0  0999 V2000
   38.0230   24.3160   41.4850 C   0  0  0  0  0  0  0  0  0  0  0  0
   37.1770   25.4100   41.3100 C   0  0  0  0  0  0  0  0  0  0  0  0
   37.4580   26.5710   42.0470 C   0  0  0  0  0  0  0  0  0  0  0  0
   38.5220   26.5750   42.8810 N   0  0  0  0  0  0  0  0  0  0  0  0
   39.3280   25.4820   43.0250 C   0  0  0  0  0  0  0  0  0  0  0  0
   39.0620   24.3530   42.3150 N   0  0  0  0  0  0  0  0  0  0  0  0
   36.3250   25.4110   40.6430 H   0  0  0  0  0  0  0  0  0  0  0  0
   40.1690   25.5280   43.7040 H   0  0  0  0  0  0  0  0  0  0  0  0
   37.3030   29.0400   42.3240 C   0  0  1  0  0  3  0  0  0  0  0  0
   36.6150   27.7610   41.9160 C   0  0  1  0  0  3  0  0  0  0  0  0
   36.2450   28.1040   40.4850 C   0  0  0  0  0  3  0  0  0  0  0  0
   35.5490   27.4130   40.0160 H   0  0  0  0  0  0  0  0  0  0  0  0
   35.6690   29.3710   40.6800 O   0  0  0  0  0  0  0  0  0  0  0  0
   36.4980   30.0520   41.5310 C   0  0  0  0  0  3  0  0  0  0  0  0
   35.9620   30.7010   42.2770 H   0  0  0  0  0  0  0  0  0  0  0  0
   37.2490   29.2780   43.6790 O   0  0  0  0  0  0  0  0  0  0  0  0
   36.3400   29.6330   43.9290 H   0  0  0  0  0  0  0  0  0  0  0  0
   37.7120   23.0820   40.6920 C   0  0  0  0  0  0  0  0  0  0  0  0
   38.2320   22.1940   41.1060 H   0  0  0  0  0  0  0  0  0  0  0  0
   37.9990   23.1980   39.6210 H   0  0  0  0  0  0  0  0  0  0  0  0
   36.6200   22.8540   40.7120 H   0  0  0  0  0  0  0  0  0  0  0  0
  1  6  1  0  0  0  0
  2  1  2  0  0  0  0
  2  3  1  0  0  0  0
  3  4  2  0  0  0  0
  4  5  1  0  0  0  0
  5  8  1  0  0  0  0
  6  5  2  0  0  0  0
  7  2  1  0  0  0  0
  9 16  1  1  0  0  0
 10  3  1  6  0  0  0
 10  9  1  0  0  0  0
 11 13  1  0  0  0  0
 11 10  1  0  0  0  0
 12 11  1  0  0  0  0
 13 14  1  0  0  0  0
 14 15  1  0  0  0  0
 14  9  1  0  0  0  0
 16 17  1  0  0  0  0
 18 21  1  0  0  0  0
 18 19  1  0  0  0  0
 18  1  1  0  0  0  0
 20 18  1  0  0  0  0
M  END
>  <minimizedAffinity>
-4.33946037

$$$$

 OpenBabel03242521403D

 21 22  0  0  1  0  0  0  0  0999 V2000
   39.5760   27.7860   42.9440 C   0  0  0  0  0  0  0  0  0  0  0  0
   39.3260   28.6870   41.9100 C   0  0  0  0  0  0  0  0  0  0  0  0
   37.9890   29.0350   41.6640 C   0  0  0  0  0  0  0  0  0  0  0  0
   37.0190   28.4890   42.4310 N   0  0  0  0  0  0  0  0  0  0  0  0
   37.3050   27.6090   43.4360 C   0  0  0  0  0  0  0  0  0  0  0  0
   38.5980   27.2660   43.6800 N   0  0  0  0  0  0  0  0  0  0  0  0
   40.1000   29.1260   41.2950 H   0  0  0  0  0  0  0  0  0  0  0  0
   36.4980   27.1950   44.0250 H   0  0  0  0  0  0  0  0  0  0  0  0
   36.7950   31.1330   41.0560 C   0  0  1  0  0  3  0  0  0  0  0  0
   37.6470   29.9750   40.5960 C   0  0  1  0  0  3  0  0  0  0  0  0
   38.8360   30.7300   40.0300 C   0  0  0  0  0  3  0  0  0  0  0  0
   39.5200   30.1250   39.4400 H   0  0  0  0  0  0  0  0  0  0  0  0
   38.1660   31.6790   39.2380 O   0  0  0  0  0  0  0  0  0  0  0  0
   37.1340   32.1640   39.9960 C   0  0  0  0  0  3  0  0  0  0  0  0
   36.1900   32.3610   39.4170 H   0  0  0  0  0  0  0  0  0  0  0  0
   35.4500   30.8400   41.0870 O   0  0  0  0  0  0  0  0  0  0  0  0
   35.0710   30.8720   40.1540 H   0  0  0  0  0  0  0  0  0  0  0  0
   41.0090   27.4220   43.1960 C   0  0  0  0  0  0  0  0  0  0  0  0
   41.0910   26.5010   43.8100 H   0  0  0  0  0  0  0  0  0  0  0  0
   41.5590   28.2450   43.7100 H   0  0  0  0  0  0  0  0  0  0  0  0
   41.5490   27.2200   42.2400 H   0  0  0  0  0  0  0  0  0  0  0  0
  1 18  1  0  0  0  0
  1  6  1  0  0  0  0
  2  1  2  0  0  0  0
  3  2  1  0  0  0  0
  3  4  2  0  0  0  0
  4  5  1  0  0  0  0
  5  6  2  0  0  0  0
  5  8  1  0  0  0  0
  7  2  1  0  0  0  0
  9 16  1  6  0  0  0
 10  9  1  0  0  0  0
 10  3  1  1  0  0  0
 11 10  1  0  0  0  0
 12 11  1  0  0  0  0
 13 14  1  0  0  0  0
 13 11  1  0  0  0  0
 14  9  1  0  0  0  0
 15 14  1  0  0  0  0
 17 16  1  0  0  0  0
 18 20  1  0  0  0  0
 18 19  1  0  0  0  0
 21 18  1  0  0  0  0
M  END
>  <minimizedAffinity>
-4.20260286

$$$$

 OpenBabel03242521403D

 21 22  0  0  1  0  0  0  0  0999 V2000
   36.0610   30.1130   38.8770 C   0  0  0  0  0  0  0  0  0  0  0  0
   37.0410   31.0620   38.5890 C   0  0  0  0  0  0  0  0  0  0  0  0
   37.5800   31.7850   39.6640 C   0  0  0  0  0  0  0  0  0  0  0  0
   37.1310   31.5300   40.9140 N   0  0  0  0  0  0  0  0  0  0  0  0
   36.1690   30.5910   41.1560 C   0  0  0  0  0  0  0  0  0  0  0  0
   35.6420   29.8870   40.1190 N   0  0  0  0  0  0  0  0  0  0  0  0
   37.4020   31.2690   37.5900 H   0  0  0  0  0  0  0  0  0  0  0  0
   35.8380   30.4190   42.1710 H   0  0  0  0  0  0  0  0  0  0  0  0
   39.3580   33.1920   40.6910 C   0  0  1  0  0  3  0  0  0  0  0  0
   38.6120   32.7990   39.4400 C   0  0  1  0  0  3  0  0  0  0  0  0
   39.7680   32.3250   38.5790 C   0  0  0  0  0  3  0  0  0  0  0  0
   39.5230   32.1730   37.5310 H   0  0  0  0  0  0  0  0  0  0  0  0
   40.6570   33.4010   38.7540 O   0  0  0  0  0  0  0  0  0  0  0  0
   40.6560   33.6960   40.0910 C   0  0  0  0  0  3  0  0  0  0  0  0
   40.7180   34.7950   40.3210 H   0  0  0  0  0  0  0  0  0  0  0  0
   38.7130   34.1600   41.4270 O   0  0  0  0  0  0  0  0  0  0  0  0
   38.8540   35.0630   41.0040 H   0  0  0  0  0  0  0  0  0  0  0  0
   35.4930   29.3480   37.7190 C   0  0  0  0  0  0  0  0  0  0  0  0
   34.5400   28.8510   37.9910 H   0  0  0  0  0  0  0  0  0  0  0  0
   36.2060   28.5750   37.3470 H   0  0  0  0  0  0  0  0  0  0  0  0
   35.2700   30.0230   36.8590 H   0  0  0  0  0  0  0  0  0  0  0  0
  1  6  1  0  0  0  0
  2  1  2  0  0  0  0
  2  3  1  0  0  0  0
  3  4  2  0  0  0  0
  4  5  1  0  0  0  0
  5  8  1  0  0  0  0
  6  5  2  0  0  0  0
  7  2  1  0  0  0  0
  9 16  1  6  0  0  0
 10  3  1  1  0  0  0
 10  9  1  0  0  0  0
 11 13  1  0  0  0  0
 11 10  1  0  0  0  0
 12 11  1  0  0  0  0
 13 14  1  0  0  0  0
 14 15  1  0  0  0  0
 14  9  1  0  0  0  0
 17 16  1  0  0  0  0
 18 19  1  0  0  0  0
 18  1  1  0  0  0  0
 20 18  1  0  0  0  0
 21 18  1  0  0  0  0
M  END
>  <minimizedAffinity>
-4.15430117

$$$$

 OpenBabel03242521403D

 21 22  0  0  1  0  0  0  0  0999 V2000
   37.7790   25.9440   42.4050 C   0  0  0  0  0  0  0  0  0  0  0  0
   37.2250   27.1840   42.0910 C   0  0  0  0  0  0  0  0  0  0  0  0
   37.9720   28.3280   42.4150 C   0  0  0  0  0  0  0  0  0  0  0  0
   39.1770   28.1760   43.0080 N   0  0  0  0  0  0  0  0  0  0  0  0
   39.6860   26.9420   43.3000 C   0  0  0  0  0  0  0  0  0  0  0  0
   38.9680   25.8290   42.9890 N   0  0  0  0  0  0  0  0  0  0  0  0
   36.2610   27.3090   41.6170 H   0  0  0  0  0  0  0  0  0  0  0  0
   40.6540   26.8650   43.7750 H   0  0  0  0  0  0  0  0  0  0  0  0
   38.4180   30.5240   41.3330 C   0  0  1  0  0  3  0  0  0  0  0  0
   37.4560   29.6650   42.1170 C   0  0  1  0  0  3  0  0  0  0  0  0
   36.2660   29.6740   41.1760 C   0  0  0  0  0  3  0  0  0  0  0  0
   35.3450   29.2860   41.6040 H   0  0  0  0  0  0  0  0  0  0  0  0
   36.1760   31.0520   40.9120 O   0  0  0  0  0  0  0  0  0  0  0  0
   37.4510   31.4890   40.6740 C   0  0  0  0  0  3  0  0  0  0  0  0
   37.6740   32.5110   41.0900 H   0  0  0  0  0  0  0  0  0  0  0  0
   39.3400   31.1700   42.1250 O   0  0  0  0  0  0  0  0  0  0  0  0
   38.9140   31.9680   42.5670 H   0  0  0  0  0  0  0  0  0  0  0  0
   36.9710   24.7300   42.0540 C   0  0  0  0  0  0  0  0  0  0  0  0
   37.3330   23.8320   42.5950 H   0  0  0  0  0  0  0  0  0  0  0  0
   36.9950   24.5220   40.9590 H   0  0  0  0  0  0  0  0  0  0  0  0
   35.8990   24.8630   42.3340 H   0  0  0  0  0  0  0  0  0  0  0  0
  1  6  1  0  0  0  0
  2  1  2  0  0  0  0
  2  3  1  0  0  0  0
  3  4  2  0  0  0  0
  4  5  1  0  0  0  0
  5  8  1  0  0  0  0
  6  5  2  0  0  0  0
  7  2  1  0  0  0  0
  9 10  1  0  0  0  0
  9 16  1  1  0  0  0
 10  3  1  6  0  0  0
 11 12  1  0  0  0  0
 11 10  1  0  0  0  0
 13 11  1  0  0  0  0
 14 13  1  0  0  0  0
 14 15  1  0  0  0  0
 14  9  1  0  0  0  0
 16 17  1  0  0  0  0
 18 21  1  0  0  0  0
 18  1  1  0  0  0  0
 18 19  1  0  0  0  0
 20 18  1  0  0  0  0
M  END
>  <minimizedAffinity>
-4.06746531

$$$$

 OpenBabel03242521403D

 21 22  0  0  1  0  0  0  0  0999 V2000
   40.6120   31.9770   39.6110 C   0  0  0  0  0  0  0  0  0  0  0  0
   39.8860   30.9400   40.1930 C   0  0  0  0  0  0  0  0  0  0  0  0
   38.6460   31.2600   40.7690 C   0  0  0  0  0  0  0  0  0  0  0  0
   38.2190   32.5420   40.7320 N   0  0  0  0  0  0  0  0  0  0  0  0
   38.9610   33.5310   40.1520 C   0  0  0  0  0  0  0  0  0  0  0  0
   40.1630   33.2290   39.5920 N   0  0  0  0  0  0  0  0  0  0  0  0
   40.2240   29.9130   40.2240 H   0  0  0  0  0  0  0  0  0  0  0  0
   38.5820   34.5440   40.1450 H   0  0  0  0  0  0  0  0  0  0  0  0
   36.4250   30.1390   40.8450 C   0  0  1  0  0  3  0  0  0  0  0  0
   37.8260   30.2240   41.3990 C   0  0  1  0  0  3  0  0  0  0  0  0
   38.3030   28.8080   41.1310 C   0  0  0  0  0  3  0  0  0  0  0  0
   39.2330   28.5400   41.6270 H   0  0  0  0  0  0  0  0  0  0  0  0
   37.2130   28.0840   41.6450 O   0  0  0  0  0  0  0  0  0  0  0  0
   36.0810   28.7010   41.1840 C   0  0  0  0  0  3  0  0  0  0  0  0
   35.2380   28.7330   41.9280 H   0  0  0  0  0  0  0  0  0  0  0  0
   35.5560   31.0340   41.4260 O   0  0  0  0  0  0  0  0  0  0  0  0
   35.2680   30.6960   42.3300 H   0  0  0  0  0  0  0  0  0  0  0  0
   41.9350   31.6220   39.0000 C   0  0  0  0  0  0  0  0  0  0  0  0
   42.5600   32.5240   38.8380 H   0  0  0  0  0  0  0  0  0  0  0  0
   41.8090   31.0940   38.0250 H   0  0  0  0  0  0  0  0  0  0  0  0
   42.5170   30.9410   39.6640 H   0  0  0  0  0  0  0  0  0  0  0  0
  1  2  1  0  0  0  0
  2  7  1  0  0  0  0
  2  3  2  0  0  0  0
  4  3  1  0  0  0  0
  5  4  2  0  0  0  0
  6  1  2  0  0  0  0
  6  5  1  0  0  0  0
  8  5  1  0  0  0  0
  9 14  1  0  0  0  0
  9 10  1  0  0  0  0
  9 16  1  1  0  0  0
 10  3  1  6  0  0  0
 11 10  1  0  0  0  0
 11 12  1  0  0  0  0
 11 13  1  0  0  0  0
 14 13  1  0  0  0  0
 14 15  1  0  0  0  0
 16 17  1  0  0  0  0
 18  1  1  0  0  0  0
 18 21  1  0  0  0  0
 19 18  1  0  0  0  0
 20 18  1  0  0  0  0
M  END
>  <minimizedAffinity>
-3.99739122

$$$$

 OpenBabel03242521403D

 21 22  0  0  1  0  0  0  0  0999 V2000
   37.2880   28.7850   42.0710 C   0  0  0  0  0  0  0  0  0  0  0  0
   38.0930   29.8680   41.7220 C   0  0  0  0  0  0  0  0  0  0  0  0
   37.6280   30.7220   40.7100 C   0  0  0  0  0  0  0  0  0  0  0  0
   36.4360   30.4590   40.1290 N   0  0  0  0  0  0  0  0  0  0  0  0
   35.6750   29.3870   40.5000 C   0  0  0  0  0  0  0  0  0  0  0  0
   36.1200   28.5540   41.4790 N   0  0  0  0  0  0  0  0  0  0  0  0
   39.0480   30.0810   42.1850 H   0  0  0  0  0  0  0  0  0  0  0  0
   34.7270   29.2130   40.0090 H   0  0  0  0  0  0  0  0  0  0  0  0
   37.6800   33.1910   40.4010 C   0  0  1  0  0  3  0  0  0  0  0  0
   38.4180   31.8800   40.2890 C   0  0  1  0  0  3  0  0  0  0  0  0
   39.6130   32.1710   41.1780 C   0  0  0  0  0  3  0  0  0  0  0  0
   40.4200   31.4460   41.1080 H   0  0  0  0  0  0  0  0  0  0  0  0
   39.9940   33.4250   40.6680 O   0  0  0  0  0  0  0  0  0  0  0  0
   38.8450   34.1540   40.5210 C   0  0  0  0  0  3  0  0  0  0  0  0
   38.8260   34.8060   39.6050 H   0  0  0  0  0  0  0  0  0  0  0  0
   36.8880   33.4640   39.3080 O   0  0  0  0  0  0  0  0  0  0  0  0
   37.4570   33.7970   38.5470 H   0  0  0  0  0  0  0  0  0  0  0  0
   37.7970   27.8790   43.1530 C   0  0  0  0  0  0  0  0  0  0  0  0
   37.2600   26.9090   43.1550 H   0  0  0  0  0  0  0  0  0  0  0  0
   37.6960   28.3460   44.1610 H   0  0  0  0  0  0  0  0  0  0  0  0
   38.8790   27.6480   43.0110 H   0  0  0  0  0  0  0  0  0  0  0  0
  1 18  1  0  0  0  0
  2  1  1  0  0  0  0
  2  7  1  0  0  0  0
  3  2  2  0  0  0  0
  4  5  2  0  0  0  0
  4  3  1  0  0  0  0
  5  6  1  0  0  0  0
  6  1  2  0  0  0  0
  8  5  1  0  0  0  0
  9 16  1  6  0  0  0
  9 14  1  0  0  0  0
 10  9  1  0  0  0  0
 10  3  1  1  0  0  0
 10 11  1  0  0  0  0
 12 11  1  0  0  0  0
 13 11  1  0  0  0  0
 14 13  1  0  0  0  0
 15 14  1  0  0  0  0
 17 16  1  0  0  0  0
 18 19  1  0  0  0  0
 18 20  1  0  0  0  0
 21 18  1  0  0  0  0
M  END
>  <minimizedAffinity>
-3.99611139

$$$$

 OpenBabel03242521403D

 21 22  0  0  1  0  0  0  0  0999 V2000
   37.0330   30.6020   38.8320 C   0  0  0  0  0  0  0  0  0  0  0  0
   37.5990   29.8250   39.8410 C   0  0  0  0  0  0  0  0  0  0  0  0
   38.0880   30.4920   40.9750 C   0  0  0  0  0  0  0  0  0  0  0  0
   37.9880   31.8390   41.0350 N   0  0  0  0  0  0  0  0  0  0  0  0
   37.4250   32.5650   40.0250 C   0  0  0  0  0  0  0  0  0  0  0  0
   36.9500   31.9260   38.9230 N   0  0  0  0  0  0  0  0  0  0  0  0
   37.6800   28.7480   39.7960 H   0  0  0  0  0  0  0  0  0  0  0  0
   37.3660   33.6420   40.1140 H   0  0  0  0  0  0  0  0  0  0  0  0
   37.7680   28.7380   42.7120 C   0  0  1  0  0  3  0  0  0  0  0  0
   38.6960   29.7440   42.0760 C   0  0  1  0  0  3  0  0  0  0  0  0
   39.8290   28.8280   41.6520 C   0  0  0  0  0  3  0  0  0  0  0  0
   40.7360   29.3400   41.3410 H   0  0  0  0  0  0  0  0  0  0  0  0
   40.0190   28.1090   42.8450 O   0  0  0  0  0  0  0  0  0  0  0  0
   38.7740   27.7670   43.2990 C   0  0  0  0  0  3  0  0  0  0  0  0
   38.6610   27.8160   44.4170 H   0  0  0  0  0  0  0  0  0  0  0  0
   36.9490   29.2860   43.6730 O   0  0  0  0  0  0  0  0  0  0  0  0
   37.4650   29.4190   44.5280 H   0  0  0  0  0  0  0  0  0  0  0  0
   36.5140   29.8770   37.6250 C   0  0  0  0  0  0  0  0  0  0  0  0
   36.3650   30.5690   36.7710 H   0  0  0  0  0  0  0  0  0  0  0  0
   35.5500   29.3600   37.8390 H   0  0  0  0  0  0  0  0  0  0  0  0
   37.2330   29.0950   37.2840 H   0  0  0  0  0  0  0  0  0  0  0  0
  1  6  2  0  0  0  0
  1  2  1  0  0  0  0
  2  3  2  0  0  0  0
  3  4  1  0  0  0  0
  5  8  1  0  0  0  0
  5  4  2  0  0  0  0
  6  5  1  0  0  0  0
  7  2  1  0  0  0  0
  9 14  1  0  0  0  0
  9 16  1  1  0  0  0
 10  3  1  6  0  0  0
 10  9  1  0  0  0  0
 11 10  1  0  0  0  0
 11 13  1  0  0  0  0
 12 11  1  0  0  0  0
 13 14  1  0  0  0  0
 14 15  1  0  0  0  0
 16 17  1  0  0  0  0
 18 20  1  0  0  0  0
 18  1  1  0  0  0  0
 19 18  1  0  0  0  0
 21 18  1  0  0  0  0
M  END
>  <minimizedAffinity>
-3.9551003

$$$$

 OpenBabel03242521403D

 21 22  0  0  1  0  0  0  0  0999 V2000
   36.9210   28.5230   41.4940 C   0  0  0  0  0  0  0  0  0  0  0  0
   37.1680   29.8810   41.6870 C   0  0  0  0  0  0  0  0  0  0  0  0
   37.3810   30.6690   40.5450 C   0  0  0  0  0  0  0  0  0  0  0  0
   37.3360   30.0830   39.3280 N   0  0  0  0  0  0  0  0  0  0  0  0
   37.0910   28.7470   39.1810 C   0  0  0  0  0  0  0  0  0  0  0  0
   36.8840   27.9770   40.2820 N   0  0  0  0  0  0  0  0  0  0  0  0
   37.2050   30.3540   42.6590 H   0  0  0  0  0  0  0  0  0  0  0  0
   37.0640   28.3180   38.1880 H   0  0  0  0  0  0  0  0  0  0  0  0
   39.1170   32.4490   40.6770 C   0  0  1  0  0  3  0  0  0  0  0  0
   37.6470   32.1030   40.6670 C   0  0  1  0  0  3  0  0  0  0  0  0
   37.1910   32.9220   39.4740 C   0  0  0  0  0  3  0  0  0  0  0  0
   36.1130   33.0110   39.3680 H   0  0  0  0  0  0  0  0  0  0  0  0
   37.7870   34.1570   39.7850 O   0  0  0  0  0  0  0  0  0  0  0  0
   39.0660   33.8840   40.1900 C   0  0  0  0  0  3  0  0  0  0  0  0
   39.4300   34.5300   41.0360 H   0  0  0  0  0  0  0  0  0  0  0  0
   39.6910   32.3410   41.9240 O   0  0  0  0  0  0  0  0  0  0  0  0
   39.4510   33.1440   42.4820 H   0  0  0  0  0  0  0  0  0  0  0  0
   36.6950   27.6920   42.7220 C   0  0  0  0  0  0  0  0  0  0  0  0
   36.8060   26.6100   42.5050 H   0  0  0  0  0  0  0  0  0  0  0  0
   35.6840   27.8680   43.1580 H   0  0  0  0  0  0  0  0  0  0  0  0
   37.4370   27.9380   43.5190 H   0  0  0  0  0  0  0  0  0  0  0  0
  1  2  1  0  0  0  0
  1 18  1  0  0  0  0
  2  7  1  0  0  0  0
  3  2  2  0  0  0  0
  4  3  1  0  0  0  0
  5  4  2  0  0  0  0
  5  6  1  0  0  0  0
  6  1  2  0  0  0  0
  8  5  1  0  0  0  0
  9 16  1  1  0  0  0
 10  3  1  6  0  0  0
 10  9  1  0  0  0  0
 11 13  1  0  0  0  0
 11 10  1  0  0  0  0
 12 11  1  0  0  0  0
 13 14  1  0  0  0  0
 14  9  1  0  0  0  0
 14 15  1  0  0  0  0
 16 17  1  0  0  0  0
 18 20  1  0  0  0  0
 18 21  1  0  0  0  0
 19 18  1  0  0  0  0
M  END
>  <minimizedAffinity>
-3.94019818

$$$$
