
 OpenBabel03242523253D

 43 46  0  0  1  0  0  0  0  0999 V2000
   37.6320   30.0380   41.3950 C   0  0  0  0  0  0  0  0  0  0  0  0
   36.9060   28.9920   41.7780 C   0  0  0  0  0  0  0  0  0  0  0  0
   35.9390   28.6040   40.8750 C   0  0  0  0  0  0  0  0  0  0  0  0
   35.8170   29.3260   39.6780 N   0  0  0  0  0  0  0  0  0  0  0  0
   36.5610   30.3470   39.3630 C   0  0  0  0  0  0  0  0  0  0  0  0
   37.5410   30.7670   40.2400 N   0  0  0  0  0  0  0  0  0  0  0  0
   35.2250   27.7960   40.9430 H   0  0  0  0  0  0  0  0  0  0  0  0
   36.3590   30.8220   38.3980 H   0  0  0  0  0  0  0  0  0  0  0  0
   36.9440   28.3260   43.0260 C   0  0  1  0  0  0  0  0  0  0  0  0
   36.5740   27.0530   43.3280 C   0  0  0  0  0  0  0  0  0  0  0  0
   38.0550   27.2700   43.2950 C   0  0  1  0  0  0  0  0  0  0  0  0
   36.7750   29.0380   43.8800 H   0  0  0  0  0  0  0  0  0  0  0  0
   36.1240   26.4020   42.5190 H   0  0  0  0  0  0  0  0  0  0  0  0
   36.2210   26.6490   44.3030 H   0  0  0  0  0  0  0  0  0  0  0  0
   38.5840   27.4210   44.2590 H   0  0  0  0  0  0  0  0  0  0  0  0
   40.2850   26.6730   42.2470 C   0  0  1  0  0  3  0  0  0  0  0  0
   38.7920   26.5810   42.2430 C   0  0  1  0  0  3  0  0  0  0  0  0
   38.5640   25.1000   42.4360 C   0  0  0  0  0  3  0  0  0  0  0  0
   37.5930   24.9250   42.9440 H   0  0  0  0  0  0  0  0  0  0  0  0
   39.5880   24.7200   43.2750 O   0  0  0  0  0  0  0  0  0  0  0  0
   40.7310   25.3470   42.7710 C   0  0  0  0  0  3  0  0  0  0  0  0
   41.4850   25.5100   43.5570 H   0  0  0  0  0  0  0  0  0  0  0  0
   40.7110   26.7460   40.9050 O   0  0  0  0  0  0  0  0  0  0  0  0
   41.1170   25.9100   40.5850 H   0  0  0  0  0  0  0  0  0  0  0  0
   38.7760   30.6260   42.1230 C   0  0  0  0  0  0  0  0  0  0  0  0
   39.5360   30.7160   43.0440 O   0  0  0  0  0  0  0  0  0  0  0  0
   41.3000   30.1080   40.4210 Cl  0  0  0  0  0  0  0  0  0  0  0  0
   40.4950   31.6690   40.4700 C   0  0  0  0  0  0  0  0  0  0  0  0
   39.3400   31.7360   41.2910 C   0  0  0  0  0  0  0  0  0  0  0  0
   38.7990   33.0010   41.2400 C   0  0  0  0  0  0  0  0  0  0  0  0
   39.1820   34.0870   40.5830 C   0  0  0  0  0  0  0  0  0  0  0  0
   40.3130   33.9450   39.8080 C   0  0  0  0  0  0  0  0  0  0  0  0
   40.9680   32.7510   39.7460 C   0  0  0  0  0  0  0  0  0  0  0  0
   37.8610   33.1840   41.8150 H   0  0  0  0  0  0  0  0  0  0  0  0
   38.6840   35.0550   40.6080 H   0  0  0  0  0  0  0  0  0  0  0  0
   40.6660   34.8280   39.2450 H   0  0  0  0  0  0  0  0  0  0  0  0
   42.0750   32.7380   38.9390 O   0  0  0  0  0  0  0  0  0  0  0  0
   43.2120   31.6270   36.8530 O   0  0  0  0  0  0  0  0  0  0  0  0
   42.1840   32.6580   37.2480 P   0  0  0  0  0  0  0  0  0  0  0  0
   40.6610   32.2830   36.6050 O   0  0  0  0  0  0  0  0  0  0  0  0
   40.0800   33.0670   36.6100 H   0  0  0  0  0  0  0  0  0  0  0  0
   42.5980   34.1610   36.5850 O   0  0  0  0  0  0  0  0  0  0  0  0
   42.3990   34.1400   35.6130 H   0  0  0  0  0  0  0  0  0  0  0  0
  1  2  1  0  0  0  0
  1 25  1  0  0  0  0
  2  9  1  0  0  0  0
  3  7  1  0  0  0  0
  3  2  2  0  0  0  0
  4  3  1  0  0  0  0
  5  4  2  0  0  0  0
  5  6  1  0  0  0  0
  6  1  2  0  0  0  0
  8  5  1  0  0  0  0
  9 11  1  0  0  0  0
  9 10  1  0  0  0  0
  9 12  1  1  0  0  0
 10 14  1  0  0  0  0
 11 10  1  0  0  0  0
 11 15  1  1  0  0  0
 13 10  1  0  0  0  0
 16 23  1  6  0  0  0
 16 21  1  0  0  0  0
 17 16  1  0  0  0  0
 17 18  1  1  0  0  0
 17 11  1  0  0  0  0
 18 19  1  0  0  0  0
 18 20  1  0  0  0  0
 21 20  1  0  0  0  0
 21 22  1  0  0  0  0
 24 23  1  0  0  0  0
 25 26  2  0  0  0  0
 27 28  1  0  0  0  0
 28 29  1  0  0  0  0
 29 25  1  0  0  0  0
 30 29  2  0  0  0  0
 30 34  1  0  0  0  0
 31 35  1  0  0  0  0
 31 30  1  0  0  0  0
 32 31  2  0  0  0  0
 33 32  1  0  0  0  0
 33 28  2  0  0  0  0
 36 32  1  0  0  0  0
 37 33  1  0  0  0  0
 38 39  2  0  0  0  0
 39 37  1  0  0  0  0
 40 41  1  0  0  0  0
 40 39  1  0  0  0  0
 42 39  1  0  0  0  0
 43 42  1  0  0  0  0
M  END
>  <minimizedAffinity>
-6.66979599

$$$$

 OpenBabel03242523253D

 43 46  0  0  1  0  0  0  0  0999 V2000
   37.1150   28.5540   40.2180 C   0  0  0  0  0  0  0  0  0  0  0  0
   38.0560   28.9920   39.3880 C   0  0  0  0  0  0  0  0  0  0  0  0
   37.6860   29.0080   38.0590 C   0  0  0  0  0  0  0  0  0  0  0  0
   36.3950   28.5730   37.7230 N   0  0  0  0  0  0  0  0  0  0  0  0
   35.5180   28.1520   38.5870 C   0  0  0  0  0  0  0  0  0  0  0  0
   35.8490   28.1210   39.9270 N   0  0  0  0  0  0  0  0  0  0  0  0
   38.2570   29.3140   37.1940 H   0  0  0  0  0  0  0  0  0  0  0  0
   34.5470   27.8400   38.1900 H   0  0  0  0  0  0  0  0  0  0  0  0
   39.3950   29.3270   39.7000 C   0  0  1  0  0  0  0  0  0  0  0  0
   40.3200   29.9630   38.9320 C   0  0  0  0  0  0  0  0  0  0  0  0
   39.7550   30.8030   40.0350 C   0  0  1  0  0  0  0  0  0  0  0  0
   39.8580   28.5750   40.3970 H   0  0  0  0  0  0  0  0  0  0  0  0
   40.0530   30.2480   37.8700 H   0  0  0  0  0  0  0  0  0  0  0  0
   41.4290   29.8830   38.9780 H   0  0  0  0  0  0  0  0  0  0  0  0
   40.3490   30.9130   40.9670 H   0  0  0  0  0  0  0  0  0  0  0  0
   38.2730   32.7480   40.7040 C   0  0  1  0  0  3  0  0  0  0  0  0
   38.9460   31.9480   39.6340 C   0  0  1  0  0  3  0  0  0  0  0  0
   39.8820   32.9620   39.0200 C   0  0  0  0  0  3  0  0  0  0  0  0
   40.7700   32.4530   38.5910 H   0  0  0  0  0  0  0  0  0  0  0  0
   40.2750   33.7320   40.0910 O   0  0  0  0  0  0  0  0  0  0  0  0
   39.1070   33.9820   40.8160 C   0  0  0  0  0  3  0  0  0  0  0  0
   39.3220   34.1710   41.8790 H   0  0  0  0  0  0  0  0  0  0  0  0
   37.0150   33.1490   40.2080 O   0  0  0  0  0  0  0  0  0  0  0  0
   36.9830   34.1020   39.9680 H   0  0  0  0  0  0  0  0  0  0  0  0
   37.2040   28.4940   41.6930 C   0  0  0  0  0  0  0  0  0  0  0  0
   37.0360   28.9170   42.8000 O   0  0  0  0  0  0  0  0  0  0  0  0
   40.0040   28.5670   42.9920 Cl  0  0  0  0  0  0  0  0  0  0  0  0
   39.1550   27.0660   42.6570 C   0  0  0  0  0  0  0  0  0  0  0  0
   37.8710   27.2070   42.0700 C   0  0  0  0  0  0  0  0  0  0  0  0
   37.3080   25.9680   41.8640 C   0  0  0  0  0  0  0  0  0  0  0  0
   37.7660   24.7500   42.1140 C   0  0  0  0  0  0  0  0  0  0  0  0
   39.0210   24.6930   42.6830 C   0  0  0  0  0  0  0  0  0  0  0  0
   39.7140   25.8340   42.9560 C   0  0  0  0  0  0  0  0  0  0  0  0
   36.2780   25.9350   41.4370 H   0  0  0  0  0  0  0  0  0  0  0  0
   37.2420   23.8180   41.9110 H   0  0  0  0  0  0  0  0  0  0  0  0
   39.4400   23.6950   42.9060 H   0  0  0  0  0  0  0  0  0  0  0  0
   40.9460   25.6430   43.5230 O   0  0  0  0  0  0  0  0  0  0  0  0
   43.0350   27.0230   42.7430 O   0  0  0  0  0  0  0  0  0  0  0  0
   42.4810   25.6210   42.8000 P   0  0  0  0  0  0  0  0  0  0  0  0
   43.5010   24.5930   43.6800 O   0  0  0  0  0  0  0  0  0  0  0  0
   43.3070   23.6590   43.4810 H   0  0  0  0  0  0  0  0  0  0  0  0
   42.4180   24.9690   41.2380 O   0  0  0  0  0  0  0  0  0  0  0  0
   43.3410   24.7350   40.9590 H   0  0  0  0  0  0  0  0  0  0  0  0
  1 25  1  0  0  0  0
  2  9  1  0  0  0  0
  2  1  2  0  0  0  0
  3  2  1  0  0  0  0
  4  3  2  0  0  0  0
  4  5  1  0  0  0  0
  5  6  2  0  0  0  0
  6  1  1  0  0  0  0
  7  3  1  0  0  0  0
  8  5  1  0  0  0  0
  9 11  1  0  0  0  0
  9 12  1  1  0  0  0
 10 14  1  0  0  0  0
 10  9  1  0  0  0  0
 10 11  1  0  0  0  0
 11 15  1  1  0  0  0
 13 10  1  0  0  0  0
 16 23  1  6  0  0  0
 16 21  1  0  0  0  0
 17 18  1  1  0  0  0
 17 11  1  0  0  0  0
 17 16  1  0  0  0  0
 18 20  1  0  0  0  0
 19 18  1  0  0  0  0
 20 21  1  0  0  0  0
 21 22  1  0  0  0  0
 24 23  1  0  0  0  0
 25 29  1  0  0  0  0
 25 26  2  0  0  0  0
 28 33  1  0  0  0  0
 28 27  1  0  0  0  0
 29 28  2  0  0  0  0
 30 29  1  0  0  0  0
 30 31  2  0  0  0  0
 31 32  1  0  0  0  0
 32 36  1  0  0  0  0
 32 33  2  0  0  0  0
 33 37  1  0  0  0  0
 34 30  1  0  0  0  0
 35 31  1  0  0  0  0
 38 39  2  0  0  0  0
 39 37  1  0  0  0  0
 39 40  1  0  0  0  0
 41 40  1  0  0  0  0
 42 39  1  0  0  0  0
 43 42  1  0  0  0  0
M  END
>  <minimizedAffinity>
-6.39496279

$$$$

 OpenBabel03242523253D

 43 46  0  0  1  0  0  0  0  0999 V2000
   36.6750   28.9410   40.2160 C   0  0  0  0  0  0  0  0  0  0  0  0
   36.8100   27.7650   40.8190 C   0  0  0  0  0  0  0  0  0  0  0  0
   36.8770   26.6850   39.9630 C   0  0  0  0  0  0  0  0  0  0  0  0
   36.7960   26.9250   38.5830 N   0  0  0  0  0  0  0  0  0  0  0  0
   36.6610   28.1060   38.0530 C   0  0  0  0  0  0  0  0  0  0  0  0
   36.5910   29.2130   38.8770 N   0  0  0  0  0  0  0  0  0  0  0  0
   36.9840   25.6350   40.1940 H   0  0  0  0  0  0  0  0  0  0  0  0
   36.6090   28.1520   36.9610 H   0  0  0  0  0  0  0  0  0  0  0  0
   36.7810   27.4990   42.2090 C   0  0  1  0  0  0  0  0  0  0  0  0
   36.9080   26.3090   42.8550 C   0  0  0  0  0  0  0  0  0  0  0  0
   38.1110   27.1940   42.9570 C   0  0  1  0  0  0  0  0  0  0  0  0
   36.1050   28.2150   42.7520 H   0  0  0  0  0  0  0  0  0  0  0  0
   37.0080   25.3590   42.2490 H   0  0  0  0  0  0  0  0  0  0  0  0
   36.5040   26.0180   43.8510 H   0  0  0  0  0  0  0  0  0  0  0  0
   38.2450   27.7930   43.8820 H   0  0  0  0  0  0  0  0  0  0  0  0
   40.6430   27.1720   42.8420 C   0  0  1  0  0  3  0  0  0  0  0  0
   39.3230   26.7240   42.2990 C   0  0  1  0  0  3  0  0  0  0  0  0
   39.3880   25.2280   42.4990 C   0  0  0  0  0  3  0  0  0  0  0  0
   38.3670   24.8140   42.6280 H   0  0  0  0  0  0  0  0  0  0  0  0
   40.0850   25.0880   43.6790 O   0  0  0  0  0  0  0  0  0  0  0  0
   41.1550   25.9810   43.5850 C   0  0  0  0  0  3  0  0  0  0  0  0
   41.5030   26.3040   44.5790 H   0  0  0  0  0  0  0  0  0  0  0  0
   41.5090   27.3730   41.7480 O   0  0  0  0  0  0  0  0  0  0  0  0
   42.1850   26.6660   41.6580 H   0  0  0  0  0  0  0  0  0  0  0  0
   36.6480   30.2660   40.8710 C   0  0  0  0  0  0  0  0  0  0  0  0
   36.1100   31.1900   41.4100 O   0  0  0  0  0  0  0  0  0  0  0  0
   37.5530   32.2940   38.7260 Cl  0  0  0  0  0  0  0  0  0  0  0  0
   38.6230   31.7170   39.9960 C   0  0  0  0  0  0  0  0  0  0  0  0
   38.0470   30.7970   40.9100 C   0  0  0  0  0  0  0  0  0  0  0  0
   38.9770   30.4280   41.8550 C   0  0  0  0  0  0  0  0  0  0  0  0
   40.2440   30.7810   42.0150 C   0  0  0  0  0  0  0  0  0  0  0  0
   40.7340   31.6760   41.0870 C   0  0  0  0  0  0  0  0  0  0  0  0
   39.9370   32.1450   40.0860 C   0  0  0  0  0  0  0  0  0  0  0  0
   38.6450   29.7310   42.6600 H   0  0  0  0  0  0  0  0  0  0  0  0
   40.9090   30.4290   42.8020 H   0  0  0  0  0  0  0  0  0  0  0  0
   41.7870   31.9950   41.1860 H   0  0  0  0  0  0  0  0  0  0  0  0
   40.5400   33.0300   39.2320 O   0  0  0  0  0  0  0  0  0  0  0  0
   42.2850   31.6520   37.8400 O   0  0  0  0  0  0  0  0  0  0  0  0
   41.2640   32.7570   37.7220 P   0  0  0  0  0  0  0  0  0  0  0  0
   40.0680   32.3680   36.5870 O   0  0  0  0  0  0  0  0  0  0  0  0
   39.5880   33.1680   36.3010 H   0  0  0  0  0  0  0  0  0  0  0  0
   42.0090   34.1600   37.1330 O   0  0  0  0  0  0  0  0  0  0  0  0
   42.1850   34.0380   36.1640 H   0  0  0  0  0  0  0  0  0  0  0  0
  1  2  1  0  0  0  0
  1 25  1  0  0  0  0
  2  9  1  0  0  0  0
  3  7  1  0  0  0  0
  3  2  2  0  0  0  0
  4  3  1  0  0  0  0
  5  4  2  0  0  0  0
  5  6  1  0  0  0  0
  6  1  2  0  0  0  0
  8  5  1  0  0  0  0
  9 12  1  1  0  0  0
  9 10  1  0  0  0  0
  9 11  1  0  0  0  0
 10 11  1  0  0  0  0
 10 14  1  0  0  0  0
 11 15  1  1  0  0  0
 13 10  1  0  0  0  0
 16 23  1  6  0  0  0
 16 21  1  0  0  0  0
 17 18  1  1  0  0  0
 17 16  1  0  0  0  0
 17 11  1  0  0  0  0
 18 19  1  0  0  0  0
 18 20  1  0  0  0  0
 21 20  1  0  0  0  0
 21 22  1  0  0  0  0
 24 23  1  0  0  0  0
 25 29  1  0  0  0  0
 25 26  2  0  0  0  0
 27 28  1  0  0  0  0
 28 33  2  0  0  0  0
 28 29  1  0  0  0  0
 29 30  2  0  0  0  0
 30 31  1  0  0  0  0
 30 34  1  0  0  0  0
 31 35  1  0  0  0  0
 32 36  1  0  0  0  0
 32 31  2  0  0  0  0
 33 32  1  0  0  0  0
 37 33  1  0  0  0  0
 39 38  2  0  0  0  0
 39 37  1  0  0  0  0
 40 39  1  0  0  0  0
 41 40  1  0  0  0  0
 42 39  1  0  0  0  0
 43 42  1  0  0  0  0
M  END
>  <minimizedAffinity>
-6.3891902

$$$$

 OpenBabel03242523253D

 43 46  0  0  1  0  0  0  0  0999 V2000
   37.0750   28.7110   41.2600 C   0  0  0  0  0  0  0  0  0  0  0  0
   37.3130   27.9150   40.2230 C   0  0  0  0  0  0  0  0  0  0  0  0
   37.3670   26.5710   40.5320 C   0  0  0  0  0  0  0  0  0  0  0  0
   37.1740   26.1880   41.8680 N   0  0  0  0  0  0  0  0  0  0  0  0
   36.9460   27.0210   42.8410 C   0  0  0  0  0  0  0  0  0  0  0  0
   36.8830   28.3740   42.5730 N   0  0  0  0  0  0  0  0  0  0  0  0
   37.5450   25.7270   39.8820 H   0  0  0  0  0  0  0  0  0  0  0  0
   36.8140   26.5890   43.8380 H   0  0  0  0  0  0  0  0  0  0  0  0
   37.6200   28.2950   38.8950 C   0  0  1  0  0  0  0  0  0  0  0  0
   37.5030   27.5720   37.7490 C   0  0  0  0  0  0  0  0  0  0  0  0
   36.4630   28.6370   37.9120 C   0  0  1  0  0  0  0  0  0  0  0  0
   38.4780   29.0210   38.8610 H   0  0  0  0  0  0  0  0  0  0  0  0
   37.1610   26.4960   37.8080 H   0  0  0  0  0  0  0  0  0  0  0  0
   38.0810   27.6780   36.8040 H   0  0  0  0  0  0  0  0  0  0  0  0
   36.6090   29.5980   37.3750 H   0  0  0  0  0  0  0  0  0  0  0  0
   33.9860   29.0560   37.5730 C   0  0  1  0  0  3  0  0  0  0  0  0
   35.0890   28.1850   38.0860 C   0  0  1  0  0  3  0  0  0  0  0  0
   34.9210   26.9370   37.2530 C   0  0  0  0  0  3  0  0  0  0  0  0
   35.8960   26.4210   37.1340 H   0  0  0  0  0  0  0  0  0  0  0  0
   34.5110   27.4160   36.0280 O   0  0  0  0  0  0  0  0  0  0  0  0
   33.5450   28.3840   36.3150 C   0  0  0  0  0  3  0  0  0  0  0  0
   33.4750   29.1370   35.5140 H   0  0  0  0  0  0  0  0  0  0  0  0
   32.9130   28.9660   38.4830 O   0  0  0  0  0  0  0  0  0  0  0  0
   32.1660   28.4260   38.1420 H   0  0  0  0  0  0  0  0  0  0  0  0
   36.8940   30.1780   41.2170 C   0  0  0  0  0  0  0  0  0  0  0  0
   36.2440   31.1830   41.2090 O   0  0  0  0  0  0  0  0  0  0  0  0
   37.5820   31.9620   38.7930 Cl  0  0  0  0  0  0  0  0  0  0  0  0
   38.7250   31.6440   40.0890 C   0  0  0  0  0  0  0  0  0  0  0  0
   38.2470   30.8140   41.1360 C   0  0  0  0  0  0  0  0  0  0  0  0
   39.2270   30.6460   42.0880 C   0  0  0  0  0  0  0  0  0  0  0  0
   40.4660   31.1120   42.1560 C   0  0  0  0  0  0  0  0  0  0  0  0
   40.8590   31.9080   41.1010 C   0  0  0  0  0  0  0  0  0  0  0  0
   40.0030   32.1770   40.0750 C   0  0  0  0  0  0  0  0  0  0  0  0
   38.9710   30.0400   42.9890 H   0  0  0  0  0  0  0  0  0  0  0  0
   41.1760   30.9190   42.9580 H   0  0  0  0  0  0  0  0  0  0  0  0
   41.8860   32.3160   41.1200 H   0  0  0  0  0  0  0  0  0  0  0  0
   40.5120   32.9820   39.0910 O   0  0  0  0  0  0  0  0  0  0  0  0
   42.0390   31.3560   37.7130 O   0  0  0  0  0  0  0  0  0  0  0  0
   41.1540   32.5700   37.5760 P   0  0  0  0  0  0  0  0  0  0  0  0
   39.8860   32.2850   36.4880 O   0  0  0  0  0  0  0  0  0  0  0  0
   39.4960   33.1250   36.1830 H   0  0  0  0  0  0  0  0  0  0  0  0
   42.0410   33.8510   36.9120 O   0  0  0  0  0  0  0  0  0  0  0  0
   42.1720   33.6730   35.9450 H   0  0  0  0  0  0  0  0  0  0  0  0
  1  6  1  0  0  0  0
  2  3  1  0  0  0  0
  2  1  2  0  0  0  0
  3  4  2  0  0  0  0
  4  5  1  0  0  0  0
  5  8  1  0  0  0  0
  6  5  2  0  0  0  0
  7  3  1  0  0  0  0
  9 12  1  6  0  0  0
  9  2  1  0  0  0  0
 10 13  1  0  0  0  0
 10 11  1  0  0  0  0
 10  9  1  0  0  0  0
 11 15  1  6  0  0  0
 11 17  1  0  0  0  0
 11  9  1  0  0  0  0
 14 10  1  0  0  0  0
 16 17  1  0  0  0  0
 16 23  1  1  0  0  0
 17 18  1  6  0  0  0
 19 18  1  0  0  0  0
 20 21  1  0  0  0  0
 20 18  1  0  0  0  0
 21 16  1  0  0  0  0
 22 21  1  0  0  0  0
 24 23  1  0  0  0  0
 25  1  1  0  0  0  0
 26 25  2  0  0  0  0
 27 28  1  0  0  0  0
 28 29  1  0  0  0  0
 29 25  1  0  0  0  0
 29 30  2  0  0  0  0
 30 31  1  0  0  0  0
 30 34  1  0  0  0  0
 31 35  1  0  0  0  0
 32 36  1  0  0  0  0
 32 31  2  0  0  0  0
 33 28  2  0  0  0  0
 33 32  1  0  0  0  0
 37 33  1  0  0  0  0
 39 38  2  0  0  0  0
 39 37  1  0  0  0  0
 40 39  1  0  0  0  0
 41 40  1  0  0  0  0
 42 39  1  0  0  0  0
 43 42  1  0  0  0  0
M  END
>  <minimizedAffinity>
-6.34190464

$$$$

 OpenBabel03242523253D

 43 46  0  0  1  0  0  0  0  0999 V2000
   37.9060   30.3220   41.7400 C   0  0  0  0  0  0  0  0  0  0  0  0
   37.1500   29.2920   42.1070 C   0  0  0  0  0  0  0  0  0  0  0  0
   36.0150   29.1130   41.3420 C   0  0  0  0  0  0  0  0  0  0  0  0
   35.7770   30.0060   40.2870 N   0  0  0  0  0  0  0  0  0  0  0  0
   36.5590   31.0000   39.9800 C   0  0  0  0  0  0  0  0  0  0  0  0
   37.7050   31.2120   40.7200 N   0  0  0  0  0  0  0  0  0  0  0  0
   35.2440   28.3620   41.4300 H   0  0  0  0  0  0  0  0  0  0  0  0
   36.2550   31.6220   39.1320 H   0  0  0  0  0  0  0  0  0  0  0  0
   37.3200   28.4550   43.2340 C   0  0  1  0  0  0  0  0  0  0  0  0
   36.6120   27.3500   43.5950 C   0  0  0  0  0  0  0  0  0  0  0  0
   37.9770   27.0550   43.0550 C   0  0  1  0  0  0  0  0  0  0  0  0
   37.7040   29.0290   44.1220 H   0  0  0  0  0  0  0  0  0  0  0  0
   35.7240   27.0360   42.9700 H   0  0  0  0  0  0  0  0  0  0  0  0
   36.4550   26.9330   44.6150 H   0  0  0  0  0  0  0  0  0  0  0  0
   38.7950   26.8550   43.7790 H   0  0  0  0  0  0  0  0  0  0  0  0
   39.3540   25.7970   41.3390 C   0  0  1  0  0  3  0  0  0  0  0  0
   38.0350   26.3430   41.7850 C   0  0  1  0  0  3  0  0  0  0  0  0
   37.2080   25.0890   41.9390 C   0  0  0  0  0  3  0  0  0  0  0  0
   36.4200   25.2410   42.7060 H   0  0  0  0  0  0  0  0  0  0  0  0
   38.1120   24.1570   42.3980 O   0  0  0  0  0  0  0  0  0  0  0  0
   39.2540   24.3320   41.6120 C   0  0  0  0  0  3  0  0  0  0  0  0
   40.1640   24.0040   42.1400 H   0  0  0  0  0  0  0  0  0  0  0  0
   39.4280   25.9470   39.9390 O   0  0  0  0  0  0  0  0  0  0  0  0
   39.3130   25.1000   39.4560 H   0  0  0  0  0  0  0  0  0  0  0  0
   39.2060   30.7090   42.3280 C   0  0  0  0  0  0  0  0  0  0  0  0
   39.9110   31.1370   43.1960 O   0  0  0  0  0  0  0  0  0  0  0  0
   40.3470   33.0500   40.6700 Cl  0  0  0  0  0  0  0  0  0  0  0  0
   40.8930   31.3920   40.4670 C   0  0  0  0  0  0  0  0  0  0  0  0
   40.2760   30.4370   41.3170 C   0  0  0  0  0  0  0  0  0  0  0  0
   40.7900   29.1850   41.0670 C   0  0  0  0  0  0  0  0  0  0  0  0
   41.7090   28.7750   40.2050 C   0  0  0  0  0  0  0  0  0  0  0  0
   42.2600   29.7590   39.4120 C   0  0  0  0  0  0  0  0  0  0  0  0
   41.8630   31.0570   39.5370 C   0  0  0  0  0  0  0  0  0  0  0  0
   40.4170   28.3410   41.6940 H   0  0  0  0  0  0  0  0  0  0  0  0
   42.0520   27.7500   40.0780 H   0  0  0  0  0  0  0  0  0  0  0  0
   43.0300   29.4580   38.6780 H   0  0  0  0  0  0  0  0  0  0  0  0
   42.4880   31.9380   38.6950 O   0  0  0  0  0  0  0  0  0  0  0  0
   42.8090   31.3620   36.1570 O   0  0  0  0  0  0  0  0  0  0  0  0
   42.1320   32.3390   37.0860 P   0  0  0  0  0  0  0  0  0  0  0  0
   40.4520   32.3330   36.8640 O   0  0  0  0  0  0  0  0  0  0  0  0
   40.0490   33.1390   37.2370 H   0  0  0  0  0  0  0  0  0  0  0  0
   42.6310   33.9160   36.7180 O   0  0  0  0  0  0  0  0  0  0  0  0
   42.1830   34.1980   35.8780 H   0  0  0  0  0  0  0  0  0  0  0  0
  1  2  1  0  0  0  0
  1 25  1  0  0  0  0
  2  9  1  0  0  0  0
  3  7  1  0  0  0  0
  3  2  2  0  0  0  0
  4  3  1  0  0  0  0
  5  4  2  0  0  0  0
  5  6  1  0  0  0  0
  6  1  2  0  0  0  0
  8  5  1  0  0  0  0
  9 10  1  0  0  0  0
  9 12  1  1  0  0  0
 10 14  1  0  0  0  0
 11  9  1  0  0  0  0
 11 10  1  0  0  0  0
 11 15  1  1  0  0  0
 13 10  1  0  0  0  0
 16 23  1  6  0  0  0
 16 21  1  0  0  0  0
 16 17  1  0  0  0  0
 17 18  1  1  0  0  0
 17 11  1  0  0  0  0
 18 20  1  0  0  0  0
 18 19  1  0  0  0  0
 21 22  1  0  0  0  0
 21 20  1  0  0  0  0
 24 23  1  0  0  0  0
 25 26  2  0  0  0  0
 28 27  1  0  0  0  0
 28 29  1  0  0  0  0
 29 25  1  0  0  0  0
 30 29  2  0  0  0  0
 30 34  1  0  0  0  0
 31 30  1  0  0  0  0
 32 33  1  0  0  0  0
 32 31  2  0  0  0  0
 33 28  2  0  0  0  0
 35 31  1  0  0  0  0
 36 32  1  0  0  0  0
 37 33  1  0  0  0  0
 38 39  2  0  0  0  0
 39 37  1  0  0  0  0
 40 39  1  0  0  0  0
 40 41  1  0  0  0  0
 42 39  1  0  0  0  0
 43 42  1  0  0  0  0
M  END
>  <minimizedAffinity>
-6.31937647

$$$$

 OpenBabel03242523253D

 43 46  0  0  1  0  0  0  0  0999 V2000
   38.4830   29.8300   41.6810 C   0  0  0  0  0  0  0  0  0  0  0  0
   38.7000   28.8660   42.5700 C   0  0  0  0  0  0  0  0  0  0  0  0
   40.0300   28.5620   42.7730 C   0  0  0  0  0  0  0  0  0  0  0  0
   40.9940   29.2760   42.0450 N   0  0  0  0  0  0  0  0  0  0  0  0
   40.7150   30.2110   41.1840 C   0  0  0  0  0  0  0  0  0  0  0  0
   39.3950   30.5450   40.9520 N   0  0  0  0  0  0  0  0  0  0  0  0
   40.4700   27.8280   43.4320 H   0  0  0  0  0  0  0  0  0  0  0  0
   41.5630   30.6880   40.6830 H   0  0  0  0  0  0  0  0  0  0  0  0
   37.7360   28.0640   43.2260 C   0  0  1  0  0  0  0  0  0  0  0  0
   36.5190   27.6520   42.7800 C   0  0  0  0  0  0  0  0  0  0  0  0
   37.5610   26.5770   42.8010 C   0  0  1  0  0  0  0  0  0  0  0  0
   37.7560   28.2220   44.3390 H   0  0  0  0  0  0  0  0  0  0  0  0
   36.1530   28.0040   41.7700 H   0  0  0  0  0  0  0  0  0  0  0  0
   35.6180   27.3870   43.3770 H   0  0  0  0  0  0  0  0  0  0  0  0
   37.5670   25.8700   43.6570 H   0  0  0  0  0  0  0  0  0  0  0  0
   39.2280   25.2280   41.4490 C   0  0  1  0  0  3  0  0  0  0  0  0
   37.9780   26.0480   41.5090 C   0  0  1  0  0  3  0  0  0  0  0  0
   36.9260   25.0550   41.0730 C   0  0  0  0  0  3  0  0  0  0  0  0
   35.9460   25.3130   41.5250 H   0  0  0  0  0  0  0  0  0  0  0  0
   37.3670   23.8620   41.6010 O   0  0  0  0  0  0  0  0  0  0  0  0
   38.7380   23.8220   41.3320 C   0  0  0  0  0  3  0  0  0  0  0  0
   39.2760   23.1950   42.0590 H   0  0  0  0  0  0  0  0  0  0  0  0
   39.8820   25.5350   40.2380 O   0  0  0  0  0  0  0  0  0  0  0  0
   39.8030   24.8210   39.5680 H   0  0  0  0  0  0  0  0  0  0  0  0
   37.1720   30.4080   41.3150 C   0  0  0  0  0  0  0  0  0  0  0  0
   36.0730   30.8210   41.5510 O   0  0  0  0  0  0  0  0  0  0  0  0
   35.9200   28.2360   39.5140 Cl  0  0  0  0  0  0  0  0  0  0  0  0
   36.6270   29.7090   38.8680 C   0  0  0  0  0  0  0  0  0  0  0  0
   37.1470   30.6120   39.8320 C   0  0  0  0  0  0  0  0  0  0  0  0
   37.6640   31.7230   39.2060 C   0  0  0  0  0  0  0  0  0  0  0  0
   37.7420   32.0430   37.9220 C   0  0  0  0  0  0  0  0  0  0  0  0
   37.2170   31.1170   37.0460 C   0  0  0  0  0  0  0  0  0  0  0  0
   36.6620   29.9600   37.5060 C   0  0  0  0  0  0  0  0  0  0  0  0
   38.0770   32.5330   39.8520 H   0  0  0  0  0  0  0  0  0  0  0  0
   38.1760   32.9560   37.5180 H   0  0  0  0  0  0  0  0  0  0  0  0
   37.2640   31.3460   35.9660 H   0  0  0  0  0  0  0  0  0  0  0  0
   36.1740   29.1250   36.5370 O   0  0  0  0  0  0  0  0  0  0  0  0
   36.3310   26.9330   35.1060 O   0  0  0  0  0  0  0  0  0  0  0  0
   37.0000   28.2670   35.3290 P   0  0  0  0  0  0  0  0  0  0  0  0
   37.0250   29.1860   33.9050 O   0  0  0  0  0  0  0  0  0  0  0  0
   37.6890   29.8970   33.9630 H   0  0  0  0  0  0  0  0  0  0  0  0
   38.6250   28.0280   35.7430 O   0  0  0  0  0  0  0  0  0  0  0  0
   39.1210   27.7660   34.9240 H   0  0  0  0  0  0  0  0  0  0  0  0
  1  2  1  0  0  0  0
  2  3  2  0  0  0  0
  2  9  1  0  0  0  0
  3  7  1  0  0  0  0
  4  3  1  0  0  0  0
  5  4  2  0  0  0  0
  6  5  1  0  0  0  0
  6  1  2  0  0  0  0
  8  5  1  0  0  0  0
  9 12  1  1  0  0  0
 10 11  1  0  0  0  0
 10  9  1  0  0  0  0
 10 14  1  0  0  0  0
 11  9  1  0  0  0  0
 11 15  1  1  0  0  0
 13 10  1  0  0  0  0
 16 23  1  6  0  0  0
 16 17  1  0  0  0  0
 17 18  1  1  0  0  0
 17 11  1  0  0  0  0
 18 19  1  0  0  0  0
 18 20  1  0  0  0  0
 21 16  1  0  0  0  0
 21 20  1  0  0  0  0
 21 22  1  0  0  0  0
 24 23  1  0  0  0  0
 25 26  2  0  0  0  0
 25  1  1  0  0  0  0
 28 27  1  0  0  0  0
 28 29  1  0  0  0  0
 29 25  1  0  0  0  0
 30 29  2  0  0  0  0
 30 34  1  0  0  0  0
 31 30  1  0  0  0  0
 32 33  1  0  0  0  0
 32 31  2  0  0  0  0
 33 28  2  0  0  0  0
 35 31  1  0  0  0  0
 36 32  1  0  0  0  0
 37 33  1  0  0  0  0
 38 39  2  0  0  0  0
 39 42  1  0  0  0  0
 39 37  1  0  0  0  0
 40 41  1  0  0  0  0
 40 39  1  0  0  0  0
 43 42  1  0  0  0  0
M  END
>  <minimizedAffinity>
-6.19095325

$$$$

 OpenBabel03242523253D

 43 46  0  0  1  0  0  0  0  0999 V2000
   38.7660   30.7290   41.6270 C   0  0  0  0  0  0  0  0  0  0  0  0
   39.3130   31.8830   41.2610 C   0  0  0  0  0  0  0  0  0  0  0  0
   38.4550   32.7410   40.6030 C   0  0  0  0  0  0  0  0  0  0  0  0
   37.1320   32.3240   40.3890 N   0  0  0  0  0  0  0  0  0  0  0  0
   36.6580   31.1740   40.7730 C   0  0  0  0  0  0  0  0  0  0  0  0
   37.4840   30.2880   41.4360 N   0  0  0  0  0  0  0  0  0  0  0  0
   38.6460   33.7260   40.2040 H   0  0  0  0  0  0  0  0  0  0  0  0
   35.6070   30.9740   40.5410 H   0  0  0  0  0  0  0  0  0  0  0  0
   40.6690   32.2690   41.3700 C   0  0  1  0  0  0  0  0  0  0  0  0
   41.7890   31.5160   41.2060 C   0  0  0  0  0  0  0  0  0  0  0  0
   41.5160   32.4620   40.0790 C   0  0  1  0  0  0  0  0  0  0  0  0
   40.8070   33.0850   42.1320 H   0  0  0  0  0  0  0  0  0  0  0  0
   41.6840   30.4090   40.9960 H   0  0  0  0  0  0  0  0  0  0  0  0
   42.7950   31.6660   41.6580 H   0  0  0  0  0  0  0  0  0  0  0  0
   42.0720   33.4220   40.0540 H   0  0  0  0  0  0  0  0  0  0  0  0
   41.2560   32.7240   37.5710 C   0  0  1  0  0  3  0  0  0  0  0  0
   41.1810   31.8640   38.7920 C   0  0  1  0  0  3  0  0  0  0  0  0
   42.2270   30.8130   38.5040 C   0  0  0  0  0  3  0  0  0  0  0  0
   42.6490   30.4220   39.4530 H   0  0  0  0  0  0  0  0  0  0  0  0
   43.2050   31.5040   37.8240 O   0  0  0  0  0  0  0  0  0  0  0  0
   42.5220   32.3000   36.9010 C   0  0  0  0  0  3  0  0  0  0  0  0
   43.1000   33.1980   36.6320 H   0  0  0  0  0  0  0  0  0  0  0  0
   40.1970   32.3480   36.7190 O   0  0  0  0  0  0  0  0  0  0  0  0
   40.4970   31.8290   35.9400 H   0  0  0  0  0  0  0  0  0  0  0  0
   39.4210   29.6550   42.4040 C   0  0  0  0  0  0  0  0  0  0  0  0
   40.3200   29.1750   43.0320 O   0  0  0  0  0  0  0  0  0  0  0  0
   39.5190   27.4900   40.2040 Cl  0  0  0  0  0  0  0  0  0  0  0  0
   38.3870   27.4250   41.5470 C   0  0  0  0  0  0  0  0  0  0  0  0
   38.4820   28.4920   42.4790 C   0  0  0  0  0  0  0  0  0  0  0  0
   37.5530   28.3240   43.4810 C   0  0  0  0  0  0  0  0  0  0  0  0
   36.6460   27.3790   43.6800 C   0  0  0  0  0  0  0  0  0  0  0  0
   36.6120   26.3780   42.7310 C   0  0  0  0  0  0  0  0  0  0  0  0
   37.4720   26.3940   41.6740 C   0  0  0  0  0  0  0  0  0  0  0  0
   37.5410   29.0770   44.3040 H   0  0  0  0  0  0  0  0  0  0  0  0
   35.9440   27.3340   44.5110 H   0  0  0  0  0  0  0  0  0  0  0  0
   35.8690   25.5710   42.8610 H   0  0  0  0  0  0  0  0  0  0  0  0
   37.3410   25.3430   40.8050 O   0  0  0  0  0  0  0  0  0  0  0  0
   35.6100   24.2170   39.1870 O   0  0  0  0  0  0  0  0  0  0  0  0
   36.6600   25.2990   39.2520 P   0  0  0  0  0  0  0  0  0  0  0  0
   36.0010   26.8170   38.8840 O   0  0  0  0  0  0  0  0  0  0  0  0
   36.7020   27.4510   38.6450 H   0  0  0  0  0  0  0  0  0  0  0  0
   37.8400   25.0200   38.0690 O   0  0  0  0  0  0  0  0  0  0  0  0
   37.4590   25.2580   37.1840 H   0  0  0  0  0  0  0  0  0  0  0  0
  1 25  1  0  0  0  0
  2  9  1  0  0  0  0
  2  1  2  0  0  0  0
  3  2  1  0  0  0  0
  4  3  2  0  0  0  0
  4  5  1  0  0  0  0
  5  6  2  0  0  0  0
  6  1  1  0  0  0  0
  7  3  1  0  0  0  0
  8  5  1  0  0  0  0
  9 12  1  1  0  0  0
 10  9  1  0  0  0  0
 10 14  1  0  0  0  0
 11 15  1  6  0  0  0
 11 10  1  0  0  0  0
 11  9  1  0  0  0  0
 13 10  1  0  0  0  0
 16 23  1  6  0  0  0
 16 17  1  0  0  0  0
 17 18  1  6  0  0  0
 17 11  1  0  0  0  0
 18 19  1  0  0  0  0
 20 18  1  0  0  0  0
 21 16  1  0  0  0  0
 21 20  1  0  0  0  0
 22 21  1  0  0  0  0
 24 23  1  0  0  0  0
 25 29  1  0  0  0  0
 25 26  2  0  0  0  0
 27 28  1  0  0  0  0
 28 33  2  0  0  0  0
 28 29  1  0  0  0  0
 29 30  2  0  0  0  0
 30 31  1  0  0  0  0
 30 34  1  0  0  0  0
 31 35  1  0  0  0  0
 32 36  1  0  0  0  0
 32 31  2  0  0  0  0
 33 32  1  0  0  0  0
 37 33  1  0  0  0  0
 38 39  2  0  0  0  0
 39 37  1  0  0  0  0
 40 39  1  0  0  0  0
 41 40  1  0  0  0  0
 42 39  1  0  0  0  0
 43 42  1  0  0  0  0
M  END
>  <minimizedAffinity>
-6.00263691

$$$$

 OpenBabel03242523253D

 43 46  0  0  1  0  0  0  0  0999 V2000
   37.5380   29.5710   41.1140 C   0  0  0  0  0  0  0  0  0  0  0  0
   38.1930   29.4660   42.2650 C   0  0  0  0  0  0  0  0  0  0  0  0
   39.3820   30.1650   42.3150 C   0  0  0  0  0  0  0  0  0  0  0  0
   39.7720   30.8940   41.1820 N   0  0  0  0  0  0  0  0  0  0  0  0
   39.0830   30.9550   40.0790 C   0  0  0  0  0  0  0  0  0  0  0  0
   37.8870   30.2710   39.9900 N   0  0  0  0  0  0  0  0  0  0  0  0
   40.0950   30.2430   43.1210 H   0  0  0  0  0  0  0  0  0  0  0  0
   39.5030   31.5610   39.2700 H   0  0  0  0  0  0  0  0  0  0  0  0
   37.8680   28.6460   43.3710 C   0  0  1  0  0  0  0  0  0  0  0  0
   37.1430   27.4950   43.4000 C   0  0  0  0  0  0  0  0  0  0  0  0
   38.6170   27.2970   43.5710 C   0  0  1  0  0  0  0  0  0  0  0  0
   37.7560   29.2500   44.3140 H   0  0  0  0  0  0  0  0  0  0  0  0
   36.6720   27.1160   42.4450 H   0  0  0  0  0  0  0  0  0  0  0  0
   36.5530   27.0720   44.2430 H   0  0  0  0  0  0  0  0  0  0  0  0
   39.0120   27.1580   44.5990 H   0  0  0  0  0  0  0  0  0  0  0  0
   40.7980   26.4820   42.5670 C   0  0  1  0  0  3  0  0  0  0  0  0
   39.3070   26.5860   42.5010 C   0  0  1  0  0  3  0  0  0  0  0  0
   38.8840   25.1380   42.5830 C   0  0  0  0  0  3  0  0  0  0  0  0
   37.8760   25.0590   43.0420 H   0  0  0  0  0  0  0  0  0  0  0  0
   39.8120   24.5760   43.4310 O   0  0  0  0  0  0  0  0  0  0  0  0
   41.0470   25.0790   43.0130 C   0  0  0  0  0  3  0  0  0  0  0  0
   41.7790   25.0920   43.8360 H   0  0  0  0  0  0  0  0  0  0  0  0
   41.2900   26.5850   41.2500 O   0  0  0  0  0  0  0  0  0  0  0  0
   41.6000   25.7260   40.8880 H   0  0  0  0  0  0  0  0  0  0  0  0
   36.2140   28.9930   40.8010 C   0  0  0  0  0  0  0  0  0  0  0  0
   35.0320   28.8670   40.9460 O   0  0  0  0  0  0  0  0  0  0  0  0
   34.8920   29.5510   38.0670 Cl  0  0  0  0  0  0  0  0  0  0  0  0
   35.8340   28.1020   38.3850 C   0  0  0  0  0  0  0  0  0  0  0  0
   36.3850   28.0050   39.6890 C   0  0  0  0  0  0  0  0  0  0  0  0
   37.1020   26.8360   39.8110 C   0  0  0  0  0  0  0  0  0  0  0  0
   37.3290   25.8580   38.9460 C   0  0  0  0  0  0  0  0  0  0  0  0
   36.7590   26.0230   37.7010 C   0  0  0  0  0  0  0  0  0  0  0  0
   36.0190   27.1310   37.4150 C   0  0  0  0  0  0  0  0  0  0  0  0
   37.6210   26.6490   40.7810 H   0  0  0  0  0  0  0  0  0  0  0  0
   37.9140   24.9610   39.1380 H   0  0  0  0  0  0  0  0  0  0  0  0
   36.9240   25.2280   36.9500 H   0  0  0  0  0  0  0  0  0  0  0  0
   35.5110   27.1770   36.1440 O   0  0  0  0  0  0  0  0  0  0  0  0
   35.1250   29.3490   34.7240 O   0  0  0  0  0  0  0  0  0  0  0  0
   35.9930   28.1180   34.8170 P   0  0  0  0  0  0  0  0  0  0  0  0
   37.6280   28.5330   34.9870 O   0  0  0  0  0  0  0  0  0  0  0  0
   38.2020   27.7770   34.7610 H   0  0  0  0  0  0  0  0  0  0  0  0
   35.8960   27.2410   33.3710 O   0  0  0  0  0  0  0  0  0  0  0  0
   36.4200   27.7210   32.6780 H   0  0  0  0  0  0  0  0  0  0  0  0
  1  2  1  0  0  0  0
  2  3  2  0  0  0  0
  2  9  1  0  0  0  0
  3  7  1  0  0  0  0
  4  3  1  0  0  0  0
  5  4  2  0  0  0  0
  6  5  1  0  0  0  0
  6  1  2  0  0  0  0
  8  5  1  0  0  0  0
  9 10  1  0  0  0  0
  9 11  1  0  0  0  0
  9 12  1  1  0  0  0
 10 11  1  0  0  0  0
 10 14  1  0  0  0  0
 11 15  1  1  0  0  0
 13 10  1  0  0  0  0
 16 23  1  6  0  0  0
 16 21  1  0  0  0  0
 17 16  1  0  0  0  0
 17 18  1  1  0  0  0
 17 11  1  0  0  0  0
 18 19  1  0  0  0  0
 18 20  1  0  0  0  0
 21 20  1  0  0  0  0
 21 22  1  0  0  0  0
 24 23  1  0  0  0  0
 25 26  2  0  0  0  0
 25  1  1  0  0  0  0
 27 28  1  0  0  0  0
 28 29  1  0  0  0  0
 29 30  2  0  0  0  0
 29 25  1  0  0  0  0
 30 34  1  0  0  0  0
 31 35  1  0  0  0  0
 31 30  1  0  0  0  0
 32 31  2  0  0  0  0
 33 32  1  0  0  0  0
 33 28  2  0  0  0  0
 36 32  1  0  0  0  0
 37 33  1  0  0  0  0
 38 39  2  0  0  0  0
 39 40  1  0  0  0  0
 39 37  1  0  0  0  0
 41 40  1  0  0  0  0
 42 39  1  0  0  0  0
 43 42  1  0  0  0  0
M  END
>  <minimizedAffinity>
-5.89623594

$$$$

 OpenBabel03242523253D

 43 46  0  0  1  0  0  0  0  0999 V2000
   36.5260   26.8230   37.8050 C   0  0  0  0  0  0  0  0  0  0  0  0
   37.0590   26.0740   38.7640 C   0  0  0  0  0  0  0  0  0  0  0  0
   38.1880   25.3760   38.3860 C   0  0  0  0  0  0  0  0  0  0  0  0
   38.6470   25.5180   37.0680 N   0  0  0  0  0  0  0  0  0  0  0  0
   38.0740   26.2690   36.1720 C   0  0  0  0  0  0  0  0  0  0  0  0
   36.9430   26.9850   36.5120 N   0  0  0  0  0  0  0  0  0  0  0  0
   38.8030   24.7040   38.9660 H   0  0  0  0  0  0  0  0  0  0  0  0
   38.5350   26.2890   35.1790 H   0  0  0  0  0  0  0  0  0  0  0  0
   36.5450   25.8350   40.0600 C   0  0  1  0  0  0  0  0  0  0  0  0
   37.0270   25.0200   41.0360 C   0  0  0  0  0  0  0  0  0  0  0  0
   37.2450   26.4790   41.2920 C   0  0  1  0  0  0  0  0  0  0  0  0
   35.4230   25.9140   40.0810 H   0  0  0  0  0  0  0  0  0  0  0  0
   37.9390   24.3850   40.8240 H   0  0  0  0  0  0  0  0  0  0  0  0
   36.4680   24.5200   41.8580 H   0  0  0  0  0  0  0  0  0  0  0  0
   36.5450   27.0020   41.9760 H   0  0  0  0  0  0  0  0  0  0  0  0
   38.8850   28.4040   41.4660 C   0  0  1  0  0  3  0  0  0  0  0  0
   38.6280   26.9420   41.2890 C   0  0  1  0  0  3  0  0  0  0  0  0
   39.2980   26.3520   42.5080 C   0  0  0  0  0  3  0  0  0  0  0  0
   38.7990   25.4040   42.7980 H   0  0  0  0  0  0  0  0  0  0  0  0
   39.0800   27.2960   43.4870 O   0  0  0  0  0  0  0  0  0  0  0  0
   39.3480   28.5260   42.8810 C   0  0  0  0  0  3  0  0  0  0  0  0
   38.7960   29.3460   43.3670 H   0  0  0  0  0  0  0  0  0  0  0  0
   39.9810   28.7470   40.6470 O   0  0  0  0  0  0  0  0  0  0  0  0
   40.8070   28.9000   41.1570 H   0  0  0  0  0  0  0  0  0  0  0  0
   35.3630   27.7270   37.9420 C   0  0  0  0  0  0  0  0  0  0  0  0
   34.2220   28.0470   37.7750 O   0  0  0  0  0  0  0  0  0  0  0  0
   37.0360   29.8970   36.5190 Cl  0  0  0  0  0  0  0  0  0  0  0  0
   36.5810   30.0120   38.2120 C   0  0  0  0  0  0  0  0  0  0  0  0
   35.7990   28.9370   38.7090 C   0  0  0  0  0  0  0  0  0  0  0  0
   35.5030   29.1450   40.0370 C   0  0  0  0  0  0  0  0  0  0  0  0
   35.8260   30.1350   40.8570 C   0  0  0  0  0  0  0  0  0  0  0  0
   36.5880   31.1410   40.3030 C   0  0  0  0  0  0  0  0  0  0  0  0
   36.9640   31.0880   38.9940 C   0  0  0  0  0  0  0  0  0  0  0  0
   34.8610   28.3890   40.5470 H   0  0  0  0  0  0  0  0  0  0  0  0
   35.5440   30.2110   41.9060 H   0  0  0  0  0  0  0  0  0  0  0  0
   36.8800   31.9850   40.9550 H   0  0  0  0  0  0  0  0  0  0  0  0
   37.7160   32.1500   38.5630 O   0  0  0  0  0  0  0  0  0  0  0  0
   40.0780   31.1060   39.0230 O   0  0  0  0  0  0  0  0  0  0  0  0
   39.3950   32.2780   38.3620 P   0  0  0  0  0  0  0  0  0  0  0  0
   39.7590   32.3470   36.7080 O   0  0  0  0  0  0  0  0  0  0  0  0
   39.5680   33.2330   36.3480 H   0  0  0  0  0  0  0  0  0  0  0  0
   39.9860   33.7250   39.0160 O   0  0  0  0  0  0  0  0  0  0  0  0
   40.8970   33.8820   38.6560 H   0  0  0  0  0  0  0  0  0  0  0  0
  1 25  1  0  0  0  0
  1  2  1  0  0  0  0
  2  9  1  0  0  0  0
  3  2  2  0  0  0  0
  3  7  1  0  0  0  0
  4  3  1  0  0  0  0
  5  6  1  0  0  0  0
  5  4  2  0  0  0  0
  6  1  2  0  0  0  0
  8  5  1  0  0  0  0
  9 12  1  1  0  0  0
  9 10  1  0  0  0  0
  9 11  1  0  0  0  0
 10 11  1  0  0  0  0
 10 14  1  0  0  0  0
 11 15  1  1  0  0  0
 13 10  1  0  0  0  0
 16 23  1  6  0  0  0
 16 21  1  0  0  0  0
 17 11  1  0  0  0  0
 17 16  1  0  0  0  0
 17 18  1  1  0  0  0
 18 19  1  0  0  0  0
 18 20  1  0  0  0  0
 21 22  1  0  0  0  0
 21 20  1  0  0  0  0
 23 24  1  0  0  0  0
 25 29  1  0  0  0  0
 26 25  2  0  0  0  0
 27 28  1  0  0  0  0
 28 29  2  0  0  0  0
 28 33  1  0  0  0  0
 29 30  1  0  0  0  0
 30 34  1  0  0  0  0
 30 31  2  0  0  0  0
 31 35  1  0  0  0  0
 32 31  1  0  0  0  0
 32 36  1  0  0  0  0
 33 32  2  0  0  0  0
 37 33  1  0  0  0  0
 39 37  1  0  0  0  0
 39 42  1  0  0  0  0
 39 38  2  0  0  0  0
 40 39  1  0  0  0  0
 41 40  1  0  0  0  0
 43 42  1  0  0  0  0
M  END
>  <minimizedAffinity>
-5.79951572

$$$$
