
 OpenBabel03242523233D

 43 46  0  0  1  0  0  0  0  0999 V2000
   47.3840   32.7260   44.0800 C   0  0  0  0  0  0  0  0  0  0  0  0
   48.0900   33.0080   42.9900 C   0  0  0  0  0  0  0  0  0  0  0  0
   48.9360   31.9990   42.5780 C   0  0  0  0  0  0  0  0  0  0  0  0
   48.9710   30.8120   43.3250 N   0  0  0  0  0  0  0  0  0  0  0  0
   48.2530   30.5990   44.3890 C   0  0  0  0  0  0  0  0  0  0  0  0
   47.3920   31.5830   44.8340 N   0  0  0  0  0  0  0  0  0  0  0  0
   49.6110   31.9750   41.7340 H   0  0  0  0  0  0  0  0  0  0  0  0
   48.3770   29.6280   44.8790 H   0  0  0  0  0  0  0  0  0  0  0  0
   48.1480   34.2380   42.2940 C   0  0  1  0  0  0  0  0  0  0  0  0
   48.9190   34.5830   41.2270 C   0  0  0  0  0  0  0  0  0  0  0  0
   47.4770   34.3570   40.8950 C   0  0  1  0  0  0  0  0  0  0  0  0
   47.9410   35.1090   42.9750 H   0  0  0  0  0  0  0  0  0  0  0  0
   49.6700   33.8390   40.8260 H   0  0  0  0  0  0  0  0  0  0  0  0
   49.2740   35.5950   40.9310 H   0  0  0  0  0  0  0  0  0  0  0  0
   46.8170   35.2450   40.7950 H   0  0  0  0  0  0  0  0  0  0  0  0
   45.9250   33.2540   39.2220 C   0  0  1  0  0  3  0  0  0  0  0  0
   47.1760   33.2160   40.0390 C   0  0  1  0  0  3  0  0  0  0  0  0
   48.2470   33.1620   38.9750 C   0  0  0  0  0  3  0  0  0  0  0  0
   49.1860   33.6220   39.3520 H   0  0  0  0  0  0  0  0  0  0  0  0
   47.7390   33.9400   37.9600 O   0  0  0  0  0  0  0  0  0  0  0  0
   46.3990   33.5600   37.8390 C   0  0  0  0  0  3  0  0  0  0  0  0
   45.7840   34.3720   37.4210 H   0  0  0  0  0  0  0  0  0  0  0  0
   45.3940   31.9490   39.1920 O   0  0  0  0  0  0  0  0  0  0  0  0
   45.5240   31.5020   38.3270 H   0  0  0  0  0  0  0  0  0  0  0  0
   46.3540   33.5820   44.7050 C   0  0  0  0  0  0  0  0  0  0  0  0
   45.8490   34.1670   45.6200 O   0  0  0  0  0  0  0  0  0  0  0  0
   44.7360   31.3640   43.2920 Cl  0  0  0  0  0  0  0  0  0  0  0  0
   44.5490   33.0670   42.9010 C   0  0  0  0  0  0  0  0  0  0  0  0
   45.3580   33.9600   43.6520 C   0  0  0  0  0  0  0  0  0  0  0  0
   45.1170   35.2570   43.2600 C   0  0  0  0  0  0  0  0  0  0  0  0
   44.2990   35.7520   42.3430 C   0  0  0  0  0  0  0  0  0  0  0  0
   43.5480   34.8240   41.6530 C   0  0  0  0  0  0  0  0  0  0  0  0
   43.6650   33.4940   41.9240 C   0  0  0  0  0  0  0  0  0  0  0  0
   45.6640   36.0670   43.7970 H   0  0  0  0  0  0  0  0  0  0  0  0
   44.1780   36.8060   42.0990 H   0  0  0  0  0  0  0  0  0  0  0  0
   42.8530   35.1980   40.8780 H   0  0  0  0  0  0  0  0  0  0  0  0
   42.8630   32.6760   41.1740 O   0  0  0  0  0  0  0  0  0  0  0  0
   40.8030   31.2930   40.3230 O   0  0  0  0  0  0  0  0  0  0  0  0
   41.3200   32.0600   41.5150 P   0  0  0  0  0  0  0  0  0  0  0  0
   41.4000   31.0740   42.8910 O   0  0  0  0  0  0  0  0  0  0  0  0
   41.4510   31.6140   43.7020 H   0  0  0  0  0  0  0  0  0  0  0  0
   40.2340   33.3000   41.9090 O   0  0  0  0  0  0  0  0  0  0  0  0
   39.4410   32.8940   42.3460 H   0  0  0  0  0  0  0  0  0  0  0  0
  1 25  1  0  0  0  0
  1  6  1  0  0  0  0
  2  1  2  0  0  0  0
  3  2  1  0  0  0  0
  3  4  2  0  0  0  0
  4  5  1  0  0  0  0
  5  6  2  0  0  0  0
  5  8  1  0  0  0  0
  7  3  1  0  0  0  0
  9 12  1  1  0  0  0
  9  2  1  0  0  0  0
 10  9  1  0  0  0  0
 11 15  1  6  0  0  0
 11 10  1  0  0  0  0
 11  9  1  0  0  0  0
 13 10  1  0  0  0  0
 14 10  1  0  0  0  0
 16 23  1  6  0  0  0
 16 17  1  0  0  0  0
 17 18  1  6  0  0  0
 17 11  1  0  0  0  0
 18 19  1  0  0  0  0
 20 18  1  0  0  0  0
 21 20  1  0  0  0  0
 21 16  1  0  0  0  0
 22 21  1  0  0  0  0
 24 23  1  0  0  0  0
 25 26  2  0  0  0  0
 28 27  1  0  0  0  0
 28 29  1  0  0  0  0
 29 25  1  0  0  0  0
 30 29  2  0  0  0  0
 30 34  1  0  0  0  0
 31 30  1  0  0  0  0
 32 33  1  0  0  0  0
 32 31  2  0  0  0  0
 33 28  2  0  0  0  0
 35 31  1  0  0  0  0
 36 32  1  0  0  0  0
 37 39  1  0  0  0  0
 37 33  1  0  0  0  0
 38 39  2  0  0  0  0
 39 42  1  0  0  0  0
 39 40  1  0  0  0  0
 40 41  1  0  0  0  0
 42 43  1  0  0  0  0
M  END
>  <minimizedAffinity>
-5.45033216

>  <minimizedRMSD>
1.20944309

$$$$
