
 OpenBabel03242512493D

 30 32  0  0  1  0  0  0  0  0999 V2000
   36.8190   30.1110   39.0740 N   0  0  0  0  0  0  0  0  0  0  0  0
   36.8320   29.5890   37.7200 C   0  0  0  0  0  0  0  0  0  0  0  0
   35.3460   29.3540   37.5660 C   0  0  0  0  0  0  0  0  0  0  0  0
   35.0780   28.5440   38.8290 C   0  0  0  0  0  0  0  0  0  0  0  0
   35.9310   29.2430   39.8280 C   0  0  1  0  0  0  0  0  0  0  0  0
   37.2110   30.3510   37.0040 H   0  0  0  0  0  0  0  0  0  0  0  0
   37.3340   28.6270   37.6240 H   0  0  0  0  0  0  0  0  0  0  0  0
   35.1520   28.7750   36.6430 H   0  0  0  0  0  0  0  0  0  0  0  0
   34.8060   30.3110   37.6360 H   0  0  0  0  0  0  0  0  0  0  0  0
   35.2830   27.4740   38.6880 H   0  0  0  0  0  0  0  0  0  0  0  0
   33.9900   28.6270   39.0190 H   0  0  0  0  0  0  0  0  0  0  0  0
   35.3020   29.8800   40.4610 H   0  0  0  0  0  0  0  0  0  0  0  0
   37.8720   33.5490   40.0370 C   0  0  0  0  0  0  0  0  0  0  0  0
   37.1310   32.5440   39.3980 C   0  0  0  0  0  0  0  0  0  0  0  0
   37.4820   31.2150   39.6510 C   0  0  0  0  0  0  0  0  0  0  0  0
   38.5260   30.9600   40.5050 N   0  0  0  0  0  0  0  0  0  0  0  0
   39.2230   31.9600   41.1060 C   0  0  0  0  0  0  0  0  0  0  0  0
   38.8880   33.2550   40.8660 N   0  0  0  0  0  0  0  0  0  0  0  0
   37.5170   34.5310   39.7710 H   0  0  0  0  0  0  0  0  0  0  0  0
   36.3060   32.7270   38.7230 H   0  0  0  0  0  0  0  0  0  0  0  0
   40.0420   31.7580   41.7760 H   0  0  0  0  0  0  0  0  0  0  0  0
   36.4250   28.3700   42.1550 C   0  0  1  0  0  3  0  0  0  0  0  0
   36.7690   28.3980   40.7000 C   0  0  1  0  0  3  0  0  0  0  0  0
   36.7790   26.9360   40.3950 C   0  0  0  0  0  3  0  0  0  0  0  0
   37.4100   26.7750   39.5020 H   0  0  0  0  0  0  0  0  0  0  0  0
   37.3990   26.3450   41.4720 O   0  0  0  0  0  0  0  0  0  0  0  0
   37.3150   27.1890   42.5640 C   0  0  0  0  0  3  0  0  0  0  0  0
   36.9750   26.6900   43.4720 H   0  0  0  0  0  0  0  0  0  0  0  0
   36.9110   29.5310   42.7590 O   0  0  0  0  0  0  0  0  0  0  0  0
   37.8640   29.6180   42.5180 H   0  0  0  0  0  0  0  0  0  0  0  0
  1 15  1  0  0  0  0
  1  5  1  0  0  0  0
  2  1  1  0  0  0  0
  3  9  1  0  0  0  0
  3  2  1  0  0  0  0
  3  4  1  0  0  0  0
  4 11  1  0  0  0  0
  4  5  1  0  0  0  0
  5 12  1  1  0  0  0
  5 23  1  0  0  0  0
  6  2  1  0  0  0  0
  7  2  1  0  0  0  0
  8  3  1  0  0  0  0
 10  4  1  0  0  0  0
 13 18  1  0  0  0  0
 14 15  1  0  0  0  0
 14 13  2  0  0  0  0
 15 16  2  0  0  0  0
 16 17  1  0  0  0  0
 17 21  1  0  0  0  0
 18 17  2  0  0  0  0
 19 13  1  0  0  0  0
 20 14  1  0  0  0  0
 22 27  1  0  0  0  0
 22 29  1  1  0  0  0
 23 24  1  6  0  0  0
 23 22  1  0  0  0  0
 24 26  1  0  0  0  0
 25 24  1  0  0  0  0
 26 27  1  0  0  0  0
 27 28  1  0  0  0  0
 30 29  1  0  0  0  0
M  END
>  <minimizedAffinity>
-4.81844759

$$$$

 OpenBabel03242512493D

 30 32  0  0  1  0  0  0  0  0999 V2000
   37.4020   30.6550   38.0580 N   0  0  0  0  0  0  0  0  0  0  0  0
   37.8330   29.9290   36.8780 C   0  0  0  0  0  0  0  0  0  0  0  0
   36.4830   29.7720   36.2170 C   0  0  0  0  0  0  0  0  0  0  0  0
   35.6890   29.1880   37.3800 C   0  0  0  0  0  0  0  0  0  0  0  0
   36.2080   29.9750   38.5310 C   0  0  1  0  0  0  0  0  0  0  0  0
   38.5290   30.5430   36.2660 H   0  0  0  0  0  0  0  0  0  0  0  0
   38.2190   28.9310   37.0900 H   0  0  0  0  0  0  0  0  0  0  0  0
   36.5610   29.0700   35.3650 H   0  0  0  0  0  0  0  0  0  0  0  0
   36.0710   30.7620   35.9670 H   0  0  0  0  0  0  0  0  0  0  0  0
   35.8030   28.0970   37.4550 H   0  0  0  0  0  0  0  0  0  0  0  0
   34.6230   29.3710   37.1450 H   0  0  0  0  0  0  0  0  0  0  0  0
   35.4770   30.7430   38.8070 H   0  0  0  0  0  0  0  0  0  0  0  0
   37.8290   33.8870   39.8540 C   0  0  0  0  0  0  0  0  0  0  0  0
   37.1640   32.8150   39.2400 C   0  0  0  0  0  0  0  0  0  0  0  0
   37.9440   31.7880   38.7010 C   0  0  0  0  0  0  0  0  0  0  0  0
   39.3100   31.8770   38.7980 N   0  0  0  0  0  0  0  0  0  0  0  0
   39.9200   32.9320   39.4000 C   0  0  0  0  0  0  0  0  0  0  0  0
   39.1700   33.9350   39.9270 N   0  0  0  0  0  0  0  0  0  0  0  0
   37.1340   34.6180   40.2330 H   0  0  0  0  0  0  0  0  0  0  0  0
   36.0890   32.7290   39.1560 H   0  0  0  0  0  0  0  0  0  0  0  0
   40.9930   33.0000   39.4750 H   0  0  0  0  0  0  0  0  0  0  0  0
   35.6360   29.3030   40.9060 C   0  0  1  0  0  3  0  0  0  0  0  0
   36.5760   29.2220   39.7450 C   0  0  1  0  0  3  0  0  0  0  0  0
   36.6990   27.7420   39.5960 C   0  0  0  0  0  3  0  0  0  0  0  0
   37.6510   27.5250   39.0800 H   0  0  0  0  0  0  0  0  0  0  0  0
   36.7840   27.2530   40.8800 O   0  0  0  0  0  0  0  0  0  0  0  0
   36.2460   28.1790   41.7550 C   0  0  0  0  0  3  0  0  0  0  0  0
   35.5400   27.7450   42.4640 H   0  0  0  0  0  0  0  0  0  0  0  0
   35.8280   30.5180   41.5630 O   0  0  0  0  0  0  0  0  0  0  0  0
   36.7930   30.6090   41.7520 H   0  0  0  0  0  0  0  0  0  0  0  0
  1  5  1  0  0  0  0
  1 15  1  0  0  0  0
  2  7  1  0  0  0  0
  2  1  1  0  0  0  0
  3  2  1  0  0  0  0
  3  4  1  0  0  0  0
  4 10  1  0  0  0  0
  4  5  1  0  0  0  0
  5 12  1  1  0  0  0
  5 23  1  0  0  0  0
  6  2  1  0  0  0  0
  8  3  1  0  0  0  0
  9  3  1  0  0  0  0
 11  4  1  0  0  0  0
 13 18  1  0  0  0  0
 13 19  1  0  0  0  0
 14 13  2  0  0  0  0
 15 16  2  0  0  0  0
 15 14  1  0  0  0  0
 16 17  1  0  0  0  0
 17 21  1  0  0  0  0
 17 18  2  0  0  0  0
 20 14  1  0  0  0  0
 22 29  1  1  0  0  0
 22 27  1  0  0  0  0
 23 24  1  6  0  0  0
 23 22  1  0  0  0  0
 24 26  1  0  0  0  0
 25 24  1  0  0  0  0
 26 27  1  0  0  0  0
 27 28  1  0  0  0  0
 29 30  1  0  0  0  0
M  END
>  <minimizedAffinity>
-4.78352928

$$$$

 OpenBabel03242512493D

 30 32  0  0  1  0  0  0  0  0999 V2000
   37.1320   30.1250   39.9980 N   0  0  0  0  0  0  0  0  0  0  0  0
   36.6930   29.5040   38.7620 C   0  0  0  0  0  0  0  0  0  0  0  0
   35.2100   29.4700   39.0540 C   0  0  0  0  0  0  0  0  0  0  0  0
   35.2280   28.8060   40.4250 C   0  0  0  0  0  0  0  0  0  0  0  0
   36.4080   29.4520   41.0630 C   0  0  1  0  0  0  0  0  0  0  0  0
   36.9320   30.1470   37.8880 H   0  0  0  0  0  0  0  0  0  0  0  0
   37.0330   28.4760   38.6410 H   0  0  0  0  0  0  0  0  0  0  0  0
   34.6920   28.8550   38.2930 H   0  0  0  0  0  0  0  0  0  0  0  0
   34.8260   30.4960   39.1600 H   0  0  0  0  0  0  0  0  0  0  0  0
   35.2620   27.7100   40.3560 H   0  0  0  0  0  0  0  0  0  0  0  0
   34.2590   29.0560   40.8990 H   0  0  0  0  0  0  0  0  0  0  0  0
   36.0660   30.2180   41.7680 H   0  0  0  0  0  0  0  0  0  0  0  0
   38.7070   33.4460   40.5820 C   0  0  0  0  0  0  0  0  0  0  0  0
   37.6910   32.5110   40.3390 C   0  0  0  0  0  0  0  0  0  0  0  0
   38.0550   31.1660   40.2390 C   0  0  0  0  0  0  0  0  0  0  0  0
   39.3770   30.8270   40.3810 N   0  0  0  0  0  0  0  0  0  0  0  0
   40.3360   31.7620   40.6150 C   0  0  0  0  0  0  0  0  0  0  0  0
   39.9910   33.0730   40.7150 N   0  0  0  0  0  0  0  0  0  0  0  0
   38.3170   34.4490   40.6400 H   0  0  0  0  0  0  0  0  0  0  0  0
   36.6450   32.7600   40.2250 H   0  0  0  0  0  0  0  0  0  0  0  0
   41.3740   31.4940   40.7270 H   0  0  0  0  0  0  0  0  0  0  0  0
   37.6080   28.8380   43.2080 C   0  0  1  0  0  3  0  0  0  0  0  0
   37.3600   28.5660   41.7580 C   0  0  1  0  0  3  0  0  0  0  0  0
   37.0040   27.1170   41.8100 C   0  0  0  0  0  3  0  0  0  0  0  0
   37.2020   26.6780   40.8160 H   0  0  0  0  0  0  0  0  0  0  0  0
   37.8820   26.5590   42.7100 O   0  0  0  0  0  0  0  0  0  0  0  0
   38.3720   27.5490   43.5420 C   0  0  0  0  0  3  0  0  0  0  0  0
   38.3300   27.2870   44.5990 H   0  0  0  0  0  0  0  0  0  0  0  0
   38.4800   29.9210   43.3250 O   0  0  0  0  0  0  0  0  0  0  0  0
   39.2650   29.7380   42.7560 H   0  0  0  0  0  0  0  0  0  0  0  0
  1 15  1  0  0  0  0
  1  5  1  0  0  0  0
  2  3  1  0  0  0  0
  2  1  1  0  0  0  0
  3  9  1  0  0  0  0
  3  4  1  0  0  0  0
  4 11  1  0  0  0  0
  4  5  1  0  0  0  0
  5 23  1  0  0  0  0
  5 12  1  1  0  0  0
  6  2  1  0  0  0  0
  7  2  1  0  0  0  0
  8  3  1  0  0  0  0
 10  4  1  0  0  0  0
 13 19  1  0  0  0  0
 13 18  1  0  0  0  0
 14 13  2  0  0  0  0
 15 14  1  0  0  0  0
 15 16  2  0  0  0  0
 16 17  1  0  0  0  0
 17 18  2  0  0  0  0
 17 21  1  0  0  0  0
 20 14  1  0  0  0  0
 22 29  1  6  0  0  0
 22 27  1  0  0  0  0
 23 24  1  1  0  0  0
 23 22  1  0  0  0  0
 24 26  1  0  0  0  0
 25 24  1  0  0  0  0
 26 27  1  0  0  0  0
 27 28  1  0  0  0  0
 30 29  1  0  0  0  0
M  END
>  <minimizedAffinity>
-4.65851831

$$$$

 OpenBabel03242512493D

 30 32  0  0  1  0  0  0  0  0999 V2000
   37.6190   29.3180   41.2360 N   0  0  0  0  0  0  0  0  0  0  0  0
   37.2250   27.9210   41.2140 C   0  0  0  0  0  0  0  0  0  0  0  0
   36.6280   27.8450   42.6010 C   0  0  0  0  0  0  0  0  0  0  0  0
   37.7770   28.4320   43.4120 C   0  0  0  0  0  0  0  0  0  0  0  0
   38.2420   29.5370   42.5300 C   0  0  1  0  0  0  0  0  0  0  0  0
   36.4670   27.7340   40.4220 H   0  0  0  0  0  0  0  0  0  0  0  0
   38.0650   27.2270   41.1730 H   0  0  0  0  0  0  0  0  0  0  0  0
   36.4230   26.7890   42.8640 H   0  0  0  0  0  0  0  0  0  0  0  0
   35.7610   28.5180   42.6730 H   0  0  0  0  0  0  0  0  0  0  0  0
   38.5320   27.6770   43.6720 H   0  0  0  0  0  0  0  0  0  0  0  0
   37.3350   28.7680   44.3700 H   0  0  0  0  0  0  0  0  0  0  0  0
   37.8730   30.4930   42.9180 H   0  0  0  0  0  0  0  0  0  0  0  0
   37.2990   31.1990   38.0400 C   0  0  0  0  0  0  0  0  0  0  0  0
   37.4420   30.0950   38.8940 C   0  0  0  0  0  0  0  0  0  0  0  0
   37.4800   30.3370   40.2700 C   0  0  0  0  0  0  0  0  0  0  0  0
   37.3750   31.6310   40.7160 N   0  0  0  0  0  0  0  0  0  0  0  0
   37.2380   32.6770   39.8580 C   0  0  0  0  0  0  0  0  0  0  0  0
   37.2000   32.4510   38.5180 N   0  0  0  0  0  0  0  0  0  0  0  0
   37.2820   30.8990   37.0050 H   0  0  0  0  0  0  0  0  0  0  0  0
   37.5260   29.0700   38.5600 H   0  0  0  0  0  0  0  0  0  0  0  0
   37.1560   33.6920   40.2100 H   0  0  0  0  0  0  0  0  0  0  0  0
   40.3720   30.8690   42.8550 C   0  0  1  0  0  3  0  0  0  0  0  0
   39.6960   29.6510   42.3100 C   0  0  1  0  0  3  0  0  0  0  0  0
   40.5440   28.5780   42.9090 C   0  0  0  0  0  3  0  0  0  0  0  0
   40.4430   27.6710   42.2860 H   0  0  0  0  0  0  0  0  0  0  0  0
   41.8380   29.0330   42.8000 O   0  0  0  0  0  0  0  0  0  0  0  0
   41.8250   30.4100   42.6680 C   0  0  0  0  0  3  0  0  0  0  0  0
   42.5240   30.9150   43.3350 H   0  0  0  0  0  0  0  0  0  0  0  0
   40.1270   31.9450   42.0020 O   0  0  0  0  0  0  0  0  0  0  0  0
   40.3650   31.6640   41.0860 H   0  0  0  0  0  0  0  0  0  0  0  0
  1  5  1  0  0  0  0
  2  1  1  0  0  0  0
  2  3  1  0  0  0  0
  3  9  1  0  0  0  0
  3  8  1  0  0  0  0
  3  4  1  0  0  0  0
  4 10  1  0  0  0  0
  4 11  1  0  0  0  0
  5 12  1  1  0  0  0
  5  4  1  0  0  0  0
  6  2  1  0  0  0  0
  7  2  1  0  0  0  0
 13 18  2  0  0  0  0
 13 14  1  0  0  0  0
 14 15  2  0  0  0  0
 15 16  1  0  0  0  0
 15  1  1  0  0  0  0
 17 21  1  0  0  0  0
 17 16  2  0  0  0  0
 18 17  1  0  0  0  0
 19 13  1  0  0  0  0
 20 14  1  0  0  0  0
 22 29  1  6  0  0  0
 23  5  1  0  0  0  0
 23 22  1  0  0  0  0
 23 24  1  1  0  0  0
 25 24  1  0  0  0  0
 26 24  1  0  0  0  0
 27 26  1  0  0  0  0
 27 22  1  0  0  0  0
 27 28  1  0  0  0  0
 30 29  1  0  0  0  0
M  END
>  <minimizedAffinity>
-4.53826189

$$$$

 OpenBabel03242512493D

 30 32  0  0  1  0  0  0  0  0999 V2000
   38.5890   31.4770   40.8280 N   0  0  0  0  0  0  0  0  0  0  0  0
   39.5480   32.5360   40.5740 C   0  0  0  0  0  0  0  0  0  0  0  0
   38.5990   33.7100   40.6580 C   0  0  0  0  0  0  0  0  0  0  0  0
   37.5170   33.2410   39.6930 C   0  0  0  0  0  0  0  0  0  0  0  0
   37.4240   31.7910   40.0180 C   0  0  1  0  0  0  0  0  0  0  0  0
   40.3240   32.5680   41.3700 H   0  0  0  0  0  0  0  0  0  0  0  0
   39.9690   32.5180   39.5680 H   0  0  0  0  0  0  0  0  0  0  0  0
   39.1080   34.6290   40.3080 H   0  0  0  0  0  0  0  0  0  0  0  0
   38.1710   33.7730   41.6700 H   0  0  0  0  0  0  0  0  0  0  0  0
   37.7580   33.4830   38.6490 H   0  0  0  0  0  0  0  0  0  0  0  0
   36.6100   33.8250   39.9440 H   0  0  0  0  0  0  0  0  0  0  0  0
   36.5340   31.6130   40.6340 H   0  0  0  0  0  0  0  0  0  0  0  0
   39.7870   28.5590   42.8030 C   0  0  0  0  0  0  0  0  0  0  0  0
   39.8550   29.6800   41.9630 C   0  0  0  0  0  0  0  0  0  0  0  0
   38.6600   30.3380   41.6580 C   0  0  0  0  0  0  0  0  0  0  0  0
   37.4890   29.8600   42.1900 N   0  0  0  0  0  0  0  0  0  0  0  0
   37.4610   28.7690   43.0010 C   0  0  0  0  0  0  0  0  0  0  0  0
   38.6180   28.1230   43.3030 N   0  0  0  0  0  0  0  0  0  0  0  0
   40.7620   28.1310   42.9710 H   0  0  0  0  0  0  0  0  0  0  0  0
   40.7680   30.0700   41.5360 H   0  0  0  0  0  0  0  0  0  0  0  0
   36.5400   28.3950   43.4180 H   0  0  0  0  0  0  0  0  0  0  0  0
   36.1480   30.0660   38.6720 C   0  0  1  0  0  3  0  0  0  0  0  0
   37.4030   30.8510   38.8820 C   0  0  1  0  0  3  0  0  0  0  0  0
   37.5830   31.4460   37.5250 C   0  0  0  0  0  3  0  0  0  0  0  0
   38.6520   31.6970   37.3970 H   0  0  0  0  0  0  0  0  0  0  0  0
   37.2700   30.4380   36.6420 O   0  0  0  0  0  0  0  0  0  0  0  0
   36.4750   29.5040   37.2810 C   0  0  0  0  0  3  0  0  0  0  0  0
   35.5890   29.2270   36.7110 H   0  0  0  0  0  0  0  0  0  0  0  0
   36.1110   29.0120   39.5860 O   0  0  0  0  0  0  0  0  0  0  0  0
   36.9680   28.5260   39.5190 H   0  0  0  0  0  0  0  0  0  0  0  0
  1 15  1  0  0  0  0
  2  3  1  0  0  0  0
  2  1  1  0  0  0  0
  2  6  1  0  0  0  0
  3  9  1  0  0  0  0
  4 11  1  0  0  0  0
  4  5  1  0  0  0  0
  4  3  1  0  0  0  0
  5 12  1  1  0  0  0
  5  1  1  0  0  0  0
  7  2  1  0  0  0  0
  8  3  1  0  0  0  0
 10  4  1  0  0  0  0
 13 19  1  0  0  0  0
 13 18  1  0  0  0  0
 14 13  2  0  0  0  0
 15 14  1  0  0  0  0
 15 16  2  0  0  0  0
 16 17  1  0  0  0  0
 17 18  2  0  0  0  0
 17 21  1  0  0  0  0
 20 14  1  0  0  0  0
 22 23  1  0  0  0  0
 22 29  1  1  0  0  0
 23 24  1  6  0  0  0
 23  5  1  0  0  0  0
 25 24  1  0  0  0  0
 26 27  1  0  0  0  0
 26 24  1  0  0  0  0
 27 22  1  0  0  0  0
 28 27  1  0  0  0  0
 30 29  1  0  0  0  0
M  END
>  <minimizedAffinity>
-4.51666212

$$$$

 OpenBabel03242512493D

 30 32  0  0  1  0  0  0  0  0999 V2000
   36.8360   29.4110   40.4680 N   0  0  0  0  0  0  0  0  0  0  0  0
   35.4170   29.4330   40.1640 C   0  0  0  0  0  0  0  0  0  0  0  0
   35.5150   29.2610   38.6650 C   0  0  0  0  0  0  0  0  0  0  0  0
   36.5120   30.3680   38.3400 C   0  0  0  0  0  0  0  0  0  0  0  0
   37.4700   30.2600   39.4730 C   0  0  1  0  0  0  0  0  0  0  0  0
   34.8930   28.5810   40.6490 H   0  0  0  0  0  0  0  0  0  0  0  0
   34.9390   30.3940   40.3590 H   0  0  0  0  0  0  0  0  0  0  0  0
   34.5250   29.4350   38.2010 H   0  0  0  0  0  0  0  0  0  0  0  0
   35.9740   28.2890   38.4290 H   0  0  0  0  0  0  0  0  0  0  0  0
   36.0230   31.3440   38.2170 H   0  0  0  0  0  0  0  0  0  0  0  0
   36.9410   30.1110   37.3520 H   0  0  0  0  0  0  0  0  0  0  0  0
   38.3790   29.7500   39.1340 H   0  0  0  0  0  0  0  0  0  0  0  0
   37.8730   27.8420   43.6790 C   0  0  0  0  0  0  0  0  0  0  0  0
   37.0510   28.5150   42.7630 C   0  0  0  0  0  0  0  0  0  0  0  0
   37.5580   28.7470   41.4820 C   0  0  0  0  0  0  0  0  0  0  0  0
   38.8240   28.3090   41.1830 N   0  0  0  0  0  0  0  0  0  0  0  0
   39.5940   27.6610   42.0970 C   0  0  0  0  0  0  0  0  0  0  0  0
   39.1080   27.4300   43.3460 N   0  0  0  0  0  0  0  0  0  0  0  0
   37.3850   27.7180   44.6320 H   0  0  0  0  0  0  0  0  0  0  0  0
   36.0520   28.8670   42.9810 H   0  0  0  0  0  0  0  0  0  0  0  0
   40.5870   27.3170   41.8610 H   0  0  0  0  0  0  0  0  0  0  0  0
   39.3050   31.8940   40.0910 C   0  0  1  0  0  3  0  0  0  0  0  0
   37.8590   31.5160   40.1420 C   0  0  1  0  0  3  0  0  0  0  0  0
   37.2320   32.7660   39.6220 C   0  0  0  0  0  3  0  0  0  0  0  0
   36.1890   32.8060   39.9840 H   0  0  0  0  0  0  0  0  0  0  0  0
   37.9320   33.7950   40.2090 O   0  0  0  0  0  0  0  0  0  0  0  0
   39.1710   33.3310   40.6110 C   0  0  0  0  0  3  0  0  0  0  0  0
   39.9940   33.9770   40.3070 H   0  0  0  0  0  0  0  0  0  0  0  0
   40.0070   31.1380   41.0310 O   0  0  0  0  0  0  0  0  0  0  0  0
   39.5430   31.2300   41.8980 H   0  0  0  0  0  0  0  0  0  0  0  0
  1 15  1  0  0  0  0
  2  7  1  0  0  0  0
  2  1  1  0  0  0  0
  2  6  1  0  0  0  0
  3  2  1  0  0  0  0
  4  3  1  0  0  0  0
  4  5  1  0  0  0  0
  5 12  1  6  0  0  0
  5 23  1  0  0  0  0
  5  1  1  0  0  0  0
  8  3  1  0  0  0  0
  9  3  1  0  0  0  0
 10  4  1  0  0  0  0
 11  4  1  0  0  0  0
 13 19  1  0  0  0  0
 14 20  1  0  0  0  0
 14 13  2  0  0  0  0
 15 14  1  0  0  0  0
 16 15  2  0  0  0  0
 16 17  1  0  0  0  0
 17 18  2  0  0  0  0
 18 13  1  0  0  0  0
 21 17  1  0  0  0  0
 22 23  1  0  0  0  0
 22 27  1  0  0  0  0
 22 29  1  1  0  0  0
 23 24  1  6  0  0  0
 24 25  1  0  0  0  0
 24 26  1  0  0  0  0
 26 27  1  0  0  0  0
 28 27  1  0  0  0  0
 29 30  1  0  0  0  0
M  END
>  <minimizedAffinity>
-4.41690683

$$$$

 OpenBabel03242512493D

 30 32  0  0  1  0  0  0  0  0999 V2000
   37.4320   26.4150   40.9600 N   0  0  0  0  0  0  0  0  0  0  0  0
   37.2690   25.3480   39.9890 C   0  0  0  0  0  0  0  0  0  0  0  0
   36.4480   24.4070   40.8410 C   0  0  0  0  0  0  0  0  0  0  0  0
   37.3240   24.3500   42.0860 C   0  0  0  0  0  0  0  0  0  0  0  0
   37.7670   25.7650   42.2150 C   0  0  1  0  0  0  0  0  0  0  0  0
   36.7070   25.7040   39.0980 H   0  0  0  0  0  0  0  0  0  0  0  0
   38.1990   24.8400   39.7320 H   0  0  0  0  0  0  0  0  0  0  0  0
   36.3630   23.4240   40.3390 H   0  0  0  0  0  0  0  0  0  0  0  0
   35.4880   24.8790   41.1020 H   0  0  0  0  0  0  0  0  0  0  0  0
   38.1260   23.6030   41.9970 H   0  0  0  0  0  0  0  0  0  0  0  0
   36.6670   24.0000   42.9060 H   0  0  0  0  0  0  0  0  0  0  0  0
   37.1890   26.2560   43.0070 H   0  0  0  0  0  0  0  0  0  0  0  0
   36.2070   29.9280   41.0550 C   0  0  0  0  0  0  0  0  0  0  0  0
   36.1940   28.5380   41.2410 C   0  0  0  0  0  0  0  0  0  0  0  0
   37.3170   27.8150   40.8290 C   0  0  0  0  0  0  0  0  0  0  0  0
   38.3690   28.4950   40.2680 N   0  0  0  0  0  0  0  0  0  0  0  0
   38.3460   29.8440   40.1020 C   0  0  0  0  0  0  0  0  0  0  0  0
   37.2580   30.5550   40.5000 N   0  0  0  0  0  0  0  0  0  0  0  0
   35.2950   30.3830   41.4070 H   0  0  0  0  0  0  0  0  0  0  0  0
   35.3740   27.9870   41.6820 H   0  0  0  0  0  0  0  0  0  0  0  0
   39.1730   30.3750   39.6610 H   0  0  0  0  0  0  0  0  0  0  0  0
   39.5540   26.8500   43.6450 C   0  0  1  0  0  3  0  0  0  0  0  0
   39.2010   25.9960   42.4690 C   0  0  1  0  0  3  0  0  0  0  0  0
   40.0290   24.7870   42.7520 C   0  0  0  0  0  3  0  0  0  0  0  0
   40.2040   24.2570   41.7980 H   0  0  0  0  0  0  0  0  0  0  0  0
   41.2350   25.2700   43.2050 O   0  0  0  0  0  0  0  0  0  0  0  0
   41.0610   26.5560   43.6800 C   0  0  0  0  0  3  0  0  0  0  0  0
   41.5070   26.7200   44.6600 H   0  0  0  0  0  0  0  0  0  0  0  0
   39.3650   28.1910   43.3070 O   0  0  0  0  0  0  0  0  0  0  0  0
   39.8460   28.3590   42.4620 H   0  0  0  0  0  0  0  0  0  0  0  0
  1  5  1  0  0  0  0
  2  3  1  0  0  0  0
  2  1  1  0  0  0  0
  3  9  1  0  0  0  0
  3  4  1  0  0  0  0
  4  5  1  0  0  0  0
  4 11  1  0  0  0  0
  5 23  1  0  0  0  0
  5 12  1  1  0  0  0
  6  2  1  0  0  0  0
  7  2  1  0  0  0  0
  8  3  1  0  0  0  0
 10  4  1  0  0  0  0
 13 14  1  0  0  0  0
 13 19  1  0  0  0  0
 14 20  1  0  0  0  0
 15  1  1  0  0  0  0
 15 14  2  0  0  0  0
 16 15  1  0  0  0  0
 17 16  2  0  0  0  0
 17 18  1  0  0  0  0
 18 13  2  0  0  0  0
 21 17  1  0  0  0  0
 22 29  1  6  0  0  0
 22 27  1  0  0  0  0
 23 24  1  1  0  0  0
 23 22  1  0  0  0  0
 24 26  1  0  0  0  0
 25 24  1  0  0  0  0
 26 27  1  0  0  0  0
 27 28  1  0  0  0  0
 30 29  1  0  0  0  0
M  END
>  <minimizedAffinity>
-4.41468859

$$$$

 OpenBabel03242512493D

 30 32  0  0  1  0  0  0  0  0999 V2000
   36.0070   28.8060   39.9910 N   0  0  0  0  0  0  0  0  0  0  0  0
   34.6510   29.3140   39.8950 C   0  0  0  0  0  0  0  0  0  0  0  0
   34.2770   28.6780   38.5750 C   0  0  0  0  0  0  0  0  0  0  0  0
   35.4580   29.1290   37.7240 C   0  0  0  0  0  0  0  0  0  0  0  0
   36.5940   28.9820   38.6740 C   0  0  1  0  0  0  0  0  0  0  0  0
   34.0250   28.9370   40.7330 H   0  0  0  0  0  0  0  0  0  0  0  0
   34.5930   30.3960   39.7730 H   0  0  0  0  0  0  0  0  0  0  0  0
   33.3150   29.0940   38.2180 H   0  0  0  0  0  0  0  0  0  0  0  0
   34.3030   27.5810   38.6680 H   0  0  0  0  0  0  0  0  0  0  0  0
   35.3100   30.1340   37.3060 H   0  0  0  0  0  0  0  0  0  0  0  0
   35.4930   28.4370   36.8590 H   0  0  0  0  0  0  0  0  0  0  0  0
   37.1530   28.0700   38.4350 H   0  0  0  0  0  0  0  0  0  0  0  0
   37.8080   26.4670   42.2570 C   0  0  0  0  0  0  0  0  0  0  0  0
   37.1110   26.9020   41.1210 C   0  0  0  0  0  0  0  0  0  0  0  0
   36.7130   28.2410   41.0750 C   0  0  0  0  0  0  0  0  0  0  0  0
   37.0200   29.0570   42.1340 N   0  0  0  0  0  0  0  0  0  0  0  0
   37.6970   28.6000   43.2210 C   0  0  0  0  0  0  0  0  0  0  0  0
   38.0890   27.2990   43.2740 N   0  0  0  0  0  0  0  0  0  0  0  0
   38.0660   25.4220   42.1870 H   0  0  0  0  0  0  0  0  0  0  0  0
   36.8610   26.2730   40.2770 H   0  0  0  0  0  0  0  0  0  0  0  0
   37.9370   29.2420   44.0520 H   0  0  0  0  0  0  0  0  0  0  0  0
   38.2320   30.5100   37.4910 C   0  0  1  0  0  3  0  0  0  0  0  0
   37.5460   30.1060   38.7560 C   0  0  1  0  0  3  0  0  0  0  0  0
   36.9860   31.4190   39.1940 C   0  0  0  0  0  3  0  0  0  0  0  0
   36.8210   31.3770   40.2860 H   0  0  0  0  0  0  0  0  0  0  0  0
   37.9780   32.3390   38.9430 O   0  0  0  0  0  0  0  0  0  0  0  0
   38.8370   31.8310   37.9860 C   0  0  0  0  0  3  0  0  0  0  0  0
   39.0520   32.5330   37.1810 H   0  0  0  0  0  0  0  0  0  0  0  0
   39.2670   29.6120   37.2270 O   0  0  0  0  0  0  0  0  0  0  0  0
   39.8200   29.5420   38.0420 H   0  0  0  0  0  0  0  0  0  0  0  0
  1 15  1  0  0  0  0
  2  1  1  0  0  0  0
  2  6  1  0  0  0  0
  3  9  1  0  0  0  0
  3  2  1  0  0  0  0
  4  3  1  0  0  0  0
  4  5  1  0  0  0  0
  5 12  1  6  0  0  0
  5 23  1  0  0  0  0
  5  1  1  0  0  0  0
  7  2  1  0  0  0  0
  8  3  1  0  0  0  0
 10  4  1  0  0  0  0
 11  4  1  0  0  0  0
 13 18  1  0  0  0  0
 14 13  2  0  0  0  0
 15 14  1  0  0  0  0
 15 16  2  0  0  0  0
 16 17  1  0  0  0  0
 17 18  2  0  0  0  0
 17 21  1  0  0  0  0
 19 13  1  0  0  0  0
 20 14  1  0  0  0  0
 22 29  1  1  0  0  0
 22 27  1  0  0  0  0
 22 23  1  0  0  0  0
 23 24  1  6  0  0  0
 24 25  1  0  0  0  0
 26 24  1  0  0  0  0
 27 26  1  0  0  0  0
 28 27  1  0  0  0  0
 29 30  1  0  0  0  0
M  END
>  <minimizedAffinity>
-4.39298058

$$$$

 OpenBabel03242512493D

 30 32  0  0  1  0  0  0  0  0999 V2000
   37.8320   26.6790   41.6430 N   0  0  0  0  0  0  0  0  0  0  0  0
   39.0170   27.0350   42.4020 C   0  0  0  0  0  0  0  0  0  0  0  0
   38.3320   27.4660   43.6800 C   0  0  0  0  0  0  0  0  0  0  0  0
   37.3120   28.4450   43.1120 C   0  0  0  0  0  0  0  0  0  0  0  0
   36.8750   27.7480   41.8710 C   0  0  1  0  0  0  0  0  0  0  0  0
   39.6710   26.1500   42.5570 H   0  0  0  0  0  0  0  0  0  0  0  0
   39.5530   27.8970   42.0040 H   0  0  0  0  0  0  0  0  0  0  0  0
   39.0630   27.9580   44.3500 H   0  0  0  0  0  0  0  0  0  0  0  0
   37.7970   26.6120   44.1230 H   0  0  0  0  0  0  0  0  0  0  0  0
   37.7320   29.4510   42.9730 H   0  0  0  0  0  0  0  0  0  0  0  0
   36.5220   28.5450   43.8820 H   0  0  0  0  0  0  0  0  0  0  0  0
   35.8960   27.2860   42.0380 H   0  0  0  0  0  0  0  0  0  0  0  0
   36.4420   23.5180   40.2570 C   0  0  0  0  0  0  0  0  0  0  0  0
   36.6250   24.5750   41.1600 C   0  0  0  0  0  0  0  0  0  0  0  0
   37.5540   25.5630   40.8250 C   0  0  0  0  0  0  0  0  0  0  0  0
   38.2360   25.4530   39.6390 N   0  0  0  0  0  0  0  0  0  0  0  0
   38.0340   24.4130   38.7880 C   0  0  0  0  0  0  0  0  0  0  0  0
   37.1310   23.4470   39.1060 N   0  0  0  0  0  0  0  0  0  0  0  0
   35.7060   22.8150   40.6130 H   0  0  0  0  0  0  0  0  0  0  0  0
   36.0950   24.6770   42.0970 H   0  0  0  0  0  0  0  0  0  0  0  0
   38.5710   24.3280   37.8580 H   0  0  0  0  0  0  0  0  0  0  0  0
   35.8560   29.7100   40.6330 C   0  0  1  0  0  3  0  0  0  0  0  0
   36.8080   28.5560   40.6390 C   0  0  1  0  0  3  0  0  0  0  0  0
   38.0680   29.2400   40.2240 C   0  0  0  0  0  3  0  0  0  0  0  0
   38.7430   28.4840   39.7830 H   0  0  0  0  0  0  0  0  0  0  0  0
   37.6960   30.1170   39.2300 O   0  0  0  0  0  0  0  0  0  0  0  0
   36.3440   30.3860   39.3440 C   0  0  0  0  0  3  0  0  0  0  0  0
   36.1090   31.4490   39.3020 H   0  0  0  0  0  0  0  0  0  0  0  0
   34.5620   29.2310   40.4280 O   0  0  0  0  0  0  0  0  0  0  0  0
   34.5780   28.6510   39.6290 H   0  0  0  0  0  0  0  0  0  0  0  0
  1  5  1  0  0  0  0
  1  2  1  0  0  0  0
  2  6  1  0  0  0  0
  2  3  1  0  0  0  0
  3  9  1  0  0  0  0
  3  8  1  0  0  0  0
  4  3  1  0  0  0  0
  4 11  1  0  0  0  0
  5 12  1  1  0  0  0
  5  4  1  0  0  0  0
  7  2  1  0  0  0  0
 10  4  1  0  0  0  0
 13 19  1  0  0  0  0
 13 14  1  0  0  0  0
 14 20  1  0  0  0  0
 15 14  2  0  0  0  0
 15  1  1  0  0  0  0
 16 15  1  0  0  0  0
 17 18  1  0  0  0  0
 17 16  2  0  0  0  0
 18 13  2  0  0  0  0
 21 17  1  0  0  0  0
 22 29  1  6  0  0  0
 22 23  1  0  0  0  0
 23 24  1  1  0  0  0
 23  5  1  0  0  0  0
 25 24  1  0  0  0  0
 26 27  1  0  0  0  0
 26 24  1  0  0  0  0
 27 22  1  0  0  0  0
 28 27  1  0  0  0  0
 30 29  1  0  0  0  0
M  END
>  <minimizedAffinity>
-4.37669325

$$$$
