
 OpenBabel03242513203D

 23 24  0  0  1  0  0  0  0  0999 V2000
   47.0520   31.1680   45.8910 C   0  0  0  0  0  0  0  0  0  0  0  0
   47.1590   30.1670   45.4690 H   0  0  0  0  0  0  0  0  0  0  0  0
   47.8640   31.2700   46.6580 H   0  0  0  0  0  0  0  0  0  0  0  0
   45.9750   31.3130   49.0100 C   0  0  2  0  0  0  0  0  0  0  0  0
   46.0320   32.2470   47.8220 C   0  0  0  0  0  0  0  0  0  0  0  0
   45.2690   33.0370   47.9620 H   0  0  0  0  0  0  0  0  0  0  0  0
   45.7650   31.3440   46.6710 C   0  0  2  0  0  0  0  0  0  0  0  0
   45.3930   30.0950   47.1210 O   0  0  0  0  0  0  0  0  0  0  0  0
   45.1120   30.2000   48.4750 C   0  0  0  0  0  0  0  0  0  0  0  0
   44.0550   30.5300   48.5990 H   0  0  0  0  0  0  0  0  0  0  0  0
   45.3150   31.9090   50.1060 O   0  0  0  0  0  0  0  0  0  0  0  0
   44.9310   31.2270   50.7000 H   0  0  0  0  0  0  0  0  0  0  0  0
   47.8120   31.9630   43.7290 C   0  0  0  0  0  0  0  0  0  0  0  0
   47.1960   32.2290   44.8450 C   0  0  0  0  0  0  0  0  0  0  0  0
   47.9220   35.2250   42.0240 C   0  0  0  0  0  0  0  0  0  0  0  0
   48.2430   34.8650   40.6990 C   0  0  0  0  0  0  0  0  0  0  0  0
   48.4090   33.5130   40.4480 C   0  0  0  0  0  0  0  0  0  0  0  0
   48.2590   32.6200   41.4590 N   0  0  0  0  0  0  0  0  0  0  0  0
   47.9510   32.9970   42.7150 C   0  0  0  0  0  0  0  0  0  0  0  0
   47.7870   34.2860   42.9840 N   0  0  0  0  0  0  0  0  0  0  0  0
   47.7800   36.2780   42.2770 H   0  0  0  0  0  0  0  0  0  0  0  0
   48.3520   35.6070   39.9290 H   0  0  0  0  0  0  0  0  0  0  0  0
   48.6560   33.1510   39.4620 H   0  0  0  0  0  0  0  0  0  0  0  0
  1  3  1  0  0  0  0
  2  1  1  0  0  0  0
  4 11  1  1  0  0  0
  5  6  1  0  0  0  0
  5  4  1  0  0  0  0
  7  1  1  1  0  0  0
  7  8  1  0  0  0  0
  7  5  1  0  0  0  0
  8  9  1  0  0  0  0
  9 10  1  0  0  0  0
  9  4  1  0  0  0  0
 11 12  1  0  0  0  0
 13 14  2  0  0  0  0
 14  1  1  0  0  0  0
 15 21  1  0  0  0  0
 15 20  1  0  0  0  0
 16 15  2  0  0  0  0
 17 16  1  0  0  0  0
 17 18  2  0  0  0  0
 18 19  1  0  0  0  0
 19 20  2  0  0  0  0
 19 13  1  0  0  0  0
 22 16  1  0  0  0  0
 23 17  1  0  0  0  0
M  END
>  <minimizedAffinity>
-4.25131321

>  <minimizedRMSD>
3.49923658

$$$$
