
 OpenBabel03252501013D

 25 27  0  0  1  0  0  0  0  0999 V2000
   47.0780   34.9010   41.6660 C   0  0  1  0  0  0  0  0  0  0  0  0
   48.4490   35.5180   41.8290 C   0  0  0  0  0  0  0  0  0  0  0  0
   48.2310   34.0100   41.6180 C   0  0  2  0  0  0  0  0  0  0  0  0
   46.5220   35.1460   40.7400 H   0  0  0  0  0  0  0  0  0  0  0  0
   48.7450   36.1550   40.9950 H   0  0  0  0  0  0  0  0  0  0  0  0
   48.7390   35.8830   42.8310 H   0  0  0  0  0  0  0  0  0  0  0  0
   48.4250   33.4480   42.5860 H   0  0  0  0  0  0  0  0  0  0  0  0
   44.6150   35.8620   44.3530 C   0  0  0  0  0  0  0  0  0  0  0  0
   45.3100   35.9360   43.1330 C   0  0  0  0  0  0  0  0  0  0  0  0
   46.2660   34.9550   42.9350 C   0  0  0  0  0  0  0  0  0  0  0  0
   46.4770   33.9970   43.9010 N   0  0  0  0  0  0  0  0  0  0  0  0
   45.7800   33.9700   45.0580 C   0  0  0  0  0  0  0  0  0  0  0  0
   44.8430   34.9210   45.2670 N   0  0  0  0  0  0  0  0  0  0  0  0
   43.8530   36.6090   44.5610 H   0  0  0  0  0  0  0  0  0  0  0  0
   45.1280   36.6950   42.3880 H   0  0  0  0  0  0  0  0  0  0  0  0
   46.1050   33.1390   45.6690 H   0  0  0  0  0  0  0  0  0  0  0  0
   47.5710   33.1590   39.4140 C   0  0  2  0  0  3  0  0  0  0  0  0
   48.7200   33.3480   40.3810 C   0  0  2  0  0  3  0  0  0  0  0  0
   49.2240   31.9400   40.5350 C   0  0  0  0  0  3  0  0  0  0  0  0
   48.6940   31.3200   41.2620 H   0  0  0  0  0  0  0  0  0  0  0  0
   49.0360   31.3180   39.3040 O   0  0  0  0  0  0  0  0  0  0  0  0
   47.9680   31.9240   38.6770 C   0  0  0  0  0  3  0  0  0  0  0  0
   47.1020   31.2220   38.7150 H   0  0  0  0  0  0  0  0  0  0  0  0
   47.4390   34.2360   38.5540 O   0  0  0  0  0  0  0  0  0  0  0  0
   46.7690   33.9750   37.8730 H   0  0  0  0  0  0  0  0  0  0  0  0
  1  4  1  6  0  0  0
  1  2  1  0  0  0  0
  1 10  1  0  0  0  0
  2  6  1  0  0  0  0
  3  1  1  0  0  0  0
  3  2  1  0  0  0  0
  3  7  1  1  0  0  0
  5  2  1  0  0  0  0
  8 14  1  0  0  0  0
  8 13  1  0  0  0  0
  9  8  2  0  0  0  0
 10  9  1  0  0  0  0
 10 11  2  0  0  0  0
 11 12  1  0  0  0  0
 12 13  2  0  0  0  0
 12 16  1  0  0  0  0
 15  9  1  0  0  0  0
 17 24  1  6  0  0  0
 17 18  1  0  0  0  0
 18 19  1  1  0  0  0
 18  3  1  0  0  0  0
 19 20  1  0  0  0  0
 21 19  1  0  0  0  0
 22 23  1  0  0  0  0
 22 21  1  0  0  0  0
 22 17  1  0  0  0  0
 25 24  1  0  0  0  0
M  END
>  <minimizedAffinity>
-4.61574602

>  <minimizedRMSD>
0.290219098

$$$$
