
 OpenBabel03242523463D

 19 20  0  0  1  0  0  0  0  0999 V2000
   44.8340   35.0530   44.4450 C   0  0  0  0  0  0  0  0  0  0  0  0
   45.5590   34.8880   43.2470 C   0  0  0  0  0  0  0  0  0  0  0  0
   46.6530   34.0070   43.2920 C   0  0  0  0  0  0  0  0  0  0  0  0
   46.9430   33.3770   44.4590 N   0  0  0  0  0  0  0  0  0  0  0  0
   46.2190   33.5700   45.5740 C   0  0  0  0  0  0  0  0  0  0  0  0
   45.1740   34.3960   45.5760 N   0  0  0  0  0  0  0  0  0  0  0  0
   45.3130   35.3910   42.3500 H   0  0  0  0  0  0  0  0  0  0  0  0
   46.4870   33.0480   46.4790 H   0  0  0  0  0  0  0  0  0  0  0  0
   47.7270   35.0010   41.2770 C   0  0  2  0  0  3  0  0  0  0  0  0
   47.4790   33.7600   42.1010 C   0  0  2  0  0  3  0  0  0  0  0  0
   46.7910   32.9110   41.0410 C   0  0  0  0  0  3  0  0  0  0  0  0
   45.7580   33.3170   40.9550 H   0  0  0  0  0  0  0  0  0  0  0  0
   47.5490   33.1130   39.9030 O   0  0  0  0  0  0  0  0  0  0  0  0
   48.1460   34.3510   39.9620 C   0  0  0  0  0  3  0  0  0  0  0  0
   49.2560   34.2400   40.0140 H   0  0  0  0  0  0  0  0  0  0  0  0
   48.7080   35.7980   41.8280 O   0  0  0  0  0  0  0  0  0  0  0  0
   48.6050   36.7470   41.6260 H   0  0  0  0  0  0  0  0  0  0  0  0
   43.7690   35.9050   44.4170 O   0  0  0  0  0  0  0  0  0  0  0  0
   43.8480   36.7720   44.9350 H   0  0  0  0  0  0  0  0  0  0  0  0
  1  6  1  0  0  0  0
  2  3  1  0  0  0  0
  2  1  2  0  0  0  0
  3  4  2  0  0  0  0
  4  5  1  0  0  0  0
  5  6  2  0  0  0  0
  5  8  1  0  0  0  0
  7  2  1  0  0  0  0
  9 16  1  1  0  0  0
  9 10  1  0  0  0  0
 10  3  1  1  0  0  0
 11 10  1  0  0  0  0
 12 11  1  0  0  0  0
 13 14  1  0  0  0  0
 13 11  1  0  0  0  0
 14 15  1  0  0  0  0
 14  9  1  0  0  0  0
 17 16  1  0  0  0  0
 18  1  1  0  0  0  0
 18 19  1  0  0  0  0
M  END
>  <minimizedAffinity>
-4.37305212

>  <minimizedRMSD>
1.63527071

$$$$
