
 OpenBabel03252505303D

 27 28  0  0  1  0  0  0  0  0999 V2000
   46.7840   31.8860   48.6890 O   0  0  0  0  0  0  0  0  0  0  0  0
   45.8130   32.1350   47.5240 P   0  0  1  0  0  0  0  0  0  0  0  0
   44.4680   33.0040   48.0160 O   0  0  0  0  0  0  0  0  0  0  0  0
   44.7080   33.9390   48.3020 H   0  0  0  0  0  0  0  0  0  0  0  0
   46.6810   32.9700   46.3240 O   0  0  0  0  0  0  0  0  0  0  0  0
   44.5570   35.4450   44.9410 C   0  0  0  0  0  0  0  0  0  0  0  0
   44.9880   35.6000   43.6000 C   0  0  0  0  0  0  0  0  0  0  0  0
   46.0750   34.7750   43.2150 C   0  0  0  0  0  0  0  0  0  0  0  0
   46.5990   33.9280   44.1390 N   0  0  0  0  0  0  0  0  0  0  0  0
   46.1430   33.8350   45.3880 C   0  0  0  0  0  0  0  0  0  0  0  0
   45.1160   34.5970   45.7950 N   0  0  0  0  0  0  0  0  0  0  0  0
   43.7180   36.0870   45.2280 H   0  0  0  0  0  0  0  0  0  0  0  0
   44.5200   36.2980   42.9190 H   0  0  0  0  0  0  0  0  0  0  0  0
   46.4510   34.8450   42.2030 H   0  0  0  0  0  0  0  0  0  0  0  0
   45.3200   30.6260   46.9870 O   0  0  0  0  0  0  0  0  0  0  0  0
   45.8310   29.6700   47.8350 C   0  0  0  0  0  0  0  0  0  0  0  0
   45.2370   29.6880   48.7690 H   0  0  0  0  0  0  0  0  0  0  0  0
   46.8640   29.9630   48.1090 H   0  0  0  0  0  0  0  0  0  0  0  0
   45.5190   26.1380   48.1910 C   0  0  1  0  0  3  0  0  0  0  0  0
   44.8250   27.4340   47.8560 C   0  0  0  0  0  3  0  0  0  0  0  0
   43.9000   27.3020   47.2560 H   0  0  0  0  0  0  0  0  0  0  0  0
   45.8690   28.2900   47.2200 C   0  0  2  0  0  3  0  0  0  0  0  0
   47.1050   27.7170   47.4960 O   0  0  0  0  0  0  0  0  0  0  0  0
   46.9130   26.3800   47.7130 C   0  0  0  0  0  3  0  0  0  0  0  0
   47.0710   25.8380   46.7390 H   0  0  0  0  0  0  0  0  0  0  0  0
   45.5200   25.8660   49.5710 O   0  0  0  0  0  0  0  0  0  0  0  0
   44.6130   26.0660   49.9600 H   0  0  0  0  0  0  0  0  0  0  0  0
  2  3  1  0  0  0  0
  2  1  2  1  0  0  0
  3  4  1  0  0  0  0
  5  2  1  0  0  0  0
  6 12  1  0  0  0  0
  6 11  1  0  0  0  0
  7  6  2  0  0  0  0
  8  7  1  0  0  0  0
  8  9  2  0  0  0  0
  9 10  1  0  0  0  0
 10 11  2  0  0  0  0
 10  5  1  0  0  0  0
 13  7  1  0  0  0  0
 14  8  1  0  0  0  0
 15  2  1  0  0  0  0
 15 16  1  0  0  0  0
 16 18  1  0  0  0  0
 16 17  1  0  0  0  0
 19 26  1  1  0  0  0
 20 19  1  0  0  0  0
 21 20  1  0  0  0  0
 22 23  1  0  0  0  0
 22 16  1  1  0  0  0
 22 20  1  0  0  0  0
 23 24  1  0  0  0  0
 24 19  1  0  0  0  0
 25 24  1  0  0  0  0
 26 27  1  0  0  0  0
M  END
>  <minimizedAffinity>
-4.76931763

>  <minimizedRMSD>
1.69097686

$$$$
