
 OpenBabel03242520383D

 35 38  0  0  1  0  0  0  0  0999 V2000
   36.8930   27.4380   42.8890 C   0  0  0  0  0  0  0  0  0  0  0  0
   37.0830   26.4870   41.8170 C   0  0  0  0  0  0  0  0  0  0  0  0
   37.4490   26.9900   40.5940 C   0  0  0  0  0  0  0  0  0  0  0  0
   37.6130   28.3260   40.4350 N   0  0  0  0  0  0  0  0  0  0  0  0
   37.4260   29.1880   41.4580 C   0  0  0  0  0  0  0  0  0  0  0  0
   37.0650   28.7360   42.6850 N   0  0  0  0  0  0  0  0  0  0  0  0
   36.6050   27.0590   43.8590 H   0  0  0  0  0  0  0  0  0  0  0  0
   37.5980   26.3140   39.7790 H   0  0  0  0  0  0  0  0  0  0  0  0
   36.8760   25.0330   42.0220 C   0  0  1  0  0  0  0  0  0  0  0  0
   37.4590   24.0590   41.1520 C   0  0  0  0  0  0  0  0  0  0  0  0
   38.0930   24.2010   42.4740 C   0  0  1  0  0  0  0  0  0  0  0  0
   35.9950   24.8290   42.6720 H   0  0  0  0  0  0  0  0  0  0  0  0
   36.8340   23.1480   40.9200 H   0  0  0  0  0  0  0  0  0  0  0  0
   38.0590   24.3510   40.2840 H   0  0  0  0  0  0  0  0  0  0  0  0
   37.8970   23.3380   43.1710 H   0  0  0  0  0  0  0  0  0  0  0  0
   39.4050   24.8430   42.6970 C   0  0  0  0  0  0  0  0  0  0  0  0
   39.3440   25.8200   43.6780 F   0  0  0  0  0  0  0  0  0  0  0  0
   39.9180   25.4030   41.5270 F   0  0  0  0  0  0  0  0  0  0  0  0
   40.2640   23.8700   43.1590 F   0  0  0  0  0  0  0  0  0  0  0  0
   37.6260   30.6480   41.2090 C   0  0  2  0  0  0  0  0  0  0  0  0
   36.4100   31.3120   40.5910 C   0  0  0  0  0  0  0  0  0  0  0  0
   37.6810   31.1540   39.8070 C   0  0  1  0  0  0  0  0  0  0  0  0
   38.1980   31.1760   41.9780 H   0  0  0  0  0  0  0  0  0  0  0  0
   35.5780   30.6890   40.2260 H   0  0  0  0  0  0  0  0  0  0  0  0
   36.1190   32.3270   40.9120 H   0  0  0  0  0  0  0  0  0  0  0  0
   37.7650   30.3390   39.0480 H   0  0  0  0  0  0  0  0  0  0  0  0
   39.7690   32.1650   38.8300 C   0  0  1  0  0  3  0  0  0  0  0  0
   38.4750   32.3980   39.6190 C   0  0  2  0  0  3  0  0  0  0  0  0
   39.1010   32.9060   40.9030 C   0  0  0  0  0  3  0  0  0  0  0  0
   38.3670   33.4000   41.5710 H   0  0  0  0  0  0  0  0  0  0  0  0
   40.1680   33.6970   40.5610 O   0  0  0  0  0  0  0  0  0  0  0  0
   40.4810   33.4650   39.2300 C   0  0  0  0  0  3  0  0  0  0  0  0
   39.9710   34.2720   38.6550 H   0  0  0  0  0  0  0  0  0  0  0  0
   40.5120   31.1270   39.3470 O   0  0  0  0  0  0  0  0  0  0  0  0
   40.2650   30.2390   38.9790 H   0  0  0  0  0  0  0  0  0  0  0  0
  1  7  1  0  0  0  0
  2  9  1  0  0  0  0
  2  1  2  0  0  0  0
  3  2  1  0  0  0  0
  4  3  2  0  0  0  0
  4  5  1  0  0  0  0
  5  6  2  0  0  0  0
  6  1  1  0  0  0  0
  8  3  1  0  0  0  0
  9 11  1  0  0  0  0
  9 12  1  1  0  0  0
 10  9  1  0  0  0  0
 10 11  1  0  0  0  0
 11 16  1  0  0  0  0
 11 15  1  1  0  0  0
 13 10  1  0  0  0  0
 14 10  1  0  0  0  0
 16 19  1  0  0  0  0
 16 17  1  0  0  0  0
 18 16  1  0  0  0  0
 20  5  1  0  0  0  0
 20 23  1  1  0  0  0
 21 25  1  0  0  0  0
 21 20  1  0  0  0  0
 22 26  1  6  0  0  0
 22 21  1  0  0  0  0
 22 20  1  0  0  0  0
 24 21  1  0  0  0  0
 27 32  1  0  0  0  0
 27 34  1  1  0  0  0
 27 28  1  0  0  0  0
 28 22  1  0  0  0  0
 28 29  1  1  0  0  0
 29 30  1  0  0  0  0
 31 29  1  0  0  0  0
 32 31  1  0  0  0  0
 33 32  1  0  0  0  0
 35 34  1  0  0  0  0
M  END
>  <minimizedAffinity>
-5.43079996

$$$$

 OpenBabel03242520383D

 35 38  0  0  1  0  0  0  0  0999 V2000
   38.2120   30.1900   40.8830 C   0  0  0  0  0  0  0  0  0  0  0  0
   37.0330   30.9520   40.5360 C   0  0  0  0  0  0  0  0  0  0  0  0
   35.8300   30.2930   40.5780 C   0  0  0  0  0  0  0  0  0  0  0  0
   35.7870   28.9860   40.9320 N   0  0  0  0  0  0  0  0  0  0  0  0
   36.9080   28.3020   41.2500 C   0  0  0  0  0  0  0  0  0  0  0  0
   38.1190   28.9120   41.2230 N   0  0  0  0  0  0  0  0  0  0  0  0
   39.1670   30.6920   40.8560 H   0  0  0  0  0  0  0  0  0  0  0  0
   34.9390   30.8280   40.3270 H   0  0  0  0  0  0  0  0  0  0  0  0
   37.1200   32.3770   40.1340 C   0  0  1  0  0  0  0  0  0  0  0  0
   38.3590   32.9730   39.7400 C   0  0  0  0  0  0  0  0  0  0  0  0
   37.4120   32.6770   38.6500 C   0  0  1  0  0  0  0  0  0  0  0  0
   36.2410   32.9600   40.4890 H   0  0  0  0  0  0  0  0  0  0  0  0
   38.5330   34.0410   40.0630 H   0  0  0  0  0  0  0  0  0  0  0  0
   39.2960   32.4070   39.7450 H   0  0  0  0  0  0  0  0  0  0  0  0
   36.9280   33.5910   38.2050 H   0  0  0  0  0  0  0  0  0  0  0  0
   37.5880   31.5780   37.6790 C   0  0  0  0  0  0  0  0  0  0  0  0
   36.5170   30.7000   37.6890 F   0  0  0  0  0  0  0  0  0  0  0  0
   38.7650   30.8630   37.9050 F   0  0  0  0  0  0  0  0  0  0  0  0
   37.6260   32.1440   36.4230 F   0  0  0  0  0  0  0  0  0  0  0  0
   36.7840   26.8630   41.6320 C   0  0  2  0  0  0  0  0  0  0  0  0
   36.9620   26.6320   43.1210 C   0  0  0  0  0  0  0  0  0  0  0  0
   37.9800   26.1310   42.1370 C   0  0  1  0  0  0  0  0  0  0  0  0
   36.0200   26.3020   41.0860 H   0  0  0  0  0  0  0  0  0  0  0  0
   37.3210   27.4550   43.7580 H   0  0  0  0  0  0  0  0  0  0  0  0
   36.3290   25.8900   43.6380 H   0  0  0  0  0  0  0  0  0  0  0  0
   38.9340   26.6950   41.9940 H   0  0  0  0  0  0  0  0  0  0  0  0
   39.0250   24.2170   40.8780 C   0  0  1  0  0  3  0  0  0  0  0  0
   37.9670   24.6630   41.8960 C   0  0  2  0  0  3  0  0  0  0  0  0
   36.7390   24.1940   41.1400 C   0  0  0  0  0  3  0  0  0  0  0  0
   35.8320   24.1610   41.7760 H   0  0  0  0  0  0  0  0  0  0  0  0
   37.0490   22.9980   40.5440 O   0  0  0  0  0  0  0  0  0  0  0  0
   38.4270   22.8400   40.5610 C   0  0  0  0  0  3  0  0  0  0  0  0
   38.6470   22.2090   41.4540 H   0  0  0  0  0  0  0  0  0  0  0  0
   38.9690   24.9550   39.7150 O   0  0  0  0  0  0  0  0  0  0  0  0
   39.5130   25.7840   39.7440 H   0  0  0  0  0  0  0  0  0  0  0  0
  1  6  1  0  0  0  0
  2  3  1  0  0  0  0
  2  1  2  0  0  0  0
  3  4  2  0  0  0  0
  4  5  1  0  0  0  0
  5 20  1  0  0  0  0
  6  5  2  0  0  0  0
  7  1  1  0  0  0  0
  8  3  1  0  0  0  0
  9 12  1  1  0  0  0
  9  2  1  0  0  0  0
 10 14  1  0  0  0  0
 10 13  1  0  0  0  0
 10  9  1  0  0  0  0
 11 15  1  6  0  0  0
 11 10  1  0  0  0  0
 11  9  1  0  0  0  0
 16 17  1  0  0  0  0
 16 18  1  0  0  0  0
 16 11  1  0  0  0  0
 19 16  1  0  0  0  0
 20 23  1  6  0  0  0
 20 22  1  0  0  0  0
 20 21  1  0  0  0  0
 21 25  1  0  0  0  0
 21 24  1  0  0  0  0
 22 26  1  6  0  0  0
 22 21  1  0  0  0  0
 27 34  1  6  0  0  0
 27 28  1  0  0  0  0
 28 29  1  6  0  0  0
 28 22  1  0  0  0  0
 29 30  1  0  0  0  0
 31 32  1  0  0  0  0
 31 29  1  0  0  0  0
 32 27  1  0  0  0  0
 32 33  1  0  0  0  0
 34 35  1  0  0  0  0
M  END
>  <minimizedAffinity>
-5.38615894

$$$$

 OpenBabel03242520383D

 35 38  0  0  1  0  0  0  0  0999 V2000
   39.0880   30.4950   41.5750 C   0  0  0  0  0  0  0  0  0  0  0  0
   38.2660   31.5500   41.0290 C   0  0  0  0  0  0  0  0  0  0  0  0
   36.9610   31.2390   40.7400 C   0  0  0  0  0  0  0  0  0  0  0  0
   36.5000   29.9850   40.9680 N   0  0  0  0  0  0  0  0  0  0  0  0
   37.2950   29.0210   41.4790 C   0  0  0  0  0  0  0  0  0  0  0  0
   38.5910   29.2840   41.7810 N   0  0  0  0  0  0  0  0  0  0  0  0
   40.1180   30.7220   41.8090 H   0  0  0  0  0  0  0  0  0  0  0  0
   36.3250   31.9970   40.3340 H   0  0  0  0  0  0  0  0  0  0  0  0
   38.8100   32.9060   40.7740 C   0  0  1  0  0  0  0  0  0  0  0  0
   40.2170   33.1500   40.7010 C   0  0  0  0  0  0  0  0  0  0  0  0
   39.4980   33.1490   39.4150 C   0  0  1  0  0  0  0  0  0  0  0  0
   38.0580   33.7000   40.9820 H   0  0  0  0  0  0  0  0  0  0  0  0
   40.5870   34.1230   41.1400 H   0  0  0  0  0  0  0  0  0  0  0  0
   40.9480   32.3500   40.8570 H   0  0  0  0  0  0  0  0  0  0  0  0
   39.3820   34.1700   38.9540 H   0  0  0  0  0  0  0  0  0  0  0  0
   39.5960   32.0650   38.4150 C   0  0  0  0  0  0  0  0  0  0  0  0
   38.3490   31.6420   37.9850 F   0  0  0  0  0  0  0  0  0  0  0  0
   40.3070   30.9680   38.9000 F   0  0  0  0  0  0  0  0  0  0  0  0
   40.2400   32.5830   37.3130 F   0  0  0  0  0  0  0  0  0  0  0  0
   36.7170   27.6620   41.7050 C   0  0  2  0  0  0  0  0  0  0  0  0
   36.5760   27.3190   43.1770 C   0  0  0  0  0  0  0  0  0  0  0  0
   37.5640   26.5930   42.3100 C   0  0  1  0  0  0  0  0  0  0  0  0
   35.9290   27.3690   41.0050 H   0  0  0  0  0  0  0  0  0  0  0  0
   37.0380   27.9740   43.9320 H   0  0  0  0  0  0  0  0  0  0  0  0
   35.6860   26.7680   43.5260 H   0  0  0  0  0  0  0  0  0  0  0  0
   38.6470   26.8660   42.3580 H   0  0  0  0  0  0  0  0  0  0  0  0
   38.3940   24.2630   41.8430 C   0  0  1  0  0  3  0  0  0  0  0  0
   37.1860   25.2040   41.9350 C   0  0  2  0  0  3  0  0  0  0  0  0
   36.7150   25.0820   40.4990 C   0  0  0  0  0  3  0  0  0  0  0  0
   35.6870   25.4680   40.3520 H   0  0  0  0  0  0  0  0  0  0  0  0
   36.8820   23.7750   40.1170 O   0  0  0  0  0  0  0  0  0  0  0  0
   37.7150   23.1500   41.0320 C   0  0  0  0  0  3  0  0  0  0  0  0
   37.0390   22.6310   41.7500 H   0  0  0  0  0  0  0  0  0  0  0  0
   39.3950   24.7810   41.0510 O   0  0  0  0  0  0  0  0  0  0  0  0
   40.0320   25.3610   41.5430 H   0  0  0  0  0  0  0  0  0  0  0  0
  1  6  1  0  0  0  0
  1  7  1  0  0  0  0
  2  1  2  0  0  0  0
  3  4  2  0  0  0  0
  3  2  1  0  0  0  0
  4  5  1  0  0  0  0
  5 20  1  0  0  0  0
  5  6  2  0  0  0  0
  8  3  1  0  0  0  0
  9 12  1  1  0  0  0
  9  2  1  0  0  0  0
 10  9  1  0  0  0  0
 10 14  1  0  0  0  0
 10 13  1  0  0  0  0
 11 15  1  6  0  0  0
 11 10  1  0  0  0  0
 11  9  1  0  0  0  0
 16 18  1  0  0  0  0
 16 11  1  0  0  0  0
 17 16  1  0  0  0  0
 19 16  1  0  0  0  0
 20 23  1  6  0  0  0
 20 22  1  0  0  0  0
 20 21  1  0  0  0  0
 21 25  1  0  0  0  0
 21 24  1  0  0  0  0
 22 26  1  1  0  0  0
 22 21  1  0  0  0  0
 27 34  1  6  0  0  0
 27 28  1  0  0  0  0
 28 29  1  6  0  0  0
 28 22  1  0  0  0  0
 30 29  1  0  0  0  0
 31 29  1  0  0  0  0
 31 32  1  0  0  0  0
 32 33  1  0  0  0  0
 32 27  1  0  0  0  0
 34 35  1  0  0  0  0
M  END
>  <minimizedAffinity>
-5.20246124

$$$$

 OpenBabel03242520383D

 35 38  0  0  1  0  0  0  0  0999 V2000
   36.5550   31.1200   40.8020 C   0  0  0  0  0  0  0  0  0  0  0  0
   37.3950   31.2720   39.6360 C   0  0  0  0  0  0  0  0  0  0  0  0
   37.9250   30.1280   39.0940 C   0  0  0  0  0  0  0  0  0  0  0  0
   37.6520   28.9260   39.6560 N   0  0  0  0  0  0  0  0  0  0  0  0
   36.8630   28.8180   40.7480 C   0  0  0  0  0  0  0  0  0  0  0  0
   36.3170   29.9220   41.3160 N   0  0  0  0  0  0  0  0  0  0  0  0
   36.1290   32.0090   41.2410 H   0  0  0  0  0  0  0  0  0  0  0  0
   38.5510   30.2060   38.2310 H   0  0  0  0  0  0  0  0  0  0  0  0
   37.6870   32.6070   39.0580 C   0  0  1  0  0  0  0  0  0  0  0  0
   37.5950   33.8010   39.8400 C   0  0  0  0  0  0  0  0  0  0  0  0
   38.9590   33.3270   39.5500 C   0  0  1  0  0  0  0  0  0  0  0  0
   37.6460   32.5940   37.9460 H   0  0  0  0  0  0  0  0  0  0  0  0
   37.1930   34.7190   39.3180 H   0  0  0  0  0  0  0  0  0  0  0  0
   37.2790   33.7790   40.8880 H   0  0  0  0  0  0  0  0  0  0  0  0
   39.5140   33.9600   38.8010 H   0  0  0  0  0  0  0  0  0  0  0  0
   39.8450   32.6950   40.5500 C   0  0  0  0  0  0  0  0  0  0  0  0
   40.4670   31.5630   40.0500 F   0  0  0  0  0  0  0  0  0  0  0  0
   39.1600   32.3610   41.7180 F   0  0  0  0  0  0  0  0  0  0  0  0
   40.8420   33.6000   40.8420 F   0  0  0  0  0  0  0  0  0  0  0  0
   36.6060   27.4590   41.3120 C   0  0  2  0  0  0  0  0  0  0  0  0
   37.2530   27.2530   42.6700 C   0  0  0  0  0  0  0  0  0  0  0  0
   37.7370   26.4990   41.4640 C   0  0  1  0  0  0  0  0  0  0  0  0
   35.6040   27.0600   41.1250 H   0  0  0  0  0  0  0  0  0  0  0  0
   37.9680   28.0000   43.0480 H   0  0  0  0  0  0  0  0  0  0  0  0
   36.7130   26.6920   43.4520 H   0  0  0  0  0  0  0  0  0  0  0  0
   38.6680   26.8300   40.9420 H   0  0  0  0  0  0  0  0  0  0  0  0
   38.5580   24.1310   41.2200 C   0  0  1  0  0  3  0  0  0  0  0  0
   37.3540   25.0620   41.4120 C   0  0  2  0  0  3  0  0  0  0  0  0
   36.5990   24.6920   40.1500 C   0  0  0  0  0  3  0  0  0  0  0  0
   35.5460   25.0370   40.1650 H   0  0  0  0  0  0  0  0  0  0  0  0
   36.7420   23.3410   39.9610 O   0  0  0  0  0  0  0  0  0  0  0  0
   37.7770   22.8900   40.7680 C   0  0  0  0  0  3  0  0  0  0  0  0
   37.2900   22.4940   41.6890 H   0  0  0  0  0  0  0  0  0  0  0  0
   39.3460   24.5170   40.1580 O   0  0  0  0  0  0  0  0  0  0  0  0
   40.0440   25.1790   40.4020 H   0  0  0  0  0  0  0  0  0  0  0  0
  1  7  1  0  0  0  0
  1  6  1  0  0  0  0
  2  1  2  0  0  0  0
  3  2  1  0  0  0  0
  3  4  2  0  0  0  0
  4  5  1  0  0  0  0
  5 20  1  0  0  0  0
  5  6  2  0  0  0  0
  8  3  1  0  0  0  0
  9 12  1  6  0  0  0
  9 11  1  0  0  0  0
  9  2  1  0  0  0  0
  9 10  1  0  0  0  0
 10 14  1  0  0  0  0
 11 15  1  6  0  0  0
 11 10  1  0  0  0  0
 11 16  1  0  0  0  0
 13 10  1  0  0  0  0
 16 19  1  0  0  0  0
 16 18  1  0  0  0  0
 17 16  1  0  0  0  0
 20 23  1  6  0  0  0
 20 22  1  0  0  0  0
 20 21  1  0  0  0  0
 21 24  1  0  0  0  0
 21 25  1  0  0  0  0
 22 26  1  6  0  0  0
 22 21  1  0  0  0  0
 27 34  1  6  0  0  0
 27 28  1  0  0  0  0
 28 29  1  6  0  0  0
 28 22  1  0  0  0  0
 29 30  1  0  0  0  0
 31 29  1  0  0  0  0
 31 32  1  0  0  0  0
 32 27  1  0  0  0  0
 32 33  1  0  0  0  0
 34 35  1  0  0  0  0
M  END
>  <minimizedAffinity>
-5.17225456

$$$$

 OpenBabel03242520383D

 35 38  0  0  1  0  0  0  0  0999 V2000
   37.1770   26.8680   40.8840 C   0  0  0  0  0  0  0  0  0  0  0  0
   37.6260   25.8110   41.7620 C   0  0  0  0  0  0  0  0  0  0  0  0
   38.7110   26.0810   42.5580 C   0  0  0  0  0  0  0  0  0  0  0  0
   39.3090   27.2950   42.4960 N   0  0  0  0  0  0  0  0  0  0  0  0
   38.8650   28.2610   41.6640 C   0  0  0  0  0  0  0  0  0  0  0  0
   37.7960   28.0400   40.8590 N   0  0  0  0  0  0  0  0  0  0  0  0
   36.3250   26.6740   40.2500 H   0  0  0  0  0  0  0  0  0  0  0  0
   39.0690   25.3200   43.2200 H   0  0  0  0  0  0  0  0  0  0  0  0
   36.9580   24.4870   41.7890 C   0  0  1  0  0  0  0  0  0  0  0  0
   36.1840   24.0130   40.6850 C   0  0  0  0  0  0  0  0  0  0  0  0
   37.5110   23.3960   40.8510 C   0  0  1  0  0  0  0  0  0  0  0  0
   36.8530   24.0990   42.8270 H   0  0  0  0  0  0  0  0  0  0  0  0
   35.2520   23.4240   40.9340 H   0  0  0  0  0  0  0  0  0  0  0  0
   36.0320   24.6200   39.7870 H   0  0  0  0  0  0  0  0  0  0  0  0
   37.4790   22.3330   41.2220 H   0  0  0  0  0  0  0  0  0  0  0  0
   38.6660   23.6710   39.9710 C   0  0  0  0  0  0  0  0  0  0  0  0
   39.7890   24.0470   40.6910 F   0  0  0  0  0  0  0  0  0  0  0  0
   38.3810   24.6570   39.0260 F   0  0  0  0  0  0  0  0  0  0  0  0
   38.9820   22.4940   39.3300 F   0  0  0  0  0  0  0  0  0  0  0  0
   39.5740   29.5760   41.6500 C   0  0  2  0  0  0  0  0  0  0  0  0
   39.2840   30.4150   42.8810 C   0  0  0  0  0  0  0  0  0  0  0  0
   38.7860   30.8360   41.5270 C   0  0  1  0  0  0  0  0  0  0  0  0
   40.5880   29.5520   41.2390 H   0  0  0  0  0  0  0  0  0  0  0  0
   38.4870   30.1020   43.5740 H   0  0  0  0  0  0  0  0  0  0  0  0
   40.0940   31.0040   43.3440 H   0  0  0  0  0  0  0  0  0  0  0  0
   37.7170   30.6600   41.2530 H   0  0  0  0  0  0  0  0  0  0  0  0
   38.7240   33.2880   40.9640 C   0  0  1  0  0  3  0  0  0  0  0  0
   39.5130   31.9740   40.9050 C   0  0  2  0  0  3  0  0  0  0  0  0
   39.6190   31.8600   39.3960 C   0  0  0  0  0  3  0  0  0  0  0  0
   40.3770   31.1190   39.0750 H   0  0  0  0  0  0  0  0  0  0  0  0
   39.8230   33.1210   38.8980 O   0  0  0  0  0  0  0  0  0  0  0  0
   39.5180   34.0430   39.8880 C   0  0  0  0  0  3  0  0  0  0  0  0
   40.4900   34.3050   40.3660 H   0  0  0  0  0  0  0  0  0  0  0  0
   37.4400   33.1440   40.4860 O   0  0  0  0  0  0  0  0  0  0  0  0
   36.7890   32.8560   41.1770 H   0  0  0  0  0  0  0  0  0  0  0  0
  1  2  1  0  0  0  0
  2  9  1  0  0  0  0
  2  3  2  0  0  0  0
  3  8  1  0  0  0  0
  4  3  1  0  0  0  0
  5  4  2  0  0  0  0
  6  1  2  0  0  0  0
  6  5  1  0  0  0  0
  7  1  1  0  0  0  0
  9 12  1  1  0  0  0
 10 11  1  0  0  0  0
 10 13  1  0  0  0  0
 10  9  1  0  0  0  0
 11 15  1  1  0  0  0
 11  9  1  0  0  0  0
 14 10  1  0  0  0  0
 16 17  1  0  0  0  0
 16 11  1  0  0  0  0
 18 16  1  0  0  0  0
 19 16  1  0  0  0  0
 20 23  1  6  0  0  0
 20  5  1  0  0  0  0
 20 21  1  0  0  0  0
 21 25  1  0  0  0  0
 21 24  1  0  0  0  0
 22 26  1  6  0  0  0
 22 20  1  0  0  0  0
 22 21  1  0  0  0  0
 27 34  1  6  0  0  0
 28 29  1  6  0  0  0
 28 27  1  0  0  0  0
 28 22  1  0  0  0  0
 30 29  1  0  0  0  0
 31 29  1  0  0  0  0
 31 32  1  0  0  0  0
 32 33  1  0  0  0  0
 32 27  1  0  0  0  0
 34 35  1  0  0  0  0
M  END
>  <minimizedAffinity>
-5.12883329

$$$$

 OpenBabel03242520383D

 35 38  0  0  1  0  0  0  0  0999 V2000
   39.8100   30.2130   40.2300 C   0  0  0  0  0  0  0  0  0  0  0  0
   39.7920   31.3700   41.0970 C   0  0  0  0  0  0  0  0  0  0  0  0
   39.3820   31.1740   42.3910 C   0  0  0  0  0  0  0  0  0  0  0  0
   39.0150   29.9360   42.8030 N   0  0  0  0  0  0  0  0  0  0  0  0
   39.0430   28.8760   41.9670 C   0  0  0  0  0  0  0  0  0  0  0  0
   39.4420   29.0220   40.6790 N   0  0  0  0  0  0  0  0  0  0  0  0
   40.1310   30.3490   39.2080 H   0  0  0  0  0  0  0  0  0  0  0  0
   39.3560   32.0090   43.0590 H   0  0  0  0  0  0  0  0  0  0  0  0
   40.1820   32.7150   40.6060 C   0  0  1  0  0  0  0  0  0  0  0  0
   40.3150   32.9970   39.2100 C   0  0  0  0  0  0  0  0  0  0  0  0
   39.1090   33.5350   39.8630 C   0  0  1  0  0  0  0  0  0  0  0  0
   40.6610   33.3240   41.4050 H   0  0  0  0  0  0  0  0  0  0  0  0
   41.1540   33.6910   38.9110 H   0  0  0  0  0  0  0  0  0  0  0  0
   40.1600   32.2230   38.4510 H   0  0  0  0  0  0  0  0  0  0  0  0
   39.1250   34.6530   40.0040 H   0  0  0  0  0  0  0  0  0  0  0  0
   37.7490   32.9930   39.6630 C   0  0  0  0  0  0  0  0  0  0  0  0
   36.8670   33.9600   39.2080 F   0  0  0  0  0  0  0  0  0  0  0  0
   37.2370   32.4210   40.8270 F   0  0  0  0  0  0  0  0  0  0  0  0
   37.8310   32.0350   38.6760 F   0  0  0  0  0  0  0  0  0  0  0  0
   38.6250   27.5400   42.4920 C   0  0  2  0  0  0  0  0  0  0  0  0
   39.6110   26.9670   43.4940 C   0  0  0  0  0  0  0  0  0  0  0  0
   39.4260   26.3310   42.1450 C   0  0  1  0  0  0  0  0  0  0  0  0
   37.5510   27.4230   42.6640 H   0  0  0  0  0  0  0  0  0  0  0  0
   40.5900   27.4520   43.6300 H   0  0  0  0  0  0  0  0  0  0  0  0
   39.2370   26.4260   44.3800 H   0  0  0  0  0  0  0  0  0  0  0  0
   40.1770   26.5170   41.3390 H   0  0  0  0  0  0  0  0  0  0  0  0
   38.8150   24.2750   40.8260 C   0  0  1  0  0  3  0  0  0  0  0  0
   38.6650   25.0530   42.1400 C   0  0  2  0  0  3  0  0  0  0  0  0
   37.1630   25.2540   42.0950 C   0  0  0  0  0  3  0  0  0  0  0  0
   36.7440   25.5730   43.0700 H   0  0  0  0  0  0  0  0  0  0  0  0
   36.6040   24.1060   41.5940 O   0  0  0  0  0  0  0  0  0  0  0  0
   37.6060   23.3470   41.0080 C   0  0  0  0  0  3  0  0  0  0  0  0
   37.9150   22.6060   41.7810 H   0  0  0  0  0  0  0  0  0  0  0  0
   38.5530   25.0620   39.7260 O   0  0  0  0  0  0  0  0  0  0  0  0
   39.3470   25.5540   39.3910 H   0  0  0  0  0  0  0  0  0  0  0  0
  1  6  2  0  0  0  0
  1  2  1  0  0  0  0
  2  3  2  0  0  0  0
  3  4  1  0  0  0  0
  3  8  1  0  0  0  0
  5 20  1  0  0  0  0
  5  4  2  0  0  0  0
  6  5  1  0  0  0  0
  7  1  1  0  0  0  0
  9  2  1  0  0  0  0
  9 12  1  1  0  0  0
 10 11  1  0  0  0  0
 10  9  1  0  0  0  0
 11 15  1  1  0  0  0
 11  9  1  0  0  0  0
 13 10  1  0  0  0  0
 14 10  1  0  0  0  0
 16 11  1  0  0  0  0
 16 18  1  0  0  0  0
 17 16  1  0  0  0  0
 19 16  1  0  0  0  0
 20 23  1  1  0  0  0
 20 21  1  0  0  0  0
 21 24  1  0  0  0  0
 21 25  1  0  0  0  0
 22 26  1  6  0  0  0
 22 20  1  0  0  0  0
 22 21  1  0  0  0  0
 27 34  1  6  0  0  0
 27 32  1  0  0  0  0
 27 28  1  0  0  0  0
 28 29  1  6  0  0  0
 28 22  1  0  0  0  0
 29 30  1  0  0  0  0
 31 29  1  0  0  0  0
 32 31  1  0  0  0  0
 32 33  1  0  0  0  0
 35 34  1  0  0  0  0
M  END
>  <minimizedAffinity>
-5.09124947

$$$$

 OpenBabel03242520383D

 35 38  0  0  1  0  0  0  0  0999 V2000
   38.2390   30.2300   39.0850 C   0  0  0  0  0  0  0  0  0  0  0  0
   37.0750   30.7240   39.7860 C   0  0  0  0  0  0  0  0  0  0  0  0
   37.2330   31.8650   40.5320 C   0  0  0  0  0  0  0  0  0  0  0  0
   38.4420   32.4740   40.5870 N   0  0  0  0  0  0  0  0  0  0  0  0
   39.5110   31.9850   39.9200 C   0  0  0  0  0  0  0  0  0  0  0  0
   39.4010   30.8610   39.1700 N   0  0  0  0  0  0  0  0  0  0  0  0
   38.1320   29.3340   38.4930 H   0  0  0  0  0  0  0  0  0  0  0  0
   36.3920   32.2570   41.0630 H   0  0  0  0  0  0  0  0  0  0  0  0
   35.7700   30.0210   39.7190 C   0  0  1  0  0  0  0  0  0  0  0  0
   35.6720   28.6580   39.2980 C   0  0  0  0  0  0  0  0  0  0  0  0
   35.5190   28.8970   40.7440 C   0  0  1  0  0  0  0  0  0  0  0  0
   34.9170   30.7350   39.6980 H   0  0  0  0  0  0  0  0  0  0  0  0
   34.7730   28.3840   38.6720 H   0  0  0  0  0  0  0  0  0  0  0  0
   36.5530   28.0890   38.9840 H   0  0  0  0  0  0  0  0  0  0  0  0
   34.4650   28.7690   41.1190 H   0  0  0  0  0  0  0  0  0  0  0  0
   36.5430   28.5510   41.7510 C   0  0  0  0  0  0  0  0  0  0  0  0
   36.0920   27.5910   42.6410 F   0  0  0  0  0  0  0  0  0  0  0  0
   36.9710   29.6700   42.4670 F   0  0  0  0  0  0  0  0  0  0  0  0
   37.6100   27.9980   41.0780 F   0  0  0  0  0  0  0  0  0  0  0  0
   40.8130   32.7100   40.0270 C   0  0  2  0  0  0  0  0  0  0  0  0
   40.7170   34.1600   39.5890 C   0  0  0  0  0  0  0  0  0  0  0  0
   41.5050   33.1650   38.7870 C   0  0  1  0  0  0  0  0  0  0  0  0
   41.4210   32.4480   40.8980 H   0  0  0  0  0  0  0  0  0  0  0  0
   39.8030   34.5160   39.0890 H   0  0  0  0  0  0  0  0  0  0  0  0
   41.2710   34.9360   40.1450 H   0  0  0  0  0  0  0  0  0  0  0  0
   41.0650   32.7340   37.8540 H   0  0  0  0  0  0  0  0  0  0  0  0
   43.6820   33.3440   37.5340 C   0  0  1  0  0  3  0  0  0  0  0  0
   42.9840   33.2800   38.8990 C   0  0  2  0  0  3  0  0  0  0  0  0
   43.6440   32.0150   39.4120 C   0  0  0  0  0  3  0  0  0  0  0  0
   43.5090   31.8760   40.5040 H   0  0  0  0  0  0  0  0  0  0  0  0
   44.9540   32.0370   39.0080 O   0  0  0  0  0  0  0  0  0  0  0  0
   45.0960   32.9980   38.0190 C   0  0  0  0  0  3  0  0  0  0  0  0
   45.4640   33.9130   38.5390 H   0  0  0  0  0  0  0  0  0  0  0  0
   43.2840   32.3220   36.7000 O   0  0  0  0  0  0  0  0  0  0  0  0
   42.4750   32.5370   36.1670 H   0  0  0  0  0  0  0  0  0  0  0  0
  1  6  2  0  0  0  0
  1  2  1  0  0  0  0
  2  3  2  0  0  0  0
  3  4  1  0  0  0  0
  3  8  1  0  0  0  0
  5 20  1  0  0  0  0
  5  4  2  0  0  0  0
  6  5  1  0  0  0  0
  7  1  1  0  0  0  0
  9 12  1  6  0  0  0
  9  2  1  0  0  0  0
  9 11  1  0  0  0  0
 10  9  1  0  0  0  0
 10 11  1  0  0  0  0
 11 15  1  1  0  0  0
 11 16  1  0  0  0  0
 13 10  1  0  0  0  0
 14 10  1  0  0  0  0
 16 18  1  0  0  0  0
 16 17  1  0  0  0  0
 19 16  1  0  0  0  0
 20 23  1  1  0  0  0
 21 20  1  0  0  0  0
 21 25  1  0  0  0  0
 22 26  1  6  0  0  0
 22 28  1  0  0  0  0
 22 21  1  0  0  0  0
 22 20  1  0  0  0  0
 24 21  1  0  0  0  0
 27 34  1  6  0  0  0
 27 32  1  0  0  0  0
 27 28  1  0  0  0  0
 28 29  1  6  0  0  0
 29 30  1  0  0  0  0
 31 29  1  0  0  0  0
 32 33  1  0  0  0  0
 32 31  1  0  0  0  0
 35 34  1  0  0  0  0
M  END
>  <minimizedAffinity>
-5.02724648

$$$$

 OpenBabel03242520383D

 35 38  0  0  1  0  0  0  0  0999 V2000
   37.6970   30.1120   41.3160 C   0  0  0  0  0  0  0  0  0  0  0  0
   38.1150   29.5340   42.5740 C   0  0  0  0  0  0  0  0  0  0  0  0
   39.2180   30.0830   43.1770 C   0  0  0  0  0  0  0  0  0  0  0  0
   39.8630   31.1200   42.5900 N   0  0  0  0  0  0  0  0  0  0  0  0
   39.4470   31.6370   41.4140 C   0  0  0  0  0  0  0  0  0  0  0  0
   38.3610   31.1260   40.7810 N   0  0  0  0  0  0  0  0  0  0  0  0
   36.8310   29.6920   40.8270 H   0  0  0  0  0  0  0  0  0  0  0  0
   39.5540   29.6790   44.1080 H   0  0  0  0  0  0  0  0  0  0  0  0
   37.3960   28.3850   43.1780 C   0  0  1  0  0  0  0  0  0  0  0  0
   36.6110   27.4890   42.3870 C   0  0  0  0  0  0  0  0  0  0  0  0
   37.9130   26.9720   42.8430 C   0  0  1  0  0  0  0  0  0  0  0  0
   37.2690   28.5090   44.2760 H   0  0  0  0  0  0  0  0  0  0  0  0
   35.6560   27.1060   42.8520 H   0  0  0  0  0  0  0  0  0  0  0  0
   36.4890   27.6320   41.3080 H   0  0  0  0  0  0  0  0  0  0  0  0
   37.8370   26.1910   43.6510 H   0  0  0  0  0  0  0  0  0  0  0  0
   39.0830   26.7860   41.9600 C   0  0  0  0  0  0  0  0  0  0  0  0
   40.2380   27.3170   42.5110 F   0  0  0  0  0  0  0  0  0  0  0  0
   38.8810   27.3450   40.6990 F   0  0  0  0  0  0  0  0  0  0  0  0
   39.2900   25.4290   41.8360 F   0  0  0  0  0  0  0  0  0  0  0  0
   40.2070   32.7810   40.8260 C   0  0  2  0  0  0  0  0  0  0  0  0
   39.3290   33.9850   40.5360 C   0  0  0  0  0  0  0  0  0  0  0  0
   39.9430   33.1940   39.4170 C   0  0  1  0  0  0  0  0  0  0  0  0
   41.2110   32.9310   41.2350 H   0  0  0  0  0  0  0  0  0  0  0  0
   38.2340   33.8860   40.6060 H   0  0  0  0  0  0  0  0  0  0  0  0
   39.7140   35.0010   40.7280 H   0  0  0  0  0  0  0  0  0  0  0  0
   39.3200   32.4580   38.8530 H   0  0  0  0  0  0  0  0  0  0  0  0
   41.6320   33.0140   37.5590 C   0  0  1  0  0  3  0  0  0  0  0  0
   41.0890   33.8450   38.7280 C   0  0  2  0  0  3  0  0  0  0  0  0
   42.3510   33.8750   39.5680 C   0  0  0  0  0  3  0  0  0  0  0  0
   42.3150   34.6410   40.3680 H   0  0  0  0  0  0  0  0  0  0  0  0
   43.4160   34.0070   38.7140 O   0  0  0  0  0  0  0  0  0  0  0  0
   42.9880   33.7210   37.4260 C   0  0  0  0  0  3  0  0  0  0  0  0
   42.7620   34.7070   36.9570 H   0  0  0  0  0  0  0  0  0  0  0  0
   41.8950   31.7120   37.9270 O   0  0  0  0  0  0  0  0  0  0  0  0
   41.1110   31.1090   37.8410 H   0  0  0  0  0  0  0  0  0  0  0  0
  1  2  1  0  0  0  0
  2  3  2  0  0  0  0
  2  9  1  0  0  0  0
  3  8  1  0  0  0  0
  4  3  1  0  0  0  0
  5  4  2  0  0  0  0
  6  1  2  0  0  0  0
  6  5  1  0  0  0  0
  7  1  1  0  0  0  0
  9 12  1  1  0  0  0
 10 11  1  0  0  0  0
 10 13  1  0  0  0  0
 10  9  1  0  0  0  0
 11  9  1  0  0  0  0
 11 15  1  1  0  0  0
 14 10  1  0  0  0  0
 16 17  1  0  0  0  0
 16 11  1  0  0  0  0
 18 16  1  0  0  0  0
 19 16  1  0  0  0  0
 20 23  1  1  0  0  0
 20  5  1  0  0  0  0
 21 24  1  0  0  0  0
 21 25  1  0  0  0  0
 21 20  1  0  0  0  0
 22 26  1  6  0  0  0
 22 21  1  0  0  0  0
 22 20  1  0  0  0  0
 27 34  1  1  0  0  0
 27 28  1  0  0  0  0
 28 22  1  0  0  0  0
 28 29  1  1  0  0  0
 29 30  1  0  0  0  0
 31 29  1  0  0  0  0
 32 27  1  0  0  0  0
 32 31  1  0  0  0  0
 33 32  1  0  0  0  0
 35 34  1  0  0  0  0
M  END
>  <minimizedAffinity>
-4.94156504

$$$$

 OpenBabel03242520383D

 35 38  0  0  1  0  0  0  0  0999 V2000
   37.0150   26.9120   40.7290 C   0  0  0  0  0  0  0  0  0  0  0  0
   36.6120   27.9200   41.6850 C   0  0  0  0  0  0  0  0  0  0  0  0
   35.7230   28.8700   41.2510 C   0  0  0  0  0  0  0  0  0  0  0  0
   35.2650   28.8350   39.9770 N   0  0  0  0  0  0  0  0  0  0  0  0
   35.6620   27.8800   39.1080 C   0  0  0  0  0  0  0  0  0  0  0  0
   36.5390   26.9200   39.4920 N   0  0  0  0  0  0  0  0  0  0  0  0
   37.7150   26.1560   41.0530 H   0  0  0  0  0  0  0  0  0  0  0  0
   35.4040   29.6300   41.9330 H   0  0  0  0  0  0  0  0  0  0  0  0
   37.1490   27.9380   43.0670 C   0  0  1  0  0  0  0  0  0  0  0  0
   38.4200   27.3660   43.3880 C   0  0  0  0  0  0  0  0  0  0  0  0
   38.3710   28.8380   43.3390 C   0  0  1  0  0  0  0  0  0  0  0  0
   36.3490   28.1210   43.8190 H   0  0  0  0  0  0  0  0  0  0  0  0
   38.5020   26.8360   44.3820 H   0  0  0  0  0  0  0  0  0  0  0  0
   39.0340   26.8690   42.6300 H   0  0  0  0  0  0  0  0  0  0  0  0
   38.4320   29.3310   44.3500 H   0  0  0  0  0  0  0  0  0  0  0  0
   38.9670   29.6500   42.2580 C   0  0  0  0  0  0  0  0  0  0  0  0
   38.0940   30.6230   41.7990 F   0  0  0  0  0  0  0  0  0  0  0  0
   39.3800   28.8640   41.1820 F   0  0  0  0  0  0  0  0  0  0  0  0
   40.0520   30.3100   42.7910 F   0  0  0  0  0  0  0  0  0  0  0  0
   35.1140   27.9040   37.7180 C   0  0  2  0  0  0  0  0  0  0  0  0
   35.8510   28.8730   36.8110 C   0  0  0  0  0  0  0  0  0  0  0  0
   34.4290   29.1310   37.2190 C   0  0  1  0  0  0  0  0  0  0  0  0
   34.7960   26.9330   37.3270 H   0  0  0  0  0  0  0  0  0  0  0  0
   36.5770   29.5770   37.2460 H   0  0  0  0  0  0  0  0  0  0  0  0
   36.0500   28.5950   35.7620 H   0  0  0  0  0  0  0  0  0  0  0  0
   34.2120   29.8730   38.0260 H   0  0  0  0  0  0  0  0  0  0  0  0
   32.0620   29.5610   36.4760 C   0  0  1  0  0  3  0  0  0  0  0  0
   33.4080   28.8960   36.1630 C   0  0  2  0  0  3  0  0  0  0  0  0
   32.9260   27.4590   36.1100 C   0  0  0  0  0  3  0  0  0  0  0  0
   33.6620   26.7780   35.6390 H   0  0  0  0  0  0  0  0  0  0  0  0
   31.6940   27.4560   35.5060 O   0  0  0  0  0  0  0  0  0  0  0  0
   31.2090   28.7560   35.4860 C   0  0  0  0  0  3  0  0  0  0  0  0
   31.4660   29.1580   34.4790 H   0  0  0  0  0  0  0  0  0  0  0  0
   31.6110   29.2470   37.7400 O   0  0  0  0  0  0  0  0  0  0  0  0
   31.9460   29.8590   38.4450 H   0  0  0  0  0  0  0  0  0  0  0  0
  1  7  1  0  0  0  0
  1  2  1  0  0  0  0
  2  9  1  0  0  0  0
  3  2  2  0  0  0  0
  3  8  1  0  0  0  0
  4  3  1  0  0  0  0
  5  6  1  0  0  0  0
  5  4  2  0  0  0  0
  6  1  2  0  0  0  0
  9 11  1  0  0  0  0
  9 10  1  0  0  0  0
  9 12  1  1  0  0  0
 10 13  1  0  0  0  0
 11 10  1  0  0  0  0
 11 15  1  1  0  0  0
 14 10  1  0  0  0  0
 16 19  1  0  0  0  0
 16 11  1  0  0  0  0
 17 16  1  0  0  0  0
 18 16  1  0  0  0  0
 20 23  1  6  0  0  0
 20  5  1  0  0  0  0
 21 22  1  0  0  0  0
 21 24  1  0  0  0  0
 21 20  1  0  0  0  0
 22 20  1  0  0  0  0
 22 26  1  1  0  0  0
 25 21  1  0  0  0  0
 27 34  1  1  0  0  0
 28 29  1  1  0  0  0
 28 27  1  0  0  0  0
 28 22  1  0  0  0  0
 30 29  1  0  0  0  0
 31 29  1  0  0  0  0
 32 31  1  0  0  0  0
 32 27  1  0  0  0  0
 33 32  1  0  0  0  0
 34 35  1  0  0  0  0
M  END
>  <minimizedAffinity>
-4.92890024

$$$$
