
 OpenBabel03242523143D

 25 27  0  0  1  0  0  0  0  0999 V2000
   45.4970   33.9720   42.4690 C   0  0  0  0  0  0  0  0  0  0  0  0
   46.8560   34.3380   42.6470 C   0  0  0  0  0  0  0  0  0  0  0  0
   47.5490   33.8010   43.7280 C   0  0  0  0  0  0  0  0  0  0  0  0
   46.8980   32.9350   44.5950 N   0  0  0  0  0  0  0  0  0  0  0  0
   45.6160   32.6160   44.3990 C   0  0  0  0  0  0  0  0  0  0  0  0
   44.9260   33.1320   43.3460 N   0  0  0  0  0  0  0  0  0  0  0  0
   48.5660   34.1040   43.8160 H   0  0  0  0  0  0  0  0  0  0  0  0
   45.1510   31.9380   45.1030 H   0  0  0  0  0  0  0  0  0  0  0  0
   47.4990   35.3680   41.7910 C   0  0  0  0  0  0  0  0  0  0  0  0
   48.9180   35.4970   41.6890 C   0  0  0  0  0  0  0  0  0  0  0  0
   48.2780   34.8550   40.5290 C   0  0  0  0  0  0  0  0  0  0  0  0
   46.7330   36.0820   41.3500 H   0  0  0  0  0  0  0  0  0  0  0  0
   49.4550   36.4740   41.5490 H   0  0  0  0  0  0  0  0  0  0  0  0
   49.5990   34.7650   42.2150 H   0  0  0  0  0  0  0  0  0  0  0  0
   48.2390   33.7620   40.3920 H   0  0  0  0  0  0  0  0  0  0  0  0
   48.1420   35.4370   39.6070 H   0  0  0  0  0  0  0  0  0  0  0  0
   43.8250   35.5960   41.6980 C   0  0  1  0  0  0  0  0  0  0  0  0
   44.5710   34.2830   41.3170 C   0  0  2  0  0  0  0  0  0  0  0  0
   43.3780   33.3630   41.2760 C   0  0  0  0  0  0  0  0  0  0  0  0
   43.3010   32.8080   40.3110 H   0  0  0  0  0  0  0  0  0  0  0  0
   42.2080   34.1140   41.4650 O   0  0  0  0  0  0  0  0  0  0  0  0
   42.5310   35.3830   40.9640 C   0  0  0  0  0  0  0  0  0  0  0  0
   42.6750   35.2390   39.8680 H   0  0  0  0  0  0  0  0  0  0  0  0
   43.5510   35.5330   43.0630 O   0  0  0  0  0  0  0  0  0  0  0  0
   42.5930   35.6050   43.2370 H   0  0  0  0  0  0  0  0  0  0  0  0
  1  2  2  0  0  0  0
  1  6  1  0  0  0  0
  2  3  1  0  0  0  0
  3  7  1  0  0  0  0
  3  4  2  0  0  0  0
  5  4  1  0  0  0  0
  5  8  1  0  0  0  0
  6  5  2  0  0  0  0
  9  2  1  0  0  0  0
 10  9  1  0  0  0  0
 10 14  1  0  0  0  0
 11 10  1  0  0  0  0
 11  9  1  0  0  0  0
 12  9  1  0  0  0  0
 13 10  1  0  0  0  0
 15 11  1  0  0  0  0
 16 11  1  0  0  0  0
 17 24  1  1  0  0  0
 18 17  1  0  0  0  0
 18  1  1  1  0  0  0
 19 18  1  0  0  0  0
 19 21  1  0  0  0  0
 20 19  1  0  0  0  0
 22 21  1  0  0  0  0
 22 17  1  0  0  0  0
 23 22  1  0  0  0  0
 24 25  1  0  0  0  0
M  END
>  <minimizedAffinity>
-4.79319715

>  <minimizedRMSD>
2.10409641

$$$$
