
 OpenBabel03252505153D

 25 27  0  0  1  0  0  0  0  0999 V2000
   45.0140   35.3070   44.2160 C   0  0  0  0  0  0  0  0  0  0  0  0
   45.6540   35.6490   43.0120 C   0  0  0  0  0  0  0  0  0  0  0  0
   46.6980   34.7960   42.6400 C   0  0  0  0  0  0  0  0  0  0  0  0
   47.0280   33.7220   43.4320 N   0  0  0  0  0  0  0  0  0  0  0  0
   46.3680   33.4480   44.5850 C   0  0  0  0  0  0  0  0  0  0  0  0
   45.3610   34.2500   44.9660 N   0  0  0  0  0  0  0  0  0  0  0  0
   44.1880   35.9280   44.5720 H   0  0  0  0  0  0  0  0  0  0  0  0
   45.3750   36.4890   42.4210 H   0  0  0  0  0  0  0  0  0  0  0  0
   47.4520   35.0380   41.3620 C   0  0  0  0  0  0  0  0  0  0  0  0
   48.8110   35.6620   41.6020 C   0  0  0  0  0  0  0  0  0  0  0  0
   48.6140   34.2050   41.0870 C   0  0  0  0  0  0  0  0  0  0  0  0
   46.8390   35.4740   40.5510 H   0  0  0  0  0  0  0  0  0  0  0  0
   49.1240   36.3870   40.8240 H   0  0  0  0  0  0  0  0  0  0  0  0
   49.1740   35.8040   42.6210 H   0  0  0  0  0  0  0  0  0  0  0  0
   48.9100   33.4490   41.8700 H   0  0  0  0  0  0  0  0  0  0  0  0
   48.9940   34.0040   40.0670 H   0  0  0  0  0  0  0  0  0  0  0  0
   45.8380   31.1790   45.3700 C   0  0  2  0  0  3  0  0  0  0  0  0
   46.9130   32.2380   45.2520 C   0  0  1  0  0  3  0  0  0  0  0  0
   47.9200   31.5370   44.3500 C   0  0  0  0  0  3  0  0  0  0  0  0
   48.9120   31.5300   44.8290 H   0  0  0  0  0  0  0  0  0  0  0  0
   47.4700   30.2490   44.1510 O   0  0  0  0  0  0  0  0  0  0  0  0
   46.6780   29.9050   45.2210 C   0  0  0  0  0  3  0  0  0  0  0  0
   47.3300   29.8010   46.1000 H   0  0  0  0  0  0  0  0  0  0  0  0
   44.8920   31.2820   44.3850 O   0  0  0  0  0  0  0  0  0  0  0  0
   44.5130   30.3890   44.1160 H   0  0  0  0  0  0  0  0  0  0  0  0
  1  7  1  0  0  0  0
  1  6  1  0  0  0  0
  2  1  2  0  0  0  0
  3  2  1  0  0  0  0
  3  4  2  0  0  0  0
  4  5  1  0  0  0  0
  5  6  2  0  0  0  0
  8  2  1  0  0  0  0
  9 10  1  0  0  0  0
  9  3  1  0  0  0  0
 10 14  1  0  0  0  0
 11  9  1  0  0  0  0
 11 10  1  0  0  0  0
 11 15  1  0  0  0  0
 12  9  1  0  0  0  0
 13 10  1  0  0  0  0
 16 11  1  0  0  0  0
 17 24  1  6  0  0  0
 18  5  1  6  0  0  0
 18 17  1  0  0  0  0
 19 20  1  0  0  0  0
 19 18  1  0  0  0  0
 21 19  1  0  0  0  0
 21 22  1  0  0  0  0
 22 17  1  0  0  0  0
 22 23  1  0  0  0  0
 25 24  1  0  0  0  0
M  END
>  <minimizedAffinity>
-4.22287846

>  <minimizedRMSD>
1.01731241

$$$$
