
 OpenBabel03252509043D

 48 50  0  0  1  0  0  0  0  0999 V2000
   46.7650   34.3600   43.6380 N   0  0  0  0  0  0  0  0  0  0  0  0
   46.3940   35.2610   42.6150 C   0  0  0  0  0  0  0  0  0  0  0  0
   44.8910   35.4000   42.4260 C   0  0  0  0  0  0  0  0  0  0  0  0
   44.1060   35.3050   43.7120 C   0  0  0  0  0  0  0  0  0  0  0  0
   45.0170   35.1690   44.9170 C   0  0  0  0  0  0  0  0  0  0  0  0
   45.8770   33.8860   44.5710 C   0  0  2  0  0  0  0  0  0  0  0  0
   46.8060   35.0610   41.6220 H   0  0  0  0  0  0  0  0  0  0  0  0
   46.7660   36.2690   42.8990 H   0  0  0  0  0  0  0  0  0  0  0  0
   44.7160   36.3520   41.8830 H   0  0  0  0  0  0  0  0  0  0  0  0
   44.5830   34.5820   41.7320 H   0  0  0  0  0  0  0  0  0  0  0  0
   43.4290   34.4350   43.6970 H   0  0  0  0  0  0  0  0  0  0  0  0
   43.4780   36.2020   43.8760 H   0  0  0  0  0  0  0  0  0  0  0  0
   45.6940   36.0110   45.0500 H   0  0  0  0  0  0  0  0  0  0  0  0
   44.3810   34.9140   45.7790 H   0  0  0  0  0  0  0  0  0  0  0  0
   45.1630   33.1000   44.2550 H   0  0  0  0  0  0  0  0  0  0  0  0
   47.9330   33.5710   43.3350 C   0  0  0  0  0  0  0  0  0  0  0  0
   48.3250   33.1970   44.3260 H   0  0  0  0  0  0  0  0  0  0  0  0
   48.7060   34.1640   42.8330 H   0  0  0  0  0  0  0  0  0  0  0  0
   47.4980   32.3760   42.5700 C   0  0  0  0  0  0  0  0  0  0  0  0
   47.6090   31.4080   43.1050 H   0  0  0  0  0  0  0  0  0  0  0  0
   46.4060   32.4200   42.3060 H   0  0  0  0  0  0  0  0  0  0  0  0
   50.0750   31.5650   39.9650 C   0  0  0  0  0  0  0  0  0  0  0  0
   49.3810   31.6270   41.1900 C   0  0  0  0  0  0  0  0  0  0  0  0
   48.2060   32.3280   41.2690 C   0  0  0  0  0  0  0  0  0  0  0  0
   47.7790   32.9220   40.1610 N   0  0  0  0  0  0  0  0  0  0  0  0
   48.4220   32.8730   38.9930 C   0  0  0  0  0  0  0  0  0  0  0  0
   49.5850   32.1920   38.8760 N   0  0  0  0  0  0  0  0  0  0  0  0
   50.9980   30.9840   40.0040 H   0  0  0  0  0  0  0  0  0  0  0  0
   49.7590   31.1300   42.0740 H   0  0  0  0  0  0  0  0  0  0  0  0
   48.0650   33.3640   38.0880 H   0  0  0  0  0  0  0  0  0  0  0  0
   46.4520   33.6260   45.8020 O   0  0  0  0  0  0  0  0  0  0  0  0
   45.5770   31.1760   45.2230 O   0  0  0  0  0  0  0  0  0  0  0  0
   46.1530   32.0560   46.3310 P   0  0  2  0  0  0  0  0  0  0  0  0
   44.8960   32.1980   47.4920 O   0  0  0  0  0  0  0  0  0  0  0  0
   45.2790   32.2030   48.4040 H   0  0  0  0  0  0  0  0  0  0  0  0
   47.4690   31.3540   47.0850 O   0  0  0  0  0  0  0  0  0  0  0  0
   47.0500   30.2020   47.7190 C   0  0  0  0  0  0  0  0  0  0  0  0
   45.9520   30.0680   47.5130 H   0  0  0  0  0  0  0  0  0  0  0  0
   47.2150   30.1540   48.7910 H   0  0  0  0  0  0  0  0  0  0  0  0
   49.9960   28.5120   46.7880 C   0  0  2  0  0  3  0  0  0  0  0  0
   48.9540   29.4620   46.2730 C   0  0  0  0  0  3  0  0  0  0  0  0
   49.2030   30.5340   46.4030 H   0  0  0  0  0  0  0  0  0  0  0  0
   47.7070   29.0220   46.9880 C   0  0  1  0  0  3  0  0  0  0  0  0
   48.0400   28.0180   47.8550 O   0  0  0  0  0  0  0  0  0  0  0  0
   49.3980   28.1000   48.1170 C   0  0  0  0  0  3  0  0  0  0  0  0
   49.7830   27.1060   48.4520 H   0  0  0  0  0  0  0  0  0  0  0  0
   51.1890   29.2100   46.9600 O   0  0  0  0  0  0  0  0  0  0  0  0
   50.9490   30.1530   47.2230 H   0  0  0  0  0  0  0  0  0  0  0  0
  1  6  1  0  0  0  0
  2  8  1  0  0  0  0
  2  1  1  0  0  0  0
  3  2  1  0  0  0  0
  3  4  1  0  0  0  0
  4 12  1  0  0  0  0
  4  5  1  0  0  0  0
  5 13  1  0  0  0  0
  5 14  1  0  0  0  0
  6 15  1  6  0  0  0
  6  5  1  0  0  0  0
  6 31  1  0  0  0  0
  7  2  1  0  0  0  0
  9  3  1  0  0  0  0
 10  3  1  0  0  0  0
 11  4  1  0  0  0  0
 16  1  1  0  0  0  0
 16 17  1  0  0  0  0
 18 16  1  0  0  0  0
 19 20  1  0  0  0  0
 19 16  1  0  0  0  0
 21 19  1  0  0  0  0
 22 28  1  0  0  0  0
 22 23  1  0  0  0  0
 23 24  2  0  0  0  0
 23 29  1  0  0  0  0
 24 19  1  0  0  0  0
 25 24  1  0  0  0  0
 26 25  2  0  0  0  0
 27 26  1  0  0  0  0
 27 22  2  0  0  0  0
 30 26  1  0  0  0  0
 31 33  1  0  0  0  0
 33 32  2  6  0  0  0
 33 36  1  0  0  0  0
 33 34  1  0  0  0  0
 34 35  1  0  0  0  0
 36 37  1  0  0  0  0
 37 39  1  0  0  0  0
 38 37  1  0  0  0  0
 40 47  1  1  0  0  0
 40 45  1  0  0  0  0
 41 42  1  0  0  0  0
 41 40  1  0  0  0  0
 41 43  1  0  0  0  0
 43 37  1  1  0  0  0
 43 44  1  0  0  0  0
 44 45  1  0  0  0  0
 45 46  1  0  0  0  0
 47 48  1  0  0  0  0
M  END
>  <minimizedAffinity>
-4.27007627

>  <minimizedRMSD>
1.49417305

$$$$
