
 OpenBabel03252504373D

 23 24  0  0  1  0  0  0  0  0999 V2000
   34.8740   28.0040   38.0190 C   0  0  0  0  0  0  0  0  0  0  0  0
   35.3780   27.9370   37.0380 H   0  0  0  0  0  0  0  0  0  0  0  0
   34.4810   27.0010   38.3500 H   0  0  0  0  0  0  0  0  0  0  0  0
   36.2320   30.0630   40.6680 C   0  0  1  0  0  3  0  0  0  0  0  0
   35.2650   28.9190   40.3350 C   0  0  0  0  0  3  0  0  0  0  0  0
   35.1650   28.2050   41.1600 H   0  0  0  0  0  0  0  0  0  0  0  0
   35.8940   28.3860   39.0940 C   0  0  2  0  0  3  0  0  0  0  0  0
   36.8190   29.2820   38.6270 O   0  0  0  0  0  0  0  0  0  0  0  0
   36.6630   30.4780   39.2830 C   0  0  0  0  0  3  0  0  0  0  0  0
   37.6170   31.0460   39.3010 H   0  0  0  0  0  0  0  0  0  0  0  0
   35.5470   31.0760   41.3370 O   0  0  0  0  0  0  0  0  0  0  0  0
   36.0460   31.9250   41.2840 H   0  0  0  0  0  0  0  0  0  0  0  0
   32.8020   28.9220   37.0840 C   0  0  0  0  0  3  0  0  0  0  0  0
   33.7080   28.9110   38.0450 C   0  0  0  0  0  3  0  0  0  0  0  0
   31.6810   29.8480   37.1820 C   0  0  0  0  0  0  0  0  0  0  0  0
   31.4160   30.6520   36.0550 C   0  0  0  0  0  0  0  0  0  0  0  0
   30.3440   31.5580   36.1060 C   0  0  0  0  0  0  0  0  0  0  0  0
   29.6150   31.6090   37.2550 N   0  0  0  0  0  0  0  0  0  0  0  0
   29.9010   30.8220   38.3130 C   0  0  0  0  0  0  0  0  0  0  0  0
   30.9180   29.9630   38.2640 N   0  0  0  0  0  0  0  0  0  0  0  0
   32.0340   30.5680   35.1610 H   0  0  0  0  0  0  0  0  0  0  0  0
   30.1200   32.1870   35.2550 H   0  0  0  0  0  0  0  0  0  0  0  0
   29.3300   30.8580   39.2210 H   0  0  0  0  0  0  0  0  0  0  0  0
  1 14  1  0  0  0  0
  1  3  1  0  0  0  0
  2  1  1  0  0  0  0
  4 11  1  6  0  0  0
  5  4  1  0  0  0  0
  5  6  1  0  0  0  0
  7  1  1  6  0  0  0
  7  5  1  0  0  0  0
  8  7  1  0  0  0  0
  8  9  1  0  0  0  0
  9 10  1  0  0  0  0
  9  4  1  0  0  0  0
 12 11  1  0  0  0  0
 13 15  1  0  0  0  0
 13 14  2  0  0  0  0
 15 20  1  0  0  0  0
 16 17  1  0  0  0  0
 16 15  2  0  0  0  0
 17 18  2  0  0  0  0
 18 19  1  0  0  0  0
 19 23  1  0  0  0  0
 20 19  2  0  0  0  0
 21 16  1  0  0  0  0
 22 17  1  0  0  0  0
M  END
>  <minimizedAffinity>
-4.41674805

$$$$

 OpenBabel03252504373D

 23 24  0  0  1  0  0  0  0  0999 V2000
   38.0440   28.0790   43.3100 C   0  0  0  0  0  0  0  0  0  0  0  0
   37.0410   27.6140   43.3230 H   0  0  0  0  0  0  0  0  0  0  0  0
   38.4700   28.1700   44.3490 H   0  0  0  0  0  0  0  0  0  0  0  0
   39.8680   25.0030   42.7520 C   0  0  1  0  0  3  0  0  0  0  0  0
   38.5530   25.7510   42.4910 C   0  0  0  0  0  3  0  0  0  0  0  0
   38.0920   25.4610   41.5400 H   0  0  0  0  0  0  0  0  0  0  0  0
   39.0240   27.1620   42.5750 C   0  0  2  0  0  3  0  0  0  0  0  0
   40.2740   27.1960   43.1320 O   0  0  0  0  0  0  0  0  0  0  0  0
   40.5600   25.9700   43.6800 C   0  0  0  0  0  3  0  0  0  0  0  0
   41.6570   25.7980   43.7110 H   0  0  0  0  0  0  0  0  0  0  0  0
   39.5970   23.7800   43.3650 O   0  0  0  0  0  0  0  0  0  0  0  0
   40.4030   23.4340   43.8150 H   0  0  0  0  0  0  0  0  0  0  0  0
   38.1830   29.6770   41.4550 C   0  0  0  0  0  3  0  0  0  0  0  0
   38.0720   29.4460   42.7510 C   0  0  0  0  0  3  0  0  0  0  0  0
   38.2050   31.0550   40.9820 C   0  0  0  0  0  0  0  0  0  0  0  0
   37.2040   31.4320   40.0650 C   0  0  0  0  0  0  0  0  0  0  0  0
   37.1870   32.7510   39.5840 C   0  0  0  0  0  0  0  0  0  0  0  0
   38.1500   33.6010   40.0370 N   0  0  0  0  0  0  0  0  0  0  0  0
   39.0930   33.2000   40.9160 C   0  0  0  0  0  0  0  0  0  0  0  0
   39.1080   31.9490   41.3720 N   0  0  0  0  0  0  0  0  0  0  0  0
   36.4560   30.7080   39.7370 H   0  0  0  0  0  0  0  0  0  0  0  0
   36.4290   33.0660   38.8790 H   0  0  0  0  0  0  0  0  0  0  0  0
   39.8550   33.8650   41.2760 H   0  0  0  0  0  0  0  0  0  0  0  0
  1  2  1  0  0  0  0
  1  3  1  0  0  0  0
  4 11  1  1  0  0  0
  4  9  1  0  0  0  0
  5  7  1  0  0  0  0
  5  4  1  0  0  0  0
  6  5  1  0  0  0  0
  7  8  1  0  0  0  0
  7  1  1  1  0  0  0
  8  9  1  0  0  0  0
  9 10  1  0  0  0  0
 11 12  1  0  0  0  0
 13 14  2  0  0  0  0
 14  1  1  0  0  0  0
 15 20  1  0  0  0  0
 15 13  1  0  0  0  0
 16 15  2  0  0  0  0
 17 18  2  0  0  0  0
 17 16  1  0  0  0  0
 18 19  1  0  0  0  0
 19 23  1  0  0  0  0
 19 20  2  0  0  0  0
 21 16  1  0  0  0  0
 22 17  1  0  0  0  0
M  END
>  <minimizedAffinity>
-4.38785887

$$$$

 OpenBabel03252504373D

 23 24  0  0  1  0  0  0  0  0999 V2000
   39.5900   30.7990   42.5330 C   0  0  0  0  0  0  0  0  0  0  0  0
   40.4320   31.2730   43.0700 H   0  0  0  0  0  0  0  0  0  0  0  0
   38.6020   31.0460   43.0150 H   0  0  0  0  0  0  0  0  0  0  0  0
   38.0090   32.6770   39.8740 C   0  0  1  0  0  3  0  0  0  0  0  0
   38.9160   32.7650   41.1080 C   0  0  0  0  0  3  0  0  0  0  0  0
   39.6470   33.5780   41.0290 H   0  0  0  0  0  0  0  0  0  0  0  0
   39.4850   31.3880   41.1240 C   0  0  2  0  0  3  0  0  0  0  0  0
   38.7610   30.5830   40.2850 O   0  0  0  0  0  0  0  0  0  0  0  0
   37.6010   31.2250   39.9290 C   0  0  0  0  0  3  0  0  0  0  0  0
   37.2340   30.8620   38.9450 H   0  0  0  0  0  0  0  0  0  0  0  0
   36.9240   33.5390   40.0270 O   0  0  0  0  0  0  0  0  0  0  0  0
   36.1890   33.2810   39.4230 H   0  0  0  0  0  0  0  0  0  0  0  0
   38.7320   28.5640   43.0610 C   0  0  0  0  0  3  0  0  0  0  0  0
   39.6500   29.3240   42.4910 C   0  0  0  0  0  3  0  0  0  0  0  0
   38.8620   27.1150   42.9750 C   0  0  0  0  0  0  0  0  0  0  0  0
   39.9660   26.5330   43.6300 C   0  0  0  0  0  0  0  0  0  0  0  0
   40.1300   25.1390   43.5730 C   0  0  0  0  0  0  0  0  0  0  0  0
   39.2030   24.4220   42.8810 N   0  0  0  0  0  0  0  0  0  0  0  0
   38.1590   25.0180   42.2670 C   0  0  0  0  0  0  0  0  0  0  0  0
   38.0040   26.3400   42.3210 N   0  0  0  0  0  0  0  0  0  0  0  0
   40.6780   27.1580   44.1700 H   0  0  0  0  0  0  0  0  0  0  0  0
   40.9700   24.6680   44.0670 H   0  0  0  0  0  0  0  0  0  0  0  0
   37.4250   24.4580   41.7200 H   0  0  0  0  0  0  0  0  0  0  0  0
  1  3  1  0  0  0  0
  1  2  1  0  0  0  0
  4  9  1  0  0  0  0
  4 11  1  1  0  0  0
  4  5  1  0  0  0  0
  5  7  1  0  0  0  0
  6  5  1  0  0  0  0
  7  1  1  1  0  0  0
  8  7  1  0  0  0  0
  9  8  1  0  0  0  0
 10  9  1  0  0  0  0
 12 11  1  0  0  0  0
 14  1  1  0  0  0  0
 14 13  2  0  0  0  0
 15 13  1  0  0  0  0
 15 16  1  0  0  0  0
 16 21  1  0  0  0  0
 17 16  2  0  0  0  0
 17 22  1  0  0  0  0
 18 17  1  0  0  0  0
 19 20  1  0  0  0  0
 19 18  2  0  0  0  0
 20 15  2  0  0  0  0
 23 19  1  0  0  0  0
M  END
>  <minimizedAffinity>
-4.38777733

$$$$

 OpenBabel03252504373D

 23 24  0  0  1  0  0  0  0  0999 V2000
   36.8740   31.8930   39.3650 C   0  0  0  0  0  0  0  0  0  0  0  0
   36.0050   32.4350   39.7810 H   0  0  0  0  0  0  0  0  0  0  0  0
   36.6580   31.5010   38.3310 H   0  0  0  0  0  0  0  0  0  0  0  0
   39.9970   33.4960   40.2490 C   0  0  1  0  0  3  0  0  0  0  0  0
   39.3560   32.2890   39.5510 C   0  0  0  0  0  3  0  0  0  0  0  0
   39.9690   31.9140   38.7230 H   0  0  0  0  0  0  0  0  0  0  0  0
   38.0380   32.8680   39.1670 C   0  0  2  0  0  3  0  0  0  0  0  0
   37.8400   34.0450   39.8370 O   0  0  0  0  0  0  0  0  0  0  0  0
   38.7750   34.1610   40.8360 C   0  0  0  0  0  3  0  0  0  0  0  0
   38.9640   35.2280   41.0790 H   0  0  0  0  0  0  0  0  0  0  0  0
   40.8830   33.0540   41.2310 O   0  0  0  0  0  0  0  0  0  0  0  0
   41.0620   33.7710   41.8830 H   0  0  0  0  0  0  0  0  0  0  0  0
   36.7030   30.3810   41.2870 C   0  0  0  0  0  3  0  0  0  0  0  0
   37.2930   30.7170   40.1540 C   0  0  0  0  0  3  0  0  0  0  0  0
   37.1750   29.2060   42.0080 C   0  0  0  0  0  0  0  0  0  0  0  0
   38.4670   29.2750   42.5640 C   0  0  0  0  0  0  0  0  0  0  0  0
   38.9630   28.1640   43.2670 C   0  0  0  0  0  0  0  0  0  0  0  0
   38.1560   27.0720   43.3720 N   0  0  0  0  0  0  0  0  0  0  0  0
   36.9230   27.0450   42.8230 C   0  0  0  0  0  0  0  0  0  0  0  0
   36.4540   28.0990   42.1570 N   0  0  0  0  0  0  0  0  0  0  0  0
   39.0700   30.1770   42.4490 H   0  0  0  0  0  0  0  0  0  0  0  0
   39.9520   28.1910   43.7050 H   0  0  0  0  0  0  0  0  0  0  0  0
   36.2830   26.1880   42.9020 H   0  0  0  0  0  0  0  0  0  0  0  0
  1  2  1  0  0  0  0
  1 14  1  0  0  0  0
  3  1  1  0  0  0  0
  4  9  1  0  0  0  0
  4 11  1  1  0  0  0
  5  4  1  0  0  0  0
  6  5  1  0  0  0  0
  7  1  1  1  0  0  0
  7  5  1  0  0  0  0
  7  8  1  0  0  0  0
  8  9  1  0  0  0  0
  9 10  1  0  0  0  0
 11 12  1  0  0  0  0
 13 15  1  0  0  0  0
 14 13  2  0  0  0  0
 15 20  2  0  0  0  0
 15 16  1  0  0  0  0
 16 17  2  0  0  0  0
 17 18  1  0  0  0  0
 17 22  1  0  0  0  0
 19 23  1  0  0  0  0
 19 18  2  0  0  0  0
 20 19  1  0  0  0  0
 21 16  1  0  0  0  0
M  END
>  <minimizedAffinity>
-4.2965188

$$$$

 OpenBabel03252504373D

 23 24  0  0  1  0  0  0  0  0999 V2000
   35.4450   28.9180   40.6840 C   0  0  0  0  0  0  0  0  0  0  0  0
   34.7690   29.2000   41.5120 H   0  0  0  0  0  0  0  0  0  0  0  0
   34.8790   28.4400   39.8350 H   0  0  0  0  0  0  0  0  0  0  0  0
   38.1590   31.0570   39.6080 C   0  0  1  0  0  3  0  0  0  0  0  0
   37.2390   29.8960   39.2080 C   0  0  0  0  0  3  0  0  0  0  0  0
   37.0440   29.8730   38.1300 H   0  0  0  0  0  0  0  0  0  0  0  0
   36.0570   30.1800   40.0710 C   0  0  2  0  0  3  0  0  0  0  0  0
   36.3950   31.1010   41.0250 O   0  0  0  0  0  0  0  0  0  0  0  0
   37.7600   31.2470   41.0510 C   0  0  0  0  0  3  0  0  0  0  0  0
   38.0440   32.2520   41.4280 H   0  0  0  0  0  0  0  0  0  0  0  0
   39.4910   30.6670   39.4720 O   0  0  0  0  0  0  0  0  0  0  0  0
   40.0790   31.2550   40.0020 H   0  0  0  0  0  0  0  0  0  0  0  0
   36.7820   27.6700   42.3170 C   0  0  0  0  0  3  0  0  0  0  0  0
   36.4920   27.9450   41.0580 C   0  0  0  0  0  3  0  0  0  0  0  0
   37.8300   26.6980   42.6030 C   0  0  0  0  0  0  0  0  0  0  0  0
   38.9180   27.1430   43.3790 C   0  0  0  0  0  0  0  0  0  0  0  0
   39.9510   26.2400   43.6800 C   0  0  0  0  0  0  0  0  0  0  0  0
   39.8390   24.9710   43.1980 N   0  0  0  0  0  0  0  0  0  0  0  0
   38.7800   24.5840   42.4570 C   0  0  0  0  0  0  0  0  0  0  0  0
   37.8010   25.4420   42.1720 N   0  0  0  0  0  0  0  0  0  0  0  0
   38.9540   28.1720   43.7390 H   0  0  0  0  0  0  0  0  0  0  0  0
   40.7980   26.5560   44.2740 H   0  0  0  0  0  0  0  0  0  0  0  0
   38.6860   23.5860   42.0740 H   0  0  0  0  0  0  0  0  0  0  0  0
  1 14  1  0  0  0  0
  1  2  1  0  0  0  0
  3  1  1  0  0  0  0
  4 11  1  1  0  0  0
  4  9  1  0  0  0  0
  5  4  1  0  0  0  0
  5  7  1  0  0  0  0
  6  5  1  0  0  0  0
  7  1  1  1  0  0  0
  7  8  1  0  0  0  0
  8  9  1  0  0  0  0
  9 10  1  0  0  0  0
 11 12  1  0  0  0  0
 13 15  1  0  0  0  0
 14 13  2  0  0  0  0
 15 16  1  0  0  0  0
 16 17  2  0  0  0  0
 16 21  1  0  0  0  0
 17 22  1  0  0  0  0
 18 17  1  0  0  0  0
 19 18  2  0  0  0  0
 20 19  1  0  0  0  0
 20 15  2  0  0  0  0
 23 19  1  0  0  0  0
M  END
>  <minimizedAffinity>
-4.21690273

$$$$

 OpenBabel03252504373D

 23 24  0  0  1  0  0  0  0  0999 V2000
   35.8370   29.2260   39.1500 C   0  0  0  0  0  0  0  0  0  0  0  0
   34.9220   29.6090   39.6400 H   0  0  0  0  0  0  0  0  0  0  0  0
   35.7520   29.2700   38.0280 H   0  0  0  0  0  0  0  0  0  0  0  0
   37.4530   32.4170   39.7070 C   0  0  1  0  0  3  0  0  0  0  0  0
   36.6380   31.2900   40.3550 C   0  0  0  0  0  3  0  0  0  0  0  0
   36.8690   31.1690   41.4200 H   0  0  0  0  0  0  0  0  0  0  0  0
   37.0160   30.1450   39.4790 C   0  0  2  0  0  3  0  0  0  0  0  0
   37.6310   30.6150   38.3500 O   0  0  0  0  0  0  0  0  0  0  0  0
   37.4470   31.9730   38.2650 C   0  0  0  0  0  3  0  0  0  0  0  0
   38.2660   32.4470   37.6840 H   0  0  0  0  0  0  0  0  0  0  0  0
   36.7970   33.6340   39.8900 O   0  0  0  0  0  0  0  0  0  0  0  0
   37.1180   34.3010   39.2390 H   0  0  0  0  0  0  0  0  0  0  0  0
   36.7430   27.4660   40.5960 C   0  0  0  0  0  3  0  0  0  0  0  0
   36.1530   27.8190   39.4680 C   0  0  0  0  0  3  0  0  0  0  0  0
   37.0220   26.0550   40.8350 C   0  0  0  0  0  0  0  0  0  0  0  0
   36.6170   25.1460   39.8380 C   0  0  0  0  0  0  0  0  0  0  0  0
   36.8670   23.7770   40.0260 C   0  0  0  0  0  0  0  0  0  0  0  0
   37.4940   23.4030   41.1760 N   0  0  0  0  0  0  0  0  0  0  0  0
   37.8660   24.3050   42.1080 C   0  0  0  0  0  0  0  0  0  0  0  0
   37.6290   25.6040   41.9270 N   0  0  0  0  0  0  0  0  0  0  0  0
   36.1180   25.5040   38.9360 H   0  0  0  0  0  0  0  0  0  0  0  0
   36.5650   23.0580   39.2760 H   0  0  0  0  0  0  0  0  0  0  0  0
   38.3610   24.0170   43.0150 H   0  0  0  0  0  0  0  0  0  0  0  0
  1 14  1  0  0  0  0
  1  2  1  0  0  0  0
  3  1  1  0  0  0  0
  4 11  1  6  0  0  0
  4  5  1  0  0  0  0
  5  6  1  0  0  0  0
  7  1  1  6  0  0  0
  7  5  1  0  0  0  0
  8  7  1  0  0  0  0
  9  8  1  0  0  0  0
  9  4  1  0  0  0  0
 10  9  1  0  0  0  0
 12 11  1  0  0  0  0
 13 15  1  0  0  0  0
 14 13  2  0  0  0  0
 15 20  1  0  0  0  0
 16 17  1  0  0  0  0
 16 15  2  0  0  0  0
 17 18  2  0  0  0  0
 18 19  1  0  0  0  0
 19 23  1  0  0  0  0
 20 19  2  0  0  0  0
 21 16  1  0  0  0  0
 22 17  1  0  0  0  0
M  END
>  <minimizedAffinity>
-4.17748165

$$$$

 OpenBabel03252504373D

 23 24  0  0  1  0  0  0  0  0999 V2000
   36.5940   30.5980   39.4980 C   0  0  0  0  0  0  0  0  0  0  0  0
   35.7730   31.0600   40.0770 H   0  0  0  0  0  0  0  0  0  0  0  0
   36.2490   30.2850   38.4720 H   0  0  0  0  0  0  0  0  0  0  0  0
   38.5870   33.5250   40.2510 C   0  0  1  0  0  3  0  0  0  0  0  0
   38.4490   32.0100   40.4550 C   0  0  0  0  0  3  0  0  0  0  0  0
   39.4220   31.5170   40.5710 H   0  0  0  0  0  0  0  0  0  0  0  0
   37.6820   31.6410   39.2320 C   0  0  2  0  0  3  0  0  0  0  0  0
   37.1770   32.7730   38.6490 O   0  0  0  0  0  0  0  0  0  0  0  0
   37.3010   33.8260   39.5200 C   0  0  0  0  0  3  0  0  0  0  0  0
   37.3560   34.7900   38.9700 H   0  0  0  0  0  0  0  0  0  0  0  0
   38.6540   34.1600   41.4910 O   0  0  0  0  0  0  0  0  0  0  0  0
   38.4300   35.1160   41.4020 H   0  0  0  0  0  0  0  0  0  0  0  0
   36.4030   28.3940   40.5530 C   0  0  0  0  0  3  0  0  0  0  0  0
   37.1620   29.3810   40.1110 C   0  0  0  0  0  3  0  0  0  0  0  0
   37.0400   27.2250   41.1470 C   0  0  0  0  0  0  0  0  0  0  0  0
   37.9230   27.4550   42.2200 C   0  0  0  0  0  0  0  0  0  0  0  0
   38.5590   26.3570   42.8220 C   0  0  0  0  0  0  0  0  0  0  0  0
   38.2810   25.1190   42.3290 N   0  0  0  0  0  0  0  0  0  0  0  0
   37.4280   24.9400   41.2980 C   0  0  0  0  0  0  0  0  0  0  0  0
   36.8260   25.9820   40.7280 N   0  0  0  0  0  0  0  0  0  0  0  0
   38.1070   28.4710   42.5740 H   0  0  0  0  0  0  0  0  0  0  0  0
   39.2420   26.5070   43.6480 H   0  0  0  0  0  0  0  0  0  0  0  0
   37.2060   23.9670   40.9050 H   0  0  0  0  0  0  0  0  0  0  0  0
  1  2  1  0  0  0  0
  1 14  1  0  0  0  0
  3  1  1  0  0  0  0
  4  5  1  0  0  0  0
  4 11  1  1  0  0  0
  5  6  1  0  0  0  0
  7  1  1  1  0  0  0
  7  5  1  0  0  0  0
  8  7  1  0  0  0  0
  8  9  1  0  0  0  0
  9  4  1  0  0  0  0
 10  9  1  0  0  0  0
 12 11  1  0  0  0  0
 13 15  1  0  0  0  0
 14 13  2  0  0  0  0
 15 16  1  0  0  0  0
 16 21  1  0  0  0  0
 16 17  2  0  0  0  0
 17 22  1  0  0  0  0
 18 17  1  0  0  0  0
 19 18  2  0  0  0  0
 20 15  2  0  0  0  0
 20 19  1  0  0  0  0
 23 19  1  0  0  0  0
M  END
>  <minimizedAffinity>
-4.10319901

$$$$

 OpenBabel03252504373D

 23 24  0  0  1  0  0  0  0  0999 V2000
   36.3120   29.9500   38.8430 C   0  0  0  0  0  0  0  0  0  0  0  0
   35.3770   30.5220   38.9900 H   0  0  0  0  0  0  0  0  0  0  0  0
   36.4300   29.6230   37.7710 H   0  0  0  0  0  0  0  0  0  0  0  0
   39.2020   31.9100   37.8910 C   0  0  1  0  0  3  0  0  0  0  0  0
   37.6770   31.9190   38.0620 C   0  0  0  0  0  3  0  0  0  0  0  0
   37.2950   32.9110   38.3340 H   0  0  0  0  0  0  0  0  0  0  0  0
   37.5150   30.8600   39.0980 C   0  0  2  0  0  3  0  0  0  0  0  0
   38.6800   30.1500   39.2140 O   0  0  0  0  0  0  0  0  0  0  0  0
   39.5050   30.4570   38.1600 C   0  0  0  0  0  3  0  0  0  0  0  0
   40.5700   30.3010   38.4340 H   0  0  0  0  0  0  0  0  0  0  0  0
   39.5290   32.2880   36.5890 O   0  0  0  0  0  0  0  0  0  0  0  0
   40.4440   31.9970   36.3640 H   0  0  0  0  0  0  0  0  0  0  0  0
   36.5710   27.5250   39.0920 C   0  0  0  0  0  3  0  0  0  0  0  0
   36.4000   28.7130   39.6450 C   0  0  0  0  0  3  0  0  0  0  0  0
   36.6480   26.3510   39.9530 C   0  0  0  0  0  0  0  0  0  0  0  0
   37.1090   26.5530   41.2690 C   0  0  0  0  0  0  0  0  0  0  0  0
   37.1980   25.4490   42.1320 C   0  0  0  0  0  0  0  0  0  0  0  0
   36.8300   24.2330   41.6430 N   0  0  0  0  0  0  0  0  0  0  0  0
   36.3940   24.0810   40.3740 C   0  0  0  0  0  0  0  0  0  0  0  0
   36.3090   25.1290   39.5560 N   0  0  0  0  0  0  0  0  0  0  0  0
   37.3900   27.5510   41.6070 H   0  0  0  0  0  0  0  0  0  0  0  0
   37.5490   25.5770   43.1480 H   0  0  0  0  0  0  0  0  0  0  0  0
   36.1020   23.1250   39.9820 H   0  0  0  0  0  0  0  0  0  0  0  0
  1  2  1  0  0  0  0
  1 14  1  0  0  0  0
  3  1  1  0  0  0  0
  4 11  1  6  0  0  0
  4  5  1  0  0  0  0
  4  9  1  0  0  0  0
  5  6  1  0  0  0  0
  5  7  1  0  0  0  0
  7  1  1  6  0  0  0
  7  8  1  0  0  0  0
  9 10  1  0  0  0  0
  9  8  1  0  0  0  0
 12 11  1  0  0  0  0
 13 14  2  0  0  0  0
 13 15  1  0  0  0  0
 15 16  1  0  0  0  0
 16 21  1  0  0  0  0
 16 17  2  0  0  0  0
 17 22  1  0  0  0  0
 18 17  1  0  0  0  0
 19 18  2  0  0  0  0
 20 15  2  0  0  0  0
 20 19  1  0  0  0  0
 23 19  1  0  0  0  0
M  END
>  <minimizedAffinity>
-4.09623051

$$$$

 OpenBabel03252504373D

 23 24  0  0  1  0  0  0  0  0999 V2000
   36.8360   28.0750   39.1760 C   0  0  0  0  0  0  0  0  0  0  0  0
   37.6330   27.5380   38.6300 H   0  0  0  0  0  0  0  0  0  0  0  0
   35.8470   27.9990   38.6430 H   0  0  0  0  0  0  0  0  0  0  0  0
   36.8470   27.8570   42.7900 C   0  0  1  0  0  3  0  0  0  0  0  0
   36.0550   28.3220   41.5600 C   0  0  0  0  0  3  0  0  0  0  0  0
   34.9720   28.2750   41.7210 H   0  0  0  0  0  0  0  0  0  0  0  0
   36.5930   27.3940   40.5260 C   0  0  2  0  0  3  0  0  0  0  0  0
   37.7220   26.7820   41.0020 O   0  0  0  0  0  0  0  0  0  0  0  0
   38.1380   27.4210   42.1430 C   0  0  0  0  0  3  0  0  0  0  0  0
   38.7140   26.7310   42.7950 H   0  0  0  0  0  0  0  0  0  0  0  0
   37.0260   28.9290   43.6640 O   0  0  0  0  0  0  0  0  0  0  0  0
   37.7720   28.7490   44.2830 H   0  0  0  0  0  0  0  0  0  0  0  0
   38.3020   30.0310   39.3730 C   0  0  0  0  0  3  0  0  0  0  0  0
   37.0830   29.5210   39.3460 C   0  0  0  0  0  3  0  0  0  0  0  0
   38.4610   31.4690   39.5450 C   0  0  0  0  0  0  0  0  0  0  0  0
   37.2930   32.2540   39.4790 C   0  0  0  0  0  0  0  0  0  0  0  0
   37.4010   33.6450   39.6400 C   0  0  0  0  0  0  0  0  0  0  0  0
   38.6430   34.1610   39.8530 N   0  0  0  0  0  0  0  0  0  0  0  0
   39.7390   33.3740   39.9100 C   0  0  0  0  0  0  0  0  0  0  0  0
   39.6350   32.0550   39.7570 N   0  0  0  0  0  0  0  0  0  0  0  0
   36.3240   31.7850   39.3060 H   0  0  0  0  0  0  0  0  0  0  0  0
   36.5200   34.2700   39.5930 H   0  0  0  0  0  0  0  0  0  0  0  0
   40.7200   33.7750   40.0770 H   0  0  0  0  0  0  0  0  0  0  0  0
  1 14  1  0  0  0  0
  2  1  1  0  0  0  0
  3  1  1  0  0  0  0
  4 11  1  1  0  0  0
  5  6  1  0  0  0  0
  5  4  1  0  0  0  0
  7  1  1  6  0  0  0
  7  8  1  0  0  0  0
  7  5  1  0  0  0  0
  8  9  1  0  0  0  0
  9  4  1  0  0  0  0
  9 10  1  0  0  0  0
 11 12  1  0  0  0  0
 13 15  1  0  0  0  0
 14 13  2  0  0  0  0
 15 20  1  0  0  0  0
 16 15  2  0  0  0  0
 16 17  1  0  0  0  0
 17 18  2  0  0  0  0
 18 19  1  0  0  0  0
 19 23  1  0  0  0  0
 20 19  2  0  0  0  0
 21 16  1  0  0  0  0
 22 17  1  0  0  0  0
M  END
>  <minimizedAffinity>
-4.05260849

$$$$
