
 OpenBabel03252509043D

 48 50  0  0  1  0  0  0  0  0999 V2000
   46.6620   34.4880   43.5920 N   0  0  0  0  0  0  0  0  0  0  0  0
   46.2430   35.5470   42.7560 C   0  0  0  0  0  0  0  0  0  0  0  0
   44.7350   35.7410   42.7090 C   0  0  0  0  0  0  0  0  0  0  0  0
   44.0450   35.4570   44.0210 C   0  0  0  0  0  0  0  0  0  0  0  0
   45.0400   35.1160   45.1160 C   0  0  0  0  0  0  0  0  0  0  0  0
   45.8330   33.8880   44.5060 C   0  0  2  0  0  0  0  0  0  0  0  0
   46.5730   35.4990   41.7140 H   0  0  0  0  0  0  0  0  0  0  0  0
   46.6660   36.4900   43.1630 H   0  0  0  0  0  0  0  0  0  0  0  0
   44.5480   36.7690   42.3370 H   0  0  0  0  0  0  0  0  0  0  0  0
   44.3510   35.0480   41.9220 H   0  0  0  0  0  0  0  0  0  0  0  0
   43.3440   34.6130   43.9240 H   0  0  0  0  0  0  0  0  0  0  0  0
   43.4590   36.3270   44.3720 H   0  0  0  0  0  0  0  0  0  0  0  0
   45.7500   35.9140   45.3250 H   0  0  0  0  0  0  0  0  0  0  0  0
   44.4620   34.7390   45.9740 H   0  0  0  0  0  0  0  0  0  0  0  0
   45.0740   33.1760   44.1280 H   0  0  0  0  0  0  0  0  0  0  0  0
   47.7800   33.7370   43.0790 C   0  0  0  0  0  0  0  0  0  0  0  0
   48.2550   33.2320   43.9710 H   0  0  0  0  0  0  0  0  0  0  0  0
   48.5150   34.3840   42.5880 H   0  0  0  0  0  0  0  0  0  0  0  0
   47.2510   32.6570   42.2080 C   0  0  0  0  0  0  0  0  0  0  0  0
   47.4350   31.6240   42.5750 H   0  0  0  0  0  0  0  0  0  0  0  0
   46.1330   32.7160   42.0980 H   0  0  0  0  0  0  0  0  0  0  0  0
   49.3320   32.1340   39.1290 C   0  0  0  0  0  0  0  0  0  0  0  0
   48.8090   32.0040   40.4320 C   0  0  0  0  0  0  0  0  0  0  0  0
   47.7810   32.8160   40.8340 C   0  0  0  0  0  0  0  0  0  0  0  0
   47.3250   33.6990   39.9520 N   0  0  0  0  0  0  0  0  0  0  0  0
   47.8080   33.8350   38.7150 C   0  0  0  0  0  0  0  0  0  0  0  0
   48.8230   33.0520   38.2830 N   0  0  0  0  0  0  0  0  0  0  0  0
   50.1470   31.4440   38.9050 H   0  0  0  0  0  0  0  0  0  0  0  0
   49.2040   31.2730   41.1240 H   0  0  0  0  0  0  0  0  0  0  0  0
   47.4290   34.5620   37.9990 H   0  0  0  0  0  0  0  0  0  0  0  0
   46.4900   33.4270   45.6330 O   0  0  0  0  0  0  0  0  0  0  0  0
   45.4890   31.1190   44.7490 O   0  0  0  0  0  0  0  0  0  0  0  0
   46.1920   31.7950   45.9240 P   0  0  2  0  0  0  0  0  0  0  0  0
   45.0530   31.7630   47.2090 O   0  0  0  0  0  0  0  0  0  0  0  0
   45.5200   31.6120   48.0690 H   0  0  0  0  0  0  0  0  0  0  0  0
   47.5500   30.9590   46.4230 O   0  0  0  0  0  0  0  0  0  0  0  0
   47.9240   30.0880   45.4210 C   0  0  0  0  0  0  0  0  0  0  0  0
   49.0310   30.2000   45.2530 H   0  0  0  0  0  0  0  0  0  0  0  0
   47.4120   30.1980   44.4690 H   0  0  0  0  0  0  0  0  0  0  0  0
   46.1770   27.8420   47.4960 C   0  0  2  0  0  3  0  0  0  0  0  0
   47.4070   28.7010   47.4390 C   0  0  0  0  0  3  0  0  0  0  0  0
   47.2770   29.7190   47.8530 H   0  0  0  0  0  0  0  0  0  0  0  0
   47.7800   28.6660   45.9830 C   0  0  1  0  0  3  0  0  0  0  0  0
   46.8230   27.9550   45.3100 O   0  0  0  0  0  0  0  0  0  0  0  0
   45.6680   27.9480   46.0740 C   0  0  0  0  0  3  0  0  0  0  0  0
   45.0320   27.0730   45.7960 H   0  0  0  0  0  0  0  0  0  0  0  0
   45.2810   28.4080   48.4010 O   0  0  0  0  0  0  0  0  0  0  0  0
   45.4030   29.4070   48.3580 H   0  0  0  0  0  0  0  0  0  0  0  0
  1  6  1  0  0  0  0
  2  8  1  0  0  0  0
  2  1  1  0  0  0  0
  3  2  1  0  0  0  0
  3  4  1  0  0  0  0
  4 12  1  0  0  0  0
  4  5  1  0  0  0  0
  5 13  1  0  0  0  0
  5 14  1  0  0  0  0
  6 15  1  6  0  0  0
  6  5  1  0  0  0  0
  6 31  1  0  0  0  0
  7  2  1  0  0  0  0
  9  3  1  0  0  0  0
 10  3  1  0  0  0  0
 11  4  1  0  0  0  0
 16  1  1  0  0  0  0
 16 17  1  0  0  0  0
 18 16  1  0  0  0  0
 19 20  1  0  0  0  0
 19 16  1  0  0  0  0
 21 19  1  0  0  0  0
 22 23  1  0  0  0  0
 23 24  2  0  0  0  0
 23 29  1  0  0  0  0
 24 19  1  0  0  0  0
 25 24  1  0  0  0  0
 26 25  2  0  0  0  0
 27 26  1  0  0  0  0
 27 22  2  0  0  0  0
 28 22  1  0  0  0  0
 30 26  1  0  0  0  0
 31 33  1  0  0  0  0
 33 32  2  6  0  0  0
 33 36  1  0  0  0  0
 33 34  1  0  0  0  0
 34 35  1  0  0  0  0
 37 36  1  0  0  0  0
 38 37  1  0  0  0  0
 39 37  1  0  0  0  0
 40 47  1  1  0  0  0
 41 40  1  0  0  0  0
 41 42  1  0  0  0  0
 43 37  1  6  0  0  0
 43 41  1  0  0  0  0
 44 43  1  0  0  0  0
 44 45  1  0  0  0  0
 45 40  1  0  0  0  0
 46 45  1  0  0  0  0
 48 47  1  0  0  0  0
M  END
>  <minimizedAffinity>
-4.32739878

>  <minimizedRMSD>
1.46942592

$$$$
