
 OpenBabel03242513203D

 23 24  0  0  1  0  0  0  0  0999 V2000
   40.7430   32.1740   41.1570 C   0  0  0  0  0  0  0  0  0  0  0  0
   40.8650   32.6870   42.1130 H   0  0  0  0  0  0  0  0  0  0  0  0
   41.7630   31.8000   40.8740 H   0  0  0  0  0  0  0  0  0  0  0  0
   40.4900   32.2140   37.8640 C   0  0  2  0  0  3  0  0  0  0  0  0
   39.5490   32.3450   39.0410 C   0  0  0  0  0  3  0  0  0  0  0  0
   38.6350   32.8690   38.7010 H   0  0  0  0  0  0  0  0  0  0  0  0
   40.3530   33.1090   40.0310 C   0  0  2  0  0  3  0  0  0  0  0  0
   41.5230   33.5540   39.4530 O   0  0  0  0  0  0  0  0  0  0  0  0
   41.4070   33.3890   38.0820 C   0  0  0  0  0  3  0  0  0  0  0  0
   40.8900   34.2790   37.6540 H   0  0  0  0  0  0  0  0  0  0  0  0
   39.8130   32.3910   36.6380 O   0  0  0  0  0  0  0  0  0  0  0  0
   40.4280   32.6980   35.9370 H   0  0  0  0  0  0  0  0  0  0  0  0
   39.4810   30.5380   42.4280 C   0  0  0  0  0  3  0  0  0  0  0  0
   39.7860   31.0280   41.2610 C   0  0  0  0  0  3  0  0  0  0  0  0
   36.5320   28.3730   42.0100 C   0  0  0  0  0  0  0  0  0  0  0  0
   36.8700   27.2450   42.7860 C   0  0  0  0  0  0  0  0  0  0  0  0
   38.1010   27.2780   43.4210 C   0  0  0  0  0  0  0  0  0  0  0  0
   38.9030   28.3620   43.2730 N   0  0  0  0  0  0  0  0  0  0  0  0
   38.5500   29.4250   42.5240 C   0  0  0  0  0  0  0  0  0  0  0  0
   37.3770   29.4200   41.9040 N   0  0  0  0  0  0  0  0  0  0  0  0
   35.5730   28.4000   41.4880 H   0  0  0  0  0  0  0  0  0  0  0  0
   36.2020   26.4080   42.8750 H   0  0  0  0  0  0  0  0  0  0  0  0
   38.4380   26.4560   44.0340 H   0  0  0  0  0  0  0  0  0  0  0  0
  1 14  1  0  0  0  0
  1  2  1  0  0  0  0
  3  1  1  0  0  0  0
  4 11  1  6  0  0  0
  4  9  1  0  0  0  0
  4  5  1  0  0  0  0
  5  7  1  0  0  0  0
  6  5  1  0  0  0  0
  7  1  1  1  0  0  0
  8  7  1  0  0  0  0
  9  8  1  0  0  0  0
 10  9  1  0  0  0  0
 12 11  1  0  0  0  0
 13 19  1  0  0  0  0
 14 13  2  0  0  0  0
 15 16  1  0  0  0  0
 16 22  1  0  0  0  0
 16 17  2  0  0  0  0
 17 23  1  0  0  0  0
 18 17  1  0  0  0  0
 19 18  2  0  0  0  0
 20 15  2  0  0  0  0
 20 19  1  0  0  0  0
 21 15  1  0  0  0  0
M  END
>  <minimizedAffinity>
-4.44873619

$$$$

 OpenBabel03242513203D

 23 24  0  0  1  0  0  0  0  0999 V2000
   37.5200   24.8420   42.3080 C   0  0  0  0  0  0  0  0  0  0  0  0
   37.4290   24.9140   43.3940 H   0  0  0  0  0  0  0  0  0  0  0  0
   36.7160   24.1340   41.9760 H   0  0  0  0  0  0  0  0  0  0  0  0
   40.7860   25.1510   42.7000 C   0  0  2  0  0  3  0  0  0  0  0  0
   39.7310   24.1200   43.0350 C   0  0  0  0  0  3  0  0  0  0  0  0
   40.2280   23.1400   43.1650 H   0  0  0  0  0  0  0  0  0  0  0  0
   38.8130   24.1860   41.8670 C   0  0  2  0  0  3  0  0  0  0  0  0
   39.3540   24.9830   40.8810 O   0  0  0  0  0  0  0  0  0  0  0  0
   40.6850   25.2040   41.1980 C   0  0  0  0  0  3  0  0  0  0  0  0
   41.2940   24.3560   40.8080 H   0  0  0  0  0  0  0  0  0  0  0  0
   42.0770   24.7010   43.0500 O   0  0  0  0  0  0  0  0  0  0  0  0
   42.7640   25.1450   42.5060 H   0  0  0  0  0  0  0  0  0  0  0  0
   36.8500   27.1730   42.3200 C   0  0  0  0  0  3  0  0  0  0  0  0
   37.3400   26.1720   41.6470 C   0  0  0  0  0  3  0  0  0  0  0  0
   35.4930   29.9500   40.3190 C   0  0  0  0  0  0  0  0  0  0  0  0
   36.4610   30.9590   40.5030 C   0  0  0  0  0  0  0  0  0  0  0  0
   37.5410   30.6400   41.3100 C   0  0  0  0  0  0  0  0  0  0  0  0
   37.6180   29.4070   41.8710 N   0  0  0  0  0  0  0  0  0  0  0  0
   36.6760   28.4640   41.6740 C   0  0  0  0  0  0  0  0  0  0  0  0
   35.6300   28.7420   40.9070 N   0  0  0  0  0  0  0  0  0  0  0  0
   34.6210   30.1480   39.6920 H   0  0  0  0  0  0  0  0  0  0  0  0
   36.3590   31.9230   40.0390 H   0  0  0  0  0  0  0  0  0  0  0  0
   38.3270   31.3540   41.5040 H   0  0  0  0  0  0  0  0  0  0  0  0
  1  2  1  0  0  0  0
  3  1  1  0  0  0  0
  4  5  1  0  0  0  0
  4 11  1  6  0  0  0
  5  6  1  0  0  0  0
  7  1  1  1  0  0  0
  7  5  1  0  0  0  0
  8  9  1  0  0  0  0
  8  7  1  0  0  0  0
  9  4  1  0  0  0  0
 10  9  1  0  0  0  0
 12 11  1  0  0  0  0
 14  1  1  0  0  0  0
 14 13  2  0  0  0  0
 15 16  2  0  0  0  0
 15 20  1  0  0  0  0
 16 17  1  0  0  0  0
 17 23  1  0  0  0  0
 17 18  2  0  0  0  0
 19 18  1  0  0  0  0
 19 13  1  0  0  0  0
 20 19  2  0  0  0  0
 21 15  1  0  0  0  0
 22 16  1  0  0  0  0
M  END
>  <minimizedAffinity>
-4.44085455

$$$$

 OpenBabel03242513203D

 23 24  0  0  1  0  0  0  0  0999 V2000
   36.6880   31.2790   40.5010 C   0  0  0  0  0  0  0  0  0  0  0  0
   35.9560   30.8500   39.8130 H   0  0  0  0  0  0  0  0  0  0  0  0
   36.0970   31.8320   41.2780 H   0  0  0  0  0  0  0  0  0  0  0  0
   38.6860   31.6850   37.9010 C   0  0  2  0  0  3  0  0  0  0  0  0
   37.3720   32.2620   38.3790 C   0  0  0  0  0  3  0  0  0  0  0  0
   37.2230   33.2440   37.8900 H   0  0  0  0  0  0  0  0  0  0  0  0
   37.5550   32.3400   39.8530 C   0  0  2  0  0  3  0  0  0  0  0  0
   38.8610   32.0520   40.1870 O   0  0  0  0  0  0  0  0  0  0  0  0
   39.6110   32.0810   39.0220 C   0  0  0  0  0  3  0  0  0  0  0  0
   39.9230   33.1320   38.8190 H   0  0  0  0  0  0  0  0  0  0  0  0
   39.1220   32.3080   36.7130 O   0  0  0  0  0  0  0  0  0  0  0  0
   40.0980   32.2430   36.6190 H   0  0  0  0  0  0  0  0  0  0  0  0
   37.0060   29.0630   41.4320 C   0  0  0  0  0  3  0  0  0  0  0  0
   37.5260   30.2210   41.1480 C   0  0  0  0  0  3  0  0  0  0  0  0
   38.3490   25.8110   42.5210 C   0  0  0  0  0  0  0  0  0  0  0  0
   39.4570   26.1870   43.3070 C   0  0  0  0  0  0  0  0  0  0  0  0
   39.6960   27.5460   43.4290 C   0  0  0  0  0  0  0  0  0  0  0  0
   38.8770   28.4300   42.8060 N   0  0  0  0  0  0  0  0  0  0  0  0
   37.8240   28.0380   42.0620 C   0  0  0  0  0  0  0  0  0  0  0  0
   37.5720   26.7420   41.9270 N   0  0  0  0  0  0  0  0  0  0  0  0
   38.1150   24.7520   42.3920 H   0  0  0  0  0  0  0  0  0  0  0  0
   40.0790   25.4520   43.7840 H   0  0  0  0  0  0  0  0  0  0  0  0
   40.5240   27.9210   44.0130 H   0  0  0  0  0  0  0  0  0  0  0  0
  1 14  1  0  0  0  0
  1  3  1  0  0  0  0
  2  1  1  0  0  0  0
  4 11  1  6  0  0  0
  4  5  1  0  0  0  0
  4  9  1  0  0  0  0
  5  7  1  0  0  0  0
  6  5  1  0  0  0  0
  7  8  1  0  0  0  0
  7  1  1  1  0  0  0
  9  8  1  0  0  0  0
 10  9  1  0  0  0  0
 12 11  1  0  0  0  0
 13 19  1  0  0  0  0
 14 13  2  0  0  0  0
 15 16  1  0  0  0  0
 16 17  2  0  0  0  0
 16 22  1  0  0  0  0
 17 23  1  0  0  0  0
 18 17  1  0  0  0  0
 19 18  2  0  0  0  0
 20 19  1  0  0  0  0
 20 15  2  0  0  0  0
 21 15  1  0  0  0  0
M  END
>  <minimizedAffinity>
-4.37923717

$$$$

 OpenBabel03242513203D

 23 24  0  0  1  0  0  0  0  0999 V2000
   38.1130   27.5340   43.5450 C   0  0  0  0  0  0  0  0  0  0  0  0
   38.4980   27.7410   44.5450 H   0  0  0  0  0  0  0  0  0  0  0  0
   37.1850   26.9210   43.6920 H   0  0  0  0  0  0  0  0  0  0  0  0
   38.3740   24.4010   42.5310 C   0  0  2  0  0  3  0  0  0  0  0  0
   38.1980   25.7560   41.8820 C   0  0  0  0  0  3  0  0  0  0  0  0
   38.5370   25.6870   40.8310 H   0  0  0  0  0  0  0  0  0  0  0  0
   39.0320   26.6470   42.7310 C   0  0  2  0  0  3  0  0  0  0  0  0
   39.7680   25.9000   43.6270 O   0  0  0  0  0  0  0  0  0  0  0  0
   39.6970   24.5740   43.2290 C   0  0  0  0  0  3  0  0  0  0  0  0
   40.4870   24.3840   42.4650 H   0  0  0  0  0  0  0  0  0  0  0  0
   38.5020   23.3790   41.5670 O   0  0  0  0  0  0  0  0  0  0  0  0
   38.9930   22.6100   41.9310 H   0  0  0  0  0  0  0  0  0  0  0  0
   38.7300   29.4600   42.2070 C   0  0  0  0  0  3  0  0  0  0  0  0
   37.7860   28.7930   42.8050 C   0  0  0  0  0  3  0  0  0  0  0  0
   38.8610   32.8820   40.8520 C   0  0  0  0  0  0  0  0  0  0  0  0
   37.6850   32.9480   40.0780 C   0  0  0  0  0  0  0  0  0  0  0  0
   36.8950   31.8100   40.0540 C   0  0  0  0  0  0  0  0  0  0  0  0
   37.2770   30.7140   40.7570 N   0  0  0  0  0  0  0  0  0  0  0  0
   38.4080   30.6840   41.4890 C   0  0  0  0  0  0  0  0  0  0  0  0
   39.1840   31.7590   41.5290 N   0  0  0  0  0  0  0  0  0  0  0  0
   39.5200   33.7510   40.9060 H   0  0  0  0  0  0  0  0  0  0  0  0
   37.4210   33.8380   39.5370 H   0  0  0  0  0  0  0  0  0  0  0  0
   35.9780   31.7750   39.4860 H   0  0  0  0  0  0  0  0  0  0  0  0
  1  3  1  0  0  0  0
  1  2  1  0  0  0  0
  4 11  1  6  0  0  0
  4  9  1  0  0  0  0
  5  4  1  0  0  0  0
  5  7  1  0  0  0  0
  6  5  1  0  0  0  0
  7  1  1  1  0  0  0
  7  8  1  0  0  0  0
  9  8  1  0  0  0  0
 10  9  1  0  0  0  0
 11 12  1  0  0  0  0
 13 14  2  0  0  0  0
 14  1  1  0  0  0  0
 15 21  1  0  0  0  0
 15 20  1  0  0  0  0
 16 15  2  0  0  0  0
 17 16  1  0  0  0  0
 17 18  2  0  0  0  0
 18 19  1  0  0  0  0
 19 20  2  0  0  0  0
 19 13  1  0  0  0  0
 22 16  1  0  0  0  0
 23 17  1  0  0  0  0
M  END
>  <minimizedAffinity>
-4.37133503

$$$$

 OpenBabel03242513203D

 23 24  0  0  1  0  0  0  0  0999 V2000
   40.5990   32.0880   41.1270 C   0  0  0  0  0  0  0  0  0  0  0  0
   40.5370   32.7210   42.0140 H   0  0  0  0  0  0  0  0  0  0  0  0
   41.6930   31.9330   40.9320 H   0  0  0  0  0  0  0  0  0  0  0  0
   37.7690   33.1790   39.8190 C   0  0  2  0  0  3  0  0  0  0  0  0
   39.0740   33.7880   40.2800 C   0  0  0  0  0  3  0  0  0  0  0  0
   39.1980   34.7680   39.7800 H   0  0  0  0  0  0  0  0  0  0  0  0
   40.0810   32.7710   39.8780 C   0  0  2  0  0  3  0  0  0  0  0  0
   39.4900   31.7970   39.1010 O   0  0  0  0  0  0  0  0  0  0  0  0
   38.2390   32.2590   38.7240 C   0  0  0  0  0  3  0  0  0  0  0  0
   38.3470   32.8840   37.8080 H   0  0  0  0  0  0  0  0  0  0  0  0
   36.9150   34.1520   39.2570 O   0  0  0  0  0  0  0  0  0  0  0  0
   36.2830   33.7430   38.6250 H   0  0  0  0  0  0  0  0  0  0  0  0
   39.2490   30.5510   42.4310 C   0  0  0  0  0  3  0  0  0  0  0  0
   39.9230   30.7690   41.3390 C   0  0  0  0  0  3  0  0  0  0  0  0
   38.5810   27.0490   43.3520 C   0  0  0  0  0  0  0  0  0  0  0  0
   37.2350   26.8840   42.9650 C   0  0  0  0  0  0  0  0  0  0  0  0
   36.6140   27.9870   42.4020 C   0  0  0  0  0  0  0  0  0  0  0  0
   37.3070   29.1430   42.2530 N   0  0  0  0  0  0  0  0  0  0  0  0
   38.5930   29.2690   42.6330 C   0  0  0  0  0  0  0  0  0  0  0  0
   39.2140   28.2290   43.1760 N   0  0  0  0  0  0  0  0  0  0  0  0
   39.1190   26.2110   43.8010 H   0  0  0  0  0  0  0  0  0  0  0  0
   36.7250   25.9480   43.1020 H   0  0  0  0  0  0  0  0  0  0  0  0
   35.5850   27.9470   42.0780 H   0  0  0  0  0  0  0  0  0  0  0  0
  1 14  1  0  0  0  0
  1  2  1  0  0  0  0
  3  1  1  0  0  0  0
  4 11  1  6  0  0  0
  4  5  1  0  0  0  0
  6  5  1  0  0  0  0
  7  5  1  0  0  0  0
  7  1  1  1  0  0  0
  8  7  1  0  0  0  0
  9  8  1  0  0  0  0
  9  4  1  0  0  0  0
 10  9  1  0  0  0  0
 12 11  1  0  0  0  0
 13 19  1  0  0  0  0
 14 13  2  0  0  0  0
 15 21  1  0  0  0  0
 16 22  1  0  0  0  0
 16 15  2  0  0  0  0
 17 16  1  0  0  0  0
 18 17  2  0  0  0  0
 18 19  1  0  0  0  0
 19 20  2  0  0  0  0
 20 15  1  0  0  0  0
 23 17  1  0  0  0  0
M  END
>  <minimizedAffinity>
-4.32525778

$$$$

 OpenBabel03242513203D

 23 24  0  0  1  0  0  0  0  0999 V2000
   39.7650   28.2440   43.0910 C   0  0  0  0  0  0  0  0  0  0  0  0
   40.6480   27.8600   42.5780 H   0  0  0  0  0  0  0  0  0  0  0  0
   40.1400   28.7380   44.0260 H   0  0  0  0  0  0  0  0  0  0  0  0
   38.9140   25.1340   42.3700 C   0  0  2  0  0  3  0  0  0  0  0  0
   39.5780   25.8540   43.5240 C   0  0  0  0  0  3  0  0  0  0  0  0
   39.4690   25.2320   44.4330 H   0  0  0  0  0  0  0  0  0  0  0  0
   38.8440   27.1460   43.5820 C   0  0  2  0  0  3  0  0  0  0  0  0
   37.7610   27.1170   42.7290 O   0  0  0  0  0  0  0  0  0  0  0  0
   37.5640   25.8010   42.3400 C   0  0  0  0  0  3  0  0  0  0  0  0
   36.9390   25.2880   43.1060 H   0  0  0  0  0  0  0  0  0  0  0  0
   38.7340   23.7630   42.6510 O   0  0  0  0  0  0  0  0  0  0  0  0
   37.9910   23.3910   42.1280 H   0  0  0  0  0  0  0  0  0  0  0  0
   39.5220   30.4170   42.0410 C   0  0  0  0  0  3  0  0  0  0  0  0
   39.0220   29.2330   42.2490 C   0  0  0  0  0  3  0  0  0  0  0  0
   38.4650   33.5170   40.3580 C   0  0  0  0  0  0  0  0  0  0  0  0
   37.3340   33.0970   39.6290 C   0  0  0  0  0  0  0  0  0  0  0  0
   36.9820   31.7620   39.7470 C   0  0  0  0  0  0  0  0  0  0  0  0
   37.7200   30.9420   40.5370 N   0  0  0  0  0  0  0  0  0  0  0  0
   38.7960   31.3750   41.2220 C   0  0  0  0  0  0  0  0  0  0  0  0
   39.1560   32.6480   41.1270 N   0  0  0  0  0  0  0  0  0  0  0  0
   38.7860   34.5600   40.3010 H   0  0  0  0  0  0  0  0  0  0  0  0
   36.7780   33.7830   39.0160 H   0  0  0  0  0  0  0  0  0  0  0  0
   36.1290   31.3580   39.2230 H   0  0  0  0  0  0  0  0  0  0  0  0
  1  3  1  0  0  0  0
  2  1  1  0  0  0  0
  4 11  1  1  0  0  0
  4  5  1  0  0  0  0
  5  7  1  0  0  0  0
  5  6  1  0  0  0  0
  7  1  1  6  0  0  0
  8  7  1  0  0  0  0
  9  4  1  0  0  0  0
  9  8  1  0  0  0  0
  9 10  1  0  0  0  0
 12 11  1  0  0  0  0
 13 14  2  0  0  0  0
 14  1  1  0  0  0  0
 15 20  1  0  0  0  0
 16 17  1  0  0  0  0
 16 15  2  0  0  0  0
 17 18  2  0  0  0  0
 18 19  1  0  0  0  0
 19 13  1  0  0  0  0
 20 19  2  0  0  0  0
 21 15  1  0  0  0  0
 22 16  1  0  0  0  0
 23 17  1  0  0  0  0
M  END
>  <minimizedAffinity>
-4.31776333

$$$$

 OpenBabel03242513203D

 23 24  0  0  1  0  0  0  0  0999 V2000
   34.6130   29.0070   38.3160 C   0  0  0  0  0  0  0  0  0  0  0  0
   33.6100   28.8340   38.7090 H   0  0  0  0  0  0  0  0  0  0  0  0
   34.6710   30.1030   38.0870 H   0  0  0  0  0  0  0  0  0  0  0  0
   36.5610   29.2380   35.6580 C   0  0  2  0  0  3  0  0  0  0  0  0
   36.3180   28.2290   36.7590 C   0  0  0  0  0  3  0  0  0  0  0  0
   36.6560   27.2370   36.4050 H   0  0  0  0  0  0  0  0  0  0  0  0
   34.8510   28.3250   36.9840 C   0  0  2  0  0  3  0  0  0  0  0  0
   34.2710   29.1170   36.0170 O   0  0  0  0  0  0  0  0  0  0  0  0
   35.2040   29.3050   35.0090 C   0  0  0  0  0  3  0  0  0  0  0  0
   35.1480   28.4460   34.3000 H   0  0  0  0  0  0  0  0  0  0  0  0
   37.4910   28.7560   34.7120 O   0  0  0  0  0  0  0  0  0  0  0  0
   37.3620   29.1880   33.8390 H   0  0  0  0  0  0  0  0  0  0  0  0
   35.4700   28.8360   40.5790 C   0  0  0  0  0  3  0  0  0  0  0  0
   35.6690   28.6330   39.3090 C   0  0  0  0  0  3  0  0  0  0  0  0
   37.7520   26.8980   42.7240 C   0  0  0  0  0  0  0  0  0  0  0  0
   38.4790   27.9090   43.3850 C   0  0  0  0  0  0  0  0  0  0  0  0
   38.1540   29.2170   43.0640 C   0  0  0  0  0  0  0  0  0  0  0  0
   37.1770   29.4600   42.1540 N   0  0  0  0  0  0  0  0  0  0  0  0
   36.4990   28.4710   41.5400 C   0  0  0  0  0  0  0  0  0  0  0  0
   36.7910   27.2090   41.8270 N   0  0  0  0  0  0  0  0  0  0  0  0
   37.9670   25.8500   42.9400 H   0  0  0  0  0  0  0  0  0  0  0  0
   39.2450   27.6690   44.1000 H   0  0  0  0  0  0  0  0  0  0  0  0
   38.6620   30.0510   43.5240 H   0  0  0  0  0  0  0  0  0  0  0  0
  1  2  1  0  0  0  0
  1 14  1  0  0  0  0
  3  1  1  0  0  0  0
  4 11  1  6  0  0  0
  4  5  1  0  0  0  0
  5  7  1  0  0  0  0
  6  5  1  0  0  0  0
  7  1  1  1  0  0  0
  8  7  1  0  0  0  0
  9  4  1  0  0  0  0
  9  8  1  0  0  0  0
 10  9  1  0  0  0  0
 12 11  1  0  0  0  0
 13 19  1  0  0  0  0
 14 13  2  0  0  0  0
 15 21  1  0  0  0  0
 15 16  1  0  0  0  0
 16 22  1  0  0  0  0
 17 16  2  0  0  0  0
 17 23  1  0  0  0  0
 18 17  1  0  0  0  0
 19 20  1  0  0  0  0
 19 18  2  0  0  0  0
 20 15  2  0  0  0  0
M  END
>  <minimizedAffinity>
-4.203866

$$$$

 OpenBabel03242513203D

 23 24  0  0  1  0  0  0  0  0999 V2000
   36.5400   30.6480   40.1150 C   0  0  0  0  0  0  0  0  0  0  0  0
   35.6240   30.9830   39.6240 H   0  0  0  0  0  0  0  0  0  0  0  0
   36.4730   31.0090   41.1750 H   0  0  0  0  0  0  0  0  0  0  0  0
   37.8940   31.4910   37.2220 C   0  0  2  0  0  3  0  0  0  0  0  0
   37.3810   32.2130   38.4490 C   0  0  0  0  0  3  0  0  0  0  0  0
   37.8500   33.2150   38.4860 H   0  0  0  0  0  0  0  0  0  0  0  0
   37.7840   31.3130   39.5620 C   0  0  2  0  0  3  0  0  0  0  0  0
   38.6020   30.3090   39.0910 O   0  0  0  0  0  0  0  0  0  0  0  0
   39.0010   30.6550   37.8090 C   0  0  0  0  0  3  0  0  0  0  0  0
   39.8970   31.3160   37.8760 H   0  0  0  0  0  0  0  0  0  0  0  0
   38.4530   32.3900   36.2890 O   0  0  0  0  0  0  0  0  0  0  0  0
   39.1130   31.9400   35.7180 H   0  0  0  0  0  0  0  0  0  0  0  0
   36.6200   28.4780   41.1950 C   0  0  0  0  0  3  0  0  0  0  0  0
   36.6700   29.1570   40.0860 C   0  0  0  0  0  3  0  0  0  0  0  0
   37.1490   24.9700   42.1840 C   0  0  0  0  0  0  0  0  0  0  0  0
   36.9570   24.2790   40.9700 C   0  0  0  0  0  0  0  0  0  0  0  0
   36.6520   25.0510   39.8610 C   0  0  0  0  0  0  0  0  0  0  0  0
   36.5560   26.3990   39.9880 N   0  0  0  0  0  0  0  0  0  0  0  0
   36.7460   27.0290   41.1630 C   0  0  0  0  0  0  0  0  0  0  0  0
   37.0380   26.3150   42.2420 N   0  0  0  0  0  0  0  0  0  0  0  0
   37.3920   24.4100   43.0900 H   0  0  0  0  0  0  0  0  0  0  0  0
   37.0440   23.2100   40.9160 H   0  0  0  0  0  0  0  0  0  0  0  0
   36.4900   24.6030   38.8930 H   0  0  0  0  0  0  0  0  0  0  0  0
  1  3  1  0  0  0  0
  2  1  1  0  0  0  0
  4 11  1  6  0  0  0
  4  9  1  0  0  0  0
  4  5  1  0  0  0  0
  5  6  1  0  0  0  0
  5  7  1  0  0  0  0
  7  1  1  6  0  0  0
  8  7  1  0  0  0  0
  9 10  1  0  0  0  0
  9  8  1  0  0  0  0
 12 11  1  0  0  0  0
 14  1  1  0  0  0  0
 14 13  2  0  0  0  0
 15 20  1  0  0  0  0
 15 21  1  0  0  0  0
 16 15  2  0  0  0  0
 17 18  2  0  0  0  0
 17 16  1  0  0  0  0
 18 19  1  0  0  0  0
 19 13  1  0  0  0  0
 19 20  2  0  0  0  0
 22 16  1  0  0  0  0
 23 17  1  0  0  0  0
M  END
>  <minimizedAffinity>
-4.16465378

$$$$

 OpenBabel03242513203D

 23 24  0  0  1  0  0  0  0  0999 V2000
   38.7560   31.7530   38.0790 C   0  0  0  0  0  0  0  0  0  0  0  0
   38.6430   32.7460   38.5180 H   0  0  0  0  0  0  0  0  0  0  0  0
   38.2000   31.7790   37.1050 H   0  0  0  0  0  0  0  0  0  0  0  0
   36.7720   31.4120   40.6980 C   0  0  2  0  0  3  0  0  0  0  0  0
   36.6930   31.1310   39.2140 C   0  0  0  0  0  3  0  0  0  0  0  0
   35.9080   30.3680   39.0440 H   0  0  0  0  0  0  0  0  0  0  0  0
   38.0670   30.6700   38.8840 C   0  0  2  0  0  3  0  0  0  0  0  0
   38.8010   30.4970   40.0380 O   0  0  0  0  0  0  0  0  0  0  0  0
   37.9210   30.5280   41.1080 C   0  0  0  0  0  3  0  0  0  0  0  0
   37.4980   29.5070   41.2570 H   0  0  0  0  0  0  0  0  0  0  0  0
   35.6080   30.9810   41.3690 O   0  0  0  0  0  0  0  0  0  0  0  0
   35.7960   30.7910   42.3140 H   0  0  0  0  0  0  0  0  0  0  0  0
   40.9760   32.2680   37.2470 C   0  0  0  0  0  3  0  0  0  0  0  0
   40.1940   31.4130   37.8400 C   0  0  0  0  0  3  0  0  0  0  0  0
   44.6580   32.3310   37.2710 C   0  0  0  0  0  0  0  0  0  0  0  0
   44.9860   31.1900   36.5110 C   0  0  0  0  0  0  0  0  0  0  0  0
   43.9250   30.4460   36.0220 C   0  0  0  0  0  0  0  0  0  0  0  0
   42.6530   30.8370   36.2870 N   0  0  0  0  0  0  0  0  0  0  0  0
   42.3720   31.9340   37.0170 C   0  0  0  0  0  0  0  0  0  0  0  0
   43.3690   32.6650   37.4990 N   0  0  0  0  0  0  0  0  0  0  0  0
   45.4560   32.9540   37.6800 H   0  0  0  0  0  0  0  0  0  0  0  0
   46.0090   30.9190   36.3240 H   0  0  0  0  0  0  0  0  0  0  0  0
   44.0880   29.5580   35.4300 H   0  0  0  0  0  0  0  0  0  0  0  0
  1  2  1  0  0  0  0
  3  1  1  0  0  0  0
  4  9  1  0  0  0  0
  4 11  1  1  0  0  0
  5  4  1  0  0  0  0
  6  5  1  0  0  0  0
  7  1  1  6  0  0  0
  7  5  1  0  0  0  0
  7  8  1  0  0  0  0
  8  9  1  0  0  0  0
  9 10  1  0  0  0  0
 11 12  1  0  0  0  0
 13 14  2  0  0  0  0
 14  1  1  0  0  0  0
 15 20  1  0  0  0  0
 15 21  1  0  0  0  0
 16 15  2  0  0  0  0
 17 18  2  0  0  0  0
 17 16  1  0  0  0  0
 18 19  1  0  0  0  0
 19 13  1  0  0  0  0
 19 20  2  0  0  0  0
 22 16  1  0  0  0  0
 23 17  1  0  0  0  0
M  END
>  <minimizedAffinity>
-4.16012716

$$$$
