
 OpenBabel03252508303D

 39 42  0  0  1  0  0  0  0  0999 V2000
   37.6990   30.8720   38.6210 N   0  0  0  0  0  0  0  0  0  0  0  0
   36.6140   30.6140   39.5730 C   0  0  2  0  0  0  0  0  0  0  0  0
   36.4570   31.7150   40.5620 C   0  0  0  0  0  0  0  0  0  0  0  0
   37.1960   32.9010   40.1960 N   0  0  0  0  0  0  0  0  0  0  0  0
   38.5520   32.6790   39.8430 C   0  0  0  0  0  0  0  0  0  0  0  0
   38.8430   31.2470   39.4380 C   0  0  2  0  0  0  0  0  0  0  0  0
   37.8390   30.0370   38.0580 H   0  0  0  0  0  0  0  0  0  0  0  0
   35.6960   30.4160   38.9630 H   0  0  0  0  0  0  0  0  0  0  0  0
   35.3840   31.9970   40.5810 H   0  0  0  0  0  0  0  0  0  0  0  0
   36.8630   31.5300   41.5730 H   0  0  0  0  0  0  0  0  0  0  0  0
   36.6770   33.5940   39.6470 H   0  0  0  0  0  0  0  0  0  0  0  0
   39.1480   32.9860   40.7480 H   0  0  0  0  0  0  0  0  0  0  0  0
   38.7580   33.3330   38.9620 H   0  0  0  0  0  0  0  0  0  0  0  0
   38.8330   30.6610   40.3820 H   0  0  0  0  0  0  0  0  0  0  0  0
   37.4770   27.3270   40.7690 C   0  0  0  0  0  0  0  0  0  0  0  0
   37.2640   28.0680   41.9390 C   0  0  0  0  0  0  0  0  0  0  0  0
   36.9140   29.3650   41.6120 C   0  0  0  0  0  0  0  0  0  0  0  0
   36.9220   29.3880   40.2820 N   0  0  0  0  0  0  0  0  0  0  0  0
   37.2480   28.2060   39.7940 N   0  0  0  0  0  0  0  0  0  0  0  0
   37.3960   27.5470   42.9030 H   0  0  0  0  0  0  0  0  0  0  0  0
   36.7420   29.9340   42.5190 H   0  0  0  0  0  0  0  0  0  0  0  0
   37.6050   23.5950   41.2300 C   0  0  0  0  0  0  0  0  0  0  0  0
   37.1230   24.9340   41.3850 C   0  0  0  0  0  0  0  0  0  0  0  0
   37.8510   25.9130   40.7180 C   0  0  0  0  0  0  0  0  0  0  0  0
   38.9350   25.5760   39.9850 N   0  0  0  0  0  0  0  0  0  0  0  0
   39.3580   24.2930   39.8650 C   0  0  0  0  0  0  0  0  0  0  0  0
   38.6870   23.3320   40.4880 N   0  0  0  0  0  0  0  0  0  0  0  0
   37.0500   22.8230   41.7420 H   0  0  0  0  0  0  0  0  0  0  0  0
   36.2650   25.1950   41.9660 H   0  0  0  0  0  0  0  0  0  0  0  0
   40.2260   24.1350   39.2620 H   0  0  0  0  0  0  0  0  0  0  0  0
   40.2820   31.7220   37.4090 C   0  0  2  0  0  3  0  0  0  0  0  0
   40.1160   31.0640   38.7270 C   0  0  1  0  0  3  0  0  0  0  0  0
   41.2660   31.6650   39.4980 C   0  0  0  0  0  3  0  0  0  0  0  0
   41.0980   31.7410   40.5670 H   0  0  0  0  0  0  0  0  0  0  0  0
   41.2370   32.9950   39.0140 O   0  0  0  0  0  0  0  0  0  0  0  0
   41.3630   32.7630   37.6580 C   0  0  0  0  0  3  0  0  0  0  0  0
   42.3800   32.3620   37.4650 H   0  0  0  0  0  0  0  0  0  0  0  0
   39.2300   32.3580   36.8500 O   0  0  0  0  0  0  0  0  0  0  0  0
   38.8840   31.8330   36.0790 H   0  0  0  0  0  0  0  0  0  0  0  0
  1  6  1  0  0  0  0
  1  2  1  0  0  0  0
  2  8  1  6  0  0  0
  2 18  1  0  0  0  0
  2  3  1  0  0  0  0
  3  9  1  0  0  0  0
  3 10  1  0  0  0  0
  4  3  1  0  0  0  0
  5  4  1  0  0  0  0
  5 12  1  0  0  0  0
  6  5  1  0  0  0  0
  6 14  1  1  0  0  0
  7  1  1  0  0  0  0
 11  4  1  0  0  0  0
 13  5  1  0  0  0  0
 15 16  1  0  0  0  0
 16 20  1  0  0  0  0
 17 16  2  0  0  0  0
 17 21  1  0  0  0  0
 18 17  1  0  0  0  0
 19 18  1  0  0  0  0
 19 15  2  0  0  0  0
 22 23  1  0  0  0  0
 22 28  1  0  0  0  0
 23 29  1  0  0  0  0
 24 15  1  0  0  0  0
 24 23  2  0  0  0  0
 25 24  1  0  0  0  0
 26 25  2  0  0  0  0
 26 27  1  0  0  0  0
 27 22  2  0  0  0  0
 30 26  1  0  0  0  0
 31 38  1  1  0  0  0
 31 36  1  0  0  0  0
 31 32  1  0  0  0  0
 32  6  1  0  0  0  0
 32 33  1  1  0  0  0
 33 34  1  0  0  0  0
 35 33  1  0  0  0  0
 36 35  1  0  0  0  0
 37 36  1  0  0  0  0
 39 38  1  0  0  0  0
M  END
>  <minimizedAffinity>
-5.58826447

$$$$

 OpenBabel03252508303D

 39 42  0  0  1  0  0  0  0  0999 V2000
   39.1060   31.5330   39.5750 N   0  0  0  0  0  0  0  0  0  0  0  0
   37.7510   30.9900   39.7250 C   0  0  2  0  0  0  0  0  0  0  0  0
   36.7720   32.0260   40.1530 C   0  0  0  0  0  0  0  0  0  0  0  0
   37.2980   33.3670   40.0430 N   0  0  0  0  0  0  0  0  0  0  0  0
   38.5770   33.5600   40.6230 C   0  0  0  0  0  0  0  0  0  0  0  0
   39.3590   32.2720   40.8020 C   0  0  2  0  0  0  0  0  0  0  0  0
   39.7460   30.7610   39.4080 H   0  0  0  0  0  0  0  0  0  0  0  0
   37.4970   30.4960   38.7530 H   0  0  0  0  0  0  0  0  0  0  0  0
   35.9010   31.9640   39.4680 H   0  0  0  0  0  0  0  0  0  0  0  0
   36.4750   32.0130   41.2170 H   0  0  0  0  0  0  0  0  0  0  0  0
   37.1080   33.8440   39.1560 H   0  0  0  0  0  0  0  0  0  0  0  0
   38.3820   34.0690   41.6090 H   0  0  0  0  0  0  0  0  0  0  0  0
   39.1460   34.2110   39.9190 H   0  0  0  0  0  0  0  0  0  0  0  0
   38.8810   31.7480   41.6570 H   0  0  0  0  0  0  0  0  0  0  0  0
   38.3090   28.1440   41.8640 C   0  0  0  0  0  0  0  0  0  0  0  0
   37.3410   28.8940   42.5440 C   0  0  0  0  0  0  0  0  0  0  0  0
   37.0300   30.0260   41.8130 C   0  0  0  0  0  0  0  0  0  0  0  0
   37.7980   29.9450   40.7300 N   0  0  0  0  0  0  0  0  0  0  0  0
   38.5390   28.8530   40.7590 N   0  0  0  0  0  0  0  0  0  0  0  0
   36.9810   28.5040   43.5120 H   0  0  0  0  0  0  0  0  0  0  0  0
   36.2750   30.6010   42.3380 H   0  0  0  0  0  0  0  0  0  0  0  0
   40.2880   25.5100   43.6800 C   0  0  0  0  0  0  0  0  0  0  0  0
   39.8370   26.8220   43.3290 C   0  0  0  0  0  0  0  0  0  0  0  0
   38.8760   26.8760   42.3250 C   0  0  0  0  0  0  0  0  0  0  0  0
   38.4290   25.7400   41.7470 N   0  0  0  0  0  0  0  0  0  0  0  0
   38.8840   24.5150   42.1100 C   0  0  0  0  0  0  0  0  0  0  0  0
   39.8010   24.4250   43.0650 N   0  0  0  0  0  0  0  0  0  0  0  0
   41.0330   25.4510   44.4580 H   0  0  0  0  0  0  0  0  0  0  0  0
   40.1940   27.7170   43.7890 H   0  0  0  0  0  0  0  0  0  0  0  0
   38.4640   23.6810   41.5900 H   0  0  0  0  0  0  0  0  0  0  0  0
   41.6810   31.2770   40.9790 C   0  0  2  0  0  3  0  0  0  0  0  0
   40.7950   32.4640   41.0480 C   0  0  1  0  0  3  0  0  0  0  0  0
   41.4180   33.3520   39.9990 C   0  0  0  0  0  3  0  0  0  0  0  0
   40.7220   34.0310   39.5160 H   0  0  0  0  0  0  0  0  0  0  0  0
   41.7590   32.3930   39.0150 O   0  0  0  0  0  0  0  0  0  0  0  0
   42.5560   31.5500   39.7640 C   0  0  0  0  0  3  0  0  0  0  0  0
   43.4850   32.0940   40.0330 H   0  0  0  0  0  0  0  0  0  0  0  0
   41.1360   30.0530   40.8160 O   0  0  0  0  0  0  0  0  0  0  0  0
   41.2020   29.5350   41.6640 H   0  0  0  0  0  0  0  0  0  0  0  0
  1  2  1  0  0  0  0
  1  6  1  0  0  0  0
  2  8  1  6  0  0  0
  2  3  1  0  0  0  0
  2 18  1  0  0  0  0
  3 10  1  0  0  0  0
  4  3  1  0  0  0  0
  4  5  1  0  0  0  0
  5  6  1  0  0  0  0
  5 12  1  0  0  0  0
  6 32  1  0  0  0  0
  6 14  1  1  0  0  0
  7  1  1  0  0  0  0
  9  3  1  0  0  0  0
 11  4  1  0  0  0  0
 13  5  1  0  0  0  0
 15 24  1  0  0  0  0
 15 16  1  0  0  0  0
 16 20  1  0  0  0  0
 17 21  1  0  0  0  0
 17 16  2  0  0  0  0
 18 19  1  0  0  0  0
 18 17  1  0  0  0  0
 19 15  2  0  0  0  0
 22 28  1  0  0  0  0
 23 22  1  0  0  0  0
 23 29  1  0  0  0  0
 24 23  2  0  0  0  0
 25 26  2  0  0  0  0
 25 24  1  0  0  0  0
 26 27  1  0  0  0  0
 27 22  2  0  0  0  0
 30 26  1  0  0  0  0
 31 38  1  6  0  0  0
 31 32  1  0  0  0  0
 32 33  1  6  0  0  0
 34 33  1  0  0  0  0
 35 36  1  0  0  0  0
 35 33  1  0  0  0  0
 36 37  1  0  0  0  0
 36 31  1  0  0  0  0
 38 39  1  0  0  0  0
M  END
>  <minimizedAffinity>
-5.36617613

$$$$

 OpenBabel03252508303D

 39 42  0  0  1  0  0  0  0  0999 V2000
   35.5610   28.5350   40.6710 N   0  0  0  0  0  0  0  0  0  0  0  0
   35.4620   29.4770   39.5520 C   0  0  2  0  0  0  0  0  0  0  0  0
   35.6170   28.8060   38.2320 C   0  0  0  0  0  0  0  0  0  0  0  0
   35.5380   27.3660   38.3290 N   0  0  0  0  0  0  0  0  0  0  0  0
   36.3560   26.7860   39.3310 C   0  0  0  0  0  0  0  0  0  0  0  0
   36.7670   27.7630   40.4150 C   0  0  2  0  0  0  0  0  0  0  0  0
   35.5760   29.0640   41.5380 H   0  0  0  0  0  0  0  0  0  0  0  0
   34.4900   30.0180   39.6770 H   0  0  0  0  0  0  0  0  0  0  0  0
   34.7720   29.1330   37.5910 H   0  0  0  0  0  0  0  0  0  0  0  0
   36.5960   28.9200   37.7340 H   0  0  0  0  0  0  0  0  0  0  0  0
   34.6040   26.9650   38.1960 H   0  0  0  0  0  0  0  0  0  0  0  0
   37.2480   26.3710   38.7820 H   0  0  0  0  0  0  0  0  0  0  0  0
   35.7460   25.9820   39.8080 H   0  0  0  0  0  0  0  0  0  0  0  0
   37.5360   28.4180   39.9520 H   0  0  0  0  0  0  0  0  0  0  0  0
   38.2780   31.7180   39.3760 C   0  0  0  0  0  0  0  0  0  0  0  0
   37.6400   32.0700   40.5720 C   0  0  0  0  0  0  0  0  0  0  0  0
   36.5310   31.2670   40.7620 C   0  0  0  0  0  0  0  0  0  0  0  0
   36.5150   30.4620   39.7030 N   0  0  0  0  0  0  0  0  0  0  0  0
   37.5300   30.7240   38.8990 N   0  0  0  0  0  0  0  0  0  0  0  0
   38.0810   32.8910   41.1630 H   0  0  0  0  0  0  0  0  0  0  0  0
   36.0420   31.5360   41.6920 H   0  0  0  0  0  0  0  0  0  0  0  0
   41.2650   33.9390   38.8290 C   0  0  0  0  0  0  0  0  0  0  0  0
   40.0750   33.4490   39.4540 C   0  0  0  0  0  0  0  0  0  0  0  0
   39.4930   32.3410   38.8480 C   0  0  0  0  0  0  0  0  0  0  0  0
   40.0490   31.7990   37.7420 N   0  0  0  0  0  0  0  0  0  0  0  0
   41.1800   32.2950   37.1820 C   0  0  0  0  0  0  0  0  0  0  0  0
   41.7630   33.3510   37.7340 N   0  0  0  0  0  0  0  0  0  0  0  0
   41.7290   34.7990   39.2880 H   0  0  0  0  0  0  0  0  0  0  0  0
   39.6390   33.8830   40.3280 H   0  0  0  0  0  0  0  0  0  0  0  0
   41.5360   31.7900   36.3100 H   0  0  0  0  0  0  0  0  0  0  0  0
   38.6990   27.4020   42.0130 C   0  0  2  0  0  3  0  0  0  0  0  0
   37.2910   27.1320   41.6340 C   0  0  1  0  0  3  0  0  0  0  0  0
   36.5620   27.6190   42.8620 C   0  0  0  0  0  3  0  0  0  0  0  0
   35.5570   27.9830   42.6720 H   0  0  0  0  0  0  0  0  0  0  0  0
   37.3270   28.7670   43.1810 O   0  0  0  0  0  0  0  0  0  0  0  0
   38.5790   28.1970   43.3050 C   0  0  0  0  0  3  0  0  0  0  0  0
   38.5780   27.5400   44.1990 H   0  0  0  0  0  0  0  0  0  0  0  0
   39.4850   28.1100   41.1740 O   0  0  0  0  0  0  0  0  0  0  0  0
   40.1530   27.5110   40.7440 H   0  0  0  0  0  0  0  0  0  0  0  0
  1  7  1  0  0  0  0
  2  8  1  1  0  0  0
  2 18  1  0  0  0  0
  2  1  1  0  0  0  0
  3  4  1  0  0  0  0
  3  2  1  0  0  0  0
  4  5  1  0  0  0  0
  5 13  1  0  0  0  0
  5  6  1  0  0  0  0
  6 14  1  6  0  0  0
  6  1  1  0  0  0  0
  6 32  1  0  0  0  0
  9  3  1  0  0  0  0
 10  3  1  0  0  0  0
 11  4  1  0  0  0  0
 12  5  1  0  0  0  0
 15 16  1  0  0  0  0
 16 17  2  0  0  0  0
 16 20  1  0  0  0  0
 17 21  1  0  0  0  0
 18 17  1  0  0  0  0
 19 15  2  0  0  0  0
 19 18  1  0  0  0  0
 22 28  1  0  0  0  0
 22 23  1  0  0  0  0
 23 29  1  0  0  0  0
 24 15  1  0  0  0  0
 24 23  2  0  0  0  0
 25 24  1  0  0  0  0
 26 27  1  0  0  0  0
 26 25  2  0  0  0  0
 27 22  2  0  0  0  0
 30 26  1  0  0  0  0
 31 38  1  6  0  0  0
 31 36  1  0  0  0  0
 32 31  1  0  0  0  0
 32 33  1  1  0  0  0
 33 35  1  0  0  0  0
 34 33  1  0  0  0  0
 35 36  1  0  0  0  0
 36 37  1  0  0  0  0
 39 38  1  0  0  0  0
M  END
>  <minimizedAffinity>
-5.31150007

$$$$

 OpenBabel03252508303D

 39 42  0  0  1  0  0  0  0  0999 V2000
   40.0700   29.6300   41.1580 N   0  0  0  0  0  0  0  0  0  0  0  0
   40.2340   30.6690   40.1360 C   0  0  2  0  0  0  0  0  0  0  0  0
   40.5550   31.9970   40.7260 C   0  0  0  0  0  0  0  0  0  0  0  0
   40.9170   31.9110   42.1230 N   0  0  0  0  0  0  0  0  0  0  0  0
   40.0240   31.1610   42.9300 C   0  0  0  0  0  0  0  0  0  0  0  0
   39.1590   30.1990   42.1380 C   0  0  2  0  0  0  0  0  0  0  0  0
   39.7300   28.7850   40.7070 H   0  0  0  0  0  0  0  0  0  0  0  0
   41.0060   30.2900   39.4190 H   0  0  0  0  0  0  0  0  0  0  0  0
   41.4390   32.3960   40.1880 H   0  0  0  0  0  0  0  0  0  0  0  0
   39.7260   32.7250   40.7780 H   0  0  0  0  0  0  0  0  0  0  0  0
   41.9180   31.8100   42.3140 H   0  0  0  0  0  0  0  0  0  0  0  0
   39.4040   31.9280   43.4760 H   0  0  0  0  0  0  0  0  0  0  0  0
   40.6570   30.5610   43.6250 H   0  0  0  0  0  0  0  0  0  0  0  0
   38.4040   30.8300   41.6220 H   0  0  0  0  0  0  0  0  0  0  0  0
   37.1230   30.3060   38.3550 C   0  0  0  0  0  0  0  0  0  0  0  0
   37.3240   31.6910   38.4040 C   0  0  0  0  0  0  0  0  0  0  0  0
   38.5070   31.9660   39.0660 C   0  0  0  0  0  0  0  0  0  0  0  0
   38.9890   30.7720   39.4000 N   0  0  0  0  0  0  0  0  0  0  0  0
   38.1860   29.8090   38.9870 N   0  0  0  0  0  0  0  0  0  0  0  0
   36.5590   32.3340   37.9370 H   0  0  0  0  0  0  0  0  0  0  0  0
   38.6650   33.0380   39.0960 H   0  0  0  0  0  0  0  0  0  0  0  0
   33.8660   28.5360   37.7100 C   0  0  0  0  0  0  0  0  0  0  0  0
   34.9100   29.1550   38.4670 C   0  0  0  0  0  0  0  0  0  0  0  0
   35.9830   29.6370   37.7250 C   0  0  0  0  0  0  0  0  0  0  0  0
   35.9950   29.5050   36.3810 N   0  0  0  0  0  0  0  0  0  0  0  0
   34.9830   28.9110   35.7010 C   0  0  0  0  0  0  0  0  0  0  0  0
   33.9430   28.4400   36.3760 N   0  0  0  0  0  0  0  0  0  0  0  0
   33.0250   28.1570   38.2710 H   0  0  0  0  0  0  0  0  0  0  0  0
   34.8950   29.2560   39.5310 H   0  0  0  0  0  0  0  0  0  0  0  0
   35.0930   28.8600   34.6390 H   0  0  0  0  0  0  0  0  0  0  0  0
   37.0820   28.8480   42.6660 C   0  0  2  0  0  3  0  0  0  0  0  0
   38.5020   29.1660   42.9510 C   0  0  1  0  0  3  0  0  0  0  0  0
   39.1470   27.8160   42.7500 C   0  0  0  0  0  3  0  0  0  0  0  0
   40.1810   27.8580   42.4230 H   0  0  0  0  0  0  0  0  0  0  0  0
   38.4150   27.3420   41.6340 O   0  0  0  0  0  0  0  0  0  0  0  0
   37.1300   27.4230   42.1350 C   0  0  0  0  0  3  0  0  0  0  0  0
   37.0230   26.6730   42.9460 H   0  0  0  0  0  0  0  0  0  0  0  0
   36.4070   29.5920   41.7640 O   0  0  0  0  0  0  0  0  0  0  0  0
   35.7490   30.1780   42.2280 H   0  0  0  0  0  0  0  0  0  0  0  0
  1  6  1  0  0  0  0
  2  8  1  6  0  0  0
  2  3  1  0  0  0  0
  2  1  1  0  0  0  0
  3 10  1  0  0  0  0
  3  4  1  0  0  0  0
  4 11  1  0  0  0  0
  4  5  1  0  0  0  0
  5 12  1  0  0  0  0
  5 13  1  0  0  0  0
  6 14  1  6  0  0  0
  6  5  1  0  0  0  0
  6 32  1  0  0  0  0
  7  1  1  0  0  0  0
  9  3  1  0  0  0  0
 15 16  1  0  0  0  0
 15 19  2  0  0  0  0
 16 17  2  0  0  0  0
 17 21  1  0  0  0  0
 17 18  1  0  0  0  0
 18  2  1  0  0  0  0
 19 18  1  0  0  0  0
 20 16  1  0  0  0  0
 22 28  1  0  0  0  0
 22 23  1  0  0  0  0
 23 29  1  0  0  0  0
 24 15  1  0  0  0  0
 24 23  2  0  0  0  0
 25 24  1  0  0  0  0
 26 27  1  0  0  0  0
 26 25  2  0  0  0  0
 27 22  2  0  0  0  0
 30 26  1  0  0  0  0
 31 38  1  6  0  0  0
 31 32  1  0  0  0  0
 32 33  1  6  0  0  0
 34 33  1  0  0  0  0
 35 36  1  0  0  0  0
 35 33  1  0  0  0  0
 36 31  1  0  0  0  0
 36 37  1  0  0  0  0
 38 39  1  0  0  0  0
M  END
>  <minimizedAffinity>
-5.23273802

$$$$

 OpenBabel03252508303D

 39 42  0  0  1  0  0  0  0  0999 V2000
   36.2060   30.8920   39.7060 N   0  0  0  0  0  0  0  0  0  0  0  0
   37.0230   31.5600   40.7230 C   0  0  2  0  0  0  0  0  0  0  0  0
   37.8540   32.6550   40.1510 C   0  0  0  0  0  0  0  0  0  0  0  0
   37.4620   33.0040   38.8050 N   0  0  0  0  0  0  0  0  0  0  0  0
   37.3240   31.9080   37.9160 C   0  0  0  0  0  0  0  0  0  0  0  0
   37.1250   30.5810   38.6220 C   0  0  2  0  0  0  0  0  0  0  0  0
   35.7640   30.0810   40.1290 H   0  0  0  0  0  0  0  0  0  0  0  0
   36.3190   31.8950   41.5270 H   0  0  0  0  0  0  0  0  0  0  0  0
   37.6940   33.5570   40.7780 H   0  0  0  0  0  0  0  0  0  0  0  0
   38.9240   32.4310   39.9970 H   0  0  0  0  0  0  0  0  0  0  0  0
   36.7740   33.7600   38.7270 H   0  0  0  0  0  0  0  0  0  0  0  0
   38.2630   31.9130   37.2930 H   0  0  0  0  0  0  0  0  0  0  0  0
   36.4140   32.1120   37.3050 H   0  0  0  0  0  0  0  0  0  0  0  0
   38.1180   30.3130   39.0420 H   0  0  0  0  0  0  0  0  0  0  0  0
   38.7600   28.6880   42.0330 C   0  0  0  0  0  0  0  0  0  0  0  0
   39.6430   29.7500   42.2610 C   0  0  0  0  0  0  0  0  0  0  0  0
   39.0830   30.9290   41.8030 C   0  0  0  0  0  0  0  0  0  0  0  0
   37.8990   30.5680   41.3150 N   0  0  0  0  0  0  0  0  0  0  0  0
   37.7120   29.2680   41.4490 N   0  0  0  0  0  0  0  0  0  0  0  0
   40.6070   29.5160   42.7460 H   0  0  0  0  0  0  0  0  0  0  0  0
   39.7650   31.7510   41.9890 H   0  0  0  0  0  0  0  0  0  0  0  0
   39.9770   25.5320   43.6800 C   0  0  0  0  0  0  0  0  0  0  0  0
   39.8480   26.9360   43.4400 C   0  0  0  0  0  0  0  0  0  0  0  0
   39.0030   27.2900   42.3930 C   0  0  0  0  0  0  0  0  0  0  0  0
   38.3680   26.3360   41.6780 N   0  0  0  0  0  0  0  0  0  0  0  0
   38.5190   25.0140   41.9390 C   0  0  0  0  0  0  0  0  0  0  0  0
   39.3170   24.6390   42.9310 N   0  0  0  0  0  0  0  0  0  0  0  0
   40.6290   25.2400   44.4890 H   0  0  0  0  0  0  0  0  0  0  0  0
   40.3530   27.6860   44.0090 H   0  0  0  0  0  0  0  0  0  0  0  0
   37.9700   24.3420   41.3130 H   0  0  0  0  0  0  0  0  0  0  0  0
   37.1510   28.1360   37.9620 C   0  0  2  0  0  3  0  0  0  0  0  0
   36.6190   29.5050   37.7570 C   0  0  1  0  0  3  0  0  0  0  0  0
   35.1430   29.2770   37.9700 C   0  0  0  0  0  3  0  0  0  0  0  0
   34.6070   30.1400   38.3520 H   0  0  0  0  0  0  0  0  0  0  0  0
   35.1740   28.3470   39.0360 O   0  0  0  0  0  0  0  0  0  0  0  0
   35.9480   27.3540   38.4700 C   0  0  0  0  0  3  0  0  0  0  0  0
   35.3720   26.8910   37.6410 H   0  0  0  0  0  0  0  0  0  0  0  0
   38.1580   27.9410   38.8390 O   0  0  0  0  0  0  0  0  0  0  0  0
   39.0040   27.7470   38.3500 H   0  0  0  0  0  0  0  0  0  0  0  0
  1  7  1  0  0  0  0
  1  2  1  0  0  0  0
  2 18  1  0  0  0  0
  2  8  1  1  0  0  0
  3  2  1  0  0  0  0
  3  9  1  0  0  0  0
  4  3  1  0  0  0  0
  5  6  1  0  0  0  0
  5  4  1  0  0  0  0
  6 14  1  1  0  0  0
  6  1  1  0  0  0  0
 10  3  1  0  0  0  0
 11  4  1  0  0  0  0
 12  5  1  0  0  0  0
 13  5  1  0  0  0  0
 15 16  1  0  0  0  0
 15 24  1  0  0  0  0
 16 20  1  0  0  0  0
 17 21  1  0  0  0  0
 17 16  2  0  0  0  0
 18 19  1  0  0  0  0
 18 17  1  0  0  0  0
 19 15  2  0  0  0  0
 22 28  1  0  0  0  0
 23 22  1  0  0  0  0
 23 29  1  0  0  0  0
 24 23  2  0  0  0  0
 25 26  2  0  0  0  0
 25 24  1  0  0  0  0
 26 27  1  0  0  0  0
 27 22  2  0  0  0  0
 30 26  1  0  0  0  0
 31 36  1  0  0  0  0
 31 38  1  1  0  0  0
 32 31  1  0  0  0  0
 32 33  1  1  0  0  0
 32  6  1  0  0  0  0
 33 34  1  0  0  0  0
 33 35  1  0  0  0  0
 36 35  1  0  0  0  0
 37 36  1  0  0  0  0
 39 38  1  0  0  0  0
M  END
>  <minimizedAffinity>
-5.20795393

$$$$

 OpenBabel03252508303D

 39 42  0  0  1  0  0  0  0  0999 V2000
   39.0960   25.5670   40.7600 N   0  0  0  0  0  0  0  0  0  0  0  0
   39.8430   26.2040   41.8500 C   0  0  2  0  0  0  0  0  0  0  0  0
   39.7070   25.4650   43.1350 C   0  0  0  0  0  0  0  0  0  0  0  0
   39.1250   24.1540   42.9630 N   0  0  0  0  0  0  0  0  0  0  0  0
   37.9350   24.1220   42.1910 C   0  0  0  0  0  0  0  0  0  0  0  0
   37.7640   25.3340   41.2960 C   0  0  2  0  0  0  0  0  0  0  0  0
   39.1230   26.1800   39.9500 H   0  0  0  0  0  0  0  0  0  0  0  0
   40.8990   26.3070   41.4930 H   0  0  0  0  0  0  0  0  0  0  0  0
   40.7280   25.3140   43.5420 H   0  0  0  0  0  0  0  0  0  0  0  0
   39.0150   25.8960   43.8800 H   0  0  0  0  0  0  0  0  0  0  0  0
   39.7930   23.3890   42.8280 H   0  0  0  0  0  0  0  0  0  0  0  0
   37.0990   24.0350   42.9410 H   0  0  0  0  0  0  0  0  0  0  0  0
   38.0100   23.2200   41.5380 H   0  0  0  0  0  0  0  0  0  0  0  0
   37.4840   26.1690   41.9730 H   0  0  0  0  0  0  0  0  0  0  0  0
   38.6750   29.6080   41.6780 C   0  0  0  0  0  0  0  0  0  0  0  0
   38.4250   29.2310   43.0040 C   0  0  0  0  0  0  0  0  0  0  0  0
   38.8420   27.9280   43.2040 C   0  0  0  0  0  0  0  0  0  0  0  0
   39.3230   27.5460   42.0240 N   0  0  0  0  0  0  0  0  0  0  0  0
   39.2260   28.5210   41.1400 N   0  0  0  0  0  0  0  0  0  0  0  0
   37.9580   29.9800   43.6670 H   0  0  0  0  0  0  0  0  0  0  0  0
   38.6550   27.6410   44.2330 H   0  0  0  0  0  0  0  0  0  0  0  0
   37.0950   32.4720   39.8190 C   0  0  0  0  0  0  0  0  0  0  0  0
   37.2570   31.1360   40.3030 C   0  0  0  0  0  0  0  0  0  0  0  0
   38.3780   30.9190   41.0990 C   0  0  0  0  0  0  0  0  0  0  0  0
   39.2280   31.9340   41.3690 N   0  0  0  0  0  0  0  0  0  0  0  0
   39.0350   33.1880   40.8900 C   0  0  0  0  0  0  0  0  0  0  0  0
   37.9770   33.4310   40.1280 N   0  0  0  0  0  0  0  0  0  0  0  0
   36.2290   32.6570   39.2010 H   0  0  0  0  0  0  0  0  0  0  0  0
   36.5820   30.3370   40.0860 H   0  0  0  0  0  0  0  0  0  0  0  0
   39.7680   33.9160   41.1640 H   0  0  0  0  0  0  0  0  0  0  0  0
   36.6170   26.2490   39.2320 C   0  0  2  0  0  3  0  0  0  0  0  0
   36.7610   25.1670   40.2350 C   0  0  1  0  0  3  0  0  0  0  0  0
   37.0900   23.9910   39.3480 C   0  0  0  0  0  3  0  0  0  0  0  0
   37.7000   23.2290   39.8220 H   0  0  0  0  0  0  0  0  0  0  0  0
   37.9310   24.6120   38.3940 O   0  0  0  0  0  0  0  0  0  0  0  0
   37.0870   25.6050   37.9360 C   0  0  0  0  0  3  0  0  0  0  0  0
   36.2530   25.1260   37.3820 H   0  0  0  0  0  0  0  0  0  0  0  0
   37.3140   27.3940   39.3900 O   0  0  0  0  0  0  0  0  0  0  0  0
   36.7020   28.1310   39.6600 H   0  0  0  0  0  0  0  0  0  0  0  0
  1  6  1  0  0  0  0
  1  2  1  0  0  0  0
  2  8  1  6  0  0  0
  2 18  1  0  0  0  0
  2  3  1  0  0  0  0
  3  9  1  0  0  0  0
  3 10  1  0  0  0  0
  4  3  1  0  0  0  0
  5 12  1  0  0  0  0
  5  4  1  0  0  0  0
  6 14  1  1  0  0  0
  6  5  1  0  0  0  0
  7  1  1  0  0  0  0
 11  4  1  0  0  0  0
 13  5  1  0  0  0  0
 15 16  1  0  0  0  0
 16 17  2  0  0  0  0
 16 20  1  0  0  0  0
 17 21  1  0  0  0  0
 18 17  1  0  0  0  0
 19 15  2  0  0  0  0
 19 18  1  0  0  0  0
 22 27  2  0  0  0  0
 22 23  1  0  0  0  0
 23 24  2  0  0  0  0
 24 25  1  0  0  0  0
 24 15  1  0  0  0  0
 26 30  1  0  0  0  0
 26 25  2  0  0  0  0
 27 26  1  0  0  0  0
 28 22  1  0  0  0  0
 29 23  1  0  0  0  0
 31 38  1  1  0  0  0
 31 32  1  0  0  0  0
 32 33  1  6  0  0  0
 32  6  1  0  0  0  0
 33 34  1  0  0  0  0
 35 33  1  0  0  0  0
 36 35  1  0  0  0  0
 36 31  1  0  0  0  0
 37 36  1  0  0  0  0
 38 39  1  0  0  0  0
M  END
>  <minimizedAffinity>
-5.15865755

$$$$

 OpenBabel03252508303D

 39 42  0  0  1  0  0  0  0  0999 V2000
   35.9890   28.9860   41.3860 N   0  0  0  0  0  0  0  0  0  0  0  0
   35.8040   30.1240   40.4810 C   0  0  2  0  0  0  0  0  0  0  0  0
   35.5260   29.6950   39.0830 C   0  0  0  0  0  0  0  0  0  0  0  0
   35.2150   28.2880   38.9850 N   0  0  0  0  0  0  0  0  0  0  0  0
   36.1250   27.4240   39.6460 C   0  0  0  0  0  0  0  0  0  0  0  0
   36.9450   28.1170   40.7170 C   0  0  2  0  0  0  0  0  0  0  0  0
   36.2990   29.3370   42.2880 H   0  0  0  0  0  0  0  0  0  0  0  0
   35.0000   30.7600   40.9300 H   0  0  0  0  0  0  0  0  0  0  0  0
   34.6290   30.2490   38.7370 H   0  0  0  0  0  0  0  0  0  0  0  0
   36.3670   29.7650   38.3700 H   0  0  0  0  0  0  0  0  0  0  0  0
   34.2190   28.0510   39.0410 H   0  0  0  0  0  0  0  0  0  0  0  0
   36.7770   27.0010   38.8300 H   0  0  0  0  0  0  0  0  0  0  0  0
   35.5080   26.6370   40.1410 H   0  0  0  0  0  0  0  0  0  0  0  0
   37.6890   28.7350   40.1710 H   0  0  0  0  0  0  0  0  0  0  0  0
   39.0380   31.6500   40.9210 C   0  0  0  0  0  0  0  0  0  0  0  0
   38.4070   32.4640   39.9720 C   0  0  0  0  0  0  0  0  0  0  0  0
   37.1350   31.9820   39.7170 C   0  0  0  0  0  0  0  0  0  0  0  0
   37.0230   30.9100   40.4960 N   0  0  0  0  0  0  0  0  0  0  0  0
   38.1260   30.7180   41.1950 N   0  0  0  0  0  0  0  0  0  0  0  0
   38.9740   33.3260   39.5800 H   0  0  0  0  0  0  0  0  0  0  0  0
   36.6460   32.6180   38.9880 H   0  0  0  0  0  0  0  0  0  0  0  0
   42.5330   32.8960   41.5420 C   0  0  0  0  0  0  0  0  0  0  0  0
   41.2510   32.8060   40.9140 C   0  0  0  0  0  0  0  0  0  0  0  0
   40.3890   31.8540   41.4480 C   0  0  0  0  0  0  0  0  0  0  0  0
   40.7800   31.0870   42.4890 N   0  0  0  0  0  0  0  0  0  0  0  0
   42.0070   31.2050   43.0550 C   0  0  0  0  0  0  0  0  0  0  0  0
   42.8550   32.1030   42.5720 N   0  0  0  0  0  0  0  0  0  0  0  0
   43.2140   33.6300   41.1400 H   0  0  0  0  0  0  0  0  0  0  0  0
   40.9470   33.4150   40.0910 H   0  0  0  0  0  0  0  0  0  0  0  0
   42.2150   30.5500   43.8740 H   0  0  0  0  0  0  0  0  0  0  0  0
   39.0660   27.3890   41.8930 C   0  0  2  0  0  3  0  0  0  0  0  0
   37.6150   27.2040   41.6530 C   0  0  1  0  0  3  0  0  0  0  0  0
   37.0680   27.3530   43.0520 C   0  0  0  0  0  3  0  0  0  0  0  0
   36.0550   27.7380   43.0980 H   0  0  0  0  0  0  0  0  0  0  0  0
   37.8930   28.3930   43.5440 O   0  0  0  0  0  0  0  0  0  0  0  0
   39.1380   27.8280   43.3490 C   0  0  0  0  0  3  0  0  0  0  0  0
   39.2430   26.9650   44.0390 H   0  0  0  0  0  0  0  0  0  0  0  0
   39.7470   28.2980   41.1640 O   0  0  0  0  0  0  0  0  0  0  0  0
   40.3380   27.8370   40.5090 H   0  0  0  0  0  0  0  0  0  0  0  0
  1  7  1  0  0  0  0
  2 18  1  0  0  0  0
  2  8  1  1  0  0  0
  2  1  1  0  0  0  0
  3  2  1  0  0  0  0
  4 11  1  0  0  0  0
  4  3  1  0  0  0  0
  4  5  1  0  0  0  0
  5 13  1  0  0  0  0
  5  6  1  0  0  0  0
  6 14  1  6  0  0  0
  6  1  1  0  0  0  0
  6 32  1  0  0  0  0
  9  3  1  0  0  0  0
 10  3  1  0  0  0  0
 12  5  1  0  0  0  0
 15 19  2  0  0  0  0
 15 24  1  0  0  0  0
 16 15  1  0  0  0  0
 17 16  2  0  0  0  0
 17 18  1  0  0  0  0
 18 19  1  0  0  0  0
 20 16  1  0  0  0  0
 21 17  1  0  0  0  0
 22 27  1  0  0  0  0
 23 24  1  0  0  0  0
 23 22  2  0  0  0  0
 24 25  2  0  0  0  0
 25 26  1  0  0  0  0
 26 30  1  0  0  0  0
 27 26  2  0  0  0  0
 28 22  1  0  0  0  0
 29 23  1  0  0  0  0
 31 38  1  6  0  0  0
 31 36  1  0  0  0  0
 32 31  1  0  0  0  0
 32 33  1  1  0  0  0
 33 34  1  0  0  0  0
 33 35  1  0  0  0  0
 36 35  1  0  0  0  0
 36 37  1  0  0  0  0
 39 38  1  0  0  0  0
M  END
>  <minimizedAffinity>
-5.14398861

$$$$

 OpenBabel03252508303D

 39 42  0  0  1  0  0  0  0  0999 V2000
   36.0130   29.9930   38.9370 N   0  0  0  0  0  0  0  0  0  0  0  0
   35.6860   29.7690   40.3490 C   0  0  2  0  0  0  0  0  0  0  0  0
   36.1780   30.8680   41.2230 C   0  0  0  0  0  0  0  0  0  0  0  0
   36.5990   32.0290   40.4730 N   0  0  0  0  0  0  0  0  0  0  0  0
   37.4800   31.7600   39.3950 C   0  0  0  0  0  0  0  0  0  0  0  0
   37.4300   30.3210   38.9200 C   0  0  2  0  0  0  0  0  0  0  0  0
   35.7670   29.1570   38.4130 H   0  0  0  0  0  0  0  0  0  0  0  0
   34.5800   29.6080   40.3980 H   0  0  0  0  0  0  0  0  0  0  0  0
   35.3300   31.1880   41.8640 H   0  0  0  0  0  0  0  0  0  0  0  0
   37.0940   30.6620   41.8050 H   0  0  0  0  0  0  0  0  0  0  0  0
   35.8790   32.7430   40.3240 H   0  0  0  0  0  0  0  0  0  0  0  0
   38.5040   32.0400   39.7720 H   0  0  0  0  0  0  0  0  0  0  0  0
   37.1510   32.4120   38.5510 H   0  0  0  0  0  0  0  0  0  0  0  0
   37.9570   29.7300   39.6980 H   0  0  0  0  0  0  0  0  0  0  0  0
   37.1860   26.5210   40.7750 C   0  0  0  0  0  0  0  0  0  0  0  0
   37.2620   27.0980   42.0490 C   0  0  0  0  0  0  0  0  0  0  0  0
   36.7050   28.3630   42.0210 C   0  0  0  0  0  0  0  0  0  0  0  0
   36.3120   28.5270   40.7610 N   0  0  0  0  0  0  0  0  0  0  0  0
   36.5910   27.4580   40.0390 N   0  0  0  0  0  0  0  0  0  0  0  0
   37.7280   26.5020   42.8520 H   0  0  0  0  0  0  0  0  0  0  0  0
   36.7580   28.8050   43.0100 H   0  0  0  0  0  0  0  0  0  0  0  0
   37.7130   22.8020   40.5600 C   0  0  0  0  0  0  0  0  0  0  0  0
   37.1540   24.0360   41.0180 C   0  0  0  0  0  0  0  0  0  0  0  0
   37.6650   25.1840   40.4210 C   0  0  0  0  0  0  0  0  0  0  0  0
   38.6250   25.0890   39.4750 N   0  0  0  0  0  0  0  0  0  0  0  0
   39.1280   23.8970   39.0690 C   0  0  0  0  0  0  0  0  0  0  0  0
   38.6640   22.7820   39.6170 N   0  0  0  0  0  0  0  0  0  0  0  0
   37.3260   21.9020   41.0140 H   0  0  0  0  0  0  0  0  0  0  0  0
   36.3950   24.1050   41.7670 H   0  0  0  0  0  0  0  0  0  0  0  0
   39.8840   23.9350   38.3140 H   0  0  0  0  0  0  0  0  0  0  0  0
   38.8650   28.8840   37.4070 C   0  0  2  0  0  3  0  0  0  0  0  0
   38.0350   30.0970   37.5990 C   0  0  1  0  0  3  0  0  0  0  0  0
   36.9810   29.8990   36.5380 C   0  0  0  0  0  3  0  0  0  0  0  0
   36.0220   30.3500   36.7700 H   0  0  0  0  0  0  0  0  0  0  0  0
   36.7760   28.5010   36.6330 O   0  0  0  0  0  0  0  0  0  0  0  0
   38.0640   28.0520   36.4160 C   0  0  0  0  0  3  0  0  0  0  0  0
   38.3400   28.2770   35.3640 H   0  0  0  0  0  0  0  0  0  0  0  0
   39.1380   28.0940   38.4680 O   0  0  0  0  0  0  0  0  0  0  0  0
   40.0920   28.1970   38.7330 H   0  0  0  0  0  0  0  0  0  0  0  0
  1  2  1  0  0  0  0
  2  8  1  1  0  0  0
  2 18  1  0  0  0  0
  2  3  1  0  0  0  0
  3 10  1  0  0  0  0
  3  9  1  0  0  0  0
  4  3  1  0  0  0  0
  5 12  1  0  0  0  0
  5  4  1  0  0  0  0
  6  1  1  0  0  0  0
  6  5  1  0  0  0  0
  6 14  1  1  0  0  0
  7  1  1  0  0  0  0
 11  4  1  0  0  0  0
 13  5  1  0  0  0  0
 15 16  1  0  0  0  0
 16 20  1  0  0  0  0
 17 16  2  0  0  0  0
 17 21  1  0  0  0  0
 18 17  1  0  0  0  0
 19 18  1  0  0  0  0
 19 15  2  0  0  0  0
 22 28  1  0  0  0  0
 22 23  1  0  0  0  0
 23 29  1  0  0  0  0
 24 15  1  0  0  0  0
 24 23  2  0  0  0  0
 25 24  1  0  0  0  0
 26 25  2  0  0  0  0
 26 27  1  0  0  0  0
 27 22  2  0  0  0  0
 30 26  1  0  0  0  0
 31 32  1  0  0  0  0
 31 38  1  1  0  0  0
 32 33  1  6  0  0  0
 32  6  1  0  0  0  0
 33 35  1  0  0  0  0
 33 34  1  0  0  0  0
 36 35  1  0  0  0  0
 36 31  1  0  0  0  0
 37 36  1  0  0  0  0
 38 39  1  0  0  0  0
M  END
>  <minimizedAffinity>
-5.13729

$$$$

 OpenBabel03252508303D

 39 42  0  0  1  0  0  0  0  0999 V2000
   39.3380   31.2180   39.5150 N   0  0  0  0  0  0  0  0  0  0  0  0
   38.2310   31.0950   38.5610 C   0  0  2  0  0  0  0  0  0  0  0  0
   37.3430   32.2900   38.5700 C   0  0  0  0  0  0  0  0  0  0  0  0
   37.9190   33.4050   39.2860 N   0  0  0  0  0  0  0  0  0  0  0  0
   38.4230   33.0950   40.5750 C   0  0  0  0  0  0  0  0  0  0  0  0
   38.7200   31.6210   40.7680 C   0  0  2  0  0  0  0  0  0  0  0  0
   39.8290   30.3290   39.5540 H   0  0  0  0  0  0  0  0  0  0  0  0
   38.6920   30.8790   37.5650 H   0  0  0  0  0  0  0  0  0  0  0  0
   37.2110   32.6150   37.5180 H   0  0  0  0  0  0  0  0  0  0  0  0
   36.3810   32.1840   39.1040 H   0  0  0  0  0  0  0  0  0  0  0  0
   38.4590   34.0630   38.7170 H   0  0  0  0  0  0  0  0  0  0  0  0
   37.6380   33.4620   41.2960 H   0  0  0  0  0  0  0  0  0  0  0  0
   39.3830   33.6550   40.6790 H   0  0  0  0  0  0  0  0  0  0  0  0
   37.7300   31.1270   40.8700 H   0  0  0  0  0  0  0  0  0  0  0  0
   36.8340   27.9670   39.6780 C   0  0  0  0  0  0  0  0  0  0  0  0
   35.7260   28.6840   39.2090 C   0  0  0  0  0  0  0  0  0  0  0  0
   36.1350   29.9190   38.7390 C   0  0  0  0  0  0  0  0  0  0  0  0
   37.4520   29.9290   38.9290 N   0  0  0  0  0  0  0  0  0  0  0  0
   37.8570   28.7970   39.4720 N   0  0  0  0  0  0  0  0  0  0  0  0
   34.7380   28.1960   39.2750 H   0  0  0  0  0  0  0  0  0  0  0  0
   35.2770   30.4690   38.3700 H   0  0  0  0  0  0  0  0  0  0  0  0
   36.4690   24.2530   40.1560 C   0  0  0  0  0  0  0  0  0  0  0  0
   36.4530   25.5090   39.4700 C   0  0  0  0  0  0  0  0  0  0  0  0
   36.7940   26.6160   40.2400 C   0  0  0  0  0  0  0  0  0  0  0  0
   37.1110   26.4670   41.5450 N   0  0  0  0  0  0  0  0  0  0  0  0
   37.1140   25.2570   42.1560 C   0  0  0  0  0  0  0  0  0  0  0  0
   36.7940   24.1790   41.4530 N   0  0  0  0  0  0  0  0  0  0  0  0
   36.2070   23.3840   39.5720 H   0  0  0  0  0  0  0  0  0  0  0  0
   36.2010   25.6210   38.4380 H   0  0  0  0  0  0  0  0  0  0  0  0
   37.3810   25.2510   43.1910 H   0  0  0  0  0  0  0  0  0  0  0  0
   39.2450   30.1260   42.7440 C   0  0  2  0  0  3  0  0  0  0  0  0
   39.5700   31.3210   41.9290 C   0  0  1  0  0  3  0  0  0  0  0  0
   40.9850   31.0060   41.5060 C   0  0  0  0  0  3  0  0  0  0  0  0
   41.2750   31.4400   40.5550 H   0  0  0  0  0  0  0  0  0  0  0  0
   40.8840   29.6130   41.2750 O   0  0  0  0  0  0  0  0  0  0  0  0
   40.4250   29.1950   42.5090 C   0  0  0  0  0  3  0  0  0  0  0  0
   41.2330   29.3510   43.2540 H   0  0  0  0  0  0  0  0  0  0  0  0
   38.1210   29.4280   42.4760 O   0  0  0  0  0  0  0  0  0  0  0  0
   37.4440   29.5840   43.1890 H   0  0  0  0  0  0  0  0  0  0  0  0
  1  7  1  0  0  0  0
  1  6  1  0  0  0  0
  2  8  1  6  0  0  0
  2  3  1  0  0  0  0
  2 18  1  0  0  0  0
  2  1  1  0  0  0  0
  3 10  1  0  0  0  0
  3  4  1  0  0  0  0
  4  5  1  0  0  0  0
  5 13  1  0  0  0  0
  5  6  1  0  0  0  0
  5 12  1  0  0  0  0
  6 14  1  1  0  0  0
  6 32  1  0  0  0  0
  9  3  1  0  0  0  0
 11  4  1  0  0  0  0
 15 24  1  0  0  0  0
 16 20  1  0  0  0  0
 16 15  1  0  0  0  0
 17 18  1  0  0  0  0
 17 16  2  0  0  0  0
 18 19  1  0  0  0  0
 19 15  2  0  0  0  0
 21 17  1  0  0  0  0
 22 27  1  0  0  0  0
 23 22  2  0  0  0  0
 23 24  1  0  0  0  0
 24 25  2  0  0  0  0
 25 26  1  0  0  0  0
 26 30  1  0  0  0  0
 27 26  2  0  0  0  0
 28 22  1  0  0  0  0
 29 23  1  0  0  0  0
 31 38  1  6  0  0  0
 32 33  1  6  0  0  0
 32 31  1  0  0  0  0
 34 33  1  0  0  0  0
 35 33  1  0  0  0  0
 35 36  1  0  0  0  0
 36 31  1  0  0  0  0
 36 37  1  0  0  0  0
 38 39  1  0  0  0  0
M  END
>  <minimizedAffinity>
-5.10204983

$$$$
