
 OpenBabel03242523233D

 43 46  0  0  1  0  0  0  0  0999 V2000
   47.1450   32.7260   44.3500 C   0  0  0  0  0  0  0  0  0  0  0  0
   47.9450   32.9900   43.3220 C   0  0  0  0  0  0  0  0  0  0  0  0
   48.7580   31.9410   42.9440 C   0  0  0  0  0  0  0  0  0  0  0  0
   48.6660   30.7370   43.6580 N   0  0  0  0  0  0  0  0  0  0  0  0
   47.8600   30.5430   44.6610 C   0  0  0  0  0  0  0  0  0  0  0  0
   47.0290   31.5670   45.0700 N   0  0  0  0  0  0  0  0  0  0  0  0
   49.4900   31.8950   42.1510 H   0  0  0  0  0  0  0  0  0  0  0  0
   47.8900   29.5550   45.1320 H   0  0  0  0  0  0  0  0  0  0  0  0
   48.1270   34.2300   42.6660 C   0  0  1  0  0  0  0  0  0  0  0  0
   49.0470   34.5740   41.7250 C   0  0  0  0  0  0  0  0  0  0  0  0
   47.6610   34.3910   41.1910 C   0  0  1  0  0  0  0  0  0  0  0  0
   47.8460   35.0940   43.3300 H   0  0  0  0  0  0  0  0  0  0  0  0
   49.8300   33.8190   41.4170 H   0  0  0  0  0  0  0  0  0  0  0  0
   49.4630   35.5820   41.5020 H   0  0  0  0  0  0  0  0  0  0  0  0
   47.0410   35.2960   41.0190 H   0  0  0  0  0  0  0  0  0  0  0  0
   46.3320   33.3560   39.2960 C   0  0  1  0  0  3  0  0  0  0  0  0
   47.4570   33.2730   40.2780 C   0  0  1  0  0  3  0  0  0  0  0  0
   48.6640   33.2120   39.3720 C   0  0  0  0  0  3  0  0  0  0  0  0
   49.5500   33.6410   39.8840 H   0  0  0  0  0  0  0  0  0  0  0  0
   48.3180   34.0190   38.3120 O   0  0  0  0  0  0  0  0  0  0  0  0
   47.0010   33.6740   37.9990 C   0  0  0  0  0  3  0  0  0  0  0  0
   46.4670   34.5080   37.5160 H   0  0  0  0  0  0  0  0  0  0  0  0
   45.7830   32.0650   39.1660 O   0  0  0  0  0  0  0  0  0  0  0  0
   46.0230   31.6290   38.3170 H   0  0  0  0  0  0  0  0  0  0  0  0
   46.1240   33.6290   44.9220 C   0  0  0  0  0  0  0  0  0  0  0  0
   45.5600   34.1860   45.8200 O   0  0  0  0  0  0  0  0  0  0  0  0
   44.4650   31.7140   43.1580 Cl  0  0  0  0  0  0  0  0  0  0  0  0
   44.5110   33.4500   42.8880 C   0  0  0  0  0  0  0  0  0  0  0  0
   45.3110   34.1900   43.7970 C   0  0  0  0  0  0  0  0  0  0  0  0
   45.2600   35.5290   43.4860 C   0  0  0  0  0  0  0  0  0  0  0  0
   44.6190   36.1780   42.5240 C   0  0  0  0  0  0  0  0  0  0  0  0
   43.8640   35.3920   41.6800 C   0  0  0  0  0  0  0  0  0  0  0  0
   43.8040   34.0410   41.8540 C   0  0  0  0  0  0  0  0  0  0  0  0
   45.8200   36.2330   44.1460 H   0  0  0  0  0  0  0  0  0  0  0  0
   44.6430   37.2530   42.3550 H   0  0  0  0  0  0  0  0  0  0  0  0
   43.3140   35.8950   40.8630 H   0  0  0  0  0  0  0  0  0  0  0  0
   43.0180   33.3750   40.9520 O   0  0  0  0  0  0  0  0  0  0  0  0
   40.8030   32.8300   39.6570 O   0  0  0  0  0  0  0  0  0  0  0  0
   41.3780   32.9530   41.0470 P   0  0  0  0  0  0  0  0  0  0  0  0
   41.2200   31.5010   41.9060 O   0  0  0  0  0  0  0  0  0  0  0  0
   41.3190   31.6520   42.8650 H   0  0  0  0  0  0  0  0  0  0  0  0
   40.4960   34.0990   41.9300 O   0  0  0  0  0  0  0  0  0  0  0  0
   39.6240   33.6970   42.1820 H   0  0  0  0  0  0  0  0  0  0  0  0
  1 25  1  0  0  0  0
  1  6  1  0  0  0  0
  2  1  2  0  0  0  0
  3  2  1  0  0  0  0
  3  4  2  0  0  0  0
  4  5  1  0  0  0  0
  5  6  2  0  0  0  0
  5  8  1  0  0  0  0
  7  3  1  0  0  0  0
  9  2  1  0  0  0  0
  9 12  1  1  0  0  0
 10  9  1  0  0  0  0
 11 15  1  6  0  0  0
 11 10  1  0  0  0  0
 11  9  1  0  0  0  0
 13 10  1  0  0  0  0
 14 10  1  0  0  0  0
 16 23  1  6  0  0  0
 16 17  1  0  0  0  0
 17 18  1  6  0  0  0
 17 11  1  0  0  0  0
 18 19  1  0  0  0  0
 20 18  1  0  0  0  0
 21 20  1  0  0  0  0
 21 16  1  0  0  0  0
 22 21  1  0  0  0  0
 24 23  1  0  0  0  0
 25 26  2  0  0  0  0
 28 27  1  0  0  0  0
 28 29  1  0  0  0  0
 29 25  1  0  0  0  0
 30 29  2  0  0  0  0
 30 34  1  0  0  0  0
 31 30  1  0  0  0  0
 32 33  1  0  0  0  0
 32 31  2  0  0  0  0
 33 28  2  0  0  0  0
 35 31  1  0  0  0  0
 36 32  1  0  0  0  0
 37 39  1  0  0  0  0
 37 33  1  0  0  0  0
 38 39  2  0  0  0  0
 39 40  1  0  0  0  0
 39 42  1  0  0  0  0
 40 41  1  0  0  0  0
 42 43  1  0  0  0  0
M  END
>  <minimizedAffinity>
-5.63841677

>  <minimizedRMSD>
1.47798204

$$$$
