
 OpenBabel03252503003D

 22 23  0  0  1  0  0  0  0  0999 V2000
   43.1950   34.0290   40.2930 C   0  0  0  0  0  0  0  0  0  0  0  0
   43.6470   34.0780   39.2860 H   0  0  0  0  0  0  0  0  0  0  0  0
   43.6360   33.1260   40.8020 H   0  0  0  0  0  0  0  0  0  0  0  0
   40.8580   34.7750   38.1970 C   0  0  1  0  0  3  0  0  0  0  0  0
   41.5150   33.4730   38.6500 C   0  0  0  0  0  3  0  0  0  0  0  0
   42.4610   33.4110   38.0720 H   0  0  0  0  0  0  0  0  0  0  0  0
   41.7350   33.7540   40.1280 C   0  0  2  0  0  3  0  0  0  0  0  0
   41.0080   34.8950   40.4310 O   0  0  0  0  0  0  0  0  0  0  0  0
   40.0450   35.0700   39.4630 C   0  0  0  0  0  3  0  0  0  0  0  0
   39.7230   36.1160   39.3730 H   0  0  0  0  0  0  0  0  0  0  0  0
   41.8270   35.7530   38.0800 O   0  0  0  0  0  0  0  0  0  0  0  0
   42.2580   35.7520   37.2020 H   0  0  0  0  0  0  0  0  0  0  0  0
   43.5970   35.4640   41.2830 S   0  0  0  0  0  0  0  0  0  0  0  0
   44.2820   35.7850   43.9370 C   0  0  0  0  0  0  0  0  0  0  0  0
   44.3040   34.9130   42.8540 C   0  0  0  0  0  0  0  0  0  0  0  0
   44.8540   33.6530   42.9600 C   0  0  0  0  0  0  0  0  0  0  0  0
   45.3730   33.3180   44.1910 N   0  0  0  0  0  0  0  0  0  0  0  0
   45.3360   34.1780   45.2130 C   0  0  0  0  0  0  0  0  0  0  0  0
   44.8140   35.3920   45.1340 N   0  0  0  0  0  0  0  0  0  0  0  0
   43.8610   36.7810   43.9050 H   0  0  0  0  0  0  0  0  0  0  0  0
   44.8770   32.9620   42.1120 H   0  0  0  0  0  0  0  0  0  0  0  0
   45.7610   33.8730   46.1800 H   0  0  0  0  0  0  0  0  0  0  0  0
  1  3  1  0  0  0  0
  1 13  1  0  0  0  0
  2  1  1  0  0  0  0
  4 11  1  1  0  0  0
  4  5  1  0  0  0  0
  4  9  1  0  0  0  0
  5  7  1  0  0  0  0
  6  5  1  0  0  0  0
  7  1  1  6  0  0  0
  7  8  1  0  0  0  0
  9  8  1  0  0  0  0
 10  9  1  0  0  0  0
 12 11  1  0  0  0  0
 13 15  1  0  0  0  0
 14 19  1  0  0  0  0
 15 16  1  0  0  0  0
 15 14  2  0  0  0  0
 16 17  2  0  0  0  0
 17 18  1  0  0  0  0
 18 22  1  0  0  0  0
 19 18  2  0  0  0  0
 20 14  1  0  0  0  0
 21 16  1  0  0  0  0
M  END
>  <minimizedAffinity>
-3.85395861

>  <minimizedRMSD>
1.64778316

$$$$
