
 OpenBabel03252502593D

 22 23  0  0  1  0  0  0  0  0999 V2000
   43.1900   33.9810   40.3960 C   0  0  0  0  0  0  0  0  0  0  0  0
   43.6100   33.9350   39.3750 H   0  0  0  0  0  0  0  0  0  0  0  0
   43.5640   33.0680   40.9400 H   0  0  0  0  0  0  0  0  0  0  0  0
   40.9020   34.5120   38.1820 C   0  0  1  0  0  3  0  0  0  0  0  0
   41.4290   33.2730   38.9010 C   0  0  0  0  0  3  0  0  0  0  0  0
   42.3530   32.9910   38.3530 H   0  0  0  0  0  0  0  0  0  0  0  0
   41.7060   33.8330   40.2880 C   0  0  2  0  0  3  0  0  0  0  0  0
   41.1080   35.0840   40.3400 O   0  0  0  0  0  0  0  0  0  0  0  0
   40.1500   35.1510   39.3550 C   0  0  0  0  0  3  0  0  0  0  0  0
   39.9370   36.1820   39.0450 H   0  0  0  0  0  0  0  0  0  0  0  0
   41.9650   35.3360   37.8640 O   0  0  0  0  0  0  0  0  0  0  0  0
   42.3770   35.1040   37.0080 H   0  0  0  0  0  0  0  0  0  0  0  0
   43.7530   35.4210   41.2950 S   0  0  0  0  0  0  0  0  0  0  0  0
   44.3160   35.7830   43.9720 C   0  0  0  0  0  0  0  0  0  0  0  0
   44.3900   34.8960   42.9040 C   0  0  0  0  0  0  0  0  0  0  0  0
   44.9380   33.6390   43.0540 C   0  0  0  0  0  0  0  0  0  0  0  0
   45.4020   33.3240   44.3120 N   0  0  0  0  0  0  0  0  0  0  0  0
   45.3160   34.1990   45.3180 C   0  0  0  0  0  0  0  0  0  0  0  0
   44.7950   35.4100   45.1980 N   0  0  0  0  0  0  0  0  0  0  0  0
   43.8940   36.7770   43.9060 H   0  0  0  0  0  0  0  0  0  0  0  0
   45.0020   32.9360   42.2190 H   0  0  0  0  0  0  0  0  0  0  0  0
   45.6970   33.9100   46.3080 H   0  0  0  0  0  0  0  0  0  0  0  0
  1  3  1  0  0  0  0
  1 13  1  0  0  0  0
  2  1  1  0  0  0  0
  4 11  1  1  0  0  0
  4  5  1  0  0  0  0
  4  9  1  0  0  0  0
  5  7  1  0  0  0  0
  6  5  1  0  0  0  0
  7  8  1  0  0  0  0
  7  1  1  6  0  0  0
  9  8  1  0  0  0  0
 10  9  1  0  0  0  0
 12 11  1  0  0  0  0
 13 15  1  0  0  0  0
 14 19  1  0  0  0  0
 15 16  1  0  0  0  0
 15 14  2  0  0  0  0
 16 17  2  0  0  0  0
 17 18  1  0  0  0  0
 18 22  1  0  0  0  0
 19 18  2  0  0  0  0
 20 14  1  0  0  0  0
 21 16  1  0  0  0  0
M  END
>  <minimizedAffinity>
-3.92849922

>  <minimizedRMSD>
2.40281534

$$$$
