
 OpenBabel03252509303D

 21 22  0  0  1  0  0  0  0  0999 V2000
   46.7800   34.9380   41.9620 C   0  0  0  0  0  0  0  0  0  0  0  0
   47.8660   35.1120   42.0830 H   0  0  0  0  0  0  0  0  0  0  0  0
   46.4120   35.7640   41.3200 H   0  0  0  0  0  0  0  0  0  0  0  0
   44.5020   35.9310   44.7200 C   0  0  0  0  0  0  0  0  0  0  0  0
   45.1710   35.9480   43.4800 C   0  0  0  0  0  0  0  0  0  0  0  0
   46.0830   34.9250   43.2440 C   0  0  0  0  0  0  0  0  0  0  0  0
   46.2860   33.9710   44.2010 N   0  0  0  0  0  0  0  0  0  0  0  0
   45.6040   34.0110   45.3860 C   0  0  0  0  0  0  0  0  0  0  0  0
   44.7220   34.9850   45.6350 N   0  0  0  0  0  0  0  0  0  0  0  0
   43.8000   36.7360   44.8780 H   0  0  0  0  0  0  0  0  0  0  0  0
   44.9640   36.7330   42.7670 H   0  0  0  0  0  0  0  0  0  0  0  0
   45.7450   33.2690   46.1600 H   0  0  0  0  0  0  0  0  0  0  0  0
   46.1380   33.1680   38.8790 C   0  0  2  0  0  3  0  0  0  0  0  0
   47.1920   33.6640   39.8340 C   0  0  0  0  0  3  0  0  0  0  0  0
   47.5550   34.6450   39.4800 H   0  0  0  0  0  0  0  0  0  0  0  0
   46.5190   33.6640   41.1590 C   0  0  2  0  0  3  0  0  0  0  0  0
   45.1850   33.4320   41.0050 O   0  0  0  0  0  0  0  0  0  0  0  0
   44.8730   33.3510   39.6740 C   0  0  0  0  0  3  0  0  0  0  0  0
   44.2310   32.4540   39.4920 H   0  0  0  0  0  0  0  0  0  0  0  0
   46.3240   31.8420   38.5050 O   0  0  0  0  0  0  0  0  0  0  0  0
   46.9980   31.7810   37.7940 H   0  0  0  0  0  0  0  0  0  0  0  0
  1  2  1  0  0  0  0
  1  6  1  0  0  0  0
  3  1  1  0  0  0  0
  4 10  1  0  0  0  0
  4  9  1  0  0  0  0
  5  4  2  0  0  0  0
  6  5  1  0  0  0  0
  6  7  2  0  0  0  0
  7  8  1  0  0  0  0
  8  9  2  0  0  0  0
  8 12  1  0  0  0  0
 11  5  1  0  0  0  0
 13 20  1  1  0  0  0
 13 18  1  0  0  0  0
 13 14  1  0  0  0  0
 14 16  1  0  0  0  0
 15 14  1  0  0  0  0
 16  1  1  6  0  0  0
 17 16  1  0  0  0  0
 18 17  1  0  0  0  0
 19 18  1  0  0  0  0
 21 20  1  0  0  0  0
M  END
>  <minimizedAffinity>
-3.73098826

>  <minimizedRMSD>
0.805082619

$$$$
