
 OpenBabel03252503003D

 22 23  0  0  1  0  0  0  0  0999 V2000
   43.1120   35.1250   40.2930 C   0  0  0  0  0  0  0  0  0  0  0  0
   42.8790   36.0860   39.7990 H   0  0  0  0  0  0  0  0  0  0  0  0
   43.9520   34.6560   39.7060 H   0  0  0  0  0  0  0  0  0  0  0  0
   39.8980   35.4160   40.2380 C   0  0  1  0  0  3  0  0  0  0  0  0
   40.9490   34.9640   39.2280 C   0  0  0  0  0  3  0  0  0  0  0  0
   41.3680   35.9020   38.8070 H   0  0  0  0  0  0  0  0  0  0  0  0
   41.9280   34.2280   40.1320 C   0  0  2  0  0  3  0  0  0  0  0  0
   41.2960   34.0650   41.3560 O   0  0  0  0  0  0  0  0  0  0  0  0
   39.9400   34.1970   41.1680 C   0  0  0  0  0  3  0  0  0  0  0  0
   39.4160   34.5040   42.0830 H   0  0  0  0  0  0  0  0  0  0  0  0
   40.3860   36.5010   40.9440 O   0  0  0  0  0  0  0  0  0  0  0  0
   40.2110   37.3510   40.4910 H   0  0  0  0  0  0  0  0  0  0  0  0
   43.6800   35.3510   41.9740 S   0  0  0  0  0  0  0  0  0  0  0  0
   45.9700   34.6900   43.3650 C   0  0  0  0  0  0  0  0  0  0  0  0
   45.3700   34.7230   42.1110 C   0  0  0  0  0  0  0  0  0  0  0  0
   46.0410   34.2900   40.9860 C   0  0  0  0  0  0  0  0  0  0  0  0
   47.3240   33.8310   41.1810 N   0  0  0  0  0  0  0  0  0  0  0  0
   47.8720   33.8130   42.3990 C   0  0  0  0  0  0  0  0  0  0  0  0
   47.2490   34.2220   43.4930 N   0  0  0  0  0  0  0  0  0  0  0  0
   45.4870   35.0150   44.2760 H   0  0  0  0  0  0  0  0  0  0  0  0
   45.5770   34.3140   39.9950 H   0  0  0  0  0  0  0  0  0  0  0  0
   48.9000   33.4390   42.5150 H   0  0  0  0  0  0  0  0  0  0  0  0
  1 13  1  0  0  0  0
  2  1  1  0  0  0  0
  3  1  1  0  0  0  0
  4 11  1  1  0  0  0
  4  9  1  0  0  0  0
  5  7  1  0  0  0  0
  5  4  1  0  0  0  0
  6  5  1  0  0  0  0
  7  1  1  1  0  0  0
  7  8  1  0  0  0  0
  9  8  1  0  0  0  0
  9 10  1  0  0  0  0
 12 11  1  0  0  0  0
 13 15  1  0  0  0  0
 14 19  1  0  0  0  0
 14 20  1  0  0  0  0
 15 14  2  0  0  0  0
 16 17  2  0  0  0  0
 16 15  1  0  0  0  0
 17 18  1  0  0  0  0
 18 22  1  0  0  0  0
 18 19  2  0  0  0  0
 21 16  1  0  0  0  0
M  END
>  <minimizedAffinity>
-3.86105156

>  <minimizedRMSD>
2.97772646

$$$$
