
 OpenBabel03252509303D

 21 22  0  0  1  0  0  0  0  0999 V2000
   47.1260   35.1230   41.8680 C   0  0  0  0  0  0  0  0  0  0  0  0
   48.1370   35.5250   42.0690 H   0  0  0  0  0  0  0  0  0  0  0  0
   46.6630   35.8230   41.1430 H   0  0  0  0  0  0  0  0  0  0  0  0
   44.5720   35.8970   44.4490 C   0  0  0  0  0  0  0  0  0  0  0  0
   45.3420   35.9940   43.2730 C   0  0  0  0  0  0  0  0  0  0  0  0
   46.3250   35.0280   43.0830 C   0  0  0  0  0  0  0  0  0  0  0  0
   46.4960   34.0500   44.0230 N   0  0  0  0  0  0  0  0  0  0  0  0
   45.7150   34.0120   45.1450 C   0  0  0  0  0  0  0  0  0  0  0  0
   44.7650   34.9300   45.3490 N   0  0  0  0  0  0  0  0  0  0  0  0
   43.8170   36.6580   44.5720 H   0  0  0  0  0  0  0  0  0  0  0  0
   45.1550   36.7920   42.5710 H   0  0  0  0  0  0  0  0  0  0  0  0
   45.8300   33.2500   45.9040 H   0  0  0  0  0  0  0  0  0  0  0  0
   48.5990   32.8820   39.4490 C   0  0  2  0  0  3  0  0  0  0  0  0
   48.6060   33.3460   40.8820 C   0  0  0  0  0  3  0  0  0  0  0  0
   49.3810   34.1220   40.9970 H   0  0  0  0  0  0  0  0  0  0  0  0
   47.2090   33.7860   41.1330 C   0  0  2  0  0  3  0  0  0  0  0  0
   46.5100   33.8110   39.9630 O   0  0  0  0  0  0  0  0  0  0  0  0
   47.3360   33.5020   38.9160 C   0  0  0  0  0  3  0  0  0  0  0  0
   46.8430   32.7430   38.2590 H   0  0  0  0  0  0  0  0  0  0  0  0
   48.5860   31.4960   39.3250 O   0  0  0  0  0  0  0  0  0  0  0  0
   49.4920   31.1360   39.4400 H   0  0  0  0  0  0  0  0  0  0  0  0
  1  2  1  0  0  0  0
  1  6  1  0  0  0  0
  3  1  1  0  0  0  0
  4 10  1  0  0  0  0
  4  9  1  0  0  0  0
  5  4  2  0  0  0  0
  6  5  1  0  0  0  0
  6  7  2  0  0  0  0
  7  8  1  0  0  0  0
  8  9  2  0  0  0  0
  8 12  1  0  0  0  0
 11  5  1  0  0  0  0
 13 20  1  1  0  0  0
 13 14  1  0  0  0  0
 14 15  1  0  0  0  0
 14 16  1  0  0  0  0
 16  1  1  6  0  0  0
 17 16  1  0  0  0  0
 18 13  1  0  0  0  0
 18 17  1  0  0  0  0
 19 18  1  0  0  0  0
 20 21  1  0  0  0  0
M  END
>  <minimizedAffinity>
-3.77381015

>  <minimizedRMSD>
1.40744638

$$$$
