
 OpenBabel03252506203D

 33 35  0  0  1  0  0  0  0  0999 V2000
   45.5830   34.2470   41.2800 C   0  0  0  0  0  0  0  0  0  0  0  0
   45.0900   33.9060   39.9950 C   0  0  0  0  0  0  0  0  0  0  0  0
   45.9140   33.0900   39.2020 C   0  0  0  0  0  0  0  0  0  0  0  0
   47.1060   32.6770   39.6890 N   0  0  0  0  0  0  0  0  0  0  0  0
   47.5280   33.0340   40.9290 C   0  0  0  0  0  0  0  0  0  0  0  0
   46.7640   33.8180   41.7200 N   0  0  0  0  0  0  0  0  0  0  0  0
   44.1330   34.2670   39.6670 H   0  0  0  0  0  0  0  0  0  0  0  0
   45.5700   32.8090   38.2140 H   0  0  0  0  0  0  0  0  0  0  0  0
   49.4310   35.1850   41.9170 Cl  0  0  0  0  0  0  0  0  0  0  0  0
   49.7600   33.4840   41.8400 C   0  0  0  0  0  0  0  0  0  0  0  0
   48.8380   32.5380   41.3720 C   0  0  0  0  0  0  0  0  0  0  0  0
   49.0720   31.1950   41.3010 C   0  0  0  0  0  0  0  0  0  0  0  0
   50.3100   30.7660   41.7250 C   0  0  0  0  0  0  0  0  0  0  0  0
   51.3000   31.6100   42.2070 C   0  0  0  0  0  0  0  0  0  0  0  0
   50.9780   32.9510   42.2440 C   0  0  0  0  0  0  0  0  0  0  0  0
   48.3120   30.5210   40.9290 H   0  0  0  0  0  0  0  0  0  0  0  0
   50.5370   29.7080   41.6850 H   0  0  0  0  0  0  0  0  0  0  0  0
   52.2680   31.2520   42.5360 H   0  0  0  0  0  0  0  0  0  0  0  0
   51.7670   33.5990   42.6240 H   0  0  0  0  0  0  0  0  0  0  0  0
   44.7350   35.1090   42.1390 C   0  0  0  0  0  3  0  0  0  0  0  0
   45.3250   35.6990   43.1680 C   0  0  0  0  0  3  0  0  0  0  0  0
   44.5290   36.5770   44.0700 C   0  0  0  0  0  0  0  0  0  0  0  0
   43.5870   36.8720   43.5680 H   0  0  0  0  0  0  0  0  0  0  0  0
   44.2140   36.0430   44.9970 H   0  0  0  0  0  0  0  0  0  0  0  0
   45.4440   39.9500   45.1940 C   0  0  1  0  0  3  0  0  0  0  0  0
   44.8230   38.6020   45.5150 C   0  0  0  0  0  3  0  0  0  0  0  0
   45.1340   38.2040   46.4940 H   0  0  0  0  0  0  0  0  0  0  0  0
   45.3770   37.7960   44.3570 C   0  0  2  0  0  3  0  0  0  0  0  0
   45.3390   38.6310   43.2740 O   0  0  0  0  0  0  0  0  0  0  0  0
   45.2280   39.9430   43.6760 C   0  0  0  0  0  3  0  0  0  0  0  0
   45.8690   40.6570   43.1540 H   0  0  0  0  0  0  0  0  0  0  0  0
   44.7670   41.0030   45.7930 O   0  0  0  0  0  0  0  0  0  0  0  0
   43.9940   41.2100   45.2190 H   0  0  0  0  0  0  0  0  0  0  0  0
  1  6  1  0  0  0  0
  1 20  1  0  0  0  0
  2  1  2  0  0  0  0
  3  4  2  0  0  0  0
  3  2  1  0  0  0  0
  4  5  1  0  0  0  0
  5 11  1  0  0  0  0
  5  6  2  0  0  0  0
  7  2  1  0  0  0  0
  8  3  1  0  0  0  0
 10  9  1  0  0  0  0
 10 15  1  0  0  0  0
 11 10  2  0  0  0  0
 12 11  1  0  0  0  0
 12 13  2  0  0  0  0
 13 14  1  0  0  0  0
 14 15  2  0  0  0  0
 14 18  1  0  0  0  0
 15 19  1  0  0  0  0
 16 12  1  0  0  0  0
 17 13  1  0  0  0  0
 20 21  2  0  0  0  0
 21 22  1  0  0  0  0
 22 24  1  0  0  0  0
 23 22  1  0  0  0  0
 25 26  1  0  0  0  0
 25 32  1  1  0  0  0
 26 27  1  0  0  0  0
 28 22  1  6  0  0  0
 28 26  1  0  0  0  0
 29 30  1  0  0  0  0
 29 28  1  0  0  0  0
 30 25  1  0  0  0  0
 31 30  1  0  0  0  0
 33 32  1  0  0  0  0
M  END
>  <minimizedAffinity>
-3.15695477

>  <minimizedRMSD>
2.81159949

$$$$
