
 OpenBabel03252503003D

 22 23  0  0  1  0  0  0  0  0999 V2000
   43.1120   35.1250   40.2930 C   0  0  0  0  0  0  0  0  0  0  0  0
   42.8790   36.0870   39.8000 H   0  0  0  0  0  0  0  0  0  0  0  0
   43.9510   34.6560   39.7060 H   0  0  0  0  0  0  0  0  0  0  0  0
   39.8980   35.4180   40.2390 C   0  0  1  0  0  3  0  0  0  0  0  0
   40.9500   34.9660   39.2280 C   0  0  0  0  0  3  0  0  0  0  0  0
   41.3680   35.9040   38.8070 H   0  0  0  0  0  0  0  0  0  0  0  0
   41.9270   34.2290   40.1310 C   0  0  2  0  0  3  0  0  0  0  0  0
   41.2940   34.0650   41.3550 O   0  0  0  0  0  0  0  0  0  0  0  0
   39.9380   34.1990   41.1680 C   0  0  0  0  0  3  0  0  0  0  0  0
   39.4150   34.5050   42.0820 H   0  0  0  0  0  0  0  0  0  0  0  0
   40.3870   36.5010   40.9440 O   0  0  0  0  0  0  0  0  0  0  0  0
   40.2130   37.3520   40.4930 H   0  0  0  0  0  0  0  0  0  0  0  0
   43.6800   35.3490   41.9750 S   0  0  0  0  0  0  0  0  0  0  0  0
   45.9710   34.6900   43.3640 C   0  0  0  0  0  0  0  0  0  0  0  0
   45.3700   34.7220   42.1110 C   0  0  0  0  0  0  0  0  0  0  0  0
   46.0410   34.2900   40.9850 C   0  0  0  0  0  0  0  0  0  0  0  0
   47.3250   33.8320   41.1800 N   0  0  0  0  0  0  0  0  0  0  0  0
   47.8730   33.8150   42.3980 C   0  0  0  0  0  0  0  0  0  0  0  0
   47.2510   34.2230   43.4920 N   0  0  0  0  0  0  0  0  0  0  0  0
   45.4880   35.0150   44.2760 H   0  0  0  0  0  0  0  0  0  0  0  0
   45.5760   34.3140   39.9950 H   0  0  0  0  0  0  0  0  0  0  0  0
   48.9020   33.4420   42.5120 H   0  0  0  0  0  0  0  0  0  0  0  0
  1 13  1  0  0  0  0
  2  1  1  0  0  0  0
  3  1  1  0  0  0  0
  4 11  1  1  0  0  0
  4  9  1  0  0  0  0
  5  7  1  0  0  0  0
  5  4  1  0  0  0  0
  6  5  1  0  0  0  0
  7  1  1  1  0  0  0
  7  8  1  0  0  0  0
  9  8  1  0  0  0  0
  9 10  1  0  0  0  0
 12 11  1  0  0  0  0
 13 15  1  0  0  0  0
 14 19  1  0  0  0  0
 14 20  1  0  0  0  0
 15 14  2  0  0  0  0
 16 17  2  0  0  0  0
 16 15  1  0  0  0  0
 17 18  1  0  0  0  0
 18 22  1  0  0  0  0
 18 19  2  0  0  0  0
 21 16  1  0  0  0  0
M  END
>  <minimizedAffinity>
-3.86126709

>  <minimizedRMSD>
2.79089761

$$$$
