
 OpenBabel03252509303D

 21 22  0  0  1  0  0  0  0  0999 V2000
   46.9110   34.9590   41.8490 C   0  0  0  0  0  0  0  0  0  0  0  0
   47.9880   35.1600   42.0050 H   0  0  0  0  0  0  0  0  0  0  0  0
   46.5510   35.7610   41.1730 H   0  0  0  0  0  0  0  0  0  0  0  0
   44.5310   35.9850   44.5070 C   0  0  0  0  0  0  0  0  0  0  0  0
   45.2440   35.9860   43.2920 C   0  0  0  0  0  0  0  0  0  0  0  0
   46.1680   34.9630   43.1050 C   0  0  0  0  0  0  0  0  0  0  0  0
   46.3400   34.0250   44.0830 N   0  0  0  0  0  0  0  0  0  0  0  0
   45.6150   34.0800   45.2420 C   0  0  0  0  0  0  0  0  0  0  0  0
   44.7210   35.0540   45.4440 N   0  0  0  0  0  0  0  0  0  0  0  0
   43.8200   36.7880   44.6270 H   0  0  0  0  0  0  0  0  0  0  0  0
   45.0610   36.7580   42.5600 H   0  0  0  0  0  0  0  0  0  0  0  0
   45.7310   33.3510   46.0320 H   0  0  0  0  0  0  0  0  0  0  0  0
   46.3960   33.1030   38.7940 C   0  0  2  0  0  3  0  0  0  0  0  0
   47.4120   33.6500   39.7610 C   0  0  0  0  0  3  0  0  0  0  0  0
   47.7550   34.6320   39.3940 H   0  0  0  0  0  0  0  0  0  0  0  0
   46.7070   33.6600   41.0700 C   0  0  2  0  0  3  0  0  0  0  0  0
   45.3840   33.3850   40.8890 O   0  0  0  0  0  0  0  0  0  0  0  0
   45.1080   33.2670   39.5550 C   0  0  0  0  0  3  0  0  0  0  0  0
   44.4950   32.3470   39.3780 H   0  0  0  0  0  0  0  0  0  0  0  0
   46.6280   31.7740   38.4540 O   0  0  0  0  0  0  0  0  0  0  0  0
   47.3210   31.7160   37.7620 H   0  0  0  0  0  0  0  0  0  0  0  0
  1  2  1  0  0  0  0
  1  6  1  0  0  0  0
  3  1  1  0  0  0  0
  4 10  1  0  0  0  0
  4  9  1  0  0  0  0
  5  4  2  0  0  0  0
  6  5  1  0  0  0  0
  6  7  2  0  0  0  0
  7  8  1  0  0  0  0
  8  9  2  0  0  0  0
  8 12  1  0  0  0  0
 11  5  1  0  0  0  0
 13 20  1  1  0  0  0
 13 18  1  0  0  0  0
 13 14  1  0  0  0  0
 14 16  1  0  0  0  0
 15 14  1  0  0  0  0
 16  1  1  6  0  0  0
 17 16  1  0  0  0  0
 18 17  1  0  0  0  0
 19 18  1  0  0  0  0
 21 20  1  0  0  0  0
M  END
>  <minimizedAffinity>
-3.73934269

>  <minimizedRMSD>
1.12612975

$$$$
