
 OpenBabel03252503003D

 22 23  0  0  1  0  0  0  0  0999 V2000
   42.5330   34.4340   41.0510 C   0  0  0  0  0  0  0  0  0  0  0  0
   42.6730   33.9210   40.0830 H   0  0  0  0  0  0  0  0  0  0  0  0
   42.3930   33.6290   41.8260 H   0  0  0  0  0  0  0  0  0  0  0  0
   39.4090   33.7790   40.5740 C   0  0  1  0  0  3  0  0  0  0  0  0
   40.2170   34.3570   41.7340 C   0  0  0  0  0  3  0  0  0  0  0  0
   40.6590   33.4760   42.2450 H   0  0  0  0  0  0  0  0  0  0  0  0
   41.2460   35.1910   40.9870 C   0  0  2  0  0  3  0  0  0  0  0  0
   40.8160   35.2720   39.6710 O   0  0  0  0  0  0  0  0  0  0  0  0
   39.4710   34.9860   39.6310 C   0  0  0  0  0  3  0  0  0  0  0  0
   39.1480   34.6150   38.6510 H   0  0  0  0  0  0  0  0  0  0  0  0
   40.1260   32.7520   39.9920 O   0  0  0  0  0  0  0  0  0  0  0  0
   39.9740   31.8900   40.4300 H   0  0  0  0  0  0  0  0  0  0  0  0
   43.9660   35.3980   41.5170 S   0  0  0  0  0  0  0  0  0  0  0  0
   44.2940   35.7360   44.2350 C   0  0  0  0  0  0  0  0  0  0  0  0
   44.5110   34.8800   43.1610 C   0  0  0  0  0  0  0  0  0  0  0  0
   45.1300   33.6600   43.3330 C   0  0  0  0  0  0  0  0  0  0  0  0
   45.5160   33.3480   44.6180 N   0  0  0  0  0  0  0  0  0  0  0  0
   45.2930   34.1930   45.6290 C   0  0  0  0  0  0  0  0  0  0  0  0
   44.7010   35.3680   45.4890 N   0  0  0  0  0  0  0  0  0  0  0  0
   43.8120   36.7010   44.1540 H   0  0  0  0  0  0  0  0  0  0  0  0
   45.3070   32.9810   42.4930 H   0  0  0  0  0  0  0  0  0  0  0  0
   45.6160   33.9080   46.6410 H   0  0  0  0  0  0  0  0  0  0  0  0
  1 13  1  0  0  0  0
  1  3  1  0  0  0  0
  2  1  1  0  0  0  0
  4 11  1  6  0  0  0
  4  5  1  0  0  0  0
  5  6  1  0  0  0  0
  7  1  1  6  0  0  0
  7  5  1  0  0  0  0
  8  7  1  0  0  0  0
  9  8  1  0  0  0  0
  9  4  1  0  0  0  0
 10  9  1  0  0  0  0
 11 12  1  0  0  0  0
 13 15  1  0  0  0  0
 14 19  1  0  0  0  0
 15 16  1  0  0  0  0
 15 14  2  0  0  0  0
 16 17  2  0  0  0  0
 17 18  1  0  0  0  0
 18 22  1  0  0  0  0
 19 18  2  0  0  0  0
 20 14  1  0  0  0  0
 21 16  1  0  0  0  0
M  END
>  <minimizedAffinity>
-4.00719166

>  <minimizedRMSD>
2.98152184

$$$$
