
 OpenBabel03252507473D

 37 39  0  0  1  0  0  0  0  0999 V2000
   38.4300   28.0400   43.2970 C   0  0  0  0  0  0  0  0  0  0  0  0
   39.2930   28.5220   42.7920 H   0  0  0  0  0  0  0  0  0  0  0  0
   38.6680   28.0780   44.3940 H   0  0  0  0  0  0  0  0  0  0  0  0
   38.2700   26.6380   42.8610 C   0  0  0  0  0  0  0  0  0  0  0  0
   39.3700   25.8160   42.9970 C   0  0  0  0  0  0  0  0  0  0  0  0
   39.2800   24.4860   42.6020 C   0  0  0  0  0  0  0  0  0  0  0  0
   38.0940   24.0390   42.0910 N   0  0  0  0  0  0  0  0  0  0  0  0
   37.0440   24.8720   41.9740 C   0  0  0  0  0  0  0  0  0  0  0  0
   37.1470   26.1320   42.3540 N   0  0  0  0  0  0  0  0  0  0  0  0
   40.0840   23.8030   42.6770 H   0  0  0  0  0  0  0  0  0  0  0  0
   36.0840   24.5720   41.5770 H   0  0  0  0  0  0  0  0  0  0  0  0
   40.8960   26.4530   43.6790 S   0  0  0  0  0  0  0  0  0  0  0  0
   43.1960   25.8570   42.4040 C   0  0  2  0  0  3  0  0  0  0  0  0
   42.0780   26.9120   42.4290 C   0  0  1  0  0  3  0  0  0  0  0  0
   41.5210   26.7070   41.0330 C   0  0  0  0  0  3  0  0  0  0  0  0
   41.1020   27.6090   40.5840 H   0  0  0  0  0  0  0  0  0  0  0  0
   42.6010   26.3430   40.2210 O   0  0  0  0  0  0  0  0  0  0  0  0
   43.4390   25.5370   40.9670 C   0  0  0  0  0  3  0  0  0  0  0  0
   44.4800   25.8010   40.6360 H   0  0  0  0  0  0  0  0  0  0  0  0
   42.8230   24.6980   43.0710 O   0  0  0  0  0  0  0  0  0  0  0  0
   41.9530   24.4370   42.7130 H   0  0  0  0  0  0  0  0  0  0  0  0
   37.2420   28.9040   42.9790 C   0  0  0  0  0  0  0  0  0  0  0  0
   37.1290   29.6160   43.8320 H   0  0  0  0  0  0  0  0  0  0  0  0
   36.3100   28.2990   42.9630 H   0  0  0  0  0  0  0  0  0  0  0  0
   37.3960   29.7320   41.7650 C   0  0  0  0  0  0  0  0  0  0  0  0
   36.2600   29.9950   40.9400 C   0  0  0  0  0  0  0  0  0  0  0  0
   36.9650   31.0420   39.6010 S   0  0  0  0  0  0  0  0  0  0  0  0
   38.6870   30.9430   40.3930 C   0  0  0  0  0  0  0  0  0  0  0  0
   38.4820   30.2930   41.3120 N   0  0  0  0  0  0  0  0  0  0  0  0
   35.2440   29.6620   41.0710 H   0  0  0  0  0  0  0  0  0  0  0  0
   39.8080   31.5690   39.8530 O   0  0  0  0  0  0  0  0  0  0  0  0
   41.5440   33.1930   41.0270 O   0  0  0  0  0  0  0  0  0  0  0  0
   40.1650   33.1370   40.3840 P   0  0  0  0  0  0  0  0  0  0  0  0
   40.1540   34.1530   39.0300 O   0  0  0  0  0  0  0  0  0  0  0  0
   41.0560   34.2810   38.6420 H   0  0  0  0  0  0  0  0  0  0  0  0
   38.9680   33.6590   41.4690 O   0  0  0  0  0  0  0  0  0  0  0  0
   38.7200   34.6080   41.2920 H   0  0  0  0  0  0  0  0  0  0  0  0
  1  3  1  0  0  0  0
  2  1  1  0  0  0  0
  4  5  1  0  0  0  0
  4  1  1  0  0  0  0
  5 12  1  0  0  0  0
  6 10  1  0  0  0  0
  6  5  2  0  0  0  0
  7  6  1  0  0  0  0
  8  7  2  0  0  0  0
  8  9  1  0  0  0  0
  9  4  2  0  0  0  0
 11  8  1  0  0  0  0
 13 14  1  0  0  0  0
 13 20  1  1  0  0  0
 14 12  1  1  0  0  0
 15 14  1  0  0  0  0
 16 15  1  0  0  0  0
 17 18  1  0  0  0  0
 17 15  1  0  0  0  0
 18 13  1  0  0  0  0
 19 18  1  0  0  0  0
 21 20  1  0  0  0  0
 22  1  1  0  0  0  0
 22 23  1  0  0  0  0
 24 22  1  0  0  0  0
 25 22  1  0  0  0  0
 26 30  1  0  0  0  0
 26 25  2  0  0  0  0
 27 28  1  0  0  0  0
 27 26  1  0  0  0  0
 28 29  2  0  0  0  0
 29 25  1  0  0  0  0
 31 33  1  0  0  0  0
 31 28  1  0  0  0  0
 33 32  2  0  0  0  0
 33 36  1  0  0  0  0
 34 33  1  0  0  0  0
 35 34  1  0  0  0  0
 37 36  1  0  0  0  0
M  END
>  <minimizedAffinity>
-5.39523935

$$$$

 OpenBabel03252507473D

 37 39  0  0  1  0  0  0  0  0999 V2000
   36.0750   29.9200   39.9830 C   0  0  0  0  0  0  0  0  0  0  0  0
   35.3670   30.7710   40.0680 H   0  0  0  0  0  0  0  0  0  0  0  0
   37.0630   30.3170   40.3410 H   0  0  0  0  0  0  0  0  0  0  0  0
   36.1890   29.4570   38.5850 C   0  0  0  0  0  0  0  0  0  0  0  0
   36.8200   30.3070   37.6990 C   0  0  0  0  0  0  0  0  0  0  0  0
   36.9570   29.9260   36.3700 C   0  0  0  0  0  0  0  0  0  0  0  0
   36.4580   28.7120   35.9870 N   0  0  0  0  0  0  0  0  0  0  0  0
   35.8480   27.9120   36.8800 C   0  0  0  0  0  0  0  0  0  0  0  0
   35.7270   28.2890   38.1390 N   0  0  0  0  0  0  0  0  0  0  0  0
   37.4270   30.5290   35.6390 H   0  0  0  0  0  0  0  0  0  0  0  0
   35.4360   26.9440   36.6320 H   0  0  0  0  0  0  0  0  0  0  0  0
   37.4610   31.8810   38.2580 S   0  0  0  0  0  0  0  0  0  0  0  0
   40.0750   31.9220   37.5980 C   0  0  2  0  0  3  0  0  0  0  0  0
   39.1490   31.7850   38.8170 C   0  0  1  0  0  3  0  0  0  0  0  0
   39.5570   33.0350   39.5740 C   0  0  0  0  0  3  0  0  0  0  0  0
   39.4770   32.9450   40.6580 H   0  0  0  0  0  0  0  0  0  0  0  0
   40.9160   33.2370   39.3070 O   0  0  0  0  0  0  0  0  0  0  0  0
   41.1480   32.8830   37.9920 C   0  0  0  0  0  3  0  0  0  0  0  0
   42.1690   32.4160   37.9830 H   0  0  0  0  0  0  0  0  0  0  0  0
   39.3990   32.4230   36.4930 O   0  0  0  0  0  0  0  0  0  0  0  0
   38.9300   33.2260   36.7930 H   0  0  0  0  0  0  0  0  0  0  0  0
   35.5530   28.8670   40.9200 C   0  0  0  0  0  0  0  0  0  0  0  0
   35.0650   28.0890   40.2840 H   0  0  0  0  0  0  0  0  0  0  0  0
   34.7480   29.2800   41.5650 H   0  0  0  0  0  0  0  0  0  0  0  0
   36.5970   28.1690   41.6990 C   0  0  0  0  0  0  0  0  0  0  0  0
   37.3830   28.9010   42.6410 C   0  0  0  0  0  0  0  0  0  0  0  0
   38.5010   27.6100   43.3260 S   0  0  0  0  0  0  0  0  0  0  0  0
   37.7070   26.2940   42.2130 C   0  0  0  0  0  0  0  0  0  0  0  0
   36.9220   26.9090   41.6510 N   0  0  0  0  0  0  0  0  0  0  0  0
   37.3330   29.9490   42.8870 H   0  0  0  0  0  0  0  0  0  0  0  0
   38.1060   24.9590   42.2120 O   0  0  0  0  0  0  0  0  0  0  0  0
   38.6800   24.4910   39.6660 O   0  0  0  0  0  0  0  0  0  0  0  0
   37.7910   24.0470   40.8200 P   0  0  0  0  0  0  0  0  0  0  0  0
   38.1350   22.4280   41.1790 O   0  0  0  0  0  0  0  0  0  0  0  0
   39.0530   22.1660   40.9160 H   0  0  0  0  0  0  0  0  0  0  0  0
   36.1500   24.1790   40.4090 O   0  0  0  0  0  0  0  0  0  0  0  0
   35.7820   23.2940   40.1340 H   0  0  0  0  0  0  0  0  0  0  0  0
  1  2  1  0  0  0  0
  1  3  1  0  0  0  0
  1 22  1  0  0  0  0
  4  1  1  0  0  0  0
  5 12  1  0  0  0  0
  5  4  2  0  0  0  0
  6  5  1  0  0  0  0
  7  6  2  0  0  0  0
  7  8  1  0  0  0  0
  8  9  2  0  0  0  0
  9  4  1  0  0  0  0
 10  6  1  0  0  0  0
 11  8  1  0  0  0  0
 13 20  1  6  0  0  0
 13 18  1  0  0  0  0
 13 14  1  0  0  0  0
 14 12  1  6  0  0  0
 14 15  1  0  0  0  0
 15 16  1  0  0  0  0
 17 15  1  0  0  0  0
 18 17  1  0  0  0  0
 19 18  1  0  0  0  0
 20 21  1  0  0  0  0
 22 24  1  0  0  0  0
 22 25  1  0  0  0  0
 23 22  1  0  0  0  0
 25 26  2  0  0  0  0
 26 30  1  0  0  0  0
 26 27  1  0  0  0  0
 28 27  1  0  0  0  0
 29 25  1  0  0  0  0
 29 28  2  0  0  0  0
 31 28  1  0  0  0  0
 32 33  2  0  0  0  0
 33 34  1  0  0  0  0
 33 31  1  0  0  0  0
 35 34  1  0  0  0  0
 36 33  1  0  0  0  0
 37 36  1  0  0  0  0
M  END
>  <minimizedAffinity>
-5.3941617

$$$$

 OpenBabel03252507473D

 37 39  0  0  1  0  0  0  0  0999 V2000
   39.2830   28.1030   43.2190 C   0  0  0  0  0  0  0  0  0  0  0  0
   39.5370   28.1960   44.2950 H   0  0  0  0  0  0  0  0  0  0  0  0
   38.4270   28.8100   43.0520 H   0  0  0  0  0  0  0  0  0  0  0  0
   38.8760   26.7230   42.8820 C   0  0  0  0  0  0  0  0  0  0  0  0
   37.6100   26.5600   42.3570 C   0  0  0  0  0  0  0  0  0  0  0  0
   37.1710   25.2850   42.0210 C   0  0  0  0  0  0  0  0  0  0  0  0
   38.0180   24.2310   42.2250 N   0  0  0  0  0  0  0  0  0  0  0  0
   39.2450   24.4310   42.7400 C   0  0  0  0  0  0  0  0  0  0  0  0
   39.6460   25.6490   43.0530 N   0  0  0  0  0  0  0  0  0  0  0  0
   36.2130   25.0890   41.6170 H   0  0  0  0  0  0  0  0  0  0  0  0
   39.9540   23.6350   42.9220 H   0  0  0  0  0  0  0  0  0  0  0  0
   36.5470   27.9770   42.1050 S   0  0  0  0  0  0  0  0  0  0  0  0
   35.6780   29.7650   40.2830 C   0  0  2  0  0  3  0  0  0  0  0  0
   36.2960   28.3610   40.3840 C   0  0  1  0  0  3  0  0  0  0  0  0
   37.6110   28.6230   39.6750 C   0  0  0  0  0  3  0  0  0  0  0  0
   38.0120   27.7580   39.1450 H   0  0  0  0  0  0  0  0  0  0  0  0
   37.3500   29.5850   38.6930 O   0  0  0  0  0  0  0  0  0  0  0  0
   36.4280   30.4760   39.2060 C   0  0  0  0  0  3  0  0  0  0  0  0
   35.7720   30.7610   38.3400 H   0  0  0  0  0  0  0  0  0  0  0  0
   35.8090   30.4710   41.4710 O   0  0  0  0  0  0  0  0  0  0  0  0
   36.7490   30.4130   41.7290 H   0  0  0  0  0  0  0  0  0  0  0  0
   40.5060   28.5630   42.4760 C   0  0  0  0  0  0  0  0  0  0  0  0
   40.7330   27.7740   41.7170 H   0  0  0  0  0  0  0  0  0  0  0  0
   41.3870   28.5950   43.1520 H   0  0  0  0  0  0  0  0  0  0  0  0
   40.3270   29.8220   41.7230 C   0  0  0  0  0  0  0  0  0  0  0  0
   39.2950   30.7330   42.1050 C   0  0  0  0  0  0  0  0  0  0  0  0
   39.4930   32.1010   40.8900 S   0  0  0  0  0  0  0  0  0  0  0  0
   40.9460   31.1990   40.0700 C   0  0  0  0  0  0  0  0  0  0  0  0
   41.0160   30.2480   40.7020 N   0  0  0  0  0  0  0  0  0  0  0  0
   38.5800   30.6400   42.9060 H   0  0  0  0  0  0  0  0  0  0  0  0
   41.6400   31.7140   38.9770 O   0  0  0  0  0  0  0  0  0  0  0  0
   42.2710   30.9730   36.5100 O   0  0  0  0  0  0  0  0  0  0  0  0
   41.0990   31.2870   37.4300 P   0  0  0  0  0  0  0  0  0  0  0  0
   40.1420   29.8990   37.5850 O   0  0  0  0  0  0  0  0  0  0  0  0
   40.6520   29.0650   37.4320 H   0  0  0  0  0  0  0  0  0  0  0  0
   40.1460   32.5390   36.7920 O   0  0  0  0  0  0  0  0  0  0  0  0
   39.3420   32.1730   36.3310 H   0  0  0  0  0  0  0  0  0  0  0  0
  1  2  1  0  0  0  0
  3  1  1  0  0  0  0
  4  9  1  0  0  0  0
  4  1  1  0  0  0  0
  5  4  2  0  0  0  0
  6  7  2  0  0  0  0
  6  5  1  0  0  0  0
  7  8  1  0  0  0  0
  8 11  1  0  0  0  0
  8  9  2  0  0  0  0
 10  6  1  0  0  0  0
 12  5  1  0  0  0  0
 13 14  1  0  0  0  0
 13 20  1  1  0  0  0
 14 12  1  1  0  0  0
 15 14  1  0  0  0  0
 16 15  1  0  0  0  0
 17 18  1  0  0  0  0
 17 15  1  0  0  0  0
 18 13  1  0  0  0  0
 19 18  1  0  0  0  0
 20 21  1  0  0  0  0
 22 24  1  0  0  0  0
 22  1  1  0  0  0  0
 23 22  1  0  0  0  0
 25 26  2  0  0  0  0
 25 22  1  0  0  0  0
 26 30  1  0  0  0  0
 27 26  1  0  0  0  0
 28 29  2  0  0  0  0
 28 27  1  0  0  0  0
 29 25  1  0  0  0  0
 31 28  1  0  0  0  0
 32 33  2  0  0  0  0
 33 34  1  0  0  0  0
 33 31  1  0  0  0  0
 35 34  1  0  0  0  0
 36 33  1  0  0  0  0
 37 36  1  0  0  0  0
M  END
>  <minimizedAffinity>
-5.38698816

$$$$

 OpenBabel03252507473D

 37 39  0  0  1  0  0  0  0  0999 V2000
   39.5610   30.5770   42.2300 C   0  0  0  0  0  0  0  0  0  0  0  0
   39.3390   31.4340   42.9000 H   0  0  0  0  0  0  0  0  0  0  0  0
   39.3950   30.9620   41.1880 H   0  0  0  0  0  0  0  0  0  0  0  0
   38.6580   29.4390   42.5010 C   0  0  0  0  0  0  0  0  0  0  0  0
   37.4330   29.4540   41.8650 C   0  0  0  0  0  0  0  0  0  0  0  0
   36.5410   28.4110   42.0810 C   0  0  0  0  0  0  0  0  0  0  0  0
   36.9140   27.4000   42.9220 N   0  0  0  0  0  0  0  0  0  0  0  0
   38.1170   27.4220   43.5240 C   0  0  0  0  0  0  0  0  0  0  0  0
   38.9530   28.4200   43.3070 N   0  0  0  0  0  0  0  0  0  0  0  0
   35.5860   28.3610   41.6280 H   0  0  0  0  0  0  0  0  0  0  0  0
   38.4630   26.6500   44.1970 H   0  0  0  0  0  0  0  0  0  0  0  0
   37.0000   30.8010   40.7690 S   0  0  0  0  0  0  0  0  0  0  0  0
   37.2450   29.8860   38.2440 C   0  0  2  0  0  3  0  0  0  0  0  0
   37.9470   30.8010   39.2610 C   0  0  1  0  0  3  0  0  0  0  0  0
   37.8230   32.1220   38.5250 C   0  0  0  0  0  3  0  0  0  0  0  0
   38.6400   32.8190   38.7200 H   0  0  0  0  0  0  0  0  0  0  0  0
   37.8910   31.8260   37.1590 O   0  0  0  0  0  0  0  0  0  0  0  0
   37.2310   30.6310   36.9500 C   0  0  0  0  0  3  0  0  0  0  0  0
   37.8110   30.1050   36.1450 H   0  0  0  0  0  0  0  0  0  0  0  0
   35.9380   29.6070   38.6210 O   0  0  0  0  0  0  0  0  0  0  0  0
   35.5150   30.4640   38.8200 H   0  0  0  0  0  0  0  0  0  0  0  0
   41.0110   30.2540   42.4560 C   0  0  0  0  0  0  0  0  0  0  0  0
   41.1850   29.2440   42.0120 H   0  0  0  0  0  0  0  0  0  0  0  0
   41.2260   30.1500   43.5410 H   0  0  0  0  0  0  0  0  0  0  0  0
   41.9540   31.1710   41.7810 C   0  0  0  0  0  0  0  0  0  0  0  0
   42.8330   31.9810   42.5610 C   0  0  0  0  0  0  0  0  0  0  0  0
   43.7730   32.9100   41.2810 S   0  0  0  0  0  0  0  0  0  0  0  0
   42.8080   32.0370   39.9010 C   0  0  0  0  0  0  0  0  0  0  0  0
   42.1100   31.3570   40.5000 N   0  0  0  0  0  0  0  0  0  0  0  0
   42.9220   32.0350   43.6340 H   0  0  0  0  0  0  0  0  0  0  0  0
   43.0260   32.2840   38.5470 O   0  0  0  0  0  0  0  0  0  0  0  0
   40.9830   33.9720   38.6400 O   0  0  0  0  0  0  0  0  0  0  0  0
   41.8230   33.1200   37.6970 P   0  0  0  0  0  0  0  0  0  0  0  0
   42.5920   34.1380   36.5850 O   0  0  0  0  0  0  0  0  0  0  0  0
   42.7200   35.0560   36.9330 H   0  0  0  0  0  0  0  0  0  0  0  0
   40.8510   32.0170   36.8480 O   0  0  0  0  0  0  0  0  0  0  0  0
   40.6480   32.3560   35.9340 H   0  0  0  0  0  0  0  0  0  0  0  0
  1 22  1  0  0  0  0
  1  4  1  0  0  0  0
  1  2  1  0  0  0  0
  3  1  1  0  0  0  0
  4  9  1  0  0  0  0
  5  6  1  0  0  0  0
  5  4  2  0  0  0  0
  6  7  2  0  0  0  0
  7  8  1  0  0  0  0
  8 11  1  0  0  0  0
  9  8  2  0  0  0  0
 10  6  1  0  0  0  0
 12  5  1  0  0  0  0
 13 20  1  1  0  0  0
 13 14  1  0  0  0  0
 14 12  1  1  0  0  0
 15 16  1  0  0  0  0
 15 14  1  0  0  0  0
 17 15  1  0  0  0  0
 18 17  1  0  0  0  0
 18 13  1  0  0  0  0
 19 18  1  0  0  0  0
 20 21  1  0  0  0  0
 22 24  1  0  0  0  0
 23 22  1  0  0  0  0
 25 22  1  0  0  0  0
 25 26  2  0  0  0  0
 26 30  1  0  0  0  0
 27 26  1  0  0  0  0
 28 29  2  0  0  0  0
 28 27  1  0  0  0  0
 29 25  1  0  0  0  0
 31 28  1  0  0  0  0
 33 31  1  0  0  0  0
 33 32  2  0  0  0  0
 34 35  1  0  0  0  0
 34 33  1  0  0  0  0
 36 33  1  0  0  0  0
 37 36  1  0  0  0  0
M  END
>  <minimizedAffinity>
-5.2811079

$$$$

 OpenBabel03252507473D

 37 39  0  0  1  0  0  0  0  0999 V2000
   36.2780   29.4700   39.3510 C   0  0  0  0  0  0  0  0  0  0  0  0
   36.6760   28.6830   38.6770 H   0  0  0  0  0  0  0  0  0  0  0  0
   36.3560   30.4280   38.7690 H   0  0  0  0  0  0  0  0  0  0  0  0
   37.0720   29.5640   40.5930 C   0  0  0  0  0  0  0  0  0  0  0  0
   38.1800   30.3870   40.5610 C   0  0  0  0  0  0  0  0  0  0  0  0
   38.9660   30.5150   41.6990 C   0  0  0  0  0  0  0  0  0  0  0  0
   38.6090   29.8150   42.8190 N   0  0  0  0  0  0  0  0  0  0  0  0
   37.5220   29.0220   42.8100 C   0  0  0  0  0  0  0  0  0  0  0  0
   36.7860   28.9130   41.7200 N   0  0  0  0  0  0  0  0  0  0  0  0
   39.8290   31.1250   41.7430 H   0  0  0  0  0  0  0  0  0  0  0  0
   37.1940   28.4480   43.6650 H   0  0  0  0  0  0  0  0  0  0  0  0
   38.5960   31.2840   39.0700 S   0  0  0  0  0  0  0  0  0  0  0  0
   40.6480   31.9790   37.4640 C   0  0  2  0  0  3  0  0  0  0  0  0
   40.3380   31.6240   38.9280 C   0  0  1  0  0  3  0  0  0  0  0  0
   40.7040   32.9430   39.5800 C   0  0  0  0  0  3  0  0  0  0  0  0
   41.0820   32.8470   40.5990 H   0  0  0  0  0  0  0  0  0  0  0  0
   41.7580   33.4800   38.8320 O   0  0  0  0  0  0  0  0  0  0  0  0
   41.5290   33.1830   37.5030 C   0  0  0  0  0  3  0  0  0  0  0  0
   42.5420   32.9900   37.0600 H   0  0  0  0  0  0  0  0  0  0  0  0
   39.4940   32.2820   36.7540 O   0  0  0  0  0  0  0  0  0  0  0  0
   39.0060   32.9430   37.2830 H   0  0  0  0  0  0  0  0  0  0  0  0
   34.8390   29.1070   39.5880 C   0  0  0  0  0  0  0  0  0  0  0  0
   34.3750   29.9730   40.1190 H   0  0  0  0  0  0  0  0  0  0  0  0
   34.7620   28.2460   40.2870 H   0  0  0  0  0  0  0  0  0  0  0  0
   34.0480   28.9040   38.3570 C   0  0  0  0  0  0  0  0  0  0  0  0
   34.5700   28.0870   37.3070 C   0  0  0  0  0  0  0  0  0  0  0  0
   33.2380   28.1540   36.0400 S   0  0  0  0  0  0  0  0  0  0  0  0
   32.1970   29.2830   37.1550 C   0  0  0  0  0  0  0  0  0  0  0  0
   32.8730   29.3890   38.0720 N   0  0  0  0  0  0  0  0  0  0  0  0
   35.5120   27.5630   37.2700 H   0  0  0  0  0  0  0  0  0  0  0  0
   30.9440   29.7680   36.7860 O   0  0  0  0  0  0  0  0  0  0  0  0
   28.7110   30.8480   37.7240 O   0  0  0  0  0  0  0  0  0  0  0  0
   29.7120   29.7220   37.9470 P   0  0  0  0  0  0  0  0  0  0  0  0
   28.9080   28.2410   37.7850 O   0  0  0  0  0  0  0  0  0  0  0  0
   28.1060   28.3030   37.2080 H   0  0  0  0  0  0  0  0  0  0  0  0
   30.3870   29.8100   39.5020 O   0  0  0  0  0  0  0  0  0  0  0  0
   29.9350   29.1730   40.1210 H   0  0  0  0  0  0  0  0  0  0  0  0
  1 22  1  0  0  0  0
  1  4  1  0  0  0  0
  2  1  1  0  0  0  0
  3  1  1  0  0  0  0
  4  9  1  0  0  0  0
  5  4  2  0  0  0  0
  5  6  1  0  0  0  0
  6 10  1  0  0  0  0
  6  7  2  0  0  0  0
  8  7  1  0  0  0  0
  8 11  1  0  0  0  0
  9  8  2  0  0  0  0
 12  5  1  0  0  0  0
 13 20  1  6  0  0  0
 13 18  1  0  0  0  0
 13 14  1  0  0  0  0
 14 12  1  6  0  0  0
 14 15  1  0  0  0  0
 15 16  1  0  0  0  0
 17 15  1  0  0  0  0
 18 17  1  0  0  0  0
 19 18  1  0  0  0  0
 20 21  1  0  0  0  0
 22 23  1  0  0  0  0
 22 24  1  0  0  0  0
 25 22  1  0  0  0  0
 26 25  2  0  0  0  0
 27 28  1  0  0  0  0
 27 26  1  0  0  0  0
 28 29  2  0  0  0  0
 29 25  1  0  0  0  0
 30 26  1  0  0  0  0
 31 28  1  0  0  0  0
 31 33  1  0  0  0  0
 32 33  2  0  0  0  0
 33 36  1  0  0  0  0
 34 33  1  0  0  0  0
 35 34  1  0  0  0  0
 36 37  1  0  0  0  0
M  END
>  <minimizedAffinity>
-5.16519976

$$$$

 OpenBabel03252507473D

 37 39  0  0  1  0  0  0  0  0999 V2000
   38.6890   29.6350   41.4090 C   0  0  0  0  0  0  0  0  0  0  0  0
   38.6360   30.7210   41.6340 H   0  0  0  0  0  0  0  0  0  0  0  0
   39.7540   29.4430   41.1120 H   0  0  0  0  0  0  0  0  0  0  0  0
   37.7800   29.2730   40.3030 C   0  0  0  0  0  0  0  0  0  0  0  0
   37.0550   30.3010   39.7340 C   0  0  0  0  0  0  0  0  0  0  0  0
   36.1820   30.0220   38.6890 C   0  0  0  0  0  0  0  0  0  0  0  0
   36.0740   28.7280   38.2600 N   0  0  0  0  0  0  0  0  0  0  0  0
   36.7970   27.7540   38.8420 C   0  0  0  0  0  0  0  0  0  0  0  0
   37.6220   28.0370   39.8320 N   0  0  0  0  0  0  0  0  0  0  0  0
   35.5960   30.7610   38.2090 H   0  0  0  0  0  0  0  0  0  0  0  0
   36.7510   26.7160   38.5430 H   0  0  0  0  0  0  0  0  0  0  0  0
   37.2420   31.9780   40.3310 S   0  0  0  0  0  0  0  0  0  0  0  0
   38.8970   34.0980   40.1400 C   0  0  2  0  0  3  0  0  0  0  0  0
   38.2840   32.9750   39.2870 C   0  0  1  0  0  3  0  0  0  0  0  0
   39.5550   32.2400   38.9040 C   0  0  0  0  0  3  0  0  0  0  0  0
   39.5100   31.7500   37.9310 H   0  0  0  0  0  0  0  0  0  0  0  0
   40.5590   33.2090   38.7970 O   0  0  0  0  0  0  0  0  0  0  0  0
   40.3450   34.1530   39.7820 C   0  0  0  0  0  3  0  0  0  0  0  0
   40.6380   35.1360   39.3250 H   0  0  0  0  0  0  0  0  0  0  0  0
   38.7730   33.8370   41.4980 O   0  0  0  0  0  0  0  0  0  0  0  0
   39.1100   32.9310   41.6410 H   0  0  0  0  0  0  0  0  0  0  0  0
   38.3620   28.9400   42.7020 C   0  0  0  0  0  0  0  0  0  0  0  0
   37.2760   28.6850   42.6600 H   0  0  0  0  0  0  0  0  0  0  0  0
   38.4780   29.6350   43.5610 H   0  0  0  0  0  0  0  0  0  0  0  0
   39.0800   27.6650   42.9080 C   0  0  0  0  0  0  0  0  0  0  0  0
   40.4150   27.6800   43.4170 C   0  0  0  0  0  0  0  0  0  0  0  0
   40.8400   25.8910   43.4900 S   0  0  0  0  0  0  0  0  0  0  0  0
   39.1280   25.4290   42.8150 C   0  0  0  0  0  0  0  0  0  0  0  0
   38.6450   26.4570   42.6830 N   0  0  0  0  0  0  0  0  0  0  0  0
   41.0200   28.5290   43.6890 H   0  0  0  0  0  0  0  0  0  0  0  0
   38.7280   24.1120   42.5970 O   0  0  0  0  0  0  0  0  0  0  0  0
   36.3920   24.0190   41.3450 O   0  0  0  0  0  0  0  0  0  0  0  0
   37.8850   23.7740   41.1680 P   0  0  0  0  0  0  0  0  0  0  0  0
   38.4670   24.8170   39.9680 O   0  0  0  0  0  0  0  0  0  0  0  0
   37.9190   25.6370   39.8770 H   0  0  0  0  0  0  0  0  0  0  0  0
   38.1850   22.1720   40.6920 O   0  0  0  0  0  0  0  0  0  0  0  0
   38.3280   22.1170   39.7070 H   0  0  0  0  0  0  0  0  0  0  0  0
  1  2  1  0  0  0  0
  1 22  1  0  0  0  0
  3  1  1  0  0  0  0
  4  1  1  0  0  0  0
  5  4  2  0  0  0  0
  5 12  1  0  0  0  0
  6  5  1  0  0  0  0
  7  6  2  0  0  0  0
  7  8  1  0  0  0  0
  8  9  2  0  0  0  0
  9  4  1  0  0  0  0
 10  6  1  0  0  0  0
 11  8  1  0  0  0  0
 13 20  1  1  0  0  0
 14 13  1  0  0  0  0
 14 12  1  1  0  0  0
 15 14  1  0  0  0  0
 16 15  1  0  0  0  0
 17 15  1  0  0  0  0
 17 18  1  0  0  0  0
 18 13  1  0  0  0  0
 19 18  1  0  0  0  0
 20 21  1  0  0  0  0
 22 25  1  0  0  0  0
 22 24  1  0  0  0  0
 23 22  1  0  0  0  0
 25 26  2  0  0  0  0
 26 27  1  0  0  0  0
 26 30  1  0  0  0  0
 28 27  1  0  0  0  0
 29 28  2  0  0  0  0
 29 25  1  0  0  0  0
 31 28  1  0  0  0  0
 33 32  2  0  0  0  0
 33 31  1  0  0  0  0
 34 33  1  0  0  0  0
 35 34  1  0  0  0  0
 36 33  1  0  0  0  0
 37 36  1  0  0  0  0
M  END
>  <minimizedAffinity>
-5.06440973

$$$$

 OpenBabel03252507473D

 37 39  0  0  1  0  0  0  0  0999 V2000
   36.9660   27.2550   42.4330 C   0  0  0  0  0  0  0  0  0  0  0  0
   37.7910   26.5320   42.2620 H   0  0  0  0  0  0  0  0  0  0  0  0
   36.1380   26.6580   42.9010 H   0  0  0  0  0  0  0  0  0  0  0  0
   36.5060   27.8520   41.1620 C   0  0  0  0  0  0  0  0  0  0  0  0
   37.1530   27.4420   40.0140 C   0  0  0  0  0  0  0  0  0  0  0  0
   36.7650   27.9700   38.7880 C   0  0  0  0  0  0  0  0  0  0  0  0
   35.7480   28.8830   38.7660 N   0  0  0  0  0  0  0  0  0  0  0  0
   35.1430   29.2580   39.9080 C   0  0  0  0  0  0  0  0  0  0  0  0
   35.5240   28.7460   41.0630 N   0  0  0  0  0  0  0  0  0  0  0  0
   37.2190   27.7010   37.8710 H   0  0  0  0  0  0  0  0  0  0  0  0
   34.3340   29.9750   39.9490 H   0  0  0  0  0  0  0  0  0  0  0  0
   38.4740   26.2380   40.1010 S   0  0  0  0  0  0  0  0  0  0  0  0
   38.7310   23.5550   40.1700 C   0  0  2  0  0  3  0  0  0  0  0  0
   38.0370   24.6730   39.3750 C   0  0  1  0  0  3  0  0  0  0  0  0
   36.5910   24.3110   39.6590 C   0  0  0  0  0  3  0  0  0  0  0  0
   35.9000   24.5700   38.8550 H   0  0  0  0  0  0  0  0  0  0  0  0
   36.5430   22.9160   39.7680 O   0  0  0  0  0  0  0  0  0  0  0  0
   37.7000   22.5000   40.3970 C   0  0  0  0  0  3  0  0  0  0  0  0
   37.9690   21.5230   39.9120 H   0  0  0  0  0  0  0  0  0  0  0  0
   39.1950   24.0100   41.3970 O   0  0  0  0  0  0  0  0  0  0  0  0
   38.4460   24.4670   41.8270 H   0  0  0  0  0  0  0  0  0  0  0  0
   37.5100   28.2650   43.4040 C   0  0  0  0  0  0  0  0  0  0  0  0
   37.9070   27.6870   44.2740 H   0  0  0  0  0  0  0  0  0  0  0  0
   36.6930   28.9000   43.8090 H   0  0  0  0  0  0  0  0  0  0  0  0
   38.6410   29.0640   42.8870 C   0  0  0  0  0  0  0  0  0  0  0  0
   39.9520   28.4970   42.8580 C   0  0  0  0  0  0  0  0  0  0  0  0
   40.9650   29.8570   42.1450 S   0  0  0  0  0  0  0  0  0  0  0  0
   39.4310   30.9650   42.0090 C   0  0  0  0  0  0  0  0  0  0  0  0
   38.6140   30.2820   42.4250 N   0  0  0  0  0  0  0  0  0  0  0  0
   40.2670   27.5160   43.1760 H   0  0  0  0  0  0  0  0  0  0  0  0
   39.4740   32.2630   41.5030 O   0  0  0  0  0  0  0  0  0  0  0  0
   38.4320   34.1580   39.9700 O   0  0  0  0  0  0  0  0  0  0  0  0
   38.3590   32.6720   40.2960 P   0  0  0  0  0  0  0  0  0  0  0  0
   38.7580   31.7910   38.9070 O   0  0  0  0  0  0  0  0  0  0  0  0
   39.3350   32.3010   38.2850 H   0  0  0  0  0  0  0  0  0  0  0  0
   36.7950   32.2350   40.7900 O   0  0  0  0  0  0  0  0  0  0  0  0
   36.2880   31.8240   40.0370 H   0  0  0  0  0  0  0  0  0  0  0  0
  1  3  1  0  0  0  0
  1 22  1  0  0  0  0
  2  1  1  0  0  0  0
  4  1  1  0  0  0  0
  5 12  1  0  0  0  0
  5  4  2  0  0  0  0
  6  5  1  0  0  0  0
  7  6  2  0  0  0  0
  7  8  1  0  0  0  0
  8 11  1  0  0  0  0
  8  9  2  0  0  0  0
  9  4  1  0  0  0  0
 10  6  1  0  0  0  0
 13 18  1  0  0  0  0
 13 20  1  1  0  0  0
 14 15  1  0  0  0  0
 14 12  1  1  0  0  0
 14 13  1  0  0  0  0
 15 17  1  0  0  0  0
 16 15  1  0  0  0  0
 17 18  1  0  0  0  0
 19 18  1  0  0  0  0
 20 21  1  0  0  0  0
 22 24  1  0  0  0  0
 22 23  1  0  0  0  0
 25 22  1  0  0  0  0
 26 25  2  0  0  0  0
 26 30  1  0  0  0  0
 27 26  1  0  0  0  0
 28 27  1  0  0  0  0
 28 29  2  0  0  0  0
 29 25  1  0  0  0  0
 31 28  1  0  0  0  0
 32 33  2  0  0  0  0
 33 36  1  0  0  0  0
 33 31  1  0  0  0  0
 34 33  1  0  0  0  0
 35 34  1  0  0  0  0
 37 36  1  0  0  0  0
M  END
>  <minimizedAffinity>
-5.02816582

$$$$

 OpenBabel03252507473D

 37 39  0  0  1  0  0  0  0  0999 V2000
   36.9480   25.8080   40.7280 C   0  0  0  0  0  0  0  0  0  0  0  0
   36.3940   26.7550   40.5600 H   0  0  0  0  0  0  0  0  0  0  0  0
   36.1770   25.0680   41.0730 H   0  0  0  0  0  0  0  0  0  0  0  0
   37.9900   25.9740   41.7620 C   0  0  0  0  0  0  0  0  0  0  0  0
   38.0600   27.2060   42.3810 C   0  0  0  0  0  0  0  0  0  0  0  0
   39.0200   27.4220   43.3620 C   0  0  0  0  0  0  0  0  0  0  0  0
   39.8680   26.3970   43.6790 N   0  0  0  0  0  0  0  0  0  0  0  0
   39.7690   25.2110   43.0520 C   0  0  0  0  0  0  0  0  0  0  0  0
   38.8500   25.0230   42.1230 N   0  0  0  0  0  0  0  0  0  0  0  0
   39.1300   28.3410   43.8740 H   0  0  0  0  0  0  0  0  0  0  0  0
   40.4120   24.3680   43.2630 H   0  0  0  0  0  0  0  0  0  0  0  0
   36.9200   28.5090   41.9300 S   0  0  0  0  0  0  0  0  0  0  0  0
   36.5450   30.7200   40.4330 C   0  0  2  0  0  3  0  0  0  0  0  0
   37.5870   29.6250   40.7140 C   0  0  1  0  0  3  0  0  0  0  0  0
   38.6930   30.4860   41.2940 C   0  0  0  0  0  3  0  0  0  0  0  0
   39.6990   30.1080   41.1040 H   0  0  0  0  0  0  0  0  0  0  0  0
   38.6210   31.7220   40.6420 O   0  0  0  0  0  0  0  0  0  0  0  0
   37.2870   32.0150   40.4340 C   0  0  0  0  0  3  0  0  0  0  0  0
   37.2460   32.5370   39.4410 H   0  0  0  0  0  0  0  0  0  0  0  0
   35.5630   30.7570   41.4130 O   0  0  0  0  0  0  0  0  0  0  0  0
   36.0260   30.7890   42.2720 H   0  0  0  0  0  0  0  0  0  0  0  0
   37.4980   25.4190   39.3840 C   0  0  0  0  0  0  0  0  0  0  0  0
   36.6390   25.0160   38.7940 H   0  0  0  0  0  0  0  0  0  0  0  0
   38.2180   24.5790   39.4830 H   0  0  0  0  0  0  0  0  0  0  0  0
   38.0480   26.5440   38.5990 C   0  0  0  0  0  0  0  0  0  0  0  0
   39.4520   26.8040   38.6260 C   0  0  0  0  0  0  0  0  0  0  0  0
   39.6160   28.2610   37.5150 S   0  0  0  0  0  0  0  0  0  0  0  0
   37.7440   28.2680   37.2040 C   0  0  0  0  0  0  0  0  0  0  0  0
   37.4000   27.3810   37.8390 N   0  0  0  0  0  0  0  0  0  0  0  0
   40.2230   26.2770   39.1650 H   0  0  0  0  0  0  0  0  0  0  0  0
   37.1150   29.1960   36.3770 O   0  0  0  0  0  0  0  0  0  0  0  0
   34.8540   28.9430   35.0150 O   0  0  0  0  0  0  0  0  0  0  0  0
   36.3410   28.6130   34.9880 P   0  0  0  0  0  0  0  0  0  0  0  0
   37.0420   29.3750   33.6490 O   0  0  0  0  0  0  0  0  0  0  0  0
   36.5410   30.1800   33.3630 H   0  0  0  0  0  0  0  0  0  0  0  0
   36.5880   26.9380   34.8560 O   0  0  0  0  0  0  0  0  0  0  0  0
   36.7850   26.6840   33.9130 H   0  0  0  0  0  0  0  0  0  0  0  0
  1  3  1  0  0  0  0
  1  4  1  0  0  0  0
  2  1  1  0  0  0  0
  4  9  2  0  0  0  0
  4  5  1  0  0  0  0
  5  6  2  0  0  0  0
  6  7  1  0  0  0  0
  6 10  1  0  0  0  0
  8 11  1  0  0  0  0
  8  7  2  0  0  0  0
  9  8  1  0  0  0  0
 12  5  1  0  0  0  0
 13 18  1  0  0  0  0
 13 14  1  0  0  0  0
 13 20  1  1  0  0  0
 14 15  1  0  0  0  0
 14 12  1  1  0  0  0
 16 15  1  0  0  0  0
 17 15  1  0  0  0  0
 18 17  1  0  0  0  0
 19 18  1  0  0  0  0
 20 21  1  0  0  0  0
 22 24  1  0  0  0  0
 22  1  1  0  0  0  0
 23 22  1  0  0  0  0
 25 26  2  0  0  0  0
 25 22  1  0  0  0  0
 26 30  1  0  0  0  0
 27 26  1  0  0  0  0
 28 27  1  0  0  0  0
 28 29  2  0  0  0  0
 29 25  1  0  0  0  0
 31 28  1  0  0  0  0
 33 32  2  0  0  0  0
 33 31  1  0  0  0  0
 34 33  1  0  0  0  0
 35 34  1  0  0  0  0
 36 33  1  0  0  0  0
 37 36  1  0  0  0  0
M  END
>  <minimizedAffinity>
-5.02267647

$$$$

 OpenBabel03252507473D

 37 39  0  0  1  0  0  0  0  0999 V2000
   36.6580   29.3360   38.1080 C   0  0  0  0  0  0  0  0  0  0  0  0
   36.3140   29.4550   39.1570 H   0  0  0  0  0  0  0  0  0  0  0  0
   35.7740   28.9260   37.5480 H   0  0  0  0  0  0  0  0  0  0  0  0
   37.7940   28.3970   38.0200 C   0  0  0  0  0  0  0  0  0  0  0  0
   37.8780   27.4310   39.0020 C   0  0  0  0  0  0  0  0  0  0  0  0
   38.9260   26.5190   38.9730 C   0  0  0  0  0  0  0  0  0  0  0  0
   39.8430   26.6140   37.9630 N   0  0  0  0  0  0  0  0  0  0  0  0
   39.7270   27.5710   37.0240 C   0  0  0  0  0  0  0  0  0  0  0  0
   38.7250   28.4290   37.0670 N   0  0  0  0  0  0  0  0  0  0  0  0
   39.0520   25.7550   39.6950 H   0  0  0  0  0  0  0  0  0  0  0  0
   40.4220   27.6920   36.2050 H   0  0  0  0  0  0  0  0  0  0  0  0
   36.6460   27.3480   40.2970 S   0  0  0  0  0  0  0  0  0  0  0  0
   37.3160   27.1270   42.9000 C   0  0  2  0  0  3  0  0  0  0  0  0
   37.1500   28.1780   41.7900 C   0  0  1  0  0  3  0  0  0  0  0  0
   38.5850   28.6640   41.7000 C   0  0  0  0  0  3  0  0  0  0  0  0
   38.6830   29.7100   41.4060 H   0  0  0  0  0  0  0  0  0  0  0  0
   39.1170   28.5770   42.9910 O   0  0  0  0  0  0  0  0  0  0  0  0
   38.6020   27.4430   43.5870 C   0  0  0  0  0  3  0  0  0  0  0  0
   38.4580   27.7120   44.6680 H   0  0  0  0  0  0  0  0  0  0  0  0
   37.3810   25.8400   42.3830 O   0  0  0  0  0  0  0  0  0  0  0  0
   38.0550   25.8560   41.6760 H   0  0  0  0  0  0  0  0  0  0  0  0
   36.9920   30.7230   37.6350 C   0  0  0  0  0  0  0  0  0  0  0  0
   36.0210   31.2680   37.5360 H   0  0  0  0  0  0  0  0  0  0  0  0
   37.4290   30.6950   36.6140 H   0  0  0  0  0  0  0  0  0  0  0  0
   37.8140   31.5100   38.5780 C   0  0  0  0  0  0  0  0  0  0  0  0
   37.4000   31.6390   39.9390 C   0  0  0  0  0  0  0  0  0  0  0  0
   38.7290   32.6800   40.6700 S   0  0  0  0  0  0  0  0  0  0  0  0
   39.6220   32.7620   38.9980 C   0  0  0  0  0  0  0  0  0  0  0  0
   38.9290   32.1390   38.3340 N   0  0  0  0  0  0  0  0  0  0  0  0
   36.5250   31.2280   40.4160 H   0  0  0  0  0  0  0  0  0  0  0  0
   40.8150   33.4550   38.8070 O   0  0  0  0  0  0  0  0  0  0  0  0
   43.0000   32.0430   38.2970 O   0  0  0  0  0  0  0  0  0  0  0  0
   41.8920   32.8590   37.6440 P   0  0  0  0  0  0  0  0  0  0  0  0
   41.0180   31.8530   36.6010 O   0  0  0  0  0  0  0  0  0  0  0  0
   41.0660   30.8990   36.8630 H   0  0  0  0  0  0  0  0  0  0  0  0
   42.5370   34.1490   36.7470 O   0  0  0  0  0  0  0  0  0  0  0  0
   42.5760   33.9200   35.7780 H   0  0  0  0  0  0  0  0  0  0  0  0
  1  2  1  0  0  0  0
  3  1  1  0  0  0  0
  4  1  1  0  0  0  0
  4  5  1  0  0  0  0
  5 12  1  0  0  0  0
  6  5  2  0  0  0  0
  6 10  1  0  0  0  0
  7  6  1  0  0  0  0
  8  9  1  0  0  0  0
  8  7  2  0  0  0  0
  9  4  2  0  0  0  0
 11  8  1  0  0  0  0
 13 20  1  6  0  0  0
 13 18  1  0  0  0  0
 14 12  1  6  0  0  0
 14 13  1  0  0  0  0
 15 14  1  0  0  0  0
 15 17  1  0  0  0  0
 16 15  1  0  0  0  0
 17 18  1  0  0  0  0
 18 19  1  0  0  0  0
 21 20  1  0  0  0  0
 22  1  1  0  0  0  0
 22 25  1  0  0  0  0
 23 22  1  0  0  0  0
 24 22  1  0  0  0  0
 25 26  2  0  0  0  0
 26 30  1  0  0  0  0
 26 27  1  0  0  0  0
 28 27  1  0  0  0  0
 29 25  1  0  0  0  0
 29 28  2  0  0  0  0
 31 28  1  0  0  0  0
 33 32  2  0  0  0  0
 33 31  1  0  0  0  0
 34 35  1  0  0  0  0
 34 33  1  0  0  0  0
 36 33  1  0  0  0  0
 37 36  1  0  0  0  0
M  END
>  <minimizedAffinity>
-5.01968288

$$$$
