
 OpenBabel03252507453D

 37 39  0  0  1  0  0  0  0  0999 V2000
   47.4240   34.4300   40.7130 C   0  0  0  0  0  0  0  0  0  0  0  0
   46.7470   33.7450   40.1620 H   0  0  0  0  0  0  0  0  0  0  0  0
   47.6270   35.2800   40.0070 H   0  0  0  0  0  0  0  0  0  0  0  0
   48.6880   33.7580   41.0750 C   0  0  0  0  0  0  0  0  0  0  0  0
   49.0170   32.6260   40.3560 C   0  0  0  0  0  0  0  0  0  0  0  0
   50.1950   31.9500   40.6520 C   0  0  0  0  0  0  0  0  0  0  0  0
   50.9900   32.4360   41.6520 N   0  0  0  0  0  0  0  0  0  0  0  0
   50.6340   33.5410   42.3310 C   0  0  0  0  0  0  0  0  0  0  0  0
   49.5120   34.1720   42.0370 N   0  0  0  0  0  0  0  0  0  0  0  0
   50.5060   31.0760   40.1420 H   0  0  0  0  0  0  0  0  0  0  0  0
   51.2240   33.9690   43.1300 H   0  0  0  0  0  0  0  0  0  0  0  0
   47.9420   32.0390   39.0520 S   0  0  0  0  0  0  0  0  0  0  0  0
   47.8160   31.2760   36.4700 C   0  0  2  0  0  3  0  0  0  0  0  0
   48.7330   32.0160   37.4570 C   0  0  1  0  0  3  0  0  0  0  0  0
   48.7260   33.3890   36.8120 C   0  0  0  0  0  3  0  0  0  0  0  0
   49.6470   33.9560   36.9590 H   0  0  0  0  0  0  0  0  0  0  0  0
   48.6230   33.1810   35.4310 O   0  0  0  0  0  0  0  0  0  0  0  0
   47.7850   32.1030   35.2270 C   0  0  0  0  0  3  0  0  0  0  0  0
   48.2050   31.5600   34.3370 H   0  0  0  0  0  0  0  0  0  0  0  0
   46.5250   31.1490   36.9630 O   0  0  0  0  0  0  0  0  0  0  0  0
   46.2470   32.0390   37.2520 H   0  0  0  0  0  0  0  0  0  0  0  0
   46.6370   34.9030   41.9040 C   0  0  0  0  0  0  0  0  0  0  0  0
   46.9250   35.9690   42.0720 H   0  0  0  0  0  0  0  0  0  0  0  0
   46.9470   34.3560   42.8200 H   0  0  0  0  0  0  0  0  0  0  0  0
   45.1720   34.8940   41.7110 C   0  0  0  0  0  0  0  0  0  0  0  0
   44.3270   35.5010   42.6890 C   0  0  0  0  0  0  0  0  0  0  0  0
   42.6440   35.2310   41.9960 S   0  0  0  0  0  0  0  0  0  0  0  0
   43.3790   34.3370   40.4920 C   0  0  0  0  0  0  0  0  0  0  0  0
   44.4990   34.3850   40.7180 N   0  0  0  0  0  0  0  0  0  0  0  0
   44.6070   35.9940   43.6060 H   0  0  0  0  0  0  0  0  0  0  0  0
   42.5980   33.8150   39.4630 O   0  0  0  0  0  0  0  0  0  0  0  0
   40.6350   34.1770   37.7170 O   0  0  0  0  0  0  0  0  0  0  0  0
   41.7000   34.9040   38.5280 P   0  0  0  0  0  0  0  0  0  0  0  0
   40.9340   35.9810   39.5870 O   0  0  0  0  0  0  0  0  0  0  0  0
   40.0110   35.7030   39.8120 H   0  0  0  0  0  0  0  0  0  0  0  0
   42.7410   35.7820   37.5150 O   0  0  0  0  0  0  0  0  0  0  0  0
   42.4820   36.7440   37.4890 H   0  0  0  0  0  0  0  0  0  0  0  0
  1  4  1  0  0  0  0
  1 22  1  0  0  0  0
  2  1  1  0  0  0  0
  3  1  1  0  0  0  0
  4  9  1  0  0  0  0
  5  6  1  0  0  0  0
  5  4  2  0  0  0  0
  6  7  2  0  0  0  0
  7  8  1  0  0  0  0
  8 11  1  0  0  0  0
  9  8  2  0  0  0  0
 10  6  1  0  0  0  0
 12  5  1  0  0  0  0
 13 20  1  1  0  0  0
 13 14  1  0  0  0  0
 14 12  1  1  0  0  0
 15 16  1  0  0  0  0
 15 14  1  0  0  0  0
 17 15  1  0  0  0  0
 18 17  1  0  0  0  0
 18 13  1  0  0  0  0
 19 18  1  0  0  0  0
 20 21  1  0  0  0  0
 22 23  1  0  0  0  0
 22 24  1  0  0  0  0
 25 22  1  0  0  0  0
 25 26  2  0  0  0  0
 26 30  1  0  0  0  0
 27 26  1  0  0  0  0
 28 29  2  0  0  0  0
 28 27  1  0  0  0  0
 29 25  1  0  0  0  0
 31 28  1  0  0  0  0
 32 33  2  0  0  0  0
 33 31  1  0  0  0  0
 33 34  1  0  0  0  0
 34 35  1  0  0  0  0
 36 33  1  0  0  0  0
 37 36  1  0  0  0  0
M  END
>  <minimizedAffinity>
-5.04887486

>  <minimizedRMSD>
1.66084778

$$$$
