
 OpenBabel03252507453D

 37 39  0  0  1  0  0  0  0  0999 V2000
   47.1960   34.3280   40.7780 C   0  0  0  0  0  0  0  0  0  0  0  0
   46.5710   33.4790   40.4310 H   0  0  0  0  0  0  0  0  0  0  0  0
   47.3030   35.0030   39.8870 H   0  0  0  0  0  0  0  0  0  0  0  0
   48.5250   33.8660   41.2280 C   0  0  0  0  0  0  0  0  0  0  0  0
   49.0690   32.7920   40.5530 C   0  0  0  0  0  0  0  0  0  0  0  0
   50.3170   32.3110   40.9320 C   0  0  0  0  0  0  0  0  0  0  0  0
   50.9650   32.9280   41.9660 N   0  0  0  0  0  0  0  0  0  0  0  0
   50.4000   33.9720   42.5990 C   0  0  0  0  0  0  0  0  0  0  0  0
   49.2140   34.4150   42.2270 N   0  0  0  0  0  0  0  0  0  0  0  0
   50.7910   31.4910   40.4600 H   0  0  0  0  0  0  0  0  0  0  0  0
   50.8670   34.4960   43.4220 H   0  0  0  0  0  0  0  0  0  0  0  0
   48.1800   32.0280   39.2010 S   0  0  0  0  0  0  0  0  0  0  0  0
   49.9380   31.7740   37.1730 C   0  0  2  0  0  3  0  0  0  0  0  0
   49.1970   30.9370   38.2290 C   0  0  1  0  0  3  0  0  0  0  0  0
   50.3890   30.4340   39.0200 C   0  0  0  0  0  3  0  0  0  0  0  0
   50.2410   29.4520   39.4720 H   0  0  0  0  0  0  0  0  0  0  0  0
   51.4380   30.2780   38.1070 O   0  0  0  0  0  0  0  0  0  0  0  0
   51.3560   31.3060   37.1880 C   0  0  0  0  0  3  0  0  0  0  0  0
   51.6720   30.8580   36.2070 H   0  0  0  0  0  0  0  0  0  0  0  0
   49.9040   33.1280   37.4750 O   0  0  0  0  0  0  0  0  0  0  0  0
   50.1960   33.2170   38.4030 H   0  0  0  0  0  0  0  0  0  0  0  0
   46.3980   34.9970   41.8620 C   0  0  0  0  0  0  0  0  0  0  0  0
   46.6770   36.0790   41.8400 H   0  0  0  0  0  0  0  0  0  0  0  0
   46.7070   34.6250   42.8630 H   0  0  0  0  0  0  0  0  0  0  0  0
   44.9350   34.9420   41.6680 C   0  0  0  0  0  0  0  0  0  0  0  0
   44.0670   35.4440   42.6860 C   0  0  0  0  0  0  0  0  0  0  0  0
   42.3960   35.1540   41.9730 S   0  0  0  0  0  0  0  0  0  0  0  0
   43.1630   34.3990   40.4110 C   0  0  0  0  0  0  0  0  0  0  0  0
   44.2810   34.4770   40.6410 N   0  0  0  0  0  0  0  0  0  0  0  0
   44.3290   35.8830   43.6350 H   0  0  0  0  0  0  0  0  0  0  0  0
   42.4030   33.9180   39.3470 O   0  0  0  0  0  0  0  0  0  0  0  0
   40.4400   34.3540   37.6180 O   0  0  0  0  0  0  0  0  0  0  0  0
   41.5190   35.0440   38.4420 P   0  0  0  0  0  0  0  0  0  0  0  0
   40.7750   36.1070   39.5290 O   0  0  0  0  0  0  0  0  0  0  0  0
   39.8480   35.8390   39.7510 H   0  0  0  0  0  0  0  0  0  0  0  0
   42.5710   35.9290   37.4450 O   0  0  0  0  0  0  0  0  0  0  0  0
   42.3270   36.8950   37.4440 H   0  0  0  0  0  0  0  0  0  0  0  0
  1  4  1  0  0  0  0
  1 22  1  0  0  0  0
  2  1  1  0  0  0  0
  3  1  1  0  0  0  0
  4  9  1  0  0  0  0
  5  6  1  0  0  0  0
  5  4  2  0  0  0  0
  6  7  2  0  0  0  0
  7  8  1  0  0  0  0
  8 11  1  0  0  0  0
  9  8  2  0  0  0  0
 10  6  1  0  0  0  0
 12  5  1  0  0  0  0
 13 18  1  0  0  0  0
 13 20  1  1  0  0  0
 13 14  1  0  0  0  0
 14 15  1  0  0  0  0
 14 12  1  1  0  0  0
 15 16  1  0  0  0  0
 17 15  1  0  0  0  0
 18 17  1  0  0  0  0
 19 18  1  0  0  0  0
 20 21  1  0  0  0  0
 22 24  1  0  0  0  0
 23 22  1  0  0  0  0
 25 22  1  0  0  0  0
 25 26  2  0  0  0  0
 26 30  1  0  0  0  0
 27 26  1  0  0  0  0
 28 29  2  0  0  0  0
 28 27  1  0  0  0  0
 29 25  1  0  0  0  0
 31 28  1  0  0  0  0
 32 33  2  0  0  0  0
 33 31  1  0  0  0  0
 33 34  1  0  0  0  0
 34 35  1  0  0  0  0
 36 33  1  0  0  0  0
 37 36  1  0  0  0  0
M  END
>  <minimizedAffinity>
-4.97547674

>  <minimizedRMSD>
0.808513522

$$$$
