
 OpenBabel03252507443D

 37 39  0  0  1  0  0  0  0  0999 V2000
   47.2900   34.4730   40.8110 C   0  0  0  0  0  0  0  0  0  0  0  0
   46.6510   33.7130   40.3150 H   0  0  0  0  0  0  0  0  0  0  0  0
   47.4460   35.2790   40.0450 H   0  0  0  0  0  0  0  0  0  0  0  0
   48.5900   33.8980   41.2140 C   0  0  0  0  0  0  0  0  0  0  0  0
   48.9640   32.7190   40.6010 C   0  0  0  0  0  0  0  0  0  0  0  0
   50.1760   32.1290   40.9400 C   0  0  0  0  0  0  0  0  0  0  0  0
   50.9600   32.7460   41.8750 N   0  0  0  0  0  0  0  0  0  0  0  0
   50.5600   33.8940   42.4510 C   0  0  0  0  0  0  0  0  0  0  0  0
   49.4050   34.4400   42.1170 N   0  0  0  0  0  0  0  0  0  0  0  0
   50.5220   31.2260   40.5110 H   0  0  0  0  0  0  0  0  0  0  0  0
   51.1390   34.4230   43.1950 H   0  0  0  0  0  0  0  0  0  0  0  0
   47.9010   31.9590   39.3780 S   0  0  0  0  0  0  0  0  0  0  0  0
   47.9360   29.3090   39.8750 C   0  0  2  0  0  3  0  0  0  0  0  0
   48.4650   30.3480   38.8730 C   0  0  1  0  0  3  0  0  0  0  0  0
   47.7450   29.8710   37.6260 C   0  0  0  0  0  3  0  0  0  0  0  0
   48.2900   30.0540   36.6990 H   0  0  0  0  0  0  0  0  0  0  0  0
   47.6360   28.4800   37.7350 O   0  0  0  0  0  0  0  0  0  0  0  0
   47.4050   28.1760   39.0620 C   0  0  0  0  0  3  0  0  0  0  0  0
   47.9560   27.2150   39.2510 H   0  0  0  0  0  0  0  0  0  0  0  0
   46.9120   29.8250   40.6580 O   0  0  0  0  0  0  0  0  0  0  0  0
   46.2660   30.2280   40.0450 H   0  0  0  0  0  0  0  0  0  0  0  0
   46.4800   34.9860   41.9690 C   0  0  0  0  0  0  0  0  0  0  0  0
   46.7540   36.0620   42.0960 H   0  0  0  0  0  0  0  0  0  0  0  0
   46.7820   34.4830   42.9130 H   0  0  0  0  0  0  0  0  0  0  0  0
   45.0190   34.9530   41.7550 C   0  0  0  0  0  0  0  0  0  0  0  0
   44.1480   35.5120   42.7400 C   0  0  0  0  0  0  0  0  0  0  0  0
   42.4810   35.2280   42.0150 S   0  0  0  0  0  0  0  0  0  0  0  0
   43.2540   34.3960   40.4940 C   0  0  0  0  0  0  0  0  0  0  0  0
   44.3700   34.4610   40.7370 N   0  0  0  0  0  0  0  0  0  0  0  0
   44.4050   35.9820   43.6750 H   0  0  0  0  0  0  0  0  0  0  0  0
   42.4990   33.8900   39.4390 O   0  0  0  0  0  0  0  0  0  0  0  0
   40.5530   34.2770   37.6790 O   0  0  0  0  0  0  0  0  0  0  0  0
   41.6110   34.9930   38.5090 P   0  0  0  0  0  0  0  0  0  0  0  0
   40.8370   36.0570   39.5740 O   0  0  0  0  0  0  0  0  0  0  0  0
   39.9120   35.7780   39.7870 H   0  0  0  0  0  0  0  0  0  0  0  0
   42.6630   35.8810   37.5160 O   0  0  0  0  0  0  0  0  0  0  0  0
   42.4050   36.8430   37.5000 H   0  0  0  0  0  0  0  0  0  0  0  0
  1  4  1  0  0  0  0
  1 22  1  0  0  0  0
  2  1  1  0  0  0  0
  3  1  1  0  0  0  0
  4  9  1  0  0  0  0
  5  6  1  0  0  0  0
  5  4  2  0  0  0  0
  6  7  2  0  0  0  0
  7  8  1  0  0  0  0
  8 11  1  0  0  0  0
  9  8  2  0  0  0  0
 10  6  1  0  0  0  0
 12  5  1  0  0  0  0
 13 20  1  6  0  0  0
 14 12  1  1  0  0  0
 14 13  1  0  0  0  0
 15 17  1  0  0  0  0
 15 14  1  0  0  0  0
 16 15  1  0  0  0  0
 17 18  1  0  0  0  0
 18 19  1  0  0  0  0
 18 13  1  0  0  0  0
 21 20  1  0  0  0  0
 22 23  1  0  0  0  0
 22 24  1  0  0  0  0
 25 22  1  0  0  0  0
 25 26  2  0  0  0  0
 26 30  1  0  0  0  0
 27 26  1  0  0  0  0
 28 29  2  0  0  0  0
 28 27  1  0  0  0  0
 29 25  1  0  0  0  0
 31 28  1  0  0  0  0
 32 33  2  0  0  0  0
 33 31  1  0  0  0  0
 33 34  1  0  0  0  0
 34 35  1  0  0  0  0
 36 33  1  0  0  0  0
 37 36  1  0  0  0  0
M  END
>  <minimizedAffinity>
-4.28928471

>  <minimizedRMSD>
0.811392248

$$$$
