
 OpenBabel03252508583D

 45 47  0  0  1  0  0  0  0  0999 V2000
   46.7050   34.5680   43.4740 N   0  0  0  0  0  0  0  0  0  0  0  0
   46.2090   35.6350   42.6670 C   0  0  0  0  0  0  0  0  0  0  0  0
   44.7110   35.7990   42.6870 C   0  0  0  0  0  0  0  0  0  0  0  0
   44.0540   35.4420   43.9880 C   0  0  0  0  0  0  0  0  0  0  0  0
   45.0680   35.0720   45.0440 C   0  0  0  0  0  0  0  0  0  0  0  0
   45.8810   33.9090   44.3720 C   0  0  2  0  0  0  0  0  0  0  0  0
   46.6130   36.5850   43.1260 H   0  0  0  0  0  0  0  0  0  0  0  0
   46.5360   35.6400   41.6280 H   0  0  0  0  0  0  0  0  0  0  0  0
   44.4620   36.8000   42.3260 H   0  0  0  0  0  0  0  0  0  0  0  0
   44.3240   35.0770   41.9150 H   0  0  0  0  0  0  0  0  0  0  0  0
   43.5350   36.3630   44.3480 H   0  0  0  0  0  0  0  0  0  0  0  0
   43.3270   34.6330   43.9080 H   0  0  0  0  0  0  0  0  0  0  0  0
   44.5570   34.6970   45.9330 H   0  0  0  0  0  0  0  0  0  0  0  0
   45.7500   35.9140   45.2210 H   0  0  0  0  0  0  0  0  0  0  0  0
   45.0960   33.2340   43.9860 H   0  0  0  0  0  0  0  0  0  0  0  0
   47.8020   33.8520   42.8810 C   0  0  0  0  0  0  0  0  0  0  0  0
   48.4950   33.4350   43.6380 H   0  0  0  0  0  0  0  0  0  0  0  0
   48.3780   34.5850   42.2760 H   0  0  0  0  0  0  0  0  0  0  0  0
   47.2490   32.7720   42.0010 C   0  0  0  0  0  0  0  0  0  0  0  0
   47.4540   31.7480   42.3710 H   0  0  0  0  0  0  0  0  0  0  0  0
   46.1330   32.8530   41.9230 H   0  0  0  0  0  0  0  0  0  0  0  0
   49.1140   32.0760   38.8140 C   0  0  0  0  0  0  0  0  0  0  0  0
   48.5850   31.9320   40.1040 C   0  0  0  0  0  0  0  0  0  0  0  0
   47.8100   32.9310   40.6270 C   0  0  0  0  0  0  0  0  0  0  0  0
   47.5890   34.0160   39.8760 N   0  0  0  0  0  0  0  0  0  0  0  0
   48.1060   34.1460   38.6320 C   0  0  0  0  0  0  0  0  0  0  0  0
   48.8700   33.1770   38.0930 N   0  0  0  0  0  0  0  0  0  0  0  0
   49.7300   31.3020   38.3750 H   0  0  0  0  0  0  0  0  0  0  0  0
   48.8270   31.0140   40.6220 H   0  0  0  0  0  0  0  0  0  0  0  0
   47.8150   35.0890   38.1880 H   0  0  0  0  0  0  0  0  0  0  0  0
   46.5930   33.4000   45.4440 O   0  0  0  0  0  0  0  0  0  0  0  0
   45.5500   31.1220   44.5880 O   0  0  0  0  0  0  0  0  0  0  0  0
   46.2300   31.7940   45.7760 P   0  0  2  0  0  0  0  0  0  0  0  0
   45.0550   31.8130   47.0190 O   0  0  0  0  0  0  0  0  0  0  0  0
   45.4800   32.1690   47.8430 H   0  0  0  0  0  0  0  0  0  0  0  0
   47.5480   30.9460   46.3320 O   0  0  0  0  0  0  0  0  0  0  0  0
   47.2050   28.9360   47.5580 C   0  0  2  0  0  3  0  0  0  0  0  0
   47.2830   29.5820   46.2100 C   0  0  1  0  0  3  0  0  0  0  0  0
   45.8800   29.3980   45.6660 C   0  0  0  0  0  3  0  0  0  0  0  0
   45.8490   29.3960   44.5590 H   0  0  0  0  0  0  0  0  0  0  0  0
   45.5640   28.1110   46.1090 O   0  0  0  0  0  0  0  0  0  0  0  0
   45.8980   28.1730   47.4770 C   0  0  0  0  0  3  0  0  0  0  0  0
   46.0040   27.1820   47.9360 H   0  0  0  0  0  0  0  0  0  0  0  0
   47.1020   29.9200   48.5380 O   0  0  0  0  0  0  0  0  0  0  0  0
   46.1370   30.1800   48.5950 H   0  0  0  0  0  0  0  0  0  0  0  0
  1  6  1  0  0  0  0
  2  3  1  0  0  0  0
  2  7  1  0  0  0  0
  2  1  1  0  0  0  0
  3  4  1  0  0  0  0
  4 11  1  0  0  0  0
  4  5  1  0  0  0  0
  5 14  1  0  0  0  0
  5 13  1  0  0  0  0
  6 15  1  6  0  0  0
  6  5  1  0  0  0  0
  6 31  1  0  0  0  0
  8  2  1  0  0  0  0
  9  3  1  0  0  0  0
 10  3  1  0  0  0  0
 12  4  1  0  0  0  0
 16  1  1  0  0  0  0
 16 17  1  0  0  0  0
 18 16  1  0  0  0  0
 19 20  1  0  0  0  0
 19 16  1  0  0  0  0
 21 19  1  0  0  0  0
 22 23  1  0  0  0  0
 23 29  1  0  0  0  0
 23 24  2  0  0  0  0
 24 19  1  0  0  0  0
 25 24  1  0  0  0  0
 26 25  2  0  0  0  0
 27 26  1  0  0  0  0
 27 22  2  0  0  0  0
 28 22  1  0  0  0  0
 30 26  1  0  0  0  0
 31 33  1  0  0  0  0
 33 32  2  6  0  0  0
 33 36  1  0  0  0  0
 33 34  1  0  0  0  0
 34 35  1  0  0  0  0
 37 44  1  1  0  0  0
 38 36  1  1  0  0  0
 38 37  1  0  0  0  0
 39 41  1  0  0  0  0
 39 38  1  0  0  0  0
 40 39  1  0  0  0  0
 41 42  1  0  0  0  0
 42 37  1  0  0  0  0
 42 43  1  0  0  0  0
 44 45  1  0  0  0  0
M  END
>  <minimizedAffinity>
-4.47900867

>  <minimizedRMSD>
0.857345283

$$$$
