
 OpenBabel03252508593D

 45 47  0  0  1  0  0  0  0  0999 V2000
   46.8610   34.4140   43.5070 N   0  0  0  0  0  0  0  0  0  0  0  0
   46.3710   35.4580   42.6630 C   0  0  0  0  0  0  0  0  0  0  0  0
   44.8740   35.6310   42.6770 C   0  0  0  0  0  0  0  0  0  0  0  0
   44.2140   35.3210   43.9880 C   0  0  0  0  0  0  0  0  0  0  0  0
   45.2250   34.9800   45.0570 C   0  0  0  0  0  0  0  0  0  0  0  0
   46.0310   33.7910   44.4240 C   0  0  2  0  0  0  0  0  0  0  0  0
   46.7810   36.4190   43.0910 H   0  0  0  0  0  0  0  0  0  0  0  0
   46.6990   35.4260   41.6250 H   0  0  0  0  0  0  0  0  0  0  0  0
   44.6310   36.6210   42.2820 H   0  0  0  0  0  0  0  0  0  0  0  0
   44.4830   34.8860   41.9290 H   0  0  0  0  0  0  0  0  0  0  0  0
   43.7000   36.2560   44.3170 H   0  0  0  0  0  0  0  0  0  0  0  0
   43.4830   34.5140   43.9340 H   0  0  0  0  0  0  0  0  0  0  0  0
   44.7110   34.6380   45.9570 H   0  0  0  0  0  0  0  0  0  0  0  0
   45.9120   35.8240   45.2070 H   0  0  0  0  0  0  0  0  0  0  0  0
   45.2430   33.1070   44.0600 H   0  0  0  0  0  0  0  0  0  0  0  0
   47.9540   33.6730   42.9380 C   0  0  0  0  0  0  0  0  0  0  0  0
   48.6380   33.2690   43.7100 H   0  0  0  0  0  0  0  0  0  0  0  0
   48.5390   34.3850   42.3180 H   0  0  0  0  0  0  0  0  0  0  0  0
   47.3950   32.5760   42.0830 C   0  0  0  0  0  0  0  0  0  0  0  0
   47.6410   31.5590   42.4480 H   0  0  0  0  0  0  0  0  0  0  0  0
   46.2750   32.6270   42.0490 H   0  0  0  0  0  0  0  0  0  0  0  0
   49.3720   32.0790   38.9260 C   0  0  0  0  0  0  0  0  0  0  0  0
   48.8960   31.9250   40.2360 C   0  0  0  0  0  0  0  0  0  0  0  0
   47.8980   32.7440   40.6880 C   0  0  0  0  0  0  0  0  0  0  0  0
   47.4120   33.6680   39.8510 N   0  0  0  0  0  0  0  0  0  0  0  0
   47.8790   33.8090   38.5890 C   0  0  0  0  0  0  0  0  0  0  0  0
   48.8610   33.0150   38.1190 N   0  0  0  0  0  0  0  0  0  0  0  0
   50.1600   31.4460   38.5430 H   0  0  0  0  0  0  0  0  0  0  0  0
   49.3590   31.1470   40.8270 H   0  0  0  0  0  0  0  0  0  0  0  0
   47.3620   34.6070   38.0710 H   0  0  0  0  0  0  0  0  0  0  0  0
   46.7400   33.3130   45.5130 O   0  0  0  0  0  0  0  0  0  0  0  0
   45.6240   31.0060   44.8470 O   0  0  0  0  0  0  0  0  0  0  0  0
   46.2490   31.7820   46.0000 P   0  0  2  0  0  0  0  0  0  0  0  0
   44.9840   32.0170   47.1270 O   0  0  0  0  0  0  0  0  0  0  0  0
   45.3650   32.4490   47.9360 H   0  0  0  0  0  0  0  0  0  0  0  0
   47.4630   30.9390   46.7640 O   0  0  0  0  0  0  0  0  0  0  0  0
   48.6410   28.8770   46.6130 C   0  0  2  0  0  3  0  0  0  0  0  0
   47.3350   29.5880   46.4450 C   0  0  1  0  0  3  0  0  0  0  0  0
   46.4520   28.9170   47.4790 C   0  0  0  0  0  3  0  0  0  0  0  0
   45.3760   28.9710   47.2210 H   0  0  0  0  0  0  0  0  0  0  0  0
   46.8510   27.5820   47.3810 O   0  0  0  0  0  0  0  0  0  0  0  0
   48.2550   27.6820   47.4590 C   0  0  0  0  0  3  0  0  0  0  0  0
   48.7670   26.7800   47.1040 H   0  0  0  0  0  0  0  0  0  0  0  0
   49.5170   29.6870   47.3340 O   0  0  0  0  0  0  0  0  0  0  0  0
   49.3100   29.5550   48.3040 H   0  0  0  0  0  0  0  0  0  0  0  0
  1  6  1  0  0  0  0
  2  3  1  0  0  0  0
  2  7  1  0  0  0  0
  2  1  1  0  0  0  0
  3  4  1  0  0  0  0
  4 11  1  0  0  0  0
  4  5  1  0  0  0  0
  5 14  1  0  0  0  0
  5 13  1  0  0  0  0
  6 15  1  6  0  0  0
  6  5  1  0  0  0  0
  6 31  1  0  0  0  0
  8  2  1  0  0  0  0
  9  3  1  0  0  0  0
 10  3  1  0  0  0  0
 12  4  1  0  0  0  0
 16  1  1  0  0  0  0
 16 17  1  0  0  0  0
 18 16  1  0  0  0  0
 19 20  1  0  0  0  0
 19 16  1  0  0  0  0
 21 19  1  0  0  0  0
 22 23  1  0  0  0  0
 23 24  2  0  0  0  0
 23 29  1  0  0  0  0
 24 19  1  0  0  0  0
 25 24  1  0  0  0  0
 26 25  2  0  0  0  0
 27 26  1  0  0  0  0
 27 22  2  0  0  0  0
 28 22  1  0  0  0  0
 30 26  1  0  0  0  0
 31 33  1  0  0  0  0
 33 32  2  6  0  0  0
 33 36  1  0  0  0  0
 33 34  1  0  0  0  0
 34 35  1  0  0  0  0
 37 44  1  1  0  0  0
 37 42  1  0  0  0  0
 38 37  1  0  0  0  0
 38 36  1  1  0  0  0
 38 39  1  0  0  0  0
 40 39  1  0  0  0  0
 41 42  1  0  0  0  0
 41 39  1  0  0  0  0
 43 42  1  0  0  0  0
 44 45  1  0  0  0  0
M  END
>  <minimizedAffinity>
-4.24885511

>  <minimizedRMSD>
1.20191097

$$$$
