
 OpenBabel03252508593D

 45 47  0  0  1  0  0  0  0  0999 V2000
   46.6750   34.4840   43.6670 N   0  0  0  0  0  0  0  0  0  0  0  0
   46.1810   35.4720   42.7620 C   0  0  0  0  0  0  0  0  0  0  0  0
   44.6850   35.6510   42.7780 C   0  0  0  0  0  0  0  0  0  0  0  0
   44.0360   35.4290   44.1120 C   0  0  0  0  0  0  0  0  0  0  0  0
   45.0560   35.1550   45.1920 C   0  0  0  0  0  0  0  0  0  0  0  0
   45.8530   33.9240   44.6310 C   0  0  2  0  0  0  0  0  0  0  0  0
   46.5980   36.4580   43.1230 H   0  0  0  0  0  0  0  0  0  0  0  0
   46.5000   35.3710   41.7250 H   0  0  0  0  0  0  0  0  0  0  0  0
   44.4410   36.6140   42.3220 H   0  0  0  0  0  0  0  0  0  0  0  0
   44.2850   34.8600   42.0830 H   0  0  0  0  0  0  0  0  0  0  0  0
   43.5280   36.3850   44.3840 H   0  0  0  0  0  0  0  0  0  0  0  0
   43.3020   34.6230   44.1170 H   0  0  0  0  0  0  0  0  0  0  0  0
   44.5490   34.8740   46.1170 H   0  0  0  0  0  0  0  0  0  0  0  0
   45.7460   36.0040   45.2800 H   0  0  0  0  0  0  0  0  0  0  0  0
   45.0590   33.2220   44.3190 H   0  0  0  0  0  0  0  0  0  0  0  0
   47.7610   33.7030   43.1380 C   0  0  0  0  0  0  0  0  0  0  0  0
   48.4040   33.2780   43.9340 H   0  0  0  0  0  0  0  0  0  0  0  0
   48.3920   34.3920   42.5370 H   0  0  0  0  0  0  0  0  0  0  0  0
   47.1940   32.6230   42.2670 C   0  0  0  0  0  0  0  0  0  0  0  0
   47.3980   31.6000   42.6380 H   0  0  0  0  0  0  0  0  0  0  0  0
   46.0780   32.7090   42.1990 H   0  0  0  0  0  0  0  0  0  0  0  0
   49.3080   32.1230   39.2000 C   0  0  0  0  0  0  0  0  0  0  0  0
   48.7880   31.9850   40.4950 C   0  0  0  0  0  0  0  0  0  0  0  0
   47.7430   32.7760   40.8870 C   0  0  0  0  0  0  0  0  0  0  0  0
   47.2560   33.6590   40.0080 N   0  0  0  0  0  0  0  0  0  0  0  0
   47.7660   33.7860   38.7610 C   0  0  0  0  0  0  0  0  0  0  0  0
   48.7940   33.0190   38.3490 N   0  0  0  0  0  0  0  0  0  0  0  0
   50.1330   31.5120   38.8640 H   0  0  0  0  0  0  0  0  0  0  0  0
   49.2580   31.2400   41.1230 H   0  0  0  0  0  0  0  0  0  0  0  0
   47.2390   34.5500   38.2030 H   0  0  0  0  0  0  0  0  0  0  0  0
   46.5700   33.5160   45.7430 O   0  0  0  0  0  0  0  0  0  0  0  0
   45.6750   31.1130   45.0840 O   0  0  0  0  0  0  0  0  0  0  0  0
   46.1810   31.9610   46.2450 P   0  0  2  0  0  0  0  0  0  0  0  0
   44.8490   32.1160   47.3070 O   0  0  0  0  0  0  0  0  0  0  0  0
   45.1560   32.5940   48.1210 H   0  0  0  0  0  0  0  0  0  0  0  0
   47.4210   31.2360   47.0830 O   0  0  0  0  0  0  0  0  0  0  0  0
   48.8580   29.3390   47.0310 C   0  0  2  0  0  3  0  0  0  0  0  0
   47.5230   29.9090   46.6660 C   0  0  1  0  0  3  0  0  0  0  0  0
   46.5630   29.0620   47.4770 C   0  0  0  0  0  3  0  0  0  0  0  0
   45.5520   29.0150   47.0290 H   0  0  0  0  0  0  0  0  0  0  0  0
   47.1380   27.7930   47.3760 O   0  0  0  0  0  0  0  0  0  0  0  0
   48.4820   28.0430   47.7180 C   0  0  0  0  0  3  0  0  0  0  0  0
   49.1580   27.2360   47.4110 H   0  0  0  0  0  0  0  0  0  0  0  0
   49.4840   30.1810   47.9480 O   0  0  0  0  0  0  0  0  0  0  0  0
   49.1260   29.9480   48.8530 H   0  0  0  0  0  0  0  0  0  0  0  0
  1  6  1  0  0  0  0
  2  3  1  0  0  0  0
  2  7  1  0  0  0  0
  2  1  1  0  0  0  0
  3  4  1  0  0  0  0
  4 12  1  0  0  0  0
  4 11  1  0  0  0  0
  4  5  1  0  0  0  0
  5 14  1  0  0  0  0
  5 13  1  0  0  0  0
  6 15  1  6  0  0  0
  6  5  1  0  0  0  0
  6 31  1  0  0  0  0
  8  2  1  0  0  0  0
  9  3  1  0  0  0  0
 10  3  1  0  0  0  0
 16  1  1  0  0  0  0
 16 17  1  0  0  0  0
 18 16  1  0  0  0  0
 19 20  1  0  0  0  0
 19 16  1  0  0  0  0
 21 19  1  0  0  0  0
 22 23  1  0  0  0  0
 23 24  2  0  0  0  0
 23 29  1  0  0  0  0
 24 19  1  0  0  0  0
 25 24  1  0  0  0  0
 26 25  2  0  0  0  0
 27 26  1  0  0  0  0
 27 22  2  0  0  0  0
 28 22  1  0  0  0  0
 30 26  1  0  0  0  0
 31 33  1  0  0  0  0
 33 32  2  6  0  0  0
 33 36  1  0  0  0  0
 33 34  1  0  0  0  0
 34 35  1  0  0  0  0
 37 42  1  0  0  0  0
 37 44  1  1  0  0  0
 38 37  1  0  0  0  0
 38 36  1  1  0  0  0
 38 39  1  0  0  0  0
 40 39  1  0  0  0  0
 41 39  1  0  0  0  0
 41 42  1  0  0  0  0
 43 42  1  0  0  0  0
 44 45  1  0  0  0  0
M  END
>  <minimizedAffinity>
-4.36579514

>  <minimizedRMSD>
1.27876163

$$$$
