
 OpenBabel03252508593D

 45 47  0  0  1  0  0  0  0  0999 V2000
   46.7440   34.4710   43.6000 N   0  0  0  0  0  0  0  0  0  0  0  0
   46.2400   35.5090   42.7600 C   0  0  0  0  0  0  0  0  0  0  0  0
   44.7450   35.6910   42.8080 C   0  0  0  0  0  0  0  0  0  0  0  0
   44.1150   35.3960   44.1370 C   0  0  0  0  0  0  0  0  0  0  0  0
   45.1490   35.0590   45.1840 C   0  0  0  0  0  0  0  0  0  0  0  0
   45.9340   33.8600   44.5430 C   0  0  2  0  0  0  0  0  0  0  0  0
   46.6650   36.4720   43.1700 H   0  0  0  0  0  0  0  0  0  0  0  0
   46.5430   35.4670   41.7140 H   0  0  0  0  0  0  0  0  0  0  0  0
   44.4980   36.6790   42.4100 H   0  0  0  0  0  0  0  0  0  0  0  0
   44.3320   34.9420   42.0750 H   0  0  0  0  0  0  0  0  0  0  0  0
   43.6140   36.3370   44.4700 H   0  0  0  0  0  0  0  0  0  0  0  0
   43.3780   34.5930   44.1070 H   0  0  0  0  0  0  0  0  0  0  0  0
   44.6550   34.7270   46.0990 H   0  0  0  0  0  0  0  0  0  0  0  0
   45.8440   35.9000   45.3100 H   0  0  0  0  0  0  0  0  0  0  0  0
   45.1330   33.1780   44.2030 H   0  0  0  0  0  0  0  0  0  0  0  0
   47.8190   33.7180   43.0120 C   0  0  0  0  0  0  0  0  0  0  0  0
   48.4930   33.2770   43.7730 H   0  0  0  0  0  0  0  0  0  0  0  0
   48.4230   34.4320   42.4120 H   0  0  0  0  0  0  0  0  0  0  0  0
   47.2340   32.6590   42.1270 C   0  0  0  0  0  0  0  0  0  0  0  0
   47.4300   31.6270   42.4800 H   0  0  0  0  0  0  0  0  0  0  0  0
   46.1190   32.7580   42.0690 H   0  0  0  0  0  0  0  0  0  0  0  0
   49.0580   31.9890   38.9110 C   0  0  0  0  0  0  0  0  0  0  0  0
   48.5480   31.8360   40.2070 C   0  0  0  0  0  0  0  0  0  0  0  0
   47.7760   32.8280   40.7470 C   0  0  0  0  0  0  0  0  0  0  0  0
   47.5380   33.9160   40.0040 N   0  0  0  0  0  0  0  0  0  0  0  0
   48.0370   34.0550   38.7540 C   0  0  0  0  0  0  0  0  0  0  0  0
   48.7990   33.0920   38.2000 N   0  0  0  0  0  0  0  0  0  0  0  0
   49.6710   31.2210   38.4600 H   0  0  0  0  0  0  0  0  0  0  0  0
   48.8010   30.9160   40.7170 H   0  0  0  0  0  0  0  0  0  0  0  0
   47.7350   34.9990   38.3190 H   0  0  0  0  0  0  0  0  0  0  0  0
   46.6650   33.3870   45.6190 O   0  0  0  0  0  0  0  0  0  0  0  0
   45.6490   31.0440   44.9210 O   0  0  0  0  0  0  0  0  0  0  0  0
   46.2210   31.8370   46.0900 P   0  0  2  0  0  0  0  0  0  0  0  0
   44.9240   32.0220   47.1900 O   0  0  0  0  0  0  0  0  0  0  0  0
   45.2710   32.4640   48.0090 H   0  0  0  0  0  0  0  0  0  0  0  0
   47.4480   31.0370   46.8770 O   0  0  0  0  0  0  0  0  0  0  0  0
   48.7050   29.0180   46.7820 C   0  0  2  0  0  3  0  0  0  0  0  0
   47.3890   29.6860   46.5340 C   0  0  1  0  0  3  0  0  0  0  0  0
   46.4600   28.9720   47.4970 C   0  0  0  0  0  3  0  0  0  0  0  0
   45.4040   28.9930   47.1670 H   0  0  0  0  0  0  0  0  0  0  0  0
   46.9130   27.6520   47.4100 O   0  0  0  0  0  0  0  0  0  0  0  0
   48.3030   27.7980   47.5850 C   0  0  0  0  0  3  0  0  0  0  0  0
   48.8690   26.9180   47.2550 H   0  0  0  0  0  0  0  0  0  0  0  0
   49.5010   29.8450   47.5710 O   0  0  0  0  0  0  0  0  0  0  0  0
   49.2320   29.6930   48.5230 H   0  0  0  0  0  0  0  0  0  0  0  0
  1  6  1  0  0  0  0
  2  3  1  0  0  0  0
  2  7  1  0  0  0  0
  2  1  1  0  0  0  0
  3  4  1  0  0  0  0
  4 11  1  0  0  0  0
  4  5  1  0  0  0  0
  5 14  1  0  0  0  0
  5 13  1  0  0  0  0
  6 15  1  6  0  0  0
  6  5  1  0  0  0  0
  6 31  1  0  0  0  0
  8  2  1  0  0  0  0
  9  3  1  0  0  0  0
 10  3  1  0  0  0  0
 12  4  1  0  0  0  0
 16  1  1  0  0  0  0
 16 17  1  0  0  0  0
 18 16  1  0  0  0  0
 19 20  1  0  0  0  0
 19 16  1  0  0  0  0
 21 19  1  0  0  0  0
 22 23  1  0  0  0  0
 23 29  1  0  0  0  0
 23 24  2  0  0  0  0
 24 19  1  0  0  0  0
 25 24  1  0  0  0  0
 26 25  2  0  0  0  0
 27 26  1  0  0  0  0
 27 22  2  0  0  0  0
 28 22  1  0  0  0  0
 30 26  1  0  0  0  0
 31 33  1  0  0  0  0
 33 32  2  6  0  0  0
 33 36  1  0  0  0  0
 33 34  1  0  0  0  0
 34 35  1  0  0  0  0
 37 44  1  1  0  0  0
 37 42  1  0  0  0  0
 38 37  1  0  0  0  0
 38 36  1  1  0  0  0
 38 39  1  0  0  0  0
 40 39  1  0  0  0  0
 41 39  1  0  0  0  0
 41 42  1  0  0  0  0
 43 42  1  0  0  0  0
 44 45  1  0  0  0  0
M  END
>  <minimizedAffinity>
-4.3034091

>  <minimizedRMSD>
1.14838266

$$$$
