
 OpenBabel03252508593D

 45 47  0  0  1  0  0  0  0  0999 V2000
   47.1300   34.2520   43.4860 N   0  0  0  0  0  0  0  0  0  0  0  0
   46.7540   35.1180   42.4140 C   0  0  0  0  0  0  0  0  0  0  0  0
   45.2700   35.2090   42.1660 C   0  0  0  0  0  0  0  0  0  0  0  0
   44.4150   35.0780   43.3910 C   0  0  0  0  0  0  0  0  0  0  0  0
   45.2480   34.9690   44.6460 C   0  0  0  0  0  0  0  0  0  0  0  0
   46.1800   33.7400   44.3540 C   0  0  2  0  0  0  0  0  0  0  0  0
   47.0610   36.1570   42.7340 H   0  0  0  0  0  0  0  0  0  0  0  0
   47.2470   34.9390   41.4600 H   0  0  0  0  0  0  0  0  0  0  0  0
   45.0670   36.1080   41.5780 H   0  0  0  0  0  0  0  0  0  0  0  0
   45.0280   34.3330   41.5010 H   0  0  0  0  0  0  0  0  0  0  0  0
   43.8290   36.0240   43.4760 H   0  0  0  0  0  0  0  0  0  0  0  0
   43.7260   34.2340   43.3590 H   0  0  0  0  0  0  0  0  0  0  0  0
   44.6050   34.7470   45.5000 H   0  0  0  0  0  0  0  0  0  0  0  0
   45.8770   35.8620   44.7580 H   0  0  0  0  0  0  0  0  0  0  0  0
   45.4820   32.9640   43.9920 H   0  0  0  0  0  0  0  0  0  0  0  0
   48.3210   33.4900   43.2260 C   0  0  0  0  0  0  0  0  0  0  0  0
   48.9090   33.2980   44.1450 H   0  0  0  0  0  0  0  0  0  0  0  0
   48.9560   34.1030   42.5500 H   0  0  0  0  0  0  0  0  0  0  0  0
   47.9330   32.2080   42.5540 C   0  0  0  0  0  0  0  0  0  0  0  0
   48.1620   31.3050   43.1530 H   0  0  0  0  0  0  0  0  0  0  0  0
   46.8290   32.1770   42.3600 H   0  0  0  0  0  0  0  0  0  0  0  0
   50.5680   31.5820   39.9490 C   0  0  0  0  0  0  0  0  0  0  0  0
   49.9120   31.6640   41.1850 C   0  0  0  0  0  0  0  0  0  0  0  0
   48.6250   32.1240   41.2340 C   0  0  0  0  0  0  0  0  0  0  0  0
   48.0390   32.4810   40.0850 N   0  0  0  0  0  0  0  0  0  0  0  0
   48.6810   32.3990   38.8960 C   0  0  0  0  0  0  0  0  0  0  0  0
   49.9480   31.9490   38.8210 N   0  0  0  0  0  0  0  0  0  0  0  0
   51.5850   31.2220   39.8800 H   0  0  0  0  0  0  0  0  0  0  0  0
   50.4800   31.3490   42.0500 H   0  0  0  0  0  0  0  0  0  0  0  0
   48.0420   32.7320   38.0880 H   0  0  0  0  0  0  0  0  0  0  0  0
   46.7160   33.4820   45.6050 O   0  0  0  0  0  0  0  0  0  0  0  0
   45.6880   31.0880   45.1350 O   0  0  0  0  0  0  0  0  0  0  0  0
   46.2620   31.9870   46.2230 P   0  0  2  0  0  0  0  0  0  0  0  0
   44.9640   32.2850   47.2970 O   0  0  0  0  0  0  0  0  0  0  0  0
   45.3120   32.8020   48.0690 H   0  0  0  0  0  0  0  0  0  0  0  0
   47.4830   31.2610   47.0870 O   0  0  0  0  0  0  0  0  0  0  0  0
   48.9050   29.3530   47.0660 C   0  0  2  0  0  3  0  0  0  0  0  0
   47.5760   29.9270   46.6890 C   0  0  1  0  0  3  0  0  0  0  0  0
   46.6060   29.0980   47.5080 C   0  0  0  0  0  3  0  0  0  0  0  0
   45.5970   29.0530   47.0560 H   0  0  0  0  0  0  0  0  0  0  0  0
   47.1730   27.8240   47.4260 O   0  0  0  0  0  0  0  0  0  0  0  0
   48.5180   28.0690   47.7700 C   0  0  0  0  0  3  0  0  0  0  0  0
   49.1890   27.2530   47.4770 H   0  0  0  0  0  0  0  0  0  0  0  0
   49.5350   30.2020   47.9740 O   0  0  0  0  0  0  0  0  0  0  0  0
   49.1720   29.9850   48.8810 H   0  0  0  0  0  0  0  0  0  0  0  0
  1  6  1  0  0  0  0
  2  7  1  0  0  0  0
  2  1  1  0  0  0  0
  3  2  1  0  0  0  0
  3  4  1  0  0  0  0
  4 11  1  0  0  0  0
  4  5  1  0  0  0  0
  5 14  1  0  0  0  0
  5 13  1  0  0  0  0
  6 15  1  6  0  0  0
  6  5  1  0  0  0  0
  6 31  1  0  0  0  0
  8  2  1  0  0  0  0
  9  3  1  0  0  0  0
 10  3  1  0  0  0  0
 12  4  1  0  0  0  0
 16  1  1  0  0  0  0
 16 17  1  0  0  0  0
 18 16  1  0  0  0  0
 19 20  1  0  0  0  0
 19 16  1  0  0  0  0
 21 19  1  0  0  0  0
 22 23  1  0  0  0  0
 23 24  2  0  0  0  0
 23 29  1  0  0  0  0
 24 19  1  0  0  0  0
 25 24  1  0  0  0  0
 26 25  2  0  0  0  0
 27 26  1  0  0  0  0
 27 22  2  0  0  0  0
 28 22  1  0  0  0  0
 30 26  1  0  0  0  0
 31 33  1  0  0  0  0
 33 32  2  6  0  0  0
 33 36  1  0  0  0  0
 33 34  1  0  0  0  0
 34 35  1  0  0  0  0
 37 42  1  0  0  0  0
 37 44  1  1  0  0  0
 38 37  1  0  0  0  0
 38 36  1  1  0  0  0
 38 39  1  0  0  0  0
 40 39  1  0  0  0  0
 41 39  1  0  0  0  0
 41 42  1  0  0  0  0
 43 42  1  0  0  0  0
 44 45  1  0  0  0  0
M  END
>  <minimizedAffinity>
-4.35626745

>  <minimizedRMSD>
1.60434675

$$$$
