
 OpenBabel03242521103D

 19 20  0  0  1  0  0  0  0  0999 V2000
   46.6660   32.4710   45.7520 S   0  0  0  0  0  0  0  0  0  0  0  0
   44.5180   35.7670   44.8320 C   0  0  0  0  0  0  0  0  0  0  0  0
   45.0220   36.0250   43.5160 C   0  0  0  0  0  0  0  0  0  0  0  0
   45.9890   35.1720   42.9880 C   0  0  0  0  0  0  0  0  0  0  0  0
   46.4110   34.1370   43.7460 N   0  0  0  0  0  0  0  0  0  0  0  0
   45.9290   33.9040   44.9870 C   0  0  0  0  0  0  0  0  0  0  0  0
   44.9920   34.7030   45.5340 N   0  0  0  0  0  0  0  0  0  0  0  0
   43.7640   36.4020   45.2860 H   0  0  0  0  0  0  0  0  0  0  0  0
   44.6110   36.8780   43.0050 H   0  0  0  0  0  0  0  0  0  0  0  0
   46.3570   35.3770   41.9930 H   0  0  0  0  0  0  0  0  0  0  0  0
   45.3190   31.5980   47.9960 C   0  0  1  0  0  0  0  0  0  0  0  0
   46.4680   32.4710   47.5370 C   0  0  1  0  0  0  0  0  0  0  0  0
   47.6420   31.7270   48.1260 C   0  0  0  0  0  0  0  0  0  0  0  0
   48.0050   30.9720   47.3770 H   0  0  0  0  0  0  0  0  0  0  0  0
   47.2150   31.0380   49.2430 O   0  0  0  0  0  0  0  0  0  0  0  0
   45.8320   31.0630   49.2930 C   0  0  0  0  0  0  0  0  0  0  0  0
   45.5140   31.6630   50.1540 H   0  0  0  0  0  0  0  0  0  0  0  0
   44.2120   32.3790   48.2280 O   0  0  0  0  0  0  0  0  0  0  0  0
   44.5410   33.1930   48.7100 H   0  0  0  0  0  0  0  0  0  0  0  0
  2  8  1  0  0  0  0
  2  7  1  0  0  0  0
  3  2  2  0  0  0  0
  4  3  1  0  0  0  0
  4  5  2  0  0  0  0
  5  6  1  0  0  0  0
  6  7  2  0  0  0  0
  6  1  1  0  0  0  0
  9  3  1  0  0  0  0
 10  4  1  0  0  0  0
 11 18  1  1  0  0  0
 11 16  1  0  0  0  0
 12  1  1  6  0  0  0
 12 11  1  0  0  0  0
 12 13  1  0  0  0  0
 13 15  1  0  0  0  0
 14 13  1  0  0  0  0
 15 16  1  0  0  0  0
 16 17  1  0  0  0  0
 18 19  1  0  0  0  0
M  END
>  <minimizedAffinity>
-4.86439991

>  <minimizedRMSD>
2.24570942

$$$$
