
 OpenBabel03252506153D

 39 41  0  0  1  0  0  0  0  0999 V2000
   45.5390   33.3850   41.2100 F   0  0  0  0  0  0  0  0  0  0  0  0
   46.6350   34.1000   41.1070 C   0  0  0  0  0  0  0  0  0  0  0  0
   47.0060   34.8930   42.1880 C   0  0  0  0  0  0  0  0  0  0  0  0
   48.1640   35.7000   42.1860 C   0  0  0  0  0  0  0  0  0  0  0  0
   48.9800   35.7030   41.0470 C   0  0  0  0  0  0  0  0  0  0  0  0
   48.5660   34.8970   40.0040 C   0  0  0  0  0  0  0  0  0  0  0  0
   47.4620   34.1230   39.9930 C   0  0  0  0  0  0  0  0  0  0  0  0
   48.3850   36.2950   43.0760 H   0  0  0  0  0  0  0  0  0  0  0  0
   49.8330   36.3320   41.1160 H   0  0  0  0  0  0  0  0  0  0  0  0
   49.3040   35.0020   39.1990 H   0  0  0  0  0  0  0  0  0  0  0  0
   45.7520   34.0170   45.5140 C   0  0  0  0  0  0  0  0  0  0  0  0
   44.6940   34.9390   45.6870 C   0  0  0  0  0  0  0  0  0  0  0  0
   44.4180   35.8740   44.6340 C   0  0  0  0  0  0  0  0  0  0  0  0
   45.2100   35.8050   43.5190 N   0  0  0  0  0  0  0  0  0  0  0  0
   46.1890   34.9210   43.4060 C   0  0  0  0  0  0  0  0  0  0  0  0
   46.4660   34.0310   44.3880 N   0  0  0  0  0  0  0  0  0  0  0  0
   44.0930   34.9650   46.5760 H   0  0  0  0  0  0  0  0  0  0  0  0
   43.6180   36.5930   44.7310 H   0  0  0  0  0  0  0  0  0  0  0  0
   45.9940   33.1220   46.5650 N   0  0  0  0  0  0  0  0  0  0  0  0
   45.6280   32.1470   46.7110 H   0  0  0  0  0  0  0  0  0  0  0  0
   46.5730   33.1860   47.4370 H   0  0  0  0  0  0  0  0  0  0  0  0
   47.1650   33.3730   38.8940 O   0  0  0  0  0  0  0  0  0  0  0  0
   48.0230   34.6530   36.7440 O   0  0  0  0  0  0  0  0  0  0  0  0
   48.0040   33.3030   37.4460 P   0  0  2  0  0  0  0  0  0  0  0  0
   47.2870   32.1640   36.4140 O   0  0  0  0  0  0  0  0  0  0  0  0
   45.1860   31.3010   36.9070 C   0  0  2  0  0  3  0  0  0  0  0  0
   45.9470   32.3960   36.1850 C   0  0  2  0  0  3  0  0  0  0  0  0
   45.5380   32.1730   34.7600 C   0  0  0  0  0  3  0  0  0  0  0  0
   46.2660   31.5240   34.2320 H   0  0  0  0  0  0  0  0  0  0  0  0
   44.3090   31.5730   34.7490 O   0  0  0  0  0  0  0  0  0  0  0  0
   44.0340   31.0660   35.9890 C   0  0  0  0  0  3  0  0  0  0  0  0
   43.7610   29.9720   35.9490 H   0  0  0  0  0  0  0  0  0  0  0  0
   44.7940   31.7160   38.1780 O   0  0  0  0  0  0  0  0  0  0  0  0
   44.7320   31.0100   38.8420 H   0  0  0  0  0  0  0  0  0  0  0  0
   49.5980   32.7790   37.6290 O   0  0  0  0  0  0  0  0  0  0  0  0
   49.6510   31.6430   38.4540 C   0  0  0  0  0  0  0  0  0  0  0  0
   50.7300   30.9030   37.9560 F   0  0  0  0  0  0  0  0  0  0  0  0
   49.9590   31.9920   39.7500 F   0  0  0  0  0  0  0  0  0  0  0  0
   48.4880   30.9200   38.4730 F   0  0  0  0  0  0  0  0  0  0  0  0
  2  1  1  0  0  0  0
  2  3  1  0  0  0  0
  3 15  1  0  0  0  0
  4  3  2  0  0  0  0
  4  8  1  0  0  0  0
  5  9  1  0  0  0  0
  5  4  1  0  0  0  0
  6  5  2  0  0  0  0
  7  6  1  0  0  0  0
  7  2  2  0  0  0  0
 10  6  1  0  0  0  0
 11 12  1  0  0  0  0
 11 19  1  0  0  0  0
 12 17  1  0  0  0  0
 13 18  1  0  0  0  0
 13 12  2  0  0  0  0
 14 13  1  0  0  0  0
 15 14  2  0  0  0  0
 15 16  1  0  0  0  0
 16 11  2  0  0  0  0
 19 20  1  0  0  0  0
 19 21  1  0  0  0  0
 22  7  1  0  0  0  0
 24 23  2  6  0  0  0
 24 35  1  0  0  0  0
 24 22  1  0  0  0  0
 25 24  1  0  0  0  0
 26 33  1  1  0  0  0
 27 25  1  6  0  0  0
 27 26  1  0  0  0  0
 28 27  1  0  0  0  0
 29 28  1  0  0  0  0
 30 28  1  0  0  0  0
 30 31  1  0  0  0  0
 31 26  1  0  0  0  0
 32 31  1  0  0  0  0
 33 34  1  0  0  0  0
 35 36  1  0  0  0  0
 36 39  1  0  0  0  0
 36 38  1  0  0  0  0
 37 36  1  0  0  0  0
M  END
>  <minimizedAffinity>
-5.67923832

>  <minimizedRMSD>
1.84050322

$$$$
