
 OpenBabel03252503013D

 30 31  0  0  1  0  0  0  0  0999 V2000
   42.9230   35.5690   42.6450 N   0  0  0  0  0  0  0  0  0  0  0  0
   42.5100   36.4570   42.9630 H   0  0  0  0  0  0  0  0  0  0  0  0
   43.1270   35.6720   41.1900 C   0  0  0  0  0  0  0  0  0  0  0  0
   42.5490   36.5030   40.7640 H   0  0  0  0  0  0  0  0  0  0  0  0
   44.2200   35.9250   41.0580 H   0  0  0  0  0  0  0  0  0  0  0  0
   42.7380   34.0730   40.4990 S   0  0  0  0  0  0  0  0  0  0  0  0
   40.2310   33.0560   41.0490 C   0  0  0  0  0  0  0  0  0  0  0  0
   40.9590   33.9240   40.2570 C   0  0  0  0  0  0  0  0  0  0  0  0
   40.3350   34.6930   39.2630 C   0  0  0  0  0  0  0  0  0  0  0  0
   38.9910   34.5330   39.1320 N   0  0  0  0  0  0  0  0  0  0  0  0
   38.3250   33.6850   39.9180 C   0  0  0  0  0  0  0  0  0  0  0  0
   38.8840   32.9430   40.8660 N   0  0  0  0  0  0  0  0  0  0  0  0
   40.7410   32.4730   41.8100 H   0  0  0  0  0  0  0  0  0  0  0  0
   40.9320   35.3720   38.6480 H   0  0  0  0  0  0  0  0  0  0  0  0
   37.2650   33.6990   39.6580 H   0  0  0  0  0  0  0  0  0  0  0  0
   44.4180   35.2690   43.4510 S   0  0  0  0  0  0  0  0  0  0  0  0
   45.5070   36.1620   43.0090 O   0  0  0  0  0  0  0  0  0  0  0  0
   45.4980   37.1100   43.2500 H   0  0  0  0  0  0  0  0  0  0  0  0
   44.1180   35.4690   44.9370 O   0  0  0  0  0  0  0  0  0  0  0  0
   43.6710   34.7090   45.4050 H   0  0  0  0  0  0  0  0  0  0  0  0
   44.8040   33.6540   43.3040 O   0  0  0  0  0  0  0  0  0  0  0  0
   47.1360   34.0680   43.8430 C   0  0  2  0  0  3  0  0  0  0  0  0
   46.0990   33.5490   42.8680 C   0  0  2  0  0  3  0  0  0  0  0  0
   46.4100   34.4780   41.7050 C   0  0  0  0  0  3  0  0  0  0  0  0
   46.1000   34.0180   40.7460 H   0  0  0  0  0  0  0  0  0  0  0  0
   47.7680   34.7130   41.7350 O   0  0  0  0  0  0  0  0  0  0  0  0
   48.3110   34.1400   42.8560 C   0  0  0  0  0  3  0  0  0  0  0  0
   48.5540   33.0780   42.6170 H   0  0  0  0  0  0  0  0  0  0  0  0
   47.3920   33.2400   44.8980 O   0  0  0  0  0  0  0  0  0  0  0  0
   48.0820   32.5760   44.7330 H   0  0  0  0  0  0  0  0  0  0  0  0
  1  2  1  0  0  0  0
  1 16  1  0  0  0  0
  3  1  1  0  0  0  0
  4  3  1  0  0  0  0
  5  3  1  0  0  0  0
  6  3  1  0  0  0  0
  7 13  1  0  0  0  0
  8  6  1  0  0  0  0
  8  7  2  0  0  0  0
  9  8  1  0  0  0  0
 10  9  2  0  0  0  0
 10 11  1  0  0  0  0
 11 12  2  0  0  0  0
 12  7  1  0  0  0  0
 14  9  1  0  0  0  0
 15 11  1  0  0  0  0
 16 19  1  0  0  0  0
 17 18  1  0  0  0  0
 17 16  1  0  0  0  0
 19 20  1  0  0  0  0
 21 16  1  0  0  0  0
 22 29  1  1  0  0  0
 23 21  1  1  0  0  0
 23 22  1  0  0  0  0
 24 26  1  0  0  0  0
 24 23  1  0  0  0  0
 25 24  1  0  0  0  0
 26 27  1  0  0  0  0
 27 22  1  0  0  0  0
 28 27  1  0  0  0  0
 30 29  1  0  0  0  0
M  END
>  <minimizedAffinity>
-5.07199049

>  <minimizedRMSD>
2.38697958

$$$$
