
 OpenBabel03252503013D

 30 31  0  0  1  0  0  0  0  0999 V2000
   43.6720   36.0310   42.0750 N   0  0  0  0  0  0  0  0  0  0  0  0
   43.6250   36.9700   41.6550 H   0  0  0  0  0  0  0  0  0  0  0  0
   43.8980   35.0690   40.9830 C   0  0  0  0  0  0  0  0  0  0  0  0
   43.8620   35.5630   40.0030 H   0  0  0  0  0  0  0  0  0  0  0  0
   44.9540   34.6950   41.1270 H   0  0  0  0  0  0  0  0  0  0  0  0
   42.7060   33.7570   41.1920 S   0  0  0  0  0  0  0  0  0  0  0  0
   40.0930   34.4510   40.6340 C   0  0  0  0  0  0  0  0  0  0  0  0
   41.2970   34.0280   40.1030 C   0  0  0  0  0  0  0  0  0  0  0  0
   41.4420   33.8030   38.7250 C   0  0  0  0  0  0  0  0  0  0  0  0
   40.3400   34.0250   37.9590 N   0  0  0  0  0  0  0  0  0  0  0  0
   39.1960   34.4340   38.5120 C   0  0  0  0  0  0  0  0  0  0  0  0
   39.0250   34.6550   39.8090 N   0  0  0  0  0  0  0  0  0  0  0  0
   40.0100   34.6160   41.7040 H   0  0  0  0  0  0  0  0  0  0  0  0
   42.4030   33.4680   38.3280 H   0  0  0  0  0  0  0  0  0  0  0  0
   38.4360   34.5540   37.7370 H   0  0  0  0  0  0  0  0  0  0  0  0
   44.9420   35.9440   43.2380 S   0  0  0  0  0  0  0  0  0  0  0  0
   46.2720   35.7380   42.6340 O   0  0  0  0  0  0  0  0  0  0  0  0
   46.7020   36.4560   42.1280 H   0  0  0  0  0  0  0  0  0  0  0  0
   44.8860   37.2730   43.9910 O   0  0  0  0  0  0  0  0  0  0  0  0
   44.1900   37.3500   44.7040 H   0  0  0  0  0  0  0  0  0  0  0  0
   44.5620   34.7880   44.3770 O   0  0  0  0  0  0  0  0  0  0  0  0
   45.6750   32.6650   43.9790 C   0  0  2  0  0  3  0  0  0  0  0  0
   45.6780   34.0350   44.6290 C   0  0  2  0  0  3  0  0  0  0  0  0
   45.7770   33.5870   46.0790 C   0  0  0  0  0  3  0  0  0  0  0  0
   46.2330   34.3840   46.7020 H   0  0  0  0  0  0  0  0  0  0  0  0
   46.5440   32.4400   46.0900 O   0  0  0  0  0  0  0  0  0  0  0  0
   46.8200   32.0570   44.8020 C   0  0  0  0  0  3  0  0  0  0  0  0
   47.7360   32.6000   44.4720 H   0  0  0  0  0  0  0  0  0  0  0  0
   45.9420   32.6700   42.6400 O   0  0  0  0  0  0  0  0  0  0  0  0
   46.8860   32.6190   42.4160 H   0  0  0  0  0  0  0  0  0  0  0  0
  1 16  1  0  0  0  0
  2  1  1  0  0  0  0
  3  5  1  0  0  0  0
  3  6  1  0  0  0  0
  3  1  1  0  0  0  0
  4  3  1  0  0  0  0
  7 13  1  0  0  0  0
  8  7  1  0  0  0  0
  8  6  1  0  0  0  0
  9  8  2  0  0  0  0
 10 11  2  0  0  0  0
 10  9  1  0  0  0  0
 11 12  1  0  0  0  0
 12  7  2  0  0  0  0
 14  9  1  0  0  0  0
 15 11  1  0  0  0  0
 16 19  1  0  0  0  0
 16 21  1  0  0  0  0
 17 16  1  0  0  0  0
 18 17  1  0  0  0  0
 19 20  1  0  0  0  0
 22 29  1  6  0  0  0
 22 23  1  0  0  0  0
 22 27  1  0  0  0  0
 23 21  1  1  0  0  0
 23 24  1  0  0  0  0
 24 26  1  0  0  0  0
 24 25  1  0  0  0  0
 27 26  1  0  0  0  0
 28 27  1  0  0  0  0
 30 29  1  0  0  0  0
M  END
>  <minimizedAffinity>
-4.65544701

>  <minimizedRMSD>
0.89667809

$$$$
