
 OpenBabel03252506153D

 39 41  0  0  1  0  0  0  0  0999 V2000
   45.7880   33.0880   41.3990 F   0  0  0  0  0  0  0  0  0  0  0  0
   46.8090   33.8970   41.2440 C   0  0  0  0  0  0  0  0  0  0  0  0
   47.0720   34.8240   42.2470 C   0  0  0  0  0  0  0  0  0  0  0  0
   48.1440   35.7400   42.1850 C   0  0  0  0  0  0  0  0  0  0  0  0
   48.9840   35.7160   41.0640 C   0  0  0  0  0  0  0  0  0  0  0  0
   48.6800   34.7760   40.0990 C   0  0  0  0  0  0  0  0  0  0  0  0
   47.6580   33.8970   40.1460 C   0  0  0  0  0  0  0  0  0  0  0  0
   48.2810   36.4370   43.0150 H   0  0  0  0  0  0  0  0  0  0  0  0
   49.7680   36.4320   41.0850 H   0  0  0  0  0  0  0  0  0  0  0  0
   49.4240   34.8780   39.2990 H   0  0  0  0  0  0  0  0  0  0  0  0
   45.7200   34.0240   45.5540 C   0  0  0  0  0  0  0  0  0  0  0  0
   44.6740   34.9660   45.6850 C   0  0  0  0  0  0  0  0  0  0  0  0
   44.4400   35.8870   44.6100 C   0  0  0  0  0  0  0  0  0  0  0  0
   45.2590   35.7870   43.5170 N   0  0  0  0  0  0  0  0  0  0  0  0
   46.2250   34.8850   43.4440 C   0  0  0  0  0  0  0  0  0  0  0  0
   46.4630   34.0070   44.4470 N   0  0  0  0  0  0  0  0  0  0  0  0
   44.0520   35.0160   46.5580 H   0  0  0  0  0  0  0  0  0  0  0  0
   43.6500   36.6210   44.6750 H   0  0  0  0  0  0  0  0  0  0  0  0
   45.9200   33.1430   46.6260 N   0  0  0  0  0  0  0  0  0  0  0  0
   45.5350   32.1770   46.7790 H   0  0  0  0  0  0  0  0  0  0  0  0
   46.4790   33.2120   47.5110 H   0  0  0  0  0  0  0  0  0  0  0  0
   47.4660   33.0190   39.1210 O   0  0  0  0  0  0  0  0  0  0  0  0
   47.7270   34.5330   36.9690 O   0  0  0  0  0  0  0  0  0  0  0  0
   48.0110   33.1520   37.5430 P   0  0  2  0  0  0  0  0  0  0  0  0
   47.2530   31.9920   36.5670 O   0  0  0  0  0  0  0  0  0  0  0  0
   45.4140   33.2100   37.3010 C   0  0  2  0  0  3  0  0  0  0  0  0
   45.9030   31.8580   36.8170 C   0  0  2  0  0  3  0  0  0  0  0  0
   45.5990   30.9770   37.9910 C   0  0  0  0  0  3  0  0  0  0  0  0
   46.4770   30.8900   38.6640 H   0  0  0  0  0  0  0  0  0  0  0  0
   44.5540   31.5250   38.6850 O   0  0  0  0  0  0  0  0  0  0  0  0
   44.3800   32.8240   38.3040 C   0  0  0  0  0  3  0  0  0  0  0  0
   44.3830   33.5300   39.1850 H   0  0  0  0  0  0  0  0  0  0  0  0
   44.9000   33.9630   36.2470 O   0  0  0  0  0  0  0  0  0  0  0  0
   44.9940   34.9250   36.3430 H   0  0  0  0  0  0  0  0  0  0  0  0
   49.6620   32.8430   37.3840 O   0  0  0  0  0  0  0  0  0  0  0  0
   49.9770   31.5750   37.9030 C   0  0  0  0  0  0  0  0  0  0  0  0
   50.1630   30.7740   36.7700 F   0  0  0  0  0  0  0  0  0  0  0  0
   51.1740   31.6070   38.5820 F   0  0  0  0  0  0  0  0  0  0  0  0
   49.0220   31.0710   38.7460 F   0  0  0  0  0  0  0  0  0  0  0  0
  2  1  1  0  0  0  0
  2  3  1  0  0  0  0
  3 15  1  0  0  0  0
  4  3  2  0  0  0  0
  4  8  1  0  0  0  0
  5  9  1  0  0  0  0
  5  4  1  0  0  0  0
  6  7  1  0  0  0  0
  6  5  2  0  0  0  0
  7  2  2  0  0  0  0
 10  6  1  0  0  0  0
 11 12  1  0  0  0  0
 11 19  1  0  0  0  0
 12 17  1  0  0  0  0
 13 18  1  0  0  0  0
 13 12  2  0  0  0  0
 14 13  1  0  0  0  0
 15 14  2  0  0  0  0
 15 16  1  0  0  0  0
 16 11  2  0  0  0  0
 19 20  1  0  0  0  0
 19 21  1  0  0  0  0
 22  7  1  0  0  0  0
 24 23  2  6  0  0  0
 24 22  1  0  0  0  0
 25 24  1  0  0  0  0
 26 33  1  6  0  0  0
 26 31  1  0  0  0  0
 27 25  1  1  0  0  0
 27 26  1  0  0  0  0
 27 28  1  0  0  0  0
 28 29  1  0  0  0  0
 28 30  1  0  0  0  0
 31 30  1  0  0  0  0
 31 32  1  0  0  0  0
 33 34  1  0  0  0  0
 35 24  1  0  0  0  0
 35 36  1  0  0  0  0
 36 38  1  0  0  0  0
 36 39  1  0  0  0  0
 37 36  1  0  0  0  0
M  END
>  <minimizedAffinity>
-5.73027372

>  <minimizedRMSD>
1.73760605

$$$$
