
 OpenBabel03252507543D

 44 47  0  0  1  0  0  0  0  0999 V2000
   47.0640   34.8480   41.9520 C   0  0  2  0  0  0  0  0  0  0  0  0
   46.3320   34.1650   40.7960 C   0  0  0  0  0  0  0  0  0  0  0  0
   47.5440   34.0130   39.8500 C   0  0  0  0  0  0  0  0  0  0  0  0
   48.6980   33.7060   40.7520 C   0  0  1  0  0  0  0  0  0  0  0  0
   48.1820   33.8630   42.1530 C   0  0  0  0  0  0  0  0  0  0  0  0
   47.4580   35.8090   41.5860 H   0  0  0  0  0  0  0  0  0  0  0  0
   45.9700   33.1890   41.1160 H   0  0  0  0  0  0  0  0  0  0  0  0
   45.5930   34.8500   40.3770 H   0  0  0  0  0  0  0  0  0  0  0  0
   47.3640   33.2630   39.0780 H   0  0  0  0  0  0  0  0  0  0  0  0
   47.6720   35.0270   39.3870 H   0  0  0  0  0  0  0  0  0  0  0  0
   49.5640   34.3800   40.5560 H   0  0  0  0  0  0  0  0  0  0  0  0
   47.8520   32.9350   42.6190 H   0  0  0  0  0  0  0  0  0  0  0  0
   48.9910   34.3780   42.7380 H   0  0  0  0  0  0  0  0  0  0  0  0
   44.5320   36.0160   44.4830 C   0  0  0  0  0  0  0  0  0  0  0  0
   45.2740   35.9980   43.3020 C   0  0  0  0  0  0  0  0  0  0  0  0
   46.1940   34.9690   43.1520 C   0  0  0  0  0  0  0  0  0  0  0  0
   46.3520   34.0020   44.1580 N   0  0  0  0  0  0  0  0  0  0  0  0
   45.5990   34.0760   45.2850 C   0  0  0  0  0  0  0  0  0  0  0  0
   44.6960   35.0770   45.4450 N   0  0  0  0  0  0  0  0  0  0  0  0
   43.8130   36.8140   44.6110 H   0  0  0  0  0  0  0  0  0  0  0  0
   45.1690   36.7320   42.5140 H   0  0  0  0  0  0  0  0  0  0  0  0
   45.8030   33.2820   45.9900 H   0  0  0  0  0  0  0  0  0  0  0  0
   49.2370   32.2980   40.6290 C   0  0  2  0  0  0  0  0  0  0  0  0
   50.0590   31.8350   41.7400 C   0  0  0  0  0  0  0  0  0  0  0  0
   50.6570   32.0380   40.3870 C   0  0  1  0  0  0  0  0  0  0  0  0
   48.5130   31.5910   40.1860 H   0  0  0  0  0  0  0  0  0  0  0  0
   50.4180   32.5360   42.5480 H   0  0  0  0  0  0  0  0  0  0  0  0
   49.9150   30.8150   42.1380 H   0  0  0  0  0  0  0  0  0  0  0  0
   51.2990   32.9010   40.1470 H   0  0  0  0  0  0  0  0  0  0  0  0
   50.9850   30.8800   39.6400 O   0  0  0  0  0  0  0  0  0  0  0  0
   51.5050   30.2750   37.1590 O   0  0  0  0  0  0  0  0  0  0  0  0
   51.6620   31.3740   38.1820 P   0  0  1  0  0  0  0  0  0  0  0  0
   50.8270   32.7480   37.5860 O   0  0  0  0  0  0  0  0  0  0  0  0
   49.9410   32.4130   37.2910 H   0  0  0  0  0  0  0  0  0  0  0  0
   53.2680   31.7880   38.2670 O   0  0  0  0  0  0  0  0  0  0  0  0
   53.4360   30.0150   39.8900 C   0  0  1  0  0  3  0  0  0  0  0  0
   54.0030   30.6830   38.6300 C   0  0  1  0  0  3  0  0  0  0  0  0
   53.8870   29.5220   37.6700 C   0  0  0  0  0  3  0  0  0  0  0  0
   52.8150   29.4190   37.3380 H   0  0  0  0  0  0  0  0  0  0  0  0
   54.1610   28.3760   38.4010 O   0  0  0  0  0  0  0  0  0  0  0  0
   54.0910   28.6630   39.7460 C   0  0  0  0  0  3  0  0  0  0  0  0
   53.6510   27.8890   40.3760 H   0  0  0  0  0  0  0  0  0  0  0  0
   53.8580   30.6790   41.0370 O   0  0  0  0  0  0  0  0  0  0  0  0
   53.1070   31.2550   41.3340 H   0  0  0  0  0  0  0  0  0  0  0  0
  1  6  1  6  0  0  0
  1  5  1  0  0  0  0
  1 16  1  0  0  0  0
  2  7  1  0  0  0  0
  2  1  1  0  0  0  0
  3  4  1  0  0  0  0
  3  2  1  0  0  0  0
  4 11  1  6  0  0  0
  4  5  1  0  0  0  0
  5 12  1  0  0  0  0
  5 13  1  0  0  0  0
  8  2  1  0  0  0  0
  9  3  1  0  0  0  0
 10  3  1  0  0  0  0
 14 20  1  0  0  0  0
 14 19  1  0  0  0  0
 15 14  2  0  0  0  0
 16 15  1  0  0  0  0
 16 17  2  0  0  0  0
 17 18  1  0  0  0  0
 18 19  2  0  0  0  0
 18 22  1  0  0  0  0
 21 15  1  0  0  0  0
 23 26  1  6  0  0  0
 23  4  1  0  0  0  0
 23 24  1  0  0  0  0
 24 28  1  0  0  0  0
 24 27  1  0  0  0  0
 25 29  1  6  0  0  0
 25 23  1  0  0  0  0
 25 24  1  0  0  0  0
 30 25  1  0  0  0  0
 32 31  2  6  0  0  0
 32 35  1  0  0  0  0
 32 30  1  0  0  0  0
 33 32  1  0  0  0  0
 34 33  1  0  0  0  0
 36 43  1  1  0  0  0
 37 35  1  6  0  0  0
 37 36  1  0  0  0  0
 38 40  1  0  0  0  0
 38 37  1  0  0  0  0
 39 38  1  0  0  0  0
 40 41  1  0  0  0  0
 41 36  1  0  0  0  0
 41 42  1  0  0  0  0
 43 44  1  0  0  0  0
M  END
>  <minimizedAffinity>
-5.31879854

>  <minimizedRMSD>
0.513436854

$$$$
