
 OpenBabel03242523093D

 46 49  0  0  1  0  0  0  0  0999 V2000
   45.1160   36.0060   43.4860 C   0  0  0  0  0  0  0  0  0  0  0  0
   45.9510   34.9140   43.2480 C   0  0  0  0  0  0  0  0  0  0  0  0
   46.0920   33.9560   44.2060 C   0  0  0  0  0  0  0  0  0  0  0  0
   45.3890   34.1350   45.3680 N   0  0  0  0  0  0  0  0  0  0  0  0
   44.5910   35.1760   45.6000 C   0  0  0  0  0  0  0  0  0  0  0  0
   44.4590   36.0970   44.6690 N   0  0  0  0  0  0  0  0  0  0  0  0
   45.0000   36.7730   42.7250 H   0  0  0  0  0  0  0  0  0  0  0  0
   44.0160   35.3650   46.4960 H   0  0  0  0  0  0  0  0  0  0  0  0
   46.6210   34.8770   42.0230 N   0  0  0  0  0  0  0  0  0  0  0  0
   47.9360   35.4010   41.8670 C   0  0  0  0  0  0  0  0  0  0  0  0
   48.5740   35.1310   40.5360 C   0  0  0  0  0  0  0  0  0  0  0  0
   48.3330   33.8530   40.0150 N   0  0  0  0  0  0  0  0  0  0  0  0
   47.0440   33.3690   40.1280 C   0  0  0  0  0  0  0  0  0  0  0  0
   46.1170   34.3450   40.8170 C   0  0  0  0  0  0  0  0  0  0  0  0
   47.8760   36.5170   41.9840 H   0  0  0  0  0  0  0  0  0  0  0  0
   48.6650   35.0940   42.6480 H   0  0  0  0  0  0  0  0  0  0  0  0
   48.1390   35.8830   39.8270 H   0  0  0  0  0  0  0  0  0  0  0  0
   49.6500   35.3930   40.6160 H   0  0  0  0  0  0  0  0  0  0  0  0
   48.7930   33.7470   39.1040 H   0  0  0  0  0  0  0  0  0  0  0  0
   46.6130   33.2500   39.0900 H   0  0  0  0  0  0  0  0  0  0  0  0
   47.0070   32.3580   40.5580 H   0  0  0  0  0  0  0  0  0  0  0  0
   45.9240   35.1560   40.0780 H   0  0  0  0  0  0  0  0  0  0  0  0
   45.1670   33.8170   41.0020 H   0  0  0  0  0  0  0  0  0  0  0  0
   46.5250   31.9980   45.4350 C   0  0  0  0  0  0  0  0  0  0  0  0
   46.8240   32.7690   44.2910 C   0  0  0  0  0  0  0  0  0  0  0  0
   47.8190   32.1810   43.5500 C   0  0  0  0  0  0  0  0  0  0  0  0
   48.4630   31.0220   43.8320 C   0  0  0  0  0  0  0  0  0  0  0  0
   48.1100   30.3240   44.9820 C   0  0  0  0  0  0  0  0  0  0  0  0
   47.1240   30.8240   45.7930 C   0  0  0  0  0  0  0  0  0  0  0  0
   48.9350   29.2110   44.9920 O   0  0  0  0  0  0  0  0  0  0  0  0
   49.7480   29.1940   43.8360 C   0  0  2  0  0  0  0  0  0  0  0  0
   49.4620   30.3900   43.1170 O   0  0  0  0  0  0  0  0  0  0  0  0
   45.7730   32.1770   46.2320 H   0  0  0  0  0  0  0  0  0  0  0  0
   48.0560   32.7390   42.7000 H   0  0  0  0  0  0  0  0  0  0  0  0
   46.9430   30.2080   46.6320 H   0  0  0  0  0  0  0  0  0  0  0  0
   50.8200   29.2080   44.0190 H   0  0  0  0  0  0  0  0  0  0  0  0
   49.3200   28.0990   43.0600 O   0  0  0  0  0  0  0  0  0  0  0  0
   51.6220   27.9290   43.1000 C   0  0  0  0  0  0  0  0  0  0  0  0
   50.3210   27.2750   42.6370 C   0  0  2  0  0  0  0  0  0  0  0  0
   50.5390   27.2630   41.1480 C   0  0  0  0  0  0  0  0  0  0  0  0
   50.9770   26.2500   40.9140 H   0  0  0  0  0  0  0  0  0  0  0  0
   51.5270   28.1740   40.8590 O   0  0  0  0  0  0  0  0  0  0  0  0
   51.7730   28.9480   41.9640 C   0  0  0  0  0  0  0  0  0  0  0  0
   50.9840   29.7030   42.0650 H   0  0  0  0  0  0  0  0  0  0  0  0
   51.4380   28.6930   44.2510 O   0  0  0  0  0  0  0  0  0  0  0  0
   51.2530   28.1370   45.0460 H   0  0  0  0  0  0  0  0  0  0  0  0
  1  6  1  0  0  0  0
  2  1  2  0  0  0  0
  2  3  1  0  0  0  0
  3 25  1  0  0  0  0
  3  4  2  0  0  0  0
  4  5  1  0  0  0  0
  5  8  1  0  0  0  0
  6  5  2  0  0  0  0
  7  1  1  0  0  0  0
  9  2  1  0  0  0  0
 10 15  1  0  0  0  0
 10  9  1  0  0  0  0
 10 16  1  0  0  0  0
 11 18  1  0  0  0  0
 11 10  1  0  0  0  0
 12 13  1  0  0  0  0
 12 11  1  0  0  0  0
 13 21  1  0  0  0  0
 13 14  1  0  0  0  0
 14 23  1  0  0  0  0
 14  9  1  0  0  0  0
 17 11  1  0  0  0  0
 19 12  1  0  0  0  0
 20 13  1  0  0  0  0
 22 14  1  0  0  0  0
 24 29  1  0  0  0  0
 24 33  1  0  0  0  0
 25 24  2  0  0  0  0
 26 27  2  0  0  0  0
 26 25  1  0  0  0  0
 27 28  1  0  0  0  0
 28 30  1  0  0  0  0
 28 29  2  0  0  0  0
 29 35  1  0  0  0  0
 31 37  1  6  0  0  0
 31 30  1  0  0  0  0
 32 27  1  0  0  0  0
 32 31  1  0  0  0  0
 34 26  1  0  0  0  0
 36 45  1  0  0  0  0
 39 37  1  6  0  0  0
 39 38  1  0  0  0  0
 40 39  1  0  0  0  0
 41 40  1  0  0  0  0
 42 40  1  0  0  0  0
 42 43  1  0  0  0  0
 43 44  1  0  0  0  0
 43 38  1  0  0  0  0
 45 46  1  0  0  0  0
M  END
>  <minimizedAffinity>
-4.81779385

>  <minimizedRMSD>
0.255035788

$$$$
