
 OpenBabel03252506123D

 36 38  0  0  1  0  0  0  0  0999 V2000
   45.1660   33.3820   41.1970 F   0  0  0  0  0  0  0  0  0  0  0  0
   46.3280   33.9960   41.0580 C   0  0  0  0  0  0  0  0  0  0  0  0
   46.8140   34.7680   42.0930 C   0  0  0  0  0  0  0  0  0  0  0  0
   48.0340   35.4540   42.0350 C   0  0  0  0  0  0  0  0  0  0  0  0
   48.8090   35.3620   40.8780 C   0  0  0  0  0  0  0  0  0  0  0  0
   48.2890   34.5780   39.8610 C   0  0  0  0  0  0  0  0  0  0  0  0
   47.1070   33.9100   39.9090 C   0  0  0  0  0  0  0  0  0  0  0  0
   48.3480   36.0460   42.9020 H   0  0  0  0  0  0  0  0  0  0  0  0
   49.7240   35.9050   40.8940 H   0  0  0  0  0  0  0  0  0  0  0  0
   48.9960   34.5910   39.0360 H   0  0  0  0  0  0  0  0  0  0  0  0
   45.4440   34.0300   45.4140 C   0  0  0  0  0  0  0  0  0  0  0  0
   44.6140   35.1410   45.6460 C   0  0  0  0  0  0  0  0  0  0  0  0
   44.5260   36.1530   44.6500 C   0  0  0  0  0  0  0  0  0  0  0  0
   45.2700   35.9670   43.5170 N   0  0  0  0  0  0  0  0  0  0  0  0
   46.0440   34.8970   43.3350 C   0  0  0  0  0  0  0  0  0  0  0  0
   46.1290   33.9400   44.2760 N   0  0  0  0  0  0  0  0  0  0  0  0
   44.0330   35.2720   46.5480 H   0  0  0  0  0  0  0  0  0  0  0  0
   43.9010   37.0220   44.7880 H   0  0  0  0  0  0  0  0  0  0  0  0
   45.5150   33.0350   46.4200 N   0  0  0  0  0  0  0  0  0  0  0  0
   45.5730   32.0150   46.1830 H   0  0  0  0  0  0  0  0  0  0  0  0
   45.5130   33.2920   47.4320 H   0  0  0  0  0  0  0  0  0  0  0  0
   46.6970   33.1660   38.8360 O   0  0  0  0  0  0  0  0  0  0  0  0
   47.9950   34.6110   37.0380 O   0  0  0  0  0  0  0  0  0  0  0  0
   47.1400   33.3990   37.2230 P   0  0  2  0  0  0  0  0  0  0  0  0
   45.6910   33.5450   36.3050 O   0  0  0  0  0  0  0  0  0  0  0  0
   45.3590   32.6730   36.0150 H   0  0  0  0  0  0  0  0  0  0  0  0
   47.9080   32.0530   36.5840 O   0  0  0  0  0  0  0  0  0  0  0  0
   49.6790   31.0000   35.5210 C   0  0  1  0  0  3  0  0  0  0  0  0
   48.8950   32.2930   35.6780 C   0  0  1  0  0  3  0  0  0  0  0  0
   48.4710   32.5240   34.2780 C   0  0  0  0  0  3  0  0  0  0  0  0
   47.6570   33.2550   34.1460 H   0  0  0  0  0  0  0  0  0  0  0  0
   48.1840   31.2900   33.7380 O   0  0  0  0  0  0  0  0  0  0  0  0
   48.9220   30.3390   34.3990 C   0  0  0  0  0  3  0  0  0  0  0  0
   49.6060   29.8890   33.6410 H   0  0  0  0  0  0  0  0  0  0  0  0
   50.9630   31.2650   35.0450 O   0  0  0  0  0  0  0  0  0  0  0  0
   51.5930   30.5450   35.2210 H   0  0  0  0  0  0  0  0  0  0  0  0
  2  1  1  0  0  0  0
  2  3  1  0  0  0  0
  3 15  1  0  0  0  0
  4  3  2  0  0  0  0
  4  8  1  0  0  0  0
  5  9  1  0  0  0  0
  5  4  1  0  0  0  0
  6  7  1  0  0  0  0
  6  5  2  0  0  0  0
  7  2  2  0  0  0  0
 10  6  1  0  0  0  0
 11 12  1  0  0  0  0
 11 19  1  0  0  0  0
 12 17  1  0  0  0  0
 13 18  1  0  0  0  0
 13 12  2  0  0  0  0
 14 13  1  0  0  0  0
 15 14  2  0  0  0  0
 15 16  1  0  0  0  0
 16 11  2  0  0  0  0
 19 21  1  0  0  0  0
 20 19  1  0  0  0  0
 22  7  1  0  0  0  0
 24 23  2  6  0  0  0
 24 22  1  0  0  0  0
 25 24  1  0  0  0  0
 26 25  1  0  0  0  0
 27 24  1  0  0  0  0
 28 35  1  6  0  0  0
 28 29  1  0  0  0  0
 29 27  1  1  0  0  0
 30 29  1  0  0  0  0
 31 30  1  0  0  0  0
 32 30  1  0  0  0  0
 32 33  1  0  0  0  0
 33 28  1  0  0  0  0
 34 33  1  0  0  0  0
 35 36  1  0  0  0  0
M  END
>  <minimizedAffinity>
-6.58706188

>  <minimizedRMSD>
0.693844438

$$$$
