
 OpenBabel03252509123D

 32 35  0  0  1  0  0  0  0  0999 V2000
   48.1150   32.8730   41.5310 C   0  0  0  0  0  0  0  0  0  0  0  0
   46.8560   32.8010   40.9440 C   0  0  0  0  0  0  0  0  0  0  0  0
   45.6800   32.9780   41.6500 C   0  0  0  0  0  0  0  0  0  0  0  0
   45.7380   33.2440   43.0190 C   0  0  0  0  0  0  0  0  0  0  0  0
   44.8520   33.4690   44.0110 N   0  0  0  0  0  0  0  0  0  0  0  0
   45.4880   33.6760   45.1780 C   0  0  0  0  0  0  0  0  0  0  0  0
   46.7880   33.5730   44.8820 N   0  0  0  0  0  0  0  0  0  0  0  0
   46.9950   33.3110   43.5810 C   0  0  0  0  0  0  0  0  0  0  0  0
   48.1790   33.1380   42.9000 C   0  0  0  0  0  0  0  0  0  0  0  0
   49.0100   32.7260   40.9330 H   0  0  0  0  0  0  0  0  0  0  0  0
   43.8180   33.4750   43.8620 H   0  0  0  0  0  0  0  0  0  0  0  0
   45.0780   33.8800   46.1520 H   0  0  0  0  0  0  0  0  0  0  0  0
   49.1410   33.2020   43.3960 H   0  0  0  0  0  0  0  0  0  0  0  0
   46.4370   31.0500   37.7510 C   0  0  0  0  0  0  0  0  0  0  0  0
   46.5840   32.0580   36.8130 C   0  0  0  0  0  0  0  0  0  0  0  0
   46.8320   33.3640   37.2750 C   0  0  0  0  0  0  0  0  0  0  0  0
   46.9120   33.5560   38.6290 N   0  0  0  0  0  0  0  0  0  0  0  0
   46.7590   32.5280   39.5080 C   0  0  0  0  0  0  0  0  0  0  0  0
   46.5230   31.2790   39.0860 N   0  0  0  0  0  0  0  0  0  0  0  0
   46.2480   30.0490   37.3880 H   0  0  0  0  0  0  0  0  0  0  0  0
   46.5270   31.9330   35.7500 H   0  0  0  0  0  0  0  0  0  0  0  0
   46.9670   34.2430   36.6570 H   0  0  0  0  0  0  0  0  0  0  0  0
   44.0750   32.8770   40.8900 S   0  0  0  0  0  0  0  0  0  0  0  0
   43.2460   33.9770   38.5840 C   0  0  1  0  0  3  0  0  0  0  0  0
   43.6000   34.3660   40.0260 C   0  0  1  0  0  3  0  0  0  0  0  0
   42.1780   34.7090   40.4790 C   0  0  0  0  0  3  0  0  0  0  0  0
   42.1910   34.7930   41.5700 H   0  0  0  0  0  0  0  0  0  0  0  0
   41.3850   33.6910   39.9720 O   0  0  0  0  0  0  0  0  0  0  0  0
   42.0020   33.1490   38.8660 C   0  0  0  0  0  3  0  0  0  0  0  0
   41.3680   33.0370   37.9750 H   0  0  0  0  0  0  0  0  0  0  0  0
   42.8260   35.0910   37.8630 O   0  0  0  0  0  0  0  0  0  0  0  0
   42.8460   34.8280   36.9110 H   0  0  0  0  0  0  0  0  0  0  0  0
  1  9  1  0  0  0  0
  2  1  2  0  0  0  0
  2  3  1  0  0  0  0
  3  4  2  0  0  0  0
  4  8  1  0  0  0  0
  4  5  1  0  0  0  0
  5  6  1  0  0  0  0
  6 12  1  0  0  0  0
  7  6  2  0  0  0  0
  8  7  1  0  0  0  0
  9 13  1  0  0  0  0
  9  8  2  0  0  0  0
 10  1  1  0  0  0  0
 11  5  1  0  0  0  0
 14 19  1  0  0  0  0
 15 16  1  0  0  0  0
 15 14  2  0  0  0  0
 16 17  2  0  0  0  0
 17 18  1  0  0  0  0
 18  2  1  0  0  0  0
 19 18  2  0  0  0  0
 20 14  1  0  0  0  0
 21 15  1  0  0  0  0
 22 16  1  0  0  0  0
 23  3  1  0  0  0  0
 24 31  1  6  0  0  0
 24 29  1  0  0  0  0
 24 25  1  0  0  0  0
 25 26  1  0  0  0  0
 25 23  1  1  0  0  0
 26 27  1  0  0  0  0
 28 26  1  0  0  0  0
 29 28  1  0  0  0  0
 30 29  1  0  0  0  0
 32 31  1  0  0  0  0
M  END
>  <minimizedAffinity>
-4.49224567

>  <minimizedRMSD>
5.15015888

$$$$
