
 OpenBabel03242516423D

 32 33  0  0  1  0  0  0  0  0999 V2000
   37.6120   30.0040   38.5560 C   0  0  0  0  0  0  0  0  0  0  0  0
   38.1400   30.0590   39.5410 H   0  0  0  0  0  0  0  0  0  0  0  0
   37.7450   29.0020   38.0630 H   0  0  0  0  0  0  0  0  0  0  0  0
   38.1400   31.0690   37.6490 C   0  0  0  0  0  0  0  0  0  0  0  0
   37.3760   31.5740   37.0460 H   0  0  0  0  0  0  0  0  0  0  0  0
   38.8270   30.5690   36.9070 H   0  0  0  0  0  0  0  0  0  0  0  0
   39.2850   33.5020   40.2850 C   0  0  0  0  0  0  0  0  0  0  0  0
   38.4680   32.6250   39.5420 C   0  0  0  0  0  0  0  0  0  0  0  0
   39.0060   31.9950   38.4300 C   0  0  0  0  0  0  0  0  0  0  0  0
   40.2940   32.2450   38.0980 N   0  0  0  0  0  0  0  0  0  0  0  0
   41.0540   33.0940   38.8340 C   0  0  0  0  0  0  0  0  0  0  0  0
   40.5630   33.7170   39.9110 N   0  0  0  0  0  0  0  0  0  0  0  0
   38.7740   34.1600   41.4220 N   0  0  0  0  0  0  0  0  0  0  0  0
   37.4350   32.4640   39.8600 H   0  0  0  0  0  0  0  0  0  0  0  0
   42.0670   33.2160   38.4740 H   0  0  0  0  0  0  0  0  0  0  0  0
   37.7870   34.3620   41.6420 H   0  0  0  0  0  0  0  0  0  0  0  0
   39.4250   34.5050   42.1560 H   0  0  0  0  0  0  0  0  0  0  0  0
   36.2520   30.1710   38.7680 O   0  0  0  0  0  0  0  0  0  0  0  0
   34.5020   28.9230   40.2600 O   0  0  0  0  0  0  0  0  0  0  0  0
   35.8010   29.6850   40.3250 P   0  0  2  0  0  0  0  0  0  0  0  0
   35.7210   31.0550   41.2970 O   0  0  0  0  0  0  0  0  0  0  0  0
   34.7910   31.2150   41.5570 H   0  0  0  0  0  0  0  0  0  0  0  0
   37.0400   28.7020   40.9640 O   0  0  0  0  0  0  0  0  0  0  0  0
   37.1630   28.0510   43.2140 C   0  0  1  0  0  3  0  0  0  0  0  0
   36.5580   27.7760   41.8530 C   0  0  2  0  0  3  0  0  0  0  0  0
   37.2730   26.4560   41.5370 C   0  0  0  0  0  3  0  0  0  0  0  0
   37.1940   26.1860   40.4730 H   0  0  0  0  0  0  0  0  0  0  0  0
   38.5620   26.6110   41.9970 O   0  0  0  0  0  0  0  0  0  0  0  0
   38.5640   27.5310   43.0150 C   0  0  0  0  0  3  0  0  0  0  0  0
   39.0570   27.1920   43.9410 H   0  0  0  0  0  0  0  0  0  0  0  0
   37.1240   29.4000   43.5580 O   0  0  0  0  0  0  0  0  0  0  0  0
   37.3890   29.4160   44.5300 H   0  0  0  0  0  0  0  0  0  0  0  0
  1 18  1  0  0  0  0
  1  2  1  0  0  0  0
  3  1  1  0  0  0  0
  4  9  1  0  0  0  0
  4  1  1  0  0  0  0
  5  4  1  0  0  0  0
  6  4  1  0  0  0  0
  7 13  1  0  0  0  0
  8 14  1  0  0  0  0
  8  7  2  0  0  0  0
  9  8  1  0  0  0  0
 10  9  2  0  0  0  0
 10 11  1  0  0  0  0
 11 12  2  0  0  0  0
 12  7  1  0  0  0  0
 13 16  1  0  0  0  0
 13 17  1  0  0  0  0
 15 11  1  0  0  0  0
 18 20  1  0  0  0  0
 20 19  2  6  0  0  0
 20 23  1  0  0  0  0
 20 21  1  0  0  0  0
 21 22  1  0  0  0  0
 24 31  1  6  0  0  0
 25 23  1  6  0  0  0
 25 24  1  0  0  0  0
 26 25  1  0  0  0  0
 26 28  1  0  0  0  0
 27 26  1  0  0  0  0
 28 29  1  0  0  0  0
 29 24  1  0  0  0  0
 29 30  1  0  0  0  0
 31 32  1  0  0  0  0
M  END
>  <minimizedAffinity>
-5.49204254

$$$$

 OpenBabel03242516423D

 32 33  0  0  1  0  0  0  0  0999 V2000
   38.0340   30.0440   38.8700 C   0  0  0  0  0  0  0  0  0  0  0  0
   38.5530   30.3570   39.8110 H   0  0  0  0  0  0  0  0  0  0  0  0
   38.1040   28.9350   38.7000 H   0  0  0  0  0  0  0  0  0  0  0  0
   38.6450   30.7580   37.7070 C   0  0  0  0  0  0  0  0  0  0  0  0
   37.9220   31.1660   36.9910 H   0  0  0  0  0  0  0  0  0  0  0  0
   39.2460   30.0000   37.1260 H   0  0  0  0  0  0  0  0  0  0  0  0
   41.4520   33.2670   37.7580 C   0  0  0  0  0  0  0  0  0  0  0  0
   40.5110   32.3250   37.2930 C   0  0  0  0  0  0  0  0  0  0  0  0
   39.6360   31.7520   38.2040 C   0  0  0  0  0  0  0  0  0  0  0  0
   39.7150   32.1190   39.5040 N   0  0  0  0  0  0  0  0  0  0  0  0
   40.6310   33.0290   39.9190 C   0  0  0  0  0  0  0  0  0  0  0  0
   41.4880   33.5970   39.0650 N   0  0  0  0  0  0  0  0  0  0  0  0
   42.3570   33.8710   36.8630 N   0  0  0  0  0  0  0  0  0  0  0  0
   40.4960   32.0690   36.2300 H   0  0  0  0  0  0  0  0  0  0  0  0
   40.6010   33.2430   40.9790 H   0  0  0  0  0  0  0  0  0  0  0  0
   42.6740   33.5120   35.9500 H   0  0  0  0  0  0  0  0  0  0  0  0
   42.7880   34.7870   37.1020 H   0  0  0  0  0  0  0  0  0  0  0  0
   36.6860   30.3520   38.9790 O   0  0  0  0  0  0  0  0  0  0  0  0
   34.8530   28.8980   40.1510 O   0  0  0  0  0  0  0  0  0  0  0  0
   36.0360   29.7870   40.4360 P   0  0  2  0  0  0  0  0  0  0  0  0
   35.6540   31.1190   41.3890 O   0  0  0  0  0  0  0  0  0  0  0  0
   34.6820   31.1780   41.4900 H   0  0  0  0  0  0  0  0  0  0  0  0
   37.2470   28.9190   41.2680 O   0  0  0  0  0  0  0  0  0  0  0  0
   38.7100   29.6240   42.9610 C   0  0  1  0  0  3  0  0  0  0  0  0
   37.2900   29.2400   42.6000 C   0  0  2  0  0  3  0  0  0  0  0  0
   37.1980   27.9170   43.3700 C   0  0  0  0  0  3  0  0  0  0  0  0
   36.3370   27.3100   43.0500 H   0  0  0  0  0  0  0  0  0  0  0  0
   38.4230   27.3070   43.2110 O   0  0  0  0  0  0  0  0  0  0  0  0
   39.3740   28.2700   42.9870 C   0  0  0  0  0  3  0  0  0  0  0  0
   40.2540   28.2100   43.6490 H   0  0  0  0  0  0  0  0  0  0  0  0
   39.2830   30.4960   42.0390 O   0  0  0  0  0  0  0  0  0  0  0  0
   40.1370   30.7970   42.4800 H   0  0  0  0  0  0  0  0  0  0  0  0
  1 18  1  0  0  0  0
  1  2  1  0  0  0  0
  3  1  1  0  0  0  0
  4  9  1  0  0  0  0
  4  1  1  0  0  0  0
  5  4  1  0  0  0  0
  6  4  1  0  0  0  0
  7 12  1  0  0  0  0
  8  7  2  0  0  0  0
  8  9  1  0  0  0  0
  9 10  2  0  0  0  0
 10 11  1  0  0  0  0
 11 15  1  0  0  0  0
 12 11  2  0  0  0  0
 13 17  1  0  0  0  0
 13  7  1  0  0  0  0
 14  8  1  0  0  0  0
 16 13  1  0  0  0  0
 18 20  1  0  0  0  0
 20 19  2  6  0  0  0
 20 23  1  0  0  0  0
 20 21  1  0  0  0  0
 21 22  1  0  0  0  0
 24 31  1  6  0  0  0
 24 29  1  0  0  0  0
 25 23  1  6  0  0  0
 25 24  1  0  0  0  0
 25 26  1  0  0  0  0
 27 26  1  0  0  0  0
 28 26  1  0  0  0  0
 29 28  1  0  0  0  0
 29 30  1  0  0  0  0
 31 32  1  0  0  0  0
M  END
>  <minimizedAffinity>
-5.21796799

$$$$

 OpenBabel03242516423D

 32 33  0  0  1  0  0  0  0  0999 V2000
   37.4800   29.2620   42.5400 C   0  0  0  0  0  0  0  0  0  0  0  0
   38.2530   29.1760   43.3440 H   0  0  0  0  0  0  0  0  0  0  0  0
   36.6680   29.9900   42.8130 H   0  0  0  0  0  0  0  0  0  0  0  0
   36.8700   27.9190   42.2930 C   0  0  0  0  0  0  0  0  0  0  0  0
   36.3950   27.8080   41.3110 H   0  0  0  0  0  0  0  0  0  0  0  0
   36.0400   27.7840   43.0450 H   0  0  0  0  0  0  0  0  0  0  0  0
   38.6370   24.5950   42.3470 C   0  0  0  0  0  0  0  0  0  0  0  0
   37.6950   25.6020   42.0520 C   0  0  0  0  0  0  0  0  0  0  0  0
   37.8680   26.8600   42.6090 C   0  0  0  0  0  0  0  0  0  0  0  0
   38.9330   27.0760   43.4150 N   0  0  0  0  0  0  0  0  0  0  0  0
   39.8220   26.0860   43.6800 C   0  0  0  0  0  0  0  0  0  0  0  0
   39.6810   24.8630   43.1580 N   0  0  0  0  0  0  0  0  0  0  0  0
   38.4950   23.3040   41.7990 N   0  0  0  0  0  0  0  0  0  0  0  0
   36.8550   25.3670   41.3930 H   0  0  0  0  0  0  0  0  0  0  0  0
   40.6310   26.3740   44.3360 H   0  0  0  0  0  0  0  0  0  0  0  0
   37.6330   22.8570   41.4540 H   0  0  0  0  0  0  0  0  0  0  0  0
   39.3270   22.6860   41.7100 H   0  0  0  0  0  0  0  0  0  0  0  0
   38.0830   29.7450   41.3880 O   0  0  0  0  0  0  0  0  0  0  0  0
   37.8580   32.2000   40.5130 O   0  0  0  0  0  0  0  0  0  0  0  0
   37.1120   30.8940   40.6120 P   0  0  2  0  0  0  0  0  0  0  0  0
   35.6670   31.0150   41.4630 O   0  0  0  0  0  0  0  0  0  0  0  0
   35.6090   31.8990   41.8810 H   0  0  0  0  0  0  0  0  0  0  0  0
   36.7200   30.3090   39.0580 O   0  0  0  0  0  0  0  0  0  0  0  0
   37.8580   30.9560   37.1120 C   0  0  1  0  0  3  0  0  0  0  0  0
   37.8370   30.0330   38.3130 C   0  0  2  0  0  3  0  0  0  0  0  0
   37.5610   28.7090   37.5900 C   0  0  0  0  0  3  0  0  0  0  0  0
   37.2390   27.9170   38.2840 H   0  0  0  0  0  0  0  0  0  0  0  0
   36.6540   29.0080   36.5980 O   0  0  0  0  0  0  0  0  0  0  0  0
   36.7940   30.3270   36.2490 C   0  0  0  0  0  3  0  0  0  0  0  0
   36.9240   30.5060   35.1690 H   0  0  0  0  0  0  0  0  0  0  0  0
   37.5810   32.2790   37.4450 O   0  0  0  0  0  0  0  0  0  0  0  0
   37.7950   32.7970   36.6080 H   0  0  0  0  0  0  0  0  0  0  0  0
  1  3  1  0  0  0  0
  1  2  1  0  0  0  0
  4  1  1  0  0  0  0
  4  9  1  0  0  0  0
  4  6  1  0  0  0  0
  5  4  1  0  0  0  0
  7 12  1  0  0  0  0
  8  7  2  0  0  0  0
  8  9  1  0  0  0  0
  9 10  2  0  0  0  0
 10 11  1  0  0  0  0
 11 15  1  0  0  0  0
 12 11  2  0  0  0  0
 13  7  1  0  0  0  0
 14  8  1  0  0  0  0
 16 13  1  0  0  0  0
 17 13  1  0  0  0  0
 18  1  1  0  0  0  0
 20 19  2  6  0  0  0
 20 18  1  0  0  0  0
 20 21  1  0  0  0  0
 21 22  1  0  0  0  0
 23 20  1  0  0  0  0
 24 31  1  1  0  0  0
 24 25  1  0  0  0  0
 25 23  1  1  0  0  0
 26 27  1  0  0  0  0
 26 25  1  0  0  0  0
 28 26  1  0  0  0  0
 29 28  1  0  0  0  0
 29 24  1  0  0  0  0
 30 29  1  0  0  0  0
 32 31  1  0  0  0  0
M  END
>  <minimizedAffinity>
-5.05460167

$$$$

 OpenBabel03242516423D

 32 33  0  0  1  0  0  0  0  0999 V2000
   37.4390   29.1770   42.2390 C   0  0  0  0  0  0  0  0  0  0  0  0
   38.4370   29.1720   42.7460 H   0  0  0  0  0  0  0  0  0  0  0  0
   36.8020   30.0430   42.5700 H   0  0  0  0  0  0  0  0  0  0  0  0
   36.7230   27.8990   42.5400 C   0  0  0  0  0  0  0  0  0  0  0  0
   35.9230   27.6470   41.8340 H   0  0  0  0  0  0  0  0  0  0  0  0
   36.2130   28.0270   43.5380 H   0  0  0  0  0  0  0  0  0  0  0  0
   38.4370   24.5540   42.3170 C   0  0  0  0  0  0  0  0  0  0  0  0
   37.4960   25.5880   42.1300 C   0  0  0  0  0  0  0  0  0  0  0  0
   37.7200   26.8120   42.7420 C   0  0  0  0  0  0  0  0  0  0  0  0
   38.8320   26.9700   43.4960 N   0  0  0  0  0  0  0  0  0  0  0  0
   39.7190   25.9570   43.6560 C   0  0  0  0  0  0  0  0  0  0  0  0
   39.5300   24.7650   43.0790 N   0  0  0  0  0  0  0  0  0  0  0  0
   38.2450   23.2970   41.7110 N   0  0  0  0  0  0  0  0  0  0  0  0
   36.6170   25.3990   41.5090 H   0  0  0  0  0  0  0  0  0  0  0  0
   40.5690   26.1990   44.2800 H   0  0  0  0  0  0  0  0  0  0  0  0
   37.3570   22.8810   41.3930 H   0  0  0  0  0  0  0  0  0  0  0  0
   39.0600   22.6740   41.5420 H   0  0  0  0  0  0  0  0  0  0  0  0
   37.6330   29.3190   40.8730 O   0  0  0  0  0  0  0  0  0  0  0  0
   36.9910   31.1890   39.1590 O   0  0  0  0  0  0  0  0  0  0  0  0
   36.3980   30.2320   40.1620 P   0  0  2  0  0  0  0  0  0  0  0  0
   35.5430   31.0000   41.3900 O   0  0  0  0  0  0  0  0  0  0  0  0
   35.6880   31.9660   41.3300 H   0  0  0  0  0  0  0  0  0  0  0  0
   35.3080   29.1650   39.3970 O   0  0  0  0  0  0  0  0  0  0  0  0
   34.0290   28.6910   37.4890 C   0  0  1  0  0  3  0  0  0  0  0  0
   35.2850   29.3360   38.0380 C   0  0  2  0  0  3  0  0  0  0  0  0
   36.3230   28.3650   37.4590 C   0  0  0  0  0  3  0  0  0  0  0  0
   37.3070   28.4760   37.9410 H   0  0  0  0  0  0  0  0  0  0  0  0
   35.7650   27.1120   37.5730 O   0  0  0  0  0  0  0  0  0  0  0  0
   34.3980   27.2310   37.5730 C   0  0  0  0  0  3  0  0  0  0  0  0
   33.8810   26.5910   36.8390 H   0  0  0  0  0  0  0  0  0  0  0  0
   32.8930   29.0100   38.2280 O   0  0  0  0  0  0  0  0  0  0  0  0
   32.1280   28.6690   37.6680 H   0  0  0  0  0  0  0  0  0  0  0  0
  1  4  1  0  0  0  0
  1  3  1  0  0  0  0
  1  2  1  0  0  0  0
  4  9  1  0  0  0  0
  4  6  1  0  0  0  0
  5  4  1  0  0  0  0
  7 12  1  0  0  0  0
  8  7  2  0  0  0  0
  8  9  1  0  0  0  0
  9 10  2  0  0  0  0
 10 11  1  0  0  0  0
 11 15  1  0  0  0  0
 12 11  2  0  0  0  0
 13  7  1  0  0  0  0
 14  8  1  0  0  0  0
 16 13  1  0  0  0  0
 17 13  1  0  0  0  0
 18  1  1  0  0  0  0
 20 19  2  6  0  0  0
 20 18  1  0  0  0  0
 20 21  1  0  0  0  0
 22 21  1  0  0  0  0
 23 20  1  0  0  0  0
 24 29  1  0  0  0  0
 24 25  1  0  0  0  0
 24 31  1  1  0  0  0
 25 23  1  1  0  0  0
 26 28  1  0  0  0  0
 26 27  1  0  0  0  0
 26 25  1  0  0  0  0
 29 28  1  0  0  0  0
 30 29  1  0  0  0  0
 32 31  1  0  0  0  0
M  END
>  <minimizedAffinity>
-5.05343056

$$$$

 OpenBabel03242516423D

 32 33  0  0  1  0  0  0  0  0999 V2000
   40.1220   31.1890   41.2310 C   0  0  0  0  0  0  0  0  0  0  0  0
   39.6450   30.3410   40.6770 H   0  0  0  0  0  0  0  0  0  0  0  0
   41.1150   31.4750   40.7880 H   0  0  0  0  0  0  0  0  0  0  0  0
   40.3170   30.8000   42.6610 C   0  0  0  0  0  0  0  0  0  0  0  0
   40.0160   31.5640   43.3870 H   0  0  0  0  0  0  0  0  0  0  0  0
   41.4250   30.6530   42.8220 H   0  0  0  0  0  0  0  0  0  0  0  0
   37.7410   28.1230   43.2740 C   0  0  0  0  0  0  0  0  0  0  0  0
   38.3280   29.3860   43.0510 C   0  0  0  0  0  0  0  0  0  0  0  0
   39.7030   29.4630   42.8970 C   0  0  0  0  0  0  0  0  0  0  0  0
   40.4330   28.3260   42.9650 N   0  0  0  0  0  0  0  0  0  0  0  0
   39.8380   27.1260   43.1800 C   0  0  0  0  0  0  0  0  0  0  0  0
   38.5140   27.0190   43.3330 N   0  0  0  0  0  0  0  0  0  0  0  0
   36.3460   28.0030   43.4340 N   0  0  0  0  0  0  0  0  0  0  0  0
   37.6850   30.2690   43.0060 H   0  0  0  0  0  0  0  0  0  0  0  0
   40.5210   26.2870   43.2160 H   0  0  0  0  0  0  0  0  0  0  0  0
   35.6820   28.7330   43.7340 H   0  0  0  0  0  0  0  0  0  0  0  0
   35.8800   27.0940   43.2420 H   0  0  0  0  0  0  0  0  0  0  0  0
   39.3020   32.3030   41.1350 O   0  0  0  0  0  0  0  0  0  0  0  0
   38.8580   32.5210   38.5660 O   0  0  0  0  0  0  0  0  0  0  0  0
   38.1920   32.1500   39.8660 P   0  0  2  0  0  0  0  0  0  0  0  0
   36.8540   33.1040   40.2240 O   0  0  0  0  0  0  0  0  0  0  0  0
   36.8060   33.8470   39.5890 H   0  0  0  0  0  0  0  0  0  0  0  0
   37.6450   30.5350   39.8180 O   0  0  0  0  0  0  0  0  0  0  0  0
   35.4840   29.6330   39.9440 C   0  0  1  0  0  3  0  0  0  0  0  0
   36.4810   30.4050   39.1050 C   0  0  2  0  0  3  0  0  0  0  0  0
   36.7490   29.3510   38.0230 C   0  0  0  0  0  3  0  0  0  0  0  0
   37.6500   29.5820   37.4340 H   0  0  0  0  0  0  0  0  0  0  0  0
   36.7870   28.1420   38.6820 O   0  0  0  0  0  0  0  0  0  0  0  0
   36.0320   28.2330   39.8240 C   0  0  0  0  0  3  0  0  0  0  0  0
   35.2760   27.4390   39.9410 H   0  0  0  0  0  0  0  0  0  0  0  0
   35.4210   30.0850   41.2590 O   0  0  0  0  0  0  0  0  0  0  0  0
   34.6180   29.6160   41.6450 H   0  0  0  0  0  0  0  0  0  0  0  0
  1  4  1  0  0  0  0
  2  1  1  0  0  0  0
  3  1  1  0  0  0  0
  4  6  1  0  0  0  0
  4  9  1  0  0  0  0
  4  5  1  0  0  0  0
  7 12  1  0  0  0  0
  7 13  1  0  0  0  0
  8  7  2  0  0  0  0
  9 10  2  0  0  0  0
  9  8  1  0  0  0  0
 10 11  1  0  0  0  0
 11 15  1  0  0  0  0
 11 12  2  0  0  0  0
 13 16  1  0  0  0  0
 14  8  1  0  0  0  0
 17 13  1  0  0  0  0
 18  1  1  0  0  0  0
 20 19  2  6  0  0  0
 20 21  1  0  0  0  0
 20 18  1  0  0  0  0
 22 21  1  0  0  0  0
 23 20  1  0  0  0  0
 24 31  1  1  0  0  0
 25 23  1  1  0  0  0
 25 24  1  0  0  0  0
 26 28  1  0  0  0  0
 26 25  1  0  0  0  0
 27 26  1  0  0  0  0
 28 29  1  0  0  0  0
 29 30  1  0  0  0  0
 29 24  1  0  0  0  0
 31 32  1  0  0  0  0
M  END
>  <minimizedAffinity>
-4.94989967

$$$$

 OpenBabel03242516423D

 32 33  0  0  1  0  0  0  0  0999 V2000
   37.4570   28.6820   42.5170 C   0  0  0  0  0  0  0  0  0  0  0  0
   36.5010   29.1810   42.2150 H   0  0  0  0  0  0  0  0  0  0  0  0
   38.0470   28.3300   41.6270 H   0  0  0  0  0  0  0  0  0  0  0  0
   37.1480   27.5110   43.3940 C   0  0  0  0  0  0  0  0  0  0  0  0
   36.0810   27.3590   43.5930 H   0  0  0  0  0  0  0  0  0  0  0  0
   37.6150   27.7140   44.4010 H   0  0  0  0  0  0  0  0  0  0  0  0
   39.8490   24.9810   42.6990 C   0  0  0  0  0  0  0  0  0  0  0  0
   39.1820   26.1220   43.1930 C   0  0  0  0  0  0  0  0  0  0  0  0
   37.8470   26.3050   42.8700 C   0  0  0  0  0  0  0  0  0  0  0  0
   37.2310   25.3840   42.0930 N   0  0  0  0  0  0  0  0  0  0  0  0
   37.8990   24.2960   41.6350 C   0  0  0  0  0  0  0  0  0  0  0  0
   39.1880   24.0930   41.9290 N   0  0  0  0  0  0  0  0  0  0  0  0
   41.2060   24.7600   43.0070 N   0  0  0  0  0  0  0  0  0  0  0  0
   39.7340   26.8310   43.8150 H   0  0  0  0  0  0  0  0  0  0  0  0
   37.3050   23.6290   41.0240 H   0  0  0  0  0  0  0  0  0  0  0  0
   41.9110   25.4590   43.2830 H   0  0  0  0  0  0  0  0  0  0  0  0
   41.5950   23.7970   42.9640 H   0  0  0  0  0  0  0  0  0  0  0  0
   38.2480   29.6010   43.1890 O   0  0  0  0  0  0  0  0  0  0  0  0
   40.5130   29.1100   41.9750 O   0  0  0  0  0  0  0  0  0  0  0  0
   39.4890   30.1920   42.2010 P   0  0  2  0  0  0  0  0  0  0  0  0
   40.1250   31.5690   42.9280 O   0  0  0  0  0  0  0  0  0  0  0  0
   41.0430   31.3880   43.2170 H   0  0  0  0  0  0  0  0  0  0  0  0
   38.8090   30.6900   40.7180 O   0  0  0  0  0  0  0  0  0  0  0  0
   37.2380   32.3490   40.1870 C   0  0  1  0  0  3  0  0  0  0  0  0
   38.6480   32.0500   40.6540 C   0  0  2  0  0  3  0  0  0  0  0  0
   39.4140   32.5220   39.4120 C   0  0  0  0  0  3  0  0  0  0  0  0
   40.4550   32.1610   39.4060 H   0  0  0  0  0  0  0  0  0  0  0  0
   38.6600   32.1200   38.3330 O   0  0  0  0  0  0  0  0  0  0  0  0
   37.3470   32.0200   38.7190 C   0  0  0  0  0  3  0  0  0  0  0  0
   36.6360   32.5680   38.0790 H   0  0  0  0  0  0  0  0  0  0  0  0
   36.2780   31.5870   40.8480 O   0  0  0  0  0  0  0  0  0  0  0  0
   35.4010   32.0000   40.5740 H   0  0  0  0  0  0  0  0  0  0  0  0
  1 18  1  0  0  0  0
  1  4  1  0  0  0  0
  2  1  1  0  0  0  0
  3  1  1  0  0  0  0
  4  5  1  0  0  0  0
  4  6  1  0  0  0  0
  7 13  1  0  0  0  0
  7  8  1  0  0  0  0
  8 14  1  0  0  0  0
  9  8  2  0  0  0  0
  9  4  1  0  0  0  0
 10  9  1  0  0  0  0
 11 12  1  0  0  0  0
 11 10  2  0  0  0  0
 12  7  2  0  0  0  0
 13 16  1  0  0  0  0
 15 11  1  0  0  0  0
 17 13  1  0  0  0  0
 20 19  2  6  0  0  0
 20 21  1  0  0  0  0
 20 18  1  0  0  0  0
 21 22  1  0  0  0  0
 23 20  1  0  0  0  0
 24 25  1  0  0  0  0
 24 31  1  1  0  0  0
 25 23  1  6  0  0  0
 26 25  1  0  0  0  0
 27 26  1  0  0  0  0
 28 29  1  0  0  0  0
 28 26  1  0  0  0  0
 29 24  1  0  0  0  0
 30 29  1  0  0  0  0
 32 31  1  0  0  0  0
M  END
>  <minimizedAffinity>
-4.92799473

$$$$

 OpenBabel03242516423D

 32 33  0  0  1  0  0  0  0  0999 V2000
   36.9300   28.9910   38.8570 C   0  0  0  0  0  0  0  0  0  0  0  0
   37.8430   29.6390   38.8710 H   0  0  0  0  0  0  0  0  0  0  0  0
   37.1350   27.9860   38.3980 H   0  0  0  0  0  0  0  0  0  0  0  0
   35.8500   29.6740   38.0800 C   0  0  0  0  0  0  0  0  0  0  0  0
   35.9460   30.7640   38.0260 H   0  0  0  0  0  0  0  0  0  0  0  0
   34.8770   29.4850   38.6200 H   0  0  0  0  0  0  0  0  0  0  0  0
   36.2270   28.9330   34.4080 C   0  0  0  0  0  0  0  0  0  0  0  0
   36.3630   29.5570   35.6650 C   0  0  0  0  0  0  0  0  0  0  0  0
   35.7020   29.0110   36.7550 C   0  0  0  0  0  0  0  0  0  0  0  0
   34.9520   27.9000   36.5720 N   0  0  0  0  0  0  0  0  0  0  0  0
   34.8420   27.3230   35.3500 C   0  0  0  0  0  0  0  0  0  0  0  0
   35.4660   27.8270   34.2800 N   0  0  0  0  0  0  0  0  0  0  0  0
   36.8840   29.4590   33.2770 N   0  0  0  0  0  0  0  0  0  0  0  0
   36.9840   30.4530   35.7490 H   0  0  0  0  0  0  0  0  0  0  0  0
   34.2160   26.4400   35.3250 H   0  0  0  0  0  0  0  0  0  0  0  0
   37.2120   30.4250   33.1310 H   0  0  0  0  0  0  0  0  0  0  0  0
   37.0860   28.8430   32.4640 H   0  0  0  0  0  0  0  0  0  0  0  0
   36.5230   28.7630   40.1630 O   0  0  0  0  0  0  0  0  0  0  0  0
   37.4950   29.4770   42.4850 O   0  0  0  0  0  0  0  0  0  0  0  0
   36.9730   30.0350   41.1850 P   0  0  2  0  0  0  0  0  0  0  0  0
   35.6420   31.0440   41.3800 O   0  0  0  0  0  0  0  0  0  0  0  0
   35.3320   30.9960   42.3070 H   0  0  0  0  0  0  0  0  0  0  0  0
   38.1780   30.9560   40.4040 O   0  0  0  0  0  0  0  0  0  0  0  0
   38.5490   33.2530   40.6990 C   0  0  1  0  0  3  0  0  0  0  0  0
   38.7680   31.8580   41.2500 C   0  0  2  0  0  3  0  0  0  0  0  0
   40.2800   31.7470   41.0190 C   0  0  0  0  0  3  0  0  0  0  0  0
   40.6360   30.7080   41.1020 H   0  0  0  0  0  0  0  0  0  0  0  0
   40.5170   32.3410   39.8000 O   0  0  0  0  0  0  0  0  0  0  0  0
   39.5340   33.2670   39.5570 C   0  0  0  0  0  3  0  0  0  0  0  0
   39.9040   34.2710   39.2920 H   0  0  0  0  0  0  0  0  0  0  0  0
   37.2360   33.4700   40.2900 O   0  0  0  0  0  0  0  0  0  0  0  0
   37.1920   34.4620   40.1150 H   0  0  0  0  0  0  0  0  0  0  0  0
  1  2  1  0  0  0  0
  1 18  1  0  0  0  0
  3  1  1  0  0  0  0
  4  6  1  0  0  0  0
  4  1  1  0  0  0  0
  5  4  1  0  0  0  0
  7  8  1  0  0  0  0
  8 14  1  0  0  0  0
  8  9  2  0  0  0  0
  9  4  1  0  0  0  0
 10  9  1  0  0  0  0
 11 10  2  0  0  0  0
 12  7  2  0  0  0  0
 12 11  1  0  0  0  0
 13  7  1  0  0  0  0
 15 11  1  0  0  0  0
 16 13  1  0  0  0  0
 17 13  1  0  0  0  0
 18 20  1  0  0  0  0
 20 21  1  0  0  0  0
 20 19  2  1  0  0  0
 21 22  1  0  0  0  0
 23 20  1  0  0  0  0
 24 31  1  6  0  0  0
 24 25  1  0  0  0  0
 25 23  1  6  0  0  0
 26 27  1  0  0  0  0
 26 25  1  0  0  0  0
 28 26  1  0  0  0  0
 29 28  1  0  0  0  0
 29 24  1  0  0  0  0
 30 29  1  0  0  0  0
 32 31  1  0  0  0  0
M  END
>  <minimizedAffinity>
-4.90612841

$$$$

 OpenBabel03242516423D

 32 33  0  0  1  0  0  0  0  0999 V2000
   36.6050   28.3320   41.7270 C   0  0  0  0  0  0  0  0  0  0  0  0
   35.5890   28.3870   41.2600 H   0  0  0  0  0  0  0  0  0  0  0  0
   37.3750   27.9320   41.0120 H   0  0  0  0  0  0  0  0  0  0  0  0
   36.5500   27.4480   42.9320 C   0  0  0  0  0  0  0  0  0  0  0  0
   35.5550   27.0490   43.1600 H   0  0  0  0  0  0  0  0  0  0  0  0
   36.8320   28.0780   43.8240 H   0  0  0  0  0  0  0  0  0  0  0  0
   38.3260   24.2460   42.0520 C   0  0  0  0  0  0  0  0  0  0  0  0
   37.3240   25.2340   42.1520 C   0  0  0  0  0  0  0  0  0  0  0  0
   37.6120   26.4090   42.8300 C   0  0  0  0  0  0  0  0  0  0  0  0
   38.8430   26.5660   43.3700 N   0  0  0  0  0  0  0  0  0  0  0  0
   39.7850   25.5970   43.2550 C   0  0  0  0  0  0  0  0  0  0  0  0
   39.5360   24.4530   42.6090 N   0  0  0  0  0  0  0  0  0  0  0  0
   38.0710   23.0390   41.3710 N   0  0  0  0  0  0  0  0  0  0  0  0
   36.3480   25.0490   41.6950 H   0  0  0  0  0  0  0  0  0  0  0  0
   40.7300   25.8330   43.7260 H   0  0  0  0  0  0  0  0  0  0  0  0
   37.1560   22.6000   41.1880 H   0  0  0  0  0  0  0  0  0  0  0  0
   38.8630   22.4850   40.9880 H   0  0  0  0  0  0  0  0  0  0  0  0
   37.0060   29.6120   42.0780 O   0  0  0  0  0  0  0  0  0  0  0  0
   38.8820   29.1730   40.3080 O   0  0  0  0  0  0  0  0  0  0  0  0
   38.5950   29.9220   41.5840 P   0  0  2  0  0  0  0  0  0  0  0  0
   39.6250   29.5060   42.8470 O   0  0  0  0  0  0  0  0  0  0  0  0
   40.1640   28.7320   42.5840 H   0  0  0  0  0  0  0  0  0  0  0  0
   38.7680   31.6020   41.3430 O   0  0  0  0  0  0  0  0  0  0  0  0
   39.7240   33.2830   40.0150 C   0  0  1  0  0  3  0  0  0  0  0  0
   39.0880   31.9080   40.0450 C   0  0  2  0  0  3  0  0  0  0  0  0
   37.7690   32.2390   39.3370 C   0  0  0  0  0  3  0  0  0  0  0  0
   37.0160   31.4470   39.4720 H   0  0  0  0  0  0  0  0  0  0  0  0
   37.3930   33.4770   39.8100 O   0  0  0  0  0  0  0  0  0  0  0  0
   38.5130   34.1610   40.2090 C   0  0  0  0  0  3  0  0  0  0  0  0
   38.6130   35.1710   39.7770 H   0  0  0  0  0  0  0  0  0  0  0  0
   40.6870   33.4530   41.0050 O   0  0  0  0  0  0  0  0  0  0  0  0
   41.1380   34.3220   40.7650 H   0  0  0  0  0  0  0  0  0  0  0  0
  1 18  1  0  0  0  0
  1  4  1  0  0  0  0
  2  1  1  0  0  0  0
  3  1  1  0  0  0  0
  4  5  1  0  0  0  0
  4  6  1  0  0  0  0
  7  8  2  0  0  0  0
  7 12  1  0  0  0  0
  8  9  1  0  0  0  0
  9  4  1  0  0  0  0
  9 10  2  0  0  0  0
 11 10  1  0  0  0  0
 11 15  1  0  0  0  0
 12 11  2  0  0  0  0
 13  7  1  0  0  0  0
 14  8  1  0  0  0  0
 16 13  1  0  0  0  0
 17 13  1  0  0  0  0
 20 19  2  6  0  0  0
 20 18  1  0  0  0  0
 20 21  1  0  0  0  0
 22 21  1  0  0  0  0
 23 20  1  0  0  0  0
 24 25  1  0  0  0  0
 24 29  1  0  0  0  0
 24 31  1  1  0  0  0
 25 23  1  1  0  0  0
 26 27  1  0  0  0  0
 26 28  1  0  0  0  0
 26 25  1  0  0  0  0
 28 29  1  0  0  0  0
 30 29  1  0  0  0  0
 32 31  1  0  0  0  0
M  END
>  <minimizedAffinity>
-4.90291691

$$$$

 OpenBabel03242516423D

 32 33  0  0  1  0  0  0  0  0999 V2000
   35.7300   29.1160   39.1260 C   0  0  0  0  0  0  0  0  0  0  0  0
   34.8990   28.7860   38.4520 H   0  0  0  0  0  0  0  0  0  0  0  0
   36.6590   28.5000   38.9820 H   0  0  0  0  0  0  0  0  0  0  0  0
   35.2860   29.0060   40.5500 C   0  0  0  0  0  0  0  0  0  0  0  0
   34.4560   28.3100   40.7170 H   0  0  0  0  0  0  0  0  0  0  0  0
   34.8960   30.0180   40.8600 H   0  0  0  0  0  0  0  0  0  0  0  0
   38.0100   27.2060   42.4270 C   0  0  0  0  0  0  0  0  0  0  0  0
   36.8880   27.4480   41.6060 C   0  0  0  0  0  0  0  0  0  0  0  0
   36.4710   28.7570   41.4180 C   0  0  0  0  0  0  0  0  0  0  0  0
   37.1540   29.7540   42.0260 N   0  0  0  0  0  0  0  0  0  0  0  0
   38.2300   29.4880   42.8090 C   0  0  0  0  0  0  0  0  0  0  0  0
   38.6550   28.2370   43.0100 N   0  0  0  0  0  0  0  0  0  0  0  0
   38.4640   25.8890   42.6420 N   0  0  0  0  0  0  0  0  0  0  0  0
   36.3780   26.6000   41.1420 H   0  0  0  0  0  0  0  0  0  0  0  0
   38.6950   30.3630   43.2420 H   0  0  0  0  0  0  0  0  0  0  0  0
   37.9250   25.0150   42.5550 H   0  0  0  0  0  0  0  0  0  0  0  0
   39.4500   25.7240   42.9260 H   0  0  0  0  0  0  0  0  0  0  0  0
   36.0620   30.4260   38.8180 O   0  0  0  0  0  0  0  0  0  0  0  0
   37.2610   30.4860   36.4930 O   0  0  0  0  0  0  0  0  0  0  0  0
   37.5280   30.5130   37.9760 P   0  0  2  0  0  0  0  0  0  0  0  0
   38.5060   29.2490   38.4990 O   0  0  0  0  0  0  0  0  0  0  0  0
   38.6320   28.6120   37.7660 H   0  0  0  0  0  0  0  0  0  0  0  0
   38.3190   31.9590   38.4150 O   0  0  0  0  0  0  0  0  0  0  0  0
   38.2840   32.7440   40.6240 C   0  0  1  0  0  3  0  0  0  0  0  0
   38.9710   31.8480   39.6150 C   0  0  2  0  0  3  0  0  0  0  0  0
   40.2880   32.6210   39.4680 C   0  0  0  0  0  3  0  0  0  0  0  0
   40.8580   32.3040   38.5810 H   0  0  0  0  0  0  0  0  0  0  0  0
   39.9420   33.9540   39.4840 O   0  0  0  0  0  0  0  0  0  0  0  0
   38.7680   34.1010   40.1780 C   0  0  0  0  0  3  0  0  0  0  0  0
   38.8000   34.8560   40.9810 H   0  0  0  0  0  0  0  0  0  0  0  0
   36.8970   32.6220   40.5970 O   0  0  0  0  0  0  0  0  0  0  0  0
   36.5870   33.1260   41.4130 H   0  0  0  0  0  0  0  0  0  0  0  0
  1  4  1  0  0  0  0
  2  1  1  0  0  0  0
  3  1  1  0  0  0  0
  4  5  1  0  0  0  0
  4  6  1  0  0  0  0
  4  9  1  0  0  0  0
  7 13  1  0  0  0  0
  7 12  1  0  0  0  0
  8  7  2  0  0  0  0
  9  8  1  0  0  0  0
  9 10  2  0  0  0  0
 10 11  1  0  0  0  0
 11 12  2  0  0  0  0
 11 15  1  0  0  0  0
 13 17  1  0  0  0  0
 14  8  1  0  0  0  0
 16 13  1  0  0  0  0
 18  1  1  0  0  0  0
 20 19  2  6  0  0  0
 20 23  1  0  0  0  0
 20 21  1  0  0  0  0
 20 18  1  0  0  0  0
 22 21  1  0  0  0  0
 24 31  1  6  0  0  0
 25 23  1  6  0  0  0
 25 24  1  0  0  0  0
 26 28  1  0  0  0  0
 26 25  1  0  0  0  0
 27 26  1  0  0  0  0
 28 29  1  0  0  0  0
 29 24  1  0  0  0  0
 29 30  1  0  0  0  0
 31 32  1  0  0  0  0
M  END
>  <minimizedAffinity>
-4.77909756

$$$$
