
 OpenBabel03252507543D

 44 47  0  0  1  0  0  0  0  0999 V2000
   46.9780   34.8630   41.9440 C   0  0  2  0  0  0  0  0  0  0  0  0
   46.2180   34.1820   40.8040 C   0  0  0  0  0  0  0  0  0  0  0  0
   47.4030   34.0460   39.8230 C   0  0  0  0  0  0  0  0  0  0  0  0
   48.5850   33.7430   40.6890 C   0  0  1  0  0  0  0  0  0  0  0  0
   48.1090   33.8860   42.1050 C   0  0  0  0  0  0  0  0  0  0  0  0
   47.3540   35.8290   41.5730 H   0  0  0  0  0  0  0  0  0  0  0  0
   45.8740   33.2000   41.1280 H   0  0  0  0  0  0  0  0  0  0  0  0
   45.4620   34.8630   40.4120 H   0  0  0  0  0  0  0  0  0  0  0  0
   47.2080   33.3010   39.0500 H   0  0  0  0  0  0  0  0  0  0  0  0
   47.5100   35.0650   39.3640 H   0  0  0  0  0  0  0  0  0  0  0  0
   49.4410   34.4250   40.4730 H   0  0  0  0  0  0  0  0  0  0  0  0
   47.8000   32.9510   42.5740 H   0  0  0  0  0  0  0  0  0  0  0  0
   48.9300   34.4030   42.6710 H   0  0  0  0  0  0  0  0  0  0  0  0
   44.5110   35.9930   44.5560 C   0  0  0  0  0  0  0  0  0  0  0  0
   45.2190   35.9890   43.3540 C   0  0  0  0  0  0  0  0  0  0  0  0
   46.1420   34.9670   43.1690 C   0  0  0  0  0  0  0  0  0  0  0  0
   46.3340   33.9940   44.1620 N   0  0  0  0  0  0  0  0  0  0  0  0
   45.6140   34.0530   45.3110 C   0  0  0  0  0  0  0  0  0  0  0  0
   44.7100   35.0460   45.5050 N   0  0  0  0  0  0  0  0  0  0  0  0
   43.7910   36.7840   44.7110 H   0  0  0  0  0  0  0  0  0  0  0  0
   45.0870   36.7290   42.5760 H   0  0  0  0  0  0  0  0  0  0  0  0
   45.8440   33.2540   46.0030 H   0  0  0  0  0  0  0  0  0  0  0  0
   49.1320   32.3400   40.5410 C   0  0  2  0  0  0  0  0  0  0  0  0
   49.9810   31.8720   41.6290 C   0  0  0  0  0  0  0  0  0  0  0  0
   50.5490   32.0940   40.2650 C   0  0  1  0  0  0  0  0  0  0  0  0
   48.4050   31.6320   40.1060 H   0  0  0  0  0  0  0  0  0  0  0  0
   50.3520   32.5680   42.4360 H   0  0  0  0  0  0  0  0  0  0  0  0
   49.8540   30.8470   42.0200 H   0  0  0  0  0  0  0  0  0  0  0  0
   51.1780   32.9630   40.0200 H   0  0  0  0  0  0  0  0  0  0  0  0
   50.8690   30.9460   39.5000 O   0  0  0  0  0  0  0  0  0  0  0  0
   51.4130   30.3220   37.0280 O   0  0  0  0  0  0  0  0  0  0  0  0
   51.4780   31.4590   38.0190 P   0  0  1  0  0  0  0  0  0  0  0  0
   50.5120   32.7330   37.4000 O   0  0  0  0  0  0  0  0  0  0  0  0
   49.6580   32.3080   37.1260 H   0  0  0  0  0  0  0  0  0  0  0  0
   53.0410   32.0220   38.0690 O   0  0  0  0  0  0  0  0  0  0  0  0
   53.3940   30.2060   39.6110 C   0  0  1  0  0  0  0  0  0  0  0  0
   53.8870   30.9860   38.3850 C   0  0  1  0  0  0  0  0  0  0  0  0
   53.8930   29.8630   37.3730 C   0  0  0  0  0  0  0  0  0  0  0  0
   52.8380   29.6640   37.0330 H   0  0  0  0  0  0  0  0  0  0  0  0
   54.2860   28.7200   38.0530 O   0  0  0  0  0  0  0  0  0  0  0  0
   54.1860   28.9370   39.4090 C   0  0  0  0  0  0  0  0  0  0  0  0
   53.8300   28.0940   40.0020 H   0  0  0  0  0  0  0  0  0  0  0  0
   53.7430   30.8580   40.7890 O   0  0  0  0  0  0  0  0  0  0  0  0
   52.9370   31.3370   41.1080 H   0  0  0  0  0  0  0  0  0  0  0  0
  1  6  1  6  0  0  0
  1  5  1  0  0  0  0
  1 16  1  0  0  0  0
  2  7  1  0  0  0  0
  2  1  1  0  0  0  0
  3  4  1  0  0  0  0
  3  2  1  0  0  0  0
  4 11  1  6  0  0  0
  4  5  1  0  0  0  0
  5 12  1  0  0  0  0
  5 13  1  0  0  0  0
  8  2  1  0  0  0  0
  9  3  1  0  0  0  0
 10  3  1  0  0  0  0
 14 20  1  0  0  0  0
 14 19  1  0  0  0  0
 15 14  2  0  0  0  0
 16 15  1  0  0  0  0
 16 17  2  0  0  0  0
 17 18  1  0  0  0  0
 18 19  2  0  0  0  0
 18 22  1  0  0  0  0
 21 15  1  0  0  0  0
 23 26  1  6  0  0  0
 23  4  1  0  0  0  0
 23 24  1  0  0  0  0
 24 28  1  0  0  0  0
 24 27  1  0  0  0  0
 25 29  1  6  0  0  0
 25 23  1  0  0  0  0
 25 24  1  0  0  0  0
 30 25  1  0  0  0  0
 32 31  2  6  0  0  0
 32 35  1  0  0  0  0
 32 30  1  0  0  0  0
 33 32  1  0  0  0  0
 34 33  1  0  0  0  0
 36 43  1  1  0  0  0
 37 35  1  6  0  0  0
 37 36  1  0  0  0  0
 38 40  1  0  0  0  0
 38 37  1  0  0  0  0
 39 38  1  0  0  0  0
 40 41  1  0  0  0  0
 41 36  1  0  0  0  0
 41 42  1  0  0  0  0
 43 44  1  0  0  0  0
M  END
>  <minimizedAffinity>
-5.34570312

>  <minimizedRMSD>
0.697369099

$$$$
