
 OpenBabel03252507543D

 44 47  0  0  1  0  0  0  0  0999 V2000
   47.0960   34.8080   42.1160 C   0  0  2  0  0  0  0  0  0  0  0  0
   46.3090   34.3460   40.8890 C   0  0  0  0  0  0  0  0  0  0  0  0
   47.5080   34.1880   39.9280 C   0  0  0  0  0  0  0  0  0  0  0  0
   48.6180   33.6620   40.7820 C   0  0  1  0  0  0  0  0  0  0  0  0
   48.1090   33.7000   42.1930 C   0  0  0  0  0  0  0  0  0  0  0  0
   47.5860   35.7620   41.8670 H   0  0  0  0  0  0  0  0  0  0  0  0
   45.8500   33.3790   41.0910 H   0  0  0  0  0  0  0  0  0  0  0  0
   45.6450   35.1450   40.5590 H   0  0  0  0  0  0  0  0  0  0  0  0
   47.2620   33.5580   39.0710 H   0  0  0  0  0  0  0  0  0  0  0  0
   47.7410   35.2330   39.5900 H   0  0  0  0  0  0  0  0  0  0  0  0
   49.5490   34.2640   40.6660 H   0  0  0  0  0  0  0  0  0  0  0  0
   47.6850   32.7600   42.5460 H   0  0  0  0  0  0  0  0  0  0  0  0
   48.9600   34.0580   42.8340 H   0  0  0  0  0  0  0  0  0  0  0  0
   44.5280   35.8120   44.6820 C   0  0  0  0  0  0  0  0  0  0  0  0
   45.2590   35.8460   43.4940 C   0  0  0  0  0  0  0  0  0  0  0  0
   46.2320   34.8700   43.3260 C   0  0  0  0  0  0  0  0  0  0  0  0
   46.4500   33.9030   44.3200 N   0  0  0  0  0  0  0  0  0  0  0  0
   45.7050   33.9250   45.4540 C   0  0  0  0  0  0  0  0  0  0  0  0
   44.7510   34.8730   45.6320 N   0  0  0  0  0  0  0  0  0  0  0  0
   43.7670   36.5680   44.8240 H   0  0  0  0  0  0  0  0  0  0  0  0
   45.1060   36.5810   42.7150 H   0  0  0  0  0  0  0  0  0  0  0  0
   45.9590   33.1350   46.1490 H   0  0  0  0  0  0  0  0  0  0  0  0
   49.0160   32.2320   40.4890 C   0  0  2  0  0  0  0  0  0  0  0  0
   49.8190   31.5750   41.5120 C   0  0  0  0  0  0  0  0  0  0  0  0
   50.3980   31.8710   40.1680 C   0  0  1  0  0  0  0  0  0  0  0  0
   48.2170   31.6490   39.9990 H   0  0  0  0  0  0  0  0  0  0  0  0
   50.2640   32.1460   42.3780 H   0  0  0  0  0  0  0  0  0  0  0  0
   49.5880   30.5350   41.8040 H   0  0  0  0  0  0  0  0  0  0  0  0
   51.1130   32.6910   39.9990 H   0  0  0  0  0  0  0  0  0  0  0  0
   50.5940   30.7770   39.2900 O   0  0  0  0  0  0  0  0  0  0  0  0
   51.1410   30.3440   36.7780 O   0  0  0  0  0  0  0  0  0  0  0  0
   51.3100   31.3590   37.8830 P   0  0  1  0  0  0  0  0  0  0  0  0
   50.5240   32.7980   37.3810 O   0  0  0  0  0  0  0  0  0  0  0  0
   49.6350   32.5110   37.0470 H   0  0  0  0  0  0  0  0  0  0  0  0
   52.9260   31.7180   38.0250 O   0  0  0  0  0  0  0  0  0  0  0  0
   55.0300   30.6330   37.5850 C   0  0  1  0  0  3  0  0  0  0  0  0
   53.6340   30.5550   38.2160 C   0  0  1  0  0  3  0  0  0  0  0  0
   54.0330   30.3040   39.6510 C   0  0  0  0  0  3  0  0  0  0  0  0
   54.3750   31.2710   40.1170 H   0  0  0  0  0  0  0  0  0  0  0  0
   55.1570   29.4920   39.6130 O   0  0  0  0  0  0  0  0  0  0  0  0
   55.6870   29.5030   38.3420 C   0  0  0  0  0  3  0  0  0  0  0  0
   56.7750   29.5020   38.2790 H   0  0  0  0  0  0  0  0  0  0  0  0
   54.9730   30.3790   36.2180 O   0  0  0  0  0  0  0  0  0  0  0  0
   55.0130   31.2550   35.7570 H   0  0  0  0  0  0  0  0  0  0  0  0
  1  6  1  6  0  0  0
  1  5  1  0  0  0  0
  1 16  1  0  0  0  0
  2  7  1  0  0  0  0
  2  1  1  0  0  0  0
  3  4  1  0  0  0  0
  3  2  1  0  0  0  0
  4 11  1  6  0  0  0
  4  5  1  0  0  0  0
  5 12  1  0  0  0  0
  5 13  1  0  0  0  0
  8  2  1  0  0  0  0
  9  3  1  0  0  0  0
 10  3  1  0  0  0  0
 14 20  1  0  0  0  0
 14 19  1  0  0  0  0
 15 14  2  0  0  0  0
 16 15  1  0  0  0  0
 16 17  2  0  0  0  0
 17 18  1  0  0  0  0
 18 19  2  0  0  0  0
 18 22  1  0  0  0  0
 21 15  1  0  0  0  0
 23 26  1  6  0  0  0
 23  4  1  0  0  0  0
 23 24  1  0  0  0  0
 24 28  1  0  0  0  0
 24 27  1  0  0  0  0
 25 29  1  6  0  0  0
 25 23  1  0  0  0  0
 25 24  1  0  0  0  0
 30 25  1  0  0  0  0
 32 31  2  6  0  0  0
 32 35  1  0  0  0  0
 32 30  1  0  0  0  0
 33 32  1  0  0  0  0
 34 33  1  0  0  0  0
 36 43  1  6  0  0  0
 36 37  1  0  0  0  0
 36 41  1  0  0  0  0
 37 35  1  1  0  0  0
 37 38  1  0  0  0  0
 38 39  1  0  0  0  0
 40 38  1  0  0  0  0
 41 40  1  0  0  0  0
 42 41  1  0  0  0  0
 44 43  1  0  0  0  0
M  END
>  <minimizedAffinity>
-5.34388351

>  <minimizedRMSD>
1.08932102

$$$$
