
 OpenBabel03242514563D

 19 20  0  0  1  0  0  0  0  0999 V2000
   37.6720   28.8960   43.2920 S   0  0  0  0  0  0  0  0  0  0  0  0
   38.1840   27.1930   43.0420 C   0  0  0  0  0  0  0  0  0  0  0  0
   39.3870   26.8700   43.6690 C   0  0  0  0  0  0  0  0  0  0  0  0
   39.8920   25.5520   43.5400 C   0  0  0  0  0  0  0  0  0  0  0  0
   39.1460   24.6850   42.7980 N   0  0  0  0  0  0  0  0  0  0  0  0
   37.9900   25.0320   42.2090 C   0  0  0  0  0  0  0  0  0  0  0  0
   37.5050   26.2810   42.3260 N   0  0  0  0  0  0  0  0  0  0  0  0
   39.9870   27.5500   44.2550 H   0  0  0  0  0  0  0  0  0  0  0  0
   40.8290   25.2830   44.0210 H   0  0  0  0  0  0  0  0  0  0  0  0
   37.4200   24.3120   41.6250 H   0  0  0  0  0  0  0  0  0  0  0  0
   36.4640   29.9090   41.0050 C   0  0  2  0  0  3  0  0  0  0  0  0
   37.7620   29.8440   41.7780 C   0  0  2  0  0  3  0  0  0  0  0  0
   38.6400   29.1900   40.7040 C   0  0  0  0  0  3  0  0  0  0  0  0
   38.4180   28.0990   40.7330 H   0  0  0  0  0  0  0  0  0  0  0  0
   38.2480   29.7240   39.5070 O   0  0  0  0  0  0  0  0  0  0  0  0
   37.0030   30.3040   39.6270 C   0  0  0  0  0  3  0  0  0  0  0  0
   37.0830   31.4230   39.6530 H   0  0  0  0  0  0  0  0  0  0  0  0
   35.6180   30.8970   41.5030 O   0  0  0  0  0  0  0  0  0  0  0  0
   34.7230   30.8530   41.0900 H   0  0  0  0  0  0  0  0  0  0  0  0
  2  1  1  0  0  0  0
  2  3  1  0  0  0  0
  3  8  1  0  0  0  0
  4  3  2  0  0  0  0
  4  9  1  0  0  0  0
  5  4  1  0  0  0  0
  6  7  1  0  0  0  0
  6  5  2  0  0  0  0
  7  2  2  0  0  0  0
 10  6  1  0  0  0  0
 11 18  1  1  0  0  0
 11 12  1  0  0  0  0
 12  1  1  1  0  0  0
 13 14  1  0  0  0  0
 13 12  1  0  0  0  0
 15 16  1  0  0  0  0
 15 13  1  0  0  0  0
 16 17  1  0  0  0  0
 16 11  1  0  0  0  0
 19 18  1  0  0  0  0
M  END
>  <minimizedAffinity>
-4.2626214

$$$$

 OpenBabel03242514563D

 19 20  0  0  1  0  0  0  0  0999 V2000
   36.4760   30.5570   40.8540 S   0  0  0  0  0  0  0  0  0  0  0  0
   36.9590   29.0830   41.7590 C   0  0  0  0  0  0  0  0  0  0  0  0
   36.7730   27.9000   41.0460 C   0  0  0  0  0  0  0  0  0  0  0  0
   37.1180   26.6700   41.6620 C   0  0  0  0  0  0  0  0  0  0  0  0
   37.6160   26.7430   42.9280 N   0  0  0  0  0  0  0  0  0  0  0  0
   37.7830   27.9040   43.5840 C   0  0  0  0  0  0  0  0  0  0  0  0
   37.4570   29.0740   43.0070 N   0  0  0  0  0  0  0  0  0  0  0  0
   36.3750   27.8310   40.0440 H   0  0  0  0  0  0  0  0  0  0  0  0
   36.9780   25.7370   41.1210 H   0  0  0  0  0  0  0  0  0  0  0  0
   38.1850   27.9240   44.5950 H   0  0  0  0  0  0  0  0  0  0  0  0
   37.7360   32.6850   39.5880 C   0  0  2  0  0  3  0  0  0  0  0  0
   37.8030   31.7530   40.7770 C   0  0  2  0  0  3  0  0  0  0  0  0
   39.1730   31.1230   40.5000 C   0  0  0  0  0  3  0  0  0  0  0  0
   39.0110   30.3350   39.7290 H   0  0  0  0  0  0  0  0  0  0  0  0
   39.9650   32.1210   40.0010 O   0  0  0  0  0  0  0  0  0  0  0  0
   39.1880   33.1680   39.5540 C   0  0  0  0  0  3  0  0  0  0  0  0
   39.2270   34.0310   40.2710 H   0  0  0  0  0  0  0  0  0  0  0  0
   36.8690   33.7500   39.8180 O   0  0  0  0  0  0  0  0  0  0  0  0
   36.7200   34.2820   39.0010 H   0  0  0  0  0  0  0  0  0  0  0  0
  1  2  1  0  0  0  0
  2  7  1  0  0  0  0
  3  4  1  0  0  0  0
  3  2  2  0  0  0  0
  4  5  2  0  0  0  0
  5  6  1  0  0  0  0
  6 10  1  0  0  0  0
  7  6  2  0  0  0  0
  8  3  1  0  0  0  0
  9  4  1  0  0  0  0
 11 18  1  1  0  0  0
 11 12  1  0  0  0  0
 12  1  1  6  0  0  0
 13 12  1  0  0  0  0
 14 13  1  0  0  0  0
 15 13  1  0  0  0  0
 16 11  1  0  0  0  0
 16 15  1  0  0  0  0
 16 17  1  0  0  0  0
 19 18  1  0  0  0  0
M  END
>  <minimizedAffinity>
-4.07771015

$$$$

 OpenBabel03242514563D

 19 20  0  0  1  0  0  0  0  0999 V2000
   39.8330   30.7650   42.1170 S   0  0  0  0  0  0  0  0  0  0  0  0
   38.7960   31.7980   41.0760 C   0  0  0  0  0  0  0  0  0  0  0  0
   39.2400   33.1150   40.9700 C   0  0  0  0  0  0  0  0  0  0  0  0
   38.4980   34.0240   40.1750 C   0  0  0  0  0  0  0  0  0  0  0  0
   37.3850   33.5280   39.5630 N   0  0  0  0  0  0  0  0  0  0  0  0
   36.9880   32.2510   39.6880 C   0  0  0  0  0  0  0  0  0  0  0  0
   37.6860   31.3830   40.4410 N   0  0  0  0  0  0  0  0  0  0  0  0
   40.1170   33.5180   41.4550 H   0  0  0  0  0  0  0  0  0  0  0  0
   38.8290   35.0550   40.0820 H   0  0  0  0  0  0  0  0  0  0  0  0
   36.0950   31.8900   39.1820 H   0  0  0  0  0  0  0  0  0  0  0  0
   38.0010   29.0880   43.3630 C   0  0  2  0  0  3  0  0  0  0  0  0
   39.1270   29.1390   42.3530 C   0  0  2  0  0  3  0  0  0  0  0  0
   40.0880   28.1530   43.0280 C   0  0  0  0  0  3  0  0  0  0  0  0
   40.6110   28.7180   43.8320 H   0  0  0  0  0  0  0  0  0  0  0  0
   39.3120   27.1650   43.5680 O   0  0  0  0  0  0  0  0  0  0  0  0
   38.0050   27.5900   43.6790 C   0  0  0  0  0  3  0  0  0  0  0  0
   37.3620   27.1220   42.8870 H   0  0  0  0  0  0  0  0  0  0  0  0
   36.7870   29.4680   42.7970 O   0  0  0  0  0  0  0  0  0  0  0  0
   36.0810   29.5650   43.4800 H   0  0  0  0  0  0  0  0  0  0  0  0
  2  1  1  0  0  0  0
  3  2  1  0  0  0  0
  3  8  1  0  0  0  0
  4  3  2  0  0  0  0
  5  6  2  0  0  0  0
  5  4  1  0  0  0  0
  6  7  1  0  0  0  0
  7  2  2  0  0  0  0
  9  4  1  0  0  0  0
 10  6  1  0  0  0  0
 11 18  1  6  0  0  0
 11 16  1  0  0  0  0
 12  1  1  1  0  0  0
 12 13  1  0  0  0  0
 12 11  1  0  0  0  0
 13 15  1  0  0  0  0
 13 14  1  0  0  0  0
 15 16  1  0  0  0  0
 17 16  1  0  0  0  0
 18 19  1  0  0  0  0
M  END
>  <minimizedAffinity>
-4.05287266

$$$$

 OpenBabel03242514563D

 19 20  0  0  1  0  0  0  0  0999 V2000
   39.4980   30.3240   40.9710 S   0  0  0  0  0  0  0  0  0  0  0  0
   38.2630   29.2720   41.7410 C   0  0  0  0  0  0  0  0  0  0  0  0
   38.6570   28.7540   42.9740 C   0  0  0  0  0  0  0  0  0  0  0  0
   37.7630   27.9060   43.6750 C   0  0  0  0  0  0  0  0  0  0  0  0
   36.5630   27.6600   43.0770 N   0  0  0  0  0  0  0  0  0  0  0  0
   36.2180   28.1790   41.8860 C   0  0  0  0  0  0  0  0  0  0  0  0
   37.0610   28.9830   41.2150 N   0  0  0  0  0  0  0  0  0  0  0  0
   39.6070   28.9390   43.4540 H   0  0  0  0  0  0  0  0  0  0  0  0
   38.0540   27.4920   44.6370 H   0  0  0  0  0  0  0  0  0  0  0  0
   35.2500   27.9620   41.4400 H   0  0  0  0  0  0  0  0  0  0  0  0
   37.9080   32.4360   40.1170 C   0  0  2  0  0  3  0  0  0  0  0  0
   39.0390   32.0510   41.0450 C   0  0  2  0  0  3  0  0  0  0  0  0
   40.1190   32.9900   40.4950 C   0  0  0  0  0  3  0  0  0  0  0  0
   40.5300   32.5030   39.5830 H   0  0  0  0  0  0  0  0  0  0  0  0
   39.4860   34.1580   40.1670 O   0  0  0  0  0  0  0  0  0  0  0  0
   38.1290   33.9500   40.0540 C   0  0  0  0  0  3  0  0  0  0  0  0
   37.5840   34.3630   40.9450 H   0  0  0  0  0  0  0  0  0  0  0  0
   36.6650   32.1430   40.6730 O   0  0  0  0  0  0  0  0  0  0  0  0
   35.9360   32.2680   40.0210 H   0  0  0  0  0  0  0  0  0  0  0  0
  1  2  1  0  0  0  0
  2  3  1  0  0  0  0
  3  8  1  0  0  0  0
  3  4  2  0  0  0  0
  4  9  1  0  0  0  0
  5  4  1  0  0  0  0
  6  5  2  0  0  0  0
  7  2  2  0  0  0  0
  7  6  1  0  0  0  0
 10  6  1  0  0  0  0
 11 18  1  1  0  0  0
 11 12  1  0  0  0  0
 12  1  1  6  0  0  0
 13 12  1  0  0  0  0
 14 13  1  0  0  0  0
 15 13  1  0  0  0  0
 16 11  1  0  0  0  0
 16 15  1  0  0  0  0
 16 17  1  0  0  0  0
 19 18  1  0  0  0  0
M  END
>  <minimizedAffinity>
-4.0395565

$$$$

 OpenBabel03242514563D

 19 20  0  0  1  0  0  0  0  0999 V2000
   36.9230   30.7690   38.2090 S   0  0  0  0  0  0  0  0  0  0  0  0
   37.8680   32.1010   38.9550 C   0  0  0  0  0  0  0  0  0  0  0  0
   39.2490   31.9370   38.8520 C   0  0  0  0  0  0  0  0  0  0  0  0
   40.0970   32.9270   39.4080 C   0  0  0  0  0  0  0  0  0  0  0  0
   39.4840   33.9830   40.0130 N   0  0  0  0  0  0  0  0  0  0  0  0
   38.1490   34.1080   40.0930 C   0  0  0  0  0  0  0  0  0  0  0  0
   37.3380   33.1730   39.5680 N   0  0  0  0  0  0  0  0  0  0  0  0
   39.7440   31.1020   38.3780 H   0  0  0  0  0  0  0  0  0  0  0  0
   41.1770   32.8150   39.3370 H   0  0  0  0  0  0  0  0  0  0  0  0
   37.6950   34.9670   40.5820 H   0  0  0  0  0  0  0  0  0  0  0  0
   36.5560   30.0540   40.8680 C   0  0  2  0  0  3  0  0  0  0  0  0
   36.2650   29.6510   39.4400 C   0  0  2  0  0  3  0  0  0  0  0  0
   36.9500   28.2800   39.4410 C   0  0  0  0  0  3  0  0  0  0  0  0
   38.0390   28.4680   39.3020 H   0  0  0  0  0  0  0  0  0  0  0  0
   36.7150   27.7310   40.6730 O   0  0  0  0  0  0  0  0  0  0  0  0
   36.3360   28.7090   41.5670 C   0  0  0  0  0  3  0  0  0  0  0  0
   35.2320   28.6620   41.7690 H   0  0  0  0  0  0  0  0  0  0  0  0
   35.6460   31.0030   41.3300 O   0  0  0  0  0  0  0  0  0  0  0  0
   35.9120   31.3650   42.2080 H   0  0  0  0  0  0  0  0  0  0  0  0
  1  2  1  0  0  0  0
  2  7  1  0  0  0  0
  3  2  2  0  0  0  0
  3  4  1  0  0  0  0
  4  5  2  0  0  0  0
  5  6  1  0  0  0  0
  6 10  1  0  0  0  0
  7  6  2  0  0  0  0
  8  3  1  0  0  0  0
  9  4  1  0  0  0  0
 11 18  1  1  0  0  0
 11 16  1  0  0  0  0
 12  1  1  6  0  0  0
 12 13  1  0  0  0  0
 12 11  1  0  0  0  0
 13 15  1  0  0  0  0
 14 13  1  0  0  0  0
 15 16  1  0  0  0  0
 16 17  1  0  0  0  0
 18 19  1  0  0  0  0
M  END
>  <minimizedAffinity>
-3.94736814

$$$$

 OpenBabel03242514563D

 19 20  0  0  1  0  0  0  0  0999 V2000
   37.4790   28.2300   40.5230 S   0  0  0  0  0  0  0  0  0  0  0  0
   38.3830   27.1580   41.6470 C   0  0  0  0  0  0  0  0  0  0  0  0
   38.9600   27.8310   42.7230 C   0  0  0  0  0  0  0  0  0  0  0  0
   39.7010   27.0870   43.6750 C   0  0  0  0  0  0  0  0  0  0  0  0
   39.7920   25.7450   43.4600 N   0  0  0  0  0  0  0  0  0  0  0  0
   39.2210   25.1300   42.4100 C   0  0  0  0  0  0  0  0  0  0  0  0
   38.5180   25.8290   41.5030 N   0  0  0  0  0  0  0  0  0  0  0  0
   38.8960   28.8950   42.8990 H   0  0  0  0  0  0  0  0  0  0  0  0
   40.1580   27.5960   44.5200 H   0  0  0  0  0  0  0  0  0  0  0  0
   39.3140   24.0550   42.2720 H   0  0  0  0  0  0  0  0  0  0  0  0
   36.6590   30.8820   40.4420 C   0  0  2  0  0  3  0  0  0  0  0  0
   37.7760   29.9580   40.8720 C   0  0  2  0  0  3  0  0  0  0  0  0
   38.9100   30.5600   40.0330 C   0  0  0  0  0  3  0  0  0  0  0  0
   38.7950   30.1520   39.0040 H   0  0  0  0  0  0  0  0  0  0  0  0
   38.7150   31.9140   40.0330 O   0  0  0  0  0  0  0  0  0  0  0  0
   37.4210   32.2100   40.4040 C   0  0  0  0  0  3  0  0  0  0  0  0
   37.3840   32.5990   41.4560 H   0  0  0  0  0  0  0  0  0  0  0  0
   35.6380   30.9280   41.3880 O   0  0  0  0  0  0  0  0  0  0  0  0
   34.8520   31.4210   41.0530 H   0  0  0  0  0  0  0  0  0  0  0  0
  1  2  1  0  0  0  0
  2  3  1  0  0  0  0
  3  8  1  0  0  0  0
  3  4  2  0  0  0  0
  4  9  1  0  0  0  0
  5  4  1  0  0  0  0
  6  5  2  0  0  0  0
  7  2  2  0  0  0  0
  7  6  1  0  0  0  0
 10  6  1  0  0  0  0
 11 12  1  0  0  0  0
 11 18  1  1  0  0  0
 12  1  1  6  0  0  0
 13 12  1  0  0  0  0
 14 13  1  0  0  0  0
 15 13  1  0  0  0  0
 15 16  1  0  0  0  0
 16 11  1  0  0  0  0
 16 17  1  0  0  0  0
 19 18  1  0  0  0  0
M  END
>  <minimizedAffinity>
-3.89134502

$$$$

 OpenBabel03242514563D

 19 20  0  0  1  0  0  0  0  0999 V2000
   37.9710   28.8490   39.7790 S   0  0  0  0  0  0  0  0  0  0  0  0
   38.0210   30.6340   39.9650 C   0  0  0  0  0  0  0  0  0  0  0  0
   37.1980   31.3150   39.0690 C   0  0  0  0  0  0  0  0  0  0  0  0
   37.1580   32.7310   39.1210 C   0  0  0  0  0  0  0  0  0  0  0  0
   37.9420   33.3280   40.0630 N   0  0  0  0  0  0  0  0  0  0  0  0
   38.7220   32.6380   40.9110 C   0  0  0  0  0  0  0  0  0  0  0  0
   38.7670   31.2950   40.8670 N   0  0  0  0  0  0  0  0  0  0  0  0
   36.5770   30.8520   38.3170 H   0  0  0  0  0  0  0  0  0  0  0  0
   36.5220   33.2790   38.4290 H   0  0  0  0  0  0  0  0  0  0  0  0
   39.3340   33.1490   41.6510 H   0  0  0  0  0  0  0  0  0  0  0  0
   37.4300   28.4480   42.4750 C   0  0  2  0  0  3  0  0  0  0  0  0
   37.0080   28.0740   41.0710 C   0  0  2  0  0  3  0  0  0  0  0  0
   37.2220   26.5580   41.1610 C   0  0  0  0  0  3  0  0  0  0  0  0
   38.3120   26.3820   41.0190 H   0  0  0  0  0  0  0  0  0  0  0  0
   36.8410   26.1870   42.4220 O   0  0  0  0  0  0  0  0  0  0  0  0
   36.8030   27.2870   43.2520 C   0  0  0  0  0  3  0  0  0  0  0  0
   35.7440   27.6040   43.4490 H   0  0  0  0  0  0  0  0  0  0  0  0
   36.8740   29.6620   42.8710 O   0  0  0  0  0  0  0  0  0  0  0  0
   37.2520   29.9720   43.7280 H   0  0  0  0  0  0  0  0  0  0  0  0
  1  2  1  0  0  0  0
  2  7  1  0  0  0  0
  3  4  1  0  0  0  0
  3  2  2  0  0  0  0
  4  5  2  0  0  0  0
  5  6  1  0  0  0  0
  6 10  1  0  0  0  0
  7  6  2  0  0  0  0
  8  3  1  0  0  0  0
  9  4  1  0  0  0  0
 11 18  1  1  0  0  0
 11 16  1  0  0  0  0
 12  1  1  6  0  0  0
 12 13  1  0  0  0  0
 12 11  1  0  0  0  0
 13 15  1  0  0  0  0
 14 13  1  0  0  0  0
 15 16  1  0  0  0  0
 16 17  1  0  0  0  0
 18 19  1  0  0  0  0
M  END
>  <minimizedAffinity>
-3.84313631

$$$$

 OpenBabel03242514563D

 19 20  0  0  1  0  0  0  0  0999 V2000
   35.9100   28.5710   40.4230 S   0  0  0  0  0  0  0  0  0  0  0  0
   36.5400   30.1860   39.9520 C   0  0  0  0  0  0  0  0  0  0  0  0
   36.7800   30.3190   38.5850 C   0  0  0  0  0  0  0  0  0  0  0  0
   37.2810   31.5510   38.0970 C   0  0  0  0  0  0  0  0  0  0  0  0
   37.4930   32.5310   39.0210 N   0  0  0  0  0  0  0  0  0  0  0  0
   37.2490   32.3660   40.3320 C   0  0  0  0  0  0  0  0  0  0  0  0
   36.7750   31.2000   40.8020 N   0  0  0  0  0  0  0  0  0  0  0  0
   36.6190   29.5480   37.8460 H   0  0  0  0  0  0  0  0  0  0  0  0
   37.4750   31.6720   37.0330 H   0  0  0  0  0  0  0  0  0  0  0  0
   37.4290   33.1720   41.0410 H   0  0  0  0  0  0  0  0  0  0  0  0
   37.0790   28.1890   42.9140 C   0  0  2  0  0  3  0  0  0  0  0  0
   37.0540   27.6970   41.4850 C   0  0  2  0  0  3  0  0  0  0  0  0
   38.5240   27.9460   41.1280 C   0  0  0  0  0  3  0  0  0  0  0  0
   38.6140   29.0300   40.8890 H   0  0  0  0  0  0  0  0  0  0  0  0
   39.2500   27.6440   42.2470 O   0  0  0  0  0  0  0  0  0  0  0  0
   38.4340   27.6300   43.3570 C   0  0  0  0  0  3  0  0  0  0  0  0
   38.2220   26.5780   43.6870 H   0  0  0  0  0  0  0  0  0  0  0  0
   36.0470   27.6330   43.6670 O   0  0  0  0  0  0  0  0  0  0  0  0
   35.9800   28.0520   44.5580 H   0  0  0  0  0  0  0  0  0  0  0  0
  2  1  1  0  0  0  0
  2  7  1  0  0  0  0
  3  2  2  0  0  0  0
  4  3  1  0  0  0  0
  4  5  2  0  0  0  0
  5  6  1  0  0  0  0
  6  7  2  0  0  0  0
  6 10  1  0  0  0  0
  8  3  1  0  0  0  0
  9  4  1  0  0  0  0
 11 16  1  0  0  0  0
 11 18  1  1  0  0  0
 12  1  1  6  0  0  0
 12 11  1  0  0  0  0
 13 12  1  0  0  0  0
 13 15  1  0  0  0  0
 14 13  1  0  0  0  0
 15 16  1  0  0  0  0
 16 17  1  0  0  0  0
 18 19  1  0  0  0  0
M  END
>  <minimizedAffinity>
-3.83081651

$$$$

 OpenBabel03242514563D

 19 20  0  0  1  0  0  0  0  0999 V2000
   36.4610   28.3620   39.4630 S   0  0  0  0  0  0  0  0  0  0  0  0
   36.7080   26.8340   40.3740 C   0  0  0  0  0  0  0  0  0  0  0  0
   36.5010   25.6850   39.6130 C   0  0  0  0  0  0  0  0  0  0  0  0
   36.6650   24.4190   40.2280 C   0  0  0  0  0  0  0  0  0  0  0  0
   37.0220   24.4240   41.5440 N   0  0  0  0  0  0  0  0  0  0  0  0
   37.2140   25.5540   42.2460 C   0  0  0  0  0  0  0  0  0  0  0  0
   37.0590   26.7580   41.6690 N   0  0  0  0  0  0  0  0  0  0  0  0
   36.2140   25.6710   38.5710 H   0  0  0  0  0  0  0  0  0  0  0  0
   36.5070   23.5120   39.6490 H   0  0  0  0  0  0  0  0  0  0  0  0
   37.5000   25.5190   43.2950 H   0  0  0  0  0  0  0  0  0  0  0  0
   36.4650   31.0070   40.3130 C   0  0  2  0  0  3  0  0  0  0  0  0
   37.2900   29.7410   40.2420 C   0  0  2  0  0  3  0  0  0  0  0  0
   38.4700   30.2800   39.4240 C   0  0  0  0  0  3  0  0  0  0  0  0
   38.1450   30.2810   38.3590 H   0  0  0  0  0  0  0  0  0  0  0  0
   38.6880   31.5600   39.8560 O   0  0  0  0  0  0  0  0  0  0  0  0
   37.5810   32.0330   40.5260 C   0  0  0  0  0  3  0  0  0  0  0  0
   37.7580   32.0460   41.6350 H   0  0  0  0  0  0  0  0  0  0  0  0
   35.5950   30.9920   41.4000 O   0  0  0  0  0  0  0  0  0  0  0  0
   34.9650   31.7510   41.3730 H   0  0  0  0  0  0  0  0  0  0  0  0
  1  2  1  0  0  0  0
  2  7  1  0  0  0  0
  3  4  1  0  0  0  0
  3  2  2  0  0  0  0
  4  5  2  0  0  0  0
  5  6  1  0  0  0  0
  6 10  1  0  0  0  0
  7  6  2  0  0  0  0
  8  3  1  0  0  0  0
  9  4  1  0  0  0  0
 11 16  1  0  0  0  0
 11 18  1  1  0  0  0
 12  1  1  6  0  0  0
 12 11  1  0  0  0  0
 13 15  1  0  0  0  0
 13 12  1  0  0  0  0
 14 13  1  0  0  0  0
 15 16  1  0  0  0  0
 16 17  1  0  0  0  0
 19 18  1  0  0  0  0
M  END
>  <minimizedAffinity>
-3.82227087

$$$$
