
 OpenBabel03252504273D

 22 23  0  0  1  0  0  0  0  0999 V2000
   36.8310   27.9400   42.8150 C   0  0  0  0  0  0  0  0  0  0  0  0
   36.1600   27.7150   41.9550 H   0  0  0  0  0  0  0  0  0  0  0  0
   36.1300   27.9000   43.6990 H   0  0  0  0  0  0  0  0  0  0  0  0
   37.6170   25.7200   42.2860 C   0  0  0  0  0  0  0  0  0  0  0  0
   37.8600   26.9050   42.9540 C   0  0  0  0  0  0  0  0  0  0  0  0
   39.0340   26.9950   43.6770 C   0  0  0  0  0  0  0  0  0  0  0  0
   39.8540   25.9280   43.6800 N   0  0  0  0  0  0  0  0  0  0  0  0
   39.6010   24.7810   43.0240 C   0  0  0  0  0  0  0  0  0  0  0  0
   38.4470   24.6290   42.2860 N   0  0  0  0  0  0  0  0  0  0  0  0
   36.7330   25.5320   41.6890 H   0  0  0  0  0  0  0  0  0  0  0  0
   39.2090   27.9190   44.1890 H   0  0  0  0  0  0  0  0  0  0  0  0
   40.3250   24.0020   43.1010 H   0  0  0  0  0  0  0  0  0  0  0  0
   37.3500   29.2180   42.6490 O   0  0  0  0  0  0  0  0  0  0  0  0
   36.0790   29.9470   40.7270 C   0  0  2  0  0  3  0  0  0  0  0  0
   37.4230   29.4910   41.3120 C   0  0  1  0  0  3  0  0  0  0  0  0
   38.2330   30.7160   40.9790 C   0  0  0  0  0  3  0  0  0  0  0  0
   37.9500   31.5290   41.7050 H   0  0  0  0  0  0  0  0  0  0  0  0
   37.8110   31.1510   39.7310 O   0  0  0  0  0  0  0  0  0  0  0  0
   36.6270   30.5280   39.4190 C   0  0  0  0  0  3  0  0  0  0  0  0
   36.8850   29.6450   38.7640 H   0  0  0  0  0  0  0  0  0  0  0  0
   35.5690   31.0060   41.4730 O   0  0  0  0  0  0  0  0  0  0  0  0
   35.5390   31.8550   40.9330 H   0  0  0  0  0  0  0  0  0  0  0  0
  1  5  1  0  0  0  0
  1  3  1  0  0  0  0
  2  1  1  0  0  0  0
  4  5  1  0  0  0  0
  5  6  2  0  0  0  0
  6  7  1  0  0  0  0
  6 11  1  0  0  0  0
  8 12  1  0  0  0  0
  8  7  2  0  0  0  0
  9  4  2  0  0  0  0
  9  8  1  0  0  0  0
 10  4  1  0  0  0  0
 13  1  1  0  0  0  0
 14 15  1  0  0  0  0
 14 21  1  1  0  0  0
 15 13  1  1  0  0  0
 16 15  1  0  0  0  0
 16 17  1  0  0  0  0
 18 16  1  0  0  0  0
 19 18  1  0  0  0  0
 19 14  1  0  0  0  0
 20 19  1  0  0  0  0
 22 21  1  0  0  0  0
M  END
>  <minimizedAffinity>
-4.44224167

$$$$

 OpenBabel03252504273D

 22 23  0  0  1  0  0  0  0  0999 V2000
   36.7380   27.8160   42.6040 C   0  0  0  0  0  0  0  0  0  0  0  0
   36.0150   27.6110   41.7810 H   0  0  0  0  0  0  0  0  0  0  0  0
   36.0780   27.8390   43.5200 H   0  0  0  0  0  0  0  0  0  0  0  0
   38.8510   27.0130   43.4490 C   0  0  0  0  0  0  0  0  0  0  0  0
   37.7110   26.7260   42.7230 C   0  0  0  0  0  0  0  0  0  0  0  0
   37.6010   25.4550   42.1920 C   0  0  0  0  0  0  0  0  0  0  0  0
   38.6090   24.5920   42.4160 N   0  0  0  0  0  0  0  0  0  0  0  0
   39.7130   24.8890   43.1240 C   0  0  0  0  0  0  0  0  0  0  0  0
   39.8810   26.1380   43.6790 N   0  0  0  0  0  0  0  0  0  0  0  0
   39.0490   27.9720   43.9130 H   0  0  0  0  0  0  0  0  0  0  0  0
   36.7120   25.2480   41.6330 H   0  0  0  0  0  0  0  0  0  0  0  0
   40.4460   24.1220   43.2330 H   0  0  0  0  0  0  0  0  0  0  0  0
   37.3220   29.0570   42.3800 O   0  0  0  0  0  0  0  0  0  0  0  0
   35.9530   29.9750   40.6130 C   0  0  2  0  0  3  0  0  0  0  0  0
   37.2770   29.3270   41.0410 C   0  0  1  0  0  3  0  0  0  0  0  0
   38.2090   30.4280   40.6060 C   0  0  0  0  0  3  0  0  0  0  0  0
   38.1300   31.2670   41.3530 H   0  0  0  0  0  0  0  0  0  0  0  0
   37.7100   30.9290   39.4120 O   0  0  0  0  0  0  0  0  0  0  0  0
   36.4210   30.4820   39.2450 C   0  0  0  0  0  3  0  0  0  0  0  0
   36.4740   29.5770   38.5710 H   0  0  0  0  0  0  0  0  0  0  0  0
   35.6880   31.0890   41.4040 O   0  0  0  0  0  0  0  0  0  0  0  0
   35.7170   31.9380   40.8640 H   0  0  0  0  0  0  0  0  0  0  0  0
  1  5  1  0  0  0  0
  1  3  1  0  0  0  0
  2  1  1  0  0  0  0
  4  9  1  0  0  0  0
  4 10  1  0  0  0  0
  5  4  2  0  0  0  0
  6  7  2  0  0  0  0
  6  5  1  0  0  0  0
  7  8  1  0  0  0  0
  8 12  1  0  0  0  0
  8  9  2  0  0  0  0
 11  6  1  0  0  0  0
 13  1  1  0  0  0  0
 14 15  1  0  0  0  0
 14 21  1  1  0  0  0
 15 13  1  1  0  0  0
 16 15  1  0  0  0  0
 16 17  1  0  0  0  0
 18 16  1  0  0  0  0
 19 18  1  0  0  0  0
 19 14  1  0  0  0  0
 20 19  1  0  0  0  0
 22 21  1  0  0  0  0
M  END
>  <minimizedAffinity>
-4.31939077

$$$$

 OpenBabel03252504273D

 22 23  0  0  1  0  0  0  0  0999 V2000
   39.7450   32.9750   40.6140 C   0  0  0  0  0  0  0  0  0  0  0  0
   39.6410   33.8800   41.2560 H   0  0  0  0  0  0  0  0  0  0  0  0
   40.7160   32.5230   40.9710 H   0  0  0  0  0  0  0  0  0  0  0  0
   38.9520   30.9370   41.6340 C   0  0  0  0  0  0  0  0  0  0  0  0
   38.6450   32.0370   40.8570 C   0  0  0  0  0  0  0  0  0  0  0  0
   37.3480   32.1430   40.3930 C   0  0  0  0  0  0  0  0  0  0  0  0
   36.4790   31.1710   40.7280 N   0  0  0  0  0  0  0  0  0  0  0  0
   36.7960   30.1060   41.4860 C   0  0  0  0  0  0  0  0  0  0  0  0
   38.0720   29.9430   41.9790 N   0  0  0  0  0  0  0  0  0  0  0  0
   39.9320   30.7460   42.0540 H   0  0  0  0  0  0  0  0  0  0  0  0
   37.1250   33.0010   39.7920 H   0  0  0  0  0  0  0  0  0  0  0  0
   36.0220   29.3980   41.6850 H   0  0  0  0  0  0  0  0  0  0  0  0
   39.8440   33.3820   39.2890 O   0  0  0  0  0  0  0  0  0  0  0  0
   40.5270   31.7720   37.6210 C   0  0  2  0  0  3  0  0  0  0  0  0
   40.9230   32.7660   38.7220 C   0  0  1  0  0  3  0  0  0  0  0  0
   41.7840   33.6800   37.8890 C   0  0  0  0  0  3  0  0  0  0  0  0
   41.1060   34.3200   37.2590 H   0  0  0  0  0  0  0  0  0  0  0  0
   42.4860   32.8760   37.0040 O   0  0  0  0  0  0  0  0  0  0  0  0
   41.9130   31.6270   36.9840 C   0  0  0  0  0  3  0  0  0  0  0  0
   42.5180   30.9790   37.6850 H   0  0  0  0  0  0  0  0  0  0  0  0
   39.7020   32.3960   36.6890 O   0  0  0  0  0  0  0  0  0  0  0  0
   40.1500   32.4650   35.7900 H   0  0  0  0  0  0  0  0  0  0  0  0
  1  5  1  0  0  0  0
  1  3  1  0  0  0  0
  1  2  1  0  0  0  0
  4  9  1  0  0  0  0
  4 10  1  0  0  0  0
  5  4  2  0  0  0  0
  6  7  2  0  0  0  0
  6  5  1  0  0  0  0
  7  8  1  0  0  0  0
  8 12  1  0  0  0  0
  8  9  2  0  0  0  0
 11  6  1  0  0  0  0
 13  1  1  0  0  0  0
 14 21  1  6  0  0  0
 14 15  1  0  0  0  0
 15 13  1  6  0  0  0
 16 15  1  0  0  0  0
 17 16  1  0  0  0  0
 18 16  1  0  0  0  0
 19 18  1  0  0  0  0
 19 14  1  0  0  0  0
 19 20  1  0  0  0  0
 22 21  1  0  0  0  0
M  END
>  <minimizedAffinity>
-4.15507269

$$$$

 OpenBabel03252504273D

 22 23  0  0  1  0  0  0  0  0999 V2000
   39.2400   29.9140   40.8030 C   0  0  0  0  0  0  0  0  0  0  0  0
   39.7630   30.7390   41.3390 H   0  0  0  0  0  0  0  0  0  0  0  0
   40.0930   29.3200   40.3600 H   0  0  0  0  0  0  0  0  0  0  0  0
   37.2010   28.7550   41.3710 C   0  0  0  0  0  0  0  0  0  0  0  0
   38.4920   29.0760   41.7450 C   0  0  0  0  0  0  0  0  0  0  0  0
   38.9440   28.5800   42.9520 C   0  0  0  0  0  0  0  0  0  0  0  0
   38.0980   27.8240   43.6770 N   0  0  0  0  0  0  0  0  0  0  0  0
   36.8440   27.5220   43.2980 C   0  0  0  0  0  0  0  0  0  0  0  0
   36.3350   27.9860   42.1050 N   0  0  0  0  0  0  0  0  0  0  0  0
   36.7380   29.0840   40.4490 H   0  0  0  0  0  0  0  0  0  0  0  0
   39.9460   28.8370   43.2280 H   0  0  0  0  0  0  0  0  0  0  0  0
   36.2650   26.9140   43.9570 H   0  0  0  0  0  0  0  0  0  0  0  0
   38.4480   30.4660   39.8030 O   0  0  0  0  0  0  0  0  0  0  0  0
   37.4240   32.6460   39.5990 C   0  0  2  0  0  3  0  0  0  0  0  0
   38.7020   31.8080   39.7360 C   0  0  1  0  0  3  0  0  0  0  0  0
   39.2140   32.4000   41.0230 C   0  0  0  0  0  3  0  0  0  0  0  0
   38.5960   31.9850   41.8680 H   0  0  0  0  0  0  0  0  0  0  0  0
   38.9410   33.7590   40.9780 O   0  0  0  0  0  0  0  0  0  0  0  0
   38.0420   34.0000   39.9670 C   0  0  0  0  0  3  0  0  0  0  0  0
   38.6410   34.3290   39.0680 H   0  0  0  0  0  0  0  0  0  0  0  0
   36.5230   32.3110   40.6060 O   0  0  0  0  0  0  0  0  0  0  0  0
   36.3770   33.0790   41.2390 H   0  0  0  0  0  0  0  0  0  0  0  0
  1  2  1  0  0  0  0
  1  5  1  0  0  0  0
  3  1  1  0  0  0  0
  4  5  2  0  0  0  0
  4  9  1  0  0  0  0
  5  6  1  0  0  0  0
  6 11  1  0  0  0  0
  6  7  2  0  0  0  0
  8  7  1  0  0  0  0
  8 12  1  0  0  0  0
  9  8  2  0  0  0  0
 10  4  1  0  0  0  0
 13  1  1  0  0  0  0
 14 15  1  0  0  0  0
 14 19  1  0  0  0  0
 14 21  1  1  0  0  0
 15 13  1  1  0  0  0
 15 16  1  0  0  0  0
 16 17  1  0  0  0  0
 18 16  1  0  0  0  0
 19 18  1  0  0  0  0
 20 19  1  0  0  0  0
 21 22  1  0  0  0  0
M  END
>  <minimizedAffinity>
-4.05023003

$$$$

 OpenBabel03252504273D

 22 23  0  0  1  0  0  0  0  0999 V2000
   37.9180   27.9350   41.4430 C   0  0  0  0  0  0  0  0  0  0  0  0
   38.0140   28.3080   42.4890 H   0  0  0  0  0  0  0  0  0  0  0  0
   38.9280   28.1750   40.9960 H   0  0  0  0  0  0  0  0  0  0  0  0
   36.9370   26.0020   40.3830 C   0  0  0  0  0  0  0  0  0  0  0  0
   37.7040   26.4850   41.4260 C   0  0  0  0  0  0  0  0  0  0  0  0
   38.1860   25.5650   42.3360 C   0  0  0  0  0  0  0  0  0  0  0  0
   37.8760   24.2700   42.1450 N   0  0  0  0  0  0  0  0  0  0  0  0
   37.1270   23.8170   41.1240 C   0  0  0  0  0  0  0  0  0  0  0  0
   36.6170   24.6840   40.1820 N   0  0  0  0  0  0  0  0  0  0  0  0
   36.5050   26.6250   39.6090 H   0  0  0  0  0  0  0  0  0  0  0  0
   38.7780   25.9540   43.1390 H   0  0  0  0  0  0  0  0  0  0  0  0
   36.9460   22.7660   41.0760 H   0  0  0  0  0  0  0  0  0  0  0  0
   36.9110   28.6520   40.8080 O   0  0  0  0  0  0  0  0  0  0  0  0
   36.3550   30.9340   40.2390 C   0  0  2  0  0  3  0  0  0  0  0  0
   37.4250   29.8430   40.3800 C   0  0  1  0  0  3  0  0  0  0  0  0
   38.3050   30.5300   41.3910 C   0  0  0  0  0  3  0  0  0  0  0  0
   37.8000   30.4640   42.3950 H   0  0  0  0  0  0  0  0  0  0  0  0
   38.3240   31.8770   41.0590 O   0  0  0  0  0  0  0  0  0  0  0  0
   37.3090   32.1320   40.1690 C   0  0  0  0  0  3  0  0  0  0  0  0
   37.7670   32.1120   39.1370 H   0  0  0  0  0  0  0  0  0  0  0  0
   35.6300   31.0470   41.4220 O   0  0  0  0  0  0  0  0  0  0  0  0
   35.7850   31.9370   41.8650 H   0  0  0  0  0  0  0  0  0  0  0  0
  1  2  1  0  0  0  0
  3  1  1  0  0  0  0
  4  5  1  0  0  0  0
  5  1  1  0  0  0  0
  5  6  2  0  0  0  0
  6 11  1  0  0  0  0
  7  6  1  0  0  0  0
  8  7  2  0  0  0  0
  9  4  2  0  0  0  0
  9  8  1  0  0  0  0
 10  4  1  0  0  0  0
 12  8  1  0  0  0  0
 13  1  1  0  0  0  0
 14 15  1  0  0  0  0
 14 21  1  1  0  0  0
 15 13  1  1  0  0  0
 15 16  1  0  0  0  0
 16 17  1  0  0  0  0
 18 16  1  0  0  0  0
 19 14  1  0  0  0  0
 19 18  1  0  0  0  0
 20 19  1  0  0  0  0
 21 22  1  0  0  0  0
M  END
>  <minimizedAffinity>
-3.97276711

$$$$

 OpenBabel03252504273D

 22 23  0  0  1  0  0  0  0  0999 V2000
   39.2790   30.3910   41.8770 C   0  0  0  0  0  0  0  0  0  0  0  0
   39.7530   30.8160   42.7920 H   0  0  0  0  0  0  0  0  0  0  0  0
   40.1680   30.0620   41.2630 H   0  0  0  0  0  0  0  0  0  0  0  0
   39.0720   28.2500   42.9710 C   0  0  0  0  0  0  0  0  0  0  0  0
   38.4540   29.2270   42.2140 C   0  0  0  0  0  0  0  0  0  0  0  0
   37.1380   29.0120   41.8540 C   0  0  0  0  0  0  0  0  0  0  0  0
   36.5520   27.8720   42.2650 N   0  0  0  0  0  0  0  0  0  0  0  0
   37.1690   26.9310   43.0010 C   0  0  0  0  0  0  0  0  0  0  0  0
   38.4810   27.0860   43.3910 N   0  0  0  0  0  0  0  0  0  0  0  0
   40.0990   28.3060   43.3120 H   0  0  0  0  0  0  0  0  0  0  0  0
   36.6730   29.7780   41.2680 H   0  0  0  0  0  0  0  0  0  0  0  0
   36.6030   26.0660   43.2670 H   0  0  0  0  0  0  0  0  0  0  0  0
   38.5750   31.4010   41.2330 O   0  0  0  0  0  0  0  0  0  0  0  0
   39.0280   33.5770   40.2830 C   0  0  2  0  0  3  0  0  0  0  0  0
   39.4450   32.1100   40.4520 C   0  0  1  0  0  3  0  0  0  0  0  0
   40.7920   32.3380   41.0860 C   0  0  0  0  0  3  0  0  0  0  0  0
   40.6270   32.6370   42.1590 H   0  0  0  0  0  0  0  0  0  0  0  0
   41.3490   33.4430   40.4600 O   0  0  0  0  0  0  0  0  0  0  0  0
   40.3690   34.0980   39.7550 C   0  0  0  0  0  3  0  0  0  0  0  0
   40.4460   33.7470   38.6850 H   0  0  0  0  0  0  0  0  0  0  0  0
   38.8140   34.1590   41.5300 O   0  0  0  0  0  0  0  0  0  0  0  0
   39.4910   34.8800   41.7190 H   0  0  0  0  0  0  0  0  0  0  0  0
  1  5  1  0  0  0  0
  1  2  1  0  0  0  0
  3  1  1  0  0  0  0
  4 10  1  0  0  0  0
  4  9  1  0  0  0  0
  5  4  2  0  0  0  0
  6  5  1  0  0  0  0
  6  7  2  0  0  0  0
  7  8  1  0  0  0  0
  8 12  1  0  0  0  0
  8  9  2  0  0  0  0
 11  6  1  0  0  0  0
 13  1  1  0  0  0  0
 14 15  1  0  0  0  0
 14 21  1  1  0  0  0
 15 16  1  0  0  0  0
 15 13  1  1  0  0  0
 16 17  1  0  0  0  0
 18 16  1  0  0  0  0
 19 14  1  0  0  0  0
 19 18  1  0  0  0  0
 20 19  1  0  0  0  0
 21 22  1  0  0  0  0
M  END
>  <minimizedAffinity>
-3.91657519

$$$$

 OpenBabel03252504273D

 22 23  0  0  1  0  0  0  0  0999 V2000
   38.2300   31.4220   40.0820 C   0  0  0  0  0  0  0  0  0  0  0  0
   37.2410   31.7650   39.7010 H   0  0  0  0  0  0  0  0  0  0  0  0
   38.6810   32.3700   40.5010 H   0  0  0  0  0  0  0  0  0  0  0  0
   36.9800   29.5880   41.0290 C   0  0  0  0  0  0  0  0  0  0  0  0
   38.0600   30.4400   41.1570 C   0  0  0  0  0  0  0  0  0  0  0  0
   38.8630   30.2830   42.2710 C   0  0  0  0  0  0  0  0  0  0  0  0
   38.5370   29.3160   43.1490 N   0  0  0  0  0  0  0  0  0  0  0  0
   37.4810   28.4960   43.0090 C   0  0  0  0  0  0  0  0  0  0  0  0
   36.6420   28.6020   41.9200 N   0  0  0  0  0  0  0  0  0  0  0  0
   36.2820   29.6150   40.2010 H   0  0  0  0  0  0  0  0  0  0  0  0
   39.6960   30.9500   42.3560 H   0  0  0  0  0  0  0  0  0  0  0  0
   37.3210   27.7670   43.7710 H   0  0  0  0  0  0  0  0  0  0  0  0
   38.9770   30.9470   39.0110 O   0  0  0  0  0  0  0  0  0  0  0  0
   40.5930   31.8780   37.4730 C   0  0  2  0  0  3  0  0  0  0  0  0
   40.1280   31.6780   38.9220 C   0  0  1  0  0  3  0  0  0  0  0  0
   39.9650   33.1270   39.3010 C   0  0  0  0  0  3  0  0  0  0  0  0
   39.0190   33.5080   38.8250 H   0  0  0  0  0  0  0  0  0  0  0  0
   41.0050   33.8200   38.6980 O   0  0  0  0  0  0  0  0  0  0  0  0
   41.5820   33.0160   37.7440 C   0  0  0  0  0  3  0  0  0  0  0  0
   42.4890   32.5420   38.2220 H   0  0  0  0  0  0  0  0  0  0  0  0
   39.5540   32.4000   36.7070 O   0  0  0  0  0  0  0  0  0  0  0  0
   39.7640   33.3320   36.3900 H   0  0  0  0  0  0  0  0  0  0  0  0
  1  3  1  0  0  0  0
  1  5  1  0  0  0  0
  2  1  1  0  0  0  0
  4  5  2  0  0  0  0
  4  9  1  0  0  0  0
  5  6  1  0  0  0  0
  6 11  1  0  0  0  0
  6  7  2  0  0  0  0
  8  7  1  0  0  0  0
  8 12  1  0  0  0  0
  9  8  2  0  0  0  0
 10  4  1  0  0  0  0
 13  1  1  0  0  0  0
 14 21  1  6  0  0  0
 14 19  1  0  0  0  0
 14 15  1  0  0  0  0
 15 13  1  6  0  0  0
 15 16  1  0  0  0  0
 17 16  1  0  0  0  0
 18 16  1  0  0  0  0
 19 20  1  0  0  0  0
 19 18  1  0  0  0  0
 22 21  1  0  0  0  0
M  END
>  <minimizedAffinity>
-3.85449576

$$$$

 OpenBabel03252504273D

 22 23  0  0  1  0  0  0  0  0999 V2000
   36.9070   27.2070   42.3980 C   0  0  0  0  0  0  0  0  0  0  0  0
   36.0250   26.7070   41.9360 H   0  0  0  0  0  0  0  0  0  0  0  0
   36.5090   27.5460   43.3990 H   0  0  0  0  0  0  0  0  0  0  0  0
   39.0800   26.7150   43.3240 C   0  0  0  0  0  0  0  0  0  0  0  0
   37.9990   26.2510   42.5990 C   0  0  0  0  0  0  0  0  0  0  0  0
   38.0550   24.9480   42.1430 C   0  0  0  0  0  0  0  0  0  0  0  0
   39.1530   24.2270   42.4350 N   0  0  0  0  0  0  0  0  0  0  0  0
   40.1970   24.6950   43.1410 C   0  0  0  0  0  0  0  0  0  0  0  0
   40.2020   25.9860   43.6230 N   0  0  0  0  0  0  0  0  0  0  0  0
   39.1510   27.7160   43.7320 H   0  0  0  0  0  0  0  0  0  0  0  0
   37.2100   24.6030   41.5830 H   0  0  0  0  0  0  0  0  0  0  0  0
   41.0140   24.0300   43.3090 H   0  0  0  0  0  0  0  0  0  0  0  0
   37.2610   28.2960   41.6090 O   0  0  0  0  0  0  0  0  0  0  0  0
   35.1970   29.0480   40.6030 C   0  0  2  0  0  3  0  0  0  0  0  0
   36.5130   28.2700   40.4660 C   0  0  1  0  0  3  0  0  0  0  0  0
   37.1100   29.0510   39.3250 C   0  0  0  0  0  3  0  0  0  0  0  0
   37.4830   30.0320   39.7310 H   0  0  0  0  0  0  0  0  0  0  0  0
   36.0690   29.3630   38.4630 O   0  0  0  0  0  0  0  0  0  0  0  0
   34.8750   29.1450   39.1070 C   0  0  0  0  0  3  0  0  0  0  0  0
   34.5170   28.1210   38.7930 H   0  0  0  0  0  0  0  0  0  0  0  0
   35.4490   30.3380   41.0610 O   0  0  0  0  0  0  0  0  0  0  0  0
   35.2200   31.0260   40.3640 H   0  0  0  0  0  0  0  0  0  0  0  0
  1  5  1  0  0  0  0
  1  3  1  0  0  0  0
  2  1  1  0  0  0  0
  4  9  1  0  0  0  0
  4 10  1  0  0  0  0
  5  4  2  0  0  0  0
  6  7  2  0  0  0  0
  6  5  1  0  0  0  0
  7  8  1  0  0  0  0
  8 12  1  0  0  0  0
  8  9  2  0  0  0  0
 11  6  1  0  0  0  0
 13  1  1  0  0  0  0
 14 21  1  6  0  0  0
 15 14  1  0  0  0  0
 15 13  1  1  0  0  0
 16 17  1  0  0  0  0
 16 15  1  0  0  0  0
 18 19  1  0  0  0  0
 18 16  1  0  0  0  0
 19 14  1  0  0  0  0
 20 19  1  0  0  0  0
 22 21  1  0  0  0  0
M  END
>  <minimizedAffinity>
-3.84227848

$$$$

 OpenBabel03252504273D

 22 23  0  0  1  0  0  0  0  0999 V2000
   37.4700   30.4660   40.1260 C   0  0  0  0  0  0  0  0  0  0  0  0
   38.2370   30.2490   39.3470 H   0  0  0  0  0  0  0  0  0  0  0  0
   36.5290   30.6130   39.5190 H   0  0  0  0  0  0  0  0  0  0  0  0
   37.5240   29.5670   42.3650 C   0  0  0  0  0  0  0  0  0  0  0  0
   37.3030   29.3190   41.0240 C   0  0  0  0  0  0  0  0  0  0  0  0
   36.9510   28.0320   40.6670 C   0  0  0  0  0  0  0  0  0  0  0  0
   36.8500   27.1140   41.6470 N   0  0  0  0  0  0  0  0  0  0  0  0
   37.0690   27.3730   42.9480 C   0  0  0  0  0  0  0  0  0  0  0  0
   37.4230   28.6370   43.3670 N   0  0  0  0  0  0  0  0  0  0  0  0
   37.8040   30.5350   42.7640 H   0  0  0  0  0  0  0  0  0  0  0  0
   36.7830   27.8550   39.6250 H   0  0  0  0  0  0  0  0  0  0  0  0
   36.9590   26.5640   43.6350 H   0  0  0  0  0  0  0  0  0  0  0  0
   37.8260   31.6370   40.7840 O   0  0  0  0  0  0  0  0  0  0  0  0
   38.8300   33.7530   40.1880 C   0  0  2  0  0  3  0  0  0  0  0  0
   38.8600   32.2210   40.1080 C   0  0  1  0  0  3  0  0  0  0  0  0
   40.2100   31.9970   40.7400 C   0  0  0  0  0  3  0  0  0  0  0  0
   40.1040   32.1500   41.8500 H   0  0  0  0  0  0  0  0  0  0  0  0
   41.0390   33.0130   40.2880 O   0  0  0  0  0  0  0  0  0  0  0  0
   40.2690   33.9990   39.7200 C   0  0  0  0  0  3  0  0  0  0  0  0
   40.2750   33.8180   38.6060 H   0  0  0  0  0  0  0  0  0  0  0  0
   38.7470   34.1610   41.5160 O   0  0  0  0  0  0  0  0  0  0  0  0
   39.5790   34.6470   41.8040 H   0  0  0  0  0  0  0  0  0  0  0  0
  1 13  1  0  0  0  0
  1  5  1  0  0  0  0
  2  1  1  0  0  0  0
  3  1  1  0  0  0  0
  4 10  1  0  0  0  0
  4  9  1  0  0  0  0
  5  4  2  0  0  0  0
  6  5  1  0  0  0  0
  6  7  2  0  0  0  0
  7  8  1  0  0  0  0
  8  9  2  0  0  0  0
  8 12  1  0  0  0  0
 11  6  1  0  0  0  0
 14 21  1  1  0  0  0
 15 14  1  0  0  0  0
 15 16  1  0  0  0  0
 15 13  1  1  0  0  0
 16 17  1  0  0  0  0
 18 16  1  0  0  0  0
 19 14  1  0  0  0  0
 19 18  1  0  0  0  0
 20 19  1  0  0  0  0
 21 22  1  0  0  0  0
M  END
>  <minimizedAffinity>
-3.8311832

$$$$
