
 OpenBabel03252507543D

 44 47  0  0  1  0  0  0  0  0999 V2000
   46.9910   34.8010   41.9770 C   0  0  2  0  0  0  0  0  0  0  0  0
   46.1880   34.2460   40.7990 C   0  0  0  0  0  0  0  0  0  0  0  0
   47.3700   34.0470   39.8250 C   0  0  0  0  0  0  0  0  0  0  0  0
   48.5070   33.5970   40.6870 C   0  0  1  0  0  0  0  0  0  0  0  0
   48.0260   33.7180   42.1040 C   0  0  0  0  0  0  0  0  0  0  0  0
   47.4590   35.7440   41.6560 H   0  0  0  0  0  0  0  0  0  0  0  0
   45.7520   33.2860   41.0730 H   0  0  0  0  0  0  0  0  0  0  0  0
   45.5030   35.0100   40.4330 H   0  0  0  0  0  0  0  0  0  0  0  0
   47.1190   33.3590   39.0160 H   0  0  0  0  0  0  0  0  0  0  0  0
   47.5760   35.0710   39.4160 H   0  0  0  0  0  0  0  0  0  0  0  0
   49.4240   34.2060   40.5120 H   0  0  0  0  0  0  0  0  0  0  0  0
   47.6270   32.7950   42.5250 H   0  0  0  0  0  0  0  0  0  0  0  0
   48.8830   34.1310   42.7010 H   0  0  0  0  0  0  0  0  0  0  0  0
   44.5150   35.9730   44.5620 C   0  0  0  0  0  0  0  0  0  0  0  0
   45.2270   35.9500   43.3630 C   0  0  0  0  0  0  0  0  0  0  0  0
   46.1510   34.9260   43.1980 C   0  0  0  0  0  0  0  0  0  0  0  0
   46.3410   33.9690   44.2080 N   0  0  0  0  0  0  0  0  0  0  0  0
   45.6170   34.0470   45.3530 C   0  0  0  0  0  0  0  0  0  0  0  0
   44.7110   35.0430   45.5270 N   0  0  0  0  0  0  0  0  0  0  0  0
   43.7940   36.7660   44.7010 H   0  0  0  0  0  0  0  0  0  0  0  0
   45.0970   36.6760   42.5720 H   0  0  0  0  0  0  0  0  0  0  0  0
   45.8450   33.2600   46.0590 H   0  0  0  0  0  0  0  0  0  0  0  0
   48.9260   32.1580   40.4790 C   0  0  2  0  0  0  0  0  0  0  0  0
   49.6040   31.5260   41.6030 C   0  0  0  0  0  0  0  0  0  0  0  0
   50.3320   31.7830   40.3240 C   0  0  1  0  0  0  0  0  0  0  0  0
   48.1820   31.5640   39.9180 H   0  0  0  0  0  0  0  0  0  0  0  0
   49.9540   32.1190   42.4970 H   0  0  0  0  0  0  0  0  0  0  0  0
   49.3360   30.4950   41.8940 H   0  0  0  0  0  0  0  0  0  0  0  0
   51.0670   32.5960   40.2150 H   0  0  0  0  0  0  0  0  0  0  0  0
   50.6180   30.6650   39.5030 O   0  0  0  0  0  0  0  0  0  0  0  0
   51.8590   30.0930   37.2830 O   0  0  0  0  0  0  0  0  0  0  0  0
   51.7850   31.1240   38.3830 P   0  0  1  0  0  0  0  0  0  0  0  0
   51.3440   32.6150   37.6580 O   0  0  0  0  0  0  0  0  0  0  0  0
   50.5750   32.4050   37.0680 H   0  0  0  0  0  0  0  0  0  0  0  0
   53.3090   31.3290   39.0130 O   0  0  0  0  0  0  0  0  0  0  0  0
   55.1420   29.8200   38.6120 C   0  0  1  0  0  3  0  0  0  0  0  0
   53.8280   30.1020   39.3520 C   0  0  1  0  0  3  0  0  0  0  0  0
   54.3320   30.0160   40.7750 C   0  0  0  0  0  3  0  0  0  0  0  0
   54.8790   30.9660   41.0330 H   0  0  0  0  0  0  0  0  0  0  0  0
   55.2930   29.0160   40.7940 O   0  0  0  0  0  0  0  0  0  0  0  0
   55.6780   28.7260   39.5030 C   0  0  0  0  0  3  0  0  0  0  0  0
   56.7370   28.5150   39.3570 H   0  0  0  0  0  0  0  0  0  0  0  0
   54.8960   29.3650   37.3190 O   0  0  0  0  0  0  0  0  0  0  0  0
   55.0330   30.1340   36.7090 H   0  0  0  0  0  0  0  0  0  0  0  0
  1  6  1  6  0  0  0
  1  5  1  0  0  0  0
  1 16  1  0  0  0  0
  2  7  1  0  0  0  0
  2  1  1  0  0  0  0
  3  4  1  0  0  0  0
  3  2  1  0  0  0  0
  4 11  1  6  0  0  0
  4  5  1  0  0  0  0
  5 12  1  0  0  0  0
  5 13  1  0  0  0  0
  8  2  1  0  0  0  0
  9  3  1  0  0  0  0
 10  3  1  0  0  0  0
 14 20  1  0  0  0  0
 14 19  1  0  0  0  0
 15 14  2  0  0  0  0
 16 15  1  0  0  0  0
 16 17  2  0  0  0  0
 17 18  1  0  0  0  0
 18 19  2  0  0  0  0
 18 22  1  0  0  0  0
 21 15  1  0  0  0  0
 23 26  1  6  0  0  0
 23  4  1  0  0  0  0
 23 24  1  0  0  0  0
 24 28  1  0  0  0  0
 24 27  1  0  0  0  0
 25 29  1  1  0  0  0
 25 23  1  0  0  0  0
 25 24  1  0  0  0  0
 30 25  1  0  0  0  0
 32 31  2  6  0  0  0
 32 35  1  0  0  0  0
 32 30  1  0  0  0  0
 33 32  1  0  0  0  0
 34 33  1  0  0  0  0
 36 43  1  6  0  0  0
 36 37  1  0  0  0  0
 36 41  1  0  0  0  0
 37 35  1  6  0  0  0
 37 38  1  0  0  0  0
 38 40  1  0  0  0  0
 38 39  1  0  0  0  0
 41 40  1  0  0  0  0
 42 41  1  0  0  0  0
 44 43  1  0  0  0  0
M  END
>  <minimizedAffinity>
-5.12382603

>  <minimizedRMSD>
0.522685289

$$$$
