
 OpenBabel03252504263D

 22 23  0  0  1  0  0  0  0  0999 V2000
   43.4140   35.2550   41.4810 C   0  0  0  0  0  0  0  0  0  0  0  0
   43.9430   36.1250   41.0280 H   0  0  0  0  0  0  0  0  0  0  0  0
   43.4670   34.4750   40.6660 H   0  0  0  0  0  0  0  0  0  0  0  0
   44.2400   35.6800   43.7080 C   0  0  0  0  0  0  0  0  0  0  0  0
   44.1270   34.7760   42.6690 C   0  0  0  0  0  0  0  0  0  0  0  0
   44.6890   33.5270   42.8510 C   0  0  0  0  0  0  0  0  0  0  0  0
   45.3050   33.2800   44.0220 N   0  0  0  0  0  0  0  0  0  0  0  0
   45.4070   34.1720   45.0230 C   0  0  0  0  0  0  0  0  0  0  0  0
   44.8670   35.4340   44.9030 N   0  0  0  0  0  0  0  0  0  0  0  0
   43.8410   36.6860   43.6830 H   0  0  0  0  0  0  0  0  0  0  0  0
   44.5930   32.8390   42.0370 H   0  0  0  0  0  0  0  0  0  0  0  0
   45.9200   33.8620   45.9060 H   0  0  0  0  0  0  0  0  0  0  0  0
   42.0980   35.6210   41.7350 O   0  0  0  0  0  0  0  0  0  0  0  0
   40.5740   33.7930   41.3120 C   0  0  2  0  0  0  0  0  0  0  0  0
   41.2940   35.0440   40.7920 C   0  0  1  0  0  0  0  0  0  0  0  0
   40.0800   35.8630   40.4380 C   0  0  0  0  0  0  0  0  0  0  0  0
   39.6330   36.2560   41.3940 H   0  0  0  0  0  0  0  0  0  0  0  0
   39.1440   34.9870   39.9080 O   0  0  0  0  0  0  0  0  0  0  0  0
   39.5250   33.6980   40.1990 C   0  0  0  0  0  0  0  0  0  0  0  0
   40.0630   33.3040   39.2880 H   0  0  0  0  0  0  0  0  0  0  0  0
   39.9030   34.0860   42.4960 O   0  0  0  0  0  0  0  0  0  0  0  0
   38.9050   34.0170   42.3790 H   0  0  0  0  0  0  0  0  0  0  0  0
  1 13  1  0  0  0  0
  1  5  1  0  0  0  0
  2  1  1  0  0  0  0
  3  1  1  0  0  0  0
  4  9  1  0  0  0  0
  5  6  1  0  0  0  0
  5  4  2  0  0  0  0
  6  7  2  0  0  0  0
  7  8  1  0  0  0  0
  8 12  1  0  0  0  0
  9  8  2  0  0  0  0
 10  4  1  0  0  0  0
 11  6  1  0  0  0  0
 14 21  1  1  0  0  0
 15 14  1  0  0  0  0
 15 13  1  1  0  0  0
 16 15  1  0  0  0  0
 16 17  1  0  0  0  0
 18 19  1  0  0  0  0
 18 16  1  0  0  0  0
 19 14  1  0  0  0  0
 20 19  1  0  0  0  0
 22 21  1  0  0  0  0
M  END
>  <minimizedAffinity>
-4.41995478

>  <minimizedRMSD>
1.93180442

$$$$
