
 OpenBabel03242523493D

 26 28  0  0  1  0  0  0  0  0999 V2000
   38.0090   28.3210   42.1420 C   0  0  0  0  0  0  0  0  0  0  0  0
   37.3150   27.1390   41.8350 C   0  0  0  0  0  0  0  0  0  0  0  0
   37.7920   25.9320   42.3510 C   0  0  0  0  0  0  0  0  0  0  0  0
   38.9180   25.9550   43.1340 N   0  0  0  0  0  0  0  0  0  0  0  0
   39.5570   27.1100   43.4070 C   0  0  0  0  0  0  0  0  0  0  0  0
   39.1040   28.2820   42.9140 N   0  0  0  0  0  0  0  0  0  0  0  0
   36.4460   27.0050   41.2490 H   0  0  0  0  0  0  0  0  0  0  0  0
   40.4550   27.1010   44.0370 H   0  0  0  0  0  0  0  0  0  0  0  0
   37.1020   24.6380   42.0880 C   0  0  0  0  0  0  0  0  0  0  0  0
   36.5790   24.3700   40.7080 C   0  0  0  0  0  0  0  0  0  0  0  0
   37.7680   23.6080   41.3100 C   0  0  0  0  0  0  0  0  0  0  0  0
   36.4130   24.3620   42.9110 H   0  0  0  0  0  0  0  0  0  0  0  0
   35.6630   23.7570   40.6110 H   0  0  0  0  0  0  0  0  0  0  0  0
   36.7610   25.1120   39.9190 H   0  0  0  0  0  0  0  0  0  0  0  0
   38.7120   23.7820   40.7510 H   0  0  0  0  0  0  0  0  0  0  0  0
   37.6250   22.5140   41.4960 H   0  0  0  0  0  0  0  0  0  0  0  0
   37.5290   29.4660   41.6310 O   0  0  0  0  0  0  0  0  0  0  0  0
   36.4330   31.0580   40.3140 C   0  0  2  0  0  3  0  0  0  0  0  0
   37.2610   29.7660   40.3140 C   0  0  1  0  0  3  0  0  0  0  0  0
   38.5510   30.2970   39.7000 C   0  0  0  0  0  3  0  0  0  0  0  0
   38.3200   30.5670   38.6460 H   0  0  0  0  0  0  0  0  0  0  0  0
   38.7390   31.4440   40.4770 O   0  0  0  0  0  0  0  0  0  0  0  0
   37.5090   32.0820   40.5110 C   0  0  0  0  0  3  0  0  0  0  0  0
   37.4490   32.7970   39.6500 H   0  0  0  0  0  0  0  0  0  0  0  0
   35.5870   31.0110   41.4260 O   0  0  0  0  0  0  0  0  0  0  0  0
   34.7270   31.4750   41.2700 H   0  0  0  0  0  0  0  0  0  0  0  0
  1  6  1  0  0  0  0
  2  1  2  0  0  0  0
  2  3  1  0  0  0  0
  3  4  2  0  0  0  0
  4  5  1  0  0  0  0
  5  8  1  0  0  0  0
  6  5  2  0  0  0  0
  7  2  1  0  0  0  0
  9  3  1  0  0  0  0
  9 12  1  0  0  0  0
 10 11  1  0  0  0  0
 10  9  1  0  0  0  0
 11 16  1  0  0  0  0
 11  9  1  0  0  0  0
 13 10  1  0  0  0  0
 14 10  1  0  0  0  0
 15 11  1  0  0  0  0
 17  1  1  0  0  0  0
 18 23  1  0  0  0  0
 18 25  1  1  0  0  0
 19 18  1  0  0  0  0
 19 17  1  1  0  0  0
 20 19  1  0  0  0  0
 20 22  1  0  0  0  0
 21 20  1  0  0  0  0
 22 23  1  0  0  0  0
 24 23  1  0  0  0  0
 26 25  1  0  0  0  0
M  END
>  <minimizedAffinity>
-4.95534229

$$$$

 OpenBabel03242523493D

 26 28  0  0  1  0  0  0  0  0999 V2000
   37.3400   30.7420   41.0510 C   0  0  0  0  0  0  0  0  0  0  0  0
   37.7420   29.7660   41.9770 C   0  0  0  0  0  0  0  0  0  0  0  0
   36.9550   28.6210   42.1250 C   0  0  0  0  0  0  0  0  0  0  0  0
   35.8240   28.5020   41.3590 N   0  0  0  0  0  0  0  0  0  0  0  0
   35.4700   29.4610   40.4800 C   0  0  0  0  0  0  0  0  0  0  0  0
   36.2240   30.5700   40.3280 N   0  0  0  0  0  0  0  0  0  0  0  0
   38.5860   29.7520   42.6130 H   0  0  0  0  0  0  0  0  0  0  0  0
   34.5610   29.3410   39.8780 H   0  0  0  0  0  0  0  0  0  0  0  0
   37.3240   27.5320   43.0710 C   0  0  0  0  0  0  0  0  0  0  0  0
   37.8080   26.2270   42.5110 C   0  0  0  0  0  0  0  0  0  0  0  0
   38.7220   27.1950   43.2760 C   0  0  0  0  0  0  0  0  0  0  0  0
   36.5980   27.4430   43.9040 H   0  0  0  0  0  0  0  0  0  0  0  0
   37.5730   25.3030   43.0730 H   0  0  0  0  0  0  0  0  0  0  0  0
   37.9230   26.1280   41.4240 H   0  0  0  0  0  0  0  0  0  0  0  0
   39.5440   27.5940   42.6440 H   0  0  0  0  0  0  0  0  0  0  0  0
   39.1270   26.8390   44.2570 H   0  0  0  0  0  0  0  0  0  0  0  0
   38.1150   31.8320   40.9320 O   0  0  0  0  0  0  0  0  0  0  0  0
   39.2570   33.7500   40.2350 C   0  0  2  0  0  3  0  0  0  0  0  0
   38.3910   32.5620   39.7980 C   0  0  1  0  0  3  0  0  0  0  0  0
   39.4270   31.7800   38.9980 C   0  0  0  0  0  3  0  0  0  0  0  0
   39.6700   32.3890   38.1000 H   0  0  0  0  0  0  0  0  0  0  0  0
   40.4920   31.7850   39.9050 O   0  0  0  0  0  0  0  0  0  0  0  0
   40.5990   33.0920   40.3520 C   0  0  0  0  0  3  0  0  0  0  0  0
   41.3020   33.6480   39.6790 H   0  0  0  0  0  0  0  0  0  0  0  0
   38.7980   34.1610   41.4910 O   0  0  0  0  0  0  0  0  0  0  0  0
   38.9040   35.1330   41.6360 H   0  0  0  0  0  0  0  0  0  0  0  0
  1  2  1  0  0  0  0
  2  3  2  0  0  0  0
  2  7  1  0  0  0  0
  3  9  1  0  0  0  0
  4  3  1  0  0  0  0
  5  4  2  0  0  0  0
  6  5  1  0  0  0  0
  6  1  2  0  0  0  0
  8  5  1  0  0  0  0
  9 11  1  0  0  0  0
  9 12  1  0  0  0  0
 10  9  1  0  0  0  0
 10 13  1  0  0  0  0
 10 11  1  0  0  0  0
 11 16  1  0  0  0  0
 14 10  1  0  0  0  0
 15 11  1  0  0  0  0
 17  1  1  0  0  0  0
 18 23  1  0  0  0  0
 18 25  1  1  0  0  0
 19 18  1  0  0  0  0
 19 17  1  1  0  0  0
 20 19  1  0  0  0  0
 20 22  1  0  0  0  0
 21 20  1  0  0  0  0
 22 23  1  0  0  0  0
 24 23  1  0  0  0  0
 25 26  1  0  0  0  0
M  END
>  <minimizedAffinity>
-4.79842758

$$$$

 OpenBabel03242523493D

 26 28  0  0  1  0  0  0  0  0999 V2000
   37.4770   29.3160   41.8070 C   0  0  0  0  0  0  0  0  0  0  0  0
   37.2140   28.2030   40.9930 C   0  0  0  0  0  0  0  0  0  0  0  0
   37.1900   26.9360   41.5800 C   0  0  0  0  0  0  0  0  0  0  0  0
   37.4240   26.8360   42.9280 N   0  0  0  0  0  0  0  0  0  0  0  0
   37.6730   27.9280   43.6770 C   0  0  0  0  0  0  0  0  0  0  0  0
   37.6980   29.1570   43.1200 N   0  0  0  0  0  0  0  0  0  0  0  0
   37.0210   28.1630   39.9540 H   0  0  0  0  0  0  0  0  0  0  0  0
   37.8560   27.8210   44.7540 H   0  0  0  0  0  0  0  0  0  0  0  0
   36.8990   25.7090   40.7880 C   0  0  0  0  0  0  0  0  0  0  0  0
   38.0050   24.7210   40.5590 C   0  0  0  0  0  0  0  0  0  0  0  0
   36.7950   24.4240   41.4570 C   0  0  0  0  0  0  0  0  0  0  0  0
   36.2760   25.9290   39.8970 H   0  0  0  0  0  0  0  0  0  0  0  0
   38.0030   24.1520   39.6100 H   0  0  0  0  0  0  0  0  0  0  0  0
   38.9830   24.9070   41.0220 H   0  0  0  0  0  0  0  0  0  0  0  0
   37.0820   24.2650   42.5190 H   0  0  0  0  0  0  0  0  0  0  0  0
   36.1020   23.6130   41.1190 H   0  0  0  0  0  0  0  0  0  0  0  0
   37.4970   30.5210   41.2150 O   0  0  0  0  0  0  0  0  0  0  0  0
   37.9690   32.4190   39.9310 C   0  0  2  0  0  3  0  0  0  0  0  0
   38.2010   30.9110   40.0980 C   0  0  1  0  0  3  0  0  0  0  0  0
   39.6780   30.9270   40.4770 C   0  0  0  0  0  3  0  0  0  0  0  0
   40.2380   31.2730   39.5810 H   0  0  0  0  0  0  0  0  0  0  0  0
   39.6660   31.9140   41.4680 O   0  0  0  0  0  0  0  0  0  0  0  0
   38.9290   32.9650   40.9440 C   0  0  0  0  0  3  0  0  0  0  0  0
   39.6240   33.6580   40.4030 H   0  0  0  0  0  0  0  0  0  0  0  0
   36.6490   32.6810   40.3110 O   0  0  0  0  0  0  0  0  0  0  0  0
   36.2510   33.4340   39.8090 H   0  0  0  0  0  0  0  0  0  0  0  0
  1  6  1  0  0  0  0
  2  3  1  0  0  0  0
  2  1  2  0  0  0  0
  3  4  2  0  0  0  0
  4  5  1  0  0  0  0
  5  8  1  0  0  0  0
  6  5  2  0  0  0  0
  7  2  1  0  0  0  0
  9 11  1  0  0  0  0
  9  3  1  0  0  0  0
 10  9  1  0  0  0  0
 10 14  1  0  0  0  0
 10 11  1  0  0  0  0
 11 15  1  0  0  0  0
 12  9  1  0  0  0  0
 13 10  1  0  0  0  0
 16 11  1  0  0  0  0
 17  1  1  0  0  0  0
 18 19  1  0  0  0  0
 18 25  1  1  0  0  0
 18 23  1  0  0  0  0
 19 20  1  0  0  0  0
 19 17  1  1  0  0  0
 20 22  1  0  0  0  0
 21 20  1  0  0  0  0
 23 22  1  0  0  0  0
 24 23  1  0  0  0  0
 26 25  1  0  0  0  0
M  END
>  <minimizedAffinity>
-4.59881401

$$$$

 OpenBabel03242523493D

 26 28  0  0  1  0  0  0  0  0999 V2000
   38.6800   31.5170   40.0920 C   0  0  0  0  0  0  0  0  0  0  0  0
   39.1110   30.6200   41.0820 C   0  0  0  0  0  0  0  0  0  0  0  0
   38.1490   29.9810   41.8690 C   0  0  0  0  0  0  0  0  0  0  0  0
   36.8260   30.2590   41.6380 N   0  0  0  0  0  0  0  0  0  0  0  0
   36.4510   31.1270   40.6770 C   0  0  0  0  0  0  0  0  0  0  0  0
   37.3710   31.7490   39.9120 N   0  0  0  0  0  0  0  0  0  0  0  0
   40.0940   30.3320   41.3440 H   0  0  0  0  0  0  0  0  0  0  0  0
   35.3860   31.3310   40.5120 H   0  0  0  0  0  0  0  0  0  0  0  0
   38.5250   29.0010   42.9250 C   0  0  0  0  0  0  0  0  0  0  0  0
   37.4320   28.3020   43.6790 C   0  0  0  0  0  0  0  0  0  0  0  0
   38.3530   27.5780   42.6860 C   0  0  0  0  0  0  0  0  0  0  0  0
   39.3640   29.3660   43.5500 H   0  0  0  0  0  0  0  0  0  0  0  0
   37.6210   28.0340   44.7360 H   0  0  0  0  0  0  0  0  0  0  0  0
   36.3880   28.4960   43.3990 H   0  0  0  0  0  0  0  0  0  0  0  0
   37.8000   27.1700   41.8130 H   0  0  0  0  0  0  0  0  0  0  0  0
   39.0390   26.8010   43.1080 H   0  0  0  0  0  0  0  0  0  0  0  0
   39.6260   32.1190   39.3530 O   0  0  0  0  0  0  0  0  0  0  0  0
   41.0410   32.1950   37.4930 C   0  0  2  0  0  3  0  0  0  0  0  0
   40.8060   31.5890   38.8820 C   0  0  1  0  0  3  0  0  0  0  0  0
   41.9400   32.2630   39.6450 C   0  0  0  0  0  3  0  0  0  0  0  0
   42.8910   31.8550   39.2370 H   0  0  0  0  0  0  0  0  0  0  0  0
   41.7550   33.5880   39.2380 O   0  0  0  0  0  0  0  0  0  0  0  0
   41.5890   33.5410   37.8630 C   0  0  0  0  0  3  0  0  0  0  0  0
   42.5930   33.6370   37.3740 H   0  0  0  0  0  0  0  0  0  0  0  0
   39.7930   32.3230   36.8770 O   0  0  0  0  0  0  0  0  0  0  0  0
   39.8400   32.2170   35.8940 H   0  0  0  0  0  0  0  0  0  0  0  0
  1  2  1  0  0  0  0
  2  7  1  0  0  0  0
  2  3  2  0  0  0  0
  3  9  1  0  0  0  0
  4  3  1  0  0  0  0
  5  4  2  0  0  0  0
  6  1  2  0  0  0  0
  6  5  1  0  0  0  0
  8  5  1  0  0  0  0
  9 12  1  0  0  0  0
  9 10  1  0  0  0  0
 10 13  1  0  0  0  0
 11  9  1  0  0  0  0
 11 16  1  0  0  0  0
 11 10  1  0  0  0  0
 14 10  1  0  0  0  0
 15 11  1  0  0  0  0
 17  1  1  0  0  0  0
 18 25  1  1  0  0  0
 18 23  1  0  0  0  0
 18 19  1  0  0  0  0
 19 17  1  1  0  0  0
 19 20  1  0  0  0  0
 21 20  1  0  0  0  0
 22 20  1  0  0  0  0
 23 22  1  0  0  0  0
 24 23  1  0  0  0  0
 26 25  1  0  0  0  0
M  END
>  <minimizedAffinity>
-4.59737968

$$$$

 OpenBabel03242523493D

 26 28  0  0  1  0  0  0  0  0999 V2000
   37.9040   28.8440   41.7320 C   0  0  0  0  0  0  0  0  0  0  0  0
   38.9980   27.9650   41.6960 C   0  0  0  0  0  0  0  0  0  0  0  0
   38.8720   26.7170   42.3110 C   0  0  0  0  0  0  0  0  0  0  0  0
   37.6850   26.4060   42.9220 N   0  0  0  0  0  0  0  0  0  0  0  0
   36.6560   27.2770   42.9360 C   0  0  0  0  0  0  0  0  0  0  0  0
   36.7660   28.4850   42.3450 N   0  0  0  0  0  0  0  0  0  0  0  0
   39.9510   28.0980   41.2580 H   0  0  0  0  0  0  0  0  0  0  0  0
   35.7160   27.0030   43.4310 H   0  0  0  0  0  0  0  0  0  0  0  0
   39.9800   25.7210   42.2990 C   0  0  0  0  0  0  0  0  0  0  0  0
   40.7840   25.5250   43.5500 C   0  0  0  0  0  0  0  0  0  0  0  0
   39.8250   24.4590   43.0010 C   0  0  0  0  0  0  0  0  0  0  0  0
   40.5740   25.7730   41.3650 H   0  0  0  0  0  0  0  0  0  0  0  0
   41.8520   25.2570   43.4430 H   0  0  0  0  0  0  0  0  0  0  0  0
   40.5040   26.0850   44.4520 H   0  0  0  0  0  0  0  0  0  0  0  0
   38.9830   24.2470   43.6940 H   0  0  0  0  0  0  0  0  0  0  0  0
   40.2830   23.5020   42.6450 H   0  0  0  0  0  0  0  0  0  0  0  0
   38.0540   30.0370   41.1360 O   0  0  0  0  0  0  0  0  0  0  0  0
   36.7270   31.5520   39.9450 C   0  0  2  0  0  3  0  0  0  0  0  0
   37.7280   30.3940   39.8460 C   0  0  1  0  0  3  0  0  0  0  0  0
   38.9230   31.1460   39.2700 C   0  0  0  0  0  3  0  0  0  0  0  0
   38.6420   31.4590   38.2410 H   0  0  0  0  0  0  0  0  0  0  0  0
   38.9580   32.2470   40.1320 O   0  0  0  0  0  0  0  0  0  0  0  0
   37.6510   32.7000   40.2170 C   0  0  0  0  0  3  0  0  0  0  0  0
   37.4800   33.4620   39.4130 H   0  0  0  0  0  0  0  0  0  0  0  0
   35.9100   31.3030   41.0530 O   0  0  0  0  0  0  0  0  0  0  0  0
   34.9920   31.6510   40.9350 H   0  0  0  0  0  0  0  0  0  0  0  0
  1  6  1  0  0  0  0
  2  1  2  0  0  0  0
  2  3  1  0  0  0  0
  3  4  2  0  0  0  0
  4  5  1  0  0  0  0
  5  8  1  0  0  0  0
  6  5  2  0  0  0  0
  7  2  1  0  0  0  0
  9  3  1  0  0  0  0
  9 11  1  0  0  0  0
  9 10  1  0  0  0  0
 10 14  1  0  0  0  0
 11 10  1  0  0  0  0
 11 15  1  0  0  0  0
 12  9  1  0  0  0  0
 13 10  1  0  0  0  0
 16 11  1  0  0  0  0
 17  1  1  0  0  0  0
 18 23  1  0  0  0  0
 18 25  1  1  0  0  0
 19 18  1  0  0  0  0
 19 17  1  1  0  0  0
 20 19  1  0  0  0  0
 20 22  1  0  0  0  0
 21 20  1  0  0  0  0
 22 23  1  0  0  0  0
 24 23  1  0  0  0  0
 26 25  1  0  0  0  0
M  END
>  <minimizedAffinity>
-4.4463315

$$$$

 OpenBabel03242523493D

 26 28  0  0  1  0  0  0  0  0999 V2000
   37.7480   31.1880   39.3430 C   0  0  0  0  0  0  0  0  0  0  0  0
   37.0670   30.2600   38.5390 C   0  0  0  0  0  0  0  0  0  0  0  0
   35.9440   29.6170   39.0640 C   0  0  0  0  0  0  0  0  0  0  0  0
   35.5550   29.9230   40.3440 N   0  0  0  0  0  0  0  0  0  0  0  0
   36.2340   30.8200   41.0850 C   0  0  0  0  0  0  0  0  0  0  0  0
   37.3210   31.4470   40.5870 N   0  0  0  0  0  0  0  0  0  0  0  0
   37.2750   29.9500   37.5490 H   0  0  0  0  0  0  0  0  0  0  0  0
   35.9020   31.0480   42.1060 H   0  0  0  0  0  0  0  0  0  0  0  0
   35.1560   28.6350   38.2680 C   0  0  0  0  0  0  0  0  0  0  0  0
   33.6830   28.8630   38.0980 C   0  0  0  0  0  0  0  0  0  0  0  0
   34.6850   28.9930   36.9410 C   0  0  0  0  0  0  0  0  0  0  0  0
   35.4450   27.5900   38.4970 H   0  0  0  0  0  0  0  0  0  0  0  0
   33.0270   27.9760   38.0200 H   0  0  0  0  0  0  0  0  0  0  0  0
   33.2360   29.7710   38.5240 H   0  0  0  0  0  0  0  0  0  0  0  0
   34.7350   30.0250   36.5350 H   0  0  0  0  0  0  0  0  0  0  0  0
   34.5910   28.2530   36.1070 H   0  0  0  0  0  0  0  0  0  0  0  0
   38.8260   31.7870   38.8120 O   0  0  0  0  0  0  0  0  0  0  0  0
   40.7280   32.0830   37.4840 C   0  0  2  0  0  3  0  0  0  0  0  0
   40.0800   31.2600   38.6050 C   0  0  1  0  0  3  0  0  0  0  0  0
   40.9540   31.6990   39.7740 C   0  0  0  0  0  3  0  0  0  0  0  0
   41.9740   31.2960   39.5840 H   0  0  0  0  0  0  0  0  0  0  0  0
   40.9270   33.0850   39.5930 O   0  0  0  0  0  0  0  0  0  0  0  0
   41.1720   33.2950   38.2450 C   0  0  0  0  0  3  0  0  0  0  0  0
   42.2770   33.3980   38.0910 H   0  0  0  0  0  0  0  0  0  0  0  0
   39.7190   32.4140   36.5740 O   0  0  0  0  0  0  0  0  0  0  0  0
   40.0510   32.4800   35.6440 H   0  0  0  0  0  0  0  0  0  0  0  0
  1  6  1  0  0  0  0
  2  3  1  0  0  0  0
  2  1  2  0  0  0  0
  3  4  2  0  0  0  0
  4  5  1  0  0  0  0
  5  8  1  0  0  0  0
  6  5  2  0  0  0  0
  7  2  1  0  0  0  0
  9 12  1  0  0  0  0
  9  3  1  0  0  0  0
 10  9  1  0  0  0  0
 10 14  1  0  0  0  0
 11 10  1  0  0  0  0
 11  9  1  0  0  0  0
 13 10  1  0  0  0  0
 15 11  1  0  0  0  0
 16 11  1  0  0  0  0
 17  1  1  0  0  0  0
 18 25  1  6  0  0  0
 18 23  1  0  0  0  0
 18 19  1  0  0  0  0
 19 17  1  1  0  0  0
 19 20  1  0  0  0  0
 21 20  1  0  0  0  0
 22 20  1  0  0  0  0
 23 22  1  0  0  0  0
 24 23  1  0  0  0  0
 26 25  1  0  0  0  0
M  END
>  <minimizedAffinity>
-4.43527126

$$$$

 OpenBabel03242523493D

 26 28  0  0  1  0  0  0  0  0999 V2000
   37.3610   28.8220   41.3230 C   0  0  0  0  0  0  0  0  0  0  0  0
   37.1180   27.4440   41.2030 C   0  0  0  0  0  0  0  0  0  0  0  0
   37.1350   26.6590   42.3580 C   0  0  0  0  0  0  0  0  0  0  0  0
   37.3890   27.2700   43.5600 N   0  0  0  0  0  0  0  0  0  0  0  0
   37.6180   28.5960   43.6350 C   0  0  0  0  0  0  0  0  0  0  0  0
   37.6040   29.3640   42.5260 N   0  0  0  0  0  0  0  0  0  0  0  0
   36.9120   26.8730   40.3380 H   0  0  0  0  0  0  0  0  0  0  0  0
   37.8180   29.0610   44.6090 H   0  0  0  0  0  0  0  0  0  0  0  0
   36.8670   25.1950   42.3170 C   0  0  0  0  0  0  0  0  0  0  0  0
   36.7820   24.5170   40.9810 C   0  0  0  0  0  0  0  0  0  0  0  0
   37.9340   24.2740   41.9670 C   0  0  0  0  0  0  0  0  0  0  0  0
   36.0850   24.8960   43.0440 H   0  0  0  0  0  0  0  0  0  0  0  0
   36.0950   23.6550   40.8800 H   0  0  0  0  0  0  0  0  0  0  0  0
   36.9670   25.1080   40.0750 H   0  0  0  0  0  0  0  0  0  0  0  0
   38.9150   24.6030   41.5640 H   0  0  0  0  0  0  0  0  0  0  0  0
   38.0200   23.2450   42.4000 H   0  0  0  0  0  0  0  0  0  0  0  0
   37.3410   29.5500   40.1960 O   0  0  0  0  0  0  0  0  0  0  0  0
   36.9120   31.7640   39.5720 C   0  0  2  0  0  3  0  0  0  0  0  0
   36.3300   30.3510   39.7160 C   0  0  1  0  0  3  0  0  0  0  0  0
   36.1420   30.0080   38.2420 C   0  0  0  0  0  3  0  0  0  0  0  0
   35.3470   30.6800   37.8520 H   0  0  0  0  0  0  0  0  0  0  0  0
   37.3940   30.3790   37.7430 O   0  0  0  0  0  0  0  0  0  0  0  0
   37.6580   31.6300   38.2790 C   0  0  0  0  0  3  0  0  0  0  0  0
   37.2610   32.4120   37.5830 H   0  0  0  0  0  0  0  0  0  0  0  0
   37.7980   31.9590   40.6350 O   0  0  0  0  0  0  0  0  0  0  0  0
   37.8360   32.9020   40.9320 H   0  0  0  0  0  0  0  0  0  0  0  0
  1  6  1  0  0  0  0
  2  1  2  0  0  0  0
  2  3  1  0  0  0  0
  3  4  2  0  0  0  0
  4  5  1  0  0  0  0
  5  8  1  0  0  0  0
  6  5  2  0  0  0  0
  7  2  1  0  0  0  0
  9  3  1  0  0  0  0
  9 12  1  0  0  0  0
 10 11  1  0  0  0  0
 10  9  1  0  0  0  0
 11  9  1  0  0  0  0
 11 16  1  0  0  0  0
 13 10  1  0  0  0  0
 14 10  1  0  0  0  0
 15 11  1  0  0  0  0
 17  1  1  0  0  0  0
 18 19  1  0  0  0  0
 18 25  1  1  0  0  0
 19 17  1  6  0  0  0
 20 19  1  0  0  0  0
 21 20  1  0  0  0  0
 22 20  1  0  0  0  0
 22 23  1  0  0  0  0
 23 18  1  0  0  0  0
 24 23  1  0  0  0  0
 25 26  1  0  0  0  0
M  END
>  <minimizedAffinity>
-4.37409735

$$$$

 OpenBabel03242523493D

 26 28  0  0  1  0  0  0  0  0999 V2000
   38.0730   30.7670   41.0420 C   0  0  0  0  0  0  0  0  0  0  0  0
   37.0760   30.4720   40.0980 C   0  0  0  0  0  0  0  0  0  0  0  0
   36.2050   29.4110   40.3560 C   0  0  0  0  0  0  0  0  0  0  0  0
   36.3630   28.7040   41.5200 N   0  0  0  0  0  0  0  0  0  0  0  0
   37.3320   29.0170   42.4030 C   0  0  0  0  0  0  0  0  0  0  0  0
   38.1790   30.0400   42.1640 N   0  0  0  0  0  0  0  0  0  0  0  0
   36.8640   30.9460   39.1770 H   0  0  0  0  0  0  0  0  0  0  0  0
   37.4370   28.4360   43.3280 H   0  0  0  0  0  0  0  0  0  0  0  0
   35.1090   29.0480   39.4140 C   0  0  0  0  0  0  0  0  0  0  0  0
   35.2680   29.3870   37.9610 C   0  0  0  0  0  0  0  0  0  0  0  0
   35.2890   27.9440   38.4870 C   0  0  0  0  0  0  0  0  0  0  0  0
   34.1090   29.2670   39.8390 H   0  0  0  0  0  0  0  0  0  0  0  0
   34.3570   29.6360   37.3850 H   0  0  0  0  0  0  0  0  0  0  0  0
   36.2060   29.8490   37.6250 H   0  0  0  0  0  0  0  0  0  0  0  0
   36.2650   27.4440   38.3180 H   0  0  0  0  0  0  0  0  0  0  0  0
   34.4510   27.2770   38.1630 H   0  0  0  0  0  0  0  0  0  0  0  0
   38.8970   31.7900   40.7670 O   0  0  0  0  0  0  0  0  0  0  0  0
   39.2520   34.0370   40.2230 C   0  0  2  0  0  3  0  0  0  0  0  0
   38.8590   32.6510   39.6940 C   0  0  1  0  0  3  0  0  0  0  0  0
   40.0830   32.3570   38.8340 C   0  0  0  0  0  3  0  0  0  0  0  0
   40.0640   33.0760   37.9870 H   0  0  0  0  0  0  0  0  0  0  0  0
   41.1010   32.6800   39.7370 O   0  0  0  0  0  0  0  0  0  0  0  0
   40.7430   33.9020   40.2860 C   0  0  0  0  0  3  0  0  0  0  0  0
   41.1790   34.7210   39.6570 H   0  0  0  0  0  0  0  0  0  0  0  0
   38.7130   34.1610   41.5070 O   0  0  0  0  0  0  0  0  0  0  0  0
   38.4660   35.0930   41.7280 H   0  0  0  0  0  0  0  0  0  0  0  0
  1  6  1  0  0  0  0
  2  3  1  0  0  0  0
  2  1  2  0  0  0  0
  3  4  2  0  0  0  0
  4  5  1  0  0  0  0
  5  8  1  0  0  0  0
  6  5  2  0  0  0  0
  7  2  1  0  0  0  0
  9 12  1  0  0  0  0
  9  3  1  0  0  0  0
 10 11  1  0  0  0  0
 10  9  1  0  0  0  0
 11  9  1  0  0  0  0
 13 10  1  0  0  0  0
 14 10  1  0  0  0  0
 15 11  1  0  0  0  0
 16 11  1  0  0  0  0
 17  1  1  0  0  0  0
 18 23  1  0  0  0  0
 18 25  1  1  0  0  0
 19 18  1  0  0  0  0
 19 17  1  1  0  0  0
 20 19  1  0  0  0  0
 20 22  1  0  0  0  0
 21 20  1  0  0  0  0
 22 23  1  0  0  0  0
 24 23  1  0  0  0  0
 25 26  1  0  0  0  0
M  END
>  <minimizedAffinity>
-4.29078579

$$$$

 OpenBabel03242523493D

 26 28  0  0  1  0  0  0  0  0999 V2000
   37.1710   29.8570   40.5290 C   0  0  0  0  0  0  0  0  0  0  0  0
   37.6340   31.1650   40.7390 C   0  0  0  0  0  0  0  0  0  0  0  0
   37.5680   32.0750   39.6810 C   0  0  0  0  0  0  0  0  0  0  0  0
   37.0520   31.6500   38.4840 N   0  0  0  0  0  0  0  0  0  0  0  0
   36.6160   30.3850   38.3200 C   0  0  0  0  0  0  0  0  0  0  0  0
   36.6760   29.4970   39.3350 N   0  0  0  0  0  0  0  0  0  0  0  0
   38.0470   31.5990   41.6100 H   0  0  0  0  0  0  0  0  0  0  0  0
   36.2070   30.0690   37.3530 H   0  0  0  0  0  0  0  0  0  0  0  0
   38.0210   33.4860   39.8300 C   0  0  0  0  0  0  0  0  0  0  0  0
   38.8110   33.8630   41.0490 C   0  0  0  0  0  0  0  0  0  0  0  0
   39.4220   33.8200   39.6400 C   0  0  0  0  0  0  0  0  0  0  0  0
   37.2300   34.2080   39.5440 H   0  0  0  0  0  0  0  0  0  0  0  0
   38.6900   34.8880   41.4480 H   0  0  0  0  0  0  0  0  0  0  0  0
   39.0740   33.0800   41.7720 H   0  0  0  0  0  0  0  0  0  0  0  0
   40.2230   33.0550   39.5480 H   0  0  0  0  0  0  0  0  0  0  0  0
   39.7650   34.7930   39.2080 H   0  0  0  0  0  0  0  0  0  0  0  0
   37.2490   29.0030   41.5620 O   0  0  0  0  0  0  0  0  0  0  0  0
   37.4560   28.0320   43.6800 C   0  0  2  0  0  3  0  0  0  0  0  0
   37.9150   29.1670   42.7550 C   0  0  1  0  0  3  0  0  0  0  0  0
   39.3600   28.7360   42.5300 C   0  0  0  0  0  3  0  0  0  0  0  0
   39.8840   28.8410   43.5050 H   0  0  0  0  0  0  0  0  0  0  0  0
   39.1670   27.3880   42.2120 O   0  0  0  0  0  0  0  0  0  0  0  0
   38.2910   26.8970   43.1670 C   0  0  0  0  0  3  0  0  0  0  0  0
   38.8850   26.5040   44.0330 H   0  0  0  0  0  0  0  0  0  0  0  0
   36.1020   27.8040   43.4190 O   0  0  0  0  0  0  0  0  0  0  0  0
   35.6050   27.5010   44.2180 H   0  0  0  0  0  0  0  0  0  0  0  0
  1  2  1  0  0  0  0
  1 17  1  0  0  0  0
  2  7  1  0  0  0  0
  3  9  1  0  0  0  0
  3  2  2  0  0  0  0
  4  3  1  0  0  0  0
  5  4  2  0  0  0  0
  5  6  1  0  0  0  0
  6  1  2  0  0  0  0
  8  5  1  0  0  0  0
  9 10  1  0  0  0  0
 10 13  1  0  0  0  0
 10 14  1  0  0  0  0
 11  9  1  0  0  0  0
 11 10  1  0  0  0  0
 12  9  1  0  0  0  0
 15 11  1  0  0  0  0
 16 11  1  0  0  0  0
 18 25  1  6  0  0  0
 19 17  1  6  0  0  0
 19 18  1  0  0  0  0
 20 19  1  0  0  0  0
 20 21  1  0  0  0  0
 22 20  1  0  0  0  0
 22 23  1  0  0  0  0
 23 18  1  0  0  0  0
 23 24  1  0  0  0  0
 25 26  1  0  0  0  0
M  END
>  <minimizedAffinity>
-4.25797129

$$$$
