
 OpenBabel03252507543D

 44 47  0  0  1  0  0  0  0  0999 V2000
   47.0580   34.8110   41.9510 C   0  0  2  0  0  0  0  0  0  0  0  0
   46.2980   34.1830   40.7810 C   0  0  0  0  0  0  0  0  0  0  0  0
   47.5040   33.9920   39.8350 C   0  0  0  0  0  0  0  0  0  0  0  0
   48.6410   33.6180   40.7330 C   0  0  1  0  0  0  0  0  0  0  0  0
   48.1300   33.7730   42.1360 C   0  0  0  0  0  0  0  0  0  0  0  0
   47.4960   35.7590   41.6030 H   0  0  0  0  0  0  0  0  0  0  0  0
   45.8920   33.2180   41.0840 H   0  0  0  0  0  0  0  0  0  0  0  0
   45.5920   34.9070   40.3740 H   0  0  0  0  0  0  0  0  0  0  0  0
   47.2930   33.2660   39.0490 H   0  0  0  0  0  0  0  0  0  0  0  0
   47.6800   35.0080   39.3910 H   0  0  0  0  0  0  0  0  0  0  0  0
   49.5380   34.2550   40.5510 H   0  0  0  0  0  0  0  0  0  0  0  0
   47.7570   32.8530   42.5850 H   0  0  0  0  0  0  0  0  0  0  0  0
   48.9600   34.2410   42.7310 H   0  0  0  0  0  0  0  0  0  0  0  0
   44.5420   36.0230   44.4780 C   0  0  0  0  0  0  0  0  0  0  0  0
   45.2810   35.9890   43.2950 C   0  0  0  0  0  0  0  0  0  0  0  0
   46.1910   34.9500   43.1520 C   0  0  0  0  0  0  0  0  0  0  0  0
   46.3420   33.9890   44.1650 N   0  0  0  0  0  0  0  0  0  0  0  0
   45.5920   34.0790   45.2930 C   0  0  0  0  0  0  0  0  0  0  0  0
   44.6990   35.0900   45.4460 N   0  0  0  0  0  0  0  0  0  0  0  0
   43.8300   36.8290   44.6000 H   0  0  0  0  0  0  0  0  0  0  0  0
   45.1820   36.7180   42.5020 H   0  0  0  0  0  0  0  0  0  0  0  0
   45.7900   33.2880   46.0040 H   0  0  0  0  0  0  0  0  0  0  0  0
   49.1160   32.1900   40.5860 C   0  0  2  0  0  0  0  0  0  0  0  0
   49.8390   31.6410   41.7270 C   0  0  0  0  0  0  0  0  0  0  0  0
   50.5350   31.8650   40.4250 C   0  0  1  0  0  0  0  0  0  0  0  0
   48.3900   31.5390   40.0690 H   0  0  0  0  0  0  0  0  0  0  0  0
   50.1780   32.2910   42.5850 H   0  0  0  0  0  0  0  0  0  0  0  0
   49.6190   30.6150   42.0720 H   0  0  0  0  0  0  0  0  0  0  0  0
   51.2330   32.7020   40.2630 H   0  0  0  0  0  0  0  0  0  0  0  0
   50.8540   30.7220   39.6530 O   0  0  0  0  0  0  0  0  0  0  0  0
   51.7610   30.1550   37.2760 O   0  0  0  0  0  0  0  0  0  0  0  0
   51.7910   31.2170   38.3470 P   0  0  1  0  0  0  0  0  0  0  0  0
   51.1350   32.6480   37.6670 O   0  0  0  0  0  0  0  0  0  0  0  0
   50.2980   32.3660   37.2150 H   0  0  0  0  0  0  0  0  0  0  0  0
   53.3770   31.5460   38.7170 O   0  0  0  0  0  0  0  0  0  0  0  0
   53.5100   29.8690   40.4410 C   0  0  1  0  0  3  0  0  0  0  0  0
   54.0090   30.3800   39.0840 C   0  0  1  0  0  3  0  0  0  0  0  0
   53.6460   29.1870   38.2300 C   0  0  0  0  0  3  0  0  0  0  0  0
   52.5390   29.2020   38.0200 H   0  0  0  0  0  0  0  0  0  0  0  0
   53.8600   28.0620   39.0110 O   0  0  0  0  0  0  0  0  0  0  0  0
   53.9760   28.4360   40.3320 C   0  0  0  0  0  3  0  0  0  0  0  0
   53.5200   27.7660   41.0600 H   0  0  0  0  0  0  0  0  0  0  0  0
   54.1350   30.5420   41.4860 O   0  0  0  0  0  0  0  0  0  0  0  0
   53.4980   31.2260   41.8150 H   0  0  0  0  0  0  0  0  0  0  0  0
  1  6  1  6  0  0  0
  1  5  1  0  0  0  0
  1 16  1  0  0  0  0
  2  7  1  0  0  0  0
  2  1  1  0  0  0  0
  3  4  1  0  0  0  0
  3  2  1  0  0  0  0
  4 11  1  6  0  0  0
  4  5  1  0  0  0  0
  5 12  1  0  0  0  0
  5 13  1  0  0  0  0
  8  2  1  0  0  0  0
  9  3  1  0  0  0  0
 10  3  1  0  0  0  0
 14 20  1  0  0  0  0
 14 19  1  0  0  0  0
 15 14  2  0  0  0  0
 16 15  1  0  0  0  0
 16 17  2  0  0  0  0
 17 18  1  0  0  0  0
 18 19  2  0  0  0  0
 18 22  1  0  0  0  0
 21 15  1  0  0  0  0
 23 26  1  6  0  0  0
 23  4  1  0  0  0  0
 23 24  1  0  0  0  0
 24 28  1  0  0  0  0
 24 27  1  0  0  0  0
 25 29  1  6  0  0  0
 25 23  1  0  0  0  0
 25 24  1  0  0  0  0
 30 25  1  0  0  0  0
 32 31  2  6  0  0  0
 32 35  1  0  0  0  0
 32 30  1  0  0  0  0
 33 32  1  0  0  0  0
 34 33  1  0  0  0  0
 36 43  1  1  0  0  0
 37 35  1  6  0  0  0
 37 36  1  0  0  0  0
 38 40  1  0  0  0  0
 38 37  1  0  0  0  0
 39 38  1  0  0  0  0
 40 41  1  0  0  0  0
 41 36  1  0  0  0  0
 41 42  1  0  0  0  0
 43 44  1  0  0  0  0
M  END
>  <minimizedAffinity>
-5.28739834

>  <minimizedRMSD>
0.569454849

$$$$
