
 OpenBabel03252502553D

 37 39  0  0  1  0  0  0  0  0999 V2000
   45.7500   29.9100   44.8160 Br  0  0  0  0  0  0  0  0  0  0  0  0
   45.6960   30.5870   46.6290 C   0  0  0  0  0  0  0  0  0  0  0  0
   46.3260   31.7900   46.8320 C   0  0  0  0  0  0  0  0  0  0  0  0
   46.2670   32.2460   48.1480 C   0  0  0  0  0  0  0  0  0  0  0  0
   45.6360   31.5620   49.1720 C   0  0  0  0  0  0  0  0  0  0  0  0
   45.0350   30.3750   48.8830 C   0  0  0  0  0  0  0  0  0  0  0  0
   45.0540   29.8640   47.6030 C   0  0  0  0  0  0  0  0  0  0  0  0
   46.7310   33.1890   48.4310 H   0  0  0  0  0  0  0  0  0  0  0  0
   45.6180   31.9610   50.1810 H   0  0  0  0  0  0  0  0  0  0  0  0
   44.5420   29.8520   49.7050 H   0  0  0  0  0  0  0  0  0  0  0  0
   47.0240   32.6140   45.8620 C   0  0  0  0  0  0  0  0  0  0  0  0
   47.4500   31.9980   45.0470 H   0  0  0  0  0  0  0  0  0  0  0  0
   47.9100   33.0730   46.3870 H   0  0  0  0  0  0  0  0  0  0  0  0
   44.5190   35.3220   45.3870 C   0  0  0  0  0  0  0  0  0  0  0  0
   44.7330   35.7030   44.0680 C   0  0  0  0  0  0  0  0  0  0  0  0
   45.7250   35.0380   43.3540 C   0  0  0  0  0  0  0  0  0  0  0  0
   46.4290   34.0610   43.9670 N   0  0  0  0  0  0  0  0  0  0  0  0
   46.2000   33.6990   45.2730 C   0  0  0  0  0  0  0  0  0  0  0  0
   45.2340   34.3620   45.9390 N   0  0  0  0  0  0  0  0  0  0  0  0
   43.7290   35.8770   45.8970 H   0  0  0  0  0  0  0  0  0  0  0  0
   44.2000   36.4760   43.5320 H   0  0  0  0  0  0  0  0  0  0  0  0
   45.9820   35.2520   42.3140 H   0  0  0  0  0  0  0  0  0  0  0  0
   44.4360   28.6490   47.3260 O   0  0  0  0  0  0  0  0  0  0  0  0
   44.4790   26.0670   46.9490 O   0  0  0  0  0  0  0  0  0  0  0  0
   44.9990   27.1510   47.8740 P   0  0  2  0  0  0  0  0  0  0  0  0
   44.4260   26.9300   49.4310 O   0  0  0  0  0  0  0  0  0  0  0  0
   43.6760   26.2910   49.5050 H   0  0  0  0  0  0  0  0  0  0  0  0
   46.6890   27.0780   47.8400 O   0  0  0  0  0  0  0  0  0  0  0  0
   48.6850   25.9180   47.5770 C   0  0  1  0  0  0  0  0  0  0  0  0
   47.1740   25.8020   47.7820 C   0  0  1  0  0  0  0  0  0  0  0  0
   47.0870   25.0570   49.0920 C   0  0  0  0  0  0  0  0  0  0  0  0
   46.4640   24.1270   48.9650 H   0  0  0  0  0  0  0  0  0  0  0  0
   48.3730   24.5800   49.3420 O   0  0  0  0  0  0  0  0  0  0  0  0
   49.1530   25.6910   49.0180 C   0  0  0  0  0  0  0  0  0  0  0  0
   48.7960   26.5280   49.6750 H   0  0  0  0  0  0  0  0  0  0  0  0
   49.1210   24.8420   46.8300 O   0  0  0  0  0  0  0  0  0  0  0  0
   48.8200   24.0250   47.3360 H   0  0  0  0  0  0  0  0  0  0  0  0
  1  2  1  0  0  0  0
  2  3  2  0  0  0  0
  2  7  1  0  0  0  0
  3  4  1  0  0  0  0
  4  8  1  0  0  0  0
  4  5  2  0  0  0  0
  5  9  1  0  0  0  0
  6  5  1  0  0  0  0
  6 10  1  0  0  0  0
  7  6  2  0  0  0  0
 11 13  1  0  0  0  0
 11  3  1  0  0  0  0
 12 11  1  0  0  0  0
 14 20  1  0  0  0  0
 14 19  1  0  0  0  0
 15 14  2  0  0  0  0
 16 17  2  0  0  0  0
 16 15  1  0  0  0  0
 17 18  1  0  0  0  0
 18 11  1  0  0  0  0
 18 19  2  0  0  0  0
 21 15  1  0  0  0  0
 22 16  1  0  0  0  0
 23  7  1  0  0  0  0
 23 25  1  0  0  0  0
 25 24  2  6  0  0  0
 25 26  1  0  0  0  0
 26 27  1  0  0  0  0
 28 25  1  0  0  0  0
 29 36  1  6  0  0  0
 29 30  1  0  0  0  0
 29 34  1  0  0  0  0
 30 28  1  1  0  0  0
 30 31  1  0  0  0  0
 31 33  1  0  0  0  0
 32 31  1  0  0  0  0
 34 33  1  0  0  0  0
 34 35  1  0  0  0  0
 36 37  1  0  0  0  0
M  END
>  <minimizedAffinity>
-5.21875238

>  <minimizedRMSD>
1.42634141

$$$$
