
 OpenBabel03252509313D

 27 28  0  0  1  0  0  0  0  0999 V2000
   49.3350   32.1880   42.7770 O   0  0  0  0  0  0  0  0  0  0  0  0
   47.9320   32.5800   43.1870 P   0  0  2  0  0  0  0  0  0  0  0  0
   47.7580   34.2220   43.4910 O   0  0  0  0  0  0  0  0  0  0  0  0
   47.0560   34.3420   44.1770 H   0  0  0  0  0  0  0  0  0  0  0  0
   47.5450   31.7540   44.6170 O   0  0  0  0  0  0  0  0  0  0  0  0
   46.8320   32.6400   45.4070 C   0  0  0  0  0  0  0  0  0  0  0  0
   47.3060   33.6340   45.4880 H   0  0  0  0  0  0  0  0  0  0  0  0
   45.8190   32.8420   44.9580 H   0  0  0  0  0  0  0  0  0  0  0  0
   47.2970   30.6520   48.5350 C   0  0  0  0  0  0  0  0  0  0  0  0
   47.4990   31.1430   47.2350 C   0  0  0  0  0  0  0  0  0  0  0  0
   46.6310   32.1200   46.7650 C   0  0  0  0  0  0  0  0  0  0  0  0
   45.6190   32.5650   47.5830 N   0  0  0  0  0  0  0  0  0  0  0  0
   45.4550   32.0650   48.8370 C   0  0  0  0  0  0  0  0  0  0  0  0
   46.2860   31.1230   49.3000 N   0  0  0  0  0  0  0  0  0  0  0  0
   47.9290   29.8930   48.9700 H   0  0  0  0  0  0  0  0  0  0  0  0
   48.3190   30.7500   46.6360 H   0  0  0  0  0  0  0  0  0  0  0  0
   44.6280   32.4750   49.4110 H   0  0  0  0  0  0  0  0  0  0  0  0
   46.8880   32.0580   41.9770 O   0  0  0  0  0  0  0  0  0  0  0  0
   45.2700   33.5710   41.1610 C   0  0  2  0  0  3  0  0  0  0  0  0
   46.6340   32.9450   40.9960 C   0  0  2  0  0  3  0  0  0  0  0  0
   46.6960   32.4810   39.5810 C   0  0  0  0  0  3  0  0  0  0  0  0
   47.6760   32.5850   39.1190 H   0  0  0  0  0  0  0  0  0  0  0  0
   45.8090   33.3960   38.9670 O   0  0  0  0  0  0  0  0  0  0  0  0
   44.6610   33.3480   39.7870 C   0  0  0  0  0  3  0  0  0  0  0  0
   43.9680   34.1250   39.4740 H   0  0  0  0  0  0  0  0  0  0  0  0
   45.3510   34.9360   41.4590 O   0  0  0  0  0  0  0  0  0  0  0  0
   45.4460   35.0770   42.4220 H   0  0  0  0  0  0  0  0  0  0  0  0
  2  1  2  6  0  0  0
  2  3  1  0  0  0  0
  2  5  1  0  0  0  0
  3  4  1  0  0  0  0
  5  6  1  0  0  0  0
  6  7  1  0  0  0  0
  6 11  1  0  0  0  0
  8  6  1  0  0  0  0
  9 15  1  0  0  0  0
  9 14  1  0  0  0  0
 10  9  2  0  0  0  0
 11 10  1  0  0  0  0
 11 12  2  0  0  0  0
 12 13  1  0  0  0  0
 13 14  2  0  0  0  0
 13 17  1  0  0  0  0
 16 10  1  0  0  0  0
 18  2  1  0  0  0  0
 19 26  1  6  0  0  0
 20 19  1  0  0  0  0
 20 18  1  1  0  0  0
 21 20  1  0  0  0  0
 22 21  1  0  0  0  0
 23 21  1  0  0  0  0
 23 24  1  0  0  0  0
 24 19  1  0  0  0  0
 25 24  1  0  0  0  0
 26 27  1  0  0  0  0
M  END
>  <minimizedAffinity>
-3.52105379

>  <minimizedRMSD>
4.64556599

$$$$
