
 OpenBabel03252508073D

 44 47  0  0  1  0  0  0  0  0999 V2000
   45.1820   35.5880   43.1160 C   0  0  0  0  0  0  0  0  0  0  0  0
   45.5400   34.2500   43.1840 C   0  0  0  0  0  0  0  0  0  0  0  0
   45.4390   33.5700   44.3730 C   0  0  0  0  0  0  0  0  0  0  0  0
   44.9700   34.2830   45.4610 N   0  0  0  0  0  0  0  0  0  0  0  0
   44.6270   35.5660   45.3890 C   0  0  0  0  0  0  0  0  0  0  0  0
   44.7390   36.2080   44.2070 N   0  0  0  0  0  0  0  0  0  0  0  0
   45.2610   36.1350   42.1710 H   0  0  0  0  0  0  0  0  0  0  0  0
   44.2650   36.1040   46.2490 H   0  0  0  0  0  0  0  0  0  0  0  0
   45.7620   32.2150   44.6070 C   0  0  0  0  0  0  0  0  0  0  0  0
   45.4120   31.1670   43.7510 C   0  0  0  0  0  0  0  0  0  0  0  0
   45.6650   29.8440   44.0080 C   0  0  0  0  0  0  0  0  0  0  0  0
   46.3020   29.4880   45.1710 C   0  0  0  0  0  0  0  0  0  0  0  0
   46.6670   30.5360   46.0550 C   0  0  0  0  0  0  0  0  0  0  0  0
   47.3000   30.1930   47.2230 C   0  0  0  0  0  0  0  0  0  0  0  0
   47.6840   31.1620   48.1290 C   0  0  0  0  0  0  0  0  0  0  0  0
   47.4220   32.5140   47.8440 C   0  0  0  0  0  0  0  0  0  0  0  0
   46.7700   32.8160   46.6350 C   0  0  0  0  0  0  0  0  0  0  0  0
   46.3990   31.8320   45.7590 C   0  0  0  0  0  0  0  0  0  0  0  0
   44.9070   31.4440   42.8260 H   0  0  0  0  0  0  0  0  0  0  0  0
   45.3490   29.1110   43.2690 H   0  0  0  0  0  0  0  0  0  0  0  0
   46.5150   28.4530   45.4030 H   0  0  0  0  0  0  0  0  0  0  0  0
   47.5010   29.1370   47.4340 H   0  0  0  0  0  0  0  0  0  0  0  0
   48.1740   30.8190   49.0240 H   0  0  0  0  0  0  0  0  0  0  0  0
   47.7570   33.1840   48.6040 H   0  0  0  0  0  0  0  0  0  0  0  0
   46.6820   33.8810   46.5910 H   0  0  0  0  0  0  0  0  0  0  0  0
   45.9840   33.6620   42.0320 O   0  0  0  0  0  0  0  0  0  0  0  0
   48.1530   32.4000   41.2840 O   0  0  0  0  0  0  0  0  0  0  0  0
   47.5730   33.7590   41.4520 P   0  0  1  0  0  0  0  0  0  0  0  0
   47.6150   34.5070   39.9330 O   0  0  0  0  0  0  0  0  0  0  0  0
   46.3930   33.1490   38.3620 C   0  0  1  0  0  3  0  0  0  0  0  0
   47.7530   33.6060   38.9070 C   0  0  1  0  0  3  0  0  0  0  0  0
   48.3300   34.2100   37.6440 C   0  0  0  0  0  3  0  0  0  0  0  0
   47.8470   35.2270   37.5700 H   0  0  0  0  0  0  0  0  0  0  0  0
   47.8220   33.4940   36.5710 O   0  0  0  0  0  0  0  0  0  0  0  0
   46.8920   32.5970   37.0380 C   0  0  0  0  0  3  0  0  0  0  0  0
   46.0860   32.3530   36.3440 H   0  0  0  0  0  0  0  0  0  0  0  0
   45.8500   32.1540   39.1660 O   0  0  0  0  0  0  0  0  0  0  0  0
   45.2010   32.5970   39.7890 H   0  0  0  0  0  0  0  0  0  0  0  0
   48.4710   34.6780   42.5310 O   0  0  0  0  0  0  0  0  0  0  0  0
   49.6870   35.2950   42.2830 C   0  0  0  0  0  0  0  0  0  0  0  0
   49.3880   36.3800   41.7510 O   0  0  0  0  0  0  0  0  0  0  0  0
   50.7820   34.4670   42.7230 N   0  0  0  0  0  0  0  0  0  0  0  0
   50.8990   34.3980   43.7680 H   0  0  0  0  0  0  0  0  0  0  0  0
   51.4800   33.9230   42.1700 H   0  0  0  0  0  0  0  0  0  0  0  0
  1  2  2  0  0  0  0
  1  6  1  0  0  0  0
  2  3  1  0  0  0  0
  3  9  1  0  0  0  0
  3  4  2  0  0  0  0
  5  4  1  0  0  0  0
  5  8  1  0  0  0  0
  6  5  2  0  0  0  0
  7  1  1  0  0  0  0
  9 18  1  0  0  0  0
 10 11  1  0  0  0  0
 10  9  2  0  0  0  0
 11 12  2  0  0  0  0
 12 21  1  0  0  0  0
 12 13  1  0  0  0  0
 13 14  1  0  0  0  0
 14 22  1  0  0  0  0
 14 15  2  0  0  0  0
 15 23  1  0  0  0  0
 16 15  1  0  0  0  0
 16 24  1  0  0  0  0
 17 16  2  0  0  0  0
 18 13  2  0  0  0  0
 18 17  1  0  0  0  0
 19 10  1  0  0  0  0
 20 11  1  0  0  0  0
 25 17  1  0  0  0  0
 26  2  1  0  0  0  0
 28 27  2  6  0  0  0
 28 26  1  0  0  0  0
 28 39  1  0  0  0  0
 29 28  1  0  0  0  0
 30 31  1  0  0  0  0
 30 37  1  1  0  0  0
 31 29  1  1  0  0  0
 32 31  1  0  0  0  0
 33 32  1  0  0  0  0
 34 35  1  0  0  0  0
 34 32  1  0  0  0  0
 35 30  1  0  0  0  0
 36 35  1  0  0  0  0
 37 38  1  0  0  0  0
 40 39  1  0  0  0  0
 40 42  1  0  0  0  0
 41 40  2  0  0  0  0
 42 43  1  0  0  0  0
 44 42  1  0  0  0  0
M  END
>  <minimizedAffinity>
-6.32677317

>  <minimizedRMSD>
0.511698902

$$$$
