
 OpenBabel03242522003D

 33 35  0  0  1  0  0  0  0  0999 V2000
   39.5410   27.5640   42.9440 C   0  0  0  0  0  0  0  0  0  0  0  0
   38.5350   27.3340   43.8520 C   0  0  0  0  0  0  0  0  0  0  0  0
   37.2150   27.7400   43.6670 C   0  0  0  0  0  0  0  0  0  0  0  0
   36.8890   28.4100   42.5140 C   0  0  0  0  0  0  0  0  0  0  0  0
   37.8910   28.6250   41.6320 C   0  0  0  0  0  0  0  0  0  0  0  0
   39.1500   28.2300   41.8240 N   0  0  0  0  0  0  0  0  0  0  0  0
   38.8800   26.7960   44.7420 H   0  0  0  0  0  0  0  0  0  0  0  0
   36.5850   27.4550   44.5120 H   0  0  0  0  0  0  0  0  0  0  0  0
   35.8450   28.6490   42.5690 H   0  0  0  0  0  0  0  0  0  0  0  0
   43.2270   27.3800   43.6990 C   0  0  0  0  0  0  0  0  0  0  0  0
   41.9600   27.9520   43.5390 C   0  0  0  0  0  0  0  0  0  0  0  0
   40.9190   27.1470   43.1580 C   0  0  0  0  0  0  0  0  0  0  0  0
   41.1820   25.8150   42.9540 N   0  0  0  0  0  0  0  0  0  0  0  0
   42.4100   25.2820   43.1130 C   0  0  0  0  0  0  0  0  0  0  0  0
   43.4260   26.0700   43.4850 N   0  0  0  0  0  0  0  0  0  0  0  0
   44.0340   28.0380   44.0010 H   0  0  0  0  0  0  0  0  0  0  0  0
   41.7320   29.0050   43.6950 H   0  0  0  0  0  0  0  0  0  0  0  0
   42.4750   24.2130   42.9170 H   0  0  0  0  0  0  0  0  0  0  0  0
   37.5840   29.2970   40.4630 O   0  0  0  0  0  0  0  0  0  0  0  0
   37.0090   31.4440   39.0290 O   0  0  0  0  0  0  0  0  0  0  0  0
   37.1370   30.9510   40.4430 P   0  0  1  0  0  0  0  0  0  0  0  0
   35.6520   31.1070   41.2420 O   0  0  0  0  0  0  0  0  0  0  0  0
   35.0100   31.6670   40.7670 H   0  0  0  0  0  0  0  0  0  0  0  0
   38.3620   31.8160   41.2400 O   0  0  0  0  0  0  0  0  0  0  0  0
   38.8840   33.9550   40.3000 C   0  0  2  0  0  3  0  0  0  0  0  0
   39.1100   32.4520   40.2450 C   0  0  1  0  0  3  0  0  0  0  0  0
   40.5860   32.3690   40.5040 C   0  0  0  0  0  3  0  0  0  0  0  0
   41.0010   31.4510   40.0470 H   0  0  0  0  0  0  0  0  0  0  0  0
   41.1580   33.5200   39.9850 O   0  0  0  0  0  0  0  0  0  0  0  0
   40.1870   34.4760   39.8060 C   0  0  0  0  0  3  0  0  0  0  0  0
   40.0530   34.7250   38.7200 H   0  0  0  0  0  0  0  0  0  0  0  0
   38.6860   34.2970   41.6340 O   0  0  0  0  0  0  0  0  0  0  0  0
   39.4490   33.9720   42.1480 H   0  0  0  0  0  0  0  0  0  0  0  0
  1 12  1  0  0  0  0
  1  2  1  0  0  0  0
  2  7  1  0  0  0  0
  3  2  2  0  0  0  0
  3  8  1  0  0  0  0
  4  9  1  0  0  0  0
  4  3  1  0  0  0  0
  5  6  1  0  0  0  0
  5  4  2  0  0  0  0
  6  1  2  0  0  0  0
 10 16  1  0  0  0  0
 11 17  1  0  0  0  0
 11 10  1  0  0  0  0
 12 11  2  0  0  0  0
 13 14  2  0  0  0  0
 13 12  1  0  0  0  0
 14 15  1  0  0  0  0
 15 10  2  0  0  0  0
 18 14  1  0  0  0  0
 19  5  1  0  0  0  0
 21 20  2  6  0  0  0
 21 19  1  0  0  0  0
 21 24  1  0  0  0  0
 21 22  1  0  0  0  0
 23 22  1  0  0  0  0
 25 32  1  1  0  0  0
 26 25  1  0  0  0  0
 26 27  1  0  0  0  0
 26 24  1  1  0  0  0
 28 27  1  0  0  0  0
 29 27  1  0  0  0  0
 30 29  1  0  0  0  0
 30 25  1  0  0  0  0
 31 30  1  0  0  0  0
 32 33  1  0  0  0  0
M  END
>  <minimizedAffinity>
-6.04733849

$$$$

 OpenBabel03242522003D

 33 35  0  0  1  0  0  0  0  0999 V2000
   37.8370   28.7560   41.8360 C   0  0  0  0  0  0  0  0  0  0  0  0
   36.7270   28.1230   41.3290 C   0  0  0  0  0  0  0  0  0  0  0  0
   35.7030   28.7770   40.6480 C   0  0  0  0  0  0  0  0  0  0  0  0
   35.7980   30.1350   40.4670 C   0  0  0  0  0  0  0  0  0  0  0  0
   36.8960   30.7410   40.9700 C   0  0  0  0  0  0  0  0  0  0  0  0
   37.8690   30.1000   41.6210 N   0  0  0  0  0  0  0  0  0  0  0  0
   36.7310   27.0440   41.5170 H   0  0  0  0  0  0  0  0  0  0  0  0
   34.9220   28.0830   40.3330 H   0  0  0  0  0  0  0  0  0  0  0  0
   34.9150   30.4490   39.9440 H   0  0  0  0  0  0  0  0  0  0  0  0
   39.8950   26.3410   43.8660 C   0  0  0  0  0  0  0  0  0  0  0  0
   38.7700   26.8680   43.2210 C   0  0  0  0  0  0  0  0  0  0  0  0
   38.8920   28.0620   42.5590 C   0  0  0  0  0  0  0  0  0  0  0  0
   40.1190   28.6760   42.5680 N   0  0  0  0  0  0  0  0  0  0  0  0
   41.1920   28.1520   43.1950 C   0  0  0  0  0  0  0  0  0  0  0  0
   41.0720   26.9870   43.8410 N   0  0  0  0  0  0  0  0  0  0  0  0
   39.7730   25.3960   44.3830 H   0  0  0  0  0  0  0  0  0  0  0  0
   37.7890   26.3970   43.2040 H   0  0  0  0  0  0  0  0  0  0  0  0
   42.1010   28.7460   43.1200 H   0  0  0  0  0  0  0  0  0  0  0  0
   37.0120   32.1080   40.7970 O   0  0  0  0  0  0  0  0  0  0  0  0
   38.4050   34.3550   40.7320 O   0  0  0  0  0  0  0  0  0  0  0  0
   38.5180   32.8730   40.5100 P   0  0  1  0  0  0  0  0  0  0  0  0
   39.6570   32.2180   41.5780 O   0  0  0  0  0  0  0  0  0  0  0  0
   40.2120   32.8890   42.0180 H   0  0  0  0  0  0  0  0  0  0  0  0
   38.9410   32.5690   38.8930 O   0  0  0  0  0  0  0  0  0  0  0  0
   40.7830   31.8750   37.5310 C   0  0  2  0  0  3  0  0  0  0  0  0
   40.3340   32.4570   38.8620 C   0  0  1  0  0  3  0  0  0  0  0  0
   41.0110   33.7970   38.8380 C   0  0  0  0  0  3  0  0  0  0  0  0
   41.1930   34.1490   39.8710 H   0  0  0  0  0  0  0  0  0  0  0  0
   42.1860   33.6480   38.1190 O   0  0  0  0  0  0  0  0  0  0  0  0
   42.1200   32.5040   37.3600 C   0  0  0  0  0  3  0  0  0  0  0  0
   42.8850   31.7510   37.6880 H   0  0  0  0  0  0  0  0  0  0  0  0
   39.8940   32.3260   36.5590 O   0  0  0  0  0  0  0  0  0  0  0  0
   39.8680   33.3000   36.6000 H   0  0  0  0  0  0  0  0  0  0  0  0
  1 12  1  0  0  0  0
  2  7  1  0  0  0  0
  2  1  2  0  0  0  0
  3  2  1  0  0  0  0
  4  3  2  0  0  0  0
  4  5  1  0  0  0  0
  5  6  2  0  0  0  0
  6  1  1  0  0  0  0
  8  3  1  0  0  0  0
  9  4  1  0  0  0  0
 10 16  1  0  0  0  0
 11 10  2  0  0  0  0
 12 13  2  0  0  0  0
 12 11  1  0  0  0  0
 13 14  1  0  0  0  0
 14 15  2  0  0  0  0
 15 10  1  0  0  0  0
 17 11  1  0  0  0  0
 18 14  1  0  0  0  0
 19  5  1  0  0  0  0
 21 20  2  1  0  0  0
 21 19  1  0  0  0  0
 21 22  1  0  0  0  0
 22 23  1  0  0  0  0
 24 21  1  0  0  0  0
 25 32  1  6  0  0  0
 25 26  1  0  0  0  0
 26 24  1  6  0  0  0
 27 26  1  0  0  0  0
 27 28  1  0  0  0  0
 29 27  1  0  0  0  0
 30 25  1  0  0  0  0
 30 31  1  0  0  0  0
 30 29  1  0  0  0  0
 32 33  1  0  0  0  0
M  END
>  <minimizedAffinity>
-5.96878052

$$$$

 OpenBabel03242522003D

 33 35  0  0  1  0  0  0  0  0999 V2000
   37.4660   26.7440   41.6300 C   0  0  0  0  0  0  0  0  0  0  0  0
   37.2430   27.0330   42.9550 C   0  0  0  0  0  0  0  0  0  0  0  0
   37.3570   28.3090   43.5020 C   0  0  0  0  0  0  0  0  0  0  0  0
   37.7130   29.3480   42.6770 C   0  0  0  0  0  0  0  0  0  0  0  0
   37.9260   29.0460   41.3770 C   0  0  0  0  0  0  0  0  0  0  0  0
   37.8130   27.8170   40.8680 N   0  0  0  0  0  0  0  0  0  0  0  0
   36.9650   26.1500   43.5410 H   0  0  0  0  0  0  0  0  0  0  0  0
   37.1350   28.3100   44.5710 H   0  0  0  0  0  0  0  0  0  0  0  0
   37.7630   30.2320   43.2820 H   0  0  0  0  0  0  0  0  0  0  0  0
   37.7990   23.0710   40.8620 C   0  0  0  0  0  0  0  0  0  0  0  0
   38.0240   24.2890   41.5150 C   0  0  0  0  0  0  0  0  0  0  0  0
   37.3590   25.4030   41.0760 C   0  0  0  0  0  0  0  0  0  0  0  0
   36.5030   25.2590   40.0130 N   0  0  0  0  0  0  0  0  0  0  0  0
   36.2980   24.0770   39.3960 C   0  0  0  0  0  0  0  0  0  0  0  0
   36.9500   22.9900   39.8260 N   0  0  0  0  0  0  0  0  0  0  0  0
   38.3380   22.2050   41.2280 H   0  0  0  0  0  0  0  0  0  0  0  0
   38.6990   24.4220   42.3590 H   0  0  0  0  0  0  0  0  0  0  0  0
   35.5940   24.1090   38.5670 H   0  0  0  0  0  0  0  0  0  0  0  0
   38.2830   30.0780   40.5280 O   0  0  0  0  0  0  0  0  0  0  0  0
   36.0790   30.1280   39.0670 O   0  0  0  0  0  0  0  0  0  0  0  0
   37.1240   31.0150   39.6830 P   0  0  1  0  0  0  0  0  0  0  0  0
   36.3990   32.0780   40.7840 O   0  0  0  0  0  0  0  0  0  0  0  0
   35.4260   32.1130   40.7100 H   0  0  0  0  0  0  0  0  0  0  0  0
   37.9480   31.8590   38.4610 O   0  0  0  0  0  0  0  0  0  0  0  0
   40.1940   31.8190   37.6330 C   0  0  2  0  0  3  0  0  0  0  0  0
   39.2900   31.9130   38.8510 C   0  0  1  0  0  3  0  0  0  0  0  0
   39.6700   33.2600   39.3940 C   0  0  0  0  0  3  0  0  0  0  0  0
   39.4860   33.2970   40.4840 H   0  0  0  0  0  0  0  0  0  0  0  0
   41.0030   33.4670   39.0780 O   0  0  0  0  0  0  0  0  0  0  0  0
   41.3750   32.6100   38.0700 C   0  0  0  0  0  3  0  0  0  0  0  0
   42.1520   31.8800   38.4190 H   0  0  0  0  0  0  0  0  0  0  0  0
   39.5370   32.4470   36.5780 O   0  0  0  0  0  0  0  0  0  0  0  0
   39.3100   33.3530   36.8590 H   0  0  0  0  0  0  0  0  0  0  0  0
  1  2  1  0  0  0  0
  2  3  2  0  0  0  0
  2  7  1  0  0  0  0
  3  8  1  0  0  0  0
  4  9  1  0  0  0  0
  4  3  1  0  0  0  0
  5  4  2  0  0  0  0
  6  5  1  0  0  0  0
  6  1  2  0  0  0  0
 10 16  1  0  0  0  0
 10 11  1  0  0  0  0
 11 17  1  0  0  0  0
 12 11  2  0  0  0  0
 12  1  1  0  0  0  0
 13 12  1  0  0  0  0
 14 15  1  0  0  0  0
 14 13  2  0  0  0  0
 15 10  2  0  0  0  0
 18 14  1  0  0  0  0
 19  5  1  0  0  0  0
 21 20  2  6  0  0  0
 21 19  1  0  0  0  0
 21 22  1  0  0  0  0
 23 22  1  0  0  0  0
 24 21  1  0  0  0  0
 25 32  1  6  0  0  0
 25 30  1  0  0  0  0
 25 26  1  0  0  0  0
 26 24  1  6  0  0  0
 26 27  1  0  0  0  0
 27 28  1  0  0  0  0
 29 27  1  0  0  0  0
 30 31  1  0  0  0  0
 30 29  1  0  0  0  0
 32 33  1  0  0  0  0
M  END
>  <minimizedAffinity>
-5.87610674

$$$$

 OpenBabel03242522003D

 33 35  0  0  1  0  0  0  0  0999 V2000
   37.9510   25.4970   41.8980 C   0  0  0  0  0  0  0  0  0  0  0  0
   39.0510   25.4900   42.7240 C   0  0  0  0  0  0  0  0  0  0  0  0
   39.4430   26.5760   43.5030 C   0  0  0  0  0  0  0  0  0  0  0  0
   38.6950   27.7260   43.4510 C   0  0  0  0  0  0  0  0  0  0  0  0
   37.6170   27.7150   42.6350 C   0  0  0  0  0  0  0  0  0  0  0  0
   37.2540   26.6660   41.8950 N   0  0  0  0  0  0  0  0  0  0  0  0
   39.5900   24.5370   42.7050 H   0  0  0  0  0  0  0  0  0  0  0  0
   40.3420   26.3520   44.0810 H   0  0  0  0  0  0  0  0  0  0  0  0
   39.1640   28.4410   44.0990 H   0  0  0  0  0  0  0  0  0  0  0  0
   36.1750   23.0510   39.6500 C   0  0  0  0  0  0  0  0  0  0  0  0
   36.3840   24.2190   40.3940 C   0  0  0  0  0  0  0  0  0  0  0  0
   37.5620   24.3590   41.0780 C   0  0  0  0  0  0  0  0  0  0  0  0
   38.4770   23.3400   40.9920 N   0  0  0  0  0  0  0  0  0  0  0  0
   38.2580   22.2220   40.2700 C   0  0  0  0  0  0  0  0  0  0  0  0
   37.1060   22.0860   39.6030 N   0  0  0  0  0  0  0  0  0  0  0  0
   35.2340   22.9650   39.1180 H   0  0  0  0  0  0  0  0  0  0  0  0
   35.6700   25.0380   40.4740 H   0  0  0  0  0  0  0  0  0  0  0  0
   39.0680   21.4960   40.2920 H   0  0  0  0  0  0  0  0  0  0  0  0
   36.8490   28.8620   42.5700 O   0  0  0  0  0  0  0  0  0  0  0  0
   37.1800   29.3610   39.9930 O   0  0  0  0  0  0  0  0  0  0  0  0
   37.0470   30.0310   41.3320 P   0  0  1  0  0  0  0  0  0  0  0  0
   35.6880   31.0410   41.3360 O   0  0  0  0  0  0  0  0  0  0  0  0
   35.3220   31.2070   40.4460 H   0  0  0  0  0  0  0  0  0  0  0  0
   38.4640   30.9010   41.6780 O   0  0  0  0  0  0  0  0  0  0  0  0
   38.7510   32.7990   40.2480 C   0  0  2  0  0  3  0  0  0  0  0  0
   38.9880   31.3110   40.4490 C   0  0  1  0  0  3  0  0  0  0  0  0
   40.4880   31.2470   40.4200 C   0  0  0  0  0  3  0  0  0  0  0  0
   40.8190   30.2480   40.0810 H   0  0  0  0  0  0  0  0  0  0  0  0
   40.9240   32.2590   39.5810 O   0  0  0  0  0  0  0  0  0  0  0  0
   39.9200   33.1820   39.4130 C   0  0  0  0  0  3  0  0  0  0  0  0
   39.5690   33.2160   38.3470 H   0  0  0  0  0  0  0  0  0  0  0  0
   38.8170   33.4030   41.5010 O   0  0  0  0  0  0  0  0  0  0  0  0
   39.6720   33.1680   41.9070 H   0  0  0  0  0  0  0  0  0  0  0  0
  1  2  1  0  0  0  0
  2  3  2  0  0  0  0
  3  8  1  0  0  0  0
  4  3  1  0  0  0  0
  4  9  1  0  0  0  0
  5  4  2  0  0  0  0
  6  1  2  0  0  0  0
  6  5  1  0  0  0  0
  7  2  1  0  0  0  0
 10 11  1  0  0  0  0
 11 17  1  0  0  0  0
 11 12  2  0  0  0  0
 12  1  1  0  0  0  0
 13 12  1  0  0  0  0
 14 18  1  0  0  0  0
 14 13  2  0  0  0  0
 15 10  2  0  0  0  0
 15 14  1  0  0  0  0
 16 10  1  0  0  0  0
 19  5  1  0  0  0  0
 21 20  2  6  0  0  0
 21 22  1  0  0  0  0
 21 24  1  0  0  0  0
 21 19  1  0  0  0  0
 23 22  1  0  0  0  0
 25 26  1  0  0  0  0
 25 32  1  1  0  0  0
 26 24  1  1  0  0  0
 27 26  1  0  0  0  0
 28 27  1  0  0  0  0
 29 27  1  0  0  0  0
 30 29  1  0  0  0  0
 30 25  1  0  0  0  0
 31 30  1  0  0  0  0
 32 33  1  0  0  0  0
M  END
>  <minimizedAffinity>
-5.78704977

$$$$

 OpenBabel03242522003D

 33 35  0  0  1  0  0  0  0  0999 V2000
   37.5960   29.7000   40.1520 C   0  0  0  0  0  0  0  0  0  0  0  0
   36.6140   29.6270   39.1930 C   0  0  0  0  0  0  0  0  0  0  0  0
   36.6150   30.3820   38.0220 C   0  0  0  0  0  0  0  0  0  0  0  0
   37.6530   31.2530   37.8030 C   0  0  0  0  0  0  0  0  0  0  0  0
   38.6110   31.3100   38.7550 C   0  0  0  0  0  0  0  0  0  0  0  0
   38.5950   30.5800   39.8720 N   0  0  0  0  0  0  0  0  0  0  0  0
   35.8260   28.9100   39.4460 H   0  0  0  0  0  0  0  0  0  0  0  0
   35.7410   30.1660   37.4040 H   0  0  0  0  0  0  0  0  0  0  0  0
   37.4630   31.7460   36.8690 H   0  0  0  0  0  0  0  0  0  0  0  0
   36.6520   27.5450   43.0940 C   0  0  0  0  0  0  0  0  0  0  0  0
   36.4930   28.2550   41.8980 C   0  0  0  0  0  0  0  0  0  0  0  0
   37.5740   28.9160   41.3780 C   0  0  0  0  0  0  0  0  0  0  0  0
   38.7600   28.8430   42.0660 N   0  0  0  0  0  0  0  0  0  0  0  0
   38.8940   28.1540   43.2170 C   0  0  0  0  0  0  0  0  0  0  0  0
   37.8370   27.5090   43.7230 N   0  0  0  0  0  0  0  0  0  0  0  0
   35.7820   27.0310   43.4840 H   0  0  0  0  0  0  0  0  0  0  0  0
   35.5610   28.3250   41.3390 H   0  0  0  0  0  0  0  0  0  0  0  0
   39.8900   28.1820   43.6540 H   0  0  0  0  0  0  0  0  0  0  0  0
   39.6670   32.1800   38.5530 O   0  0  0  0  0  0  0  0  0  0  0  0
   38.9060   34.3000   39.9390 O   0  0  0  0  0  0  0  0  0  0  0  0
   40.0820   33.3990   39.6830 P   0  0  1  0  0  0  0  0  0  0  0  0
   40.5530   32.6460   41.1250 O   0  0  0  0  0  0  0  0  0  0  0  0
   40.1560   33.0450   41.9220 H   0  0  0  0  0  0  0  0  0  0  0  0
   41.3560   34.3000   39.0120 O   0  0  0  0  0  0  0  0  0  0  0  0
   42.8360   33.3020   37.4180 C   0  0  2  0  0  3  0  0  0  0  0  0
   42.4360   33.4230   38.8790 C   0  0  1  0  0  3  0  0  0  0  0  0
   43.6940   33.9750   39.4820 C   0  0  0  0  0  3  0  0  0  0  0  0
   43.7620   33.6910   40.5490 H   0  0  0  0  0  0  0  0  0  0  0  0
   44.7550   33.4830   38.7390 O   0  0  0  0  0  0  0  0  0  0  0  0
   44.2950   33.0330   37.5240 C   0  0  0  0  0  3  0  0  0  0  0  0
   44.4360   31.9250   37.4180 H   0  0  0  0  0  0  0  0  0  0  0  0
   42.6010   34.5360   36.8190 O   0  0  0  0  0  0  0  0  0  0  0  0
   43.0800   35.2170   37.3270 H   0  0  0  0  0  0  0  0  0  0  0  0
  1 12  1  0  0  0  0
  2  7  1  0  0  0  0
  2  1  2  0  0  0  0
  3  2  1  0  0  0  0
  4  3  2  0  0  0  0
  4  5  1  0  0  0  0
  5  6  2  0  0  0  0
  6  1  1  0  0  0  0
  8  3  1  0  0  0  0
  9  4  1  0  0  0  0
 10 16  1  0  0  0  0
 10 15  1  0  0  0  0
 11 10  2  0  0  0  0
 12 11  1  0  0  0  0
 12 13  2  0  0  0  0
 13 14  1  0  0  0  0
 14 18  1  0  0  0  0
 14 15  2  0  0  0  0
 17 11  1  0  0  0  0
 19  5  1  0  0  0  0
 19 21  1  0  0  0  0
 21 20  2  1  0  0  0
 21 22  1  0  0  0  0
 22 23  1  0  0  0  0
 24 21  1  0  0  0  0
 25 32  1  6  0  0  0
 25 30  1  0  0  0  0
 25 26  1  0  0  0  0
 26 24  1  6  0  0  0
 26 27  1  0  0  0  0
 27 28  1  0  0  0  0
 29 27  1  0  0  0  0
 30 29  1  0  0  0  0
 31 30  1  0  0  0  0
 32 33  1  0  0  0  0
M  END
>  <minimizedAffinity>
-5.69175434

$$$$

 OpenBabel03242522003D

 33 35  0  0  1  0  0  0  0  0999 V2000
   37.8620   26.3280   42.1910 C   0  0  0  0  0  0  0  0  0  0  0  0
   36.7790   26.3950   43.0350 C   0  0  0  0  0  0  0  0  0  0  0  0
   36.5070   27.4800   43.8650 C   0  0  0  0  0  0  0  0  0  0  0  0
   37.3650   28.5510   43.8480 C   0  0  0  0  0  0  0  0  0  0  0  0
   38.4230   28.4690   43.0120 C   0  0  0  0  0  0  0  0  0  0  0  0
   38.6700   27.4220   42.2220 N   0  0  0  0  0  0  0  0  0  0  0  0
   36.1470   25.5010   42.9870 H   0  0  0  0  0  0  0  0  0  0  0  0
   35.5980   27.3210   44.4490 H   0  0  0  0  0  0  0  0  0  0  0  0
   36.9980   29.2650   44.5600 H   0  0  0  0  0  0  0  0  0  0  0  0
   37.8040   23.0340   40.3650 C   0  0  0  0  0  0  0  0  0  0  0  0
   37.3840   24.0440   41.2390 C   0  0  0  0  0  0  0  0  0  0  0  0
   38.1410   25.1810   41.3410 C   0  0  0  0  0  0  0  0  0  0  0  0
   39.2770   25.2640   40.5740 N   0  0  0  0  0  0  0  0  0  0  0  0
   39.6650   24.2810   39.7370 C   0  0  0  0  0  0  0  0  0  0  0  0
   38.9250   23.1710   39.6390 N   0  0  0  0  0  0  0  0  0  0  0  0
   37.1870   22.1450   40.3020 H   0  0  0  0  0  0  0  0  0  0  0  0
   36.4880   23.9960   41.8550 H   0  0  0  0  0  0  0  0  0  0  0  0
   40.5850   24.4800   39.1910 H   0  0  0  0  0  0  0  0  0  0  0  0
   39.2990   29.5390   42.9770 O   0  0  0  0  0  0  0  0  0  0  0  0
   40.5780   31.5430   41.8180 O   0  0  0  0  0  0  0  0  0  0  0  0
   39.5760   30.4540   41.5550 P   0  0  1  0  0  0  0  0  0  0  0  0
   40.1630   29.4100   40.3590 O   0  0  0  0  0  0  0  0  0  0  0  0
   40.9340   29.7620   39.8760 H   0  0  0  0  0  0  0  0  0  0  0  0
   38.0920   31.1430   41.1000 O   0  0  0  0  0  0  0  0  0  0  0  0
   36.1150   29.8680   40.6560 C   0  0  2  0  0  3  0  0  0  0  0  0
   37.5070   30.2590   40.1880 C   0  0  1  0  0  3  0  0  0  0  0  0
   37.1990   30.9190   38.8740 C   0  0  0  0  0  3  0  0  0  0  0  0
   38.0690   30.8390   38.1960 H   0  0  0  0  0  0  0  0  0  0  0  0
   36.0720   30.2990   38.3600 O   0  0  0  0  0  0  0  0  0  0  0  0
   35.4160   29.6280   39.3650 C   0  0  0  0  0  3  0  0  0  0  0  0
   35.4200   28.5200   39.1880 H   0  0  0  0  0  0  0  0  0  0  0  0
   35.5740   30.9670   41.3170 O   0  0  0  0  0  0  0  0  0  0  0  0
   35.6100   31.7330   40.7130 H   0  0  0  0  0  0  0  0  0  0  0  0
  1  6  2  0  0  0  0
  1  2  1  0  0  0  0
  2  3  2  0  0  0  0
  3  8  1  0  0  0  0
  4  3  1  0  0  0  0
  4  9  1  0  0  0  0
  5  4  2  0  0  0  0
  6  5  1  0  0  0  0
  7  2  1  0  0  0  0
 10 11  1  0  0  0  0
 11 12  2  0  0  0  0
 11 17  1  0  0  0  0
 12  1  1  0  0  0  0
 13 12  1  0  0  0  0
 14 13  2  0  0  0  0
 15 14  1  0  0  0  0
 15 10  2  0  0  0  0
 16 10  1  0  0  0  0
 18 14  1  0  0  0  0
 19  5  1  0  0  0  0
 21 20  2  1  0  0  0
 21 19  1  0  0  0  0
 22 21  1  0  0  0  0
 23 22  1  0  0  0  0
 24 21  1  0  0  0  0
 25 32  1  6  0  0  0
 26 25  1  0  0  0  0
 26 24  1  1  0  0  0
 27 26  1  0  0  0  0
 28 27  1  0  0  0  0
 29 27  1  0  0  0  0
 29 30  1  0  0  0  0
 30 25  1  0  0  0  0
 31 30  1  0  0  0  0
 33 32  1  0  0  0  0
M  END
>  <minimizedAffinity>
-5.49829912

$$$$

 OpenBabel03242522003D

 33 35  0  0  1  0  0  0  0  0999 V2000
   37.0400   28.3100   40.7340 C   0  0  0  0  0  0  0  0  0  0  0  0
   37.0190   27.8550   42.0320 C   0  0  0  0  0  0  0  0  0  0  0  0
   37.6860   28.4790   43.0840 C   0  0  0  0  0  0  0  0  0  0  0  0
   38.4100   29.6160   42.8210 C   0  0  0  0  0  0  0  0  0  0  0  0
   38.4170   30.0500   41.5410 C   0  0  0  0  0  0  0  0  0  0  0  0
   37.7730   29.4400   40.5440 N   0  0  0  0  0  0  0  0  0  0  0  0
   36.4210   26.9460   42.1530 H   0  0  0  0  0  0  0  0  0  0  0  0
   37.5340   27.9490   44.0260 H   0  0  0  0  0  0  0  0  0  0  0  0
   38.8570   29.9300   43.7450 H   0  0  0  0  0  0  0  0  0  0  0  0
   35.7850   25.8590   38.1640 C   0  0  0  0  0  0  0  0  0  0  0  0
   36.5390   26.3430   39.2390 C   0  0  0  0  0  0  0  0  0  0  0  0
   36.3500   27.6390   39.6420 C   0  0  0  0  0  0  0  0  0  0  0  0
   35.4260   28.3920   38.9630 N   0  0  0  0  0  0  0  0  0  0  0  0
   34.7080   27.9080   37.9290 C   0  0  0  0  0  0  0  0  0  0  0  0
   34.8940   26.6420   37.5360 N   0  0  0  0  0  0  0  0  0  0  0  0
   35.9530   24.8310   37.8640 H   0  0  0  0  0  0  0  0  0  0  0  0
   37.2770   25.7620   39.7900 H   0  0  0  0  0  0  0  0  0  0  0  0
   34.0120   28.6150   37.4830 H   0  0  0  0  0  0  0  0  0  0  0  0
   39.1380   31.1950   41.2550 O   0  0  0  0  0  0  0  0  0  0  0  0
   36.9280   32.4240   40.4810 O   0  0  0  0  0  0  0  0  0  0  0  0
   38.4220   32.5760   40.5370 P   0  0  1  0  0  0  0  0  0  0  0  0
   38.8270   33.9280   41.4720 O   0  0  0  0  0  0  0  0  0  0  0  0
   38.0700   34.5170   41.6560 H   0  0  0  0  0  0  0  0  0  0  0  0
   39.0410   32.7070   38.9610 O   0  0  0  0  0  0  0  0  0  0  0  0
   40.6210   31.5320   37.5990 C   0  0  2  0  0  3  0  0  0  0  0  0
   40.2960   32.0900   38.9750 C   0  0  1  0  0  3  0  0  0  0  0  0
   41.4120   33.0770   39.1610 C   0  0  0  0  0  3  0  0  0  0  0  0
   41.6150   33.2220   40.2390 H   0  0  0  0  0  0  0  0  0  0  0  0
   42.5130   32.5820   38.4800 O   0  0  0  0  0  0  0  0  0  0  0  0
   42.1040   31.6350   37.5720 C   0  0  0  0  0  3  0  0  0  0  0  0
   42.5110   30.6200   37.8290 H   0  0  0  0  0  0  0  0  0  0  0  0
   40.0470   32.3830   36.6590 O   0  0  0  0  0  0  0  0  0  0  0  0
   40.3720   33.2870   36.8290 H   0  0  0  0  0  0  0  0  0  0  0  0
  1  2  1  0  0  0  0
  2  7  1  0  0  0  0
  2  3  2  0  0  0  0
  3  8  1  0  0  0  0
  4  3  1  0  0  0  0
  4  9  1  0  0  0  0
  5  4  2  0  0  0  0
  6  1  2  0  0  0  0
  6  5  1  0  0  0  0
 10 11  1  0  0  0  0
 11 12  2  0  0  0  0
 11 17  1  0  0  0  0
 12  1  1  0  0  0  0
 13 12  1  0  0  0  0
 14 13  2  0  0  0  0
 15 14  1  0  0  0  0
 15 10  2  0  0  0  0
 16 10  1  0  0  0  0
 18 14  1  0  0  0  0
 19  5  1  0  0  0  0
 21 20  2  6  0  0  0
 21 19  1  0  0  0  0
 21 22  1  0  0  0  0
 22 23  1  0  0  0  0
 24 21  1  0  0  0  0
 25 32  1  6  0  0  0
 25 26  1  0  0  0  0
 26 24  1  6  0  0  0
 26 27  1  0  0  0  0
 27 28  1  0  0  0  0
 29 27  1  0  0  0  0
 30 25  1  0  0  0  0
 30 31  1  0  0  0  0
 30 29  1  0  0  0  0
 32 33  1  0  0  0  0
M  END
>  <minimizedAffinity>
-5.38606882

$$$$

 OpenBabel03242522003D

 33 35  0  0  1  0  0  0  0  0999 V2000
   36.8280   28.5740   39.3360 C   0  0  0  0  0  0  0  0  0  0  0  0
   36.4130   28.0630   38.1290 C   0  0  0  0  0  0  0  0  0  0  0  0
   36.3670   28.8000   36.9480 C   0  0  0  0  0  0  0  0  0  0  0  0
   36.7570   30.1160   36.9800 C   0  0  0  0  0  0  0  0  0  0  0  0
   37.1630   30.6020   38.1740 C   0  0  0  0  0  0  0  0  0  0  0  0
   37.2010   29.8820   39.2970 N   0  0  0  0  0  0  0  0  0  0  0  0
   36.1210   27.0090   38.1920 H   0  0  0  0  0  0  0  0  0  0  0  0
   36.0080   28.1970   36.1110 H   0  0  0  0  0  0  0  0  0  0  0  0
   36.6330   30.5090   35.9890 H   0  0  0  0  0  0  0  0  0  0  0  0
   36.6520   27.3650   42.8990 C   0  0  0  0  0  0  0  0  0  0  0  0
   36.5750   28.2580   41.8240 C   0  0  0  0  0  0  0  0  0  0  0  0
   36.8560   27.7960   40.5650 C   0  0  0  0  0  0  0  0  0  0  0  0
   37.1990   26.4730   40.4310 N   0  0  0  0  0  0  0  0  0  0  0  0
   37.2670   25.6280   41.4790 C   0  0  0  0  0  0  0  0  0  0  0  0
   36.9930   26.0810   42.7080 N   0  0  0  0  0  0  0  0  0  0  0  0
   36.4250   27.7550   43.8840 H   0  0  0  0  0  0  0  0  0  0  0  0
   36.3060   29.3090   41.9100 H   0  0  0  0  0  0  0  0  0  0  0  0
   37.5510   24.6080   41.2270 H   0  0  0  0  0  0  0  0  0  0  0  0
   37.5610   31.9250   38.2270 O   0  0  0  0  0  0  0  0  0  0  0  0
   37.1340   34.2580   39.3980 O   0  0  0  0  0  0  0  0  0  0  0  0
   37.5300   32.8360   39.6790 P   0  0  1  0  0  0  0  0  0  0  0  0
   36.4060   32.1230   40.7270 O   0  0  0  0  0  0  0  0  0  0  0  0
   35.8080   32.7650   41.1530 H   0  0  0  0  0  0  0  0  0  0  0  0
   39.0960   32.7990   40.3340 O   0  0  0  0  0  0  0  0  0  0  0  0
   40.7680   34.4350   39.8250 C   0  0  2  0  0  3  0  0  0  0  0  0
   39.9580   33.2480   39.3290 C   0  0  1  0  0  3  0  0  0  0  0  0
   41.0450   32.2580   39.0280 C   0  0  0  0  0  3  0  0  0  0  0  0
   40.7110   31.5510   38.2460 H   0  0  0  0  0  0  0  0  0  0  0  0
   42.1620   32.9810   38.6410 O   0  0  0  0  0  0  0  0  0  0  0  0
   42.0300   34.2860   39.0520 C   0  0  0  0  0  3  0  0  0  0  0  0
   41.9660   34.9860   38.1770 H   0  0  0  0  0  0  0  0  0  0  0  0
   40.9930   34.2450   41.1860 O   0  0  0  0  0  0  0  0  0  0  0  0
   41.4160   33.3740   41.3050 H   0  0  0  0  0  0  0  0  0  0  0  0
  1 12  1  0  0  0  0
  2  7  1  0  0  0  0
  2  1  2  0  0  0  0
  3  4  2  0  0  0  0
  3  2  1  0  0  0  0
  4  5  1  0  0  0  0
  5 19  1  0  0  0  0
  5  6  2  0  0  0  0
  6  1  1  0  0  0  0
  8  3  1  0  0  0  0
  9  4  1  0  0  0  0
 10 16  1  0  0  0  0
 11 17  1  0  0  0  0
 11 10  2  0  0  0  0
 12 11  1  0  0  0  0
 13 12  2  0  0  0  0
 13 14  1  0  0  0  0
 14 15  2  0  0  0  0
 15 10  1  0  0  0  0
 18 14  1  0  0  0  0
 19 21  1  0  0  0  0
 21 20  2  6  0  0  0
 21 24  1  0  0  0  0
 21 22  1  0  0  0  0
 22 23  1  0  0  0  0
 25 32  1  1  0  0  0
 26 25  1  0  0  0  0
 26 24  1  1  0  0  0
 27 26  1  0  0  0  0
 28 27  1  0  0  0  0
 29 27  1  0  0  0  0
 29 30  1  0  0  0  0
 30 25  1  0  0  0  0
 31 30  1  0  0  0  0
 32 33  1  0  0  0  0
M  END
>  <minimizedAffinity>
-5.33829546

$$$$

 OpenBabel03242522003D

 33 35  0  0  1  0  0  0  0  0999 V2000
   37.8980   31.4470   40.8450 C   0  0  0  0  0  0  0  0  0  0  0  0
   36.9660   32.0650   40.0440 C   0  0  0  0  0  0  0  0  0  0  0  0
   37.1260   33.3410   39.5080 C   0  0  0  0  0  0  0  0  0  0  0  0
   38.2790   34.0320   39.7900 C   0  0  0  0  0  0  0  0  0  0  0  0
   39.1840   33.4090   40.5770 C   0  0  0  0  0  0  0  0  0  0  0  0
   39.0160   32.1860   41.0830 N   0  0  0  0  0  0  0  0  0  0  0  0
   36.0790   31.4460   39.8700 H   0  0  0  0  0  0  0  0  0  0  0  0
   36.2650   33.6340   38.9040 H   0  0  0  0  0  0  0  0  0  0  0  0
   38.2040   34.9870   39.3070 H   0  0  0  0  0  0  0  0  0  0  0  0
   36.7200   27.9720   41.6940 C   0  0  0  0  0  0  0  0  0  0  0  0
   36.7560   29.2090   41.0400 C   0  0  0  0  0  0  0  0  0  0  0  0
   37.7100   30.1200   41.4100 C   0  0  0  0  0  0  0  0  0  0  0  0
   38.5820   29.7630   42.4080 N   0  0  0  0  0  0  0  0  0  0  0  0
   38.5320   28.5660   43.0260 C   0  0  0  0  0  0  0  0  0  0  0  0
   37.6000   27.6780   42.6640 N   0  0  0  0  0  0  0  0  0  0  0  0
   35.9560   27.2690   41.3830 H   0  0  0  0  0  0  0  0  0  0  0  0
   36.0730   29.5100   40.2470 H   0  0  0  0  0  0  0  0  0  0  0  0
   39.2840   28.4170   43.7990 H   0  0  0  0  0  0  0  0  0  0  0  0
   40.3530   34.0870   40.8710 O   0  0  0  0  0  0  0  0  0  0  0  0
   42.9550   34.5350   40.7180 O   0  0  0  0  0  0  0  0  0  0  0  0
   41.8850   33.5620   40.3100 P   0  0  1  0  0  0  0  0  0  0  0  0
   42.2040   32.0420   40.9850 O   0  0  0  0  0  0  0  0  0  0  0  0
   43.1060   31.9570   41.3480 H   0  0  0  0  0  0  0  0  0  0  0  0
   41.8030   33.4800   38.6160 O   0  0  0  0  0  0  0  0  0  0  0  0
   41.2960   31.4400   37.4700 C   0  0  2  0  0  3  0  0  0  0  0  0
   42.3280   32.2360   38.2530 C   0  0  1  0  0  3  0  0  0  0  0  0
   43.4320   32.3580   37.2420 C   0  0  0  0  0  3  0  0  0  0  0  0
   44.4050   32.4740   37.7540 H   0  0  0  0  0  0  0  0  0  0  0  0
   43.3860   31.2230   36.4480 O   0  0  0  0  0  0  0  0  0  0  0  0
   42.1590   30.6190   36.5790 C   0  0  0  0  0  3  0  0  0  0  0  0
   42.2490   29.6040   37.0500 H   0  0  0  0  0  0  0  0  0  0  0  0
   40.5420   32.3490   36.7330 O   0  0  0  0  0  0  0  0  0  0  0  0
   41.1540   32.8830   36.1920 H   0  0  0  0  0  0  0  0  0  0  0  0
  1  6  1  0  0  0  0
  1 12  1  0  0  0  0
  2  1  2  0  0  0  0
  3  4  2  0  0  0  0
  3  2  1  0  0  0  0
  4  5  1  0  0  0  0
  5 19  1  0  0  0  0
  5  6  2  0  0  0  0
  7  2  1  0  0  0  0
  8  3  1  0  0  0  0
  9  4  1  0  0  0  0
 10 15  1  0  0  0  0
 11 12  1  0  0  0  0
 11 10  2  0  0  0  0
 12 13  2  0  0  0  0
 13 14  1  0  0  0  0
 14 18  1  0  0  0  0
 15 14  2  0  0  0  0
 16 10  1  0  0  0  0
 17 11  1  0  0  0  0
 21 20  2  1  0  0  0
 21 19  1  0  0  0  0
 21 22  1  0  0  0  0
 22 23  1  0  0  0  0
 24 21  1  0  0  0  0
 25 32  1  6  0  0  0
 25 26  1  0  0  0  0
 26 24  1  6  0  0  0
 27 28  1  0  0  0  0
 27 26  1  0  0  0  0
 29 30  1  0  0  0  0
 29 27  1  0  0  0  0
 30 31  1  0  0  0  0
 30 25  1  0  0  0  0
 33 32  1  0  0  0  0
M  END
>  <minimizedAffinity>
-5.32987165

$$$$
