
 OpenBabel03252500433D

 34 36  0  0  1  0  0  0  0  0999 V2000
   47.5920   35.2610   41.7060 C   0  0  1  0  0  0  0  0  0  0  0  0
   49.0910   35.5190   41.6160 C   0  0  0  0  0  0  0  0  0  0  0  0
   48.3320   34.9600   40.4360 C   0  0  1  0  0  0  0  0  0  0  0  0
   47.0210   36.2150   41.6520 H   0  0  0  0  0  0  0  0  0  0  0  0
   49.7680   34.8570   42.1770 H   0  0  0  0  0  0  0  0  0  0  0  0
   49.4730   36.5490   41.5100 H   0  0  0  0  0  0  0  0  0  0  0  0
   48.2370   35.6270   39.5520 H   0  0  0  0  0  0  0  0  0  0  0  0
   47.1650   34.0840   42.4830 C   0  0  0  0  0  0  0  0  0  0  0  0
   48.0660   33.5760   42.9410 H   0  0  0  0  0  0  0  0  0  0  0  0
   46.6800   33.2830   41.8990 H   0  0  0  0  0  0  0  0  0  0  0  0
   46.2870   34.3860   43.6270 C   0  0  0  0  0  0  0  0  0  0  0  0
   45.4870   35.4780   43.4360 C   0  0  0  0  0  0  0  0  0  0  0  0
   44.6080   35.8990   44.4470 C   0  0  0  0  0  0  0  0  0  0  0  0
   44.6270   35.1380   45.5950 N   0  0  0  0  0  0  0  0  0  0  0  0
   45.4250   34.0640   45.7600 C   0  0  0  0  0  0  0  0  0  0  0  0
   46.2420   33.7010   44.7790 N   0  0  0  0  0  0  0  0  0  0  0  0
   45.3270   36.1760   42.6250 H   0  0  0  0  0  0  0  0  0  0  0  0
   43.9190   36.7270   44.4580 H   0  0  0  0  0  0  0  0  0  0  0  0
   45.3730   33.5240   46.6990 H   0  0  0  0  0  0  0  0  0  0  0  0
   48.5110   33.6390   40.1170 O   0  0  0  0  0  0  0  0  0  0  0  0
   48.5260   34.6630   37.6520 O   0  0  0  0  0  0  0  0  0  0  0  0
   48.5310   33.3690   38.4480 P   0  0  1  0  0  0  0  0  0  0  0  0
   50.0070   32.5790   38.0820 O   0  0  0  0  0  0  0  0  0  0  0  0
   50.6930   32.8590   38.7440 H   0  0  0  0  0  0  0  0  0  0  0  0
   47.2560   32.3890   38.0000 O   0  0  0  0  0  0  0  0  0  0  0  0
   45.4440   33.2340   36.8600 C   0  0  1  0  0  0  0  0  0  0  0  0
   46.0000   32.8620   38.2430 C   0  0  1  0  0  0  0  0  0  0  0  0
   45.0170   31.7940   38.6580 C   0  0  0  0  0  0  0  0  0  0  0  0
   45.5100   30.8730   38.9990 H   0  0  0  0  0  0  0  0  0  0  0  0
   44.1810   31.5360   37.5880 O   0  0  0  0  0  0  0  0  0  0  0  0
   44.9000   31.8720   36.4410 C   0  0  0  0  0  0  0  0  0  0  0  0
   44.2480   31.9280   35.5690 H   0  0  0  0  0  0  0  0  0  0  0  0
   44.4560   34.1880   36.9230 O   0  0  0  0  0  0  0  0  0  0  0  0
   43.6430   33.7970   36.5020 H   0  0  0  0  0  0  0  0  0  0  0  0
  1  4  1  1  0  0  0
  1  8  1  0  0  0  0
  2  1  1  0  0  0  0
  2  5  1  0  0  0  0
  3  7  1  6  0  0  0
  3  2  1  0  0  0  0
  3  1  1  0  0  0  0
  6  2  1  0  0  0  0
  8  9  1  0  0  0  0
  8 11  1  0  0  0  0
 10  8  1  0  0  0  0
 11 16  1  0  0  0  0
 12 11  2  0  0  0  0
 12 13  1  0  0  0  0
 13 18  1  0  0  0  0
 13 14  2  0  0  0  0
 14 15  1  0  0  0  0
 15 19  1  0  0  0  0
 16 15  2  0  0  0  0
 17 12  1  0  0  0  0
 20  3  1  0  0  0  0
 22 21  2  6  0  0  0
 22 20  1  0  0  0  0
 23 22  1  0  0  0  0
 23 24  1  0  0  0  0
 25 22  1  0  0  0  0
 26 33  1  1  0  0  0
 26 27  1  0  0  0  0
 27 25  1  6  0  0  0
 27 28  1  0  0  0  0
 28 29  1  0  0  0  0
 30 28  1  0  0  0  0
 31 26  1  0  0  0  0
 31 30  1  0  0  0  0
 32 31  1  0  0  0  0
 34 33  1  0  0  0  0
M  END
>  <minimizedAffinity>
-5.34161282

>  <minimizedRMSD>
2.03508234

$$$$
