
 OpenBabel03252508093D

 44 47  0  0  1  0  0  0  0  0999 V2000
   37.5390   30.0560   37.6580 C   0  0  0  0  0  0  0  0  0  0  0  0
   37.7240   29.4440   38.8880 C   0  0  0  0  0  0  0  0  0  0  0  0
   36.7130   28.7030   39.4470 C   0  0  0  0  0  0  0  0  0  0  0  0
   35.5370   28.6080   38.7260 N   0  0  0  0  0  0  0  0  0  0  0  0
   35.3660   29.1970   37.5460 C   0  0  0  0  0  0  0  0  0  0  0  0
   36.3780   29.9200   37.0220 N   0  0  0  0  0  0  0  0  0  0  0  0
   38.3410   30.6490   37.2070 H   0  0  0  0  0  0  0  0  0  0  0  0
   34.4410   29.1110   37.0000 H   0  0  0  0  0  0  0  0  0  0  0  0
   36.7420   28.0220   40.6850 C   0  0  0  0  0  0  0  0  0  0  0  0
   36.6960   28.6560   41.9300 C   0  0  0  0  0  0  0  0  0  0  0  0
   36.7910   28.0030   43.1310 C   0  0  0  0  0  0  0  0  0  0  0  0
   36.9420   26.6390   43.1530 C   0  0  0  0  0  0  0  0  0  0  0  0
   36.9890   25.9730   41.9000 C   0  0  0  0  0  0  0  0  0  0  0  0
   37.1440   24.6100   41.9080 C   0  0  0  0  0  0  0  0  0  0  0  0
   37.1990   23.8990   40.7250 C   0  0  0  0  0  0  0  0  0  0  0  0
   37.0920   24.5870   39.5030 C   0  0  0  0  0  0  0  0  0  0  0  0
   36.9360   25.9840   39.5460 C   0  0  0  0  0  0  0  0  0  0  0  0
   36.8890   26.6600   40.7350 C   0  0  0  0  0  0  0  0  0  0  0  0
   36.5770   29.7390   41.9190 H   0  0  0  0  0  0  0  0  0  0  0  0
   36.7430   28.5980   44.0410 H   0  0  0  0  0  0  0  0  0  0  0  0
   37.0210   26.0940   44.0840 H   0  0  0  0  0  0  0  0  0  0  0  0
   37.2240   24.0850   42.8660 H   0  0  0  0  0  0  0  0  0  0  0  0
   37.3220   22.8330   40.8080 H   0  0  0  0  0  0  0  0  0  0  0  0
   37.1440   23.9500   38.6480 H   0  0  0  0  0  0  0  0  0  0  0  0
   36.8520   26.3150   38.5330 H   0  0  0  0  0  0  0  0  0  0  0  0
   38.9380   29.6140   39.4940 O   0  0  0  0  0  0  0  0  0  0  0  0
   39.8350   30.4710   41.8000 O   0  0  0  0  0  0  0  0  0  0  0  0
   39.3510   30.9340   40.4720 P   0  0  1  0  0  0  0  0  0  0  0  0
   40.6050   31.8330   39.7740 O   0  0  0  0  0  0  0  0  0  0  0  0
   41.2980   32.2230   37.4990 C   0  0  1  0  0  3  0  0  0  0  0  0
   41.1260   31.2290   38.6580 C   0  0  1  0  0  3  0  0  0  0  0  0
   42.5680   30.7950   38.8190 C   0  0  0  0  0  3  0  0  0  0  0  0
   43.0500   31.6310   39.4070 H   0  0  0  0  0  0  0  0  0  0  0  0
   43.1620   30.8490   37.5690 O   0  0  0  0  0  0  0  0  0  0  0  0
   42.2690   31.3940   36.6780 C   0  0  0  0  0  3  0  0  0  0  0  0
   42.7120   31.9480   35.8500 H   0  0  0  0  0  0  0  0  0  0  0  0
   40.0930   32.4160   36.8350 O   0  0  0  0  0  0  0  0  0  0  0  0
   39.6840   33.2560   37.2000 H   0  0  0  0  0  0  0  0  0  0  0  0
   38.0000   31.9180   40.6230 O   0  0  0  0  0  0  0  0  0  0  0  0
   37.8990   33.2490   40.2530 C   0  0  0  0  0  0  0  0  0  0  0  0
   37.1470   33.2450   39.2600 O   0  0  0  0  0  0  0  0  0  0  0  0
   38.6760   34.0870   41.1310 N   0  0  0  0  0  0  0  0  0  0  0  0
   38.2820   34.2070   42.1000 H   0  0  0  0  0  0  0  0  0  0  0  0
   39.5720   34.5960   40.9590 H   0  0  0  0  0  0  0  0  0  0  0  0
  1  2  1  0  0  0  0
  2  3  2  0  0  0  0
  2 26  1  0  0  0  0
  3  9  1  0  0  0  0
  4  3  1  0  0  0  0
  5  4  2  0  0  0  0
  6  5  1  0  0  0  0
  6  1  2  0  0  0  0
  7  1  1  0  0  0  0
  8  5  1  0  0  0  0
  9 18  2  0  0  0  0
  9 10  1  0  0  0  0
 10 11  2  0  0  0  0
 11 12  1  0  0  0  0
 11 20  1  0  0  0  0
 12 21  1  0  0  0  0
 13 14  1  0  0  0  0
 13 12  2  0  0  0  0
 14 22  1  0  0  0  0
 15 23  1  0  0  0  0
 15 14  2  0  0  0  0
 16 17  2  0  0  0  0
 16 15  1  0  0  0  0
 17 18  1  0  0  0  0
 18 13  1  0  0  0  0
 19 10  1  0  0  0  0
 24 16  1  0  0  0  0
 25 17  1  0  0  0  0
 26 28  1  0  0  0  0
 28 39  1  0  0  0  0
 28 27  2  1  0  0  0
 29 28  1  0  0  0  0
 30 37  1  6  0  0  0
 30 31  1  0  0  0  0
 31 32  1  0  0  0  0
 31 29  1  1  0  0  0
 32 33  1  0  0  0  0
 34 32  1  0  0  0  0
 35 30  1  0  0  0  0
 35 34  1  0  0  0  0
 36 35  1  0  0  0  0
 37 38  1  0  0  0  0
 40 39  1  0  0  0  0
 40 42  1  0  0  0  0
 41 40  2  0  0  0  0
 42 43  1  0  0  0  0
 44 42  1  0  0  0  0
M  END
>  <minimizedAffinity>
-6.59974337

$$$$

 OpenBabel03252508093D

 44 47  0  0  1  0  0  0  0  0999 V2000
   41.8680   29.6310   40.6480 C   0  0  0  0  0  0  0  0  0  0  0  0
   40.5800   29.1780   40.8830 C   0  0  0  0  0  0  0  0  0  0  0  0
   40.2840   28.5170   42.0500 C   0  0  0  0  0  0  0  0  0  0  0  0
   41.3220   28.3420   42.9470 N   0  0  0  0  0  0  0  0  0  0  0  0
   42.5560   28.7790   42.7170 C   0  0  0  0  0  0  0  0  0  0  0  0
   42.8160   29.4240   41.5600 N   0  0  0  0  0  0  0  0  0  0  0  0
   42.1110   30.1570   39.7200 H   0  0  0  0  0  0  0  0  0  0  0  0
   43.3510   28.6310   43.4280 H   0  0  0  0  0  0  0  0  0  0  0  0
   39.0300   27.9960   42.4380 C   0  0  0  0  0  0  0  0  0  0  0  0
   38.1150   28.6760   43.2470 C   0  0  0  0  0  0  0  0  0  0  0  0
   36.9260   28.1480   43.6790 C   0  0  0  0  0  0  0  0  0  0  0  0
   36.5780   26.8710   43.3140 C   0  0  0  0  0  0  0  0  0  0  0  0
   37.4910   26.1610   42.4920 C   0  0  0  0  0  0  0  0  0  0  0  0
   37.1570   24.8820   42.1240 C   0  0  0  0  0  0  0  0  0  0  0  0
   37.9990   24.1350   41.3250 C   0  0  0  0  0  0  0  0  0  0  0  0
   39.2110   24.6970   40.8860 C   0  0  0  0  0  0  0  0  0  0  0  0
   39.5100   26.0110   41.2890 C   0  0  0  0  0  0  0  0  0  0  0  0
   38.6560   26.7240   42.0850 C   0  0  0  0  0  0  0  0  0  0  0  0
   38.3860   29.6910   43.5390 H   0  0  0  0  0  0  0  0  0  0  0  0
   36.2890   28.7690   44.3060 H   0  0  0  0  0  0  0  0  0  0  0  0
   35.6480   26.4250   43.6400 H   0  0  0  0  0  0  0  0  0  0  0  0
   36.2100   24.4550   42.4700 H   0  0  0  0  0  0  0  0  0  0  0  0
   37.6730   23.1390   41.0780 H   0  0  0  0  0  0  0  0  0  0  0  0
   39.7900   24.0420   40.2730 H   0  0  0  0  0  0  0  0  0  0  0  0
   40.4480   26.2640   40.8420 H   0  0  0  0  0  0  0  0  0  0  0  0
   39.6450   29.4220   39.9150 O   0  0  0  0  0  0  0  0  0  0  0  0
   38.6660   31.4880   41.1920 O   0  0  0  0  0  0  0  0  0  0  0  0
   38.5950   30.7510   39.9020 P   0  0  1  0  0  0  0  0  0  0  0  0
   39.0230   31.8450   38.6830 O   0  0  0  0  0  0  0  0  0  0  0  0
   40.9740   32.2580   37.3310 C   0  0  1  0  0  3  0  0  0  0  0  0
   40.3480   32.1960   38.7320 C   0  0  1  0  0  3  0  0  0  0  0  0
   40.5820   33.6280   39.1650 C   0  0  0  0  0  3  0  0  0  0  0  0
   39.7600   34.2140   38.6590 H   0  0  0  0  0  0  0  0  0  0  0  0
   41.7510   34.0600   38.5630 O   0  0  0  0  0  0  0  0  0  0  0  0
   42.1930   33.0830   37.7020 C   0  0  0  0  0  3  0  0  0  0  0  0
   42.7500   33.4400   36.8350 H   0  0  0  0  0  0  0  0  0  0  0  0
   41.3240   30.9880   36.8910 O   0  0  0  0  0  0  0  0  0  0  0  0
   40.5810   30.6630   36.3010 H   0  0  0  0  0  0  0  0  0  0  0  0
   37.0420   30.1890   39.6040 O   0  0  0  0  0  0  0  0  0  0  0  0
   36.0890   29.8460   40.5490 C   0  0  0  0  0  0  0  0  0  0  0  0
   35.8450   28.6450   40.3300 O   0  0  0  0  0  0  0  0  0  0  0  0
   35.7660   30.9740   41.3870 N   0  0  0  0  0  0  0  0  0  0  0  0
   36.5160   31.2510   42.0730 H   0  0  0  0  0  0  0  0  0  0  0  0
   34.9050   31.5640   41.4210 H   0  0  0  0  0  0  0  0  0  0  0  0
  1  2  2  0  0  0  0
  1  6  1  0  0  0  0
  2  3  1  0  0  0  0
  3  9  1  0  0  0  0
  3  4  2  0  0  0  0
  5  4  1  0  0  0  0
  5  8  1  0  0  0  0
  6  5  2  0  0  0  0
  7  1  1  0  0  0  0
  9 10  1  0  0  0  0
 10 19  1  0  0  0  0
 10 11  2  0  0  0  0
 11 20  1  0  0  0  0
 12 21  1  0  0  0  0
 12 11  1  0  0  0  0
 13 12  2  0  0  0  0
 14 22  1  0  0  0  0
 14 13  1  0  0  0  0
 15 14  2  0  0  0  0
 16 17  2  0  0  0  0
 16 15  1  0  0  0  0
 17 18  1  0  0  0  0
 18  9  2  0  0  0  0
 18 13  1  0  0  0  0
 23 15  1  0  0  0  0
 24 16  1  0  0  0  0
 25 17  1  0  0  0  0
 26  2  1  0  0  0  0
 28 26  1  0  0  0  0
 28 27  2  1  0  0  0
 29 28  1  0  0  0  0
 30 37  1  1  0  0  0
 30 35  1  0  0  0  0
 30 31  1  0  0  0  0
 31 29  1  6  0  0  0
 31 32  1  0  0  0  0
 33 32  1  0  0  0  0
 34 32  1  0  0  0  0
 35 34  1  0  0  0  0
 36 35  1  0  0  0  0
 38 37  1  0  0  0  0
 39 28  1  0  0  0  0
 39 40  1  0  0  0  0
 40 42  1  0  0  0  0
 41 40  2  0  0  0  0
 42 44  1  0  0  0  0
 42 43  1  0  0  0  0
M  END
>  <minimizedAffinity>
-6.38221931

$$$$

 OpenBabel03252508093D

 44 47  0  0  1  0  0  0  0  0999 V2000
   42.3310   29.0080   40.9420 C   0  0  0  0  0  0  0  0  0  0  0  0
   40.9820   28.7270   41.0900 C   0  0  0  0  0  0  0  0  0  0  0  0
   40.5080   28.2280   42.2780 C   0  0  0  0  0  0  0  0  0  0  0  0
   41.4340   28.0350   43.2860 N   0  0  0  0  0  0  0  0  0  0  0  0
   42.7260   28.3080   43.1400 C   0  0  0  0  0  0  0  0  0  0  0  0
   43.1630   28.7960   41.9590 N   0  0  0  0  0  0  0  0  0  0  0  0
   42.7150   29.4040   39.9970 H   0  0  0  0  0  0  0  0  0  0  0  0
   43.4320   28.1490   43.9380 H   0  0  0  0  0  0  0  0  0  0  0  0
   39.1710   27.8910   42.5860 C   0  0  0  0  0  0  0  0  0  0  0  0
   38.3060   28.7080   43.3220 C   0  0  0  0  0  0  0  0  0  0  0  0
   37.0310   28.3560   43.6790 C   0  0  0  0  0  0  0  0  0  0  0  0
   36.5350   27.1310   43.3080 C   0  0  0  0  0  0  0  0  0  0  0  0
   37.3950   26.2850   42.5590 C   0  0  0  0  0  0  0  0  0  0  0  0
   36.9130   25.0560   42.1860 C   0  0  0  0  0  0  0  0  0  0  0  0
   37.6950   24.1830   41.4560 C   0  0  0  0  0  0  0  0  0  0  0  0
   38.9990   24.5650   41.0930 C   0  0  0  0  0  0  0  0  0  0  0  0
   39.4480   25.8350   41.4990 C   0  0  0  0  0  0  0  0  0  0  0  0
   38.6500   26.6750   42.2260 C   0  0  0  0  0  0  0  0  0  0  0  0
   38.6950   29.6820   43.6190 H   0  0  0  0  0  0  0  0  0  0  0  0
   36.4460   29.0720   44.2530 H   0  0  0  0  0  0  0  0  0  0  0  0
   35.5330   26.8230   43.5750 H   0  0  0  0  0  0  0  0  0  0  0  0
   35.8950   24.7690   42.4720 H   0  0  0  0  0  0  0  0  0  0  0  0
   37.2520   23.2360   41.2000 H   0  0  0  0  0  0  0  0  0  0  0  0
   39.5210   23.8240   40.5300 H   0  0  0  0  0  0  0  0  0  0  0  0
   40.4390   25.9470   41.1140 H   0  0  0  0  0  0  0  0  0  0  0  0
   40.1720   28.9680   40.0140 O   0  0  0  0  0  0  0  0  0  0  0  0
   40.4340   30.9490   38.3210 O   0  0  0  0  0  0  0  0  0  0  0  0
   39.6650   30.5060   39.5150 P   0  0  1  0  0  0  0  0  0  0  0  0
   38.0300   30.4880   39.0730 O   0  0  0  0  0  0  0  0  0  0  0  0
   35.8610   30.2610   40.0970 C   0  0  1  0  0  3  0  0  0  0  0  0
   37.2730   29.6910   39.8930 C   0  0  1  0  0  3  0  0  0  0  0  0
   36.9070   28.3570   39.2760 C   0  0  0  0  0  3  0  0  0  0  0  0
   36.6840   28.5980   38.1950 H   0  0  0  0  0  0  0  0  0  0  0  0
   35.6920   27.9680   39.8140 O   0  0  0  0  0  0  0  0  0  0  0  0
   35.2100   28.9860   40.6020 C   0  0  0  0  0  3  0  0  0  0  0  0
   34.1240   29.0550   40.6660 H   0  0  0  0  0  0  0  0  0  0  0  0
   35.8680   31.2570   41.0660 O   0  0  0  0  0  0  0  0  0  0  0  0
   35.9130   32.1370   40.5870 H   0  0  0  0  0  0  0  0  0  0  0  0
   39.8660   31.5670   40.8000 O   0  0  0  0  0  0  0  0  0  0  0  0
   39.5810   32.9230   40.8060 C   0  0  0  0  0  0  0  0  0  0  0  0
   40.6950   33.4800   40.8400 O   0  0  0  0  0  0  0  0  0  0  0  0
   38.1580   33.1500   40.7710 N   0  0  0  0  0  0  0  0  0  0  0  0
   37.6940   32.9390   39.8490 H   0  0  0  0  0  0  0  0  0  0  0  0
   37.5120   33.4900   41.5160 H   0  0  0  0  0  0  0  0  0  0  0  0
  1  2  2  0  0  0  0
  1  6  1  0  0  0  0
  2  3  1  0  0  0  0
  3  9  1  0  0  0  0
  3  4  2  0  0  0  0
  5  4  1  0  0  0  0
  5  8  1  0  0  0  0
  6  5  2  0  0  0  0
  7  1  1  0  0  0  0
  9 10  1  0  0  0  0
 10 19  1  0  0  0  0
 10 11  2  0  0  0  0
 11 20  1  0  0  0  0
 12 21  1  0  0  0  0
 12 11  1  0  0  0  0
 13 12  2  0  0  0  0
 14 22  1  0  0  0  0
 14 13  1  0  0  0  0
 15 14  2  0  0  0  0
 16 15  1  0  0  0  0
 16 17  2  0  0  0  0
 17 18  1  0  0  0  0
 18 13  1  0  0  0  0
 18  9  2  0  0  0  0
 23 15  1  0  0  0  0
 24 16  1  0  0  0  0
 25 17  1  0  0  0  0
 26  2  1  0  0  0  0
 28 27  2  6  0  0  0
 28 26  1  0  0  0  0
 28 39  1  0  0  0  0
 29 28  1  0  0  0  0
 30 35  1  0  0  0  0
 30 37  1  1  0  0  0
 31 29  1  6  0  0  0
 31 30  1  0  0  0  0
 32 34  1  0  0  0  0
 32 31  1  0  0  0  0
 33 32  1  0  0  0  0
 34 35  1  0  0  0  0
 35 36  1  0  0  0  0
 38 37  1  0  0  0  0
 39 40  1  0  0  0  0
 40 41  2  0  0  0  0
 42 40  1  0  0  0  0
 42 44  1  0  0  0  0
 43 42  1  0  0  0  0
M  END
>  <minimizedAffinity>
-6.3380127

$$$$

 OpenBabel03252508093D

 44 47  0  0  1  0  0  0  0  0999 V2000
   36.8260   29.8600   37.4690 C   0  0  0  0  0  0  0  0  0  0  0  0
   37.1450   29.3380   38.7120 C   0  0  0  0  0  0  0  0  0  0  0  0
   36.3960   28.3180   39.2440 C   0  0  0  0  0  0  0  0  0  0  0  0
   35.3380   27.8580   38.4800 N   0  0  0  0  0  0  0  0  0  0  0  0
   35.0380   28.3620   37.2880 C   0  0  0  0  0  0  0  0  0  0  0  0
   35.7920   29.3650   36.7920 N   0  0  0  0  0  0  0  0  0  0  0  0
   37.4190   30.6740   37.0400 H   0  0  0  0  0  0  0  0  0  0  0  0
   34.2090   27.9900   36.7090 H   0  0  0  0  0  0  0  0  0  0  0  0
   36.5880   27.6810   40.4900 C   0  0  0  0  0  0  0  0  0  0  0  0
   36.2730   28.2600   41.7230 C   0  0  0  0  0  0  0  0  0  0  0  0
   36.5200   27.6720   42.9370 C   0  0  0  0  0  0  0  0  0  0  0  0
   37.1140   26.4350   42.9840 C   0  0  0  0  0  0  0  0  0  0  0  0
   37.4420   25.8280   41.7440 C   0  0  0  0  0  0  0  0  0  0  0  0
   38.0400   24.5930   41.7770 C   0  0  0  0  0  0  0  0  0  0  0  0
   38.3860   23.9450   40.6090 C   0  0  0  0  0  0  0  0  0  0  0  0
   38.1180   24.5610   39.3730 C   0  0  0  0  0  0  0  0  0  0  0  0
   37.5050   25.8270   39.3900 C   0  0  0  0  0  0  0  0  0  0  0  0
   37.1770   26.4450   40.5660 C   0  0  0  0  0  0  0  0  0  0  0  0
   35.8010   29.2420   41.6920 H   0  0  0  0  0  0  0  0  0  0  0  0
   36.2310   28.2140   43.8340 H   0  0  0  0  0  0  0  0  0  0  0  0
   37.3230   25.9450   43.9250 H   0  0  0  0  0  0  0  0  0  0  0  0
   38.2420   24.1220   42.7450 H   0  0  0  0  0  0  0  0  0  0  0  0
   38.8530   22.9800   40.7110 H   0  0  0  0  0  0  0  0  0  0  0  0
   38.4210   23.9800   38.5300 H   0  0  0  0  0  0  0  0  0  0  0  0
   37.3660   26.1140   38.3700 H   0  0  0  0  0  0  0  0  0  0  0  0
   38.2200   29.8800   39.3610 O   0  0  0  0  0  0  0  0  0  0  0  0
   36.7580   31.7250   40.5090 O   0  0  0  0  0  0  0  0  0  0  0  0
   38.1630   31.2750   40.3200 P   0  0  1  0  0  0  0  0  0  0  0  0
   38.7980   30.9730   41.8620 O   0  0  0  0  0  0  0  0  0  0  0  0
   41.0410   31.0640   42.7360 C   0  0  1  0  0  3  0  0  0  0  0  0
   40.0280   30.3690   41.8140 C   0  0  1  0  0  3  0  0  0  0  0  0
   40.0500   28.9860   42.4310 C   0  0  0  0  0  3  0  0  0  0  0  0
   39.3880   29.0720   43.3420 H   0  0  0  0  0  0  0  0  0  0  0  0
   41.3230   28.7720   42.9320 O   0  0  0  0  0  0  0  0  0  0  0  0
   42.0500   29.9310   42.8010 C   0  0  0  0  0  3  0  0  0  0  0  0
   42.8220   30.0880   43.5550 H   0  0  0  0  0  0  0  0  0  0  0  0
   41.5690   32.1930   42.1250 O   0  0  0  0  0  0  0  0  0  0  0  0
   41.0540   32.9840   42.4650 H   0  0  0  0  0  0  0  0  0  0  0  0
   39.0890   32.4620   39.5780 O   0  0  0  0  0  0  0  0  0  0  0  0
   39.6300   33.5870   40.1780 C   0  0  0  0  0  0  0  0  0  0  0  0
   40.6460   33.8460   39.5060 O   0  0  0  0  0  0  0  0  0  0  0  0
   38.8320   34.0020   41.3040 N   0  0  0  0  0  0  0  0  0  0  0  0
   37.9050   34.4370   41.0600 H   0  0  0  0  0  0  0  0  0  0  0  0
   39.0280   33.9400   42.3280 H   0  0  0  0  0  0  0  0  0  0  0  0
  1  2  1  0  0  0  0
  2  3  2  0  0  0  0
  2 26  1  0  0  0  0
  3  9  1  0  0  0  0
  4  3  1  0  0  0  0
  5  4  2  0  0  0  0
  6  5  1  0  0  0  0
  6  1  2  0  0  0  0
  7  1  1  0  0  0  0
  8  5  1  0  0  0  0
  9 18  2  0  0  0  0
  9 10  1  0  0  0  0
 10 11  2  0  0  0  0
 11 12  1  0  0  0  0
 11 20  1  0  0  0  0
 12 21  1  0  0  0  0
 13 14  1  0  0  0  0
 13 12  2  0  0  0  0
 14 22  1  0  0  0  0
 15 23  1  0  0  0  0
 15 14  2  0  0  0  0
 16 17  2  0  0  0  0
 16 15  1  0  0  0  0
 17 18  1  0  0  0  0
 18 13  1  0  0  0  0
 19 10  1  0  0  0  0
 24 16  1  0  0  0  0
 25 17  1  0  0  0  0
 26 28  1  0  0  0  0
 28 27  2  1  0  0  0
 28 29  1  0  0  0  0
 30 37  1  6  0  0  0
 30 35  1  0  0  0  0
 31 29  1  1  0  0  0
 31 32  1  0  0  0  0
 31 30  1  0  0  0  0
 32 34  1  0  0  0  0
 32 33  1  0  0  0  0
 35 34  1  0  0  0  0
 35 36  1  0  0  0  0
 37 38  1  0  0  0  0
 39 40  1  0  0  0  0
 39 28  1  0  0  0  0
 40 42  1  0  0  0  0
 41 40  2  0  0  0  0
 42 44  1  0  0  0  0
 43 42  1  0  0  0  0
M  END
>  <minimizedAffinity>
-6.04655123

$$$$

 OpenBabel03252508093D

 44 47  0  0  1  0  0  0  0  0999 V2000
   37.7190   29.7330   37.3410 C   0  0  0  0  0  0  0  0  0  0  0  0
   37.9420   29.2940   38.6360 C   0  0  0  0  0  0  0  0  0  0  0  0
   36.8910   28.8700   39.4110 C   0  0  0  0  0  0  0  0  0  0  0  0
   35.6360   28.9060   38.8310 N   0  0  0  0  0  0  0  0  0  0  0  0
   35.4270   29.3280   37.5880 C   0  0  0  0  0  0  0  0  0  0  0  0
   36.4810   29.7400   36.8520 N   0  0  0  0  0  0  0  0  0  0  0  0
   38.5530   30.0730   36.7190 H   0  0  0  0  0  0  0  0  0  0  0  0
   34.4410   29.3500   37.1560 H   0  0  0  0  0  0  0  0  0  0  0  0
   36.9500   28.3960   40.7410 C   0  0  0  0  0  0  0  0  0  0  0  0
   37.1190   29.2190   41.8590 C   0  0  0  0  0  0  0  0  0  0  0  0
   37.2440   28.7570   43.1440 C   0  0  0  0  0  0  0  0  0  0  0  0
   37.2050   27.4070   43.3870 C   0  0  0  0  0  0  0  0  0  0  0  0
   37.0330   26.5530   42.2660 C   0  0  0  0  0  0  0  0  0  0  0  0
   36.9960   25.2000   42.4950 C   0  0  0  0  0  0  0  0  0  0  0  0
   36.8320   24.3120   41.4520 C   0  0  0  0  0  0  0  0  0  0  0  0
   36.6980   24.8050   40.1410 C   0  0  0  0  0  0  0  0  0  0  0  0
   36.7420   26.1990   39.9570 C   0  0  0  0  0  0  0  0  0  0  0  0
   36.9110   27.0530   41.0120 C   0  0  0  0  0  0  0  0  0  0  0  0
   37.1510   30.2920   41.6710 H   0  0  0  0  0  0  0  0  0  0  0  0
   37.3710   29.4890   43.9380 H   0  0  0  0  0  0  0  0  0  0  0  0
   37.3010   27.0110   44.3890 H   0  0  0  0  0  0  0  0  0  0  0  0
   37.0990   24.8270   43.5200 H   0  0  0  0  0  0  0  0  0  0  0  0
   36.8140   23.2660   41.7060 H   0  0  0  0  0  0  0  0  0  0  0  0
   36.5740   24.0410   39.4070 H   0  0  0  0  0  0  0  0  0  0  0  0
   36.6030   26.3740   38.9110 H   0  0  0  0  0  0  0  0  0  0  0  0
   39.2340   29.3040   39.0860 O   0  0  0  0  0  0  0  0  0  0  0  0
   40.3740   30.4940   41.1210 O   0  0  0  0  0  0  0  0  0  0  0  0
   40.0350   30.6720   39.6840 P   0  0  1  0  0  0  0  0  0  0  0  0
   41.4930   30.9240   38.8590 O   0  0  0  0  0  0  0  0  0  0  0  0
   42.5490   32.9900   39.5090 C   0  0  1  0  0  3  0  0  0  0  0  0
   41.6730   32.2360   38.4990 C   0  0  1  0  0  3  0  0  0  0  0  0
   42.5250   32.4140   37.2600 C   0  0  0  0  0  3  0  0  0  0  0  0
   43.3390   31.6370   37.3630 H   0  0  0  0  0  0  0  0  0  0  0  0
   43.1760   33.6300   37.3730 O   0  0  0  0  0  0  0  0  0  0  0  0
   42.9110   34.1610   38.6130 C   0  0  0  0  0  3  0  0  0  0  0  0
   43.6950   34.7940   39.0290 H   0  0  0  0  0  0  0  0  0  0  0  0
   41.7980   33.3930   40.6070 O   0  0  0  0  0  0  0  0  0  0  0  0
   41.9410   32.7120   41.3290 H   0  0  0  0  0  0  0  0  0  0  0  0
   39.0440   32.0050   39.4500 O   0  0  0  0  0  0  0  0  0  0  0  0
   38.2310   32.6090   40.3960 C   0  0  0  0  0  0  0  0  0  0  0  0
   37.0710   32.3340   40.0380 O   0  0  0  0  0  0  0  0  0  0  0  0
   39.0200   33.2950   41.3880 N   0  0  0  0  0  0  0  0  0  0  0  0
   39.5350   32.6690   42.0620 H   0  0  0  0  0  0  0  0  0  0  0  0
   39.1640   34.3170   41.5470 H   0  0  0  0  0  0  0  0  0  0  0  0
  1  2  1  0  0  0  0
  2 26  1  0  0  0  0
  2  3  2  0  0  0  0
  3  9  1  0  0  0  0
  4  3  1  0  0  0  0
  5  4  2  0  0  0  0
  6  1  2  0  0  0  0
  6  5  1  0  0  0  0
  7  1  1  0  0  0  0
  8  5  1  0  0  0  0
  9 18  2  0  0  0  0
  9 10  1  0  0  0  0
 10 11  2  0  0  0  0
 11 12  1  0  0  0  0
 11 20  1  0  0  0  0
 12 21  1  0  0  0  0
 13 14  1  0  0  0  0
 13 12  2  0  0  0  0
 14 22  1  0  0  0  0
 15 23  1  0  0  0  0
 15 14  2  0  0  0  0
 16 15  1  0  0  0  0
 17 16  2  0  0  0  0
 17 18  1  0  0  0  0
 18 13  1  0  0  0  0
 19 10  1  0  0  0  0
 24 16  1  0  0  0  0
 25 17  1  0  0  0  0
 26 28  1  0  0  0  0
 28 27  2  1  0  0  0
 29 28  1  0  0  0  0
 30 37  1  1  0  0  0
 31 29  1  1  0  0  0
 31 30  1  0  0  0  0
 32 33  1  0  0  0  0
 32 34  1  0  0  0  0
 32 31  1  0  0  0  0
 34 35  1  0  0  0  0
 35 36  1  0  0  0  0
 35 30  1  0  0  0  0
 37 38  1  0  0  0  0
 39 28  1  0  0  0  0
 39 40  1  0  0  0  0
 40 42  1  0  0  0  0
 41 40  2  0  0  0  0
 42 44  1  0  0  0  0
 42 43  1  0  0  0  0
M  END
>  <minimizedAffinity>
-6.00815821

$$$$

 OpenBabel03252508093D

 44 47  0  0  1  0  0  0  0  0999 V2000
   37.1160   29.2780   36.9920 C   0  0  0  0  0  0  0  0  0  0  0  0
   37.4390   28.8240   38.2610 C   0  0  0  0  0  0  0  0  0  0  0  0
   36.4440   28.4880   39.1460 C   0  0  0  0  0  0  0  0  0  0  0  0
   35.1420   28.6240   38.7010 N   0  0  0  0  0  0  0  0  0  0  0  0
   34.8380   29.0590   37.4820 C   0  0  0  0  0  0  0  0  0  0  0  0
   35.8380   29.3830   36.6350 N   0  0  0  0  0  0  0  0  0  0  0  0
   37.9050   29.5490   36.2830 H   0  0  0  0  0  0  0  0  0  0  0  0
   33.8170   29.1590   37.1550 H   0  0  0  0  0  0  0  0  0  0  0  0
   36.6060   28.0130   40.4670 C   0  0  0  0  0  0  0  0  0  0  0  0
   36.7240   28.8400   41.5880 C   0  0  0  0  0  0  0  0  0  0  0  0
   36.9470   28.3850   42.8620 C   0  0  0  0  0  0  0  0  0  0  0  0
   37.0680   27.0370   43.0890 C   0  0  0  0  0  0  0  0  0  0  0  0
   36.9500   26.1780   41.9660 C   0  0  0  0  0  0  0  0  0  0  0  0
   37.0730   24.8280   42.1800 C   0  0  0  0  0  0  0  0  0  0  0  0
   36.9690   23.9350   41.1320 C   0  0  0  0  0  0  0  0  0  0  0  0
   36.7330   24.4210   39.8330 C   0  0  0  0  0  0  0  0  0  0  0  0
   36.6150   25.8120   39.6640 C   0  0  0  0  0  0  0  0  0  0  0  0
   36.7270   26.6720   40.7230 C   0  0  0  0  0  0  0  0  0  0  0  0
   36.6290   29.9120   41.4130 H   0  0  0  0  0  0  0  0  0  0  0  0
   37.0210   29.1200   43.6600 H   0  0  0  0  0  0  0  0  0  0  0  0
   37.2450   26.6460   44.0830 H   0  0  0  0  0  0  0  0  0  0  0  0
   37.2550   24.4610   43.1960 H   0  0  0  0  0  0  0  0  0  0  0  0
   37.0780   22.8920   41.3740 H   0  0  0  0  0  0  0  0  0  0  0  0
   36.6680   23.6540   39.0940 H   0  0  0  0  0  0  0  0  0  0  0  0
   36.4180   25.9800   38.6270 H   0  0  0  0  0  0  0  0  0  0  0  0
   38.7670   28.7320   38.5730 O   0  0  0  0  0  0  0  0  0  0  0  0
   38.8930   31.0680   39.7500 O   0  0  0  0  0  0  0  0  0  0  0  0
   39.7280   30.0270   39.0930 P   0  0  1  0  0  0  0  0  0  0  0  0
   40.8670   29.5110   40.2360 O   0  0  0  0  0  0  0  0  0  0  0  0
   40.8830   27.2400   41.0410 C   0  0  1  0  0  3  0  0  0  0  0  0
   40.3270   28.6660   41.1710 C   0  0  1  0  0  3  0  0  0  0  0  0
   40.7680   28.9670   42.5890 C   0  0  0  0  0  3  0  0  0  0  0  0
   41.8600   29.2390   42.4930 H   0  0  0  0  0  0  0  0  0  0  0  0
   40.7570   27.7740   43.2910 O   0  0  0  0  0  0  0  0  0  0  0  0
   40.4790   26.7490   42.4190 C   0  0  0  0  0  3  0  0  0  0  0  0
   40.9160   25.7830   42.6760 H   0  0  0  0  0  0  0  0  0  0  0  0
   40.2260   26.5470   40.0320 O   0  0  0  0  0  0  0  0  0  0  0  0
   40.7970   26.6060   39.2100 H   0  0  0  0  0  0  0  0  0  0  0  0
   40.5410   30.6460   37.7620 O   0  0  0  0  0  0  0  0  0  0  0  0
   40.5070   31.9530   37.3050 C   0  0  0  0  0  0  0  0  0  0  0  0
   41.6580   32.3860   37.5020 O   0  0  0  0  0  0  0  0  0  0  0  0
   39.2000   32.2860   36.7970 N   0  0  0  0  0  0  0  0  0  0  0  0
   38.9480   31.8370   35.8780 H   0  0  0  0  0  0  0  0  0  0  0  0
   38.4600   32.9040   37.1960 H   0  0  0  0  0  0  0  0  0  0  0  0
  1  2  1  0  0  0  0
  2 26  1  0  0  0  0
  2  3  2  0  0  0  0
  3  9  1  0  0  0  0
  4  3  1  0  0  0  0
  5  4  2  0  0  0  0
  6  1  2  0  0  0  0
  6  5  1  0  0  0  0
  7  1  1  0  0  0  0
  8  5  1  0  0  0  0
  9 18  2  0  0  0  0
  9 10  1  0  0  0  0
 10 11  2  0  0  0  0
 11 12  1  0  0  0  0
 11 20  1  0  0  0  0
 12 21  1  0  0  0  0
 13 14  1  0  0  0  0
 13 12  2  0  0  0  0
 14 22  1  0  0  0  0
 15 23  1  0  0  0  0
 15 14  2  0  0  0  0
 16 15  1  0  0  0  0
 17 16  2  0  0  0  0
 17 18  1  0  0  0  0
 18 13  1  0  0  0  0
 19 10  1  0  0  0  0
 24 16  1  0  0  0  0
 25 17  1  0  0  0  0
 26 28  1  0  0  0  0
 28 27  2  1  0  0  0
 28 29  1  0  0  0  0
 30 37  1  6  0  0  0
 30 31  1  0  0  0  0
 30 35  1  0  0  0  0
 31 29  1  6  0  0  0
 31 32  1  0  0  0  0
 32 34  1  0  0  0  0
 33 32  1  0  0  0  0
 35 36  1  0  0  0  0
 35 34  1  0  0  0  0
 38 37  1  0  0  0  0
 39 28  1  0  0  0  0
 40 41  2  0  0  0  0
 40 39  1  0  0  0  0
 42 44  1  0  0  0  0
 42 40  1  0  0  0  0
 43 42  1  0  0  0  0
M  END
>  <minimizedAffinity>
-5.80469751

$$$$

 OpenBabel03252508093D

 44 47  0  0  1  0  0  0  0  0999 V2000
   38.0440   29.4250   37.2300 C   0  0  0  0  0  0  0  0  0  0  0  0
   38.1980   28.9570   38.5250 C   0  0  0  0  0  0  0  0  0  0  0  0
   37.1000   28.7980   39.3350 C   0  0  0  0  0  0  0  0  0  0  0  0
   35.8710   29.1210   38.7900 N   0  0  0  0  0  0  0  0  0  0  0  0
   35.7290   29.5680   37.5460 C   0  0  0  0  0  0  0  0  0  0  0  0
   36.8270   29.7160   36.7750 N   0  0  0  0  0  0  0  0  0  0  0  0
   38.9150   29.5550   36.5800 H   0  0  0  0  0  0  0  0  0  0  0  0
   34.7630   29.8160   37.1410 H   0  0  0  0  0  0  0  0  0  0  0  0
   37.0880   28.3350   40.6700 C   0  0  0  0  0  0  0  0  0  0  0  0
   37.2450   29.1610   41.7870 C   0  0  0  0  0  0  0  0  0  0  0  0
   37.3000   28.7070   43.0790 C   0  0  0  0  0  0  0  0  0  0  0  0
   37.1990   27.3620   43.3320 C   0  0  0  0  0  0  0  0  0  0  0  0
   37.0370   26.5040   42.2130 C   0  0  0  0  0  0  0  0  0  0  0  0
   36.9390   25.1570   42.4510 C   0  0  0  0  0  0  0  0  0  0  0  0
   36.7810   24.2650   41.4090 C   0  0  0  0  0  0  0  0  0  0  0  0
   36.7190   24.7510   40.0900 C   0  0  0  0  0  0  0  0  0  0  0  0
   36.8260   26.1390   39.8960 C   0  0  0  0  0  0  0  0  0  0  0  0
   36.9860   26.9970   40.9500 C   0  0  0  0  0  0  0  0  0  0  0  0
   37.3260   30.2310   41.5920 H   0  0  0  0  0  0  0  0  0  0  0  0
   37.4240   29.4420   43.8730 H   0  0  0  0  0  0  0  0  0  0  0  0
   37.2390   26.9730   44.3400 H   0  0  0  0  0  0  0  0  0  0  0  0
   36.9860   24.7900   43.4820 H   0  0  0  0  0  0  0  0  0  0  0  0
   36.7120   23.2230   41.6710 H   0  0  0  0  0  0  0  0  0  0  0  0
   36.5950   23.9840   39.3580 H   0  0  0  0  0  0  0  0  0  0  0  0
   36.7350   26.3100   38.8450 H   0  0  0  0  0  0  0  0  0  0  0  0
   39.4690   28.6690   38.9390 O   0  0  0  0  0  0  0  0  0  0  0  0
   41.9470   29.4860   39.1670 O   0  0  0  0  0  0  0  0  0  0  0  0
   40.5530   29.8010   39.5810 P   0  0  1  0  0  0  0  0  0  0  0  0
   40.2070   31.3580   39.0090 O   0  0  0  0  0  0  0  0  0  0  0  0
   40.0620   33.4560   40.1850 C   0  0  1  0  0  3  0  0  0  0  0  0
   39.4430   32.0830   39.8880 C   0  0  1  0  0  3  0  0  0  0  0  0
   38.1180   32.5360   39.3100 C   0  0  0  0  0  3  0  0  0  0  0  0
   38.3590   32.8260   38.2450 H   0  0  0  0  0  0  0  0  0  0  0  0
   37.7750   33.7230   39.9350 O   0  0  0  0  0  0  0  0  0  0  0  0
   38.8140   34.1130   40.7460 C   0  0  0  0  0  3  0  0  0  0  0  0
   38.9210   35.1890   40.8850 H   0  0  0  0  0  0  0  0  0  0  0  0
   41.0630   33.3470   41.1420 O   0  0  0  0  0  0  0  0  0  0  0  0
   41.9380   33.3060   40.6540 H   0  0  0  0  0  0  0  0  0  0  0  0
   40.3950   29.7910   41.2510 O   0  0  0  0  0  0  0  0  0  0  0  0
   41.4220   29.7680   42.1810 C   0  0  0  0  0  0  0  0  0  0  0  0
   41.1250   28.8410   42.9570 O   0  0  0  0  0  0  0  0  0  0  0  0
   42.3970   30.7900   41.8940 N   0  0  0  0  0  0  0  0  0  0  0  0
   43.0010   30.6090   41.0500 H   0  0  0  0  0  0  0  0  0  0  0  0
   42.6010   31.6860   42.3910 H   0  0  0  0  0  0  0  0  0  0  0  0
  1  2  1  0  0  0  0
  2 26  1  0  0  0  0
  2  3  2  0  0  0  0
  3  9  1  0  0  0  0
  4  3  1  0  0  0  0
  5  4  2  0  0  0  0
  6  1  2  0  0  0  0
  6  5  1  0  0  0  0
  7  1  1  0  0  0  0
  8  5  1  0  0  0  0
  9 18  2  0  0  0  0
  9 10  1  0  0  0  0
 10 11  2  0  0  0  0
 11 12  1  0  0  0  0
 11 20  1  0  0  0  0
 12 21  1  0  0  0  0
 13 14  1  0  0  0  0
 13 12  2  0  0  0  0
 14 22  1  0  0  0  0
 15 23  1  0  0  0  0
 15 14  2  0  0  0  0
 16 15  1  0  0  0  0
 17 16  2  0  0  0  0
 17 18  1  0  0  0  0
 18 13  1  0  0  0  0
 19 10  1  0  0  0  0
 24 16  1  0  0  0  0
 25 17  1  0  0  0  0
 26 28  1  0  0  0  0
 28 27  2  6  0  0  0
 28 39  1  0  0  0  0
 29 28  1  0  0  0  0
 30 35  1  0  0  0  0
 30 37  1  1  0  0  0
 31 29  1  6  0  0  0
 31 30  1  0  0  0  0
 32 31  1  0  0  0  0
 32 34  1  0  0  0  0
 33 32  1  0  0  0  0
 34 35  1  0  0  0  0
 35 36  1  0  0  0  0
 38 37  1  0  0  0  0
 39 40  1  0  0  0  0
 40 41  2  0  0  0  0
 42 40  1  0  0  0  0
 42 44  1  0  0  0  0
 43 42  1  0  0  0  0
M  END
>  <minimizedAffinity>
-5.77597618

$$$$

 OpenBabel03252508093D

 44 47  0  0  1  0  0  0  0  0999 V2000
   37.0510   28.9660   36.7420 C   0  0  0  0  0  0  0  0  0  0  0  0
   37.4360   28.1330   37.7820 C   0  0  0  0  0  0  0  0  0  0  0  0
   36.5230   27.7540   38.7350 C   0  0  0  0  0  0  0  0  0  0  0  0
   35.2350   28.2390   38.5920 N   0  0  0  0  0  0  0  0  0  0  0  0
   34.8720   29.0360   37.5920 C   0  0  0  0  0  0  0  0  0  0  0  0
   35.7930   29.3930   36.6720 N   0  0  0  0  0  0  0  0  0  0  0  0
   37.7750   29.2720   35.9810 H   0  0  0  0  0  0  0  0  0  0  0  0
   33.8640   29.4040   37.4990 H   0  0  0  0  0  0  0  0  0  0  0  0
   36.7540   26.9170   39.8490 C   0  0  0  0  0  0  0  0  0  0  0  0
   36.6670   25.5220   39.8130 C   0  0  0  0  0  0  0  0  0  0  0  0
   36.8250   24.7120   40.9070 C   0  0  0  0  0  0  0  0  0  0  0  0
   37.0880   25.2690   42.1330 C   0  0  0  0  0  0  0  0  0  0  0  0
   37.1820   26.6840   42.1940 C   0  0  0  0  0  0  0  0  0  0  0  0
   37.4390   27.2550   43.4150 C   0  0  0  0  0  0  0  0  0  0  0  0
   37.5440   28.6250   43.5460 C   0  0  0  0  0  0  0  0  0  0  0  0
   37.3850   29.4400   42.4100 C   0  0  0  0  0  0  0  0  0  0  0  0
   37.1220   28.8090   41.1810 C   0  0  0  0  0  0  0  0  0  0  0  0
   37.0200   27.4480   41.0850 C   0  0  0  0  0  0  0  0  0  0  0  0
   36.4590   25.0740   38.8410 H   0  0  0  0  0  0  0  0  0  0  0  0
   36.7370   23.6370   40.7620 H   0  0  0  0  0  0  0  0  0  0  0  0
   37.2170   24.6570   43.0160 H   0  0  0  0  0  0  0  0  0  0  0  0
   37.5630   26.6100   44.2920 H   0  0  0  0  0  0  0  0  0  0  0  0
   37.7460   29.0020   44.5340 H   0  0  0  0  0  0  0  0  0  0  0  0
   37.4860   30.4830   42.6140 H   0  0  0  0  0  0  0  0  0  0  0  0
   37.0570   29.5830   40.4460 H   0  0  0  0  0  0  0  0  0  0  0  0
   38.7390   27.7210   37.8030 O   0  0  0  0  0  0  0  0  0  0  0  0
   40.8330   29.1200   37.0830 O   0  0  0  0  0  0  0  0  0  0  0  0
   40.0490   28.6890   38.2710 P   0  0  1  0  0  0  0  0  0  0  0  0
   39.5110   30.0970   39.0450 O   0  0  0  0  0  0  0  0  0  0  0  0
   39.8660   32.3400   38.2410 C   0  0  1  0  0  3  0  0  0  0  0  0
   40.4270   31.1160   38.9790 C   0  0  1  0  0  3  0  0  0  0  0  0
   40.7210   31.7560   40.3200 C   0  0  0  0  0  3  0  0  0  0  0  0
   39.7180   31.7980   40.8390 H   0  0  0  0  0  0  0  0  0  0  0  0
   41.0580   33.0780   40.0860 O   0  0  0  0  0  0  0  0  0  0  0  0
   40.8770   33.3520   38.7510 C   0  0  0  0  0  3  0  0  0  0  0  0
   40.6090   34.3820   38.5150 H   0  0  0  0  0  0  0  0  0  0  0  0
   39.9540   32.1690   36.8660 O   0  0  0  0  0  0  0  0  0  0  0  0
   39.0590   31.8460   36.5490 H   0  0  0  0  0  0  0  0  0  0  0  0
   40.9950   27.8110   39.3430 O   0  0  0  0  0  0  0  0  0  0  0  0
   40.6190   27.3500   40.5940 C   0  0  0  0  0  0  0  0  0  0  0  0
   40.3010   26.1600   40.4100 O   0  0  0  0  0  0  0  0  0  0  0  0
   40.7400   28.3920   41.5830 N   0  0  0  0  0  0  0  0  0  0  0  0
   41.7280   28.6470   41.8460 H   0  0  0  0  0  0  0  0  0  0  0  0
   40.0020   28.9360   42.0810 H   0  0  0  0  0  0  0  0  0  0  0  0
  1  2  1  0  0  0  0
  2 26  1  0  0  0  0
  2  3  2  0  0  0  0
  3  9  1  0  0  0  0
  4  3  1  0  0  0  0
  5  4  2  0  0  0  0
  6  1  2  0  0  0  0
  6  5  1  0  0  0  0
  7  1  1  0  0  0  0
  8  5  1  0  0  0  0
  9 18  1  0  0  0  0
 10  9  2  0  0  0  0
 10 11  1  0  0  0  0
 11 12  2  0  0  0  0
 12 13  1  0  0  0  0
 12 21  1  0  0  0  0
 13 14  1  0  0  0  0
 14 15  2  0  0  0  0
 14 22  1  0  0  0  0
 15 23  1  0  0  0  0
 16 24  1  0  0  0  0
 16 15  1  0  0  0  0
 17 16  2  0  0  0  0
 18 17  1  0  0  0  0
 18 13  2  0  0  0  0
 19 10  1  0  0  0  0
 20 11  1  0  0  0  0
 25 17  1  0  0  0  0
 26 28  1  0  0  0  0
 28 27  2  6  0  0  0
 28 29  1  0  0  0  0
 28 39  1  0  0  0  0
 30 37  1  6  0  0  0
 30 35  1  0  0  0  0
 30 31  1  0  0  0  0
 31 29  1  1  0  0  0
 31 32  1  0  0  0  0
 32 33  1  0  0  0  0
 34 32  1  0  0  0  0
 35 34  1  0  0  0  0
 36 35  1  0  0  0  0
 38 37  1  0  0  0  0
 39 40  1  0  0  0  0
 40 42  1  0  0  0  0
 41 40  2  0  0  0  0
 42 43  1  0  0  0  0
 42 44  1  0  0  0  0
M  END
>  <minimizedAffinity>
-5.72188568

$$$$

 OpenBabel03252508093D

 44 47  0  0  1  0  0  0  0  0999 V2000
   37.2700   29.3660   37.0330 C   0  0  0  0  0  0  0  0  0  0  0  0
   37.6160   28.5140   38.0700 C   0  0  0  0  0  0  0  0  0  0  0  0
   36.6390   27.8610   38.7810 C   0  0  0  0  0  0  0  0  0  0  0  0
   35.3300   28.0990   38.4040 N   0  0  0  0  0  0  0  0  0  0  0  0
   35.0040   28.9160   37.4080 C   0  0  0  0  0  0  0  0  0  0  0  0
   35.9860   29.5450   36.7290 N   0  0  0  0  0  0  0  0  0  0  0  0
   38.0440   29.8900   36.4640 H   0  0  0  0  0  0  0  0  0  0  0  0
   33.9770   29.0900   37.1310 H   0  0  0  0  0  0  0  0  0  0  0  0
   36.8260   26.9660   39.8580 C   0  0  0  0  0  0  0  0  0  0  0  0
   36.7600   25.5740   39.7410 C   0  0  0  0  0  0  0  0  0  0  0  0
   36.8750   24.7060   40.7960 C   0  0  0  0  0  0  0  0  0  0  0  0
   37.0660   25.1980   42.0630 C   0  0  0  0  0  0  0  0  0  0  0  0
   37.1370   26.6090   42.2050 C   0  0  0  0  0  0  0  0  0  0  0  0
   37.3240   27.1130   43.4670 C   0  0  0  0  0  0  0  0  0  0  0  0
   37.4020   28.4750   43.6780 C   0  0  0  0  0  0  0  0  0  0  0  0
   37.2890   29.3500   42.5820 C   0  0  0  0  0  0  0  0  0  0  0  0
   37.0980   28.7860   41.3090 C   0  0  0  0  0  0  0  0  0  0  0  0
   37.0210   27.4310   41.1330 C   0  0  0  0  0  0  0  0  0  0  0  0
   36.6090   25.1780   38.7370 H   0  0  0  0  0  0  0  0  0  0  0  0
   36.8090   23.6400   40.5880 H   0  0  0  0  0  0  0  0  0  0  0  0
   37.1590   24.5390   42.9160 H   0  0  0  0  0  0  0  0  0  0  0  0
   37.4120   26.4230   44.3130 H   0  0  0  0  0  0  0  0  0  0  0  0
   37.5480   28.7990   44.6950 H   0  0  0  0  0  0  0  0  0  0  0  0
   37.3640   30.3810   42.8480 H   0  0  0  0  0  0  0  0  0  0  0  0
   37.0590   29.5990   40.6150 H   0  0  0  0  0  0  0  0  0  0  0  0
   38.9490   28.3630   38.3360 O   0  0  0  0  0  0  0  0  0  0  0  0
   39.2230   30.6950   39.4960 O   0  0  0  0  0  0  0  0  0  0  0  0
   39.9850   29.6170   38.8100 P   0  0  1  0  0  0  0  0  0  0  0  0
   41.1470   29.0560   39.9080 O   0  0  0  0  0  0  0  0  0  0  0  0
   41.0460   26.8300   40.8240 C   0  0  1  0  0  3  0  0  0  0  0  0
   40.5990   28.2970   40.9100 C   0  0  1  0  0  3  0  0  0  0  0  0
   41.1340   28.6310   42.2870 C   0  0  0  0  0  3  0  0  0  0  0  0
   42.2360   28.8180   42.1240 H   0  0  0  0  0  0  0  0  0  0  0  0
   41.0780   27.4750   43.0480 O   0  0  0  0  0  0  0  0  0  0  0  0
   40.6820   26.4340   42.2430 C   0  0  0  0  0  3  0  0  0  0  0  0
   41.0640   25.4520   42.5260 H   0  0  0  0  0  0  0  0  0  0  0  0
   40.2900   26.1400   39.8840 O   0  0  0  0  0  0  0  0  0  0  0  0
   40.8200   26.1200   39.0330 H   0  0  0  0  0  0  0  0  0  0  0  0
   40.7680   30.1960   37.4430 O   0  0  0  0  0  0  0  0  0  0  0  0
   41.1280   31.5090   37.1890 C   0  0  0  0  0  0  0  0  0  0  0  0
   42.3650   31.5310   37.3310 O   0  0  0  0  0  0  0  0  0  0  0  0
   39.9710   32.3070   36.8700 N   0  0  0  0  0  0  0  0  0  0  0  0
   39.5440   32.1190   35.9250 H   0  0  0  0  0  0  0  0  0  0  0  0
   39.4860   33.0430   37.4290 H   0  0  0  0  0  0  0  0  0  0  0  0
  1  2  1  0  0  0  0
  2 26  1  0  0  0  0
  2  3  2  0  0  0  0
  3  9  1  0  0  0  0
  4  3  1  0  0  0  0
  5  4  2  0  0  0  0
  6  1  2  0  0  0  0
  6  5  1  0  0  0  0
  7  1  1  0  0  0  0
  8  5  1  0  0  0  0
  9 18  1  0  0  0  0
 10  9  2  0  0  0  0
 10 11  1  0  0  0  0
 11 12  2  0  0  0  0
 12 13  1  0  0  0  0
 12 21  1  0  0  0  0
 13 14  1  0  0  0  0
 14 15  2  0  0  0  0
 14 22  1  0  0  0  0
 15 23  1  0  0  0  0
 16 24  1  0  0  0  0
 16 15  1  0  0  0  0
 17 16  2  0  0  0  0
 18 17  1  0  0  0  0
 18 13  2  0  0  0  0
 19 10  1  0  0  0  0
 20 11  1  0  0  0  0
 25 17  1  0  0  0  0
 26 28  1  0  0  0  0
 28 27  2  1  0  0  0
 28 29  1  0  0  0  0
 30 37  1  6  0  0  0
 30 31  1  0  0  0  0
 30 35  1  0  0  0  0
 31 29  1  6  0  0  0
 31 32  1  0  0  0  0
 32 34  1  0  0  0  0
 33 32  1  0  0  0  0
 35 36  1  0  0  0  0
 35 34  1  0  0  0  0
 38 37  1  0  0  0  0
 39 28  1  0  0  0  0
 40 41  2  0  0  0  0
 40 39  1  0  0  0  0
 42 40  1  0  0  0  0
 42 44  1  0  0  0  0
 43 42  1  0  0  0  0
M  END
>  <minimizedAffinity>
-5.70947695

$$$$
