
 OpenBabel03252508073D

 44 47  0  0  1  0  0  0  0  0999 V2000
   45.3450   36.0990   42.7030 C   0  0  0  0  0  0  0  0  0  0  0  0
   45.5360   34.7260   42.7120 C   0  0  0  0  0  0  0  0  0  0  0  0
   45.2510   33.9980   43.8410 C   0  0  0  0  0  0  0  0  0  0  0  0
   44.7730   34.7010   44.9320 N   0  0  0  0  0  0  0  0  0  0  0  0
   44.5910   36.0170   44.9180 C   0  0  0  0  0  0  0  0  0  0  0  0
   44.8820   36.7060   43.7930 N   0  0  0  0  0  0  0  0  0  0  0  0
   45.5710   36.6840   41.8070 H   0  0  0  0  0  0  0  0  0  0  0  0
   44.2190   36.5460   45.7790 H   0  0  0  0  0  0  0  0  0  0  0  0
   45.3900   32.6020   44.0100 C   0  0  0  0  0  0  0  0  0  0  0  0
   44.8720   31.6500   43.1270 C   0  0  0  0  0  0  0  0  0  0  0  0
   44.9480   30.2950   43.3230 C   0  0  0  0  0  0  0  0  0  0  0  0
   45.5650   29.8050   44.4470 C   0  0  0  0  0  0  0  0  0  0  0  0
   46.1000   30.7540   45.3570 C   0  0  0  0  0  0  0  0  0  0  0  0
   46.7150   30.2770   46.4870 C   0  0  0  0  0  0  0  0  0  0  0  0
   47.2570   31.1430   47.4150 C   0  0  0  0  0  0  0  0  0  0  0  0
   47.1750   32.5300   47.1930 C   0  0  0  0  0  0  0  0  0  0  0  0
   46.5350   32.9710   46.0210 C   0  0  0  0  0  0  0  0  0  0  0  0
   46.0040   32.0860   45.1220 C   0  0  0  0  0  0  0  0  0  0  0  0
   44.3820   32.0340   42.2330 H   0  0  0  0  0  0  0  0  0  0  0  0
   44.5110   29.6450   42.5680 H   0  0  0  0  0  0  0  0  0  0  0  0
   45.6400   28.7420   44.6310 H   0  0  0  0  0  0  0  0  0  0  0  0
   46.7750   29.1950   46.6490 H   0  0  0  0  0  0  0  0  0  0  0  0
   47.7230   30.6980   48.2780 H   0  0  0  0  0  0  0  0  0  0  0  0
   47.6240   33.1140   47.9650 H   0  0  0  0  0  0  0  0  0  0  0  0
   46.5940   34.0380   46.0220 H   0  0  0  0  0  0  0  0  0  0  0  0
   46.0090   34.1530   41.5640 O   0  0  0  0  0  0  0  0  0  0  0  0
   47.8900   32.3830   41.1330 O   0  0  0  0  0  0  0  0  0  0  0  0
   47.6440   33.8460   41.2430 P   0  0  1  0  0  0  0  0  0  0  0  0
   48.1100   34.5390   39.7700 O   0  0  0  0  0  0  0  0  0  0  0  0
   48.7140   33.0250   37.9960 C   0  0  1  0  0  3  0  0  0  0  0  0
   47.6210   33.8520   38.6880 C   0  0  1  0  0  3  0  0  0  0  0  0
   46.6690   32.7350   39.0570 C   0  0  0  0  0  3  0  0  0  0  0  0
   47.1190   32.2750   39.9850 H   0  0  0  0  0  0  0  0  0  0  0  0
   46.7780   31.7550   38.0840 O   0  0  0  0  0  0  0  0  0  0  0  0
   47.7920   32.0980   37.2230 C   0  0  0  0  0  3  0  0  0  0  0  0
   48.3160   31.2610   36.7590 H   0  0  0  0  0  0  0  0  0  0  0  0
   49.4740   33.8220   37.1500 O   0  0  0  0  0  0  0  0  0  0  0  0
   50.3020   34.0830   37.6530 H   0  0  0  0  0  0  0  0  0  0  0  0
   48.5580   34.5280   42.4740 O   0  0  0  0  0  0  0  0  0  0  0  0
   49.7480   35.2250   42.3350 C   0  0  0  0  0  0  0  0  0  0  0  0
   49.4090   36.3480   41.9190 O   0  0  0  0  0  0  0  0  0  0  0  0
   50.8700   34.4040   42.7140 N   0  0  0  0  0  0  0  0  0  0  0  0
   50.9640   34.2220   43.7470 H   0  0  0  0  0  0  0  0  0  0  0  0
   51.6080   33.9580   42.1250 H   0  0  0  0  0  0  0  0  0  0  0  0
  1  2  2  0  0  0  0
  1  6  1  0  0  0  0
  2  3  1  0  0  0  0
  3  9  1  0  0  0  0
  3  4  2  0  0  0  0
  5  4  1  0  0  0  0
  5  8  1  0  0  0  0
  6  5  2  0  0  0  0
  7  1  1  0  0  0  0
  9 18  1  0  0  0  0
 10 11  1  0  0  0  0
 10  9  2  0  0  0  0
 11 12  2  0  0  0  0
 12 21  1  0  0  0  0
 12 13  1  0  0  0  0
 13 14  1  0  0  0  0
 14 22  1  0  0  0  0
 14 15  2  0  0  0  0
 15 23  1  0  0  0  0
 16 15  1  0  0  0  0
 16 24  1  0  0  0  0
 17 25  1  0  0  0  0
 17 16  2  0  0  0  0
 18 13  2  0  0  0  0
 18 17  1  0  0  0  0
 19 10  1  0  0  0  0
 20 11  1  0  0  0  0
 26  2  1  0  0  0  0
 28 27  2  6  0  0  0
 28 26  1  0  0  0  0
 28 39  1  0  0  0  0
 29 28  1  0  0  0  0
 30 37  1  6  0  0  0
 30 31  1  0  0  0  0
 31 32  1  0  0  0  0
 31 29  1  1  0  0  0
 32 33  1  0  0  0  0
 34 32  1  0  0  0  0
 35 30  1  0  0  0  0
 35 34  1  0  0  0  0
 36 35  1  0  0  0  0
 37 38  1  0  0  0  0
 40 39  1  0  0  0  0
 40 42  1  0  0  0  0
 41 40  2  0  0  0  0
 42 43  1  0  0  0  0
 44 42  1  0  0  0  0
M  END
>  <minimizedAffinity>
-6.17216825

>  <minimizedRMSD>
0.73438096

$$$$
