
 OpenBabel03242519363D

 24 24  0  0  1  0  0  0  0  0999 V2000
   48.7630   35.4490   40.6380 O   0  0  0  0  0  0  0  0  0  0  0  0
   48.0700   34.5830   41.6930 P   0  0  1  0  0  0  0  0  0  0  0  0
   48.9030   34.5920   43.1450 O   0  0  0  0  0  0  0  0  0  0  0  0
   49.5250   35.3620   43.1140 H   0  0  0  0  0  0  0  0  0  0  0  0
   46.4920   35.1940   41.9450 O   0  0  0  0  0  0  0  0  0  0  0  0
   44.4580   35.9990   44.8660 C   0  0  0  0  0  0  0  0  0  0  0  0
   45.0430   36.0950   43.5920 C   0  0  0  0  0  0  0  0  0  0  0  0
   45.9160   35.0890   43.2080 C   0  0  0  0  0  0  0  0  0  0  0  0
   46.1640   34.0680   44.0700 N   0  0  0  0  0  0  0  0  0  0  0  0
   45.5890   34.0070   45.2780 C   0  0  0  0  0  0  0  0  0  0  0  0
   44.7310   34.9710   45.6860 N   0  0  0  0  0  0  0  0  0  0  0  0
   43.7930   36.8130   45.0950 H   0  0  0  0  0  0  0  0  0  0  0  0
   44.8430   36.9150   42.9040 H   0  0  0  0  0  0  0  0  0  0  0  0
   45.7710   33.2080   45.9740 H   0  0  0  0  0  0  0  0  0  0  0  0
   47.9200   33.0300   41.0470 O   0  0  0  0  0  0  0  0  0  0  0  0
   49.9320   31.8630   40.3890 C   0  0  2  0  0  0  0  0  0  0  0  0
   49.0140   32.2740   41.4860 C   0  0  1  0  0  0  0  0  0  0  0  0
   49.8910   33.0500   42.4290 C   0  0  0  0  0  0  0  0  0  0  0  0
   49.5860   34.1290   42.3750 H   0  0  0  0  0  0  0  0  0  0  0  0
   51.1910   32.9740   42.0310 O   0  0  0  0  0  0  0  0  0  0  0  0
   51.2990   32.0840   40.9820 C   0  0  0  0  0  0  0  0  0  0  0  0
   51.7930   31.1540   41.2730 H   0  0  0  0  0  0  0  0  0  0  0  0
   49.7310   32.6340   39.2450 O   0  0  0  0  0  0  0  0  0  0  0  0
   50.5590   32.4970   38.6890 H   0  0  0  0  0  0  0  0  0  0  0  0
  2  1  1  6  0  0  0
  2  5  1  0  0  0  0
  4  3  1  0  0  0  0
  5  8  1  0  0  0  0
  6 12  1  0  0  0  0
  6 11  1  0  0  0  0
  7  6  2  0  0  0  0
  8  7  1  0  0  0  0
  8  9  2  0  0  0  0
  9 10  1  0  0  0  0
 10 11  2  0  0  0  0
 10 14  1  0  0  0  0
 13  7  1  0  0  0  0
 15  2  1  0  0  0  0
 16 23  1  6  0  0  0
 16 21  1  0  0  0  0
 16 17  1  0  0  0  0
 17 15  1  6  0  0  0
 17 18  1  0  0  0  0
 19 18  1  0  0  0  0
 20 18  1  0  0  0  0
 21 22  1  0  0  0  0
 21 20  1  0  0  0  0
 24 23  1  0  0  0  0
M  END
>  <minimizedAffinity>
-4.87735128

>  <minimizedRMSD>
2.79326797

$$$$
