
 OpenBabel03252508073D

 44 47  0  0  1  0  0  0  0  0999 V2000
   45.2730   36.0570   42.9570 C   0  0  0  0  0  0  0  0  0  0  0  0
   45.4870   34.6880   42.9600 C   0  0  0  0  0  0  0  0  0  0  0  0
   45.2270   33.9520   44.0890 C   0  0  0  0  0  0  0  0  0  0  0  0
   44.7490   34.6440   45.1870 N   0  0  0  0  0  0  0  0  0  0  0  0
   44.5440   35.9570   45.1790 C   0  0  0  0  0  0  0  0  0  0  0  0
   44.8110   36.6540   44.0530 N   0  0  0  0  0  0  0  0  0  0  0  0
   45.4800   36.6490   42.0600 H   0  0  0  0  0  0  0  0  0  0  0  0
   44.1730   36.4780   46.0450 H   0  0  0  0  0  0  0  0  0  0  0  0
   45.3910   32.5590   44.2540 C   0  0  0  0  0  0  0  0  0  0  0  0
   44.8710   31.6000   43.3790 C   0  0  0  0  0  0  0  0  0  0  0  0
   44.9720   30.2460   43.5710 C   0  0  0  0  0  0  0  0  0  0  0  0
   45.6180   29.7640   44.6820 C   0  0  0  0  0  0  0  0  0  0  0  0
   46.1560   30.7200   45.5830 C   0  0  0  0  0  0  0  0  0  0  0  0
   46.8010   30.2510   46.6990 C   0  0  0  0  0  0  0  0  0  0  0  0
   47.3470   31.1240   47.6180 C   0  0  0  0  0  0  0  0  0  0  0  0
   47.2390   32.5100   47.4000 C   0  0  0  0  0  0  0  0  0  0  0  0
   46.5690   32.9420   46.2420 C   0  0  0  0  0  0  0  0  0  0  0  0
   46.0350   32.0510   45.3520 C   0  0  0  0  0  0  0  0  0  0  0  0
   44.3570   31.9770   42.4950 H   0  0  0  0  0  0  0  0  0  0  0  0
   44.5300   29.5910   42.8240 H   0  0  0  0  0  0  0  0  0  0  0  0
   45.7140   28.7020   44.8620 H   0  0  0  0  0  0  0  0  0  0  0  0
   46.8800   29.1700   46.8580 H   0  0  0  0  0  0  0  0  0  0  0  0
   47.8370   30.6850   48.4710 H   0  0  0  0  0  0  0  0  0  0  0  0
   47.6940   33.1000   48.1650 H   0  0  0  0  0  0  0  0  0  0  0  0
   46.6110   34.0100   46.2440 H   0  0  0  0  0  0  0  0  0  0  0  0
   45.9580   34.1270   41.8050 O   0  0  0  0  0  0  0  0  0  0  0  0
   47.8080   32.2790   41.6620 O   0  0  0  0  0  0  0  0  0  0  0  0
   47.5820   33.7410   41.5130 P   0  0  1  0  0  0  0  0  0  0  0  0
   48.0230   34.1520   39.9300 O   0  0  0  0  0  0  0  0  0  0  0  0
   49.2480   32.0830   40.0790 C   0  0  1  0  0  3  0  0  0  0  0  0
   48.4590   33.0700   39.2080 C   0  0  1  0  0  3  0  0  0  0  0  0
   47.3430   32.1540   38.7540 C   0  0  0  0  0  3  0  0  0  0  0  0
   46.6300   32.1200   39.6280 H   0  0  0  0  0  0  0  0  0  0  0  0
   47.8640   30.8730   38.6710 O   0  0  0  0  0  0  0  0  0  0  0  0
   49.1510   30.8870   39.1490 C   0  0  0  0  0  3  0  0  0  0  0  0
   49.4900   29.9570   39.6100 H   0  0  0  0  0  0  0  0  0  0  0  0
   50.5610   32.5090   40.2400 O   0  0  0  0  0  0  0  0  0  0  0  0
   50.6130   32.9840   41.1220 H   0  0  0  0  0  0  0  0  0  0  0  0
   48.5300   34.6190   42.5830 O   0  0  0  0  0  0  0  0  0  0  0  0
   49.7330   35.2460   42.3020 C   0  0  0  0  0  0  0  0  0  0  0  0
   49.4100   36.3350   41.7900 O   0  0  0  0  0  0  0  0  0  0  0  0
   50.8470   34.4220   42.6990 N   0  0  0  0  0  0  0  0  0  0  0  0
   50.9980   34.3440   43.7380 H   0  0  0  0  0  0  0  0  0  0  0  0
   51.5300   33.8880   42.1180 H   0  0  0  0  0  0  0  0  0  0  0  0
  1  2  2  0  0  0  0
  1  6  1  0  0  0  0
  2  3  1  0  0  0  0
  3  9  1  0  0  0  0
  3  4  2  0  0  0  0
  5  4  1  0  0  0  0
  5  8  1  0  0  0  0
  6  5  2  0  0  0  0
  7  1  1  0  0  0  0
  9 18  1  0  0  0  0
 10 11  1  0  0  0  0
 10  9  2  0  0  0  0
 11 12  2  0  0  0  0
 12 21  1  0  0  0  0
 12 13  1  0  0  0  0
 13 14  1  0  0  0  0
 14 22  1  0  0  0  0
 14 15  2  0  0  0  0
 15 23  1  0  0  0  0
 16 15  1  0  0  0  0
 16 24  1  0  0  0  0
 17 25  1  0  0  0  0
 17 16  2  0  0  0  0
 18 13  2  0  0  0  0
 18 17  1  0  0  0  0
 19 10  1  0  0  0  0
 20 11  1  0  0  0  0
 26  2  1  0  0  0  0
 28 27  2  1  0  0  0
 28 26  1  0  0  0  0
 28 39  1  0  0  0  0
 29 28  1  0  0  0  0
 30 37  1  6  0  0  0
 31 29  1  1  0  0  0
 31 30  1  0  0  0  0
 32 31  1  0  0  0  0
 32 33  1  0  0  0  0
 34 32  1  0  0  0  0
 34 35  1  0  0  0  0
 35 36  1  0  0  0  0
 35 30  1  0  0  0  0
 37 38  1  0  0  0  0
 40 39  1  0  0  0  0
 40 42  1  0  0  0  0
 41 40  2  0  0  0  0
 42 43  1  0  0  0  0
 44 42  1  0  0  0  0
M  END
>  <minimizedAffinity>
-5.92716885

>  <minimizedRMSD>
0.788326085

$$$$
