
 OpenBabel03252508073D

 44 47  0  0  1  0  0  0  0  0999 V2000
   45.2440   35.8410   42.9240 C   0  0  0  0  0  0  0  0  0  0  0  0
   45.5190   34.4830   42.9590 C   0  0  0  0  0  0  0  0  0  0  0  0
   45.3320   33.7720   44.1190 C   0  0  0  0  0  0  0  0  0  0  0  0
   44.8610   34.4750   45.2120 N   0  0  0  0  0  0  0  0  0  0  0  0
   44.5980   35.7770   45.1730 C   0  0  0  0  0  0  0  0  0  0  0  0
   44.7940   36.4500   44.0190 N   0  0  0  0  0  0  0  0  0  0  0  0
   45.3930   36.4130   42.0030 H   0  0  0  0  0  0  0  0  0  0  0  0
   44.2330   36.3080   46.0360 H   0  0  0  0  0  0  0  0  0  0  0  0
   45.5650   32.3920   44.3180 C   0  0  0  0  0  0  0  0  0  0  0  0
   45.1320   31.3900   43.4430 C   0  0  0  0  0  0  0  0  0  0  0  0
   45.2990   30.0480   43.6670 C   0  0  0  0  0  0  0  0  0  0  0  0
   45.9260   29.6230   44.8110 C   0  0  0  0  0  0  0  0  0  0  0  0
   46.3740   30.6230   45.7130 C   0  0  0  0  0  0  0  0  0  0  0  0
   46.9990   30.2100   46.8630 C   0  0  0  0  0  0  0  0  0  0  0  0
   47.4600   31.1290   47.7840 C   0  0  0  0  0  0  0  0  0  0  0  0
   47.2870   32.5020   47.5340 C   0  0  0  0  0  0  0  0  0  0  0  0
   46.6400   32.8760   46.3420 C   0  0  0  0  0  0  0  0  0  0  0  0
   46.1910   31.9400   45.4510 C   0  0  0  0  0  0  0  0  0  0  0  0
   44.6340   31.7230   42.5330 H   0  0  0  0  0  0  0  0  0  0  0  0
   44.9230   29.3560   42.9160 H   0  0  0  0  0  0  0  0  0  0  0  0
   46.0710   28.5710   45.0170 H   0  0  0  0  0  0  0  0  0  0  0  0
   47.1300   29.1380   47.0470 H   0  0  0  0  0  0  0  0  0  0  0  0
   47.9390   30.7330   48.6640 H   0  0  0  0  0  0  0  0  0  0  0  0
   47.6780   33.1300   48.3030 H   0  0  0  0  0  0  0  0  0  0  0  0
   46.6240   33.9450   46.3230 H   0  0  0  0  0  0  0  0  0  0  0  0
   45.9750   33.9070   41.8050 O   0  0  0  0  0  0  0  0  0  0  0  0
   48.0310   32.4020   41.2030 O   0  0  0  0  0  0  0  0  0  0  0  0
   47.6040   33.8190   41.3500 P   0  0  1  0  0  0  0  0  0  0  0  0
   47.8530   34.5700   39.8520 O   0  0  0  0  0  0  0  0  0  0  0  0
   48.4640   32.4090   38.9800 C   0  0  1  0  0  3  0  0  0  0  0  0
   47.6730   33.7120   38.7980 C   0  0  1  0  0  3  0  0  0  0  0  0
   46.2750   33.1360   38.7160 C   0  0  0  0  0  3  0  0  0  0  0  0
   45.9880   32.9340   39.7900 H   0  0  0  0  0  0  0  0  0  0  0  0
   46.3730   31.8840   38.1320 O   0  0  0  0  0  0  0  0  0  0  0  0
   47.7010   31.5780   37.9630 C   0  0  0  0  0  3  0  0  0  0  0  0
   47.9470   30.5160   38.0070 H   0  0  0  0  0  0  0  0  0  0  0  0
   49.7920   32.5850   38.6130 O   0  0  0  0  0  0  0  0  0  0  0  0
   50.3120   32.7560   39.4530 H   0  0  0  0  0  0  0  0  0  0  0  0
   48.5180   34.6150   42.5120 O   0  0  0  0  0  0  0  0  0  0  0  0
   49.7260   35.2630   42.3150 C   0  0  0  0  0  0  0  0  0  0  0  0
   49.4160   36.3730   41.8440 O   0  0  0  0  0  0  0  0  0  0  0  0
   50.8290   34.4280   42.7190 N   0  0  0  0  0  0  0  0  0  0  0  0
   50.9360   34.2990   43.7590 H   0  0  0  0  0  0  0  0  0  0  0  0
   51.5420   33.9270   42.1430 H   0  0  0  0  0  0  0  0  0  0  0  0
  1  2  2  0  0  0  0
  1  6  1  0  0  0  0
  2  3  1  0  0  0  0
  3  9  1  0  0  0  0
  3  4  2  0  0  0  0
  5  4  1  0  0  0  0
  5  8  1  0  0  0  0
  6  5  2  0  0  0  0
  7  1  1  0  0  0  0
  9 18  1  0  0  0  0
 10 11  1  0  0  0  0
 10  9  2  0  0  0  0
 11 12  2  0  0  0  0
 12 21  1  0  0  0  0
 12 13  1  0  0  0  0
 13 14  1  0  0  0  0
 14 22  1  0  0  0  0
 14 15  2  0  0  0  0
 15 23  1  0  0  0  0
 16 15  1  0  0  0  0
 16 24  1  0  0  0  0
 17 16  2  0  0  0  0
 18 13  2  0  0  0  0
 18 17  1  0  0  0  0
 19 10  1  0  0  0  0
 20 11  1  0  0  0  0
 25 17  1  0  0  0  0
 26  2  1  0  0  0  0
 28 27  2  6  0  0  0
 28 26  1  0  0  0  0
 28 39  1  0  0  0  0
 29 28  1  0  0  0  0
 30 37  1  6  0  0  0
 31 30  1  0  0  0  0
 31 29  1  1  0  0  0
 32 31  1  0  0  0  0
 32 33  1  0  0  0  0
 34 32  1  0  0  0  0
 35 36  1  0  0  0  0
 35 34  1  0  0  0  0
 35 30  1  0  0  0  0
 37 38  1  0  0  0  0
 40 39  1  0  0  0  0
 40 42  1  0  0  0  0
 41 40  2  0  0  0  0
 42 43  1  0  0  0  0
 44 42  1  0  0  0  0
M  END
>  <minimizedAffinity>
-6.15054655

>  <minimizedRMSD>
0.417190522

$$$$
