
 OpenBabel03252508073D

 44 47  0  0  1  0  0  0  0  0999 V2000
   45.2480   35.8580   42.9200 C   0  0  0  0  0  0  0  0  0  0  0  0
   45.5160   34.4990   42.9490 C   0  0  0  0  0  0  0  0  0  0  0  0
   45.3210   33.7830   44.1040 C   0  0  0  0  0  0  0  0  0  0  0  0
   44.8520   34.4830   45.2000 N   0  0  0  0  0  0  0  0  0  0  0  0
   44.5950   35.7870   45.1660 C   0  0  0  0  0  0  0  0  0  0  0  0
   44.7980   36.4640   44.0160 N   0  0  0  0  0  0  0  0  0  0  0  0
   45.4020   36.4350   42.0020 H   0  0  0  0  0  0  0  0  0  0  0  0
   44.2310   36.3150   46.0320 H   0  0  0  0  0  0  0  0  0  0  0  0
   45.5470   32.4010   44.2970 C   0  0  0  0  0  0  0  0  0  0  0  0
   45.1040   31.4050   43.4200 C   0  0  0  0  0  0  0  0  0  0  0  0
   45.2630   30.0610   43.6380 C   0  0  0  0  0  0  0  0  0  0  0  0
   45.8920   29.6270   44.7780 C   0  0  0  0  0  0  0  0  0  0  0  0
   46.3510   30.6210   45.6810 C   0  0  0  0  0  0  0  0  0  0  0  0
   46.9780   30.2000   46.8270 C   0  0  0  0  0  0  0  0  0  0  0  0
   47.4490   31.1120   47.7500 C   0  0  0  0  0  0  0  0  0  0  0  0
   47.2830   32.4880   47.5050 C   0  0  0  0  0  0  0  0  0  0  0  0
   46.6340   32.8700   46.3180 C   0  0  0  0  0  0  0  0  0  0  0  0
   46.1750   31.9410   45.4250 C   0  0  0  0  0  0  0  0  0  0  0  0
   44.6040   31.7450   42.5130 H   0  0  0  0  0  0  0  0  0  0  0  0
   44.8790   29.3740   42.8860 H   0  0  0  0  0  0  0  0  0  0  0  0
   46.0320   28.5740   44.9790 H   0  0  0  0  0  0  0  0  0  0  0  0
   47.1040   29.1270   47.0060 H   0  0  0  0  0  0  0  0  0  0  0  0
   47.9290   30.7100   48.6260 H   0  0  0  0  0  0  0  0  0  0  0  0
   47.6820   33.1110   48.2750 H   0  0  0  0  0  0  0  0  0  0  0  0
   46.6250   33.9390   46.3040 H   0  0  0  0  0  0  0  0  0  0  0  0
   45.9710   33.9270   41.7930 O   0  0  0  0  0  0  0  0  0  0  0  0
   48.0220   32.4090   41.2000 O   0  0  0  0  0  0  0  0  0  0  0  0
   47.6020   33.8290   41.3440 P   0  0  1  0  0  0  0  0  0  0  0  0
   47.8600   34.5760   39.8450 O   0  0  0  0  0  0  0  0  0  0  0  0
   48.4690   32.4120   38.9780 C   0  0  1  0  0  3  0  0  0  0  0  0
   47.6810   33.7170   38.7920 C   0  0  1  0  0  3  0  0  0  0  0  0
   46.2820   33.1440   38.7060 C   0  0  0  0  0  3  0  0  0  0  0  0
   45.9920   32.9440   39.7790 H   0  0  0  0  0  0  0  0  0  0  0  0
   46.3800   31.8900   38.1250 O   0  0  0  0  0  0  0  0  0  0  0  0
   47.7090   31.5810   37.9610 C   0  0  0  0  0  3  0  0  0  0  0  0
   47.9530   30.5180   38.0070 H   0  0  0  0  0  0  0  0  0  0  0  0
   49.8000   32.5850   38.6150 O   0  0  0  0  0  0  0  0  0  0  0  0
   50.3170   32.7570   39.4580 H   0  0  0  0  0  0  0  0  0  0  0  0
   48.5160   34.6210   42.5070 O   0  0  0  0  0  0  0  0  0  0  0  0
   49.7260   35.2660   42.3120 C   0  0  0  0  0  0  0  0  0  0  0  0
   49.4200   36.3770   41.8400 O   0  0  0  0  0  0  0  0  0  0  0  0
   50.8260   34.4280   42.7190 N   0  0  0  0  0  0  0  0  0  0  0  0
   50.9300   34.2990   43.7590 H   0  0  0  0  0  0  0  0  0  0  0  0
   51.5380   33.9250   42.1450 H   0  0  0  0  0  0  0  0  0  0  0  0
  1  2  2  0  0  0  0
  1  6  1  0  0  0  0
  2  3  1  0  0  0  0
  3  9  1  0  0  0  0
  3  4  2  0  0  0  0
  5  4  1  0  0  0  0
  5  8  1  0  0  0  0
  6  5  2  0  0  0  0
  7  1  1  0  0  0  0
  9 18  1  0  0  0  0
 10 11  1  0  0  0  0
 10  9  2  0  0  0  0
 11 12  2  0  0  0  0
 12 21  1  0  0  0  0
 12 13  1  0  0  0  0
 13 14  1  0  0  0  0
 14 22  1  0  0  0  0
 14 15  2  0  0  0  0
 15 23  1  0  0  0  0
 16 15  1  0  0  0  0
 16 24  1  0  0  0  0
 17 16  2  0  0  0  0
 18 13  2  0  0  0  0
 18 17  1  0  0  0  0
 19 10  1  0  0  0  0
 20 11  1  0  0  0  0
 25 17  1  0  0  0  0
 26  2  1  0  0  0  0
 28 27  2  6  0  0  0
 28 26  1  0  0  0  0
 28 39  1  0  0  0  0
 29 28  1  0  0  0  0
 30 37  1  6  0  0  0
 31 30  1  0  0  0  0
 31 29  1  1  0  0  0
 32 31  1  0  0  0  0
 32 33  1  0  0  0  0
 34 32  1  0  0  0  0
 35 36  1  0  0  0  0
 35 34  1  0  0  0  0
 35 30  1  0  0  0  0
 37 38  1  0  0  0  0
 40 39  1  0  0  0  0
 40 42  1  0  0  0  0
 41 40  2  0  0  0  0
 42 43  1  0  0  0  0
 44 42  1  0  0  0  0
M  END
>  <minimizedAffinity>
-6.14227867

>  <minimizedRMSD>
0.381031901

$$$$
