
 OpenBabel03252504573D

 37 39  0  0  1  0  0  0  0  0999 V2000
   47.9420   34.0230   41.9850 N   0  0  0  0  0  0  0  0  0  0  0  0
   47.9400   34.9350   40.9040 C   0  0  0  0  0  0  0  0  0  0  0  0
   49.0800   35.8220   41.2300 C   0  0  0  0  0  0  0  0  0  0  0  0
   49.7300   35.3200   42.5160 C   0  0  0  0  0  0  0  0  0  0  0  0
   49.2080   33.8780   42.5780 C   0  0  2  0  0  0  0  0  0  0  0  0
   47.4190   35.1570   40.0100 H   0  0  0  0  0  0  0  0  0  0  0  0
   49.4820   36.6820   40.7010 H   0  0  0  0  0  0  0  0  0  0  0  0
   49.4050   35.9210   43.3640 H   0  0  0  0  0  0  0  0  0  0  0  0
   50.8140   35.3380   42.3300 H   0  0  0  0  0  0  0  0  0  0  0  0
   49.1590   33.4570   43.5810 H   0  0  0  0  0  0  0  0  0  0  0  0
   46.7690   33.4190   42.3650 C   0  0  0  0  0  0  0  0  0  0  0  0
   47.0120   32.3590   42.6490 H   0  0  0  0  0  0  0  0  0  0  0  0
   46.0330   33.2660   41.5450 H   0  0  0  0  0  0  0  0  0  0  0  0
   44.6000   35.7750   44.3850 C   0  0  0  0  0  0  0  0  0  0  0  0
   45.2920   35.2400   43.2550 C   0  0  0  0  0  0  0  0  0  0  0  0
   46.0440   34.0810   43.4290 C   0  0  0  0  0  0  0  0  0  0  0  0
   46.0710   33.5370   44.6630 N   0  0  0  0  0  0  0  0  0  0  0  0
   45.3990   34.0610   45.7480 C   0  0  0  0  0  0  0  0  0  0  0  0
   44.6720   35.1690   45.6070 N   0  0  0  0  0  0  0  0  0  0  0  0
   44.0180   36.6880   44.2100 H   0  0  0  0  0  0  0  0  0  0  0  0
   45.2440   35.7030   42.2970 H   0  0  0  0  0  0  0  0  0  0  0  0
   45.5080   33.5250   46.6710 H   0  0  0  0  0  0  0  0  0  0  0  0
   49.9930   33.1490   41.6750 O   0  0  0  0  0  0  0  0  0  0  0  0
   49.3080   31.0840   43.1960 O   0  0  0  0  0  0  0  0  0  0  0  0
   50.1180   31.5300   42.0090 P   0  0  2  0  0  0  0  0  0  0  0  0
   51.7430   31.2190   42.4150 O   0  0  0  0  0  0  0  0  0  0  0  0
   52.3400   31.7810   41.8600 H   0  0  0  0  0  0  0  0  0  0  0  0
   49.8170   30.5680   40.6500 O   0  0  0  0  0  0  0  0  0  0  0  0
   50.2650   31.5240   38.4820 C   0  0  1  0  0  3  0  0  0  0  0  0
   49.2930   31.2200   39.5890 C   0  0  1  0  0  3  0  0  0  0  0  0
   48.1260   30.5980   38.9210 C   0  0  0  0  0  3  0  0  0  0  0  0
   47.7970   29.6390   39.3670 H   0  0  0  0  0  0  0  0  0  0  0  0
   48.4070   30.4420   37.5650 O   0  0  0  0  0  0  0  0  0  0  0  0
   49.7720   30.5940   37.3900 C   0  0  0  0  0  3  0  0  0  0  0  0
   50.0480   30.9330   36.3880 H   0  0  0  0  0  0  0  0  0  0  0  0
   50.1170   32.8310   38.0050 O   0  0  0  0  0  0  0  0  0  0  0  0
   50.1590   32.8560   37.0170 H   0  0  0  0  0  0  0  0  0  0  0  0
  1 11  1  0  0  0  0
  1  5  1  0  0  0  0
  2  3  2  0  0  0  0
  2  1  1  0  0  0  0
  3  4  1  0  0  0  0
  4  5  1  0  0  0  0
  4  8  1  0  0  0  0
  5 10  1  1  0  0  0
  6  2  1  0  0  0  0
  7  3  1  0  0  0  0
  9  4  1  0  0  0  0
 11 12  1  0  0  0  0
 11 16  1  0  0  0  0
 13 11  1  0  0  0  0
 14 19  1  0  0  0  0
 15 16  1  0  0  0  0
 15 14  2  0  0  0  0
 16 17  2  0  0  0  0
 17 18  1  0  0  0  0
 18 22  1  0  0  0  0
 19 18  2  0  0  0  0
 20 14  1  0  0  0  0
 21 15  1  0  0  0  0
 23 25  1  0  0  0  0
 23  5  1  0  0  0  0
 25 26  1  0  0  0  0
 25 24  2  1  0  0  0
 27 26  1  0  0  0  0
 28 25  1  0  0  0  0
 29 36  1  6  0  0  0
 29 30  1  0  0  0  0
 30 28  1  1  0  0  0
 31 32  1  0  0  0  0
 31 30  1  0  0  0  0
 33 31  1  0  0  0  0
 34 33  1  0  0  0  0
 34 29  1  0  0  0  0
 35 34  1  0  0  0  0
 37 36  1  0  0  0  0
M  END
>  <minimizedAffinity>
-4.9996171

>  <minimizedRMSD>
1.59635901

$$$$
