
 OpenBabel03252500453D

 34 36  0  0  1  0  0  0  0  0999 V2000
   35.4800   28.5740   39.2700 C   0  0  1  0  0  0  0  0  0  0  0  0
   34.5260   29.0400   38.1770 C   0  0  0  0  0  0  0  0  0  0  0  0
   36.0090   29.3030   38.0700 C   0  0  1  0  0  0  0  0  0  0  0  0
   35.6450   27.4760   39.2100 H   0  0  0  0  0  0  0  0  0  0  0  0
   33.8500   29.8800   38.3990 H   0  0  0  0  0  0  0  0  0  0  0  0
   34.1030   28.3140   37.4610 H   0  0  0  0  0  0  0  0  0  0  0  0
   36.5490   28.7560   37.2660 H   0  0  0  0  0  0  0  0  0  0  0  0
   35.4780   29.3440   40.5280 C   0  0  0  0  0  0  0  0  0  0  0  0
   34.5320   29.1310   41.1090 H   0  0  0  0  0  0  0  0  0  0  0  0
   35.4740   30.4410   40.4090 H   0  0  0  0  0  0  0  0  0  0  0  0
   36.5700   29.0070   41.4570 C   0  0  0  0  0  0  0  0  0  0  0  0
   36.6620   27.6730   41.7410 C   0  0  0  0  0  0  0  0  0  0  0  0
   37.6450   27.2020   42.6260 C   0  0  0  0  0  0  0  0  0  0  0  0
   38.4710   28.1700   43.1550 N   0  0  0  0  0  0  0  0  0  0  0  0
   38.3610   29.4810   42.8590 C   0  0  0  0  0  0  0  0  0  0  0  0
   37.4170   29.8830   42.0180 N   0  0  0  0  0  0  0  0  0  0  0  0
   36.1280   26.7860   41.4270 H   0  0  0  0  0  0  0  0  0  0  0  0
   37.8520   26.1970   42.9530 H   0  0  0  0  0  0  0  0  0  0  0  0
   39.0550   30.1730   43.3220 H   0  0  0  0  0  0  0  0  0  0  0  0
   36.4570   30.5840   38.2660 O   0  0  0  0  0  0  0  0  0  0  0  0
   38.6750   29.5220   37.2270 O   0  0  0  0  0  0  0  0  0  0  0  0
   38.0850   30.7750   37.8550 P   0  0  1  0  0  0  0  0  0  0  0  0
   38.1650   32.0010   36.6600 O   0  0  0  0  0  0  0  0  0  0  0  0
   37.3180   31.9970   36.1400 H   0  0  0  0  0  0  0  0  0  0  0  0
   38.9720   31.2470   39.1870 O   0  0  0  0  0  0  0  0  0  0  0  0
   39.1670   32.7460   40.9230 C   0  0  1  0  0  3  0  0  0  0  0  0
   39.1040   32.5880   39.3960 C   0  0  1  0  0  3  0  0  0  0  0  0
   40.4570   33.1360   39.0050 C   0  0  0  0  0  3  0  0  0  0  0  0
   41.0110   32.4600   38.3400 H   0  0  0  0  0  0  0  0  0  0  0  0
   41.1730   33.3830   40.1620 O   0  0  0  0  0  0  0  0  0  0  0  0
   40.6610   32.5200   41.1310 C   0  0  0  0  0  3  0  0  0  0  0  0
   40.9960   32.8040   42.1280 H   0  0  0  0  0  0  0  0  0  0  0  0
   38.7690   33.9920   41.3460 O   0  0  0  0  0  0  0  0  0  0  0  0
   39.5280   34.3850   41.8560 H   0  0  0  0  0  0  0  0  0  0  0  0
  1  4  1  1  0  0  0
  1  8  1  0  0  0  0
  2  5  1  0  0  0  0
  2  1  1  0  0  0  0
  3  7  1  6  0  0  0
  3  2  1  0  0  0  0
  3 20  1  0  0  0  0
  3  1  1  0  0  0  0
  6  2  1  0  0  0  0
  8  9  1  0  0  0  0
  8 11  1  0  0  0  0
 10  8  1  0  0  0  0
 11 12  2  0  0  0  0
 11 16  1  0  0  0  0
 12 13  1  0  0  0  0
 13 18  1  0  0  0  0
 13 14  2  0  0  0  0
 15 14  1  0  0  0  0
 15 19  1  0  0  0  0
 16 15  2  0  0  0  0
 17 12  1  0  0  0  0
 22 21  2  6  0  0  0
 22 20  1  0  0  0  0
 22 25  1  0  0  0  0
 23 22  1  0  0  0  0
 24 23  1  0  0  0  0
 26 31  1  0  0  0  0
 26 33  1  6  0  0  0
 27 25  1  1  0  0  0
 27 26  1  0  0  0  0
 28 27  1  0  0  0  0
 28 30  1  0  0  0  0
 29 28  1  0  0  0  0
 30 31  1  0  0  0  0
 31 32  1  0  0  0  0
 33 34  1  0  0  0  0
M  END
>  <minimizedAffinity>
-5.24098587

$$$$

 OpenBabel03252500453D

 34 36  0  0  1  0  0  0  0  0999 V2000
   36.2080   28.1570   40.7940 C   0  0  1  0  0  0  0  0  0  0  0  0
   34.9940   28.9790   40.3770 C   0  0  0  0  0  0  0  0  0  0  0  0
   36.3940   29.4650   40.0830 C   0  0  1  0  0  0  0  0  0  0  0  0
   36.3430   27.2820   40.1200 H   0  0  0  0  0  0  0  0  0  0  0  0
   34.4100   29.4810   41.1640 H   0  0  0  0  0  0  0  0  0  0  0  0
   34.3880   28.6750   39.5070 H   0  0  0  0  0  0  0  0  0  0  0  0
   36.6900   29.4920   39.0110 H   0  0  0  0  0  0  0  0  0  0  0  0
   36.5540   28.1610   42.2260 C   0  0  0  0  0  0  0  0  0  0  0  0
   35.6640   27.8280   42.8390 H   0  0  0  0  0  0  0  0  0  0  0  0
   36.8090   29.1480   42.6470 H   0  0  0  0  0  0  0  0  0  0  0  0
   37.6330   27.2320   42.6010 C   0  0  0  0  0  0  0  0  0  0  0  0
   37.4850   25.9750   42.0840 C   0  0  0  0  0  0  0  0  0  0  0  0
   38.4280   24.9740   42.3680 C   0  0  0  0  0  0  0  0  0  0  0  0
   39.4700   25.3640   43.1810 N   0  0  0  0  0  0  0  0  0  0  0  0
   39.5950   26.6110   43.6800 C   0  0  0  0  0  0  0  0  0  0  0  0
   38.6810   27.5260   43.3860 N   0  0  0  0  0  0  0  0  0  0  0  0
   36.7620   25.4940   41.4370 H   0  0  0  0  0  0  0  0  0  0  0  0
   38.4600   23.9480   42.0450 H   0  0  0  0  0  0  0  0  0  0  0  0
   40.4490   26.8290   44.3120 H   0  0  0  0  0  0  0  0  0  0  0  0
   36.8860   30.5110   40.8200 O   0  0  0  0  0  0  0  0  0  0  0  0
   37.0510   31.7040   38.4370 O   0  0  0  0  0  0  0  0  0  0  0  0
   37.5890   31.7110   39.8590 P   0  0  1  0  0  0  0  0  0  0  0  0
   37.1500   33.2230   40.5370 O   0  0  0  0  0  0  0  0  0  0  0  0
   36.2700   33.1270   40.9880 H   0  0  0  0  0  0  0  0  0  0  0  0
   39.2510   31.5660   39.8680 O   0  0  0  0  0  0  0  0  0  0  0  0
   40.3470   32.5350   38.0900 C   0  0  1  0  0  3  0  0  0  0  0  0
   39.8460   31.2130   38.6920 C   0  0  1  0  0  3  0  0  0  0  0  0
   41.1520   30.4750   38.8670 C   0  0  0  0  0  3  0  0  0  0  0  0
   41.2760   30.0670   39.8800 H   0  0  0  0  0  0  0  0  0  0  0  0
   42.1830   31.3430   38.5590 O   0  0  0  0  0  0  0  0  0  0  0  0
   41.6960   32.6290   38.7960 C   0  0  0  0  0  3  0  0  0  0  0  0
   42.3490   33.3840   38.3610 H   0  0  0  0  0  0  0  0  0  0  0  0
   40.4830   32.4790   36.7230 O   0  0  0  0  0  0  0  0  0  0  0  0
   41.4310   32.6960   36.5140 H   0  0  0  0  0  0  0  0  0  0  0  0
  1  4  1  6  0  0  0
  1  8  1  0  0  0  0
  2  1  1  0  0  0  0
  2  5  1  0  0  0  0
  3  7  1  6  0  0  0
  3  2  1  0  0  0  0
  3  1  1  0  0  0  0
  3 20  1  0  0  0  0
  6  2  1  0  0  0  0
  8 11  1  0  0  0  0
  8 10  1  0  0  0  0
  8  9  1  0  0  0  0
 11 16  1  0  0  0  0
 12 13  1  0  0  0  0
 12 11  2  0  0  0  0
 13 14  2  0  0  0  0
 14 15  1  0  0  0  0
 15 19  1  0  0  0  0
 16 15  2  0  0  0  0
 17 12  1  0  0  0  0
 18 13  1  0  0  0  0
 22 21  2  6  0  0  0
 22 25  1  0  0  0  0
 22 23  1  0  0  0  0
 22 20  1  0  0  0  0
 23 24  1  0  0  0  0
 26 33  1  6  0  0  0
 26 27  1  0  0  0  0
 26 31  1  0  0  0  0
 27 28  1  0  0  0  0
 27 25  1  1  0  0  0
 28 29  1  0  0  0  0
 30 31  1  0  0  0  0
 30 28  1  0  0  0  0
 32 31  1  0  0  0  0
 34 33  1  0  0  0  0
M  END
>  <minimizedAffinity>
-5.21987867

$$$$

 OpenBabel03252500453D

 34 36  0  0  1  0  0  0  0  0999 V2000
   37.6850   26.8880   42.9530 C   0  0  1  0  0  0  0  0  0  0  0  0
   36.3280   27.3870   43.4330 C   0  0  0  0  0  0  0  0  0  0  0  0
   36.9400   27.9200   42.1590 C   0  0  1  0  0  0  0  0  0  0  0  0
   37.6000   25.8680   42.5160 H   0  0  0  0  0  0  0  0  0  0  0  0
   36.2960   28.0360   44.3210 H   0  0  0  0  0  0  0  0  0  0  0  0
   35.4300   26.7560   43.3180 H   0  0  0  0  0  0  0  0  0  0  0  0
   36.4240   27.6450   41.2130 H   0  0  0  0  0  0  0  0  0  0  0  0
   38.8700   27.3810   43.6780 C   0  0  0  0  0  0  0  0  0  0  0  0
   38.8010   27.0940   44.7700 H   0  0  0  0  0  0  0  0  0  0  0  0
   38.9860   28.4780   43.7010 H   0  0  0  0  0  0  0  0  0  0  0  0
   40.1500   26.8130   43.2240 C   0  0  0  0  0  0  0  0  0  0  0  0
   41.0390   27.7470   42.7690 C   0  0  0  0  0  0  0  0  0  0  0  0
   42.2980   27.3540   42.2870 C   0  0  0  0  0  0  0  0  0  0  0  0
   42.5410   25.9980   42.3180 N   0  0  0  0  0  0  0  0  0  0  0  0
   41.6480   25.0960   42.7720 C   0  0  0  0  0  0  0  0  0  0  0  0
   40.4690   25.5100   43.2180 N   0  0  0  0  0  0  0  0  0  0  0  0
   41.0350   28.8250   42.6780 H   0  0  0  0  0  0  0  0  0  0  0  0
   43.1030   27.9540   41.8980 H   0  0  0  0  0  0  0  0  0  0  0  0
   41.9250   24.0470   42.7590 H   0  0  0  0  0  0  0  0  0  0  0  0
   37.4440   29.1940   42.1650 O   0  0  0  0  0  0  0  0  0  0  0  0
   36.4300   29.2240   39.6960 O   0  0  0  0  0  0  0  0  0  0  0  0
   36.9450   30.0990   40.8270 P   0  0  1  0  0  0  0  0  0  0  0  0
   35.6220   31.0640   41.3350 O   0  0  0  0  0  0  0  0  0  0  0  0
   35.1440   30.5920   42.0670 H   0  0  0  0  0  0  0  0  0  0  0  0
   38.1790   31.0900   40.2990 O   0  0  0  0  0  0  0  0  0  0  0  0
   40.1350   31.3600   41.4820 C   0  0  1  0  0  3  0  0  0  0  0  0
   38.7320   31.9300   41.2210 C   0  0  1  0  0  3  0  0  0  0  0  0
   39.0850   33.2910   40.6710 C   0  0  0  0  0  3  0  0  0  0  0  0
   38.5750   33.5100   39.7220 H   0  0  0  0  0  0  0  0  0  0  0  0
   40.4570   33.3530   40.5150 O   0  0  0  0  0  0  0  0  0  0  0  0
   40.8900   32.0380   40.3440 C   0  0  0  0  0  3  0  0  0  0  0  0
   41.9720   31.9620   40.4500 H   0  0  0  0  0  0  0  0  0  0  0  0
   40.6320   31.7130   42.7150 O   0  0  0  0  0  0  0  0  0  0  0  0
   41.4890   32.1940   42.5580 H   0  0  0  0  0  0  0  0  0  0  0  0
  1  4  1  6  0  0  0
  1  2  1  0  0  0  0
  1  8  1  0  0  0  0
  2  5  1  0  0  0  0
  3  7  1  6  0  0  0
  3 20  1  0  0  0  0
  3  1  1  0  0  0  0
  3  2  1  0  0  0  0
  6  2  1  0  0  0  0
  8 10  1  0  0  0  0
  8  9  1  0  0  0  0
 11  8  1  0  0  0  0
 12 11  2  0  0  0  0
 13 14  2  0  0  0  0
 13 12  1  0  0  0  0
 14 15  1  0  0  0  0
 15 16  2  0  0  0  0
 16 11  1  0  0  0  0
 17 12  1  0  0  0  0
 18 13  1  0  0  0  0
 19 15  1  0  0  0  0
 22 21  2  6  0  0  0
 22 23  1  0  0  0  0
 22 20  1  0  0  0  0
 23 24  1  0  0  0  0
 25 22  1  0  0  0  0
 26 33  1  1  0  0  0
 27 25  1  6  0  0  0
 27 26  1  0  0  0  0
 28 27  1  0  0  0  0
 29 28  1  0  0  0  0
 30 28  1  0  0  0  0
 31 32  1  0  0  0  0
 31 30  1  0  0  0  0
 31 26  1  0  0  0  0
 34 33  1  0  0  0  0
M  END
>  <minimizedAffinity>
-5.20945024

$$$$

 OpenBabel03252500453D

 34 36  0  0  1  0  0  0  0  0999 V2000
   37.1640   27.0240   42.8990 C   0  0  1  0  0  0  0  0  0  0  0  0
   37.0780   28.3440   43.6550 C   0  0  0  0  0  0  0  0  0  0  0  0
   36.6720   28.2580   42.2020 C   0  0  1  0  0  0  0  0  0  0  0  0
   36.3360   26.3420   43.1960 H   0  0  0  0  0  0  0  0  0  0  0  0
   38.0160   28.8560   43.9170 H   0  0  0  0  0  0  0  0  0  0  0  0
   36.2650   28.5170   44.3810 H   0  0  0  0  0  0  0  0  0  0  0  0
   35.5900   28.3940   41.9850 H   0  0  0  0  0  0  0  0  0  0  0  0
   38.5100   26.5680   42.5050 C   0  0  0  0  0  0  0  0  0  0  0  0
   39.0620   26.1710   43.4090 H   0  0  0  0  0  0  0  0  0  0  0  0
   39.1770   27.3540   42.1130 H   0  0  0  0  0  0  0  0  0  0  0  0
   38.5260   25.4570   41.5400 C   0  0  0  0  0  0  0  0  0  0  0  0
   37.6130   24.4750   41.8110 C   0  0  0  0  0  0  0  0  0  0  0  0
   37.5220   23.3420   40.9870 C   0  0  0  0  0  0  0  0  0  0  0  0
   38.4010   23.3170   39.9260 N   0  0  0  0  0  0  0  0  0  0  0  0
   39.2930   24.2970   39.6790 C   0  0  0  0  0  0  0  0  0  0  0  0
   39.3460   25.3510   40.4840 N   0  0  0  0  0  0  0  0  0  0  0  0
   36.8540   24.3260   42.5680 H   0  0  0  0  0  0  0  0  0  0  0  0
   36.8670   22.4910   41.0590 H   0  0  0  0  0  0  0  0  0  0  0  0
   39.9470   24.1930   38.8200 H   0  0  0  0  0  0  0  0  0  0  0  0
   37.5000   28.8160   41.2630 O   0  0  0  0  0  0  0  0  0  0  0  0
   35.8060   29.4510   39.3010 O   0  0  0  0  0  0  0  0  0  0  0  0
   36.7380   30.0220   40.3570 P   0  0  1  0  0  0  0  0  0  0  0  0
   35.7560   30.9210   41.4360 O   0  0  0  0  0  0  0  0  0  0  0  0
   35.4640   30.3250   42.1750 H   0  0  0  0  0  0  0  0  0  0  0  0
   37.8700   31.0360   39.6680 O   0  0  0  0  0  0  0  0  0  0  0  0
   39.1480   31.9490   37.9850 C   0  0  1  0  0  3  0  0  0  0  0  0
   38.1720   30.8220   38.3550 C   0  0  1  0  0  3  0  0  0  0  0  0
   39.0450   29.6120   38.1200 C   0  0  0  0  0  3  0  0  0  0  0  0
   39.0520   28.9220   38.9760 H   0  0  0  0  0  0  0  0  0  0  0  0
   40.3240   30.0510   37.8340 O   0  0  0  0  0  0  0  0  0  0  0  0
   40.4520   31.3020   38.4380 C   0  0  0  0  0  3  0  0  0  0  0  0
   41.3340   31.8280   38.0720 H   0  0  0  0  0  0  0  0  0  0  0  0
   39.1500   32.2300   36.6390 O   0  0  0  0  0  0  0  0  0  0  0  0
   40.0830   32.1040   36.3150 H   0  0  0  0  0  0  0  0  0  0  0  0
  1  4  1  1  0  0  0
  1  2  1  0  0  0  0
  2  5  1  0  0  0  0
  2  6  1  0  0  0  0
  3  7  1  6  0  0  0
  3  1  1  0  0  0  0
  3  2  1  0  0  0  0
  8  1  1  0  0  0  0
  8  9  1  0  0  0  0
 10  8  1  0  0  0  0
 11 12  1  0  0  0  0
 11  8  1  0  0  0  0
 12 17  1  0  0  0  0
 13 18  1  0  0  0  0
 13 12  2  0  0  0  0
 14 13  1  0  0  0  0
 15 14  2  0  0  0  0
 15 16  1  0  0  0  0
 16 11  2  0  0  0  0
 19 15  1  0  0  0  0
 20  3  1  0  0  0  0
 22 21  2  6  0  0  0
 22 20  1  0  0  0  0
 22 23  1  0  0  0  0
 23 24  1  0  0  0  0
 25 22  1  0  0  0  0
 26 33  1  6  0  0  0
 26 27  1  0  0  0  0
 26 31  1  0  0  0  0
 27 25  1  1  0  0  0
 28 27  1  0  0  0  0
 28 29  1  0  0  0  0
 30 28  1  0  0  0  0
 30 31  1  0  0  0  0
 32 31  1  0  0  0  0
 34 33  1  0  0  0  0
M  END
>  <minimizedAffinity>
-5.13976479

$$$$

 OpenBabel03252500453D

 34 36  0  0  1  0  0  0  0  0999 V2000
   37.1610   30.9160   40.0180 C   0  0  1  0  0  0  0  0  0  0  0  0
   37.2470   32.3510   39.5140 C   0  0  0  0  0  0  0  0  0  0  0  0
   38.4990   31.5420   39.7550 C   0  0  1  0  0  0  0  0  0  0  0  0
   36.8440   30.2280   39.2020 H   0  0  0  0  0  0  0  0  0  0  0  0
   36.9950   33.1640   40.2130 H   0  0  0  0  0  0  0  0  0  0  0  0
   37.0110   32.5880   38.4630 H   0  0  0  0  0  0  0  0  0  0  0  0
   39.0880   31.2670   38.8530 H   0  0  0  0  0  0  0  0  0  0  0  0
   36.8190   30.7280   41.4390 C   0  0  0  0  0  0  0  0  0  0  0  0
   35.7130   30.9070   41.5960 H   0  0  0  0  0  0  0  0  0  0  0  0
   37.3020   31.4320   42.1380 H   0  0  0  0  0  0  0  0  0  0  0  0
   37.0520   29.3680   41.9540 C   0  0  0  0  0  0  0  0  0  0  0  0
   36.9060   28.3870   41.0130 C   0  0  0  0  0  0  0  0  0  0  0  0
   37.0820   27.0380   41.3600 C   0  0  0  0  0  0  0  0  0  0  0  0
   37.4020   26.8090   42.6800 N   0  0  0  0  0  0  0  0  0  0  0  0
   37.5400   27.7940   43.5910 C   0  0  0  0  0  0  0  0  0  0  0  0
   37.3650   29.0560   43.2210 N   0  0  0  0  0  0  0  0  0  0  0  0
   36.6750   28.3710   39.9560 H   0  0  0  0  0  0  0  0  0  0  0  0
   37.0050   26.1560   40.7480 H   0  0  0  0  0  0  0  0  0  0  0  0
   37.7940   27.5200   44.6090 H   0  0  0  0  0  0  0  0  0  0  0  0
   39.2700   31.8470   40.8470 O   0  0  0  0  0  0  0  0  0  0  0  0
   40.2840   34.1600   39.9820 O   0  0  0  0  0  0  0  0  0  0  0  0
   40.6370   32.7560   40.4450 P   0  0  1  0  0  0  0  0  0  0  0  0
   41.5630   32.9360   41.8770 O   0  0  0  0  0  0  0  0  0  0  0  0
   40.9500   32.9200   42.6590 H   0  0  0  0  0  0  0  0  0  0  0  0
   41.5500   31.9610   39.2970 O   0  0  0  0  0  0  0  0  0  0  0  0
   42.6840   33.2280   37.7450 C   0  0  1  0  0  3  0  0  0  0  0  0
   41.4250   32.3870   38.0070 C   0  0  1  0  0  3  0  0  0  0  0  0
   41.6040   31.2920   36.9830 C   0  0  0  0  0  3  0  0  0  0  0  0
   41.5010   30.2870   37.4150 H   0  0  0  0  0  0  0  0  0  0  0  0
   42.8460   31.4490   36.3960 O   0  0  0  0  0  0  0  0  0  0  0  0
   43.6400   32.1130   37.3310 C   0  0  0  0  0  3  0  0  0  0  0  0
   44.5550   32.4890   36.8760 H   0  0  0  0  0  0  0  0  0  0  0  0
   42.5060   34.1540   36.7440 O   0  0  0  0  0  0  0  0  0  0  0  0
   43.1920   33.9660   36.0470 H   0  0  0  0  0  0  0  0  0  0  0  0
  1  4  1  6  0  0  0
  1  8  1  0  0  0  0
  2  3  1  0  0  0  0
  2  1  1  0  0  0  0
  2  5  1  0  0  0  0
  3  7  1  6  0  0  0
  3  1  1  0  0  0  0
  3 20  1  0  0  0  0
  6  2  1  0  0  0  0
  8  9  1  0  0  0  0
  8 11  1  0  0  0  0
  8 10  1  0  0  0  0
 11 16  1  0  0  0  0
 12 13  1  0  0  0  0
 12 11  2  0  0  0  0
 13 14  2  0  0  0  0
 14 15  1  0  0  0  0
 15 19  1  0  0  0  0
 16 15  2  0  0  0  0
 17 12  1  0  0  0  0
 18 13  1  0  0  0  0
 22 21  2  6  0  0  0
 22 20  1  0  0  0  0
 22 23  1  0  0  0  0
 23 24  1  0  0  0  0
 25 22  1  0  0  0  0
 26 33  1  6  0  0  0
 26 27  1  0  0  0  0
 27 25  1  1  0  0  0
 28 29  1  0  0  0  0
 28 27  1  0  0  0  0
 30 28  1  0  0  0  0
 30 31  1  0  0  0  0
 31 26  1  0  0  0  0
 32 31  1  0  0  0  0
 34 33  1  0  0  0  0
M  END
>  <minimizedAffinity>
-5.057868

$$$$

 OpenBabel03252500453D

 34 36  0  0  1  0  0  0  0  0999 V2000
   36.2340   30.8180   39.8500 C   0  0  1  0  0  0  0  0  0  0  0  0
   35.6510   29.4100   39.8520 C   0  0  0  0  0  0  0  0  0  0  0  0
   36.5920   29.8570   40.9450 C   0  0  1  0  0  0  0  0  0  0  0  0
   35.4710   31.5630   40.1670 H   0  0  0  0  0  0  0  0  0  0  0  0
   36.0120   28.6950   39.0960 H   0  0  0  0  0  0  0  0  0  0  0  0
   34.6000   29.2430   40.1470 H   0  0  0  0  0  0  0  0  0  0  0  0
   36.1510   29.9640   41.9600 H   0  0  0  0  0  0  0  0  0  0  0  0
   37.3040   31.0930   38.8750 C   0  0  0  0  0  0  0  0  0  0  0  0
   36.8540   31.4160   37.8890 H   0  0  0  0  0  0  0  0  0  0  0  0
   37.9320   30.2270   38.6060 H   0  0  0  0  0  0  0  0  0  0  0  0
   38.2100   32.1920   39.2490 C   0  0  0  0  0  0  0  0  0  0  0  0
   39.4650   32.0800   38.7170 C   0  0  0  0  0  0  0  0  0  0  0  0
   40.4450   33.0460   38.9990 C   0  0  0  0  0  0  0  0  0  0  0  0
   40.0370   34.0720   39.8230 N   0  0  0  0  0  0  0  0  0  0  0  0
   38.7930   34.1610   40.3350 C   0  0  0  0  0  0  0  0  0  0  0  0
   37.8970   33.2260   40.0440 N   0  0  0  0  0  0  0  0  0  0  0  0
   39.9560   31.3740   38.0610 H   0  0  0  0  0  0  0  0  0  0  0  0
   41.4670   33.1050   38.6650 H   0  0  0  0  0  0  0  0  0  0  0  0
   38.5600   35.0050   40.9760 H   0  0  0  0  0  0  0  0  0  0  0  0
   37.8690   29.3600   40.9450 O   0  0  0  0  0  0  0  0  0  0  0  0
   39.3200   30.4420   42.9080 O   0  0  0  0  0  0  0  0  0  0  0  0
   38.5140   29.2190   42.5020 P   0  0  1  0  0  0  0  0  0  0  0  0
   37.1920   29.1260   43.5890 O   0  0  0  0  0  0  0  0  0  0  0  0
   36.4240   29.6230   43.2030 H   0  0  0  0  0  0  0  0  0  0  0  0
   39.4310   27.8310   42.6300 O   0  0  0  0  0  0  0  0  0  0  0  0
   38.1440   26.0090   42.0640 C   0  0  1  0  0  3  0  0  0  0  0  0
   38.8380   26.7520   43.2160 C   0  0  1  0  0  3  0  0  0  0  0  0
   39.8140   25.6960   43.6790 C   0  0  0  0  0  3  0  0  0  0  0  0
   40.8420   26.0760   43.7590 H   0  0  0  0  0  0  0  0  0  0  0  0
   39.7510   24.6330   42.7970 O   0  0  0  0  0  0  0  0  0  0  0  0
   39.3150   25.1600   41.5810 C   0  0  0  0  0  3  0  0  0  0  0  0
   39.0090   24.3690   40.8960 H   0  0  0  0  0  0  0  0  0  0  0  0
   37.0870   25.2380   42.4890 O   0  0  0  0  0  0  0  0  0  0  0  0
   37.2760   24.3020   42.2080 H   0  0  0  0  0  0  0  0  0  0  0  0
  1  2  1  0  0  0  0
  1  4  1  1  0  0  0
  1  3  1  0  0  0  0
  2  6  1  0  0  0  0
  2  3  1  0  0  0  0
  3 20  1  0  0  0  0
  3  7  1  1  0  0  0
  5  2  1  0  0  0  0
  8 11  1  0  0  0  0
  8  1  1  0  0  0  0
  9  8  1  0  0  0  0
 10  8  1  0  0  0  0
 11 16  1  0  0  0  0
 12 13  1  0  0  0  0
 12 11  2  0  0  0  0
 13 14  2  0  0  0  0
 14 15  1  0  0  0  0
 15 19  1  0  0  0  0
 16 15  2  0  0  0  0
 17 12  1  0  0  0  0
 18 13  1  0  0  0  0
 20 22  1  0  0  0  0
 22 25  1  0  0  0  0
 22 21  2  1  0  0  0
 22 23  1  0  0  0  0
 24 23  1  0  0  0  0
 26 33  1  1  0  0  0
 26 27  1  0  0  0  0
 27 25  1  6  0  0  0
 27 28  1  0  0  0  0
 28 29  1  0  0  0  0
 30 28  1  0  0  0  0
 31 26  1  0  0  0  0
 31 30  1  0  0  0  0
 32 31  1  0  0  0  0
 34 33  1  0  0  0  0
M  END
>  <minimizedAffinity>
-4.96929455

$$$$

 OpenBabel03252500453D

 34 36  0  0  1  0  0  0  0  0999 V2000
   36.6610   28.7620   40.9280 C   0  0  1  0  0  0  0  0  0  0  0  0
   35.4870   29.5820   40.4060 C   0  0  0  0  0  0  0  0  0  0  0  0
   36.9050   29.9370   40.0280 C   0  0  1  0  0  0  0  0  0  0  0  0
   36.7350   27.7900   40.3910 H   0  0  0  0  0  0  0  0  0  0  0  0
   34.9470   30.2270   41.1160 H   0  0  0  0  0  0  0  0  0  0  0  0
   34.8480   29.1870   39.5980 H   0  0  0  0  0  0  0  0  0  0  0  0
   37.1810   29.7880   38.9620 H   0  0  0  0  0  0  0  0  0  0  0  0
   37.0340   28.9580   42.3400 C   0  0  0  0  0  0  0  0  0  0  0  0
   36.3150   28.3990   43.0110 H   0  0  0  0  0  0  0  0  0  0  0  0
   36.9780   29.9980   42.7030 H   0  0  0  0  0  0  0  0  0  0  0  0
   38.3630   28.4370   42.7040 C   0  0  0  0  0  0  0  0  0  0  0  0
   38.3330   27.1910   43.2660 C   0  0  0  0  0  0  0  0  0  0  0  0
   39.5230   26.5700   43.6790 C   0  0  0  0  0  0  0  0  0  0  0  0
   40.6700   27.3040   43.4720 N   0  0  0  0  0  0  0  0  0  0  0  0
   40.6740   28.5330   42.9160 C   0  0  0  0  0  0  0  0  0  0  0  0
   39.5270   29.0830   42.5400 N   0  0  0  0  0  0  0  0  0  0  0  0
   37.5560   26.4740   43.4950 H   0  0  0  0  0  0  0  0  0  0  0  0
   39.6730   25.6050   44.1330 H   0  0  0  0  0  0  0  0  0  0  0  0
   41.6260   29.0380   42.7910 H   0  0  0  0  0  0  0  0  0  0  0  0
   37.4680   31.0500   40.5960 O   0  0  0  0  0  0  0  0  0  0  0  0
   37.3030   31.9060   38.0730 O   0  0  0  0  0  0  0  0  0  0  0  0
   37.7990   32.2620   39.4640 P   0  0  1  0  0  0  0  0  0  0  0  0
   36.9280   33.6570   39.9480 O   0  0  0  0  0  0  0  0  0  0  0  0
   36.1100   33.3710   40.4340 H   0  0  0  0  0  0  0  0  0  0  0  0
   39.4310   32.6120   39.4440 O   0  0  0  0  0  0  0  0  0  0  0  0
   40.8900   31.9140   41.0820 C   0  0  1  0  0  3  0  0  0  0  0  0
   39.9800   33.0590   40.6090 C   0  0  1  0  0  3  0  0  0  0  0  0
   40.9960   34.1610   40.4210 C   0  0  0  0  0  3  0  0  0  0  0  0
   40.9190   34.6440   39.4370 H   0  0  0  0  0  0  0  0  0  0  0  0
   42.2560   33.6230   40.6060 O   0  0  0  0  0  0  0  0  0  0  0  0
   42.1510   32.2660   40.2990 C   0  0  0  0  0  3  0  0  0  0  0  0
   43.0270   31.7160   40.6410 H   0  0  0  0  0  0  0  0  0  0  0  0
   41.1030   31.9310   42.4400 O   0  0  0  0  0  0  0  0  0  0  0  0
   42.0860   31.9950   42.5810 H   0  0  0  0  0  0  0  0  0  0  0  0
  1  4  1  6  0  0  0
  1  8  1  0  0  0  0
  2  1  1  0  0  0  0
  2  5  1  0  0  0  0
  3  7  1  6  0  0  0
  3  2  1  0  0  0  0
  3 20  1  0  0  0  0
  3  1  1  0  0  0  0
  6  2  1  0  0  0  0
  8 10  1  0  0  0  0
  8 11  1  0  0  0  0
  8  9  1  0  0  0  0
 11 12  1  0  0  0  0
 12 17  1  0  0  0  0
 12 13  2  0  0  0  0
 13 18  1  0  0  0  0
 14 13  1  0  0  0  0
 15 14  2  0  0  0  0
 16 11  2  0  0  0  0
 16 15  1  0  0  0  0
 19 15  1  0  0  0  0
 22 21  2  6  0  0  0
 22 23  1  0  0  0  0
 22 20  1  0  0  0  0
 23 24  1  0  0  0  0
 25 22  1  0  0  0  0
 26 33  1  1  0  0  0
 27 25  1  6  0  0  0
 27 26  1  0  0  0  0
 28 30  1  0  0  0  0
 28 27  1  0  0  0  0
 29 28  1  0  0  0  0
 31 30  1  0  0  0  0
 31 32  1  0  0  0  0
 31 26  1  0  0  0  0
 33 34  1  0  0  0  0
M  END
>  <minimizedAffinity>
-4.90384626

$$$$

 OpenBabel03252500453D

 34 36  0  0  1  0  0  0  0  0999 V2000
   37.5390   31.1910   37.6860 C   0  0  1  0  0  0  0  0  0  0  0  0
   36.6030   30.0850   37.2150 C   0  0  0  0  0  0  0  0  0  0  0  0
   36.6490   30.4910   38.6690 C   0  0  1  0  0  0  0  0  0  0  0  0
   37.1500   32.1910   37.3930 H   0  0  0  0  0  0  0  0  0  0  0  0
   37.0440   29.1220   36.9160 H   0  0  0  0  0  0  0  0  0  0  0  0
   35.6790   30.3340   36.6650 H   0  0  0  0  0  0  0  0  0  0  0  0
   35.7400   30.9910   39.0690 H   0  0  0  0  0  0  0  0  0  0  0  0
   38.9720   30.8560   37.7790 C   0  0  0  0  0  0  0  0  0  0  0  0
   39.3460   30.4800   36.7800 H   0  0  0  0  0  0  0  0  0  0  0  0
   39.2200   30.0390   38.4780 H   0  0  0  0  0  0  0  0  0  0  0  0
   39.8510   31.9920   38.1020 C   0  0  0  0  0  0  0  0  0  0  0  0
   40.9220   32.1190   37.2620 C   0  0  0  0  0  0  0  0  0  0  0  0
   41.8580   33.1480   37.4550 C   0  0  0  0  0  0  0  0  0  0  0  0
   41.6030   33.9800   38.5230 N   0  0  0  0  0  0  0  0  0  0  0  0
   40.5390   33.8340   39.3390 C   0  0  0  0  0  0  0  0  0  0  0  0
   39.6790   32.8480   39.1210 N   0  0  0  0  0  0  0  0  0  0  0  0
   41.2760   31.5870   36.3890 H   0  0  0  0  0  0  0  0  0  0  0  0
   42.7440   33.3850   36.8920 H   0  0  0  0  0  0  0  0  0  0  0  0
   40.4180   34.5370   40.1560 H   0  0  0  0  0  0  0  0  0  0  0  0
   37.2510   29.6420   39.5610 O   0  0  0  0  0  0  0  0  0  0  0  0
   38.2150   31.2380   41.4710 O   0  0  0  0  0  0  0  0  0  0  0  0
   37.1550   30.1960   41.1550 P   0  0  1  0  0  0  0  0  0  0  0  0
   35.6390   30.9770   41.3280 O   0  0  0  0  0  0  0  0  0  0  0  0
   35.3710   31.3540   40.4490 H   0  0  0  0  0  0  0  0  0  0  0  0
   37.2400   28.9170   42.2240 O   0  0  0  0  0  0  0  0  0  0  0  0
   39.2870   27.9320   41.8540 C   0  0  1  0  0  3  0  0  0  0  0  0
   37.7650   27.7510   41.7490 C   0  0  1  0  0  3  0  0  0  0  0  0
   37.5620   26.5720   42.6710 C   0  0  0  0  0  3  0  0  0  0  0  0
   36.7760   26.7480   43.4170 H   0  0  0  0  0  0  0  0  0  0  0  0
   38.7680   26.2910   43.2850 O   0  0  0  0  0  0  0  0  0  0  0  0
   39.4870   27.4860   43.2990 C   0  0  0  0  0  3  0  0  0  0  0  0
   40.5350   27.3140   43.5460 H   0  0  0  0  0  0  0  0  0  0  0  0
   39.9790   27.1390   40.9680 O   0  0  0  0  0  0  0  0  0  0  0  0
   40.5930   26.5680   41.5040 H   0  0  0  0  0  0  0  0  0  0  0  0
  1  4  1  6  0  0  0
  1  8  1  0  0  0  0
  1  3  1  0  0  0  0
  2  1  1  0  0  0  0
  2  3  1  0  0  0  0
  3  7  1  1  0  0  0
  3 20  1  0  0  0  0
  5  2  1  0  0  0  0
  6  2  1  0  0  0  0
  8 11  1  0  0  0  0
  8 10  1  0  0  0  0
  9  8  1  0  0  0  0
 11 16  1  0  0  0  0
 12 13  1  0  0  0  0
 12 11  2  0  0  0  0
 13 14  2  0  0  0  0
 14 15  1  0  0  0  0
 15 19  1  0  0  0  0
 16 15  2  0  0  0  0
 17 12  1  0  0  0  0
 18 13  1  0  0  0  0
 20 22  1  0  0  0  0
 22 23  1  0  0  0  0
 22 21  2  1  0  0  0
 22 25  1  0  0  0  0
 24 23  1  0  0  0  0
 26 33  1  6  0  0  0
 26 31  1  0  0  0  0
 27 26  1  0  0  0  0
 27 25  1  1  0  0  0
 27 28  1  0  0  0  0
 28 30  1  0  0  0  0
 28 29  1  0  0  0  0
 30 31  1  0  0  0  0
 31 32  1  0  0  0  0
 33 34  1  0  0  0  0
M  END
>  <minimizedAffinity>
-4.88513374

$$$$

 OpenBabel03252500453D

 34 36  0  0  1  0  0  0  0  0999 V2000
   36.7460   26.3290   42.5550 C   0  0  1  0  0  0  0  0  0  0  0  0
   36.8580   27.4210   43.6120 C   0  0  0  0  0  0  0  0  0  0  0  0
   36.6730   27.7730   42.1560 C   0  0  1  0  0  0  0  0  0  0  0  0
   35.7450   25.8450   42.5910 H   0  0  0  0  0  0  0  0  0  0  0  0
   37.8390   27.5920   44.0820 H   0  0  0  0  0  0  0  0  0  0  0  0
   36.0080   27.6380   44.2810 H   0  0  0  0  0  0  0  0  0  0  0  0
   35.7010   28.2380   41.8820 H   0  0  0  0  0  0  0  0  0  0  0  0
   37.9900   25.6320   42.1840 C   0  0  0  0  0  0  0  0  0  0  0  0
   38.4960   25.2260   43.1100 H   0  0  0  0  0  0  0  0  0  0  0  0
   38.7640   26.2650   41.7170 H   0  0  0  0  0  0  0  0  0  0  0  0
   37.8030   24.4570   41.3170 C   0  0  0  0  0  0  0  0  0  0  0  0
   36.5540   24.3700   40.7650 C   0  0  0  0  0  0  0  0  0  0  0  0
   36.2210   23.2930   39.9280 C   0  0  0  0  0  0  0  0  0  0  0  0
   37.2280   22.3760   39.7230 N   0  0  0  0  0  0  0  0  0  0  0  0
   38.4530   22.4830   40.2780 C   0  0  0  0  0  0  0  0  0  0  0  0
   38.7260   23.5170   41.0640 N   0  0  0  0  0  0  0  0  0  0  0  0
   35.6600   24.9780   40.7990 H   0  0  0  0  0  0  0  0  0  0  0  0
   35.2960   23.0780   39.4210 H   0  0  0  0  0  0  0  0  0  0  0  0
   39.1840   21.7130   40.0610 H   0  0  0  0  0  0  0  0  0  0  0  0
   37.7440   28.2860   41.4710 O   0  0  0  0  0  0  0  0  0  0  0  0
   36.5290   30.6570   41.6310 O   0  0  0  0  0  0  0  0  0  0  0  0
   37.8810   29.9630   41.6340 P   0  0  1  0  0  0  0  0  0  0  0  0
   38.5780   30.2660   43.1700 O   0  0  0  0  0  0  0  0  0  0  0  0
   38.3240   29.5310   43.7880 H   0  0  0  0  0  0  0  0  0  0  0  0
   38.8730   30.5860   40.4460 O   0  0  0  0  0  0  0  0  0  0  0  0
   38.8500   32.8580   40.8170 C   0  0  1  0  0  3  0  0  0  0  0  0
   38.4620   31.7370   39.8410 C   0  0  1  0  0  3  0  0  0  0  0  0
   39.2880   32.1200   38.6360 C   0  0  0  0  0  3  0  0  0  0  0  0
   39.8840   31.2830   38.2470 H   0  0  0  0  0  0  0  0  0  0  0  0
   40.1030   33.1790   38.9910 O   0  0  0  0  0  0  0  0  0  0  0  0
   40.2900   33.0830   40.3700 C   0  0  0  0  0  3  0  0  0  0  0  0
   40.7190   34.0000   40.7740 H   0  0  0  0  0  0  0  0  0  0  0  0
   38.0790   33.9860   40.6650 O   0  0  0  0  0  0  0  0  0  0  0  0
   38.6980   34.7390   40.4640 H   0  0  0  0  0  0  0  0  0  0  0  0
  1  4  1  6  0  0  0
  1  2  1  0  0  0  0
  2  5  1  0  0  0  0
  2  6  1  0  0  0  0
  3  7  1  6  0  0  0
  3  1  1  0  0  0  0
  3  2  1  0  0  0  0
  8  1  1  0  0  0  0
  8  9  1  0  0  0  0
 10  8  1  0  0  0  0
 11  8  1  0  0  0  0
 12 17  1  0  0  0  0
 12 11  2  0  0  0  0
 13 12  1  0  0  0  0
 14 13  2  0  0  0  0
 14 15  1  0  0  0  0
 15 16  2  0  0  0  0
 16 11  1  0  0  0  0
 18 13  1  0  0  0  0
 19 15  1  0  0  0  0
 20 22  1  0  0  0  0
 20  3  1  0  0  0  0
 22 21  2  6  0  0  0
 22 23  1  0  0  0  0
 23 24  1  0  0  0  0
 25 22  1  0  0  0  0
 26 33  1  6  0  0  0
 27 25  1  1  0  0  0
 27 26  1  0  0  0  0
 28 30  1  0  0  0  0
 28 27  1  0  0  0  0
 29 28  1  0  0  0  0
 30 31  1  0  0  0  0
 31 32  1  0  0  0  0
 31 26  1  0  0  0  0
 34 33  1  0  0  0  0
M  END
>  <minimizedAffinity>
-4.85612535

$$$$
