
 OpenBabel03252504233D

 32 35  0  0  1  0  0  0  0  0999 V2000
   37.3360   30.5290   39.0580 C   0  0  0  0  0  0  0  0  0  0  0  0
   36.7880   30.0520   37.8550 C   0  0  0  0  0  0  0  0  0  0  0  0
   36.8850   28.6680   37.5720 C   0  0  0  0  0  0  0  0  0  0  0  0
   37.5130   27.8910   38.5040 N   0  0  0  0  0  0  0  0  0  0  0  0
   38.0250   28.3830   39.6450 C   0  0  0  0  0  0  0  0  0  0  0  0
   37.9320   29.7000   39.9130 N   0  0  0  0  0  0  0  0  0  0  0  0
   38.6580   27.4950   40.5550 N   0  0  0  0  0  0  0  0  0  0  0  0
   39.8270   27.7100   41.2000 C   0  0  0  0  0  0  0  0  0  0  0  0
   40.0870   26.6190   41.9800 N   0  0  0  0  0  0  0  0  0  0  0  0
   39.0800   25.7650   41.7980 C   0  0  0  0  0  0  0  0  0  0  0  0
   38.7660   24.5130   42.2910 C   0  0  0  0  0  0  0  0  0  0  0  0
   37.6730   23.8500   41.9480 N   0  0  0  0  0  0  0  0  0  0  0  0
   36.7850   24.3700   41.0770 C   0  0  0  0  0  0  0  0  0  0  0  0
   37.0690   25.5800   40.5860 N   0  0  0  0  0  0  0  0  0  0  0  0
   38.1650   26.2890   40.9060 C   0  0  0  0  0  0  0  0  0  0  0  0
   36.3050   30.6770   37.1490 H   0  0  0  0  0  0  0  0  0  0  0  0
   36.4780   28.2510   36.6550 H   0  0  0  0  0  0  0  0  0  0  0  0
   40.4850   28.5670   41.1510 H   0  0  0  0  0  0  0  0  0  0  0  0
   35.8840   23.8780   40.7640 H   0  0  0  0  0  0  0  0  0  0  0  0
   39.6210   23.8560   43.2190 N   0  0  0  0  0  0  0  0  0  0  0  0
   40.0400   24.3860   44.0340 H   0  0  0  0  0  0  0  0  0  0  0  0
   39.8270   22.8620   43.0910 H   0  0  0  0  0  0  0  0  0  0  0  0
   37.1460   32.2920   39.3010 S   0  0  0  0  0  0  0  0  0  0  0  0
   39.3230   33.1420   40.8020 C   0  0  1  0  0  3  0  0  0  0  0  0
   38.7420   33.0930   39.3870 C   0  0  1  0  0  3  0  0  0  0  0  0
   39.8380   32.2780   38.7240 C   0  0  0  0  0  3  0  0  0  0  0  0
   39.7080   31.1750   38.9330 H   0  0  0  0  0  0  0  0  0  0  0  0
   41.0400   32.6440   39.3170 O   0  0  0  0  0  0  0  0  0  0  0  0
   40.7670   33.4710   40.3980 C   0  0  0  0  0  3  0  0  0  0  0  0
   40.7230   34.5170   39.9950 H   0  0  0  0  0  0  0  0  0  0  0  0
   38.7760   34.1610   41.5590 O   0  0  0  0  0  0  0  0  0  0  0  0
   38.1760   34.6880   40.9480 H   0  0  0  0  0  0  0  0  0  0  0  0
  1 23  1  0  0  0  0
  1  6  1  0  0  0  0
  2  1  2  0  0  0  0
  3  2  1  0  0  0  0
  3  4  2  0  0  0  0
  4  5  1  0  0  0  0
  5  6  2  0  0  0  0
  5  7  1  0  0  0  0
  7 15  1  0  0  0  0
  7  8  1  0  0  0  0
  8  9  2  0  0  0  0
 10  9  1  0  0  0  0
 10 11  1  0  0  0  0
 11 20  1  0  0  0  0
 12 11  2  0  0  0  0
 13 12  1  0  0  0  0
 14 15  1  0  0  0  0
 14 13  2  0  0  0  0
 15 10  2  0  0  0  0
 16  2  1  0  0  0  0
 17  3  1  0  0  0  0
 18  8  1  0  0  0  0
 19 13  1  0  0  0  0
 20 21  1  0  0  0  0
 22 20  1  0  0  0  0
 24 31  1  1  0  0  0
 25 23  1  1  0  0  0
 25 24  1  0  0  0  0
 26 27  1  0  0  0  0
 26 28  1  0  0  0  0
 26 25  1  0  0  0  0
 28 29  1  0  0  0  0
 29 24  1  0  0  0  0
 30 29  1  0  0  0  0
 32 31  1  0  0  0  0
M  END
>  <minimizedAffinity>
-5.76563072

$$$$

 OpenBabel03252504233D

 32 35  0  0  1  0  0  0  0  0999 V2000
   39.7460   32.7670   39.9430 C   0  0  0  0  0  0  0  0  0  0  0  0
   38.4670   33.3310   39.8020 C   0  0  0  0  0  0  0  0  0  0  0  0
   37.3400   32.4800   39.8930 C   0  0  0  0  0  0  0  0  0  0  0  0
   37.5850   31.1540   40.1160 N   0  0  0  0  0  0  0  0  0  0  0  0
   38.8230   30.6490   40.2470 C   0  0  0  0  0  0  0  0  0  0  0  0
   39.8950   31.4610   40.1600 N   0  0  0  0  0  0  0  0  0  0  0  0
   38.9790   29.2560   40.4790 N   0  0  0  0  0  0  0  0  0  0  0  0
   39.8720   28.4400   39.8760 C   0  0  0  0  0  0  0  0  0  0  0  0
   39.6980   27.1800   40.3760 N   0  0  0  0  0  0  0  0  0  0  0  0
   38.7090   27.2510   41.2680 C   0  0  0  0  0  0  0  0  0  0  0  0
   38.0780   26.3410   42.0930 C   0  0  0  0  0  0  0  0  0  0  0  0
   37.0930   26.6660   42.9150 N   0  0  0  0  0  0  0  0  0  0  0  0
   36.6380   27.9330   42.9930 C   0  0  0  0  0  0  0  0  0  0  0  0
   37.2340   28.8310   42.2020 N   0  0  0  0  0  0  0  0  0  0  0  0
   38.2370   28.5460   41.3540 C   0  0  0  0  0  0  0  0  0  0  0  0
   38.3040   34.3640   39.6300 H   0  0  0  0  0  0  0  0  0  0  0  0
   36.3300   32.8690   39.7900 H   0  0  0  0  0  0  0  0  0  0  0  0
   40.6150   28.6760   39.1270 H   0  0  0  0  0  0  0  0  0  0  0  0
   35.8430   28.2540   43.6400 H   0  0  0  0  0  0  0  0  0  0  0  0
   38.4650   24.9730   42.1060 N   0  0  0  0  0  0  0  0  0  0  0  0
   39.4890   24.7030   42.1160 H   0  0  0  0  0  0  0  0  0  0  0  0
   37.7420   24.2480   42.1070 H   0  0  0  0  0  0  0  0  0  0  0  0
   41.0860   33.9450   39.8120 S   0  0  0  0  0  0  0  0  0  0  0  0
   43.0630   34.1610   37.8730 C   0  0  1  0  0  3  0  0  0  0  0  0
   42.4710   33.2320   38.9340 C   0  0  1  0  0  3  0  0  0  0  0  0
   43.7010   33.0830   39.8130 C   0  0  0  0  0  3  0  0  0  0  0  0
   43.8200   33.9730   40.5000 H   0  0  0  0  0  0  0  0  0  0  0  0
   44.8090   33.0930   38.9750 O   0  0  0  0  0  0  0  0  0  0  0  0
   44.3900   33.4110   37.6900 C   0  0  0  0  0  3  0  0  0  0  0  0
   44.1090   32.4420   37.1990 H   0  0  0  0  0  0  0  0  0  0  0  0
   42.3270   34.1580   36.7030 O   0  0  0  0  0  0  0  0  0  0  0  0
   41.6110   33.4610   36.8120 H   0  0  0  0  0  0  0  0  0  0  0  0
  1  6  1  0  0  0  0
  2  3  1  0  0  0  0
  2  1  2  0  0  0  0
  3  4  2  0  0  0  0
  4  5  1  0  0  0  0
  5  7  1  0  0  0  0
  6  5  2  0  0  0  0
  7 15  1  0  0  0  0
  8  9  2  0  0  0  0
  8  7  1  0  0  0  0
  9 10  1  0  0  0  0
 10 15  2  0  0  0  0
 10 11  1  0  0  0  0
 11 20  1  0  0  0  0
 11 12  2  0  0  0  0
 12 13  1  0  0  0  0
 13 19  1  0  0  0  0
 14 13  2  0  0  0  0
 15 14  1  0  0  0  0
 16  2  1  0  0  0  0
 17  3  1  0  0  0  0
 18  8  1  0  0  0  0
 20 22  1  0  0  0  0
 20 21  1  0  0  0  0
 23  1  1  0  0  0  0
 24 31  1  6  0  0  0
 24 25  1  0  0  0  0
 25 23  1  1  0  0  0
 25 26  1  0  0  0  0
 26 27  1  0  0  0  0
 28 26  1  0  0  0  0
 29 24  1  0  0  0  0
 29 28  1  0  0  0  0
 30 29  1  0  0  0  0
 31 32  1  0  0  0  0
M  END
>  <minimizedAffinity>
-5.75683498

$$$$

 OpenBabel03252504233D

 32 35  0  0  1  0  0  0  0  0999 V2000
   39.0490   26.9610   42.7970 C   0  0  0  0  0  0  0  0  0  0  0  0
   38.1160   27.5310   43.6790 C   0  0  0  0  0  0  0  0  0  0  0  0
   37.6900   28.8600   43.4430 C   0  0  0  0  0  0  0  0  0  0  0  0
   38.2270   29.4970   42.3590 N   0  0  0  0  0  0  0  0  0  0  0  0
   39.1180   28.9190   41.5370 C   0  0  0  0  0  0  0  0  0  0  0  0
   39.5230   27.6540   41.7620 N   0  0  0  0  0  0  0  0  0  0  0  0
   39.6200   29.6600   40.4340 N   0  0  0  0  0  0  0  0  0  0  0  0
   40.9100   29.7270   40.0350 C   0  0  0  0  0  0  0  0  0  0  0  0
   40.9730   30.5420   38.9400 N   0  0  0  0  0  0  0  0  0  0  0  0
   39.7290   30.9540   38.6930 C   0  0  0  0  0  0  0  0  0  0  0  0
   39.1470   31.7740   37.7460 C   0  0  0  0  0  0  0  0  0  0  0  0
   37.8500   32.0360   37.7090 N   0  0  0  0  0  0  0  0  0  0  0  0
   37.0050   31.5050   38.6150 C   0  0  0  0  0  0  0  0  0  0  0  0
   37.5460   30.7080   39.5420 N   0  0  0  0  0  0  0  0  0  0  0  0
   38.8550   30.4150   39.6170 C   0  0  0  0  0  0  0  0  0  0  0  0
   37.7130   27.0150   44.5120 H   0  0  0  0  0  0  0  0  0  0  0  0
   36.9700   29.3450   44.0970 H   0  0  0  0  0  0  0  0  0  0  0  0
   41.7810   29.2490   40.4610 H   0  0  0  0  0  0  0  0  0  0  0  0
   35.9460   31.6830   38.6330 H   0  0  0  0  0  0  0  0  0  0  0  0
   39.9310   32.3950   36.7340 N   0  0  0  0  0  0  0  0  0  0  0  0
   40.6740   31.8470   36.2170 H   0  0  0  0  0  0  0  0  0  0  0  0
   39.7680   33.3800   36.5090 H   0  0  0  0  0  0  0  0  0  0  0  0
   39.5040   25.2780   43.2000 S   0  0  0  0  0  0  0  0  0  0  0  0
   37.3470   24.6260   41.5750 C   0  0  1  0  0  3  0  0  0  0  0  0
   38.6940   24.1240   42.0990 C   0  0  1  0  0  3  0  0  0  0  0  0
   39.4140   23.9870   40.7690 C   0  0  0  0  0  3  0  0  0  0  0  0
   39.8020   24.9870   40.4110 H   0  0  0  0  0  0  0  0  0  0  0  0
   38.4730   23.5810   39.8310 O   0  0  0  0  0  0  0  0  0  0  0  0
   37.2150   23.6270   40.4160 C   0  0  0  0  0  3  0  0  0  0  0  0
   37.0580   22.6320   40.9090 H   0  0  0  0  0  0  0  0  0  0  0  0
   36.3300   24.4550   42.4940 O   0  0  0  0  0  0  0  0  0  0  0  0
   36.7210   23.9500   43.2710 H   0  0  0  0  0  0  0  0  0  0  0  0
  1 23  1  0  0  0  0
  1  2  1  0  0  0  0
  2 16  1  0  0  0  0
  3  2  2  0  0  0  0
  3 17  1  0  0  0  0
  4  3  1  0  0  0  0
  5  6  1  0  0  0  0
  5  4  2  0  0  0  0
  6  1  2  0  0  0  0
  7  5  1  0  0  0  0
  8  7  1  0  0  0  0
  8 18  1  0  0  0  0
  9  8  2  0  0  0  0
 10  9  1  0  0  0  0
 10 15  1  0  0  0  0
 11 10  2  0  0  0  0
 12 11  1  0  0  0  0
 12 13  2  0  0  0  0
 13 19  1  0  0  0  0
 13 14  1  0  0  0  0
 14 15  2  0  0  0  0
 15  7  1  0  0  0  0
 20 11  1  0  0  0  0
 21 20  1  0  0  0  0
 22 20  1  0  0  0  0
 24 25  1  0  0  0  0
 24 31  1  1  0  0  0
 25 23  1  1  0  0  0
 26 25  1  0  0  0  0
 27 26  1  0  0  0  0
 28 29  1  0  0  0  0
 28 26  1  0  0  0  0
 29 30  1  0  0  0  0
 29 24  1  0  0  0  0
 31 32  1  0  0  0  0
M  END
>  <minimizedAffinity>
-5.7307415

$$$$

 OpenBabel03252504233D

 32 35  0  0  1  0  0  0  0  0999 V2000
   38.5880   26.3350   42.4120 C   0  0  0  0  0  0  0  0  0  0  0  0
   37.2350   26.3300   42.7870 C   0  0  0  0  0  0  0  0  0  0  0  0
   36.5730   27.5720   42.9460 C   0  0  0  0  0  0  0  0  0  0  0  0
   37.3140   28.6980   42.7190 N   0  0  0  0  0  0  0  0  0  0  0  0
   38.6080   28.6650   42.3600 C   0  0  0  0  0  0  0  0  0  0  0  0
   39.2360   27.4820   42.2090 N   0  0  0  0  0  0  0  0  0  0  0  0
   39.2940   29.8890   42.1430 N   0  0  0  0  0  0  0  0  0  0  0  0
   40.5360   30.1980   42.5800 C   0  0  0  0  0  0  0  0  0  0  0  0
   40.8280   31.4660   42.1630 N   0  0  0  0  0  0  0  0  0  0  0  0
   39.7670   31.9030   41.4830 C   0  0  0  0  0  0  0  0  0  0  0  0
   39.4500   33.0760   40.8260 C   0  0  0  0  0  0  0  0  0  0  0  0
   38.2970   33.2740   40.2070 N   0  0  0  0  0  0  0  0  0  0  0  0
   37.3450   32.3200   40.1840 C   0  0  0  0  0  0  0  0  0  0  0  0
   37.6290   31.1760   40.8130 N   0  0  0  0  0  0  0  0  0  0  0  0
   38.7860   30.9320   41.4540 C   0  0  0  0  0  0  0  0  0  0  0  0
   36.6830   25.4410   42.9570 H   0  0  0  0  0  0  0  0  0  0  0  0
   35.5270   27.6190   43.2360 H   0  0  0  0  0  0  0  0  0  0  0  0
   41.2240   29.5990   43.1600 H   0  0  0  0  0  0  0  0  0  0  0  0
   36.3930   32.4250   39.6980 H   0  0  0  0  0  0  0  0  0  0  0  0
   40.3690   34.1600   40.7770 N   0  0  0  0  0  0  0  0  0  0  0  0
   41.3940   33.9880   40.5730 H   0  0  0  0  0  0  0  0  0  0  0  0
   40.0300   35.1120   40.9410 H   0  0  0  0  0  0  0  0  0  0  0  0
   39.3080   24.7060   42.2400 S   0  0  0  0  0  0  0  0  0  0  0  0
   37.8150   23.1630   40.4770 C   0  0  1  0  0  3  0  0  0  0  0  0
   39.0430   24.0690   40.5900 C   0  0  1  0  0  3  0  0  0  0  0  0
   38.6130   25.1490   39.6120 C   0  0  0  0  0  3  0  0  0  0  0  0
   37.8960   25.8760   40.0980 H   0  0  0  0  0  0  0  0  0  0  0  0
   37.9010   24.5250   38.5960 O   0  0  0  0  0  0  0  0  0  0  0  0
   37.7000   23.1970   38.9460 C   0  0  0  0  0  3  0  0  0  0  0  0
   38.5950   22.6320   38.5760 H   0  0  0  0  0  0  0  0  0  0  0  0
   38.0670   21.8800   40.9260 O   0  0  0  0  0  0  0  0  0  0  0  0
   39.0470   21.8350   41.1430 H   0  0  0  0  0  0  0  0  0  0  0  0
  1  2  1  0  0  0  0
  2  3  2  0  0  0  0
  2 16  1  0  0  0  0
  3 17  1  0  0  0  0
  4  3  1  0  0  0  0
  5  4  2  0  0  0  0
  6  5  1  0  0  0  0
  6  1  2  0  0  0  0
  7  5  1  0  0  0  0
  7  8  1  0  0  0  0
  8 18  1  0  0  0  0
  9  8  2  0  0  0  0
 10  9  1  0  0  0  0
 11 10  2  0  0  0  0
 12 11  1  0  0  0  0
 13 12  2  0  0  0  0
 13 14  1  0  0  0  0
 14 15  2  0  0  0  0
 15 10  1  0  0  0  0
 15  7  1  0  0  0  0
 19 13  1  0  0  0  0
 20 11  1  0  0  0  0
 20 22  1  0  0  0  0
 21 20  1  0  0  0  0
 23  1  1  0  0  0  0
 24 25  1  0  0  0  0
 24 31  1  6  0  0  0
 25 23  1  1  0  0  0
 26 27  1  0  0  0  0
 26 25  1  0  0  0  0
 28 29  1  0  0  0  0
 28 26  1  0  0  0  0
 29 24  1  0  0  0  0
 30 29  1  0  0  0  0
 31 32  1  0  0  0  0
M  END
>  <minimizedAffinity>
-5.62255764

$$$$

 OpenBabel03252504233D

 32 35  0  0  1  0  0  0  0  0999 V2000
   37.1120   25.4590   40.8750 C   0  0  0  0  0  0  0  0  0  0  0  0
   36.6760   24.8910   39.6660 C   0  0  0  0  0  0  0  0  0  0  0  0
   36.1890   25.7520   38.6530 C   0  0  0  0  0  0  0  0  0  0  0  0
   36.1810   27.0900   38.9330 N   0  0  0  0  0  0  0  0  0  0  0  0
   36.6060   27.5980   40.1020 C   0  0  0  0  0  0  0  0  0  0  0  0
   37.0700   26.7770   41.0650 N   0  0  0  0  0  0  0  0  0  0  0  0
   36.5610   29.0030   40.3000 N   0  0  0  0  0  0  0  0  0  0  0  0
   36.1300   29.6410   41.4110 C   0  0  0  0  0  0  0  0  0  0  0  0
   36.2480   30.9860   41.2000 N   0  0  0  0  0  0  0  0  0  0  0  0
   36.7450   31.1430   39.9720 C   0  0  0  0  0  0  0  0  0  0  0  0
   37.0840   32.2310   39.1930 C   0  0  0  0  0  0  0  0  0  0  0  0
   37.5750   32.1240   37.9680 N   0  0  0  0  0  0  0  0  0  0  0  0
   37.7740   30.9180   37.3990 C   0  0  0  0  0  0  0  0  0  0  0  0
   37.4520   29.8500   38.1350 N   0  0  0  0  0  0  0  0  0  0  0  0
   36.9530   29.9120   39.3810 C   0  0  0  0  0  0  0  0  0  0  0  0
   36.6940   23.8490   39.4740 H   0  0  0  0  0  0  0  0  0  0  0  0
   35.8400   25.3610   37.7020 H   0  0  0  0  0  0  0  0  0  0  0  0
   35.7490   29.2230   42.3330 H   0  0  0  0  0  0  0  0  0  0  0  0
   38.1680   30.7710   36.4110 H   0  0  0  0  0  0  0  0  0  0  0  0
   36.9220   33.5580   39.6780 N   0  0  0  0  0  0  0  0  0  0  0  0
   37.2170   33.8110   40.6630 H   0  0  0  0  0  0  0  0  0  0  0  0
   36.5170   34.2700   39.0640 H   0  0  0  0  0  0  0  0  0  0  0  0
   37.7070   24.2680   42.0710 S   0  0  0  0  0  0  0  0  0  0  0  0
   40.1530   25.1700   41.1100 C   0  0  1  0  0  3  0  0  0  0  0  0
   39.4860   24.3680   42.2300 C   0  0  1  0  0  3  0  0  0  0  0  0
   39.9170   25.2260   43.4070 C   0  0  0  0  0  3  0  0  0  0  0  0
   39.2530   26.1350   43.5120 H   0  0  0  0  0  0  0  0  0  0  0  0
   41.1880   25.7080   43.1210 O   0  0  0  0  0  0  0  0  0  0  0  0
   41.5040   25.3760   41.8100 C   0  0  0  0  0  3  0  0  0  0  0  0
   41.9700   24.3560   41.8450 H   0  0  0  0  0  0  0  0  0  0  0  0
   40.3030   24.4300   39.9530 O   0  0  0  0  0  0  0  0  0  0  0  0
   40.0050   23.4930   40.1650 H   0  0  0  0  0  0  0  0  0  0  0  0
  1  6  1  0  0  0  0
  1 23  1  0  0  0  0
  2  1  2  0  0  0  0
  3  4  2  0  0  0  0
  3  2  1  0  0  0  0
  4  5  1  0  0  0  0
  5  7  1  0  0  0  0
  5  6  2  0  0  0  0
  7  8  1  0  0  0  0
  8 18  1  0  0  0  0
  9  8  2  0  0  0  0
 10  9  1  0  0  0  0
 11 20  1  0  0  0  0
 11 10  2  0  0  0  0
 12 11  1  0  0  0  0
 13 12  2  0  0  0  0
 13 14  1  0  0  0  0
 14 15  2  0  0  0  0
 15 10  1  0  0  0  0
 15  7  1  0  0  0  0
 16  2  1  0  0  0  0
 17  3  1  0  0  0  0
 19 13  1  0  0  0  0
 20 21  1  0  0  0  0
 22 20  1  0  0  0  0
 24 31  1  6  0  0  0
 24 29  1  0  0  0  0
 24 25  1  0  0  0  0
 25 23  1  6  0  0  0
 25 26  1  0  0  0  0
 26 27  1  0  0  0  0
 28 26  1  0  0  0  0
 29 30  1  0  0  0  0
 29 28  1  0  0  0  0
 31 32  1  0  0  0  0
M  END
>  <minimizedAffinity>
-5.61638737

$$$$

 OpenBabel03252504233D

 32 35  0  0  1  0  0  0  0  0999 V2000
   39.2170   31.7930   40.8440 C   0  0  0  0  0  0  0  0  0  0  0  0
   40.5180   32.3120   40.9460 C   0  0  0  0  0  0  0  0  0  0  0  0
   41.5090   31.5270   41.5840 C   0  0  0  0  0  0  0  0  0  0  0  0
   41.1180   30.3070   42.0590 N   0  0  0  0  0  0  0  0  0  0  0  0
   39.8630   29.8430   41.9430 C   0  0  0  0  0  0  0  0  0  0  0  0
   38.9210   30.5900   41.3350 N   0  0  0  0  0  0  0  0  0  0  0  0
   39.5510   28.5600   42.4670 N   0  0  0  0  0  0  0  0  0  0  0  0
   38.4570   28.2360   43.1920 C   0  0  0  0  0  0  0  0  0  0  0  0
   38.5330   26.9070   43.5020 N   0  0  0  0  0  0  0  0  0  0  0  0
   39.6630   26.4480   42.9630 C   0  0  0  0  0  0  0  0  0  0  0  0
   40.2920   25.2190   42.9240 C   0  0  0  0  0  0  0  0  0  0  0  0
   41.4430   25.0110   42.3040 N   0  0  0  0  0  0  0  0  0  0  0  0
   42.0830   26.0110   41.6650 C   0  0  0  0  0  0  0  0  0  0  0  0
   41.4930   27.2100   41.6900 N   0  0  0  0  0  0  0  0  0  0  0  0
   40.3250   27.4660   42.3050 C   0  0  0  0  0  0  0  0  0  0  0  0
   40.7960   33.2620   40.5670 H   0  0  0  0  0  0  0  0  0  0  0  0
   42.5300   31.8860   41.6880 H   0  0  0  0  0  0  0  0  0  0  0  0
   37.6360   28.8650   43.5060 H   0  0  0  0  0  0  0  0  0  0  0  0
   43.0170   25.9000   41.1470 H   0  0  0  0  0  0  0  0  0  0  0  0
   39.7200   24.0830   43.5600 N   0  0  0  0  0  0  0  0  0  0  0  0
   38.6860   23.8770   43.4650 H   0  0  0  0  0  0  0  0  0  0  0  0
   40.3190   23.4640   44.1120 H   0  0  0  0  0  0  0  0  0  0  0  0
   38.0590   32.8760   40.0140 S   0  0  0  0  0  0  0  0  0  0  0  0
   38.4490   31.4080   37.6880 C   0  0  1  0  0  3  0  0  0  0  0  0
   37.3870   32.0850   38.5570 C   0  0  1  0  0  3  0  0  0  0  0  0
   36.5570   30.8590   38.8930 C   0  0  0  0  0  3  0  0  0  0  0  0
   37.0250   30.2680   39.7340 H   0  0  0  0  0  0  0  0  0  0  0  0
   36.5800   30.0290   37.7790 O   0  0  0  0  0  0  0  0  0  0  0  0
   37.4860   30.5430   36.8620 C   0  0  0  0  0  3  0  0  0  0  0  0
   36.9170   31.2710   36.2260 H   0  0  0  0  0  0  0  0  0  0  0  0
   39.1210   32.3080   36.8840 O   0  0  0  0  0  0  0  0  0  0  0  0
   38.6750   33.2000   37.0090 H   0  0  0  0  0  0  0  0  0  0  0  0
  1  2  2  0  0  0  0
  1  6  1  0  0  0  0
  2  3  1  0  0  0  0
  3 17  1  0  0  0  0
  3  4  2  0  0  0  0
  5  4  1  0  0  0  0
  5  7  1  0  0  0  0
  6  5  2  0  0  0  0
  7  8  1  0  0  0  0
  8  9  2  0  0  0  0
  8 18  1  0  0  0  0
 10  9  1  0  0  0  0
 11 10  1  0  0  0  0
 11 20  1  0  0  0  0
 12 11  2  0  0  0  0
 13 14  2  0  0  0  0
 13 12  1  0  0  0  0
 14 15  1  0  0  0  0
 15  7  1  0  0  0  0
 15 10  2  0  0  0  0
 16  2  1  0  0  0  0
 19 13  1  0  0  0  0
 20 22  1  0  0  0  0
 21 20  1  0  0  0  0
 23  1  1  0  0  0  0
 24 31  1  6  0  0  0
 24 25  1  0  0  0  0
 25 26  1  0  0  0  0
 25 23  1  1  0  0  0
 26 27  1  0  0  0  0
 28 26  1  0  0  0  0
 29 24  1  0  0  0  0
 29 28  1  0  0  0  0
 30 29  1  0  0  0  0
 31 32  1  0  0  0  0
M  END
>  <minimizedAffinity>
-5.55835152

$$$$

 OpenBabel03252504233D

 32 35  0  0  1  0  0  0  0  0999 V2000
   37.2140   30.8750   39.7570 C   0  0  0  0  0  0  0  0  0  0  0  0
   36.6980   30.4040   38.5380 C   0  0  0  0  0  0  0  0  0  0  0  0
   37.4050   30.7000   37.3470 C   0  0  0  0  0  0  0  0  0  0  0  0
   38.5520   31.4310   37.4770 N   0  0  0  0  0  0  0  0  0  0  0  0
   39.0150   31.8650   38.6610 C   0  0  0  0  0  0  0  0  0  0  0  0
   38.3420   31.5820   39.7930 N   0  0  0  0  0  0  0  0  0  0  0  0
   40.2190   32.6180   38.6970 N   0  0  0  0  0  0  0  0  0  0  0  0
   40.4390   33.7420   39.4140 C   0  0  0  0  0  0  0  0  0  0  0  0
   41.7180   34.1560   39.1730 N   0  0  0  0  0  0  0  0  0  0  0  0
   42.2520   33.2820   38.3180 C   0  0  0  0  0  0  0  0  0  0  0  0
   43.4820   33.1510   37.7040 C   0  0  0  0  0  0  0  0  0  0  0  0
   43.7780   32.1660   36.8710 N   0  0  0  0  0  0  0  0  0  0  0  0
   42.8730   31.2140   36.5670 C   0  0  0  0  0  0  0  0  0  0  0  0
   41.6750   31.3210   37.1490 N   0  0  0  0  0  0  0  0  0  0  0  0
   41.3320   32.3030   38.0000 C   0  0  0  0  0  0  0  0  0  0  0  0
   35.8060   29.8370   38.4650 H   0  0  0  0  0  0  0  0  0  0  0  0
   37.0460   30.3580   36.3800 H   0  0  0  0  0  0  0  0  0  0  0  0
   39.7670   34.2700   40.0770 H   0  0  0  0  0  0  0  0  0  0  0  0
   43.0570   30.3940   35.8990 H   0  0  0  0  0  0  0  0  0  0  0  0
   44.5240   34.0900   37.9420 N   0  0  0  0  0  0  0  0  0  0  0  0
   44.7310   34.4270   38.9240 H   0  0  0  0  0  0  0  0  0  0  0  0
   45.0740   34.4380   37.1530 H   0  0  0  0  0  0  0  0  0  0  0  0
   36.2330   30.4320   41.1870 S   0  0  0  0  0  0  0  0  0  0  0  0
   37.6760   28.0590   41.2200 C   0  0  1  0  0  3  0  0  0  0  0  0
   37.0190   29.1160   42.1090 C   0  0  1  0  0  3  0  0  0  0  0  0
   38.2580   29.5870   42.8510 C   0  0  0  0  0  3  0  0  0  0  0  0
   38.8500   30.3200   42.2290 H   0  0  0  0  0  0  0  0  0  0  0  0
   39.0770   28.4790   43.0260 O   0  0  0  0  0  0  0  0  0  0  0  0
   38.5450   27.4150   42.3110 C   0  0  0  0  0  3  0  0  0  0  0  0
   37.8180   26.9040   42.9950 H   0  0  0  0  0  0  0  0  0  0  0  0
   36.7610   27.1530   40.7180 O   0  0  0  0  0  0  0  0  0  0  0  0
   35.8750   27.3690   41.1410 H   0  0  0  0  0  0  0  0  0  0  0  0
  1  6  1  0  0  0  0
  1 23  1  0  0  0  0
  2  1  2  0  0  0  0
  3  4  2  0  0  0  0
  3  2  1  0  0  0  0
  4  5  1  0  0  0  0
  5  7  1  0  0  0  0
  5  6  2  0  0  0  0
  7  8  1  0  0  0  0
  8 18  1  0  0  0  0
  9  8  2  0  0  0  0
 10  9  1  0  0  0  0
 11 20  1  0  0  0  0
 11 10  2  0  0  0  0
 12 11  1  0  0  0  0
 13 12  2  0  0  0  0
 13 14  1  0  0  0  0
 14 15  2  0  0  0  0
 15 10  1  0  0  0  0
 15  7  1  0  0  0  0
 16  2  1  0  0  0  0
 17  3  1  0  0  0  0
 19 13  1  0  0  0  0
 20 21  1  0  0  0  0
 22 20  1  0  0  0  0
 24 31  1  1  0  0  0
 24 25  1  0  0  0  0
 24 29  1  0  0  0  0
 25 23  1  6  0  0  0
 25 26  1  0  0  0  0
 26 28  1  0  0  0  0
 27 26  1  0  0  0  0
 29 30  1  0  0  0  0
 29 28  1  0  0  0  0
 31 32  1  0  0  0  0
M  END
>  <minimizedAffinity>
-5.48962593

$$$$

 OpenBabel03252504233D

 32 35  0  0  1  0  0  0  0  0999 V2000
   39.8310   31.2730   40.1180 C   0  0  0  0  0  0  0  0  0  0  0  0
   40.1470   31.8810   41.3450 C   0  0  0  0  0  0  0  0  0  0  0  0
   39.9800   31.1290   42.5330 C   0  0  0  0  0  0  0  0  0  0  0  0
   39.5180   29.8510   42.3940 N   0  0  0  0  0  0  0  0  0  0  0  0
   39.2270   29.3010   41.2030 C   0  0  0  0  0  0  0  0  0  0  0  0
   39.3860   30.0180   40.0730 N   0  0  0  0  0  0  0  0  0  0  0  0
   38.7540   27.9630   41.1580 N   0  0  0  0  0  0  0  0  0  0  0  0
   37.7230   27.5030   40.4140 C   0  0  0  0  0  0  0  0  0  0  0  0
   37.5910   26.1650   40.6550 N   0  0  0  0  0  0  0  0  0  0  0  0
   38.5370   25.8350   41.5360 C   0  0  0  0  0  0  0  0  0  0  0  0
   38.9160   24.6640   42.1620 C   0  0  0  0  0  0  0  0  0  0  0  0
   39.9200   24.5910   43.0220 N   0  0  0  0  0  0  0  0  0  0  0  0
   40.6440   25.6820   43.3430 C   0  0  0  0  0  0  0  0  0  0  0  0
   40.2950   26.8270   42.7490 N   0  0  0  0  0  0  0  0  0  0  0  0
   39.2850   26.9470   41.8700 C   0  0  0  0  0  0  0  0  0  0  0  0
   40.5050   32.8750   41.4250 H   0  0  0  0  0  0  0  0  0  0  0  0
   40.2100   31.5560   43.5060 H   0  0  0  0  0  0  0  0  0  0  0  0
   37.0800   28.0420   39.7330 H   0  0  0  0  0  0  0  0  0  0  0  0
   41.4670   25.6810   44.0330 H   0  0  0  0  0  0  0  0  0  0  0  0
   38.2320   23.4430   41.9080 N   0  0  0  0  0  0  0  0  0  0  0  0
   37.9740   23.1660   40.9200 H   0  0  0  0  0  0  0  0  0  0  0  0
   37.9910   22.8320   42.6930 H   0  0  0  0  0  0  0  0  0  0  0  0
   40.0880   32.3230   38.6920 S   0  0  0  0  0  0  0  0  0  0  0  0
   42.5810   33.1150   37.7580 C   0  0  1  0  0  3  0  0  0  0  0  0
   41.6310   31.9220   37.8820 C   0  0  1  0  0  3  0  0  0  0  0  0
   42.5130   31.0200   38.7260 C   0  0  0  0  0  3  0  0  0  0  0  0
   42.4660   31.3100   39.8170 H   0  0  0  0  0  0  0  0  0  0  0  0
   43.8250   31.2360   38.3260 O   0  0  0  0  0  0  0  0  0  0  0  0
   43.8500   32.3080   37.4450 C   0  0  0  0  0  3  0  0  0  0  0  0
   43.6770   31.8830   36.4220 H   0  0  0  0  0  0  0  0  0  0  0  0
   42.2490   33.9440   36.7040 O   0  0  0  0  0  0  0  0  0  0  0  0
   41.4930   33.5000   36.2110 H   0  0  0  0  0  0  0  0  0  0  0  0
  1  2  1  0  0  0  0
  2 16  1  0  0  0  0
  2  3  2  0  0  0  0
  3 17  1  0  0  0  0
  4  3  1  0  0  0  0
  5  4  2  0  0  0  0
  6  1  2  0  0  0  0
  6  5  1  0  0  0  0
  7  5  1  0  0  0  0
  7 15  1  0  0  0  0
  8  9  2  0  0  0  0
  8  7  1  0  0  0  0
  9 10  1  0  0  0  0
 10 15  2  0  0  0  0
 10 11  1  0  0  0  0
 11 12  2  0  0  0  0
 12 13  1  0  0  0  0
 13 19  1  0  0  0  0
 14 13  2  0  0  0  0
 15 14  1  0  0  0  0
 18  8  1  0  0  0  0
 20 11  1  0  0  0  0
 20 22  1  0  0  0  0
 21 20  1  0  0  0  0
 23  1  1  0  0  0  0
 24 31  1  6  0  0  0
 24 25  1  0  0  0  0
 25 23  1  1  0  0  0
 25 26  1  0  0  0  0
 26 27  1  0  0  0  0
 28 26  1  0  0  0  0
 29 24  1  0  0  0  0
 29 28  1  0  0  0  0
 30 29  1  0  0  0  0
 32 31  1  0  0  0  0
M  END
>  <minimizedAffinity>
-5.4848814

$$$$

 OpenBabel03252504233D

 32 35  0  0  1  0  0  0  0  0999 V2000
   40.4620   32.8640   39.2160 C   0  0  0  0  0  0  0  0  0  0  0  0
   39.7640   33.8660   39.9110 C   0  0  0  0  0  0  0  0  0  0  0  0
   38.6340   33.4930   40.6770 C   0  0  0  0  0  0  0  0  0  0  0  0
   38.3040   32.1670   40.6830 N   0  0  0  0  0  0  0  0  0  0  0  0
   38.9960   31.2350   40.0060 C   0  0  0  0  0  0  0  0  0  0  0  0
   40.0710   31.5920   39.2770 N   0  0  0  0  0  0  0  0  0  0  0  0
   38.5770   29.8800   40.0750 N   0  0  0  0  0  0  0  0  0  0  0  0
   38.4830   29.0180   39.0380 C   0  0  0  0  0  0  0  0  0  0  0  0
   38.0450   27.8180   39.5220 N   0  0  0  0  0  0  0  0  0  0  0  0
   37.8810   27.9690   40.8370 C   0  0  0  0  0  0  0  0  0  0  0  0
   37.4700   27.1440   41.8660 C   0  0  0  0  0  0  0  0  0  0  0  0
   37.3900   27.5400   43.1270 N   0  0  0  0  0  0  0  0  0  0  0  0
   37.7120   28.7990   43.4860 C   0  0  0  0  0  0  0  0  0  0  0  0
   38.1130   29.6150   42.5060 N   0  0  0  0  0  0  0  0  0  0  0  0
   38.2090   29.2570   41.2140 C   0  0  0  0  0  0  0  0  0  0  0  0
   40.0420   34.8880   39.8900 H   0  0  0  0  0  0  0  0  0  0  0  0
   38.0600   34.2310   41.2310 H   0  0  0  0  0  0  0  0  0  0  0  0
   38.6980   29.1840   37.9910 H   0  0  0  0  0  0  0  0  0  0  0  0
   37.6660   29.1730   44.4910 H   0  0  0  0  0  0  0  0  0  0  0  0
   37.1030   25.7930   41.6200 N   0  0  0  0  0  0  0  0  0  0  0  0
   37.6910   25.1830   40.9850 H   0  0  0  0  0  0  0  0  0  0  0  0
   36.2630   25.4130   42.0640 H   0  0  0  0  0  0  0  0  0  0  0  0
   41.8710   33.4620   38.2890 S   0  0  0  0  0  0  0  0  0  0  0  0
   42.5130   31.3870   36.5560 C   0  0  1  0  0  3  0  0  0  0  0  0
   42.9480   32.1080   37.8340 C   0  0  1  0  0  3  0  0  0  0  0  0
   44.3130   32.5830   37.3690 C   0  0  0  0  0  3  0  0  0  0  0  0
   44.2270   33.5180   36.7400 H   0  0  0  0  0  0  0  0  0  0  0  0
   44.8270   31.6010   36.5310 O   0  0  0  0  0  0  0  0  0  0  0  0
   43.8380   30.6560   36.2960 C   0  0  0  0  0  3  0  0  0  0  0  0
   43.9180   29.9010   37.1220 H   0  0  0  0  0  0  0  0  0  0  0  0
   41.4880   30.4890   36.7840 O   0  0  0  0  0  0  0  0  0  0  0  0
   41.3340   30.4680   37.7770 H   0  0  0  0  0  0  0  0  0  0  0  0
  1  6  2  0  0  0  0
  1  2  1  0  0  0  0
  2  3  2  0  0  0  0
  3  4  1  0  0  0  0
  3 17  1  0  0  0  0
  5  7  1  0  0  0  0
  5  4  2  0  0  0  0
  6  5  1  0  0  0  0
  7 15  1  0  0  0  0
  8  9  2  0  0  0  0
  8  7  1  0  0  0  0
  9 10  1  0  0  0  0
 10 15  2  0  0  0  0
 10 11  1  0  0  0  0
 11 12  2  0  0  0  0
 12 13  1  0  0  0  0
 13 19  1  0  0  0  0
 14 13  2  0  0  0  0
 15 14  1  0  0  0  0
 16  2  1  0  0  0  0
 18  8  1  0  0  0  0
 20 11  1  0  0  0  0
 20 22  1  0  0  0  0
 21 20  1  0  0  0  0
 23  1  1  0  0  0  0
 24 31  1  1  0  0  0
 24 25  1  0  0  0  0
 25 23  1  6  0  0  0
 26 25  1  0  0  0  0
 27 26  1  0  0  0  0
 28 26  1  0  0  0  0
 29 28  1  0  0  0  0
 29 24  1  0  0  0  0
 29 30  1  0  0  0  0
 31 32  1  0  0  0  0
M  END
>  <minimizedAffinity>
-5.36859179

$$$$
