
 OpenBabel03252506453D

 42 45  0  0  1  0  0  0  0  0999 V2000
   49.5670   33.5270   41.4420 N   0  0  1  0  0  0  0  0  0  0  0  0
   50.7410   33.1640   42.2090 C   0  0  0  0  0  0  0  0  0  0  0  0
   51.3360   31.8550   41.7720 C   0  0  0  0  0  0  0  0  0  0  0  0
   50.3650   30.7590   42.1720 C   0  0  0  0  0  0  0  0  0  0  0  0
   48.9390   31.2020   41.9330 C   0  0  0  0  0  0  0  0  0  0  0  0
   48.9320   32.3430   40.9530 C   0  0  2  0  0  0  0  0  0  0  0  0
   51.4600   34.0000   42.2620 H   0  0  0  0  0  0  0  0  0  0  0  0
   50.3860   32.9930   43.2640 H   0  0  0  0  0  0  0  0  0  0  0  0
   52.2670   31.7220   42.3750 H   0  0  0  0  0  0  0  0  0  0  0  0
   51.6420   31.8030   40.7260 H   0  0  0  0  0  0  0  0  0  0  0  0
   50.5300   30.4890   43.2440 H   0  0  0  0  0  0  0  0  0  0  0  0
   50.5760   29.8730   41.5800 H   0  0  0  0  0  0  0  0  0  0  0  0
   48.6340   31.6780   42.9170 H   0  0  0  0  0  0  0  0  0  0  0  0
   48.2180   30.4220   41.7700 H   0  0  0  0  0  0  0  0  0  0  0  0
   47.8390   32.6440   40.9360 H   0  0  0  0  0  0  0  0  0  0  0  0
   47.3510   34.7320   41.9790 C   0  0  1  0  0  0  0  0  0  0  0  0
   48.4420   35.7170   41.7770 C   0  0  0  0  0  0  0  0  0  0  0  0
   48.7620   34.3610   42.2620 C   0  0  2  0  0  0  0  0  0  0  0  0
   46.9060   34.3100   41.0400 H   0  0  0  0  0  0  0  0  0  0  0  0
   48.7800   36.0270   40.7770 H   0  0  0  0  0  0  0  0  0  0  0  0
   48.5440   36.5330   42.5350 H   0  0  0  0  0  0  0  0  0  0  0  0
   48.9670   34.2230   43.3630 H   0  0  0  0  0  0  0  0  0  0  0  0
   45.5570   36.0570   43.1390 C   0  0  0  0  0  0  0  0  0  0  0  0
   46.4060   34.9370   43.0760 C   0  0  0  0  0  0  0  0  0  0  0  0
   46.2980   33.9980   44.1270 C   0  0  0  0  0  0  0  0  0  0  0  0
   45.4010   34.2170   45.1230 N   0  0  0  0  0  0  0  0  0  0  0  0
   44.6050   35.3070   45.1450 C   0  0  0  0  0  0  0  0  0  0  0  0
   44.6740   36.2380   44.1530 N   0  0  0  0  0  0  0  0  0  0  0  0
   45.6390   36.7760   42.3370 H   0  0  0  0  0  0  0  0  0  0  0  0
   46.9310   33.1240   44.1180 H   0  0  0  0  0  0  0  0  0  0  0  0
   43.8810   35.5050   45.9260 H   0  0  0  0  0  0  0  0  0  0  0  0
   49.3940   31.9310   39.6870 N   0  0  0  0  0  0  0  0  0  0  0  0
   50.4070   32.0820   39.5950 H   0  0  0  0  0  0  0  0  0  0  0  0
   48.1960   33.3670   38.0670 C   0  0  1  0  0  3  0  0  0  0  0  0
   48.7000   32.0270   38.5090 C   0  0  2  0  0  3  0  0  0  0  0  0
   47.4990   31.1730   38.2590 C   0  0  0  0  0  3  0  0  0  0  0  0
   47.4680   30.2560   38.8490 H   0  0  0  0  0  0  0  0  0  0  0  0
   46.3790   31.9850   38.3490 O   0  0  0  0  0  0  0  0  0  0  0  0
   46.7450   33.2940   38.4640 C   0  0  0  0  0  3  0  0  0  0  0  0
   46.5010   33.6730   39.4510 H   0  0  0  0  0  0  0  0  0  0  0  0
   48.8650   34.4600   38.5210 O   0  0  0  0  0  0  0  0  0  0  0  0
   48.2280   35.0260   39.0570 H   0  0  0  0  0  0  0  0  0  0  0  0
  1  2  1  1  0  0  0
  1 18  1  0  0  0  0
  2  7  1  0  0  0  0
  2  8  1  0  0  0  0
  3  4  1  0  0  0  0
  3  2  1  0  0  0  0
  3  9  1  0  0  0  0
  4 11  1  0  0  0  0
  5  4  1  0  0  0  0
  5 13  1  0  0  0  0
  6 15  1  6  0  0  0
  6  1  1  0  0  0  0
  6  5  1  0  0  0  0
 10  3  1  0  0  0  0
 12  4  1  0  0  0  0
 14  5  1  0  0  0  0
 16 19  1  6  0  0  0
 16 18  1  0  0  0  0
 16 24  1  0  0  0  0
 17 16  1  0  0  0  0
 17 18  1  0  0  0  0
 17 21  1  0  0  0  0
 18 22  1  1  0  0  0
 20 17  1  0  0  0  0
 23 28  1  0  0  0  0
 24 23  2  0  0  0  0
 24 25  1  0  0  0  0
 25 26  2  0  0  0  0
 26 27  1  0  0  0  0
 27 31  1  0  0  0  0
 28 27  2  0  0  0  0
 29 23  1  0  0  0  0
 30 25  1  0  0  0  0
 32  6  1  0  0  0  0
 33 32  1  0  0  0  0
 34 39  1  0  0  0  0
 34 35  1  0  0  0  0
 34 41  1  1  0  0  0
 35 32  1  1  0  0  0
 36 38  1  0  0  0  0
 36 35  1  0  0  0  0
 36 37  1  0  0  0  0
 38 39  1  0  0  0  0
 39 40  1  0  0  0  0
 41 42  1  0  0  0  0
M  END
>  <minimizedAffinity>
-5.21254492

>  <minimizedRMSD>
1.994591

$$$$
