
 OpenBabel03242515283D

 32 34  0  0  1  0  0  0  0  0999 V2000
   44.6760   35.7550   43.1160 C   0  0  0  0  0  0  0  0  0  0  0  0
   44.2430   34.9020   42.0720 C   0  0  0  0  0  0  0  0  0  0  0  0
   44.4720   33.5460   42.2410 C   0  0  0  0  0  0  0  0  0  0  0  0
   45.0770   33.1050   43.3530 N   0  0  0  0  0  0  0  0  0  0  0  0
   45.4710   33.9750   44.3230 C   0  0  0  0  0  0  0  0  0  0  0  0
   45.2840   35.3100   44.2340 N   0  0  0  0  0  0  0  0  0  0  0  0
   44.5240   36.8190   43.0400 H   0  0  0  0  0  0  0  0  0  0  0  0
   44.1330   32.9160   41.4320 H   0  0  0  0  0  0  0  0  0  0  0  0
   43.6070   35.5490   40.9180 C   0  0  0  0  0  0  0  0  0  0  0  0
   43.6910   36.6300   40.9720 H   0  0  0  0  0  0  0  0  0  0  0  0
   44.2180   35.2550   40.0140 H   0  0  0  0  0  0  0  0  0  0  0  0
   42.2640   35.0320   40.7960 N   0  0  0  0  0  0  0  0  0  0  0  0
   41.3480   35.2770   41.7210 C   0  0  0  0  0  0  0  0  0  0  0  0
   40.0890   34.7550   41.5470 C   0  0  0  0  0  0  0  0  0  0  0  0
   39.7610   33.9950   40.4490 C   0  0  0  0  0  0  0  0  0  0  0  0
   38.6060   33.5420   40.3340 O   0  0  0  0  0  0  0  0  0  0  0  0
   40.7130   33.7620   39.5240 N   0  0  0  0  0  0  0  0  0  0  0  0
   41.9560   34.2750   39.6930 C   0  0  0  0  0  0  0  0  0  0  0  0
   42.8060   34.0200   38.7860 O   0  0  0  0  0  0  0  0  0  0  0  0
   41.5540   35.8660   42.5990 H   0  0  0  0  0  0  0  0  0  0  0  0
   39.3360   34.9510   42.2980 H   0  0  0  0  0  0  0  0  0  0  0  0
   40.4870   33.1860   38.6790 H   0  0  0  0  0  0  0  0  0  0  0  0
   46.1010   33.4930   45.4600 O   0  0  0  0  0  0  0  0  0  0  0  0
   45.3230   32.5260   47.5920 C   0  0  1  0  0  0  0  0  0  0  0  0
   45.8320   32.4020   46.2210 C   0  0  2  0  0  0  0  0  0  0  0  0
   47.1220   31.6260   46.4340 C   0  0  0  0  0  0  0  0  0  0  0  0
   47.9130   31.9750   45.7110 H   0  0  0  0  0  0  0  0  0  0  0  0
   47.5920   31.9820   47.6870 O   0  0  0  0  0  0  0  0  0  0  0  0
   46.5350   32.4270   48.4540 C   0  0  0  0  0  0  0  0  0  0  0  0
   46.4150   31.6830   49.2930 H   0  0  0  0  0  0  0  0  0  0  0  0
   44.5030   33.6040   47.8530 O   0  0  0  0  0  0  0  0  0  0  0  0
   43.6130   33.4170   47.4800 H   0  0  0  0  0  0  0  0  0  0  0  0
  1  6  1  0  0  0  0
  2  3  1  0  0  0  0
  2  1  2  0  0  0  0
  3  4  2  0  0  0  0
  4  5  1  0  0  0  0
  5 23  1  0  0  0  0
  6  5  2  0  0  0  0
  7  1  1  0  0  0  0
  8  3  1  0  0  0  0
  9 10  1  0  0  0  0
  9  2  1  0  0  0  0
 11  9  1  0  0  0  0
 12  9  1  0  0  0  0
 12 13  1  0  0  0  0
 13 20  1  0  0  0  0
 14 13  2  0  0  0  0
 14 21  1  0  0  0  0
 15 14  1  0  0  0  0
 16 15  2  0  0  0  0
 17 18  1  0  0  0  0
 17 15  1  0  0  0  0
 18 12  1  0  0  0  0
 19 18  2  0  0  0  0
 22 17  1  0  0  0  0
 24 31  1  6  0  0  0
 24 29  1  0  0  0  0
 25 23  1  1  0  0  0
 25 26  1  0  0  0  0
 25 24  1  0  0  0  0
 26 28  1  0  0  0  0
 27 26  1  0  0  0  0
 28 29  1  0  0  0  0
 29 30  1  0  0  0  0
 32 31  1  0  0  0  0
M  END
>  <minimizedAffinity>
-5.82175398

>  <minimizedRMSD>
1.88336372

$$$$
