
 OpenBabel03252506453D

 42 45  0  0  1  0  0  0  0  0999 V2000
   49.3650   33.3190   41.3820 N   0  0  1  0  0  0  0  0  0  0  0  0
   50.6290   33.0500   42.0380 C   0  0  0  0  0  0  0  0  0  0  0  0
   51.2030   31.7140   41.6600 C   0  0  0  0  0  0  0  0  0  0  0  0
   50.3140   30.6480   42.2720 C   0  0  0  0  0  0  0  0  0  0  0  0
   48.8590   31.0440   42.1610 C   0  0  0  0  0  0  0  0  0  0  0  0
   48.7090   32.0840   41.0850 C   0  0  2  0  0  0  0  0  0  0  0  0
   51.3270   33.8980   41.9280 H   0  0  0  0  0  0  0  0  0  0  0  0
   50.4020   32.9770   43.1380 H   0  0  0  0  0  0  0  0  0  0  0  0
   52.2010   31.6530   42.1610 H   0  0  0  0  0  0  0  0  0  0  0  0
   51.3880   31.5650   40.5950 H   0  0  0  0  0  0  0  0  0  0  0  0
   50.6070   30.4850   43.3380 H   0  0  0  0  0  0  0  0  0  0  0  0
   50.4780   29.7110   41.7470 H   0  0  0  0  0  0  0  0  0  0  0  0
   48.6560   31.6080   43.1250 H   0  0  0  0  0  0  0  0  0  0  0  0
   48.1440   30.2410   42.1580 H   0  0  0  0  0  0  0  0  0  0  0  0
   47.6140   32.3650   41.1670 H   0  0  0  0  0  0  0  0  0  0  0  0
   47.2670   34.7160   41.9290 C   0  0  1  0  0  0  0  0  0  0  0  0
   48.4420   35.5990   41.7330 C   0  0  0  0  0  0  0  0  0  0  0  0
   48.6380   34.2170   42.2090 C   0  0  2  0  0  0  0  0  0  0  0  0
   46.7860   34.3430   40.9870 H   0  0  0  0  0  0  0  0  0  0  0  0
   48.8080   35.8850   40.7360 H   0  0  0  0  0  0  0  0  0  0  0  0
   48.6170   36.3980   42.4970 H   0  0  0  0  0  0  0  0  0  0  0  0
   48.8290   34.0530   43.3090 H   0  0  0  0  0  0  0  0  0  0  0  0
   45.5590   36.1650   43.0710 C   0  0  0  0  0  0  0  0  0  0  0  0
   46.3430   34.9970   43.0270 C   0  0  0  0  0  0  0  0  0  0  0  0
   46.1910   34.0880   44.0990 C   0  0  0  0  0  0  0  0  0  0  0  0
   45.3150   34.3790   45.0960 N   0  0  0  0  0  0  0  0  0  0  0  0
   44.5820   35.5130   45.0990 C   0  0  0  0  0  0  0  0  0  0  0  0
   44.6960   36.4170   44.0860 N   0  0  0  0  0  0  0  0  0  0  0  0
   45.6760   36.8610   42.2530 H   0  0  0  0  0  0  0  0  0  0  0  0
   46.7730   33.1790   44.1050 H   0  0  0  0  0  0  0  0  0  0  0  0
   43.8760   35.7680   45.8800 H   0  0  0  0  0  0  0  0  0  0  0  0
   49.0330   31.5580   39.8180 N   0  0  0  0  0  0  0  0  0  0  0  0
   49.5680   32.2380   39.2610 H   0  0  0  0  0  0  0  0  0  0  0  0
   48.9120   29.6720   38.2220 C   0  0  1  0  0  3  0  0  0  0  0  0
   48.2520   30.7110   39.0770 C   0  0  2  0  0  3  0  0  0  0  0  0
   47.2260   31.2480   38.1330 C   0  0  0  0  0  3  0  0  0  0  0  0
   46.8830   32.2570   38.3670 H   0  0  0  0  0  0  0  0  0  0  0  0
   47.6990   31.0570   36.8430 O   0  0  0  0  0  0  0  0  0  0  0  0
   48.8380   30.3070   36.8580 C   0  0  0  0  0  3  0  0  0  0  0  0
   49.6920   30.9070   36.5630 H   0  0  0  0  0  0  0  0  0  0  0  0
   50.1510   29.2570   38.5990 O   0  0  0  0  0  0  0  0  0  0  0  0
   50.7990   29.4680   37.8570 H   0  0  0  0  0  0  0  0  0  0  0  0
  1  2  1  1  0  0  0
  1 18  1  0  0  0  0
  2  8  1  0  0  0  0
  3  2  1  0  0  0  0
  3  9  1  0  0  0  0
  3  4  1  0  0  0  0
  4 11  1  0  0  0  0
  5  4  1  0  0  0  0
  5 13  1  0  0  0  0
  6 15  1  6  0  0  0
  6  1  1  0  0  0  0
  6  5  1  0  0  0  0
  7  2  1  0  0  0  0
 10  3  1  0  0  0  0
 12  4  1  0  0  0  0
 14  5  1  0  0  0  0
 16 19  1  6  0  0  0
 16 18  1  0  0  0  0
 16 24  1  0  0  0  0
 17 16  1  0  0  0  0
 17 18  1  0  0  0  0
 17 21  1  0  0  0  0
 18 22  1  1  0  0  0
 20 17  1  0  0  0  0
 23 28  1  0  0  0  0
 24 23  2  0  0  0  0
 24 25  1  0  0  0  0
 25 30  1  0  0  0  0
 25 26  2  0  0  0  0
 26 27  1  0  0  0  0
 27 31  1  0  0  0  0
 28 27  2  0  0  0  0
 29 23  1  0  0  0  0
 32  6  1  0  0  0  0
 33 32  1  0  0  0  0
 34 41  1  1  0  0  0
 34 35  1  0  0  0  0
 35 32  1  6  0  0  0
 36 37  1  0  0  0  0
 36 35  1  0  0  0  0
 38 39  1  0  0  0  0
 38 36  1  0  0  0  0
 39 34  1  0  0  0  0
 40 39  1  0  0  0  0
 42 41  1  0  0  0  0
M  END
>  <minimizedAffinity>
-4.5644908

>  <minimizedRMSD>
0.473699272

$$$$
