
 OpenBabel03252506453D

 42 45  0  0  1  0  0  0  0  0999 V2000
   49.4490   33.3530   41.3280 N   0  0  1  0  0  0  0  0  0  0  0  0
   50.7000   33.0840   42.0080 C   0  0  0  0  0  0  0  0  0  0  0  0
   51.3020   31.7660   41.6130 C   0  0  0  0  0  0  0  0  0  0  0  0
   50.4120   30.6730   42.1790 C   0  0  0  0  0  0  0  0  0  0  0  0
   48.9550   31.0530   42.0400 C   0  0  0  0  0  0  0  0  0  0  0  0
   48.8180   32.1170   40.9860 C   0  0  2  0  0  0  0  0  0  0  0  0
   51.3890   33.9430   41.9360 H   0  0  0  0  0  0  0  0  0  0  0  0
   50.4470   32.9820   43.1010 H   0  0  0  0  0  0  0  0  0  0  0  0
   52.2870   31.7060   42.1370 H   0  0  0  0  0  0  0  0  0  0  0  0
   51.5150   31.6440   40.5500 H   0  0  0  0  0  0  0  0  0  0  0  0
   50.6820   30.4890   43.2470 H   0  0  0  0  0  0  0  0  0  0  0  0
   50.6020   29.7520   41.6350 H   0  0  0  0  0  0  0  0  0  0  0  0
   48.7210   31.5910   43.0120 H   0  0  0  0  0  0  0  0  0  0  0  0
   48.2510   30.2410   42.0010 H   0  0  0  0  0  0  0  0  0  0  0  0
   47.7170   32.3820   41.0470 H   0  0  0  0  0  0  0  0  0  0  0  0
   47.2830   34.6270   41.9070 C   0  0  1  0  0  0  0  0  0  0  0  0
   48.3940   35.5780   41.6600 C   0  0  0  0  0  0  0  0  0  0  0  0
   48.6900   34.2210   42.1570 C   0  0  2  0  0  0  0  0  0  0  0  0
   46.8000   34.2040   40.9870 H   0  0  0  0  0  0  0  0  0  0  0  0
   48.7130   35.8640   40.6470 H   0  0  0  0  0  0  0  0  0  0  0  0
   48.5390   36.4020   42.4030 H   0  0  0  0  0  0  0  0  0  0  0  0
   48.9210   34.0930   43.2540 H   0  0  0  0  0  0  0  0  0  0  0  0
   45.5520   36.0140   43.0900 C   0  0  0  0  0  0  0  0  0  0  0  0
   46.3740   34.8730   43.0250 C   0  0  0  0  0  0  0  0  0  0  0  0
   46.2750   33.9570   44.0970 C   0  0  0  0  0  0  0  0  0  0  0  0
   45.4120   34.2150   45.1140 N   0  0  0  0  0  0  0  0  0  0  0  0
   44.6410   35.3230   45.1370 C   0  0  0  0  0  0  0  0  0  0  0  0
   44.7030   36.2340   44.1250 N   0  0  0  0  0  0  0  0  0  0  0  0
   45.6270   36.7150   42.2730 H   0  0  0  0  0  0  0  0  0  0  0  0
   46.8880   33.0690   44.0880 H   0  0  0  0  0  0  0  0  0  0  0  0
   43.9440   35.5530   45.9340 H   0  0  0  0  0  0  0  0  0  0  0  0
   49.1800   31.6250   39.7150 N   0  0  0  0  0  0  0  0  0  0  0  0
   50.2020   31.5500   39.6250 H   0  0  0  0  0  0  0  0  0  0  0  0
   49.1650   32.7970   37.5360 C   0  0  1  0  0  3  0  0  0  0  0  0
   48.5270   31.8840   38.5390 C   0  0  2  0  0  3  0  0  0  0  0  0
   47.1240   32.3980   38.5420 C   0  0  0  0  0  3  0  0  0  0  0  0
   46.5620   32.1730   39.4500 H   0  0  0  0  0  0  0  0  0  0  0  0
   47.1640   33.7350   38.1770 O   0  0  0  0  0  0  0  0  0  0  0  0
   48.4210   34.0850   37.7800 C   0  0  0  0  0  3  0  0  0  0  0  0
   48.8700   34.7670   38.4930 H   0  0  0  0  0  0  0  0  0  0  0  0
   50.5210   32.8980   37.5670 O   0  0  0  0  0  0  0  0  0  0  0  0
   50.7660   33.8560   37.7550 H   0  0  0  0  0  0  0  0  0  0  0  0
  1  2  1  1  0  0  0
  1 18  1  0  0  0  0
  2  8  1  0  0  0  0
  3  2  1  0  0  0  0
  3  9  1  0  0  0  0
  3  4  1  0  0  0  0
  4 11  1  0  0  0  0
  5  4  1  0  0  0  0
  5 13  1  0  0  0  0
  6 15  1  6  0  0  0
  6  1  1  0  0  0  0
  6  5  1  0  0  0  0
  7  2  1  0  0  0  0
 10  3  1  0  0  0  0
 12  4  1  0  0  0  0
 14  5  1  0  0  0  0
 16 19  1  6  0  0  0
 16 18  1  0  0  0  0
 16 24  1  0  0  0  0
 17 16  1  0  0  0  0
 17 18  1  0  0  0  0
 17 21  1  0  0  0  0
 18 22  1  1  0  0  0
 20 17  1  0  0  0  0
 23 28  1  0  0  0  0
 24 23  2  0  0  0  0
 24 25  1  0  0  0  0
 25 26  2  0  0  0  0
 26 27  1  0  0  0  0
 27 31  1  0  0  0  0
 28 27  2  0  0  0  0
 29 23  1  0  0  0  0
 30 25  1  0  0  0  0
 32  6  1  0  0  0  0
 33 32  1  0  0  0  0
 34 41  1  1  0  0  0
 34 39  1  0  0  0  0
 34 35  1  0  0  0  0
 35 36  1  0  0  0  0
 35 32  1  1  0  0  0
 36 37  1  0  0  0  0
 38 36  1  0  0  0  0
 39 38  1  0  0  0  0
 39 40  1  0  0  0  0
 41 42  1  0  0  0  0
M  END
>  <minimizedAffinity>
-5.54507446

>  <minimizedRMSD>
2.03780603

$$$$
