
 OpenBabel03252506453D

 42 45  0  0  1  0  0  0  0  0999 V2000
   49.3470   33.3390   41.2620 N   0  0  1  0  0  0  0  0  0  0  0  0
   50.6080   33.0060   41.8940 C   0  0  0  0  0  0  0  0  0  0  0  0
   51.1610   31.6910   41.4230 C   0  0  0  0  0  0  0  0  0  0  0  0
   50.2580   30.5980   41.9640 C   0  0  0  0  0  0  0  0  0  0  0  0
   48.8080   31.0230   41.8840 C   0  0  0  0  0  0  0  0  0  0  0  0
   48.6720   32.1360   40.8830 C   0  0  2  0  0  0  0  0  0  0  0  0
   51.3180   33.8490   41.8400 H   0  0  0  0  0  0  0  0  0  0  0  0
   50.3820   32.8610   42.9880 H   0  0  0  0  0  0  0  0  0  0  0  0
   52.1590   31.5820   41.9160 H   0  0  0  0  0  0  0  0  0  0  0  0
   51.3420   31.6130   40.3500 H   0  0  0  0  0  0  0  0  0  0  0  0
   50.5510   30.3590   43.0150 H   0  0  0  0  0  0  0  0  0  0  0  0
   50.4070   29.6980   41.3740 H   0  0  0  0  0  0  0  0  0  0  0  0
   48.6160   31.5220   42.8850 H   0  0  0  0  0  0  0  0  0  0  0  0
   48.0820   30.2320   41.8280 H   0  0  0  0  0  0  0  0  0  0  0  0
   47.5820   32.4280   40.9870 H   0  0  0  0  0  0  0  0  0  0  0  0
   47.2620   34.7070   41.9200 C   0  0  1  0  0  0  0  0  0  0  0  0
   48.4380   35.5970   41.7610 C   0  0  0  0  0  0  0  0  0  0  0  0
   48.6350   34.1870   42.1500 C   0  0  2  0  0  0  0  0  0  0  0  0
   46.7660   34.3920   40.9640 H   0  0  0  0  0  0  0  0  0  0  0  0
   48.7910   35.9400   40.7770 H   0  0  0  0  0  0  0  0  0  0  0  0
   48.6270   36.3480   42.5690 H   0  0  0  0  0  0  0  0  0  0  0  0
   48.8410   33.9580   43.2360 H   0  0  0  0  0  0  0  0  0  0  0  0
   45.5210   36.0560   43.1330 C   0  0  0  0  0  0  0  0  0  0  0  0
   46.3550   34.9250   43.0450 C   0  0  0  0  0  0  0  0  0  0  0  0
   46.2690   33.9900   44.1020 C   0  0  0  0  0  0  0  0  0  0  0  0
   45.4070   34.2220   45.1260 N   0  0  0  0  0  0  0  0  0  0  0  0
   44.6250   35.3220   45.1700 C   0  0  0  0  0  0  0  0  0  0  0  0
   44.6740   36.2500   44.1730 N   0  0  0  0  0  0  0  0  0  0  0  0
   45.5870   36.7720   42.3270 H   0  0  0  0  0  0  0  0  0  0  0  0
   46.8910   33.1080   44.0750 H   0  0  0  0  0  0  0  0  0  0  0  0
   43.9290   35.5300   45.9730 H   0  0  0  0  0  0  0  0  0  0  0  0
   48.9860   31.6940   39.5820 N   0  0  0  0  0  0  0  0  0  0  0  0
   49.5950   30.8650   39.6090 H   0  0  0  0  0  0  0  0  0  0  0  0
   47.9740   33.0920   37.8080 C   0  0  1  0  0  3  0  0  0  0  0  0
   49.1710   32.4940   38.4850 C   0  0  2  0  0  3  0  0  0  0  0  0
   49.9500   32.0070   37.3070 C   0  0  0  0  0  3  0  0  0  0  0  0
   50.6540   31.2040   37.5350 H   0  0  0  0  0  0  0  0  0  0  0  0
   49.0520   31.7460   36.2840 O   0  0  0  0  0  0  0  0  0  0  0  0
   47.8020   32.1730   36.6260 C   0  0  0  0  0  3  0  0  0  0  0  0
   47.1370   31.3280   36.7700 H   0  0  0  0  0  0  0  0  0  0  0  0
   46.8600   33.2700   38.5660 O   0  0  0  0  0  0  0  0  0  0  0  0
   46.1110   32.7280   38.1690 H   0  0  0  0  0  0  0  0  0  0  0  0
  1  2  1  1  0  0  0
  1 18  1  0  0  0  0
  2  8  1  0  0  0  0
  3  2  1  0  0  0  0
  3  9  1  0  0  0  0
  3  4  1  0  0  0  0
  4 11  1  0  0  0  0
  5  4  1  0  0  0  0
  5 13  1  0  0  0  0
  6 15  1  6  0  0  0
  6  1  1  0  0  0  0
  6  5  1  0  0  0  0
  7  2  1  0  0  0  0
 10  3  1  0  0  0  0
 12  4  1  0  0  0  0
 14  5  1  0  0  0  0
 16 19  1  6  0  0  0
 16 18  1  0  0  0  0
 16 24  1  0  0  0  0
 17 16  1  0  0  0  0
 17 18  1  0  0  0  0
 17 21  1  0  0  0  0
 18 22  1  1  0  0  0
 20 17  1  0  0  0  0
 23 28  1  0  0  0  0
 24 23  2  0  0  0  0
 24 25  1  0  0  0  0
 25 26  2  0  0  0  0
 26 27  1  0  0  0  0
 27 31  1  0  0  0  0
 28 27  2  0  0  0  0
 29 23  1  0  0  0  0
 30 25  1  0  0  0  0
 32 33  1  0  0  0  0
 32  6  1  0  0  0  0
 34 35  1  0  0  0  0
 34 41  1  1  0  0  0
 35 32  1  1  0  0  0
 36 37  1  0  0  0  0
 36 35  1  0  0  0  0
 38 39  1  0  0  0  0
 38 36  1  0  0  0  0
 39 40  1  0  0  0  0
 39 34  1  0  0  0  0
 42 41  1  0  0  0  0
M  END
>  <minimizedAffinity>
-5.01105595

>  <minimizedRMSD>
2.30829287

$$$$
