
 OpenBabel03252506453D

 42 45  0  0  1  0  0  0  0  0999 V2000
   49.4180   33.3410   41.4580 N   0  0  1  0  0  0  0  0  0  0  0  0
   50.6840   33.1390   42.1330 C   0  0  0  0  0  0  0  0  0  0  0  0
   51.3140   31.8170   41.7950 C   0  0  0  0  0  0  0  0  0  0  0  0
   50.4610   30.7330   42.4260 C   0  0  0  0  0  0  0  0  0  0  0  0
   48.9920   31.0680   42.2900 C   0  0  0  0  0  0  0  0  0  0  0  0
   48.8140   32.0740   41.1860 C   0  0  2  0  0  0  0  0  0  0  0  0
   51.3490   34.0100   42.0080 H   0  0  0  0  0  0  0  0  0  0  0  0
   50.4470   33.0850   43.2320 H   0  0  0  0  0  0  0  0  0  0  0  0
   52.3080   31.8090   42.3070 H   0  0  0  0  0  0  0  0  0  0  0  0
   51.5160   31.6490   40.7360 H   0  0  0  0  0  0  0  0  0  0  0  0
   50.7490   30.6090   43.4980 H   0  0  0  0  0  0  0  0  0  0  0  0
   50.6670   29.7900   41.9260 H   0  0  0  0  0  0  0  0  0  0  0  0
   48.7570   31.6480   43.2370 H   0  0  0  0  0  0  0  0  0  0  0  0
   48.3100   30.2380   42.3000 H   0  0  0  0  0  0  0  0  0  0  0  0
   47.7080   32.3140   41.2500 H   0  0  0  0  0  0  0  0  0  0  0  0
   47.2310   34.5980   41.9960 C   0  0  1  0  0  0  0  0  0  0  0  0
   48.3220   35.5580   41.7000 C   0  0  0  0  0  0  0  0  0  0  0  0
   48.6470   34.2300   42.2540 C   0  0  2  0  0  0  0  0  0  0  0  0
   46.7510   34.1260   41.0990 H   0  0  0  0  0  0  0  0  0  0  0  0
   48.6290   35.8060   40.6740 H   0  0  0  0  0  0  0  0  0  0  0  0
   48.4560   36.4170   42.4050 H   0  0  0  0  0  0  0  0  0  0  0  0
   48.8880   34.1550   43.3540 H   0  0  0  0  0  0  0  0  0  0  0  0
   45.5190   36.0290   43.1550 C   0  0  0  0  0  0  0  0  0  0  0  0
   46.3240   34.8760   43.1090 C   0  0  0  0  0  0  0  0  0  0  0  0
   46.2110   33.9780   44.1950 C   0  0  0  0  0  0  0  0  0  0  0  0
   45.3500   34.2650   45.2060 N   0  0  0  0  0  0  0  0  0  0  0  0
   44.5950   35.3850   45.2100 C   0  0  0  0  0  0  0  0  0  0  0  0
   44.6720   36.2790   44.1840 N   0  0  0  0  0  0  0  0  0  0  0  0
   45.6060   36.7170   42.3260 H   0  0  0  0  0  0  0  0  0  0  0  0
   46.8100   33.0810   44.2010 H   0  0  0  0  0  0  0  0  0  0  0  0
   43.9010   35.6380   46.0030 H   0  0  0  0  0  0  0  0  0  0  0  0
   49.1720   31.5300   39.9360 N   0  0  0  0  0  0  0  0  0  0  0  0
   50.1860   31.5990   39.7790 H   0  0  0  0  0  0  0  0  0  0  0  0
   48.1760   32.9080   38.1390 C   0  0  1  0  0  3  0  0  0  0  0  0
   48.4190   31.5810   38.7930 C   0  0  2  0  0  3  0  0  0  0  0  0
   47.0480   30.9880   38.7550 C   0  0  0  0  0  3  0  0  0  0  0  0
   46.8710   30.2130   39.5020 H   0  0  0  0  0  0  0  0  0  0  0  0
   46.1360   32.0330   38.7480 O   0  0  0  0  0  0  0  0  0  0  0  0
   46.7800   33.2270   38.6080 C   0  0  0  0  0  3  0  0  0  0  0  0
   46.7050   33.8100   39.5210 H   0  0  0  0  0  0  0  0  0  0  0  0
   49.0970   33.8830   38.3580 O   0  0  0  0  0  0  0  0  0  0  0  0
   48.6410   34.6580   38.8120 H   0  0  0  0  0  0  0  0  0  0  0  0
  1  2  1  1  0  0  0
  1 18  1  0  0  0  0
  2  8  1  0  0  0  0
  3  2  1  0  0  0  0
  3  9  1  0  0  0  0
  3  4  1  0  0  0  0
  4 11  1  0  0  0  0
  5 14  1  0  0  0  0
  5  4  1  0  0  0  0
  5 13  1  0  0  0  0
  6 15  1  6  0  0  0
  6  1  1  0  0  0  0
  6  5  1  0  0  0  0
  7  2  1  0  0  0  0
 10  3  1  0  0  0  0
 12  4  1  0  0  0  0
 16 19  1  6  0  0  0
 16 18  1  0  0  0  0
 16 24  1  0  0  0  0
 17 16  1  0  0  0  0
 17 18  1  0  0  0  0
 17 21  1  0  0  0  0
 18 22  1  1  0  0  0
 20 17  1  0  0  0  0
 23 28  1  0  0  0  0
 24 23  2  0  0  0  0
 24 25  1  0  0  0  0
 25 30  1  0  0  0  0
 25 26  2  0  0  0  0
 26 27  1  0  0  0  0
 27 31  1  0  0  0  0
 28 27  2  0  0  0  0
 29 23  1  0  0  0  0
 32  6  1  0  0  0  0
 33 32  1  0  0  0  0
 34 41  1  1  0  0  0
 34 39  1  0  0  0  0
 34 35  1  0  0  0  0
 35 32  1  1  0  0  0
 36 35  1  0  0  0  0
 36 37  1  0  0  0  0
 38 36  1  0  0  0  0
 39 38  1  0  0  0  0
 39 40  1  0  0  0  0
 41 42  1  0  0  0  0
M  END
>  <minimizedAffinity>
-5.07442284

>  <minimizedRMSD>
1.99259293

$$$$
