
 OpenBabel03242523543D

 45 48  0  0  1  0  0  0  0  0999 V2000
   42.9710   33.9810   39.2540 C   0  0  1  0  0  0  0  0  0  0  0  0
   43.2050   35.0000   40.3590 C   0  0  1  0  0  0  0  0  0  0  0  0
   41.9690   35.5760   40.6980 O   0  0  0  0  0  0  0  0  0  0  0  0
   41.1350   35.7470   39.5890 C   0  0  0  0  0  0  0  0  0  0  0  0
   40.6400   34.4210   39.0480 C   0  0  2  0  0  0  0  0  0  0  0  0
   41.6560   33.3350   39.5450 C   0  0  1  0  0  0  0  0  0  0  0  0
   43.7870   33.2270   39.2770 H   0  0  0  0  0  0  0  0  0  0  0  0
   43.9490   35.7670   40.1040 H   0  0  0  0  0  0  0  0  0  0  0  0
   40.2490   36.2840   39.9870 H   0  0  0  0  0  0  0  0  0  0  0  0
   41.5800   36.3810   38.8120 H   0  0  0  0  0  0  0  0  0  0  0  0
   39.6330   34.1500   39.4010 H   0  0  0  0  0  0  0  0  0  0  0  0
   41.3810   33.4340   40.6440 H   0  0  0  0  0  0  0  0  0  0  0  0
   42.9450   34.6050   37.9980 O   0  0  0  0  0  0  0  0  0  0  0  0
   43.1970   33.9920   37.2790 H   0  0  0  0  0  0  0  0  0  0  0  0
   40.7500   34.4180   37.6650 O   0  0  0  0  0  0  0  0  0  0  0  0
   40.6330   33.5370   37.2660 H   0  0  0  0  0  0  0  0  0  0  0  0
   43.5400   34.2310   41.4970 O   0  0  0  0  0  0  0  0  0  0  0  0
   44.7230   34.2730   42.1200 C   0  0  0  0  0  0  0  0  0  0  0  0
   45.9100   34.4900   41.4030 C   0  0  0  0  0  0  0  0  0  0  0  0
   47.1080   34.5260   42.0960 C   0  0  0  0  0  0  0  0  0  0  0  0
   47.1010   34.3480   43.4670 N   0  0  0  0  0  0  0  0  0  0  0  0
   45.9380   34.1400   44.1260 C   0  0  0  0  0  0  0  0  0  0  0  0
   44.7550   34.1030   43.4550 N   0  0  0  0  0  0  0  0  0  0  0  0
   45.8970   34.6270   40.3320 H   0  0  0  0  0  0  0  0  0  0  0  0
   45.9450   34.0030   45.1970 H   0  0  0  0  0  0  0  0  0  0  0  0
   48.4140   34.7270   41.3980 C   0  0  0  0  0  0  0  0  0  0  0  0
   49.0870   36.0860   41.5760 C   0  0  0  0  0  0  0  0  0  0  0  0
   49.6410   34.7600   42.1290 C   0  0  0  0  0  0  0  0  0  0  0  0
   48.3950   34.3450   40.3410 H   0  0  0  0  0  0  0  0  0  0  0  0
   49.6540   36.4520   40.7030 H   0  0  0  0  0  0  0  0  0  0  0  0
   48.5880   36.7670   42.2800 H   0  0  0  0  0  0  0  0  0  0  0  0
   50.5680   34.3510   41.6670 H   0  0  0  0  0  0  0  0  0  0  0  0
   49.6890   34.7160   43.2350 H   0  0  0  0  0  0  0  0  0  0  0  0
   41.3790   32.1900   38.8980 O   0  0  0  0  0  0  0  0  0  0  0  0
   40.3250   31.3600   39.0430 C   0  0  0  0  0  0  0  0  0  0  0  0
   39.5250   31.1090   38.0380 O   0  0  0  0  0  0  0  0  0  0  0  0
   37.5620   29.9070   40.9800 C   0  0  1  0  0  0  0  0  0  0  0  0
   38.0380   30.7260   39.7940 C   0  0  0  0  0  0  0  0  0  0  0  0
   37.7690   31.7750   40.0410 H   0  0  0  0  0  0  0  0  0  0  0  0
   39.5220   30.4650   39.9190 C   0  0  2  0  0  0  0  0  0  0  0  0
   39.7350   30.7390   41.2660 O   0  0  0  0  0  0  0  0  0  0  0  0
   38.8090   29.8840   41.8320 C   0  0  0  0  0  0  0  0  0  0  0  0
   39.2910   28.8700   41.8240 H   0  0  0  0  0  0  0  0  0  0  0  0
   36.4890   30.4990   41.6380 O   0  0  0  0  0  0  0  0  0  0  0  0
   35.6900   30.3690   41.0710 H   0  0  0  0  0  0  0  0  0  0  0  0
  1  7  1  1  0  0  0
  1  6  1  0  0  0  0
  1  2  1  0  0  0  0
  2  8  1  6  0  0  0
  2  3  1  0  0  0  0
  2 17  1  0  0  0  0
  4  9  1  0  0  0  0
  4  3  1  0  0  0  0
  5 11  1  1  0  0  0
  5  6  1  0  0  0  0
  5  4  1  0  0  0  0
  6 12  1  1  0  0  0
 10  4  1  0  0  0  0
 13  1  1  0  0  0  0
 14 13  1  0  0  0  0
 15  5  1  0  0  0  0
 16 15  1  0  0  0  0
 17 18  1  0  0  0  0
 18 23  1  0  0  0  0
 19 20  1  0  0  0  0
 19 18  2  0  0  0  0
 20 21  2  0  0  0  0
 21 22  1  0  0  0  0
 22 25  1  0  0  0  0
 23 22  2  0  0  0  0
 24 19  1  0  0  0  0
 26 27  1  0  0  0  0
 26 20  1  0  0  0  0
 26 28  1  0  0  0  0
 27 28  1  0  0  0  0
 27 31  1  0  0  0  0
 28 33  1  0  0  0  0
 29 26  1  0  0  0  0
 30 27  1  0  0  0  0
 32 28  1  0  0  0  0
 34 35  1  0  0  0  0
 34  6  1  0  0  0  0
 36 35  2  0  0  0  0
 37 44  1  1  0  0  0
 37 42  1  0  0  0  0
 38 40  1  0  0  0  0
 38 39  1  0  0  0  0
 38 37  1  0  0  0  0
 40 35  1  6  0  0  0
 40 41  1  0  0  0  0
 41 42  1  0  0  0  0
 43 42  1  0  0  0  0
 45 44  1  0  0  0  0
M  END
>  <minimizedAffinity>
-6.66454124

>  <minimizedRMSD>
1.90944958

$$$$
