
 OpenBabel03242523563D

 45 48  0  0  1  0  0  0  0  0999 V2000
   37.3070   31.5390   41.0940 C   0  0  1  0  0  0  0  0  0  0  0  0
   36.7240   30.1350   41.0610 C   0  0  1  0  0  0  0  0  0  0  0  0
   37.2410   29.4670   39.9380 O   0  0  0  0  0  0  0  0  0  0  0  0
   37.4020   30.3120   38.8380 C   0  0  0  0  0  0  0  0  0  0  0  0
   38.5190   31.3140   39.0560 C   0  0  2  0  0  0  0  0  0  0  0  0
   38.7150   31.4240   40.6080 C   0  0  1  0  0  0  0  0  0  0  0  0
   37.2870   31.9160   42.1390 H   0  0  0  0  0  0  0  0  0  0  0  0
   35.6240   30.1120   41.0700 H   0  0  0  0  0  0  0  0  0  0  0  0
   37.7270   29.6410   38.0160 H   0  0  0  0  0  0  0  0  0  0  0  0
   36.4640   30.7870   38.5210 H   0  0  0  0  0  0  0  0  0  0  0  0
   39.4750   31.0130   38.6000 H   0  0  0  0  0  0  0  0  0  0  0  0
   39.1100   30.3650   40.7360 H   0  0  0  0  0  0  0  0  0  0  0  0
   36.5720   32.4040   40.2690 O   0  0  0  0  0  0  0  0  0  0  0  0
   36.6450   33.3350   40.5570 H   0  0  0  0  0  0  0  0  0  0  0  0
   38.0950   32.5710   38.6510 O   0  0  0  0  0  0  0  0  0  0  0  0
   38.6840   33.2920   38.9380 H   0  0  0  0  0  0  0  0  0  0  0  0
   37.3210   29.4680   42.1550 O   0  0  0  0  0  0  0  0  0  0  0  0
   37.8760   28.2530   42.0920 C   0  0  0  0  0  0  0  0  0  0  0  0
   37.0860   27.1030   41.9450 C   0  0  0  0  0  0  0  0  0  0  0  0
   37.7110   25.8690   41.8830 C   0  0  0  0  0  0  0  0  0  0  0  0
   39.0890   25.8050   41.9660 N   0  0  0  0  0  0  0  0  0  0  0  0
   39.8220   26.9350   42.1080 C   0  0  0  0  0  0  0  0  0  0  0  0
   39.2170   28.1520   42.1710 N   0  0  0  0  0  0  0  0  0  0  0  0
   36.0100   27.1700   41.8810 H   0  0  0  0  0  0  0  0  0  0  0  0
   40.8970   26.8730   42.1720 H   0  0  0  0  0  0  0  0  0  0  0  0
   36.9340   24.6000   41.7530 C   0  0  0  0  0  0  0  0  0  0  0  0
   36.4090   24.2540   40.3620 C   0  0  0  0  0  0  0  0  0  0  0  0
   37.4950   23.4560   41.1060 C   0  0  0  0  0  0  0  0  0  0  0  0
   36.1880   24.4700   42.5840 H   0  0  0  0  0  0  0  0  0  0  0  0
   35.4380   23.7290   40.3380 H   0  0  0  0  0  0  0  0  0  0  0  0
   36.7300   24.9310   39.5580 H   0  0  0  0  0  0  0  0  0  0  0  0
   37.2360   22.4360   41.4680 H   0  0  0  0  0  0  0  0  0  0  0  0
   38.4860   23.4670   40.6070 H   0  0  0  0  0  0  0  0  0  0  0  0
   39.5320   32.4650   40.8430 O   0  0  0  0  0  0  0  0  0  0  0  0
   40.8600   32.5720   40.6340 C   0  0  0  0  0  0  0  0  0  0  0  0
   41.7080   32.4400   41.6240 O   0  0  0  0  0  0  0  0  0  0  0  0
   42.8800   33.7820   37.8140 C   0  0  1  0  0  3  0  0  0  0  0  0
   41.7590   34.0100   38.8120 C   0  0  0  0  0  3  0  0  0  0  0  0
   40.8240   33.9340   38.2170 H   0  0  0  0  0  0  0  0  0  0  0  0
   41.9850   32.7990   39.6880 C   0  0  2  0  0  3  0  0  0  0  0  0
   42.0700   31.7860   38.7390 O   0  0  0  0  0  0  0  0  0  0  0  0
   43.0790   32.2900   37.9410 C   0  0  0  0  0  3  0  0  0  0  0  0
   44.0360   32.0500   38.4790 H   0  0  0  0  0  0  0  0  0  0  0  0
   42.5260   34.1550   36.5220 O   0  0  0  0  0  0  0  0  0  0  0  0
   42.5320   35.1420   36.4890 H   0  0  0  0  0  0  0  0  0  0  0  0
  1  7  1  1  0  0  0
  2  8  1  1  0  0  0
  2  1  1  0  0  0  0
  2 17  1  0  0  0  0
  3  2  1  0  0  0  0
  4  5  1  0  0  0  0
  4  3  1  0  0  0  0
  5 11  1  6  0  0  0
  5  6  1  0  0  0  0
  6 12  1  1  0  0  0
  6 34  1  0  0  0  0
  6  1  1  0  0  0  0
  9  4  1  0  0  0  0
 10  4  1  0  0  0  0
 13 14  1  0  0  0  0
 13  1  1  0  0  0  0
 15 16  1  0  0  0  0
 15  5  1  0  0  0  0
 18 17  1  0  0  0  0
 18 23  1  0  0  0  0
 19 18  2  0  0  0  0
 20 19  1  0  0  0  0
 20 21  2  0  0  0  0
 21 22  1  0  0  0  0
 22 23  2  0  0  0  0
 22 25  1  0  0  0  0
 24 19  1  0  0  0  0
 26 20  1  0  0  0  0
 26 29  1  0  0  0  0
 27 28  1  0  0  0  0
 27 26  1  0  0  0  0
 28 32  1  0  0  0  0
 28 26  1  0  0  0  0
 30 27  1  0  0  0  0
 31 27  1  0  0  0  0
 33 28  1  0  0  0  0
 35 34  1  0  0  0  0
 35 36  2  0  0  0  0
 37 44  1  6  0  0  0
 37 42  1  0  0  0  0
 37 38  1  0  0  0  0
 38 40  1  0  0  0  0
 39 38  1  0  0  0  0
 40 35  1  1  0  0  0
 41 40  1  0  0  0  0
 42 43  1  0  0  0  0
 42 41  1  0  0  0  0
 45 44  1  0  0  0  0
M  END
>  <minimizedAffinity>
-6.22182751

$$$$

 OpenBabel03242523563D

 45 48  0  0  1  0  0  0  0  0999 V2000
   37.9040   32.2510   40.5710 C   0  0  1  0  0  0  0  0  0  0  0  0
   37.2570   30.9550   41.0360 C   0  0  1  0  0  0  0  0  0  0  0  0
   37.0120   30.1540   39.9080 O   0  0  0  0  0  0  0  0  0  0  0  0
   36.6360   30.9020   38.7890 C   0  0  0  0  0  0  0  0  0  0  0  0
   37.7880   31.7270   38.2510 C   0  0  2  0  0  0  0  0  0  0  0  0
   38.8040   31.8900   39.4340 C   0  0  1  0  0  0  0  0  0  0  0  0
   38.4920   32.6840   41.4080 H   0  0  0  0  0  0  0  0  0  0  0  0
   36.3420   31.1050   41.6280 H   0  0  0  0  0  0  0  0  0  0  0  0
   36.3930   30.1440   38.0160 H   0  0  0  0  0  0  0  0  0  0  0  0
   35.7300   31.4990   38.9580 H   0  0  0  0  0  0  0  0  0  0  0  0
   38.3070   31.2560   37.4020 H   0  0  0  0  0  0  0  0  0  0  0  0
   39.0950   30.7910   39.4710 H   0  0  0  0  0  0  0  0  0  0  0  0
   36.9320   33.1730   40.1550 O   0  0  0  0  0  0  0  0  0  0  0  0
   37.2440   34.0960   40.2370 H   0  0  0  0  0  0  0  0  0  0  0  0
   37.3420   33.0110   37.9710 O   0  0  0  0  0  0  0  0  0  0  0  0
   38.0630   33.6460   37.8050 H   0  0  0  0  0  0  0  0  0  0  0  0
   38.2790   30.2650   41.7240 O   0  0  0  0  0  0  0  0  0  0  0  0
   38.1830   29.0040   42.1610 C   0  0  0  0  0  0  0  0  0  0  0  0
   39.2290   28.0890   41.9640 C   0  0  0  0  0  0  0  0  0  0  0  0
   39.0800   26.7970   42.4380 C   0  0  0  0  0  0  0  0  0  0  0  0
   37.9120   26.4470   43.0900 N   0  0  0  0  0  0  0  0  0  0  0  0
   36.9230   27.3550   43.2620 C   0  0  0  0  0  0  0  0  0  0  0  0
   37.0590   28.6270   42.8000 N   0  0  0  0  0  0  0  0  0  0  0  0
   40.1340   28.3790   41.4530 H   0  0  0  0  0  0  0  0  0  0  0  0
   36.0160   27.0700   43.7720 H   0  0  0  0  0  0  0  0  0  0  0  0
   40.1380   25.7610   42.2430 C   0  0  0  0  0  0  0  0  0  0  0  0
   41.1530   25.5920   43.3710 C   0  0  0  0  0  0  0  0  0  0  0  0
   40.1100   24.5330   42.9720 C   0  0  0  0  0  0  0  0  0  0  0  0
   40.5830   25.7960   41.2100 H   0  0  0  0  0  0  0  0  0  0  0  0
   42.1750   25.3230   43.0540 H   0  0  0  0  0  0  0  0  0  0  0  0
   40.9570   26.1920   44.2710 H   0  0  0  0  0  0  0  0  0  0  0  0
   40.4760   23.5980   42.4900 H   0  0  0  0  0  0  0  0  0  0  0  0
   39.3630   24.3140   43.7610 H   0  0  0  0  0  0  0  0  0  0  0  0
   39.7180   32.8020   39.0630 O   0  0  0  0  0  0  0  0  0  0  0  0
   40.8830   32.6260   38.4050 C   0  0  0  0  0  0  0  0  0  0  0  0
   40.8960   32.3330   37.1290 O   0  0  0  0  0  0  0  0  0  0  0  0
   44.4160   33.3910   37.7490 C   0  0  1  0  0  3  0  0  0  0  0  0
   42.9730   33.8540   37.8410 C   0  0  0  0  0  3  0  0  0  0  0  0
   42.6570   34.0200   36.7890 H   0  0  0  0  0  0  0  0  0  0  0  0
   42.3700   32.6020   38.4350 C   0  0  2  0  0  3  0  0  0  0  0  0
   42.8850   31.6230   37.5920 O   0  0  0  0  0  0  0  0  0  0  0  0
   44.2350   31.8920   37.7100 C   0  0  0  0  0  3  0  0  0  0  0  0
   44.5530   31.4160   38.6760 H   0  0  0  0  0  0  0  0  0  0  0  0
   45.0580   33.8720   36.6130 O   0  0  0  0  0  0  0  0  0  0  0  0
   45.2460   34.8290   36.7650 H   0  0  0  0  0  0  0  0  0  0  0  0
  1  2  1  0  0  0  0
  1  7  1  1  0  0  0
  2  8  1  1  0  0  0
  2 17  1  0  0  0  0
  3  2  1  0  0  0  0
  4 10  1  0  0  0  0
  4  3  1  0  0  0  0
  5 11  1  6  0  0  0
  5  4  1  0  0  0  0
  5  6  1  0  0  0  0
  6 12  1  1  0  0  0
  6  1  1  0  0  0  0
  9  4  1  0  0  0  0
 13 14  1  0  0  0  0
 13  1  1  0  0  0  0
 15  5  1  0  0  0  0
 16 15  1  0  0  0  0
 17 18  1  0  0  0  0
 18 23  1  0  0  0  0
 19 18  2  0  0  0  0
 19 20  1  0  0  0  0
 20 21  2  0  0  0  0
 21 22  1  0  0  0  0
 22 25  1  0  0  0  0
 23 22  2  0  0  0  0
 24 19  1  0  0  0  0
 26 20  1  0  0  0  0
 26 28  1  0  0  0  0
 26 27  1  0  0  0  0
 27 31  1  0  0  0  0
 28 27  1  0  0  0  0
 28 33  1  0  0  0  0
 29 26  1  0  0  0  0
 30 27  1  0  0  0  0
 32 28  1  0  0  0  0
 34  6  1  0  0  0  0
 35 34  1  0  0  0  0
 36 35  2  0  0  0  0
 37 44  1  6  0  0  0
 37 38  1  0  0  0  0
 38 40  1  0  0  0  0
 39 38  1  0  0  0  0
 40 35  1  6  0  0  0
 41 42  1  0  0  0  0
 41 40  1  0  0  0  0
 42 37  1  0  0  0  0
 42 43  1  0  0  0  0
 44 45  1  0  0  0  0
M  END
>  <minimizedAffinity>
-6.10901022

$$$$

 OpenBabel03242523563D

 45 48  0  0  1  0  0  0  0  0999 V2000
   36.7930   30.1410   41.3250 C   0  0  1  0  0  0  0  0  0  0  0  0
   36.3600   28.9820   40.4420 C   0  0  1  0  0  0  0  0  0  0  0  0
   36.5400   29.3570   39.1000 O   0  0  0  0  0  0  0  0  0  0  0  0
   36.2570   30.7070   38.8770 C   0  0  0  0  0  0  0  0  0  0  0  0
   37.2900   31.6120   39.5190 C   0  0  2  0  0  0  0  0  0  0  0  0
   37.9710   30.7690   40.6530 C   0  0  1  0  0  0  0  0  0  0  0  0
   37.0820   29.7490   42.3240 H   0  0  0  0  0  0  0  0  0  0  0  0
   35.3300   28.6440   40.6290 H   0  0  0  0  0  0  0  0  0  0  0  0
   36.3550   30.8350   37.7790 H   0  0  0  0  0  0  0  0  0  0  0  0
   35.2290   30.9800   39.1480 H   0  0  0  0  0  0  0  0  0  0  0  0
   38.0670   31.9580   38.8200 H   0  0  0  0  0  0  0  0  0  0  0  0
   38.4790   30.0390   39.9440 H   0  0  0  0  0  0  0  0  0  0  0  0
   35.7550   31.0740   41.4700 O   0  0  0  0  0  0  0  0  0  0  0  0
   35.8350   31.5840   42.3010 H   0  0  0  0  0  0  0  0  0  0  0  0
   36.6460   32.6520   40.1740 O   0  0  0  0  0  0  0  0  0  0  0  0
   37.2300   33.1610   40.7660 H   0  0  0  0  0  0  0  0  0  0  0  0
   37.3380   27.9830   40.6470 O   0  0  0  0  0  0  0  0  0  0  0  0
   37.0740   26.6790   40.7830 C   0  0  0  0  0  0  0  0  0  0  0  0
   36.6300   25.9130   39.6940 C   0  0  0  0  0  0  0  0  0  0  0  0
   36.3730   24.5670   39.8880 C   0  0  0  0  0  0  0  0  0  0  0  0
   36.5620   24.0170   41.1430 N   0  0  0  0  0  0  0  0  0  0  0  0
   36.9920   24.7850   42.1710 C   0  0  0  0  0  0  0  0  0  0  0  0
   37.2470   26.1090   41.9910 N   0  0  0  0  0  0  0  0  0  0  0  0
   36.4860   26.3590   38.7210 H   0  0  0  0  0  0  0  0  0  0  0  0
   37.1360   24.3440   43.1460 H   0  0  0  0  0  0  0  0  0  0  0  0
   35.8720   23.6950   38.7840 C   0  0  0  0  0  0  0  0  0  0  0  0
   34.6820   22.7940   39.1030 C   0  0  0  0  0  0  0  0  0  0  0  0
   34.6390   23.9790   38.1220 C   0  0  0  0  0  0  0  0  0  0  0  0
   36.7090   23.1900   38.2270 H   0  0  0  0  0  0  0  0  0  0  0  0
   34.6740   21.8170   38.5890 H   0  0  0  0  0  0  0  0  0  0  0  0
   34.2410   22.9370   40.1000 H   0  0  0  0  0  0  0  0  0  0  0  0
   34.5300   23.7540   37.0370 H   0  0  0  0  0  0  0  0  0  0  0  0
   33.9600   24.7990   38.4320 H   0  0  0  0  0  0  0  0  0  0  0  0
   38.7220   31.6060   41.3870 O   0  0  0  0  0  0  0  0  0  0  0  0
   40.0100   31.9710   41.2160 C   0  0  0  0  0  0  0  0  0  0  0  0
   40.9420   31.5470   42.0320 O   0  0  0  0  0  0  0  0  0  0  0  0
   41.7480   33.7270   38.4960 C   0  0  1  0  0  3  0  0  0  0  0  0
   40.4500   33.3100   39.1650 C   0  0  0  0  0  3  0  0  0  0  0  0
   40.0190   32.5330   38.4980 H   0  0  0  0  0  0  0  0  0  0  0  0
   41.0250   32.7290   40.4360 C   0  0  2  0  0  3  0  0  0  0  0  0
   42.0140   31.8910   39.9310 O   0  0  0  0  0  0  0  0  0  0  0  0
   42.7290   32.7980   39.1720 C   0  0  0  0  0  3  0  0  0  0  0  0
   43.3810   33.3520   39.9000 H   0  0  0  0  0  0  0  0  0  0  0  0
   41.7180   33.5460   37.1180 O   0  0  0  0  0  0  0  0  0  0  0  0
   41.1510   34.2620   36.7410 H   0  0  0  0  0  0  0  0  0  0  0  0
  1 13  1  0  0  0  0
  1  7  1  1  0  0  0
  2  8  1  1  0  0  0
  2 17  1  0  0  0  0
  2  1  1  0  0  0  0
  3  2  1  0  0  0  0
  4  3  1  0  0  0  0
  4 10  1  0  0  0  0
  4  5  1  0  0  0  0
  5 11  1  6  0  0  0
  5 15  1  0  0  0  0
  5  6  1  0  0  0  0
  6 12  1  6  0  0  0
  6  1  1  0  0  0  0
  6 34  1  0  0  0  0
  9  4  1  0  0  0  0
 13 14  1  0  0  0  0
 15 16  1  0  0  0  0
 17 18  1  0  0  0  0
 18 23  1  0  0  0  0
 19 20  1  0  0  0  0
 19 18  2  0  0  0  0
 20 21  2  0  0  0  0
 21 22  1  0  0  0  0
 22 25  1  0  0  0  0
 23 22  2  0  0  0  0
 24 19  1  0  0  0  0
 26 27  1  0  0  0  0
 26 20  1  0  0  0  0
 27 31  1  0  0  0  0
 28 33  1  0  0  0  0
 28 26  1  0  0  0  0
 28 27  1  0  0  0  0
 29 26  1  0  0  0  0
 30 27  1  0  0  0  0
 32 28  1  0  0  0  0
 35 34  1  0  0  0  0
 35 36  2  0  0  0  0
 37 44  1  6  0  0  0
 37 38  1  0  0  0  0
 37 42  1  0  0  0  0
 38 40  1  0  0  0  0
 39 38  1  0  0  0  0
 40 35  1  6  0  0  0
 41 40  1  0  0  0  0
 42 43  1  0  0  0  0
 42 41  1  0  0  0  0
 45 44  1  0  0  0  0
M  END
>  <minimizedAffinity>
-6.09349585

$$$$

 OpenBabel03242523563D

 45 48  0  0  1  0  0  0  0  0999 V2000
   37.0410   30.5360   41.7090 C   0  0  1  0  0  0  0  0  0  0  0  0
   36.8720   29.0270   41.6120 C   0  0  1  0  0  0  0  0  0  0  0  0
   37.0060   28.6520   40.2650 O   0  0  0  0  0  0  0  0  0  0  0  0
   36.4610   29.5950   39.3890 C   0  0  0  0  0  0  0  0  0  0  0  0
   37.2740   30.8740   39.3630 C   0  0  2  0  0  0  0  0  0  0  0  0
   38.0830   30.9090   40.7060 C   0  0  1  0  0  0  0  0  0  0  0  0
   37.3790   30.7980   42.7340 H   0  0  0  0  0  0  0  0  0  0  0  0
   35.9280   28.6600   42.0400 H   0  0  0  0  0  0  0  0  0  0  0  0
   36.5570   29.1320   38.3850 H   0  0  0  0  0  0  0  0  0  0  0  0
   35.3920   29.7760   39.5640 H   0  0  0  0  0  0  0  0  0  0  0  0
   37.9820   30.9290   38.5210 H   0  0  0  0  0  0  0  0  0  0  0  0
   38.7460   30.0210   40.4480 H   0  0  0  0  0  0  0  0  0  0  0  0
   35.8330   31.1920   41.4300 O   0  0  0  0  0  0  0  0  0  0  0  0
   35.7870   32.0710   41.8550 H   0  0  0  0  0  0  0  0  0  0  0  0
   36.4170   31.9640   39.4240 O   0  0  0  0  0  0  0  0  0  0  0  0
   36.8720   32.8070   39.6040 H   0  0  0  0  0  0  0  0  0  0  0  0
   38.0270   28.4920   42.2270 O   0  0  0  0  0  0  0  0  0  0  0  0
   38.3660   27.1980   42.2090 C   0  0  0  0  0  0  0  0  0  0  0  0
   39.7120   26.8040   42.2210 C   0  0  0  0  0  0  0  0  0  0  0  0
   40.0090   25.4520   42.2040 C   0  0  0  0  0  0  0  0  0  0  0  0
   38.9770   24.5330   42.1780 N   0  0  0  0  0  0  0  0  0  0  0  0
   37.6880   24.9490   42.1670 C   0  0  0  0  0  0  0  0  0  0  0  0
   37.3860   26.2750   42.1830 N   0  0  0  0  0  0  0  0  0  0  0  0
   40.5070   27.5340   42.2410 H   0  0  0  0  0  0  0  0  0  0  0  0
   36.8910   24.2230   42.1460 H   0  0  0  0  0  0  0  0  0  0  0  0
   41.4190   24.9570   42.1880 C   0  0  0  0  0  0  0  0  0  0  0  0
   42.4960   25.9600   41.7830 C   0  0  0  0  0  0  0  0  0  0  0  0
   42.3520   25.3590   43.1930 C   0  0  0  0  0  0  0  0  0  0  0  0
   41.5100   23.9460   41.7040 H   0  0  0  0  0  0  0  0  0  0  0  0
   43.3520   25.5380   41.2280 H   0  0  0  0  0  0  0  0  0  0  0  0
   42.1430   26.9890   41.6250 H   0  0  0  0  0  0  0  0  0  0  0  0
   43.1330   24.6430   43.5370 H   0  0  0  0  0  0  0  0  0  0  0  0
   42.1120   26.1030   43.9800 H   0  0  0  0  0  0  0  0  0  0  0  0
   38.6330   32.1310   40.8180 O   0  0  0  0  0  0  0  0  0  0  0  0
   39.6250   32.6910   40.0960 C   0  0  0  0  0  0  0  0  0  0  0  0
   39.7480   33.9920   40.0190 O   0  0  0  0  0  0  0  0  0  0  0  0
   42.3390   33.3220   37.7010 C   0  0  1  0  0  3  0  0  0  0  0  0
   41.3830   33.8410   38.7600 C   0  0  0  0  0  3  0  0  0  0  0  0
   40.6390   34.4490   38.2030 H   0  0  0  0  0  0  0  0  0  0  0  0
   40.8170   32.5170   39.2230 C   0  0  2  0  0  3  0  0  0  0  0  0
   40.4840   31.9230   38.0110 O   0  0  0  0  0  0  0  0  0  0  0  0
   41.7040   31.9930   37.3670 C   0  0  0  0  0  3  0  0  0  0  0  0
   42.3090   31.1380   37.7740 H   0  0  0  0  0  0  0  0  0  0  0  0
   42.4130   34.1610   36.5940 O   0  0  0  0  0  0  0  0  0  0  0  0
   42.9420   34.9520   36.8610 H   0  0  0  0  0  0  0  0  0  0  0  0
  1  7  1  1  0  0  0
  2  1  1  0  0  0  0
  2  8  1  1  0  0  0
  2 17  1  0  0  0  0
  3  2  1  0  0  0  0
  4 10  1  0  0  0  0
  4  3  1  0  0  0  0
  5 11  1  6  0  0  0
  5  4  1  0  0  0  0
  5 15  1  0  0  0  0
  5  6  1  0  0  0  0
  6 12  1  6  0  0  0
  6 34  1  0  0  0  0
  6  1  1  0  0  0  0
  9  4  1  0  0  0  0
 13  1  1  0  0  0  0
 13 14  1  0  0  0  0
 15 16  1  0  0  0  0
 18 19  1  0  0  0  0
 18 17  1  0  0  0  0
 19 24  1  0  0  0  0
 20 19  2  0  0  0  0
 21 20  1  0  0  0  0
 22 21  2  0  0  0  0
 22 23  1  0  0  0  0
 23 18  2  0  0  0  0
 25 22  1  0  0  0  0
 26 20  1  0  0  0  0
 26 28  1  0  0  0  0
 27 26  1  0  0  0  0
 27 28  1  0  0  0  0
 28 32  1  0  0  0  0
 28 33  1  0  0  0  0
 29 26  1  0  0  0  0
 30 27  1  0  0  0  0
 31 27  1  0  0  0  0
 35 34  1  0  0  0  0
 36 35  2  0  0  0  0
 37 44  1  6  0  0  0
 37 38  1  0  0  0  0
 38 40  1  0  0  0  0
 39 38  1  0  0  0  0
 40 35  1  1  0  0  0
 41 40  1  0  0  0  0
 42 37  1  0  0  0  0
 42 43  1  0  0  0  0
 42 41  1  0  0  0  0
 44 45  1  0  0  0  0
M  END
>  <minimizedAffinity>
-6.08247328

$$$$

 OpenBabel03242523563D

 45 48  0  0  1  0  0  0  0  0999 V2000
   39.2240   30.6900   40.1800 C   0  0  1  0  0  0  0  0  0  0  0  0
   40.0920   30.9350   41.4050 C   0  0  1  0  0  0  0  0  0  0  0  0
   40.2790   32.3200   41.5450 O   0  0  0  0  0  0  0  0  0  0  0  0
   40.3950   32.9730   40.3150 C   0  0  0  0  0  0  0  0  0  0  0  0
   39.0820   32.9840   39.5580 C   0  0  2  0  0  0  0  0  0  0  0  0
   38.2290   31.8030   40.1380 C   0  0  1  0  0  0  0  0  0  0  0  0
   38.7080   29.7120   40.2910 H   0  0  0  0  0  0  0  0  0  0  0  0
   41.0540   30.4010   41.3800 H   0  0  0  0  0  0  0  0  0  0  0  0
   40.6230   34.0270   40.5790 H   0  0  0  0  0  0  0  0  0  0  0  0
   41.2300   32.5990   39.7090 H   0  0  0  0  0  0  0  0  0  0  0  0
   38.5140   33.9200   39.6750 H   0  0  0  0  0  0  0  0  0  0  0  0
   38.0900   32.2720   41.1650 H   0  0  0  0  0  0  0  0  0  0  0  0
   40.0010   30.6800   39.0120 O   0  0  0  0  0  0  0  0  0  0  0  0
   39.5860   30.1520   38.3010 H   0  0  0  0  0  0  0  0  0  0  0  0
   39.3130   32.6500   38.2310 O   0  0  0  0  0  0  0  0  0  0  0  0
   38.5000   32.4500   37.7320 H   0  0  0  0  0  0  0  0  0  0  0  0
   39.2740   30.5920   42.5050 O   0  0  0  0  0  0  0  0  0  0  0  0
   38.8220   29.3590   42.7600 C   0  0  0  0  0  0  0  0  0  0  0  0
   39.7040   28.3190   43.0890 C   0  0  0  0  0  0  0  0  0  0  0  0
   39.1840   27.0620   43.3460 C   0  0  0  0  0  0  0  0  0  0  0  0
   37.8170   26.8690   43.2730 N   0  0  0  0  0  0  0  0  0  0  0  0
   36.9940   27.8950   42.9530 C   0  0  0  0  0  0  0  0  0  0  0  0
   37.4950   29.1340   42.6980 N   0  0  0  0  0  0  0  0  0  0  0  0
   40.7690   28.4870   43.1420 H   0  0  0  0  0  0  0  0  0  0  0  0
   35.9290   27.7320   42.8990 H   0  0  0  0  0  0  0  0  0  0  0  0
   40.0620   25.9000   43.6780 C   0  0  0  0  0  0  0  0  0  0  0  0
   39.6840   24.5540   43.0640 C   0  0  0  0  0  0  0  0  0  0  0  0
   40.9530   25.3500   42.7050 C   0  0  0  0  0  0  0  0  0  0  0  0
   40.3250   25.8630   44.7700 H   0  0  0  0  0  0  0  0  0  0  0  0
   39.9000   23.6710   43.6890 H   0  0  0  0  0  0  0  0  0  0  0  0
   38.8440   24.5820   42.3560 H   0  0  0  0  0  0  0  0  0  0  0  0
   41.9350   24.9370   43.0290 H   0  0  0  0  0  0  0  0  0  0  0  0
   40.9880   25.6940   41.6520 H   0  0  0  0  0  0  0  0  0  0  0  0
   37.1610   31.6400   39.3390 O   0  0  0  0  0  0  0  0  0  0  0  0
   36.5940   30.5010   38.8900 C   0  0  0  0  0  0  0  0  0  0  0  0
   35.5740   29.9680   39.5140 O   0  0  0  0  0  0  0  0  0  0  0  0
   37.1470   28.5190   35.8460 C   0  0  1  0  0  3  0  0  0  0  0  0
   37.6310   29.5730   36.8260 C   0  0  0  0  0  3  0  0  0  0  0  0
   37.5400   30.5360   36.2810 H   0  0  0  0  0  0  0  0  0  0  0  0
   36.5650   29.4050   37.8860 C   0  0  2  0  0  3  0  0  0  0  0  0
   35.4070   29.4440   37.1160 O   0  0  0  0  0  0  0  0  0  0  0  0
   35.6850   28.4340   36.2150 C   0  0  0  0  0  3  0  0  0  0  0  0
   35.4540   27.4770   36.7550 H   0  0  0  0  0  0  0  0  0  0  0  0
   37.3320   28.8990   34.5220 O   0  0  0  0  0  0  0  0  0  0  0  0
   38.2970   28.8160   34.3250 H   0  0  0  0  0  0  0  0  0  0  0  0
  1  7  1  1  0  0  0
  1  2  1  0  0  0  0
  2  8  1  6  0  0  0
  2  3  1  0  0  0  0
  2 17  1  0  0  0  0
  4  9  1  0  0  0  0
  4  3  1  0  0  0  0
  5 11  1  1  0  0  0
  5  6  1  0  0  0  0
  5  4  1  0  0  0  0
  6  1  1  0  0  0  0
  6 12  1  1  0  0  0
 10  4  1  0  0  0  0
 13  1  1  0  0  0  0
 14 13  1  0  0  0  0
 15  5  1  0  0  0  0
 16 15  1  0  0  0  0
 17 18  1  0  0  0  0
 18 19  1  0  0  0  0
 19 24  1  0  0  0  0
 19 20  2  0  0  0  0
 20 26  1  0  0  0  0
 21 20  1  0  0  0  0
 22 21  2  0  0  0  0
 23 18  2  0  0  0  0
 23 22  1  0  0  0  0
 25 22  1  0  0  0  0
 26 29  1  0  0  0  0
 27 26  1  0  0  0  0
 27 30  1  0  0  0  0
 28 32  1  0  0  0  0
 28 27  1  0  0  0  0
 28 26  1  0  0  0  0
 31 27  1  0  0  0  0
 33 28  1  0  0  0  0
 34  6  1  0  0  0  0
 35 34  1  0  0  0  0
 35 36  2  0  0  0  0
 37 44  1  6  0  0  0
 37 42  1  0  0  0  0
 37 38  1  0  0  0  0
 38 40  1  0  0  0  0
 39 38  1  0  0  0  0
 40 35  1  1  0  0  0
 41 40  1  0  0  0  0
 42 43  1  0  0  0  0
 42 41  1  0  0  0  0
 45 44  1  0  0  0  0
M  END
>  <minimizedAffinity>
-5.84571028

$$$$

 OpenBabel03242523563D

 45 48  0  0  1  0  0  0  0  0999 V2000
   37.3930   32.1460   39.2750 C   0  0  1  0  0  0  0  0  0  0  0  0
   38.8930   32.2140   39.5130 C   0  0  1  0  0  0  0  0  0  0  0  0
   39.2410   31.2100   40.4330 O   0  0  0  0  0  0  0  0  0  0  0  0
   38.2650   31.0200   41.4130 C   0  0  0  0  0  0  0  0  0  0  0  0
   37.0080   30.3950   40.8420 C   0  0  2  0  0  0  0  0  0  0  0  0
   37.0250   30.6980   39.3040 C   0  0  1  0  0  0  0  0  0  0  0  0
   37.1620   32.5840   38.2800 H   0  0  0  0  0  0  0  0  0  0  0  0
   39.2450   33.2020   39.8440 H   0  0  0  0  0  0  0  0  0  0  0  0
   38.7080   30.2760   42.1080 H   0  0  0  0  0  0  0  0  0  0  0  0
   38.0590   31.9280   41.9960 H   0  0  0  0  0  0  0  0  0  0  0  0
   36.9540   29.3040   40.9860 H   0  0  0  0  0  0  0  0  0  0  0  0
   37.9240   30.0390   39.0800 H   0  0  0  0  0  0  0  0  0  0  0  0
   36.6980   32.8490   40.2700 O   0  0  0  0  0  0  0  0  0  0  0  0
   35.8270   33.1650   39.9560 H   0  0  0  0  0  0  0  0  0  0  0  0
   35.8960   31.0640   41.3350 O   0  0  0  0  0  0  0  0  0  0  0  0
   35.0700   30.8450   40.8660 H   0  0  0  0  0  0  0  0  0  0  0  0
   39.4730   31.7750   38.3010 O   0  0  0  0  0  0  0  0  0  0  0  0
   40.7290   32.0370   37.9210 C   0  0  0  0  0  0  0  0  0  0  0  0
   41.5570   31.0240   37.4150 C   0  0  0  0  0  0  0  0  0  0  0  0
   42.8480   31.3480   37.0350 C   0  0  0  0  0  0  0  0  0  0  0  0
   43.2830   32.6540   37.1630 N   0  0  0  0  0  0  0  0  0  0  0  0
   42.4570   33.6070   37.6560 C   0  0  0  0  0  0  0  0  0  0  0  0
   41.1870   33.2990   38.0330 N   0  0  0  0  0  0  0  0  0  0  0  0
   41.2020   30.0080   37.3220 H   0  0  0  0  0  0  0  0  0  0  0  0
   42.8070   34.6230   37.7510 H   0  0  0  0  0  0  0  0  0  0  0  0
   43.7960   30.3180   36.5120 C   0  0  0  0  0  0  0  0  0  0  0  0
   43.1900   29.1740   35.7010 C   0  0  0  0  0  0  0  0  0  0  0  0
   44.1200   30.2550   35.1220 C   0  0  0  0  0  0  0  0  0  0  0  0
   44.5500   30.0020   37.2840 H   0  0  0  0  0  0  0  0  0  0  0  0
   43.6920   28.1970   35.8120 H   0  0  0  0  0  0  0  0  0  0  0  0
   42.1130   29.2620   35.5000 H   0  0  0  0  0  0  0  0  0  0  0  0
   45.1440   29.9480   34.8090 H   0  0  0  0  0  0  0  0  0  0  0  0
   43.6420   30.9010   34.3580 H   0  0  0  0  0  0  0  0  0  0  0  0
   35.8220   30.3610   38.8090 O   0  0  0  0  0  0  0  0  0  0  0  0
   35.4860   29.3290   38.0080 C   0  0  0  0  0  0  0  0  0  0  0  0
   34.7660   28.3340   38.4610 O   0  0  0  0  0  0  0  0  0  0  0  0
   36.4670   28.4680   34.5730 C   0  0  1  0  0  3  0  0  0  0  0  0
   36.8450   28.9830   35.9510 C   0  0  0  0  0  3  0  0  0  0  0  0
   37.0150   30.0720   35.8140 H   0  0  0  0  0  0  0  0  0  0  0  0
   35.5470   28.6870   36.6680 C   0  0  2  0  0  3  0  0  0  0  0  0
   34.6180   29.2380   35.7910 O   0  0  0  0  0  0  0  0  0  0  0  0
   34.9620   28.5730   34.6300 C   0  0  0  0  0  3  0  0  0  0  0  0
   34.4840   27.5600   34.7110 H   0  0  0  0  0  0  0  0  0  0  0  0
   37.0090   29.2390   33.5510 O   0  0  0  0  0  0  0  0  0  0  0  0
   37.9730   29.0260   33.5020 H   0  0  0  0  0  0  0  0  0  0  0  0
  1  7  1  6  0  0  0
  1  6  1  0  0  0  0
  1  2  1  0  0  0  0
  1 13  1  0  0  0  0
  2  8  1  1  0  0  0
  2  3  1  0  0  0  0
  3  4  1  0  0  0  0
  4 10  1  0  0  0  0
  4  9  1  0  0  0  0
  5 11  1  1  0  0  0
  5 15  1  0  0  0  0
  5  4  1  0  0  0  0
  6 12  1  6  0  0  0
  6  5  1  0  0  0  0
 14 13  1  0  0  0  0
 16 15  1  0  0  0  0
 17  2  1  0  0  0  0
 18 23  1  0  0  0  0
 18 17  1  0  0  0  0
 19 18  2  0  0  0  0
 20 21  2  0  0  0  0
 20 19  1  0  0  0  0
 21 22  1  0  0  0  0
 22 25  1  0  0  0  0
 22 23  2  0  0  0  0
 24 19  1  0  0  0  0
 26 20  1  0  0  0  0
 26 29  1  0  0  0  0
 27 30  1  0  0  0  0
 27 26  1  0  0  0  0
 28 27  1  0  0  0  0
 28 26  1  0  0  0  0
 31 27  1  0  0  0  0
 32 28  1  0  0  0  0
 33 28  1  0  0  0  0
 34  6  1  0  0  0  0
 35 36  2  0  0  0  0
 35 34  1  0  0  0  0
 37 44  1  6  0  0  0
 37 42  1  0  0  0  0
 37 38  1  0  0  0  0
 38 40  1  0  0  0  0
 39 38  1  0  0  0  0
 40 35  1  1  0  0  0
 41 40  1  0  0  0  0
 42 43  1  0  0  0  0
 42 41  1  0  0  0  0
 45 44  1  0  0  0  0
M  END
>  <minimizedAffinity>
-5.84243345

$$$$

 OpenBabel03242523563D

 45 48  0  0  1  0  0  0  0  0999 V2000
   37.6480   29.2710   42.1620 C   0  0  1  0  0  0  0  0  0  0  0  0
   39.1070   29.4370   42.5590 C   0  0  1  0  0  0  0  0  0  0  0  0
   39.5940   28.1900   42.9850 O   0  0  0  0  0  0  0  0  0  0  0  0
   38.6360   27.4480   43.6800 C   0  0  0  0  0  0  0  0  0  0  0  0
   37.5230   26.9710   42.7670 C   0  0  2  0  0  0  0  0  0  0  0  0
   37.5340   27.9260   41.5230 C   0  0  1  0  0  0  0  0  0  0  0  0
   37.3760   30.0680   41.4380 H   0  0  0  0  0  0  0  0  0  0  0  0
   39.2730   30.2140   43.3200 H   0  0  0  0  0  0  0  0  0  0  0  0
   39.1790   26.5440   44.0250 H   0  0  0  0  0  0  0  0  0  0  0  0
   38.2590   27.9640   44.5730 H   0  0  0  0  0  0  0  0  0  0  0  0
   37.6530   25.9350   42.4190 H   0  0  0  0  0  0  0  0  0  0  0  0
   38.5400   27.5690   41.1300 H   0  0  0  0  0  0  0  0  0  0  0  0
   36.8130   29.3540   43.2860 O   0  0  0  0  0  0  0  0  0  0  0  0
   35.9110   29.6500   43.0510 H   0  0  0  0  0  0  0  0  0  0  0  0
   36.2990   27.1880   43.3830 O   0  0  0  0  0  0  0  0  0  0  0  0
   35.5370   27.0860   42.7840 H   0  0  0  0  0  0  0  0  0  0  0  0
   39.7900   29.6690   41.3450 O   0  0  0  0  0  0  0  0  0  0  0  0
   39.8590   30.8530   40.7260 C   0  0  0  0  0  0  0  0  0  0  0  0
   40.3480   30.9560   39.4140 C   0  0  0  0  0  0  0  0  0  0  0  0
   40.3960   32.2050   38.8190 C   0  0  0  0  0  0  0  0  0  0  0  0
   39.9630   33.3090   39.5280 N   0  0  0  0  0  0  0  0  0  0  0  0
   39.4970   33.1740   40.7920 C   0  0  0  0  0  0  0  0  0  0  0  0
   39.4460   31.9520   41.3870 N   0  0  0  0  0  0  0  0  0  0  0  0
   40.6830   30.0830   38.8740 H   0  0  0  0  0  0  0  0  0  0  0  0
   39.1620   34.0430   41.3360 H   0  0  0  0  0  0  0  0  0  0  0  0
   40.9280   32.3960   37.4360 C   0  0  0  0  0  0  0  0  0  0  0  0
   42.1130   33.3470   37.2790 C   0  0  0  0  0  0  0  0  0  0  0  0
   42.1780   31.8270   37.0420 C   0  0  0  0  0  0  0  0  0  0  0  0
   40.1080   32.5360   36.6790 H   0  0  0  0  0  0  0  0  0  0  0  0
   42.1360   33.9240   36.3390 H   0  0  0  0  0  0  0  0  0  0  0  0
   42.5270   33.7380   38.2190 H   0  0  0  0  0  0  0  0  0  0  0  0
   42.3160   31.4680   35.9970 H   0  0  0  0  0  0  0  0  0  0  0  0
   42.8470   31.2880   37.7440 H   0  0  0  0  0  0  0  0  0  0  0  0
   36.4230   27.6780   40.8100 O   0  0  0  0  0  0  0  0  0  0  0  0
   35.9020   28.3650   39.7730 C   0  0  0  0  0  0  0  0  0  0  0  0
   34.8170   29.0830   39.9200 O   0  0  0  0  0  0  0  0  0  0  0  0
   36.9420   28.6240   36.2580 C   0  0  1  0  0  3  0  0  0  0  0  0
   36.8270   27.8040   37.5310 C   0  0  0  0  0  3  0  0  0  0  0  0
   37.8660   27.7270   37.9180 H   0  0  0  0  0  0  0  0  0  0  0  0
   35.9780   28.7580   38.3400 C   0  0  2  0  0  3  0  0  0  0  0  0
   36.6710   29.9520   38.1710 O   0  0  0  0  0  0  0  0  0  0  0  0
   36.7020   30.0160   36.7910 C   0  0  0  0  0  3  0  0  0  0  0  0
   35.6930   30.4030   36.4850 H   0  0  0  0  0  0  0  0  0  0  0  0
   38.1890   28.5000   35.6560 O   0  0  0  0  0  0  0  0  0  0  0  0
   38.2230   27.6090   35.2320 H   0  0  0  0  0  0  0  0  0  0  0  0
  1  7  1  6  0  0  0
  1  2  1  0  0  0  0
  1 13  1  0  0  0  0
  2  3  1  0  0  0  0
  2  8  1  1  0  0  0
  3  4  1  0  0  0  0
  4  9  1  0  0  0  0
  4 10  1  0  0  0  0
  5 11  1  6  0  0  0
  5 15  1  0  0  0  0
  5  4  1  0  0  0  0
  6 12  1  6  0  0  0
  6  1  1  0  0  0  0
  6  5  1  0  0  0  0
 14 13  1  0  0  0  0
 16 15  1  0  0  0  0
 17  2  1  0  0  0  0
 18 17  1  0  0  0  0
 18 23  1  0  0  0  0
 19 18  2  0  0  0  0
 20 19  1  0  0  0  0
 20 21  2  0  0  0  0
 21 22  1  0  0  0  0
 22 25  1  0  0  0  0
 22 23  2  0  0  0  0
 24 19  1  0  0  0  0
 26 20  1  0  0  0  0
 27 26  1  0  0  0  0
 27 31  1  0  0  0  0
 28 27  1  0  0  0  0
 28 26  1  0  0  0  0
 28 33  1  0  0  0  0
 29 26  1  0  0  0  0
 30 27  1  0  0  0  0
 32 28  1  0  0  0  0
 34  6  1  0  0  0  0
 35 36  2  0  0  0  0
 35 34  1  0  0  0  0
 37 44  1  1  0  0  0
 37 42  1  0  0  0  0
 37 38  1  0  0  0  0
 38 39  1  0  0  0  0
 38 40  1  0  0  0  0
 40 35  1  1  0  0  0
 41 40  1  0  0  0  0
 42 41  1  0  0  0  0
 43 42  1  0  0  0  0
 45 44  1  0  0  0  0
M  END
>  <minimizedAffinity>
-5.77595377

$$$$

 OpenBabel03242523563D

 45 48  0  0  1  0  0  0  0  0999 V2000
   38.5660   30.3840   39.7190 C   0  0  1  0  0  0  0  0  0  0  0  0
   37.8250   30.7970   40.9810 C   0  0  1  0  0  0  0  0  0  0  0  0
   36.8620   31.7590   40.6350 O   0  0  0  0  0  0  0  0  0  0  0  0
   37.3020   32.6190   39.6250 C   0  0  0  0  0  0  0  0  0  0  0  0
   37.4200   31.9080   38.2920 C   0  0  2  0  0  0  0  0  0  0  0  0
   37.5560   30.3800   38.6180 C   0  0  1  0  0  0  0  0  0  0  0  0
   38.9870   29.3660   39.8610 H   0  0  0  0  0  0  0  0  0  0  0  0
   38.4850   31.1600   41.7830 H   0  0  0  0  0  0  0  0  0  0  0  0
   36.4880   33.3670   39.5200 H   0  0  0  0  0  0  0  0  0  0  0  0
   38.2150   33.1660   39.8950 H   0  0  0  0  0  0  0  0  0  0  0  0
   36.5470   32.0540   37.6360 H   0  0  0  0  0  0  0  0  0  0  0  0
   36.5000   30.2700   39.0260 H   0  0  0  0  0  0  0  0  0  0  0  0
   39.6020   31.2850   39.4310 O   0  0  0  0  0  0  0  0  0  0  0  0
   40.3160   30.8670   38.9100 H   0  0  0  0  0  0  0  0  0  0  0  0
   38.6180   32.2600   37.6870 O   0  0  0  0  0  0  0  0  0  0  0  0
   38.8500   31.6990   36.9240 H   0  0  0  0  0  0  0  0  0  0  0  0
   37.0570   29.6660   41.3390 O   0  0  0  0  0  0  0  0  0  0  0  0
   37.5500   28.5650   41.9180 C   0  0  0  0  0  0  0  0  0  0  0  0
   36.9870   27.3040   41.6700 C   0  0  0  0  0  0  0  0  0  0  0  0
   37.5360   26.1970   42.2930 C   0  0  0  0  0  0  0  0  0  0  0  0
   38.6170   26.3630   43.1380 N   0  0  0  0  0  0  0  0  0  0  0  0
   39.1350   27.5950   43.3550 C   0  0  0  0  0  0  0  0  0  0  0  0
   38.6030   28.6900   42.7480 N   0  0  0  0  0  0  0  0  0  0  0  0
   36.1410   27.1910   41.0080 H   0  0  0  0  0  0  0  0  0  0  0  0
   39.9800   27.7130   44.0160 H   0  0  0  0  0  0  0  0  0  0  0  0
   36.9750   24.8260   42.0980 C   0  0  0  0  0  0  0  0  0  0  0  0
   36.6210   24.4240   40.6680 C   0  0  0  0  0  0  0  0  0  0  0  0
   37.7530   23.7900   41.4960 C   0  0  0  0  0  0  0  0  0  0  0  0
   36.1930   24.5720   42.8660 H   0  0  0  0  0  0  0  0  0  0  0  0
   35.7470   23.7580   40.5650 H   0  0  0  0  0  0  0  0  0  0  0  0
   36.8980   25.1540   39.8940 H   0  0  0  0  0  0  0  0  0  0  0  0
   37.6250   22.7370   41.8340 H   0  0  0  0  0  0  0  0  0  0  0  0
   38.7670   23.9590   41.0800 H   0  0  0  0  0  0  0  0  0  0  0  0
   37.8910   29.7490   37.4800 O   0  0  0  0  0  0  0  0  0  0  0  0
   37.1640   28.8960   36.7300 C   0  0  0  0  0  0  0  0  0  0  0  0
   37.6160   28.4580   35.5810 O   0  0  0  0  0  0  0  0  0  0  0  0
   33.6320   27.8930   36.5850 C   0  0  1  0  0  3  0  0  0  0  0  0
   34.6920   28.9720   36.4490 C   0  0  0  0  0  3  0  0  0  0  0  0
   34.5560   29.6230   37.3380 H   0  0  0  0  0  0  0  0  0  0  0  0
   35.9210   28.0980   36.5550 C   0  0  2  0  0  3  0  0  0  0  0  0
   35.6270   27.3490   37.6910 O   0  0  0  0  0  0  0  0  0  0  0  0
   34.4050   26.8230   37.3190 C   0  0  0  0  0  3  0  0  0  0  0  0
   34.6430   25.9560   36.6460 H   0  0  0  0  0  0  0  0  0  0  0  0
   32.5230   28.3250   37.3040 O   0  0  0  0  0  0  0  0  0  0  0  0
   32.0080   28.9290   36.7150 H   0  0  0  0  0  0  0  0  0  0  0  0
  1  7  1  1  0  0  0
  1  2  1  0  0  0  0
  2 17  1  0  0  0  0
  2  8  1  1  0  0  0
  3  2  1  0  0  0  0
  4 10  1  0  0  0  0
  4  3  1  0  0  0  0
  5 11  1  6  0  0  0
  5  6  1  0  0  0  0
  5  4  1  0  0  0  0
  6 12  1  1  0  0  0
  6  1  1  0  0  0  0
  9  4  1  0  0  0  0
 13  1  1  0  0  0  0
 14 13  1  0  0  0  0
 15  5  1  0  0  0  0
 16 15  1  0  0  0  0
 17 18  1  0  0  0  0
 18 23  1  0  0  0  0
 19 18  2  0  0  0  0
 19 20  1  0  0  0  0
 20 21  2  0  0  0  0
 21 22  1  0  0  0  0
 22 25  1  0  0  0  0
 23 22  2  0  0  0  0
 24 19  1  0  0  0  0
 26 20  1  0  0  0  0
 26 29  1  0  0  0  0
 27 28  1  0  0  0  0
 27 26  1  0  0  0  0
 28 32  1  0  0  0  0
 28 26  1  0  0  0  0
 30 27  1  0  0  0  0
 31 27  1  0  0  0  0
 33 28  1  0  0  0  0
 34  6  1  0  0  0  0
 35 34  1  0  0  0  0
 36 35  2  0  0  0  0
 37 44  1  1  0  0  0
 37 42  1  0  0  0  0
 38 40  1  0  0  0  0
 38 37  1  0  0  0  0
 38 39  1  0  0  0  0
 40 35  1  1  0  0  0
 40 41  1  0  0  0  0
 42 41  1  0  0  0  0
 43 42  1  0  0  0  0
 45 44  1  0  0  0  0
M  END
>  <minimizedAffinity>
-5.75996351

$$$$

 OpenBabel03242523563D

 45 48  0  0  1  0  0  0  0  0999 V2000
   39.6920   30.3870   38.5770 C   0  0  1  0  0  0  0  0  0  0  0  0
   40.8820   29.4770   38.8410 C   0  0  1  0  0  0  0  0  0  0  0  0
   42.0510   30.1560   38.4570 O   0  0  0  0  0  0  0  0  0  0  0  0
   41.8630   30.9490   37.3230 C   0  0  0  0  0  0  0  0  0  0  0  0
   40.9780   32.1450   37.6140 C   0  0  2  0  0  0  0  0  0  0  0  0
   40.1440   31.7760   38.8900 C   0  0  1  0  0  0  0  0  0  0  0  0
   38.8550   30.0930   39.2460 H   0  0  0  0  0  0  0  0  0  0  0  0
   40.8070   28.4970   38.3490 H   0  0  0  0  0  0  0  0  0  0  0  0
   42.8730   31.3460   37.0890 H   0  0  0  0  0  0  0  0  0  0  0  0
   41.5270   30.3760   36.4500 H   0  0  0  0  0  0  0  0  0  0  0  0
   41.5390   33.0710   37.8140 H   0  0  0  0  0  0  0  0  0  0  0  0
   41.0360   31.7710   39.5960 H   0  0  0  0  0  0  0  0  0  0  0  0
   39.2800   30.2940   37.2400 O   0  0  0  0  0  0  0  0  0  0  0  0
   38.3350   30.5210   37.1310 H   0  0  0  0  0  0  0  0  0  0  0  0
   40.0450   32.2850   36.5960 O   0  0  0  0  0  0  0  0  0  0  0  0
   39.3270   32.9080   36.8080 H   0  0  0  0  0  0  0  0  0  0  0  0
   40.9810   29.4070   40.2490 O   0  0  0  0  0  0  0  0  0  0  0  0
   40.1040   28.7790   41.0420 C   0  0  0  0  0  0  0  0  0  0  0  0
   39.5930   27.5180   40.6980 C   0  0  0  0  0  0  0  0  0  0  0  0
   38.6910   26.9110   41.5540 C   0  0  0  0  0  0  0  0  0  0  0  0
   38.3210   27.5600   42.7170 N   0  0  0  0  0  0  0  0  0  0  0  0
   38.8340   28.7760   43.0180 C   0  0  0  0  0  0  0  0  0  0  0  0
   39.7210   29.3820   42.1830 N   0  0  0  0  0  0  0  0  0  0  0  0
   39.8920   27.0260   39.7850 H   0  0  0  0  0  0  0  0  0  0  0  0
   38.5380   29.2730   43.9290 H   0  0  0  0  0  0  0  0  0  0  0  0
   38.0840   25.5820   41.2420 C   0  0  0  0  0  0  0  0  0  0  0  0
   38.4910   24.4130   42.1370 C   0  0  0  0  0  0  0  0  0  0  0  0
   37.0760   25.0170   42.0830 C   0  0  0  0  0  0  0  0  0  0  0  0
   38.0930   25.3570   40.1400 H   0  0  0  0  0  0  0  0  0  0  0  0
   38.5530   23.4310   41.6360 H   0  0  0  0  0  0  0  0  0  0  0  0
   39.1300   24.6780   42.9920 H   0  0  0  0  0  0  0  0  0  0  0  0
   36.2640   24.4020   41.6320 H   0  0  0  0  0  0  0  0  0  0  0  0
   36.7470   25.4850   43.0330 H   0  0  0  0  0  0  0  0  0  0  0  0
   39.1920   32.7120   39.0390 O   0  0  0  0  0  0  0  0  0  0  0  0
   37.8910   32.5640   39.3630 C   0  0  0  0  0  0  0  0  0  0  0  0
   37.1610   33.5960   39.7050 O   0  0  0  0  0  0  0  0  0  0  0  0
   35.6010   30.0090   40.6790 C   0  0  1  0  0  3  0  0  0  0  0  0
   36.6800   31.0490   40.9230 C   0  0  0  0  0  3  0  0  0  0  0  0
   37.5960   30.4650   41.1540 H   0  0  0  0  0  0  0  0  0  0  0  0
   36.7190   31.6650   39.5430 C   0  0  2  0  0  3  0  0  0  0  0  0
   36.8130   30.5320   38.7410 O   0  0  0  0  0  0  0  0  0  0  0  0
   35.7040   29.8360   39.1820 C   0  0  0  0  0  3  0  0  0  0  0  0
   34.8270   30.3010   38.6550 H   0  0  0  0  0  0  0  0  0  0  0  0
   35.8410   28.8220   41.3620 O   0  0  0  0  0  0  0  0  0  0  0  0
   35.6390   28.9860   42.3150 H   0  0  0  0  0  0  0  0  0  0  0  0
  1  2  1  0  0  0  0
  1  6  1  0  0  0  0
  1  7  1  1  0  0  0
  2  8  1  6  0  0  0
  2 17  1  0  0  0  0
  3  2  1  0  0  0  0
  4  5  1  0  0  0  0
  4  3  1  0  0  0  0
  5 11  1  1  0  0  0
  5  6  1  0  0  0  0
  6 34  1  0  0  0  0
  6 12  1  1  0  0  0
  9  4  1  0  0  0  0
 10  4  1  0  0  0  0
 13  1  1  0  0  0  0
 14 13  1  0  0  0  0
 15 16  1  0  0  0  0
 15  5  1  0  0  0  0
 17 18  1  0  0  0  0
 18 23  1  0  0  0  0
 19 18  2  0  0  0  0
 19 20  1  0  0  0  0
 20 21  2  0  0  0  0
 21 22  1  0  0  0  0
 22 25  1  0  0  0  0
 23 22  2  0  0  0  0
 24 19  1  0  0  0  0
 26 20  1  0  0  0  0
 26 28  1  0  0  0  0
 26 27  1  0  0  0  0
 27 31  1  0  0  0  0
 28 27  1  0  0  0  0
 28 33  1  0  0  0  0
 29 26  1  0  0  0  0
 30 27  1  0  0  0  0
 32 28  1  0  0  0  0
 34 35  1  0  0  0  0
 35 36  2  0  0  0  0
 37 38  1  0  0  0  0
 37 44  1  1  0  0  0
 38 39  1  0  0  0  0
 40 35  1  1  0  0  0
 40 38  1  0  0  0  0
 41 42  1  0  0  0  0
 41 40  1  0  0  0  0
 42 37  1  0  0  0  0
 43 42  1  0  0  0  0
 44 45  1  0  0  0  0
M  END
>  <minimizedAffinity>
-5.74876356

$$$$
