
 OpenBabel03252506453D

 42 45  0  0  1  0  0  0  0  0999 V2000
   49.5020   33.4170   41.3180 N   0  0  1  0  0  0  0  0  0  0  0  0
   50.7110   33.0730   42.0370 C   0  0  0  0  0  0  0  0  0  0  0  0
   51.2900   31.7580   41.5990 C   0  0  0  0  0  0  0  0  0  0  0  0
   50.3420   30.6670   42.0650 C   0  0  0  0  0  0  0  0  0  0  0  0
   48.9050   31.1010   41.8820 C   0  0  0  0  0  0  0  0  0  0  0  0
   48.8500   32.2220   40.8820 C   0  0  2  0  0  0  0  0  0  0  0  0
   51.4290   33.9110   42.0420 H   0  0  0  0  0  0  0  0  0  0  0  0
   50.4050   32.9220   43.1110 H   0  0  0  0  0  0  0  0  0  0  0  0
   52.2480   31.6380   42.1630 H   0  0  0  0  0  0  0  0  0  0  0  0
   51.5480   31.6850   40.5420 H   0  0  0  0  0  0  0  0  0  0  0  0
   50.5570   30.4180   43.1330 H   0  0  0  0  0  0  0  0  0  0  0  0
   50.5290   29.7690   41.4810 H   0  0  0  0  0  0  0  0  0  0  0  0
   48.6440   31.5950   42.8700 H   0  0  0  0  0  0  0  0  0  0  0  0
   48.1800   30.3160   41.7680 H   0  0  0  0  0  0  0  0  0  0  0  0
   47.7560   32.5200   40.9080 H   0  0  0  0  0  0  0  0  0  0  0  0
   47.3260   34.6720   41.9020 C   0  0  1  0  0  0  0  0  0  0  0  0
   48.4360   35.6320   41.6860 C   0  0  0  0  0  0  0  0  0  0  0  0
   48.7320   34.2650   42.1570 C   0  0  2  0  0  0  0  0  0  0  0  0
   46.8540   34.2680   40.9690 H   0  0  0  0  0  0  0  0  0  0  0  0
   48.7640   35.9400   40.6830 H   0  0  0  0  0  0  0  0  0  0  0  0
   48.5720   36.4400   42.4480 H   0  0  0  0  0  0  0  0  0  0  0  0
   48.9530   34.1150   43.2540 H   0  0  0  0  0  0  0  0  0  0  0  0
   45.5640   36.0180   43.0870 C   0  0  0  0  0  0  0  0  0  0  0  0
   46.4060   34.8920   43.0170 C   0  0  0  0  0  0  0  0  0  0  0  0
   46.3150   33.9640   44.0790 C   0  0  0  0  0  0  0  0  0  0  0  0
   45.4400   34.1970   45.0920 N   0  0  0  0  0  0  0  0  0  0  0  0
   44.6500   35.2920   45.1200 C   0  0  0  0  0  0  0  0  0  0  0  0
   44.7040   36.2140   44.1180 N   0  0  0  0  0  0  0  0  0  0  0  0
   45.6320   36.7290   42.2770 H   0  0  0  0  0  0  0  0  0  0  0  0
   46.9430   33.0860   44.0650 H   0  0  0  0  0  0  0  0  0  0  0  0
   43.9450   35.5010   45.9150 H   0  0  0  0  0  0  0  0  0  0  0  0
   49.2550   31.7870   39.6040 N   0  0  0  0  0  0  0  0  0  0  0  0
   50.2800   31.7860   39.5210 H   0  0  0  0  0  0  0  0  0  0  0  0
   49.2670   32.8430   37.3670 C   0  0  1  0  0  3  0  0  0  0  0  0
   48.5940   32.0250   38.4280 C   0  0  2  0  0  3  0  0  0  0  0  0
   47.2270   32.6260   38.4270 C   0  0  0  0  0  3  0  0  0  0  0  0
   46.6720   32.4840   39.3560 H   0  0  0  0  0  0  0  0  0  0  0  0
   47.3430   33.9380   37.9920 O   0  0  0  0  0  0  0  0  0  0  0  0
   48.6100   34.1850   37.5550 C   0  0  0  0  0  3  0  0  0  0  0  0
   49.1160   34.8740   38.2250 H   0  0  0  0  0  0  0  0  0  0  0  0
   50.6260   32.8600   37.3680 O   0  0  0  0  0  0  0  0  0  0  0  0
   50.9350   33.8080   37.5020 H   0  0  0  0  0  0  0  0  0  0  0  0
  1  2  1  1  0  0  0
  1 18  1  0  0  0  0
  2  7  1  0  0  0  0
  2  8  1  0  0  0  0
  3  2  1  0  0  0  0
  3  4  1  0  0  0  0
  3  9  1  0  0  0  0
  4 11  1  0  0  0  0
  5  4  1  0  0  0  0
  5 13  1  0  0  0  0
  6 15  1  6  0  0  0
  6  1  1  0  0  0  0
  6  5  1  0  0  0  0
 10  3  1  0  0  0  0
 12  4  1  0  0  0  0
 14  5  1  0  0  0  0
 16 19  1  6  0  0  0
 16 18  1  0  0  0  0
 16 24  1  0  0  0  0
 17 16  1  0  0  0  0
 17 18  1  0  0  0  0
 17 21  1  0  0  0  0
 18 22  1  1  0  0  0
 20 17  1  0  0  0  0
 23 28  1  0  0  0  0
 24 23  2  0  0  0  0
 24 25  1  0  0  0  0
 25 26  2  0  0  0  0
 26 27  1  0  0  0  0
 27 31  1  0  0  0  0
 28 27  2  0  0  0  0
 29 23  1  0  0  0  0
 30 25  1  0  0  0  0
 32  6  1  0  0  0  0
 33 32  1  0  0  0  0
 34 41  1  1  0  0  0
 34 39  1  0  0  0  0
 34 35  1  0  0  0  0
 35 32  1  1  0  0  0
 36 35  1  0  0  0  0
 36 37  1  0  0  0  0
 38 36  1  0  0  0  0
 39 38  1  0  0  0  0
 39 40  1  0  0  0  0
 41 42  1  0  0  0  0
M  END
>  <minimizedAffinity>
-5.61954641

>  <minimizedRMSD>
1.65682793

$$$$
