
 OpenBabel03242512083D

 33 35  0  0  1  0  0  0  0  0999 V2000
   48.3020   34.5720   41.2840 C   0  0  1  0  0  0  0  0  0  0  0  0
   48.9530   35.8980   41.8420 C   0  0  0  0  0  0  0  0  0  0  0  0
   49.1780   34.5830   42.4520 C   0  0  2  0  0  0  0  0  0  0  0  0
   48.7230   34.3170   40.3070 H   0  0  0  0  0  0  0  0  0  0  0  0
   49.7200   36.3700   41.2100 H   0  0  0  0  0  0  0  0  0  0  0  0
   48.2540   36.6410   42.2720 H   0  0  0  0  0  0  0  0  0  0  0  0
   48.6810   34.2490   43.3740 H   0  0  0  0  0  0  0  0  0  0  0  0
   46.8220   34.5730   41.4500 C   0  0  0  0  0  0  0  0  0  0  0  0
   46.1430   34.3410   40.4530 O   0  0  0  0  0  0  0  0  0  0  0  0
   45.4490   35.9560   42.9310 C   0  0  0  0  0  0  0  0  0  0  0  0
   46.1450   34.8220   42.6780 C   0  0  0  0  0  0  0  0  0  0  0  0
   46.1840   33.8410   43.7080 C   0  0  0  0  0  0  0  0  0  0  0  0
   45.5450   34.0580   44.8810 N   0  0  0  0  0  0  0  0  0  0  0  0
   44.8570   35.2190   45.0850 C   0  0  0  0  0  0  0  0  0  0  0  0
   44.8170   36.1350   44.1300 N   0  0  0  0  0  0  0  0  0  0  0  0
   45.4080   36.7130   42.1600 H   0  0  0  0  0  0  0  0  0  0  0  0
   46.6910   32.9080   43.6360 H   0  0  0  0  0  0  0  0  0  0  0  0
   44.3200   35.4800   45.9790 H   0  0  0  0  0  0  0  0  0  0  0  0
   50.4890   34.1310   42.3500 O   0  0  0  0  0  0  0  0  0  0  0  0
   49.0350   32.0080   42.5030 O   0  0  0  0  0  0  0  0  0  0  0  0
   50.4060   32.4620   42.0400 P   0  0  2  0  0  0  0  0  0  0  0  0
   51.6240   31.5870   42.7590 O   0  0  0  0  0  0  0  0  0  0  0  0
   52.4190   32.1270   42.9490 H   0  0  0  0  0  0  0  0  0  0  0  0
   50.3940   32.2540   40.3310 O   0  0  0  0  0  0  0  0  0  0  0  0
   51.2510   31.0590   38.4250 C   0  0  2  0  0  0  0  0  0  0  0  0
   51.2070   31.2070   39.9320 C   0  0  1  0  0  0  0  0  0  0  0  0
   52.6350   31.6150   40.2260 C   0  0  0  0  0  0  0  0  0  0  0  0
   52.7100   32.7320   40.2180 H   0  0  0  0  0  0  0  0  0  0  0  0
   53.4420   31.1620   39.2130 O   0  0  0  0  0  0  0  0  0  0  0  0
   52.6800   30.5950   38.2340 C   0  0  0  0  0  0  0  0  0  0  0  0
   52.6840   29.4820   38.4140 H   0  0  0  0  0  0  0  0  0  0  0  0
   51.1180   32.2960   37.8200 O   0  0  0  0  0  0  0  0  0  0  0  0
   50.1430   32.5580   37.8410 H   0  0  0  0  0  0  0  0  0  0  0  0
  1  4  1  6  0  0  0
  1  8  1  0  0  0  0
  1  2  1  0  0  0  0
  1  3  1  0  0  0  0
  2  6  1  0  0  0  0
  2  3  1  0  0  0  0
  3  7  1  1  0  0  0
  5  2  1  0  0  0  0
  8 11  1  0  0  0  0
  9  8  2  0  0  0  0
 10 15  1  0  0  0  0
 11 10  2  0  0  0  0
 11 12  1  0  0  0  0
 12 13  2  0  0  0  0
 13 14  1  0  0  0  0
 14 18  1  0  0  0  0
 15 14  2  0  0  0  0
 16 10  1  0  0  0  0
 17 12  1  0  0  0  0
 19  3  1  0  0  0  0
 21 19  1  0  0  0  0
 21 20  2  1  0  0  0
 21 22  1  0  0  0  0
 22 23  1  0  0  0  0
 24 21  1  0  0  0  0
 25 32  1  6  0  0  0
 25 26  1  0  0  0  0
 26 27  1  0  0  0  0
 26 24  1  6  0  0  0
 28 27  1  0  0  0  0
 29 27  1  0  0  0  0
 30 31  1  0  0  0  0
 30 25  1  0  0  0  0
 30 29  1  0  0  0  0
 32 33  1  0  0  0  0
M  END
>  <minimizedAffinity>
-5.40439892

>  <minimizedRMSD>
0.431765288

$$$$
