
 OpenBabel03252504343D

 40 42  0  0  1  0  0  0  0  0999 V2000
   36.8820   30.5950   39.8860 O   0  0  0  0  0  0  0  0  0  0  0  0
   36.9930   31.8010   40.5060 C   0  0  0  0  0  0  0  0  0  0  0  0
   36.1760   32.5430   40.2880 H   0  0  0  0  0  0  0  0  0  0  0  0
   37.0070   31.6890   41.6120 H   0  0  0  0  0  0  0  0  0  0  0  0
   38.8560   32.0890   38.9540 C   0  0  0  0  0  0  0  0  0  0  0  0
   38.2440   32.5400   40.1440 C   0  0  0  0  0  0  0  0  0  0  0  0
   38.8300   33.5680   40.8060 C   0  0  0  0  0  0  0  0  0  0  0  0
   39.9450   34.0730   40.2800 N   0  0  0  0  0  0  0  0  0  0  0  0
   40.5250   33.6600   39.1710 C   0  0  0  0  0  0  0  0  0  0  0  0
   39.9810   32.6100   38.4360 N   0  0  0  0  0  0  0  0  0  0  0  0
   38.4650   31.2760   38.3550 H   0  0  0  0  0  0  0  0  0  0  0  0
   38.3390   33.8770   41.6960 H   0  0  0  0  0  0  0  0  0  0  0  0
   42.3180   33.5680   37.4970 C   0  0  2  0  0  3  0  0  0  0  0  0
   41.7710   34.3060   38.6790 C   0  0  2  0  0  3  0  0  0  0  0  0
   42.8430   34.0090   39.7340 C   0  0  0  0  0  3  0  0  0  0  0  0
   42.9520   34.8690   40.4160 H   0  0  0  0  0  0  0  0  0  0  0  0
   44.0220   33.7730   39.0040 O   0  0  0  0  0  0  0  0  0  0  0  0
   43.5400   32.8480   38.0650 C   0  0  0  0  0  3  0  0  0  0  0  0
   44.3020   32.6890   37.2810 H   0  0  0  0  0  0  0  0  0  0  0  0
   42.8060   34.4850   36.5660 O   0  0  0  0  0  0  0  0  0  0  0  0
   43.5570   34.9890   36.9830 H   0  0  0  0  0  0  0  0  0  0  0  0
   36.8870   29.3340   40.4610 C   0  0  0  0  0  3  0  0  0  0  0  0
   36.9340   29.2960   41.7870 C   0  0  0  0  0  3  0  0  0  0  0  0
   36.9460   28.0420   42.6380 C   0  0  0  0  0  0  0  0  0  0  0  0
   35.9240   28.0120   43.0990 H   0  0  0  0  0  0  0  0  0  0  0  0
   37.0400   27.1480   42.0170 H   0  0  0  0  0  0  0  0  0  0  0  0
   37.9190   28.2010   43.6020 O   0  0  0  0  0  0  0  0  0  0  0  0
   40.4760   28.3490   42.8650 O   0  0  0  0  0  0  0  0  0  0  0  0
   39.3350   27.4020   43.1590 P   0  0  1  0  0  0  0  0  0  0  0  0
   39.8510   26.3870   44.4290 O   0  0  0  0  0  0  0  0  0  0  0  0
   39.0020   25.9890   44.7980 H   0  0  0  0  0  0  0  0  0  0  0  0
   39.0500   26.4100   41.8250 O   0  0  0  0  0  0  0  0  0  0  0  0
   39.0620   25.0690   42.1560 C   0  0  0  0  0  0  0  0  0  0  0  0
   38.7070   24.0600   41.1050 C   0  0  0  0  0  0  0  0  0  0  0  0
   37.7090   24.4000   42.1890 C   0  0  0  0  0  0  0  0  0  0  0  0
   39.8010   24.7140   42.8970 H   0  0  0  0  0  0  0  0  0  0  0  0
   39.1350   23.0430   41.2000 H   0  0  0  0  0  0  0  0  0  0  0  0
   38.5280   24.4610   40.0950 H   0  0  0  0  0  0  0  0  0  0  0  0
   36.8140   24.9470   41.8330 H   0  0  0  0  0  0  0  0  0  0  0  0
   37.4770   23.6530   42.9620 H   0  0  0  0  0  0  0  0  0  0  0  0
  1 22  1  0  0  0  0
  1  2  1  0  0  0  0
  2  4  1  0  0  0  0
  3  2  1  0  0  0  0
  5  6  1  0  0  0  0
  6  2  1  0  0  0  0
  6  7  2  0  0  0  0
  7 12  1  0  0  0  0
  8  7  1  0  0  0  0
  9  8  2  0  0  0  0
 10  5  2  0  0  0  0
 10  9  1  0  0  0  0
 11  5  1  0  0  0  0
 13 20  1  6  0  0  0
 13 18  1  0  0  0  0
 13 14  1  0  0  0  0
 14  9  1  1  0  0  0
 14 15  1  0  0  0  0
 15 16  1  0  0  0  0
 17 15  1  0  0  0  0
 18 17  1  0  0  0  0
 19 18  1  0  0  0  0
 20 21  1  0  0  0  0
 22 23  2  0  0  0  0
 23 24  1  0  0  0  0
 24 25  1  0  0  0  0
 24 27  1  0  0  0  0
 26 24  1  0  0  0  0
 29 28  2  6  0  0  0
 29 27  1  0  0  0  0
 29 30  1  0  0  0  0
 30 31  1  0  0  0  0
 32 33  1  0  0  0  0
 32 29  1  0  0  0  0
 33 35  1  0  0  0  0
 33 36  1  0  0  0  0
 34 37  1  0  0  0  0
 34 33  1  0  0  0  0
 34 35  1  0  0  0  0
 35 40  1  0  0  0  0
 38 34  1  0  0  0  0
 39 35  1  0  0  0  0
M  END
>  <minimizedAffinity>
-5.51560402

$$$$

 OpenBabel03252504343D

 40 42  0  0  1  0  0  0  0  0999 V2000
   37.4210   32.6220   40.5400 O   0  0  0  0  0  0  0  0  0  0  0  0
   36.6850   31.5760   40.0770 C   0  0  0  0  0  0  0  0  0  0  0  0
   35.5680   31.7090   40.1070 H   0  0  0  0  0  0  0  0  0  0  0  0
   36.9290   31.3450   39.0160 H   0  0  0  0  0  0  0  0  0  0  0  0
   38.1340   30.2660   41.5410 C   0  0  0  0  0  0  0  0  0  0  0  0
   36.9080   30.3090   40.8430 C   0  0  0  0  0  0  0  0  0  0  0  0
   36.0850   29.2350   40.9440 C   0  0  0  0  0  0  0  0  0  0  0  0
   36.5020   28.2190   41.6970 N   0  0  0  0  0  0  0  0  0  0  0  0
   37.6430   28.1680   42.3530 C   0  0  0  0  0  0  0  0  0  0  0  0
   38.5400   29.2330   42.2980 N   0  0  0  0  0  0  0  0  0  0  0  0
   38.8570   31.0720   41.5240 H   0  0  0  0  0  0  0  0  0  0  0  0
   35.1730   29.3070   40.4030 H   0  0  0  0  0  0  0  0  0  0  0  0
   39.4840   26.7790   43.1940 C   0  0  2  0  0  3  0  0  0  0  0  0
   38.0000   26.9750   43.1670 C   0  0  2  0  0  3  0  0  0  0  0  0
   37.5570   25.7590   42.3460 C   0  0  0  0  0  3  0  0  0  0  0  0
   36.5720   25.4040   42.6960 H   0  0  0  0  0  0  0  0  0  0  0  0
   38.5580   24.7920   42.5510 O   0  0  0  0  0  0  0  0  0  0  0  0
   39.6970   25.5700   42.2860 C   0  0  0  0  0  3  0  0  0  0  0  0
   40.6010   25.0090   42.5820 H   0  0  0  0  0  0  0  0  0  0  0  0
   39.8730   26.3770   44.4720 O   0  0  0  0  0  0  0  0  0  0  0  0
   39.4470   25.4990   44.6700 H   0  0  0  0  0  0  0  0  0  0  0  0
   38.1790   33.5240   39.8100 C   0  0  0  0  0  3  0  0  0  0  0  0
   39.1020   34.1970   40.4880 C   0  0  0  0  0  3  0  0  0  0  0  0
   40.0490   35.2290   39.9110 C   0  0  0  0  0  0  0  0  0  0  0  0
   39.8570   35.1920   38.8070 H   0  0  0  0  0  0  0  0  0  0  0  0
   39.7820   36.2340   40.2460 H   0  0  0  0  0  0  0  0  0  0  0  0
   41.3340   34.8260   40.2040 O   0  0  0  0  0  0  0  0  0  0  0  0
   41.2890   33.3280   37.9990 O   0  0  0  0  0  0  0  0  0  0  0  0
   42.1230   34.2900   38.8140 P   0  0  1  0  0  0  0  0  0  0  0  0
   42.4800   35.6150   37.8010 O   0  0  0  0  0  0  0  0  0  0  0  0
   42.7610   36.3490   38.4310 H   0  0  0  0  0  0  0  0  0  0  0  0
   43.5950   33.5750   39.2210 O   0  0  0  0  0  0  0  0  0  0  0  0
   44.6130   33.9420   38.3620 C   0  0  0  0  0  0  0  0  0  0  0  0
   45.0590   32.9710   37.3110 C   0  0  0  0  0  0  0  0  0  0  0  0
   45.9100   33.1910   38.5410 C   0  0  0  0  0  0  0  0  0  0  0  0
   44.6990   35.0030   38.0680 H   0  0  0  0  0  0  0  0  0  0  0  0
   45.5050   33.3810   36.3840 H   0  0  0  0  0  0  0  0  0  0  0  0
   44.4820   32.0350   37.2450 H   0  0  0  0  0  0  0  0  0  0  0  0
   45.9560   32.3230   39.2290 H   0  0  0  0  0  0  0  0  0  0  0  0
   46.8730   33.7140   38.4440 H   0  0  0  0  0  0  0  0  0  0  0  0
  2  3  1  0  0  0  0
  2  1  1  0  0  0  0
  2  6  1  0  0  0  0
  4  2  1  0  0  0  0
  5 10  1  0  0  0  0
  6  7  1  0  0  0  0
  6  5  2  0  0  0  0
  7  8  2  0  0  0  0
  8  9  1  0  0  0  0
 10  9  2  0  0  0  0
 11  5  1  0  0  0  0
 12  7  1  0  0  0  0
 13 20  1  1  0  0  0
 14  9  1  6  0  0  0
 14 13  1  0  0  0  0
 15 17  1  0  0  0  0
 15 16  1  0  0  0  0
 15 14  1  0  0  0  0
 18 17  1  0  0  0  0
 18 19  1  0  0  0  0
 18 13  1  0  0  0  0
 20 21  1  0  0  0  0
 22 23  2  0  0  0  0
 22  1  1  0  0  0  0
 24 27  1  0  0  0  0
 24 26  1  0  0  0  0
 24 23  1  0  0  0  0
 25 24  1  0  0  0  0
 29 28  2  6  0  0  0
 29 32  1  0  0  0  0
 29 27  1  0  0  0  0
 30 31  1  0  0  0  0
 30 29  1  0  0  0  0
 33 35  1  0  0  0  0
 33 32  1  0  0  0  0
 34 33  1  0  0  0  0
 34 35  1  0  0  0  0
 35 39  1  0  0  0  0
 36 33  1  0  0  0  0
 37 34  1  0  0  0  0
 38 34  1  0  0  0  0
 40 35  1  0  0  0  0
M  END
>  <minimizedAffinity>
-5.36239815

$$$$

 OpenBabel03252504343D

 40 42  0  0  1  0  0  0  0  0999 V2000
   36.2420   29.7780   36.6000 O   0  0  0  0  0  0  0  0  0  0  0  0
   35.3210   28.9870   37.2140 C   0  0  0  0  0  0  0  0  0  0  0  0
   34.3200   29.4610   37.4120 H   0  0  0  0  0  0  0  0  0  0  0  0
   35.1070   28.0740   36.6160 H   0  0  0  0  0  0  0  0  0  0  0  0
   35.2510   29.2790   39.6360 C   0  0  0  0  0  0  0  0  0  0  0  0
   35.7550   28.5100   38.5650 C   0  0  0  0  0  0  0  0  0  0  0  0
   36.5470   27.4510   38.8650 C   0  0  0  0  0  0  0  0  0  0  0  0
   36.7890   27.2180   40.1540 N   0  0  0  0  0  0  0  0  0  0  0  0
   36.3240   27.9280   41.1620 C   0  0  0  0  0  0  0  0  0  0  0  0
   35.5040   29.0310   40.9330 N   0  0  0  0  0  0  0  0  0  0  0  0
   34.6120   30.1420   39.5010 H   0  0  0  0  0  0  0  0  0  0  0  0
   36.9060   26.8980   38.0310 H   0  0  0  0  0  0  0  0  0  0  0  0
   37.3850   28.6940   43.2390 C   0  0  2  0  0  3  0  0  0  0  0  0
   36.6630   27.5690   42.5650 C   0  0  2  0  0  3  0  0  0  0  0  0
   37.7750   26.5190   42.4740 C   0  0  0  0  0  3  0  0  0  0  0  0
   37.3480   25.5050   42.5710 H   0  0  0  0  0  0  0  0  0  0  0  0
   38.6510   26.8160   43.5330 O   0  0  0  0  0  0  0  0  0  0  0  0
   38.8250   28.1920   43.3180 C   0  0  0  0  0  3  0  0  0  0  0  0
   39.3500   28.6350   44.1830 H   0  0  0  0  0  0  0  0  0  0  0  0
   36.9400   28.8060   44.5560 O   0  0  0  0  0  0  0  0  0  0  0  0
   37.1700   27.9650   45.0380 H   0  0  0  0  0  0  0  0  0  0  0  0
   37.4550   30.2250   37.1010 C   0  0  0  0  0  3  0  0  0  0  0  0
   37.4230   31.3670   37.7780 C   0  0  0  0  0  3  0  0  0  0  0  0
   38.6130   32.0520   38.4190 C   0  0  0  0  0  0  0  0  0  0  0  0
   39.1360   31.2300   38.9750 H   0  0  0  0  0  0  0  0  0  0  0  0
   39.3110   32.4140   37.6600 H   0  0  0  0  0  0  0  0  0  0  0  0
   38.1290   33.0060   39.2860 O   0  0  0  0  0  0  0  0  0  0  0  0
   40.5620   33.9100   39.8950 O   0  0  0  0  0  0  0  0  0  0  0  0
   39.2710   33.3740   40.4700 P   0  0  1  0  0  0  0  0  0  0  0  0
   38.6600   34.5750   41.5150 O   0  0  0  0  0  0  0  0  0  0  0  0
   37.6900   34.3340   41.6400 H   0  0  0  0  0  0  0  0  0  0  0  0
   39.5830   32.0140   41.4180 O   0  0  0  0  0  0  0  0  0  0  0  0
   40.9350   31.7540   41.5370 C   0  0  0  0  0  0  0  0  0  0  0  0
   41.4090   30.3350   41.4580 C   0  0  0  0  0  0  0  0  0  0  0  0
   41.3450   31.0330   42.7970 C   0  0  0  0  0  0  0  0  0  0  0  0
   41.6520   32.4970   41.1430 H   0  0  0  0  0  0  0  0  0  0  0  0
   42.4430   30.1550   41.1010 H   0  0  0  0  0  0  0  0  0  0  0  0
   40.6380   29.5820   41.2310 H   0  0  0  0  0  0  0  0  0  0  0  0
   40.5710   30.6370   43.4840 H   0  0  0  0  0  0  0  0  0  0  0  0
   42.2790   31.3000   43.3120 H   0  0  0  0  0  0  0  0  0  0  0  0
  1 22  1  0  0  0  0
  1  2  1  0  0  0  0
  2  3  1  0  0  0  0
  2  6  1  0  0  0  0
  4  2  1  0  0  0  0
  5 10  1  0  0  0  0
  6  7  1  0  0  0  0
  6  5  2  0  0  0  0
  7  8  2  0  0  0  0
  8  9  1  0  0  0  0
 10  9  2  0  0  0  0
 11  5  1  0  0  0  0
 12  7  1  0  0  0  0
 13 18  1  0  0  0  0
 13 20  1  1  0  0  0
 14  9  1  6  0  0  0
 14 13  1  0  0  0  0
 15 14  1  0  0  0  0
 15 16  1  0  0  0  0
 15 17  1  0  0  0  0
 18 17  1  0  0  0  0
 18 19  1  0  0  0  0
 20 21  1  0  0  0  0
 22 23  2  0  0  0  0
 23 24  1  0  0  0  0
 24 25  1  0  0  0  0
 24 27  1  0  0  0  0
 26 24  1  0  0  0  0
 27 29  1  0  0  0  0
 29 28  2  6  0  0  0
 29 32  1  0  0  0  0
 29 30  1  0  0  0  0
 30 31  1  0  0  0  0
 32 33  1  0  0  0  0
 33 35  1  0  0  0  0
 34 33  1  0  0  0  0
 34 35  1  0  0  0  0
 35 40  1  0  0  0  0
 35 39  1  0  0  0  0
 36 33  1  0  0  0  0
 37 34  1  0  0  0  0
 38 34  1  0  0  0  0
M  END
>  <minimizedAffinity>
-5.35421753

$$$$

 OpenBabel03252504343D

 40 42  0  0  1  0  0  0  0  0999 V2000
   37.9100   33.9460   40.1130 O   0  0  0  0  0  0  0  0  0  0  0  0
   37.9750   32.8700   39.2840 C   0  0  0  0  0  0  0  0  0  0  0  0
   37.2100   32.8380   38.4590 H   0  0  0  0  0  0  0  0  0  0  0  0
   38.9630   32.8060   38.7770 H   0  0  0  0  0  0  0  0  0  0  0  0
   36.5300   31.4340   40.6300 C   0  0  0  0  0  0  0  0  0  0  0  0
   37.7830   31.5640   39.9900 C   0  0  0  0  0  0  0  0  0  0  0  0
   38.6470   30.5220   40.0750 C   0  0  0  0  0  0  0  0  0  0  0  0
   38.2440   29.4520   40.7600 N   0  0  0  0  0  0  0  0  0  0  0  0
   37.0790   29.3200   41.3600 C   0  0  0  0  0  0  0  0  0  0  0  0
   36.1390   30.3480   41.3160 N   0  0  0  0  0  0  0  0  0  0  0  0
   35.7740   32.2080   40.6200 H   0  0  0  0  0  0  0  0  0  0  0  0
   39.5780   30.6600   39.5820 H   0  0  0  0  0  0  0  0  0  0  0  0
   37.1020   28.1970   43.5420 C   0  0  2  0  0  3  0  0  0  0  0  0
   36.7390   28.0730   42.0960 C   0  0  2  0  0  3  0  0  0  0  0  0
   37.7510   27.0210   41.6280 C   0  0  0  0  0  3  0  0  0  0  0  0
   37.3050   26.3910   40.8390 H   0  0  0  0  0  0  0  0  0  0  0  0
   38.0600   26.2700   42.7770 O   0  0  0  0  0  0  0  0  0  0  0  0
   38.3410   27.3130   43.6740 C   0  0  0  0  0  3  0  0  0  0  0  0
   38.4270   26.9050   44.6970 H   0  0  0  0  0  0  0  0  0  0  0  0
   36.1130   27.5970   44.3200 O   0  0  0  0  0  0  0  0  0  0  0  0
   36.0830   26.6260   44.0970 H   0  0  0  0  0  0  0  0  0  0  0  0
   38.8670   34.9280   40.3170 C   0  0  0  0  0  3  0  0  0  0  0  0
   40.0690   34.6880   39.8060 C   0  0  0  0  0  3  0  0  0  0  0  0
   41.2700   35.6080   39.8960 C   0  0  0  0  0  0  0  0  0  0  0  0
   42.0360   35.1260   39.2340 H   0  0  0  0  0  0  0  0  0  0  0  0
   41.0460   36.5860   39.4640 H   0  0  0  0  0  0  0  0  0  0  0  0
   41.6890   35.6200   41.2090 O   0  0  0  0  0  0  0  0  0  0  0  0
   44.0140   35.0670   42.3900 O   0  0  0  0  0  0  0  0  0  0  0  0
   42.9640   34.5410   41.4390 P   0  0  1  0  0  0  0  0  0  0  0  0
   42.3790   33.0840   42.1060 O   0  0  0  0  0  0  0  0  0  0  0  0
   41.5040   32.9210   41.6340 H   0  0  0  0  0  0  0  0  0  0  0  0
   43.6700   34.1520   39.9570 O   0  0  0  0  0  0  0  0  0  0  0  0
   45.0320   33.9430   40.0630 C   0  0  0  0  0  0  0  0  0  0  0  0
   45.9490   34.6430   39.1060 C   0  0  0  0  0  0  0  0  0  0  0  0
   45.6560   33.1700   38.9270 C   0  0  0  0  0  0  0  0  0  0  0  0
   45.4640   33.7730   41.0660 H   0  0  0  0  0  0  0  0  0  0  0  0
   46.9840   34.8510   39.4400 H   0  0  0  0  0  0  0  0  0  0  0  0
   45.4690   35.3520   38.4120 H   0  0  0  0  0  0  0  0  0  0  0  0
   45.0550   32.9280   38.0280 H   0  0  0  0  0  0  0  0  0  0  0  0
   46.4490   32.4350   39.1240 H   0  0  0  0  0  0  0  0  0  0  0  0
  1 22  1  0  0  0  0
  2  6  1  0  0  0  0
  2  1  1  0  0  0  0
  3  2  1  0  0  0  0
  4  2  1  0  0  0  0
  5 10  1  0  0  0  0
  6  7  1  0  0  0  0
  6  5  2  0  0  0  0
  7  8  2  0  0  0  0
  8  9  1  0  0  0  0
 10  9  2  0  0  0  0
 11  5  1  0  0  0  0
 12  7  1  0  0  0  0
 13 18  1  0  0  0  0
 13 20  1  1  0  0  0
 14  9  1  6  0  0  0
 14 13  1  0  0  0  0
 15 14  1  0  0  0  0
 15 17  1  0  0  0  0
 16 15  1  0  0  0  0
 17 18  1  0  0  0  0
 18 19  1  0  0  0  0
 21 20  1  0  0  0  0
 23 24  1  0  0  0  0
 23 22  2  0  0  0  0
 24 27  1  0  0  0  0
 25 24  1  0  0  0  0
 26 24  1  0  0  0  0
 27 29  1  0  0  0  0
 29 30  1  0  0  0  0
 29 28  2  1  0  0  0
 31 30  1  0  0  0  0
 32 33  1  0  0  0  0
 32 29  1  0  0  0  0
 33 36  1  0  0  0  0
 34 37  1  0  0  0  0
 34 33  1  0  0  0  0
 35 34  1  0  0  0  0
 35 40  1  0  0  0  0
 35 33  1  0  0  0  0
 38 34  1  0  0  0  0
 39 35  1  0  0  0  0
M  END
>  <minimizedAffinity>
-5.3473587

$$$$

 OpenBabel03252504343D

 40 42  0  0  1  0  0  0  0  0999 V2000
   37.3050   30.1210   38.9010 O   0  0  0  0  0  0  0  0  0  0  0  0
   37.0180   31.4130   38.5850 C   0  0  0  0  0  0  0  0  0  0  0  0
   36.8340   31.6240   37.4950 H   0  0  0  0  0  0  0  0  0  0  0  0
   36.1080   31.7690   39.1160 H   0  0  0  0  0  0  0  0  0  0  0  0
   39.3500   32.0880   38.3250 C   0  0  0  0  0  0  0  0  0  0  0  0
   38.1130   32.3680   38.9460 C   0  0  0  0  0  0  0  0  0  0  0  0
   38.0490   33.4430   39.7700 C   0  0  0  0  0  0  0  0  0  0  0  0
   39.1640   34.1540   39.9310 N   0  0  0  0  0  0  0  0  0  0  0  0
   40.3230   33.9020   39.3570 C   0  0  0  0  0  0  0  0  0  0  0  0
   40.4660   32.8150   38.4970 N   0  0  0  0  0  0  0  0  0  0  0  0
   39.5020   31.2540   37.6520 H   0  0  0  0  0  0  0  0  0  0  0  0
   37.1010   33.6190   40.2180 H   0  0  0  0  0  0  0  0  0  0  0  0
   42.7140   33.9440   39.9090 C   0  0  2  0  0  3  0  0  0  0  0  0
   41.5030   34.7710   39.6130 C   0  0  2  0  0  3  0  0  0  0  0  0
   41.2540   35.4270   40.9750 C   0  0  0  0  0  3  0  0  0  0  0  0
   40.8390   36.4410   40.8380 H   0  0  0  0  0  0  0  0  0  0  0  0
   42.5130   35.4640   41.6020 O   0  0  0  0  0  0  0  0  0  0  0  0
   42.9110   34.1310   41.4120 C   0  0  0  0  0  3  0  0  0  0  0  0
   43.9760   34.0230   41.6870 H   0  0  0  0  0  0  0  0  0  0  0  0
   43.8280   34.5190   39.2980 O   0  0  0  0  0  0  0  0  0  0  0  0
   43.9730   35.4220   39.6930 H   0  0  0  0  0  0  0  0  0  0  0  0
   36.7500   29.3430   39.9050 C   0  0  0  0  0  3  0  0  0  0  0  0
   37.4110   28.2340   40.2170 C   0  0  0  0  0  3  0  0  0  0  0  0
   37.0060   27.2300   41.2770 C   0  0  0  0  0  0  0  0  0  0  0  0
   36.2850   26.5500   40.7520 H   0  0  0  0  0  0  0  0  0  0  0  0
   37.8570   26.6160   41.5800 H   0  0  0  0  0  0  0  0  0  0  0  0
   36.3810   27.9230   42.2920 O   0  0  0  0  0  0  0  0  0  0  0  0
   38.3210   29.4480   43.3010 O   0  0  0  0  0  0  0  0  0  0  0  0
   37.4560   28.2350   43.5520 P   0  0  1  0  0  0  0  0  0  0  0  0
   36.5910   28.5350   44.9920 O   0  0  0  0  0  0  0  0  0  0  0  0
   35.8290   27.8760   44.9730 H   0  0  0  0  0  0  0  0  0  0  0  0
   38.4250   26.8840   43.8370 O   0  0  0  0  0  0  0  0  0  0  0  0
   39.7730   27.1740   43.7380 C   0  0  0  0  0  0  0  0  0  0  0  0
   40.5200   26.7380   42.5140 C   0  0  0  0  0  0  0  0  0  0  0  0
   40.6960   25.9830   43.8120 C   0  0  0  0  0  0  0  0  0  0  0  0
   40.1460   28.1110   44.1900 H   0  0  0  0  0  0  0  0  0  0  0  0
   41.4120   27.3240   42.2180 H   0  0  0  0  0  0  0  0  0  0  0  0
   39.9140   26.2690   41.7220 H   0  0  0  0  0  0  0  0  0  0  0  0
   40.2760   24.9570   43.8060 H   0  0  0  0  0  0  0  0  0  0  0  0
   41.6520   26.0530   44.3510 H   0  0  0  0  0  0  0  0  0  0  0  0
  1 22  1  0  0  0  0
  2  1  1  0  0  0  0
  2  6  1  0  0  0  0
  2  4  1  0  0  0  0
  3  2  1  0  0  0  0
  5 10  2  0  0  0  0
  5  6  1  0  0  0  0
  6  7  2  0  0  0  0
  7  8  1  0  0  0  0
  7 12  1  0  0  0  0
  9  8  2  0  0  0  0
 10  9  1  0  0  0  0
 11  5  1  0  0  0  0
 13 20  1  6  0  0  0
 13 18  1  0  0  0  0
 14  9  1  1  0  0  0
 14 13  1  0  0  0  0
 14 15  1  0  0  0  0
 15 17  1  0  0  0  0
 16 15  1  0  0  0  0
 18 17  1  0  0  0  0
 18 19  1  0  0  0  0
 20 21  1  0  0  0  0
 22 23  2  0  0  0  0
 23 24  1  0  0  0  0
 24 26  1  0  0  0  0
 24 27  1  0  0  0  0
 25 24  1  0  0  0  0
 27 29  1  0  0  0  0
 29 28  2  6  0  0  0
 29 32  1  0  0  0  0
 29 30  1  0  0  0  0
 31 30  1  0  0  0  0
 33 35  1  0  0  0  0
 33 32  1  0  0  0  0
 33 36  1  0  0  0  0
 34 33  1  0  0  0  0
 34 35  1  0  0  0  0
 35 40  1  0  0  0  0
 37 34  1  0  0  0  0
 38 34  1  0  0  0  0
 39 35  1  0  0  0  0
M  END
>  <minimizedAffinity>
-5.31634474

$$$$

 OpenBabel03252504343D

 40 42  0  0  1  0  0  0  0  0999 V2000
   36.2180   29.3890   37.7770 O   0  0  0  0  0  0  0  0  0  0  0  0
   36.9170   30.3120   37.0620 C   0  0  0  0  0  0  0  0  0  0  0  0
   37.5540   29.9080   36.2260 H   0  0  0  0  0  0  0  0  0  0  0  0
   36.2400   31.0570   36.5880 H   0  0  0  0  0  0  0  0  0  0  0  0
   37.2800   32.0590   38.7270 C   0  0  0  0  0  0  0  0  0  0  0  0
   37.8860   31.0950   37.8920 C   0  0  0  0  0  0  0  0  0  0  0  0
   39.2370   30.9810   37.9350 C   0  0  0  0  0  0  0  0  0  0  0  0
   39.8900   31.7910   38.7660 N   0  0  0  0  0  0  0  0  0  0  0  0
   39.3360   32.6930   39.5500 C   0  0  0  0  0  0  0  0  0  0  0  0
   37.9540   32.8700   39.5610 N   0  0  0  0  0  0  0  0  0  0  0  0
   36.2120   32.2270   38.7650 H   0  0  0  0  0  0  0  0  0  0  0  0
   39.6530   30.2450   37.2900 H   0  0  0  0  0  0  0  0  0  0  0  0
   39.8760   34.9940   40.2160 C   0  0  2  0  0  3  0  0  0  0  0  0
   40.1710   33.5430   40.4400 C   0  0  2  0  0  3  0  0  0  0  0  0
   41.6000   33.4460   39.8940 C   0  0  0  0  0  3  0  0  0  0  0  0
   42.1750   32.6990   40.4680 H   0  0  0  0  0  0  0  0  0  0  0  0
   42.1390   34.7370   40.0390 O   0  0  0  0  0  0  0  0  0  0  0  0
   41.1060   35.4920   39.4600 C   0  0  0  0  0  3  0  0  0  0  0  0
   41.2820   36.5650   39.6570 H   0  0  0  0  0  0  0  0  0  0  0  0
   39.8770   35.6600   41.4410 O   0  0  0  0  0  0  0  0  0  0  0  0
   40.7890   35.5930   41.8350 H   0  0  0  0  0  0  0  0  0  0  0  0
   36.6980   28.4970   38.7230 C   0  0  0  0  0  3  0  0  0  0  0  0
   36.1530   28.5770   39.9310 C   0  0  0  0  0  3  0  0  0  0  0  0
   36.5090   27.7110   41.1230 C   0  0  0  0  0  0  0  0  0  0  0  0
   35.9590   28.1820   41.9790 H   0  0  0  0  0  0  0  0  0  0  0  0
   36.1080   26.7010   41.0060 H   0  0  0  0  0  0  0  0  0  0  0  0
   37.8720   27.7930   41.3060 O   0  0  0  0  0  0  0  0  0  0  0  0
   38.5090   30.3340   41.8010 O   0  0  0  0  0  0  0  0  0  0  0  0
   38.2530   28.9860   42.4340 P   0  0  1  0  0  0  0  0  0  0  0  0
   36.9560   29.1900   43.5240 O   0  0  0  0  0  0  0  0  0  0  0  0
   36.6180   28.2560   43.6950 H   0  0  0  0  0  0  0  0  0  0  0  0
   39.5900   28.5150   43.3490 O   0  0  0  0  0  0  0  0  0  0  0  0
   40.1010   27.2960   42.9440 C   0  0  0  0  0  0  0  0  0  0  0  0
   39.7900   26.0750   43.7540 C   0  0  0  0  0  0  0  0  0  0  0  0
   41.1590   26.7090   43.8450 C   0  0  0  0  0  0  0  0  0  0  0  0
   40.2200   27.1070   41.8620 H   0  0  0  0  0  0  0  0  0  0  0  0
   39.7880   25.0960   43.2350 H   0  0  0  0  0  0  0  0  0  0  0  0
   39.0970   26.2210   44.5990 H   0  0  0  0  0  0  0  0  0  0  0  0
   41.3810   27.1850   44.8210 H   0  0  0  0  0  0  0  0  0  0  0  0
   42.0260   26.1840   43.4170 H   0  0  0  0  0  0  0  0  0  0  0  0
  1 22  1  0  0  0  0
  2  1  1  0  0  0  0
  2  6  1  0  0  0  0
  3  2  1  0  0  0  0
  4  2  1  0  0  0  0
  5 11  1  0  0  0  0
  5 10  1  0  0  0  0
  6  7  1  0  0  0  0
  6  5  2  0  0  0  0
  7  8  2  0  0  0  0
  8  9  1  0  0  0  0
  9 10  2  0  0  0  0
 12  7  1  0  0  0  0
 13 14  1  0  0  0  0
 13 20  1  1  0  0  0
 14  9  1  6  0  0  0
 15 17  1  0  0  0  0
 15 14  1  0  0  0  0
 15 16  1  0  0  0  0
 18 19  1  0  0  0  0
 18 17  1  0  0  0  0
 18 13  1  0  0  0  0
 20 21  1  0  0  0  0
 22 23  2  0  0  0  0
 23 24  1  0  0  0  0
 24 27  1  0  0  0  0
 24 25  1  0  0  0  0
 26 24  1  0  0  0  0
 27 29  1  0  0  0  0
 29 28  2  6  0  0  0
 29 32  1  0  0  0  0
 29 30  1  0  0  0  0
 30 31  1  0  0  0  0
 33 32  1  0  0  0  0
 33 34  1  0  0  0  0
 33 35  1  0  0  0  0
 34 35  1  0  0  0  0
 34 38  1  0  0  0  0
 35 39  1  0  0  0  0
 36 33  1  0  0  0  0
 37 34  1  0  0  0  0
 40 35  1  0  0  0  0
M  END
>  <minimizedAffinity>
-5.0859952

$$$$

 OpenBabel03252504343D

 40 42  0  0  1  0  0  0  0  0999 V2000
   37.2590   30.7620   39.5390 O   0  0  0  0  0  0  0  0  0  0  0  0
   36.6150   30.5060   40.7100 C   0  0  0  0  0  0  0  0  0  0  0  0
   36.8920   31.1660   41.5780 H   0  0  0  0  0  0  0  0  0  0  0  0
   35.5130   30.6060   40.5980 H   0  0  0  0  0  0  0  0  0  0  0  0
   36.5500   28.0990   40.3080 C   0  0  0  0  0  0  0  0  0  0  0  0
   36.8590   29.1230   41.2300 C   0  0  0  0  0  0  0  0  0  0  0  0
   37.3350   28.7580   42.4460 C   0  0  0  0  0  0  0  0  0  0  0  0
   37.4750   27.4530   42.6770 N   0  0  0  0  0  0  0  0  0  0  0  0
   37.1910   26.4890   41.8250 C   0  0  0  0  0  0  0  0  0  0  0  0
   36.6970   26.7870   40.5570 N   0  0  0  0  0  0  0  0  0  0  0  0
   36.1660   28.2880   39.3140 H   0  0  0  0  0  0  0  0  0  0  0  0
   37.5550   29.5580   43.1100 H   0  0  0  0  0  0  0  0  0  0  0  0
   38.8230   24.6670   42.0270 C   0  0  2  0  0  3  0  0  0  0  0  0
   37.3900   25.0630   42.1970 C   0  0  2  0  0  3  0  0  0  0  0  0
   36.7240   24.2410   41.0880 C   0  0  0  0  0  3  0  0  0  0  0  0
   35.7120   23.9320   41.4010 H   0  0  0  0  0  0  0  0  0  0  0  0
   37.5670   23.1330   40.8930 O   0  0  0  0  0  0  0  0  0  0  0  0
   38.8020   23.7910   40.7750 C   0  0  0  0  0  3  0  0  0  0  0  0
   39.6180   23.0470   40.8010 H   0  0  0  0  0  0  0  0  0  0  0  0
   39.2010   23.8320   43.0780 O   0  0  0  0  0  0  0  0  0  0  0  0
   38.6500   23.0030   43.0360 H   0  0  0  0  0  0  0  0  0  0  0  0
   38.5860   31.1140   39.3510 C   0  0  0  0  0  3  0  0  0  0  0  0
   39.0480   31.0150   38.1100 C   0  0  0  0  0  3  0  0  0  0  0  0
   40.4570   31.3440   37.6600 C   0  0  0  0  0  0  0  0  0  0  0  0
   41.0990   31.0560   38.5330 H   0  0  0  0  0  0  0  0  0  0  0  0
   40.7570   30.7100   36.8220 H   0  0  0  0  0  0  0  0  0  0  0  0
   40.5150   32.7010   37.4290 O   0  0  0  0  0  0  0  0  0  0  0  0
   42.9770   32.4190   38.4120 O   0  0  0  0  0  0  0  0  0  0  0  0
   41.8310   33.3870   38.2280 P   0  0  1  0  0  0  0  0  0  0  0  0
   42.4360   34.7030   37.3270 O   0  0  0  0  0  0  0  0  0  0  0  0
   41.6160   35.1660   36.9690 H   0  0  0  0  0  0  0  0  0  0  0  0
   41.3470   34.0000   39.7240 O   0  0  0  0  0  0  0  0  0  0  0  0
   40.1710   34.7210   39.6410 C   0  0  0  0  0  0  0  0  0  0  0  0
   39.8180   35.6610   40.7530 C   0  0  0  0  0  0  0  0  0  0  0  0
   39.1050   34.3330   40.6360 C   0  0  0  0  0  0  0  0  0  0  0  0
   39.8170   35.0400   38.6440 H   0  0  0  0  0  0  0  0  0  0  0  0
   39.1760   36.5310   40.5100 H   0  0  0  0  0  0  0  0  0  0  0  0
   40.5740   35.7730   41.5470 H   0  0  0  0  0  0  0  0  0  0  0  0
   39.3400   33.6130   41.4450 H   0  0  0  0  0  0  0  0  0  0  0  0
   38.0470   34.3130   40.3380 H   0  0  0  0  0  0  0  0  0  0  0  0
  1  2  1  0  0  0  0
  2  6  1  0  0  0  0
  2  3  1  0  0  0  0
  4  2  1  0  0  0  0
  5 10  2  0  0  0  0
  5  6  1  0  0  0  0
  6  7  2  0  0  0  0
  7  8  1  0  0  0  0
  7 12  1  0  0  0  0
  9  8  2  0  0  0  0
 10  9  1  0  0  0  0
 11  5  1  0  0  0  0
 13 14  1  0  0  0  0
 13 20  1  1  0  0  0
 14  9  1  6  0  0  0
 15 16  1  0  0  0  0
 15 14  1  0  0  0  0
 17 15  1  0  0  0  0
 18 19  1  0  0  0  0
 18 17  1  0  0  0  0
 18 13  1  0  0  0  0
 21 20  1  0  0  0  0
 22  1  1  0  0  0  0
 23 22  2  0  0  0  0
 24 23  1  0  0  0  0
 24 25  1  0  0  0  0
 26 24  1  0  0  0  0
 27 24  1  0  0  0  0
 27 29  1  0  0  0  0
 29 28  2  1  0  0  0
 29 32  1  0  0  0  0
 30 29  1  0  0  0  0
 31 30  1  0  0  0  0
 33 32  1  0  0  0  0
 33 35  1  0  0  0  0
 33 34  1  0  0  0  0
 34 38  1  0  0  0  0
 35 34  1  0  0  0  0
 35 39  1  0  0  0  0
 36 33  1  0  0  0  0
 37 34  1  0  0  0  0
 40 35  1  0  0  0  0
M  END
>  <minimizedAffinity>
-5.08408403

$$$$

 OpenBabel03252504343D

 40 42  0  0  1  0  0  0  0  0999 V2000
   36.0450   29.5020   39.7670 O   0  0  0  0  0  0  0  0  0  0  0  0
   35.5810   28.8650   40.8760 C   0  0  0  0  0  0  0  0  0  0  0  0
   35.0150   29.5040   41.6090 H   0  0  0  0  0  0  0  0  0  0  0  0
   34.8920   28.0340   40.6090 H   0  0  0  0  0  0  0  0  0  0  0  0
   37.0550   26.9640   41.2930 C   0  0  0  0  0  0  0  0  0  0  0  0
   36.6680   28.2570   41.7080 C   0  0  0  0  0  0  0  0  0  0  0  0
   37.3050   28.7960   42.7770 C   0  0  0  0  0  0  0  0  0  0  0  0
   38.2520   28.0590   43.3550 N   0  0  0  0  0  0  0  0  0  0  0  0
   38.6220   26.8520   42.9770 C   0  0  0  0  0  0  0  0  0  0  0  0
   38.0130   26.2340   41.8870 N   0  0  0  0  0  0  0  0  0  0  0  0
   36.6080   26.4500   40.4530 H   0  0  0  0  0  0  0  0  0  0  0  0
   36.9830   29.7690   43.0580 H   0  0  0  0  0  0  0  0  0  0  0  0
   40.9530   26.9380   43.7420 C   0  0  2  0  0  3  0  0  0  0  0  0
   39.6970   26.1240   43.7030 C   0  0  2  0  0  3  0  0  0  0  0  0
   40.1210   24.9740   42.7840 C   0  0  0  0  0  3  0  0  0  0  0  0
   39.6150   24.0400   43.0870 H   0  0  0  0  0  0  0  0  0  0  0  0
   41.5160   24.8780   42.9310 O   0  0  0  0  0  0  0  0  0  0  0  0
   41.8670   26.2250   42.7470 C   0  0  0  0  0  3  0  0  0  0  0  0
   42.9290   26.3680   43.0160 H   0  0  0  0  0  0  0  0  0  0  0  0
   41.5550   26.7970   44.9920 O   0  0  0  0  0  0  0  0  0  0  0  0
   41.8090   25.8420   45.1140 H   0  0  0  0  0  0  0  0  0  0  0  0
   36.6690   30.7370   39.6870 C   0  0  0  0  0  3  0  0  0  0  0  0
   37.6950   30.8210   38.8480 C   0  0  0  0  0  3  0  0  0  0  0  0
   38.5290   32.0590   38.5880 C   0  0  0  0  0  0  0  0  0  0  0  0
   39.5600   31.7710   38.9230 H   0  0  0  0  0  0  0  0  0  0  0  0
   38.5900   32.2720   37.5180 H   0  0  0  0  0  0  0  0  0  0  0  0
   38.0210   33.0750   39.3690 O   0  0  0  0  0  0  0  0  0  0  0  0
   38.8720   35.1330   40.8340 O   0  0  0  0  0  0  0  0  0  0  0  0
   39.2320   33.7570   40.3230 P   0  0  1  0  0  0  0  0  0  0  0  0
   39.5120   32.7790   41.6930 O   0  0  0  0  0  0  0  0  0  0  0  0
   39.4490   31.8350   41.3490 H   0  0  0  0  0  0  0  0  0  0  0  0
   40.6820   33.8210   39.4640 O   0  0  0  0  0  0  0  0  0  0  0  0
   41.7800   33.5800   40.2680 C   0  0  0  0  0  0  0  0  0  0  0  0
   43.1450   33.9120   39.7470 C   0  0  0  0  0  0  0  0  0  0  0  0
   42.6900   32.4710   39.8000 C   0  0  0  0  0  0  0  0  0  0  0  0
   41.6690   33.6930   41.3610 H   0  0  0  0  0  0  0  0  0  0  0  0
   43.9350   34.1540   40.4850 H   0  0  0  0  0  0  0  0  0  0  0  0
   43.1780   34.4070   38.7630 H   0  0  0  0  0  0  0  0  0  0  0  0
   42.5280   32.0040   38.8080 H   0  0  0  0  0  0  0  0  0  0  0  0
   43.1510   31.7860   40.5260 H   0  0  0  0  0  0  0  0  0  0  0  0
  1  2  1  0  0  0  0
  2  3  1  0  0  0  0
  2  6  1  0  0  0  0
  4  2  1  0  0  0  0
  5  6  2  0  0  0  0
  5 10  1  0  0  0  0
  6  7  1  0  0  0  0
  7 12  1  0  0  0  0
  7  8  2  0  0  0  0
  9  8  1  0  0  0  0
 10  9  2  0  0  0  0
 11  5  1  0  0  0  0
 13 20  1  1  0  0  0
 14  9  1  6  0  0  0
 14 13  1  0  0  0  0
 15 17  1  0  0  0  0
 15 16  1  0  0  0  0
 15 14  1  0  0  0  0
 18 17  1  0  0  0  0
 18 19  1  0  0  0  0
 18 13  1  0  0  0  0
 20 21  1  0  0  0  0
 22  1  1  0  0  0  0
 23 22  2  0  0  0  0
 24 23  1  0  0  0  0
 24 25  1  0  0  0  0
 24 27  1  0  0  0  0
 26 24  1  0  0  0  0
 27 29  1  0  0  0  0
 29 28  2  1  0  0  0
 29 30  1  0  0  0  0
 31 30  1  0  0  0  0
 32 33  1  0  0  0  0
 32 29  1  0  0  0  0
 33 36  1  0  0  0  0
 34 35  1  0  0  0  0
 34 33  1  0  0  0  0
 34 37  1  0  0  0  0
 35 33  1  0  0  0  0
 35 40  1  0  0  0  0
 38 34  1  0  0  0  0
 39 35  1  0  0  0  0
M  END
>  <minimizedAffinity>
-5.06253719

$$$$

 OpenBabel03252504343D

 40 42  0  0  1  0  0  0  0  0999 V2000
   36.1840   29.9500   41.3130 O   0  0  0  0  0  0  0  0  0  0  0  0
   37.1550   29.2770   41.9870 C   0  0  0  0  0  0  0  0  0  0  0  0
   38.2150   29.5270   41.7040 H   0  0  0  0  0  0  0  0  0  0  0  0
   37.0880   29.4570   43.0830 H   0  0  0  0  0  0  0  0  0  0  0  0
   36.7590   27.3900   40.4890 C   0  0  0  0  0  0  0  0  0  0  0  0
   37.0860   27.7920   41.8030 C   0  0  0  0  0  0  0  0  0  0  0  0
   37.3020   26.8230   42.7260 C   0  0  0  0  0  0  0  0  0  0  0  0
   37.1880   25.5590   42.3190 N   0  0  0  0  0  0  0  0  0  0  0  0
   36.8850   25.1730   41.0960 C   0  0  0  0  0  0  0  0  0  0  0  0
   36.6490   26.1110   40.0940 N   0  0  0  0  0  0  0  0  0  0  0  0
   36.5690   28.0870   39.6830 H   0  0  0  0  0  0  0  0  0  0  0  0
   37.5440   27.1670   43.7020 H   0  0  0  0  0  0  0  0  0  0  0  0
   38.1320   23.1770   40.3990 C   0  0  2  0  0  3  0  0  0  0  0  0
   36.7870   23.7270   40.7590 C   0  0  2  0  0  3  0  0  0  0  0  0
   36.0700   23.6580   39.4060 C   0  0  0  0  0  3  0  0  0  0  0  0
   34.9960   23.4490   39.5570 H   0  0  0  0  0  0  0  0  0  0  0  0
   36.7060   22.6200   38.7030 O   0  0  0  0  0  0  0  0  0  0  0  0
   38.0460   22.9970   38.8840 C   0  0  0  0  0  3  0  0  0  0  0  0
   38.7070   22.1780   38.5470 H   0  0  0  0  0  0  0  0  0  0  0  0
   38.2650   21.8960   40.9340 O   0  0  0  0  0  0  0  0  0  0  0  0
   37.5760   21.3080   40.5200 H   0  0  0  0  0  0  0  0  0  0  0  0
   36.2810   31.1740   40.6710 C   0  0  0  0  0  3  0  0  0  0  0  0
   37.1050   31.2260   39.6310 C   0  0  0  0  0  3  0  0  0  0  0  0
   37.3740   32.4460   38.7730 C   0  0  0  0  0  0  0  0  0  0  0  0
   38.4470   32.3350   38.4650 H   0  0  0  0  0  0  0  0  0  0  0  0
   36.7770   32.4200   37.8590 H   0  0  0  0  0  0  0  0  0  0  0  0
   37.2010   33.5600   39.5660 O   0  0  0  0  0  0  0  0  0  0  0  0
   38.7910   35.6570   39.9870 O   0  0  0  0  0  0  0  0  0  0  0  0
   38.6870   34.1540   40.0960 P   0  0  1  0  0  0  0  0  0  0  0  0
   38.9180   33.7600   41.7390 O   0  0  0  0  0  0  0  0  0  0  0  0
   38.5530   32.8260   41.8310 H   0  0  0  0  0  0  0  0  0  0  0  0
   39.9430   33.4250   39.2380 O   0  0  0  0  0  0  0  0  0  0  0  0
   40.8470   32.7900   40.0680 C   0  0  0  0  0  0  0  0  0  0  0  0
   42.0350   32.1100   39.4590 C   0  0  0  0  0  0  0  0  0  0  0  0
   40.8720   31.2850   39.9620 C   0  0  0  0  0  0  0  0  0  0  0  0
   41.0290   33.2120   41.0720 H   0  0  0  0  0  0  0  0  0  0  0  0
   42.9490   32.0120   40.0780 H   0  0  0  0  0  0  0  0  0  0  0  0
   42.1510   32.2270   38.3690 H   0  0  0  0  0  0  0  0  0  0  0  0
   40.2920   30.7770   39.1660 H   0  0  0  0  0  0  0  0  0  0  0  0
   41.0000   30.6660   40.8620 H   0  0  0  0  0  0  0  0  0  0  0  0
  1  2  1  0  0  0  0
  2  4  1  0  0  0  0
  3  2  1  0  0  0  0
  5  6  1  0  0  0  0
  6  2  1  0  0  0  0
  6  7  2  0  0  0  0
  7 12  1  0  0  0  0
  8  7  1  0  0  0  0
  9  8  2  0  0  0  0
 10  5  2  0  0  0  0
 10  9  1  0  0  0  0
 11  5  1  0  0  0  0
 13 14  1  0  0  0  0
 13 20  1  1  0  0  0
 14  9  1  6  0  0  0
 15 16  1  0  0  0  0
 15 14  1  0  0  0  0
 17 18  1  0  0  0  0
 17 15  1  0  0  0  0
 18 13  1  0  0  0  0
 19 18  1  0  0  0  0
 21 20  1  0  0  0  0
 22  1  1  0  0  0  0
 23 22  2  0  0  0  0
 24 27  1  0  0  0  0
 24 23  1  0  0  0  0
 25 24  1  0  0  0  0
 26 24  1  0  0  0  0
 27 29  1  0  0  0  0
 29 28  2  6  0  0  0
 29 30  1  0  0  0  0
 30 31  1  0  0  0  0
 32 33  1  0  0  0  0
 32 29  1  0  0  0  0
 33 36  1  0  0  0  0
 34 35  1  0  0  0  0
 34 33  1  0  0  0  0
 34 37  1  0  0  0  0
 35 33  1  0  0  0  0
 35 40  1  0  0  0  0
 38 34  1  0  0  0  0
 39 35  1  0  0  0  0
M  END
>  <minimizedAffinity>
-5.05840206

$$$$
