
 OpenBabel03252504323D

 40 42  0  0  1  0  0  0  0  0999 V2000
   42.6110   35.4250   40.6030 O   0  0  0  0  0  0  0  0  0  0  0  0
   41.4110   35.6410   41.2050 C   0  0  0  0  0  0  0  0  0  0  0  0
   41.4190   35.6460   42.3310 H   0  0  0  0  0  0  0  0  0  0  0  0
   40.9760   36.6210   40.9060 H   0  0  0  0  0  0  0  0  0  0  0  0
   40.5300   33.3950   41.5770 C   0  0  0  0  0  0  0  0  0  0  0  0
   40.3820   34.6070   40.8670 C   0  0  0  0  0  0  0  0  0  0  0  0
   39.3530   34.7040   39.9890 C   0  0  0  0  0  0  0  0  0  0  0  0
   38.5580   33.6430   39.8640 N   0  0  0  0  0  0  0  0  0  0  0  0
   38.6860   32.5080   40.5210 C   0  0  0  0  0  0  0  0  0  0  0  0
   39.7180   32.3330   41.4390 N   0  0  0  0  0  0  0  0  0  0  0  0
   41.3170   33.2200   42.2980 H   0  0  0  0  0  0  0  0  0  0  0  0
   39.2780   35.6320   39.4750 H   0  0  0  0  0  0  0  0  0  0  0  0
   37.6740   30.4950   41.4960 C   0  0  2  0  0  3  0  0  0  0  0  0
   37.7320   31.3890   40.2970 C   0  0  2  0  0  3  0  0  0  0  0  0
   38.4020   30.4640   39.2730 C   0  0  0  0  0  3  0  0  0  0  0  0
   38.0160   30.6780   38.2610 H   0  0  0  0  0  0  0  0  0  0  0  0
   38.0760   29.1590   39.6860 O   0  0  0  0  0  0  0  0  0  0  0  0
   38.4290   29.2460   41.0430 C   0  0  0  0  0  3  0  0  0  0  0  0
   38.0620   28.3500   41.5750 H   0  0  0  0  0  0  0  0  0  0  0  0
   36.3560   30.0950   41.7110 O   0  0  0  0  0  0  0  0  0  0  0  0
   36.0540   29.5650   40.9240 H   0  0  0  0  0  0  0  0  0  0  0  0
   43.8530   35.2710   41.1990 C   0  0  0  0  0  3  0  0  0  0  0  0
   43.9480   35.6700   42.4620 C   0  0  0  0  0  3  0  0  0  0  0  0
   45.1940   35.6020   43.3220 C   0  0  0  0  0  0  0  0  0  0  0  0
   45.9950   35.2540   42.6180 H   0  0  0  0  0  0  0  0  0  0  0  0
   45.4850   36.5960   43.6680 H   0  0  0  0  0  0  0  0  0  0  0  0
   44.9670   34.6700   44.3120 O   0  0  0  0  0  0  0  0  0  0  0  0
   45.6880   32.5470   42.8680 O   0  0  0  0  0  0  0  0  0  0  0  0
   45.9820   33.3370   44.1220 P   0  0  1  0  0  0  0  0  0  0  0  0
   47.6040   33.8550   44.0100 O   0  0  0  0  0  0  0  0  0  0  0  0
   47.6790   34.6040   44.6790 H   0  0  0  0  0  0  0  0  0  0  0  0
   45.8820   32.3330   45.4740 O   0  0  0  0  0  0  0  0  0  0  0  0
   46.1640   33.0040   46.6490 C   0  0  0  0  0  0  0  0  0  0  0  0
   47.0520   32.3480   47.6620 C   0  0  0  0  0  0  0  0  0  0  0  0
   45.5600   32.4040   47.8950 C   0  0  0  0  0  0  0  0  0  0  0  0
   46.2390   34.1060   46.6230 H   0  0  0  0  0  0  0  0  0  0  0  0
   47.6320   33.0020   48.3420 H   0  0  0  0  0  0  0  0  0  0  0  0
   47.4910   31.3820   47.3630 H   0  0  0  0  0  0  0  0  0  0  0  0
   45.0500   31.4220   47.8440 H   0  0  0  0  0  0  0  0  0  0  0  0
   45.1620   33.0540   48.6880 H   0  0  0  0  0  0  0  0  0  0  0  0
  1 22  1  0  0  0  0
  1  2  1  0  0  0  0
  2  3  1  0  0  0  0
  4  2  1  0  0  0  0
  5 11  1  0  0  0  0
  6  2  1  0  0  0  0
  6  5  2  0  0  0  0
  7  6  1  0  0  0  0
  8  7  2  0  0  0  0
  8  9  1  0  0  0  0
  9 10  2  0  0  0  0
 10  5  1  0  0  0  0
 12  7  1  0  0  0  0
 13 20  1  6  0  0  0
 14  9  1  1  0  0  0
 14 13  1  0  0  0  0
 15 17  1  0  0  0  0
 15 14  1  0  0  0  0
 16 15  1  0  0  0  0
 17 18  1  0  0  0  0
 18 13  1  0  0  0  0
 18 19  1  0  0  0  0
 21 20  1  0  0  0  0
 22 23  2  0  0  0  0
 23 24  1  0  0  0  0
 24 26  1  0  0  0  0
 24 27  1  0  0  0  0
 25 24  1  0  0  0  0
 29 28  2  6  0  0  0
 29 27  1  0  0  0  0
 29 32  1  0  0  0  0
 30 29  1  0  0  0  0
 30 31  1  0  0  0  0
 32 33  1  0  0  0  0
 33 34  1  0  0  0  0
 33 35  1  0  0  0  0
 34 35  1  0  0  0  0
 34 37  1  0  0  0  0
 35 40  1  0  0  0  0
 36 33  1  0  0  0  0
 38 34  1  0  0  0  0
 39 35  1  0  0  0  0
M  END
>  <minimizedAffinity>
-5.42261457

>  <minimizedRMSD>
0.394108087

$$$$
