
 OpenBabel03252500243D

 37 39  0  0  1  0  0  0  0  0999 V2000
   46.8100   27.7580   46.5640 C   0  0  2  0  0  0  0  0  0  0  0  0
   45.3760   27.4450   46.4220 C   0  0  2  0  0  0  0  0  0  0  0  0
   45.3430   26.3430   45.4280 C   0  0  0  0  0  0  0  0  0  0  0  0
   46.5310   25.6420   45.5400 O   0  0  0  0  0  0  0  0  0  0  0  0
   47.3630   26.3240   46.3630 C   0  0  0  0  0  0  0  0  0  0  0  0
   47.3850   28.2970   45.8570 H   0  0  0  0  0  0  0  0  0  0  0  0
   45.0240   27.0660   47.3950 H   0  0  0  0  0  0  0  0  0  0  0  0
   44.9940   26.5560   44.4190 H   0  0  0  0  0  0  0  0  0  0  0  0
   44.5780   25.5750   45.7670 H   0  0  0  0  0  0  0  0  0  0  0  0
   48.3970   26.3080   46.0300 H   0  0  0  0  0  0  0  0  0  0  0  0
   47.3550   25.8250   47.3750 H   0  0  0  0  0  0  0  0  0  0  0  0
   44.6170   28.5350   46.0700 O   0  0  0  0  0  0  0  0  0  0  0  0
   43.4720   29.7170   44.1010 O   0  0  0  0  0  0  0  0  0  0  0  0
   44.3650   28.5500   44.4260 P   0  0  1  0  0  0  0  0  0  0  0  0
   45.8410   28.7610   43.6240 O   0  0  0  0  0  0  0  0  0  0  0  0
   46.1350   27.9200   43.2100 H   0  0  0  0  0  0  0  0  0  0  0  0
   43.5760   27.1400   43.8630 O   0  0  0  0  0  0  0  0  0  0  0  0
   43.1460   25.0640   40.9990 C   0  0  0  0  0  0  0  0  0  0  0  0
   43.6560   25.8390   39.9220 C   0  0  0  0  0  0  0  0  0  0  0  0
   44.1520   27.1090   40.2530 C   0  0  0  0  0  0  0  0  0  0  0  0
   44.1170   27.5130   41.5360 N   0  0  0  0  0  0  0  0  0  0  0  0
   43.6190   26.7370   42.5270 C   0  0  0  0  0  0  0  0  0  0  0  0
   43.1370   25.5180   42.2500 N   0  0  0  0  0  0  0  0  0  0  0  0
   43.6630   25.4690   38.9030 H   0  0  0  0  0  0  0  0  0  0  0  0
   44.5540   27.7490   39.4810 H   0  0  0  0  0  0  0  0  0  0  0  0
   42.6560   23.8130   40.6850 O   0  0  0  0  0  0  0  0  0  0  0  0
   41.9080   23.8020   39.9780 H   0  0  0  0  0  0  0  0  0  0  0  0
   47.2270   28.2770   47.7410 O   0  0  0  0  0  0  0  0  0  0  0  0
   48.6560   29.3180   49.3530 C   0  0  2  0  0  3  0  0  0  0  0  0
   48.4040   28.2850   48.2710 C   0  0  2  0  0  3  0  0  0  0  0  0
   49.3620   28.8780   47.2220 C   0  0  0  0  0  3  0  0  0  0  0  0
   48.9900   28.6840   46.1960 H   0  0  0  0  0  0  0  0  0  0  0  0
   49.3780   30.2390   47.4190 O   0  0  0  0  0  0  0  0  0  0  0  0
   48.5790   30.5650   48.5000 C   0  0  0  0  0  3  0  0  0  0  0  0
   47.5210   30.7500   48.1980 H   0  0  0  0  0  0  0  0  0  0  0  0
   49.9180   29.1710   49.8750 O   0  0  0  0  0  0  0  0  0  0  0  0
   50.4140   28.5090   49.3320 H   0  0  0  0  0  0  0  0  0  0  0  0
  1  6  1  6  0  0  0
  1 28  1  0  0  0  0
  2  1  1  0  0  0  0
  2  7  1  1  0  0  0
  3  4  1  0  0  0  0
  3  9  1  0  0  0  0
  3  2  1  0  0  0  0
  4  5  1  0  0  0  0
  5  1  1  0  0  0  0
  5 11  1  0  0  0  0
  8  3  1  0  0  0  0
 10  5  1  0  0  0  0
 12  2  1  0  0  0  0
 14 13  2  6  0  0  0
 14 12  1  0  0  0  0
 15 14  1  0  0  0  0
 16 15  1  0  0  0  0
 17 14  1  0  0  0  0
 18 23  1  0  0  0  0
 19 20  1  0  0  0  0
 19 18  2  0  0  0  0
 20 21  2  0  0  0  0
 21 22  1  0  0  0  0
 22 17  1  0  0  0  0
 23 22  2  0  0  0  0
 24 19  1  0  0  0  0
 25 20  1  0  0  0  0
 26 18  1  0  0  0  0
 27 26  1  0  0  0  0
 29 36  1  6  0  0  0
 30 28  1  6  0  0  0
 30 29  1  0  0  0  0
 31 33  1  0  0  0  0
 31 30  1  0  0  0  0
 32 31  1  0  0  0  0
 33 34  1  0  0  0  0
 34 29  1  0  0  0  0
 35 34  1  0  0  0  0
 37 36  1  0  0  0  0
M  END
>  <minimizedAffinity>
-0.581181765

>  <minimizedRMSD>
6.22404718

$$$$
