
 OpenBabel03242520473D

 28 29  0  0  1  0  0  0  0  0999 V2000
   37.9570   29.0140   42.6560 O   0  0  0  0  0  0  0  0  0  0  0  0
   37.3210   27.7970   42.9600 C   0  0  0  0  0  0  0  0  0  0  0  0
   36.0950   27.7030   43.1430 O   0  0  0  0  0  0  0  0  0  0  0  0
   38.8640   24.4830   42.3480 C   0  0  0  0  0  0  0  0  0  0  0  0
   37.9460   25.5580   42.3190 C   0  0  0  0  0  0  0  0  0  0  0  0
   38.2850   26.7270   43.0180 C   0  0  0  0  0  0  0  0  0  0  0  0
   39.4570   26.7720   43.6800 N   0  0  0  0  0  0  0  0  0  0  0  0
   40.3000   25.7090   43.6740 C   0  0  0  0  0  0  0  0  0  0  0  0
   39.9940   24.5940   43.0170 N   0  0  0  0  0  0  0  0  0  0  0  0
   38.5250   23.2980   41.6430 N   0  0  0  0  0  0  0  0  0  0  0  0
   37.0160   25.4820   41.7760 H   0  0  0  0  0  0  0  0  0  0  0  0
   41.2130   25.8650   44.2430 H   0  0  0  0  0  0  0  0  0  0  0  0
   37.7430   22.7430   42.0640 H   0  0  0  0  0  0  0  0  0  0  0  0
   39.0990   23.1240   40.7870 H   0  0  0  0  0  0  0  0  0  0  0  0
   37.5960   29.3140   40.0170 O   0  0  0  0  0  0  0  0  0  0  0  0
   37.5210   29.9970   41.3280 P   0  0  1  0  0  0  0  0  0  0  0  0
   35.8870   30.4510   41.6130 O   0  0  0  0  0  0  0  0  0  0  0  0
   35.9350   31.0960   42.3870 H   0  0  0  0  0  0  0  0  0  0  0  0
   38.4400   31.4140   41.3670 O   0  0  0  0  0  0  0  0  0  0  0  0
   38.0930   33.1270   39.8330 C   0  0  2  0  0  3  0  0  0  0  0  0
   38.8330   31.8120   40.1110 C   0  0  1  0  0  3  0  0  0  0  0  0
   40.2640   32.3050   40.0760 C   0  0  0  0  0  3  0  0  0  0  0  0
   40.9320   31.6780   40.6950 H   0  0  0  0  0  0  0  0  0  0  0  0
   40.2710   33.6300   40.4740 O   0  0  0  0  0  0  0  0  0  0  0  0
   38.9800   34.0880   40.5580 C   0  0  0  0  0  3  0  0  0  0  0  0
   38.6970   34.0310   41.6480 H   0  0  0  0  0  0  0  0  0  0  0  0
   36.7850   33.0900   40.3010 O   0  0  0  0  0  0  0  0  0  0  0  0
   36.2530   32.6280   39.5810 H   0  0  0  0  0  0  0  0  0  0  0  0
  1  2  1  0  0  0  0
  2  6  1  0  0  0  0
  2  3  2  0  0  0  0
  4  9  1  0  0  0  0
  5  4  2  0  0  0  0
  5  6  1  0  0  0  0
  6  7  2  0  0  0  0
  8  7  1  0  0  0  0
  8 12  1  0  0  0  0
  9  8  2  0  0  0  0
 10 13  1  0  0  0  0
 10  4  1  0  0  0  0
 11  5  1  0  0  0  0
 14 10  1  0  0  0  0
 16 15  2  6  0  0  0
 16 19  1  0  0  0  0
 16 17  1  0  0  0  0
 16  1  1  0  0  0  0
 17 18  1  0  0  0  0
 20 21  1  0  0  0  0
 20 27  1  1  0  0  0
 20 25  1  0  0  0  0
 21 19  1  1  0  0  0
 22 21  1  0  0  0  0
 22 24  1  0  0  0  0
 22 23  1  0  0  0  0
 24 25  1  0  0  0  0
 25 26  1  0  0  0  0
 28 27  1  0  0  0  0
M  END
>  <minimizedAffinity>
-5.63492012

$$$$

 OpenBabel03242520473D

 28 29  0  0  1  0  0  0  0  0999 V2000
   38.2450   31.0360   40.5530 O   0  0  0  0  0  0  0  0  0  0  0  0
   37.2030   30.4520   41.2940 C   0  0  0  0  0  0  0  0  0  0  0  0
   36.0270   30.8520   41.2370 O   0  0  0  0  0  0  0  0  0  0  0  0
   39.6320   28.2390   43.0090 C   0  0  0  0  0  0  0  0  0  0  0  0
   39.0980   29.2930   42.2320 C   0  0  0  0  0  0  0  0  0  0  0  0
   37.7030   29.3620   42.0930 C   0  0  0  0  0  0  0  0  0  0  0  0
   36.9420   28.4300   42.6990 N   0  0  0  0  0  0  0  0  0  0  0  0
   37.5100   27.4390   43.4330 C   0  0  0  0  0  0  0  0  0  0  0  0
   38.8290   27.3600   43.5740 N   0  0  0  0  0  0  0  0  0  0  0  0
   41.0430   28.1640   43.1510 N   0  0  0  0  0  0  0  0  0  0  0  0
   39.7420   30.0200   41.7620 H   0  0  0  0  0  0  0  0  0  0  0  0
   36.7930   26.7490   43.8720 H   0  0  0  0  0  0  0  0  0  0  0  0
   41.5590   27.8890   42.2830 H   0  0  0  0  0  0  0  0  0  0  0  0
   41.3940   28.3950   44.1080 H   0  0  0  0  0  0  0  0  0  0  0  0
   37.3100   31.8630   38.1800 O   0  0  0  0  0  0  0  0  0  0  0  0
   38.0030   32.2900   39.4170 P   0  0  1  0  0  0  0  0  0  0  0  0
   37.0210   33.4510   40.2200 O   0  0  0  0  0  0  0  0  0  0  0  0
   37.6300   33.8630   40.9100 H   0  0  0  0  0  0  0  0  0  0  0  0
   39.4860   33.0350   39.0960 O   0  0  0  0  0  0  0  0  0  0  0  0
   40.9620   32.2560   37.4770 C   0  0  2  0  0  3  0  0  0  0  0  0
   40.5010   32.1220   38.9340 C   0  0  1  0  0  3  0  0  0  0  0  0
   41.7720   32.5310   39.6480 C   0  0  0  0  0  3  0  0  0  0  0  0
   41.5660   32.9610   40.6450 H   0  0  0  0  0  0  0  0  0  0  0  0
   42.4610   33.4090   38.8300 O   0  0  0  0  0  0  0  0  0  0  0  0
   41.8680   33.4400   37.5920 C   0  0  0  0  0  3  0  0  0  0  0  0
   41.2070   34.3550   37.5840 H   0  0  0  0  0  0  0  0  0  0  0  0
   39.8880   32.4390   36.6120 O   0  0  0  0  0  0  0  0  0  0  0  0
   39.5320   31.5150   36.4250 H   0  0  0  0  0  0  0  0  0  0  0  0
  1  2  1  0  0  0  0
  2  6  1  0  0  0  0
  3  2  2  0  0  0  0
  4 10  1  0  0  0  0
  4  9  1  0  0  0  0
  5  4  2  0  0  0  0
  6  5  1  0  0  0  0
  6  7  2  0  0  0  0
  7  8  1  0  0  0  0
  8  9  2  0  0  0  0
  8 12  1  0  0  0  0
 10 14  1  0  0  0  0
 11  5  1  0  0  0  0
 13 10  1  0  0  0  0
 16 15  2  6  0  0  0
 16 17  1  0  0  0  0
 16  1  1  0  0  0  0
 17 18  1  0  0  0  0
 19 16  1  0  0  0  0
 20 27  1  6  0  0  0
 20 25  1  0  0  0  0
 20 21  1  0  0  0  0
 21 19  1  6  0  0  0
 21 22  1  0  0  0  0
 22 23  1  0  0  0  0
 24 22  1  0  0  0  0
 25 24  1  0  0  0  0
 26 25  1  0  0  0  0
 28 27  1  0  0  0  0
M  END
>  <minimizedAffinity>
-5.4350605

$$$$

 OpenBabel03242520473D

 28 29  0  0  1  0  0  0  0  0999 V2000
   37.3230   28.3910   40.4470 O   0  0  0  0  0  0  0  0  0  0  0  0
   37.1920   27.7440   41.6880 C   0  0  0  0  0  0  0  0  0  0  0  0
   36.9150   28.3480   42.7390 O   0  0  0  0  0  0  0  0  0  0  0  0
   38.6210   24.3810   42.3120 C   0  0  0  0  0  0  0  0  0  0  0  0
   38.3660   25.7680   42.4180 C   0  0  0  0  0  0  0  0  0  0  0  0
   37.4210   26.3280   41.5450 C   0  0  0  0  0  0  0  0  0  0  0  0
   36.8040   25.5280   40.6530 N   0  0  0  0  0  0  0  0  0  0  0  0
   37.0890   24.2030   40.5950 C   0  0  0  0  0  0  0  0  0  0  0  0
   37.9810   23.6560   41.4150 N   0  0  0  0  0  0  0  0  0  0  0  0
   39.5770   23.8100   43.1920 N   0  0  0  0  0  0  0  0  0  0  0  0
   38.8810   26.3750   43.1460 H   0  0  0  0  0  0  0  0  0  0  0  0
   36.5280   23.6630   39.8360 H   0  0  0  0  0  0  0  0  0  0  0  0
   40.5690   24.0850   43.0030 H   0  0  0  0  0  0  0  0  0  0  0  0
   39.1710   23.1830   43.9240 H   0  0  0  0  0  0  0  0  0  0  0  0
   36.4210   30.2680   38.7590 O   0  0  0  0  0  0  0  0  0  0  0  0
   36.8050   29.9940   40.1620 P   0  0  1  0  0  0  0  0  0  0  0  0
   35.4190   30.2100   41.1580 O   0  0  0  0  0  0  0  0  0  0  0  0
   35.7850   30.2360   42.0970 H   0  0  0  0  0  0  0  0  0  0  0  0
   37.9870   31.0630   40.7240 O   0  0  0  0  0  0  0  0  0  0  0  0
   38.1470   33.1660   39.7460 C   0  0  2  0  0  3  0  0  0  0  0  0
   38.6300   31.7110   39.6970 C   0  0  1  0  0  3  0  0  0  0  0  0
   40.1050   31.9170   39.9700 C   0  0  0  0  0  3  0  0  0  0  0  0
   40.5660   31.0300   40.4420 H   0  0  0  0  0  0  0  0  0  0  0  0
   40.2430   33.0550   40.7450 O   0  0  0  0  0  0  0  0  0  0  0  0
   39.0380   33.7060   40.8190 C   0  0  0  0  0  3  0  0  0  0  0  0
   38.5770   33.4030   41.8040 H   0  0  0  0  0  0  0  0  0  0  0  0
   36.7890   33.2480   40.0340 O   0  0  0  0  0  0  0  0  0  0  0  0
   36.3170   33.1110   39.1530 H   0  0  0  0  0  0  0  0  0  0  0  0
  1  2  1  0  0  0  0
  2  3  2  0  0  0  0
  4  5  1  0  0  0  0
  4 10  1  0  0  0  0
  5 11  1  0  0  0  0
  6  2  1  0  0  0  0
  6  5  2  0  0  0  0
  7  6  1  0  0  0  0
  8  7  2  0  0  0  0
  8  9  1  0  0  0  0
  9  4  2  0  0  0  0
 10 14  1  0  0  0  0
 12  8  1  0  0  0  0
 13 10  1  0  0  0  0
 16 15  2  6  0  0  0
 16  1  1  0  0  0  0
 16 19  1  0  0  0  0
 16 17  1  0  0  0  0
 17 18  1  0  0  0  0
 20 27  1  1  0  0  0
 20 25  1  0  0  0  0
 21 20  1  0  0  0  0
 21 22  1  0  0  0  0
 21 19  1  1  0  0  0
 22 23  1  0  0  0  0
 22 24  1  0  0  0  0
 24 25  1  0  0  0  0
 25 26  1  0  0  0  0
 28 27  1  0  0  0  0
M  END
>  <minimizedAffinity>
-5.30578423

$$$$

 OpenBabel03242520473D

 28 29  0  0  1  0  0  0  0  0999 V2000
   36.5560   28.2780   41.5680 O   0  0  0  0  0  0  0  0  0  0  0  0
   37.6060   28.4700   42.4830 C   0  0  0  0  0  0  0  0  0  0  0  0
   37.8760   29.5780   42.9780 O   0  0  0  0  0  0  0  0  0  0  0  0
   38.3380   24.8380   42.3910 C   0  0  0  0  0  0  0  0  0  0  0  0
   37.7060   26.0820   42.1630 C   0  0  0  0  0  0  0  0  0  0  0  0
   38.2820   27.2240   42.7420 C   0  0  0  0  0  0  0  0  0  0  0  0
   39.3990   27.0850   43.4810 N   0  0  0  0  0  0  0  0  0  0  0  0
   39.9630   25.8650   43.6670 C   0  0  0  0  0  0  0  0  0  0  0  0
   39.4300   24.7740   43.1260 N   0  0  0  0  0  0  0  0  0  0  0  0
   37.7590   23.6790   41.8080 N   0  0  0  0  0  0  0  0  0  0  0  0
   36.8120   26.1510   41.5640 H   0  0  0  0  0  0  0  0  0  0  0  0
   40.8600   25.8810   44.2820 H   0  0  0  0  0  0  0  0  0  0  0  0
   36.8480   23.3820   42.2320 H   0  0  0  0  0  0  0  0  0  0  0  0
   38.3140   23.2650   41.0250 H   0  0  0  0  0  0  0  0  0  0  0  0
   34.8710   29.0830   39.6440 O   0  0  0  0  0  0  0  0  0  0  0  0
   36.0340   29.4800   40.4710 P   0  0  1  0  0  0  0  0  0  0  0  0
   35.5770   30.8210   41.4450 O   0  0  0  0  0  0  0  0  0  0  0  0
   36.4490   31.1810   41.8030 H   0  0  0  0  0  0  0  0  0  0  0  0
   37.3480   29.9770   39.5320 O   0  0  0  0  0  0  0  0  0  0  0  0
   38.3430   32.0710   39.7080 C   0  0  2  0  0  3  0  0  0  0  0  0
   37.2010   31.2650   39.0750 C   0  0  1  0  0  3  0  0  0  0  0  0
   37.5600   31.4100   37.6110 C   0  0  0  0  0  3  0  0  0  0  0  0
   37.1870   30.5620   37.0090 H   0  0  0  0  0  0  0  0  0  0  0  0
   38.9320   31.5570   37.5180 O   0  0  0  0  0  0  0  0  0  0  0  0
   39.4590   31.7280   38.7740 C   0  0  0  0  0  3  0  0  0  0  0  0
   39.8480   30.7170   39.0920 H   0  0  0  0  0  0  0  0  0  0  0  0
   38.5660   31.6980   41.0290 O   0  0  0  0  0  0  0  0  0  0  0  0
   37.8900   32.2110   41.5730 H   0  0  0  0  0  0  0  0  0  0  0  0
  1  2  1  0  0  0  0
  2  6  1  0  0  0  0
  2  3  2  0  0  0  0
  4  9  1  0  0  0  0
  5  4  2  0  0  0  0
  5  6  1  0  0  0  0
  6  7  2  0  0  0  0
  7  8  1  0  0  0  0
  8 12  1  0  0  0  0
  9  8  2  0  0  0  0
 10 13  1  0  0  0  0
 10  4  1  0  0  0  0
 11  5  1  0  0  0  0
 14 10  1  0  0  0  0
 16 15  2  6  0  0  0
 16 17  1  0  0  0  0
 16  1  1  0  0  0  0
 17 18  1  0  0  0  0
 19 16  1  0  0  0  0
 20 27  1  1  0  0  0
 21 19  1  1  0  0  0
 21 20  1  0  0  0  0
 22 21  1  0  0  0  0
 23 22  1  0  0  0  0
 24 22  1  0  0  0  0
 24 25  1  0  0  0  0
 25 26  1  0  0  0  0
 25 20  1  0  0  0  0
 27 28  1  0  0  0  0
M  END
>  <minimizedAffinity>
-5.18825054

$$$$

 OpenBabel03242520473D

 28 29  0  0  1  0  0  0  0  0999 V2000
   36.2950   31.0810   40.9730 O   0  0  0  0  0  0  0  0  0  0  0  0
   35.9190   29.7280   40.9000 C   0  0  0  0  0  0  0  0  0  0  0  0
   34.9620   29.3300   40.2150 O   0  0  0  0  0  0  0  0  0  0  0  0
   37.4840   26.6980   42.3510 C   0  0  0  0  0  0  0  0  0  0  0  0
   36.6470   27.5300   41.5720 C   0  0  0  0  0  0  0  0  0  0  0  0
   36.7920   28.9190   41.7130 C   0  0  0  0  0  0  0  0  0  0  0  0
   37.7110   29.3930   42.5750 N   0  0  0  0  0  0  0  0  0  0  0  0
   38.4880   28.5470   43.2980 C   0  0  0  0  0  0  0  0  0  0  0  0
   38.3640   27.2290   43.1770 N   0  0  0  0  0  0  0  0  0  0  0  0
   37.3420   25.2920   42.2130 N   0  0  0  0  0  0  0  0  0  0  0  0
   35.9220   27.1110   40.8920 H   0  0  0  0  0  0  0  0  0  0  0  0
   39.1910   29.0480   43.9590 H   0  0  0  0  0  0  0  0  0  0  0  0
   36.4540   24.8990   42.6060 H   0  0  0  0  0  0  0  0  0  0  0  0
   38.1410   24.8200   41.7330 H   0  0  0  0  0  0  0  0  0  0  0  0
   36.8590   31.5290   38.3900 O   0  0  0  0  0  0  0  0  0  0  0  0
   37.2420   31.8590   39.7820 P   0  0  1  0  0  0  0  0  0  0  0  0
   36.9940   33.5430   40.0300 O   0  0  0  0  0  0  0  0  0  0  0  0
   37.4750   33.7450   40.8930 H   0  0  0  0  0  0  0  0  0  0  0  0
   38.8750   31.5520   40.0880 O   0  0  0  0  0  0  0  0  0  0  0  0
   40.8100   32.5220   40.9370 C   0  0  2  0  0  3  0  0  0  0  0  0
   39.6510   32.6770   39.9440 C   0  0  1  0  0  3  0  0  0  0  0  0
   40.4230   32.6900   38.6410 C   0  0  0  0  0  3  0  0  0  0  0  0
   39.8120   32.3240   37.7960 H   0  0  0  0  0  0  0  0  0  0  0  0
   41.5750   31.9450   38.8180 O   0  0  0  0  0  0  0  0  0  0  0  0
   41.7190   31.6350   40.1470 C   0  0  0  0  0  3  0  0  0  0  0  0
   41.3290   30.5830   40.2680 H   0  0  0  0  0  0  0  0  0  0  0  0
   40.3860   31.9780   42.1440 O   0  0  0  0  0  0  0  0  0  0  0  0
   40.0210   32.7530   42.6750 H   0  0  0  0  0  0  0  0  0  0  0  0
  2  1  1  0  0  0  0
  2  6  1  0  0  0  0
  3  2  2  0  0  0  0
  4  9  1  0  0  0  0
  5  6  1  0  0  0  0
  5  4  2  0  0  0  0
  6  7  2  0  0  0  0
  7  8  1  0  0  0  0
  8 12  1  0  0  0  0
  9  8  2  0  0  0  0
 10  4  1  0  0  0  0
 10 13  1  0  0  0  0
 11  5  1  0  0  0  0
 14 10  1  0  0  0  0
 16 15  2  6  0  0  0
 16 17  1  0  0  0  0
 16 19  1  0  0  0  0
 16  1  1  0  0  0  0
 17 18  1  0  0  0  0
 20 27  1  1  0  0  0
 21 19  1  6  0  0  0
 21 20  1  0  0  0  0
 22 24  1  0  0  0  0
 22 21  1  0  0  0  0
 23 22  1  0  0  0  0
 24 25  1  0  0  0  0
 25 26  1  0  0  0  0
 25 20  1  0  0  0  0
 27 28  1  0  0  0  0
M  END
>  <minimizedAffinity>
-5.14961052

$$$$

 OpenBabel03242520473D

 28 29  0  0  1  0  0  0  0  0999 V2000
   37.7440   28.7000   40.4300 O   0  0  0  0  0  0  0  0  0  0  0  0
   37.1110   27.4480   40.3430 C   0  0  0  0  0  0  0  0  0  0  0  0
   36.1050   27.2470   39.6400 O   0  0  0  0  0  0  0  0  0  0  0  0
   38.2630   24.1530   41.5900 C   0  0  0  0  0  0  0  0  0  0  0  0
   37.6100   25.1360   40.8100 C   0  0  0  0  0  0  0  0  0  0  0  0
   37.7940   26.4800   41.1650 C   0  0  0  0  0  0  0  0  0  0  0  0
   38.5760   26.7740   42.2220 N   0  0  0  0  0  0  0  0  0  0  0  0
   39.1780   25.7890   42.9360 C   0  0  0  0  0  0  0  0  0  0  0  0
   39.0140   24.5100   42.6130 N   0  0  0  0  0  0  0  0  0  0  0  0
   38.0790   22.7900   41.2350 N   0  0  0  0  0  0  0  0  0  0  0  0
   36.9920   24.8600   39.9700 H   0  0  0  0  0  0  0  0  0  0  0  0
   39.7820   26.1490   43.7640 H   0  0  0  0  0  0  0  0  0  0  0  0
   37.1210   22.4120   41.4220 H   0  0  0  0  0  0  0  0  0  0  0  0
   38.9260   22.3300   40.8300 H   0  0  0  0  0  0  0  0  0  0  0  0
   35.7520   30.4480   40.8380 O   0  0  0  0  0  0  0  0  0  0  0  0
   37.0950   30.0230   41.2950 P   0  0  1  0  0  0  0  0  0  0  0  0
   36.9720   29.4870   42.9250 O   0  0  0  0  0  0  0  0  0  0  0  0
   37.9270   29.4320   43.2450 H   0  0  0  0  0  0  0  0  0  0  0  0
   38.2100   31.2930   41.2760 O   0  0  0  0  0  0  0  0  0  0  0  0
   38.1890   33.0240   39.7240 C   0  0  2  0  0  3  0  0  0  0  0  0
   38.6410   31.5850   40.0040 C   0  0  1  0  0  3  0  0  0  0  0  0
   40.1430   31.7630   39.9240 C   0  0  0  0  0  3  0  0  0  0  0  0
   40.6800   31.0160   40.5350 H   0  0  0  0  0  0  0  0  0  0  0  0
   40.4420   33.0610   40.2990 O   0  0  0  0  0  0  0  0  0  0  0  0
   39.2800   33.7830   40.4090 C   0  0  0  0  0  3  0  0  0  0  0  0
   39.0220   33.7990   41.5080 H   0  0  0  0  0  0  0  0  0  0  0  0
   36.9160   33.2710   40.2270 O   0  0  0  0  0  0  0  0  0  0  0  0
   36.2780   32.9240   39.5280 H   0  0  0  0  0  0  0  0  0  0  0  0
  1 16  1  0  0  0  0
  2  1  1  0  0  0  0
  2  6  1  0  0  0  0
  3  2  2  0  0  0  0
  4  9  1  0  0  0  0
  5  6  1  0  0  0  0
  5  4  2  0  0  0  0
  6  7  2  0  0  0  0
  7  8  1  0  0  0  0
  8 12  1  0  0  0  0
  9  8  2  0  0  0  0
 10 13  1  0  0  0  0
 10  4  1  0  0  0  0
 11  5  1  0  0  0  0
 14 10  1  0  0  0  0
 16 15  2  6  0  0  0
 16 17  1  0  0  0  0
 17 18  1  0  0  0  0
 19 16  1  0  0  0  0
 20 21  1  0  0  0  0
 20 27  1  1  0  0  0
 20 25  1  0  0  0  0
 21 19  1  1  0  0  0
 22 21  1  0  0  0  0
 22 24  1  0  0  0  0
 22 23  1  0  0  0  0
 24 25  1  0  0  0  0
 25 26  1  0  0  0  0
 28 27  1  0  0  0  0
M  END
>  <minimizedAffinity>
-5.0765996

$$$$

 OpenBabel03242520473D

 28 29  0  0  1  0  0  0  0  0999 V2000
   38.0140   29.4140   40.9120 O   0  0  0  0  0  0  0  0  0  0  0  0
   37.5320   30.7320   40.8350 C   0  0  0  0  0  0  0  0  0  0  0  0
   36.3800   31.0500   41.1750 O   0  0  0  0  0  0  0  0  0  0  0  0
   39.7450   32.4200   38.3870 C   0  0  0  0  0  0  0  0  0  0  0  0
   38.7540   31.5720   38.9340 C   0  0  0  0  0  0  0  0  0  0  0  0
   38.5520   31.6120   40.3220 C   0  0  0  0  0  0  0  0  0  0  0  0
   39.3030   32.4480   41.0650 N   0  0  0  0  0  0  0  0  0  0  0  0
   40.2410   33.2390   40.4860 C   0  0  0  0  0  0  0  0  0  0  0  0
   40.4450   33.2130   39.1730 N   0  0  0  0  0  0  0  0  0  0  0  0
   39.9550   32.3820   36.9830 N   0  0  0  0  0  0  0  0  0  0  0  0
   38.1730   30.9160   38.3040 H   0  0  0  0  0  0  0  0  0  0  0  0
   40.7820   33.8690   41.1880 H   0  0  0  0  0  0  0  0  0  0  0  0
   40.4000   31.5030   36.6280 H   0  0  0  0  0  0  0  0  0  0  0  0
   39.6360   33.2380   36.4750 H   0  0  0  0  0  0  0  0  0  0  0  0
   39.2670   28.3220   43.0160 O   0  0  0  0  0  0  0  0  0  0  0  0
   37.9590   28.4740   42.3380 P   0  0  1  0  0  0  0  0  0  0  0  0
   36.8910   29.3100   43.3950 O   0  0  0  0  0  0  0  0  0  0  0  0
   35.9790   29.1830   42.9850 H   0  0  0  0  0  0  0  0  0  0  0  0
   37.2410   26.9850   41.9880 O   0  0  0  0  0  0  0  0  0  0  0  0
   37.3880   24.7020   41.5700 C   0  0  2  0  0  3  0  0  0  0  0  0
   38.1720   26.0130   41.7070 C   0  0  1  0  0  3  0  0  0  0  0  0
   38.7320   26.1300   40.3050 C   0  0  0  0  0  3  0  0  0  0  0  0
   38.9230   27.1810   40.0230 H   0  0  0  0  0  0  0  0  0  0  0  0
   37.8520   25.5060   39.4390 O   0  0  0  0  0  0  0  0  0  0  0  0
   36.9020   24.8290   40.1620 C   0  0  0  0  0  3  0  0  0  0  0  0
   35.9940   25.4970   40.1920 H   0  0  0  0  0  0  0  0  0  0  0  0
   36.3760   24.6060   42.5190 O   0  0  0  0  0  0  0  0  0  0  0  0
   36.8210   24.2640   43.3560 H   0  0  0  0  0  0  0  0  0  0  0  0
  1 16  1  0  0  0  0
  2  1  1  0  0  0  0
  2  3  2  0  0  0  0
  4  5  2  0  0  0  0
  4  9  1  0  0  0  0
  5  6  1  0  0  0  0
  6  2  1  0  0  0  0
  6  7  2  0  0  0  0
  8  7  1  0  0  0  0
  8 12  1  0  0  0  0
  9  8  2  0  0  0  0
 10  4  1  0  0  0  0
 11  5  1  0  0  0  0
 13 10  1  0  0  0  0
 14 10  1  0  0  0  0
 16 15  2  1  0  0  0
 16 17  1  0  0  0  0
 18 17  1  0  0  0  0
 19 16  1  0  0  0  0
 20 21  1  0  0  0  0
 20 27  1  1  0  0  0
 21 19  1  6  0  0  0
 22 21  1  0  0  0  0
 23 22  1  0  0  0  0
 24 25  1  0  0  0  0
 24 22  1  0  0  0  0
 25 26  1  0  0  0  0
 25 20  1  0  0  0  0
 27 28  1  0  0  0  0
M  END
>  <minimizedAffinity>
-5.00158834

$$$$

 OpenBabel03242520473D

 28 29  0  0  1  0  0  0  0  0999 V2000
   37.7510   28.5990   41.2840 O   0  0  0  0  0  0  0  0  0  0  0  0
   37.7390   28.2050   42.6340 C   0  0  0  0  0  0  0  0  0  0  0  0
   36.8640   28.5710   43.4360 O   0  0  0  0  0  0  0  0  0  0  0  0
   41.2110   27.1830   43.4370 C   0  0  0  0  0  0  0  0  0  0  0  0
   40.0840   27.9900   43.1550 C   0  0  0  0  0  0  0  0  0  0  0  0
   38.8610   27.3450   42.9170 C   0  0  0  0  0  0  0  0  0  0  0  0
   38.8140   26.0000   42.9670 N   0  0  0  0  0  0  0  0  0  0  0  0
   39.9280   25.2750   43.2420 C   0  0  0  0  0  0  0  0  0  0  0  0
   41.0940   25.8710   43.4700 N   0  0  0  0  0  0  0  0  0  0  0  0
   42.4510   27.8310   43.6780 N   0  0  0  0  0  0  0  0  0  0  0  0
   40.1620   29.0660   43.1240 H   0  0  0  0  0  0  0  0  0  0  0  0
   39.7650   24.2000   43.2550 H   0  0  0  0  0  0  0  0  0  0  0  0
   42.8850   28.2780   42.8360 H   0  0  0  0  0  0  0  0  0  0  0  0
   42.7790   27.7840   44.6700 H   0  0  0  0  0  0  0  0  0  0  0  0
   36.7020   30.1080   39.3320 O   0  0  0  0  0  0  0  0  0  0  0  0
   37.1630   30.1080   40.7390 P   0  0  1  0  0  0  0  0  0  0  0  0
   35.8210   30.4690   41.7530 O   0  0  0  0  0  0  0  0  0  0  0  0
   36.2310   30.6770   42.6500 H   0  0  0  0  0  0  0  0  0  0  0  0
   38.3330   31.2920   41.0310 O   0  0  0  0  0  0  0  0  0  0  0  0
   38.2780   33.2160   39.7260 C   0  0  2  0  0  3  0  0  0  0  0  0
   38.8560   31.8020   39.8660 C   0  0  1  0  0  3  0  0  0  0  0  0
   40.3290   32.1330   39.9840 C   0  0  0  0  0  3  0  0  0  0  0  0
   40.8820   31.3620   40.5500 H   0  0  0  0  0  0  0  0  0  0  0  0
   40.4430   33.3870   40.5580 O   0  0  0  0  0  0  0  0  0  0  0  0
   39.2030   33.9720   40.6260 C   0  0  0  0  0  3  0  0  0  0  0  0
   38.8350   33.8060   41.6800 H   0  0  0  0  0  0  0  0  0  0  0  0
   36.9410   33.2650   40.1060 O   0  0  0  0  0  0  0  0  0  0  0  0
   36.4200   32.9610   39.2990 H   0  0  0  0  0  0  0  0  0  0  0  0
  1  2  1  0  0  0  0
  2  6  1  0  0  0  0
  2  3  2  0  0  0  0
  4  9  1  0  0  0  0
  4 10  1  0  0  0  0
  5  4  2  0  0  0  0
  6  7  2  0  0  0  0
  6  5  1  0  0  0  0
  7  8  1  0  0  0  0
  8 12  1  0  0  0  0
  8  9  2  0  0  0  0
 10 14  1  0  0  0  0
 11  5  1  0  0  0  0
 13 10  1  0  0  0  0
 16 15  2  6  0  0  0
 16 19  1  0  0  0  0
 16  1  1  0  0  0  0
 16 17  1  0  0  0  0
 17 18  1  0  0  0  0
 20 21  1  0  0  0  0
 20 27  1  1  0  0  0
 20 25  1  0  0  0  0
 21 22  1  0  0  0  0
 21 19  1  1  0  0  0
 22 23  1  0  0  0  0
 22 24  1  0  0  0  0
 24 25  1  0  0  0  0
 25 26  1  0  0  0  0
 28 27  1  0  0  0  0
M  END
>  <minimizedAffinity>
-4.92557096

$$$$

 OpenBabel03242520473D

 28 29  0  0  1  0  0  0  0  0999 V2000
   37.7300   31.5580   38.7710 O   0  0  0  0  0  0  0  0  0  0  0  0
   36.6390   30.7850   39.2030 C   0  0  0  0  0  0  0  0  0  0  0  0
   36.1700   30.8610   40.3520 O   0  0  0  0  0  0  0  0  0  0  0  0
   36.6230   28.9640   35.9740 C   0  0  0  0  0  0  0  0  0  0  0  0
   37.0380   29.7950   37.0410 C   0  0  0  0  0  0  0  0  0  0  0  0
   36.1750   29.9300   38.1390 C   0  0  0  0  0  0  0  0  0  0  0  0
   35.0020   29.2680   38.1300 N   0  0  0  0  0  0  0  0  0  0  0  0
   34.6540   28.4850   37.0780 C   0  0  0  0  0  0  0  0  0  0  0  0
   35.4600   28.3460   36.0300 N   0  0  0  0  0  0  0  0  0  0  0  0
   37.4920   28.8260   34.8600 N   0  0  0  0  0  0  0  0  0  0  0  0
   37.9870   30.3080   37.0110 H   0  0  0  0  0  0  0  0  0  0  0  0
   33.6850   28.0040   37.1860 H   0  0  0  0  0  0  0  0  0  0  0  0
   37.5800   29.6810   34.2620 H   0  0  0  0  0  0  0  0  0  0  0  0
   37.9390   27.8850   34.7740 H   0  0  0  0  0  0  0  0  0  0  0  0
   37.5620   33.9980   39.8690 O   0  0  0  0  0  0  0  0  0  0  0  0
   38.4270   32.8080   39.7060 P   0  0  1  0  0  0  0  0  0  0  0  0
   38.7030   32.1170   41.2570 O   0  0  0  0  0  0  0  0  0  0  0  0
   39.4620   31.4700   41.1140 H   0  0  0  0  0  0  0  0  0  0  0  0
   39.9400   33.1980   39.0640 O   0  0  0  0  0  0  0  0  0  0  0  0
   40.9880   32.0280   37.3490 C   0  0  2  0  0  3  0  0  0  0  0  0
   40.7190   32.0840   38.8580 C   0  0  1  0  0  3  0  0  0  0  0  0
   42.1340   32.2580   39.3690 C   0  0  0  0  0  3  0  0  0  0  0  0
   42.1600   32.7830   40.3410 H   0  0  0  0  0  0  0  0  0  0  0  0
   42.8620   32.9200   38.3960 O   0  0  0  0  0  0  0  0  0  0  0  0
   42.1200   33.0000   37.2450 C   0  0  0  0  0  3  0  0  0  0  0  0
   41.6610   34.0300   37.2370 H   0  0  0  0  0  0  0  0  0  0  0  0
   39.8620   32.3790   36.6120 O   0  0  0  0  0  0  0  0  0  0  0  0
   39.3050   31.5400   36.5540 H   0  0  0  0  0  0  0  0  0  0  0  0
  1  2  1  0  0  0  0
  1 16  1  0  0  0  0
  2  3  2  0  0  0  0
  4  9  2  0  0  0  0
  4  5  1  0  0  0  0
  5  6  2  0  0  0  0
  6  2  1  0  0  0  0
  7  6  1  0  0  0  0
  8 12  1  0  0  0  0
  8  7  2  0  0  0  0
  9  8  1  0  0  0  0
 10  4  1  0  0  0  0
 11  5  1  0  0  0  0
 13 10  1  0  0  0  0
 14 10  1  0  0  0  0
 16 15  2  1  0  0  0
 16 17  1  0  0  0  0
 18 17  1  0  0  0  0
 19 16  1  0  0  0  0
 20 27  1  6  0  0  0
 20 21  1  0  0  0  0
 21 19  1  6  0  0  0
 21 22  1  0  0  0  0
 22 23  1  0  0  0  0
 24 22  1  0  0  0  0
 25 20  1  0  0  0  0
 25 24  1  0  0  0  0
 26 25  1  0  0  0  0
 28 27  1  0  0  0  0
M  END
>  <minimizedAffinity>
-4.76383162

$$$$
