
 OpenBabel03252504323D

 40 42  0  0  1  0  0  0  0  0999 V2000
   42.6680   35.3660   40.5990 O   0  0  0  0  0  0  0  0  0  0  0  0
   41.4610   35.5860   41.1870 C   0  0  0  0  0  0  0  0  0  0  0  0
   41.4640   35.6370   42.3110 H   0  0  0  0  0  0  0  0  0  0  0  0
   41.0110   36.5440   40.8450 H   0  0  0  0  0  0  0  0  0  0  0  0
   40.8100   33.2400   41.3660 C   0  0  0  0  0  0  0  0  0  0  0  0
   40.4530   34.5200   40.8880 C   0  0  0  0  0  0  0  0  0  0  0  0
   39.2700   34.6450   40.2370 C   0  0  0  0  0  0  0  0  0  0  0  0
   38.5330   33.5440   40.0990 N   0  0  0  0  0  0  0  0  0  0  0  0
   38.8550   32.3450   40.5400 C   0  0  0  0  0  0  0  0  0  0  0  0
   40.0540   32.1390   41.2180 N   0  0  0  0  0  0  0  0  0  0  0  0
   41.7310   33.0380   41.8970 H   0  0  0  0  0  0  0  0  0  0  0  0
   39.0390   35.6240   39.8930 H   0  0  0  0  0  0  0  0  0  0  0  0
   37.4840   30.6280   41.6350 C   0  0  2  0  0  3  0  0  0  0  0  0
   37.9470   31.1870   40.3260 C   0  0  2  0  0  3  0  0  0  0  0  0
   38.8350   30.0450   39.8160 C   0  0  0  0  0  3  0  0  0  0  0  0
   38.7790   29.9850   38.7160 H   0  0  0  0  0  0  0  0  0  0  0  0
   38.3260   28.8830   40.4240 O   0  0  0  0  0  0  0  0  0  0  0  0
   38.2650   29.3200   41.7570 C   0  0  0  0  0  3  0  0  0  0  0  0
   37.7060   28.5830   42.3600 H   0  0  0  0  0  0  0  0  0  0  0  0
   36.1400   30.2690   41.5350 O   0  0  0  0  0  0  0  0  0  0  0  0
   36.0560   29.5500   40.8510 H   0  0  0  0  0  0  0  0  0  0  0  0
   43.9120   35.2850   41.2040 C   0  0  0  0  0  3  0  0  0  0  0  0
   43.9510   35.5640   42.5010 C   0  0  0  0  0  3  0  0  0  0  0  0
   45.1880   35.5410   43.3760 C   0  0  0  0  0  0  0  0  0  0  0  0
   46.0050   35.1950   42.6890 H   0  0  0  0  0  0  0  0  0  0  0  0
   45.4540   36.5490   43.7040 H   0  0  0  0  0  0  0  0  0  0  0  0
   44.9700   34.6260   44.3840 O   0  0  0  0  0  0  0  0  0  0  0  0
   45.6750   32.4850   42.9610 O   0  0  0  0  0  0  0  0  0  0  0  0
   45.9790   33.2880   44.2050 P   0  0  1  0  0  0  0  0  0  0  0  0
   47.6020   33.7970   44.0800 O   0  0  0  0  0  0  0  0  0  0  0  0
   47.6830   34.5530   44.7400 H   0  0  0  0  0  0  0  0  0  0  0  0
   45.8800   32.2990   45.5680 O   0  0  0  0  0  0  0  0  0  0  0  0
   46.1740   32.9810   46.7340 C   0  0  0  0  0  0  0  0  0  0  0  0
   47.0530   32.3250   47.7550 C   0  0  0  0  0  0  0  0  0  0  0  0
   45.5610   32.4080   47.9880 C   0  0  0  0  0  0  0  0  0  0  0  0
   46.2660   34.0820   46.6930 H   0  0  0  0  0  0  0  0  0  0  0  0
   47.6430   32.9790   48.4260 H   0  0  0  0  0  0  0  0  0  0  0  0
   47.4760   31.3490   47.4700 H   0  0  0  0  0  0  0  0  0  0  0  0
   45.0360   31.4330   47.9510 H   0  0  0  0  0  0  0  0  0  0  0  0
   45.1740   33.0750   48.7730 H   0  0  0  0  0  0  0  0  0  0  0  0
  1  2  1  0  0  0  0
  1 22  1  0  0  0  0
  2  3  1  0  0  0  0
  4  2  1  0  0  0  0
  5 11  1  0  0  0  0
  6  2  1  0  0  0  0
  6  5  2  0  0  0  0
  7  6  1  0  0  0  0
  8  7  2  0  0  0  0
  8  9  1  0  0  0  0
  9 10  2  0  0  0  0
 10  5  1  0  0  0  0
 12  7  1  0  0  0  0
 13 20  1  6  0  0  0
 13 18  1  0  0  0  0
 14  9  1  1  0  0  0
 14 13  1  0  0  0  0
 15 14  1  0  0  0  0
 15 17  1  0  0  0  0
 16 15  1  0  0  0  0
 17 18  1  0  0  0  0
 18 19  1  0  0  0  0
 21 20  1  0  0  0  0
 22 23  2  0  0  0  0
 23 24  1  0  0  0  0
 24 26  1  0  0  0  0
 24 27  1  0  0  0  0
 25 24  1  0  0  0  0
 29 28  2  6  0  0  0
 29 27  1  0  0  0  0
 29 32  1  0  0  0  0
 30 29  1  0  0  0  0
 30 31  1  0  0  0  0
 32 33  1  0  0  0  0
 33 34  1  0  0  0  0
 33 35  1  0  0  0  0
 34 35  1  0  0  0  0
 34 37  1  0  0  0  0
 35 40  1  0  0  0  0
 36 33  1  0  0  0  0
 38 34  1  0  0  0  0
 39 35  1  0  0  0  0
M  END
>  <minimizedAffinity>
-5.41755915

>  <minimizedRMSD>
0.756191909

$$$$
