
 OpenBabel03242520473D

 28 29  0  0  1  0  0  0  0  0999 V2000
   42.9320   34.1920   41.1590 O   0  0  0  0  0  0  0  0  0  0  0  0
   44.3240   34.0240   41.2600 C   0  0  0  0  0  0  0  0  0  0  0  0
   45.0680   33.9430   40.2680 O   0  0  0  0  0  0  0  0  0  0  0  0
   44.8000   35.0870   44.7790 C   0  0  0  0  0  0  0  0  0  0  0  0
   44.4250   35.1000   43.4150 C   0  0  0  0  0  0  0  0  0  0  0  0
   44.7250   33.9670   42.6440 C   0  0  0  0  0  0  0  0  0  0  0  0
   45.3500   32.9280   43.2290 N   0  0  0  0  0  0  0  0  0  0  0  0
   45.6870   32.9700   44.5430 C   0  0  0  0  0  0  0  0  0  0  0  0
   45.4110   34.0350   45.2880 N   0  0  0  0  0  0  0  0  0  0  0  0
   44.5000   36.2310   45.5640 N   0  0  0  0  0  0  0  0  0  0  0  0
   43.9250   35.9530   42.9840 H   0  0  0  0  0  0  0  0  0  0  0  0
   46.1870   32.0730   44.9000 H   0  0  0  0  0  0  0  0  0  0  0  0
   45.0660   37.0820   45.3370 H   0  0  0  0  0  0  0  0  0  0  0  0
   43.7470   36.0840   46.2740 H   0  0  0  0  0  0  0  0  0  0  0  0
   42.4690   31.5540   41.0330 O   0  0  0  0  0  0  0  0  0  0  0  0
   41.8400   32.8920   40.9580 P   0  0  1  0  0  0  0  0  0  0  0  0
   40.7140   33.0380   42.2500 O   0  0  0  0  0  0  0  0  0  0  0  0
   40.1670   33.8530   42.0170 H   0  0  0  0  0  0  0  0  0  0  0  0
   40.9760   33.1150   39.5230 O   0  0  0  0  0  0  0  0  0  0  0  0
   39.1780   34.5600   39.2290 C   0  0  2  0  0  0  0  0  0  0  0  0
   39.6200   33.1820   39.7390 C   0  0  1  0  0  0  0  0  0  0  0  0
   38.8350   32.2920   38.7980 C   0  0  0  0  0  0  0  0  0  0  0  0
   39.3270   31.3130   38.6500 H   0  0  0  0  0  0  0  0  0  0  0  0
   38.6580   32.9760   37.6090 O   0  0  0  0  0  0  0  0  0  0  0  0
   39.0630   34.2770   37.7650 C   0  0  0  0  0  0  0  0  0  0  0  0
   40.1080   34.3340   37.3430 H   0  0  0  0  0  0  0  0  0  0  0  0
   40.1010   35.5490   39.5510 O   0  0  0  0  0  0  0  0  0  0  0  0
   39.8870   35.8190   40.4990 H   0  0  0  0  0  0  0  0  0  0  0  0
  1  2  1  0  0  0  0
  2  6  1  0  0  0  0
  3  2  2  0  0  0  0
  4  9  1  0  0  0  0
  4 10  1  0  0  0  0
  5  4  2  0  0  0  0
  6  7  2  0  0  0  0
  6  5  1  0  0  0  0
  7  8  1  0  0  0  0
  8 12  1  0  0  0  0
  8  9  2  0  0  0  0
 10 14  1  0  0  0  0
 11  5  1  0  0  0  0
 13 10  1  0  0  0  0
 16 15  2  1  0  0  0
 16  1  1  0  0  0  0
 16 17  1  0  0  0  0
 18 17  1  0  0  0  0
 19 16  1  0  0  0  0
 20 27  1  6  0  0  0
 20 21  1  0  0  0  0
 21 19  1  6  0  0  0
 22 21  1  0  0  0  0
 23 22  1  0  0  0  0
 24 25  1  0  0  0  0
 24 22  1  0  0  0  0
 25 20  1  0  0  0  0
 26 25  1  0  0  0  0
 27 28  1  0  0  0  0
M  END
>  <minimizedAffinity>
-4.56759834

>  <minimizedRMSD>
7.15758038

$$$$
