
 OpenBabel03252500263D

 37 39  0  0  1  0  0  0  0  0999 V2000
   37.3210   26.4810   42.3130 C   0  0  2  0  0  0  0  0  0  0  0  0
   37.2000   27.9020   41.9370 C   0  0  2  0  0  0  0  0  0  0  0  0
   37.9130   28.6250   43.0200 C   0  0  0  0  0  0  0  0  0  0  0  0
   38.8950   27.7820   43.5100 O   0  0  0  0  0  0  0  0  0  0  0  0
   38.7230   26.5510   42.9690 C   0  0  0  0  0  0  0  0  0  0  0  0
   36.7630   26.0080   43.0780 H   0  0  0  0  0  0  0  0  0  0  0  0
   37.7460   28.0400   40.9890 H   0  0  0  0  0  0  0  0  0  0  0  0
   37.3300   29.1770   43.7560 H   0  0  0  0  0  0  0  0  0  0  0  0
   38.5250   29.4610   42.5540 H   0  0  0  0  0  0  0  0  0  0  0  0
   38.9040   25.7470   43.6770 H   0  0  0  0  0  0  0  0  0  0  0  0
   39.4790   26.4140   42.1430 H   0  0  0  0  0  0  0  0  0  0  0  0
   35.8990   28.3070   41.7610 O   0  0  0  0  0  0  0  0  0  0  0  0
   34.5960   29.2360   39.7550 O   0  0  0  0  0  0  0  0  0  0  0  0
   35.8200   29.4880   40.5940 P   0  0  1  0  0  0  0  0  0  0  0  0
   35.6650   31.0060   41.3280 O   0  0  0  0  0  0  0  0  0  0  0  0
   36.5080   31.5080   41.2700 H   0  0  0  0  0  0  0  0  0  0  0  0
   37.1670   29.4700   39.5380 O   0  0  0  0  0  0  0  0  0  0  0  0
   39.2570   31.9140   38.0050 C   0  0  0  0  0  0  0  0  0  0  0  0
   39.7920   32.6550   39.0930 C   0  0  0  0  0  0  0  0  0  0  0  0
   39.3840   32.2530   40.3740 C   0  0  0  0  0  0  0  0  0  0  0  0
   38.5330   31.2190   40.4980 N   0  0  0  0  0  0  0  0  0  0  0  0
   38.0500   30.5450   39.4280 C   0  0  0  0  0  0  0  0  0  0  0  0
   38.4170   30.8990   38.1890 N   0  0  0  0  0  0  0  0  0  0  0  0
   40.4760   33.4810   38.9430 H   0  0  0  0  0  0  0  0  0  0  0  0
   39.7530   32.7750   41.2460 H   0  0  0  0  0  0  0  0  0  0  0  0
   39.6520   32.2990   36.7390 O   0  0  0  0  0  0  0  0  0  0  0  0
   39.4610   33.2830   36.5040 H   0  0  0  0  0  0  0  0  0  0  0  0
   37.2960   25.5640   41.3200 O   0  0  0  0  0  0  0  0  0  0  0  0
   38.3700   23.4800   40.8330 C   0  0  2  0  0  3  0  0  0  0  0  0
   37.2010   24.2780   41.3830 C   0  0  2  0  0  3  0  0  0  0  0  0
   36.1720   23.8560   40.3200 C   0  0  0  0  0  3  0  0  0  0  0  0
   35.4380   24.6660   40.1380 H   0  0  0  0  0  0  0  0  0  0  0  0
   36.8670   23.6430   39.1510 O   0  0  0  0  0  0  0  0  0  0  0  0
   38.2210   23.8360   39.3710 C   0  0  0  0  0  3  0  0  0  0  0  0
   38.5230   24.8980   39.2090 H   0  0  0  0  0  0  0  0  0  0  0  0
   38.1660   22.1370   41.0240 O   0  0  0  0  0  0  0  0  0  0  0  0
   37.2480   21.9950   41.3580 H   0  0  0  0  0  0  0  0  0  0  0  0
  1  5  1  0  0  0  0
  1  6  1  1  0  0  0
  2  7  1  6  0  0  0
  2  1  1  0  0  0  0
  2  3  1  0  0  0  0
  3  4  1  0  0  0  0
  3  8  1  0  0  0  0
  5  4  1  0  0  0  0
  5 10  1  0  0  0  0
  9  3  1  0  0  0  0
 11  5  1  0  0  0  0
 12  2  1  0  0  0  0
 14 13  2  6  0  0  0
 14 15  1  0  0  0  0
 14 12  1  0  0  0  0
 16 15  1  0  0  0  0
 17 14  1  0  0  0  0
 18 23  2  0  0  0  0
 18 19  1  0  0  0  0
 19 20  2  0  0  0  0
 20 21  1  0  0  0  0
 20 25  1  0  0  0  0
 22 17  1  0  0  0  0
 22 21  2  0  0  0  0
 23 22  1  0  0  0  0
 24 19  1  0  0  0  0
 26 18  1  0  0  0  0
 27 26  1  0  0  0  0
 28  1  1  0  0  0  0
 29 36  1  6  0  0  0
 29 30  1  0  0  0  0
 30 28  1  6  0  0  0
 31 30  1  0  0  0  0
 32 31  1  0  0  0  0
 33 34  1  0  0  0  0
 33 31  1  0  0  0  0
 34 29  1  0  0  0  0
 35 34  1  0  0  0  0
 36 37  1  0  0  0  0
M  END
>  <minimizedAffinity>
-6.02265167

$$$$

 OpenBabel03252500263D

 37 39  0  0  1  0  0  0  0  0999 V2000
   39.3020   30.3680   37.8960 C   0  0  2  0  0  0  0  0  0  0  0  0
   38.2990   29.8720   38.8570 C   0  0  2  0  0  0  0  0  0  0  0  0
   37.9770   28.5070   38.3710 C   0  0  0  0  0  0  0  0  0  0  0  0
   39.0990   28.0160   37.7270 O   0  0  0  0  0  0  0  0  0  0  0  0
   40.0030   29.0180   37.6010 C   0  0  0  0  0  0  0  0  0  0  0  0
   39.0870   30.7030   36.9160 H   0  0  0  0  0  0  0  0  0  0  0  0
   38.7920   29.7990   39.8400 H   0  0  0  0  0  0  0  0  0  0  0  0
   37.0180   28.3360   37.8830 H   0  0  0  0  0  0  0  0  0  0  0  0
   37.8930   27.8150   39.2680 H   0  0  0  0  0  0  0  0  0  0  0  0
   40.5200   29.0060   36.6460 H   0  0  0  0  0  0  0  0  0  0  0  0
   40.7990   28.8830   38.3880 H   0  0  0  0  0  0  0  0  0  0  0  0
   37.2050   30.6950   38.9700 O   0  0  0  0  0  0  0  0  0  0  0  0
   37.3380   32.9300   40.2250 O   0  0  0  0  0  0  0  0  0  0  0  0
   37.2060   31.4480   40.4530 P   0  0  1  0  0  0  0  0  0  0  0  0
   35.7380   31.1540   41.2430 O   0  0  0  0  0  0  0  0  0  0  0  0
   35.8590   30.5060   41.9720 H   0  0  0  0  0  0  0  0  0  0  0  0
   38.5210   30.9700   41.4390 O   0  0  0  0  0  0  0  0  0  0  0  0
   37.2740   28.1620   43.2420 C   0  0  0  0  0  0  0  0  0  0  0  0
   38.4330   27.4010   43.5560 C   0  0  0  0  0  0  0  0  0  0  0  0
   39.6560   27.9220   43.1060 C   0  0  0  0  0  0  0  0  0  0  0  0
   39.6640   29.0800   42.4220 N   0  0  0  0  0  0  0  0  0  0  0  0
   38.5310   29.7680   42.1470 C   0  0  0  0  0  0  0  0  0  0  0  0
   37.3440   29.3020   42.5600 N   0  0  0  0  0  0  0  0  0  0  0  0
   38.3750   26.4720   44.1110 H   0  0  0  0  0  0  0  0  0  0  0  0
   40.5760   27.3930   43.3120 H   0  0  0  0  0  0  0  0  0  0  0  0
   36.0650   27.6590   43.6800 O   0  0  0  0  0  0  0  0  0  0  0  0
   35.8470   26.7070   43.3580 H   0  0  0  0  0  0  0  0  0  0  0  0
   40.1900   31.2890   38.3350 O   0  0  0  0  0  0  0  0  0  0  0  0
   41.9120   32.5920   37.3020 C   0  0  2  0  0  3  0  0  0  0  0  0
   40.5000   32.4400   37.8400 C   0  0  2  0  0  3  0  0  0  0  0  0
   40.6490   33.4090   39.0270 C   0  0  0  0  0  3  0  0  0  0  0  0
   40.0120   33.0910   39.8760 H   0  0  0  0  0  0  0  0  0  0  0  0
   41.9620   33.3450   39.4330 O   0  0  0  0  0  0  0  0  0  0  0  0
   42.6660   32.4850   38.6080 C   0  0  0  0  0  3  0  0  0  0  0  0
   42.6340   31.4320   38.9760 H   0  0  0  0  0  0  0  0  0  0  0  0
   42.0830   33.8370   36.7490 O   0  0  0  0  0  0  0  0  0  0  0  0
   41.2880   34.3890   36.9460 H   0  0  0  0  0  0  0  0  0  0  0  0
  1  6  1  6  0  0  0
  1 28  1  0  0  0  0
  1  2  1  0  0  0  0
  2 12  1  0  0  0  0
  2  7  1  1  0  0  0
  3  2  1  0  0  0  0
  3  9  1  0  0  0  0
  4  3  1  0  0  0  0
  5  4  1  0  0  0  0
  5  1  1  0  0  0  0
  5 11  1  0  0  0  0
  8  3  1  0  0  0  0
 10  5  1  0  0  0  0
 12 14  1  0  0  0  0
 14 13  2  6  0  0  0
 14 15  1  0  0  0  0
 14 17  1  0  0  0  0
 15 16  1  0  0  0  0
 17 22  1  0  0  0  0
 18 19  1  0  0  0  0
 18 26  1  0  0  0  0
 19 24  1  0  0  0  0
 20 25  1  0  0  0  0
 20 19  2  0  0  0  0
 21 20  1  0  0  0  0
 22 21  2  0  0  0  0
 22 23  1  0  0  0  0
 23 18  2  0  0  0  0
 27 26  1  0  0  0  0
 29 36  1  1  0  0  0
 29 30  1  0  0  0  0
 29 34  1  0  0  0  0
 30 28  1  1  0  0  0
 30 31  1  0  0  0  0
 31 33  1  0  0  0  0
 31 32  1  0  0  0  0
 34 35  1  0  0  0  0
 34 33  1  0  0  0  0
 36 37  1  0  0  0  0
M  END
>  <minimizedAffinity>
-5.94808483

$$$$

 OpenBabel03252500263D

 37 39  0  0  1  0  0  0  0  0999 V2000
   36.5590   30.4220   38.8840 C   0  0  2  0  0  0  0  0  0  0  0  0
   36.4030   29.5950   40.0950 C   0  0  2  0  0  0  0  0  0  0  0  0
   35.0150   29.0780   40.0030 C   0  0  0  0  0  0  0  0  0  0  0  0
   34.6890   28.9880   38.6610 O   0  0  0  0  0  0  0  0  0  0  0  0
   35.6660   29.5830   37.9350 C   0  0  0  0  0  0  0  0  0  0  0  0
   36.1440   31.3870   38.7520 H   0  0  0  0  0  0  0  0  0  0  0  0
   37.1100   28.7530   40.0120 H   0  0  0  0  0  0  0  0  0  0  0  0
   34.2550   29.4910   40.6650 H   0  0  0  0  0  0  0  0  0  0  0  0
   35.0150   27.9870   40.3240 H   0  0  0  0  0  0  0  0  0  0  0  0
   35.2820   30.1550   37.0940 H   0  0  0  0  0  0  0  0  0  0  0  0
   36.3230   28.7810   37.4910 H   0  0  0  0  0  0  0  0  0  0  0  0
   36.6650   30.2810   41.2560 O   0  0  0  0  0  0  0  0  0  0  0  0
   38.9690   30.4280   42.3790 O   0  0  0  0  0  0  0  0  0  0  0  0
   37.8220   29.4810   42.1440 P   0  0  1  0  0  0  0  0  0  0  0  0
   37.1800   29.0320   43.6450 O   0  0  0  0  0  0  0  0  0  0  0  0
   37.0040   28.0660   43.6720 H   0  0  0  0  0  0  0  0  0  0  0  0
   38.4550   28.1150   41.3320 O   0  0  0  0  0  0  0  0  0  0  0  0
   38.7040   24.6640   42.1810 C   0  0  0  0  0  0  0  0  0  0  0  0
   39.6200   24.6320   43.2670 C   0  0  0  0  0  0  0  0  0  0  0  0
   40.1360   25.8710   43.6770 C   0  0  0  0  0  0  0  0  0  0  0  0
   39.7470   26.9880   43.0380 N   0  0  0  0  0  0  0  0  0  0  0  0
   38.8710   26.9660   42.0060 C   0  0  0  0  0  0  0  0  0  0  0  0
   38.3560   25.8020   41.5870 N   0  0  0  0  0  0  0  0  0  0  0  0
   39.9040   23.7050   43.7510 H   0  0  0  0  0  0  0  0  0  0  0  0
   40.8380   25.9180   44.4980 H   0  0  0  0  0  0  0  0  0  0  0  0
   38.1900   23.4510   41.7690 O   0  0  0  0  0  0  0  0  0  0  0  0
   38.8910   22.7490   41.4980 H   0  0  0  0  0  0  0  0  0  0  0  0
   37.8040   30.5650   38.3770 O   0  0  0  0  0  0  0  0  0  0  0  0
   39.8950   31.5700   37.7870 C   0  0  2  0  0  3  0  0  0  0  0  0
   38.3800   31.6080   37.8790 C   0  0  2  0  0  3  0  0  0  0  0  0
   38.2870   32.7170   38.9430 C   0  0  0  0  0  3  0  0  0  0  0  0
   37.3960   32.5720   39.5860 H   0  0  0  0  0  0  0  0  0  0  0  0
   39.4060   32.6050   39.7370 O   0  0  0  0  0  0  0  0  0  0  0  0
   40.2140   31.5840   39.2650 C   0  0  0  0  0  3  0  0  0  0  0  0
   39.9510   30.5990   39.7170 H   0  0  0  0  0  0  0  0  0  0  0  0
   40.3680   32.7080   37.1820 O   0  0  0  0  0  0  0  0  0  0  0  0
   39.6210   33.3440   37.0660 H   0  0  0  0  0  0  0  0  0  0  0  0
  1  6  1  1  0  0  0
  1  2  1  0  0  0  0
  2  7  1  6  0  0  0
  2 12  1  0  0  0  0
  3  2  1  0  0  0  0
  3  9  1  0  0  0  0
  3  8  1  0  0  0  0
  4  3  1  0  0  0  0
  5  4  1  0  0  0  0
  5  1  1  0  0  0  0
 10  5  1  0  0  0  0
 11  5  1  0  0  0  0
 12 14  1  0  0  0  0
 14 13  2  1  0  0  0
 14 15  1  0  0  0  0
 15 16  1  0  0  0  0
 17 22  1  0  0  0  0
 17 14  1  0  0  0  0
 18 19  1  0  0  0  0
 19 20  2  0  0  0  0
 19 24  1  0  0  0  0
 20 25  1  0  0  0  0
 21 20  1  0  0  0  0
 22 21  2  0  0  0  0
 23 22  1  0  0  0  0
 23 18  2  0  0  0  0
 26 18  1  0  0  0  0
 27 26  1  0  0  0  0
 28  1  1  0  0  0  0
 29 36  1  6  0  0  0
 29 30  1  0  0  0  0
 29 34  1  0  0  0  0
 30 28  1  1  0  0  0
 30 31  1  0  0  0  0
 31 32  1  0  0  0  0
 31 33  1  0  0  0  0
 34 35  1  0  0  0  0
 34 33  1  0  0  0  0
 37 36  1  0  0  0  0
M  END
>  <minimizedAffinity>
-5.56883383

$$$$

 OpenBabel03252500263D

 37 39  0  0  1  0  0  0  0  0999 V2000
   36.8800   30.7730   39.3380 C   0  0  2  0  0  0  0  0  0  0  0  0
   36.6200   29.6500   40.2570 C   0  0  2  0  0  0  0  0  0  0  0  0
   35.3270   29.0920   39.7900 C   0  0  0  0  0  0  0  0  0  0  0  0
   35.2310   29.3370   38.4310 O   0  0  0  0  0  0  0  0  0  0  0  0
   36.2440   30.1600   38.0650 C   0  0  0  0  0  0  0  0  0  0  0  0
   36.3930   31.7120   39.3760 H   0  0  0  0  0  0  0  0  0  0  0  0
   37.4160   28.9040   40.0990 H   0  0  0  0  0  0  0  0  0  0  0  0
   34.4320   29.2710   40.3840 H   0  0  0  0  0  0  0  0  0  0  0  0
   35.3900   27.9580   39.8250 H   0  0  0  0  0  0  0  0  0  0  0  0
   35.9410   30.9070   37.3360 H   0  0  0  0  0  0  0  0  0  0  0  0
   37.0440   29.5430   37.5630 H   0  0  0  0  0  0  0  0  0  0  0  0
   36.6200   30.0230   41.5800 O   0  0  0  0  0  0  0  0  0  0  0  0
   38.5250   29.7330   43.2750 O   0  0  0  0  0  0  0  0  0  0  0  0
   37.5180   28.9480   42.4770 P   0  0  1  0  0  0  0  0  0  0  0  0
   36.5080   28.1190   43.5530 O   0  0  0  0  0  0  0  0  0  0  0  0
   36.3640   27.1940   43.2520 H   0  0  0  0  0  0  0  0  0  0  0  0
   38.3940   27.8430   41.5080 O   0  0  0  0  0  0  0  0  0  0  0  0
   38.8370   24.4240   42.4030 C   0  0  0  0  0  0  0  0  0  0  0  0
   37.8130   23.7380   41.6950 C   0  0  0  0  0  0  0  0  0  0  0  0
   36.9730   24.5320   40.9000 C   0  0  0  0  0  0  0  0  0  0  0  0
   37.1770   25.8600   40.8510 N   0  0  0  0  0  0  0  0  0  0  0  0
   38.1680   26.4670   41.5460 C   0  0  0  0  0  0  0  0  0  0  0  0
   38.9910   25.7420   42.3160 N   0  0  0  0  0  0  0  0  0  0  0  0
   37.6880   22.6640   41.7660 H   0  0  0  0  0  0  0  0  0  0  0  0
   36.1730   24.0730   40.3350 H   0  0  0  0  0  0  0  0  0  0  0  0
   39.6700   23.6530   43.1880 O   0  0  0  0  0  0  0  0  0  0  0  0
   39.1950   23.0860   43.9040 H   0  0  0  0  0  0  0  0  0  0  0  0
   38.1680   31.1190   39.1170 O   0  0  0  0  0  0  0  0  0  0  0  0
   38.9660   32.5200   40.8870 C   0  0  2  0  0  3  0  0  0  0  0  0
   39.1250   31.3300   39.9580 C   0  0  2  0  0  3  0  0  0  0  0  0
   40.3140   31.8820   39.1500 C   0  0  0  0  0  3  0  0  0  0  0  0
   40.2850   31.5140   38.1050 H   0  0  0  0  0  0  0  0  0  0  0  0
   40.1770   33.2510   39.1220 O   0  0  0  0  0  0  0  0  0  0  0  0
   39.0660   33.6250   39.8590 C   0  0  0  0  0  3  0  0  0  0  0  0
   38.1390   33.6470   39.2370 H   0  0  0  0  0  0  0  0  0  0  0  0
   40.0170   32.5860   41.7670 O   0  0  0  0  0  0  0  0  0  0  0  0
   40.6970   31.9200   41.5060 H   0  0  0  0  0  0  0  0  0  0  0  0
  1  6  1  1  0  0  0
  1  2  1  0  0  0  0
  2  7  1  6  0  0  0
  2 12  1  0  0  0  0
  3  9  1  0  0  0  0
  3  2  1  0  0  0  0
  3  8  1  0  0  0  0
  4  3  1  0  0  0  0
  5  4  1  0  0  0  0
  5  1  1  0  0  0  0
 10  5  1  0  0  0  0
 11  5  1  0  0  0  0
 12 14  1  0  0  0  0
 14 13  2  1  0  0  0
 14 15  1  0  0  0  0
 16 15  1  0  0  0  0
 17 22  1  0  0  0  0
 17 14  1  0  0  0  0
 18 26  1  0  0  0  0
 19 24  1  0  0  0  0
 19 18  2  0  0  0  0
 20 19  1  0  0  0  0
 21 20  2  0  0  0  0
 21 22  1  0  0  0  0
 22 23  2  0  0  0  0
 23 18  1  0  0  0  0
 25 20  1  0  0  0  0
 26 27  1  0  0  0  0
 28  1  1  0  0  0  0
 29 36  1  1  0  0  0
 30 28  1  6  0  0  0
 30 29  1  0  0  0  0
 31 30  1  0  0  0  0
 32 31  1  0  0  0  0
 33 31  1  0  0  0  0
 33 34  1  0  0  0  0
 34 29  1  0  0  0  0
 35 34  1  0  0  0  0
 37 36  1  0  0  0  0
M  END
>  <minimizedAffinity>
-5.45932436

$$$$

 OpenBabel03252500263D

 37 39  0  0  1  0  0  0  0  0999 V2000
   36.6990   30.4480   39.7540 C   0  0  2  0  0  0  0  0  0  0  0  0
   36.3710   29.0470   40.0770 C   0  0  2  0  0  0  0  0  0  0  0  0
   35.3530   28.6700   39.0640 C   0  0  0  0  0  0  0  0  0  0  0  0
   35.5950   29.4230   37.9280 O   0  0  0  0  0  0  0  0  0  0  0  0
   36.5330   30.3580   38.2160 C   0  0  0  0  0  0  0  0  0  0  0  0
   36.0840   31.2790   39.9750 H   0  0  0  0  0  0  0  0  0  0  0  0
   37.2840   28.4490   39.9140 H   0  0  0  0  0  0  0  0  0  0  0  0
   34.3150   28.5720   39.3750 H   0  0  0  0  0  0  0  0  0  0  0  0
   35.5750   27.6150   38.7050 H   0  0  0  0  0  0  0  0  0  0  0  0
   36.3310   31.3190   37.7510 H   0  0  0  0  0  0  0  0  0  0  0  0
   37.5230   30.0130   37.7990 H   0  0  0  0  0  0  0  0  0  0  0  0
   35.9550   28.8740   41.3750 O   0  0  0  0  0  0  0  0  0  0  0  0
   36.2800   27.4330   43.4740 O   0  0  0  0  0  0  0  0  0  0  0  0
   36.8820   27.7130   42.1230 P   0  0  1  0  0  0  0  0  0  0  0  0
   36.8520   26.2850   41.2130 O   0  0  0  0  0  0  0  0  0  0  0  0
   37.7060   26.1540   40.7450 H   0  0  0  0  0  0  0  0  0  0  0  0
   38.4950   28.2200   42.3860 O   0  0  0  0  0  0  0  0  0  0  0  0
   40.0980   25.1320   43.1530 C   0  0  0  0  0  0  0  0  0  0  0  0
   41.4510   25.4880   43.4000 C   0  0  0  0  0  0  0  0  0  0  0  0
   41.7630   26.8510   43.2840 C   0  0  0  0  0  0  0  0  0  0  0  0
   40.7920   27.7210   42.9550 N   0  0  0  0  0  0  0  0  0  0  0  0
   39.5160   27.3320   42.7280 C   0  0  0  0  0  0  0  0  0  0  0  0
   39.1790   26.0380   42.8300 N   0  0  0  0  0  0  0  0  0  0  0  0
   42.1990   24.7490   43.6630 H   0  0  0  0  0  0  0  0  0  0  0  0
   42.7750   27.1900   43.4580 H   0  0  0  0  0  0  0  0  0  0  0  0
   39.7790   23.7940   43.2650 O   0  0  0  0  0  0  0  0  0  0  0  0
   40.3270   23.1630   42.6650 H   0  0  0  0  0  0  0  0  0  0  0  0
   37.9310   30.8960   40.0820 O   0  0  0  0  0  0  0  0  0  0  0  0
   38.4230   33.2190   40.3920 C   0  0  2  0  0  3  0  0  0  0  0  0
   38.2820   31.8060   40.9290 C   0  0  2  0  0  3  0  0  0  0  0  0
   39.7730   31.5750   41.2360 C   0  0  0  0  0  3  0  0  0  0  0  0
   40.0410   30.5070   41.1100 H   0  0  0  0  0  0  0  0  0  0  0  0
   40.4900   32.3040   40.3140 O   0  0  0  0  0  0  0  0  0  0  0  0
   39.6200   33.0030   39.4940 C   0  0  0  0  0  3  0  0  0  0  0  0
   39.3180   32.4080   38.6000 H   0  0  0  0  0  0  0  0  0  0  0  0
   38.7340   34.0890   41.4070 O   0  0  0  0  0  0  0  0  0  0  0  0
   38.9220   33.5730   42.2280 H   0  0  0  0  0  0  0  0  0  0  0  0
  1  6  1  1  0  0  0
  1  2  1  0  0  0  0
  1 28  1  0  0  0  0
  2  7  1  6  0  0  0
  2 12  1  0  0  0  0
  3  8  1  0  0  0  0
  3  2  1  0  0  0  0
  4  5  1  0  0  0  0
  4  3  1  0  0  0  0
  5  1  1  0  0  0  0
  9  3  1  0  0  0  0
 10  5  1  0  0  0  0
 11  5  1  0  0  0  0
 12 14  1  0  0  0  0
 14 17  1  0  0  0  0
 14 13  2  1  0  0  0
 15 14  1  0  0  0  0
 16 15  1  0  0  0  0
 17 22  1  0  0  0  0
 18 26  1  0  0  0  0
 18 19  1  0  0  0  0
 19 24  1  0  0  0  0
 20 19  2  0  0  0  0
 20 25  1  0  0  0  0
 21 20  1  0  0  0  0
 22 23  1  0  0  0  0
 22 21  2  0  0  0  0
 23 18  2  0  0  0  0
 27 26  1  0  0  0  0
 29 30  1  0  0  0  0
 29 36  1  1  0  0  0
 30 28  1  6  0  0  0
 30 31  1  0  0  0  0
 32 31  1  0  0  0  0
 33 31  1  0  0  0  0
 34 33  1  0  0  0  0
 34 29  1  0  0  0  0
 35 34  1  0  0  0  0
 36 37  1  0  0  0  0
M  END
>  <minimizedAffinity>
-5.40644073

$$$$

 OpenBabel03252500263D

 37 39  0  0  1  0  0  0  0  0999 V2000
   36.9740   29.2870   40.5990 C   0  0  2  0  0  0  0  0  0  0  0  0
   37.8820   30.4040   40.9190 C   0  0  2  0  0  0  0  0  0  0  0  0
   38.5660   29.9700   42.1630 C   0  0  0  0  0  0  0  0  0  0  0  0
   38.6190   28.5870   42.1520 O   0  0  0  0  0  0  0  0  0  0  0  0
   37.8630   28.1310   41.1230 C   0  0  0  0  0  0  0  0  0  0  0  0
   36.0640   29.0850   41.1000 H   0  0  0  0  0  0  0  0  0  0  0  0
   38.6220   30.4700   40.1030 H   0  0  0  0  0  0  0  0  0  0  0  0
   38.2910   30.4420   43.1050 H   0  0  0  0  0  0  0  0  0  0  0  0
   39.6640   30.2530   42.0890 H   0  0  0  0  0  0  0  0  0  0  0  0
   37.2980   27.2380   41.3750 H   0  0  0  0  0  0  0  0  0  0  0  0
   38.5500   27.8360   40.2780 H   0  0  0  0  0  0  0  0  0  0  0  0
   37.2370   31.6110   41.0310 O   0  0  0  0  0  0  0  0  0  0  0  0
   37.1920   33.5180   39.3140 O   0  0  0  0  0  0  0  0  0  0  0  0
   38.1120   32.8010   40.2650 P   0  0  1  0  0  0  0  0  0  0  0  0
   38.6810   33.9150   41.4070 O   0  0  0  0  0  0  0  0  0  0  0  0
   39.6450   33.7990   41.5540 H   0  0  0  0  0  0  0  0  0  0  0  0
   39.4100   32.1790   39.3390 O   0  0  0  0  0  0  0  0  0  0  0  0
   42.1640   33.8090   37.7750 C   0  0  0  0  0  0  0  0  0  0  0  0
   43.0240   34.1600   38.8500 C   0  0  0  0  0  0  0  0  0  0  0  0
   42.5890   33.7980   40.1340 C   0  0  0  0  0  0  0  0  0  0  0  0
   41.4150   33.1560   40.2720 N   0  0  0  0  0  0  0  0  0  0  0  0
   40.6300   32.8440   39.2150 C   0  0  0  0  0  0  0  0  0  0  0  0
   41.0120   33.1740   37.9730 N   0  0  0  0  0  0  0  0  0  0  0  0
   43.9620   34.6780   38.6880 H   0  0  0  0  0  0  0  0  0  0  0  0
   43.1960   34.0350   40.9970 H   0  0  0  0  0  0  0  0  0  0  0  0
   42.5820   34.1600   36.5070 O   0  0  0  0  0  0  0  0  0  0  0  0
   42.7720   35.1630   36.3720 H   0  0  0  0  0  0  0  0  0  0  0  0
   36.6460   29.0950   39.3020 O   0  0  0  0  0  0  0  0  0  0  0  0
   38.0930   29.5560   37.4510 C   0  0  2  0  0  3  0  0  0  0  0  0
   37.3380   28.5840   38.3400 C   0  0  2  0  0  3  0  0  0  0  0  0
   36.3350   28.1020   37.2770 C   0  0  0  0  0  3  0  0  0  0  0  0
   35.3650   27.8360   37.7430 H   0  0  0  0  0  0  0  0  0  0  0  0
   36.1200   29.1580   36.4210 O   0  0  0  0  0  0  0  0  0  0  0  0
   36.9090   30.2320   36.7970 C   0  0  0  0  0  3  0  0  0  0  0  0
   36.3950   30.8910   37.5360 H   0  0  0  0  0  0  0  0  0  0  0  0
   38.8350   28.8760   36.5180 O   0  0  0  0  0  0  0  0  0  0  0  0
   38.6040   27.9170   36.5590 H   0  0  0  0  0  0  0  0  0  0  0  0
  1  2  1  0  0  0  0
  1  6  1  1  0  0  0
  1  5  1  0  0  0  0
  2  7  1  6  0  0  0
  2 12  1  0  0  0  0
  2  3  1  0  0  0  0
  3  8  1  0  0  0  0
  4  3  1  0  0  0  0
  5 10  1  0  0  0  0
  5  4  1  0  0  0  0
  9  3  1  0  0  0  0
 11  5  1  0  0  0  0
 14 13  2  6  0  0  0
 14 12  1  0  0  0  0
 14 15  1  0  0  0  0
 15 16  1  0  0  0  0
 17 14  1  0  0  0  0
 18 23  2  0  0  0  0
 18 19  1  0  0  0  0
 19 20  2  0  0  0  0
 20 21  1  0  0  0  0
 20 25  1  0  0  0  0
 22 17  1  0  0  0  0
 22 21  2  0  0  0  0
 23 22  1  0  0  0  0
 24 19  1  0  0  0  0
 26 18  1  0  0  0  0
 27 26  1  0  0  0  0
 28  1  1  0  0  0  0
 29 36  1  6  0  0  0
 29 30  1  0  0  0  0
 30 28  1  1  0  0  0
 31 32  1  0  0  0  0
 31 30  1  0  0  0  0
 33 34  1  0  0  0  0
 33 31  1  0  0  0  0
 34 29  1  0  0  0  0
 34 35  1  0  0  0  0
 36 37  1  0  0  0  0
M  END
>  <minimizedAffinity>
-5.39113188

$$$$

 OpenBabel03252500263D

 37 39  0  0  1  0  0  0  0  0999 V2000
   37.7920   29.8600   40.4070 C   0  0  2  0  0  0  0  0  0  0  0  0
   36.8010   30.8810   40.0240 C   0  0  2  0  0  0  0  0  0  0  0  0
   36.9550   31.0030   38.5530 C   0  0  0  0  0  0  0  0  0  0  0  0
   37.3910   29.7800   38.0750 O   0  0  0  0  0  0  0  0  0  0  0  0
   37.7060   28.9880   39.1290 C   0  0  0  0  0  0  0  0  0  0  0  0
   38.8360   30.0230   40.4690 H   0  0  0  0  0  0  0  0  0  0  0  0
   35.8020   30.4720   40.2520 H   0  0  0  0  0  0  0  0  0  0  0  0
   37.4410   31.8890   38.1470 H   0  0  0  0  0  0  0  0  0  0  0  0
   35.9210   31.0880   38.0880 H   0  0  0  0  0  0  0  0  0  0  0  0
   38.5960   28.3890   38.9590 H   0  0  0  0  0  0  0  0  0  0  0  0
   36.8640   28.2540   39.2890 H   0  0  0  0  0  0  0  0  0  0  0  0
   36.9570   32.0670   40.7000 O   0  0  0  0  0  0  0  0  0  0  0  0
   38.3970   34.1610   40.3410 O   0  0  0  0  0  0  0  0  0  0  0  0
   38.4910   32.6630   40.4620 P   0  0  1  0  0  0  0  0  0  0  0  0
   39.4620   32.2910   41.7990 O   0  0  0  0  0  0  0  0  0  0  0  0
   40.0940   31.5720   41.5790 H   0  0  0  0  0  0  0  0  0  0  0  0
   39.2120   32.0860   39.0210 O   0  0  0  0  0  0  0  0  0  0  0  0
   42.2230   33.2590   37.5220 C   0  0  0  0  0  0  0  0  0  0  0  0
   43.2520   32.5250   38.1740 C   0  0  0  0  0  0  0  0  0  0  0  0
   42.8330   31.6100   39.1530 C   0  0  0  0  0  0  0  0  0  0  0  0
   41.5200   31.4820   39.4130 N   0  0  0  0  0  0  0  0  0  0  0  0
   40.5780   32.2060   38.7640 C   0  0  0  0  0  0  0  0  0  0  0  0
   40.9390   33.0890   37.8230 N   0  0  0  0  0  0  0  0  0  0  0  0
   44.2980   32.6630   37.9290 H   0  0  0  0  0  0  0  0  0  0  0  0
   43.5650   31.0200   39.6870 H   0  0  0  0  0  0  0  0  0  0  0  0
   42.6230   34.1610   36.5570 O   0  0  0  0  0  0  0  0  0  0  0  0
   43.2900   34.8760   36.8780 H   0  0  0  0  0  0  0  0  0  0  0  0
   37.5420   29.1240   41.5130 O   0  0  0  0  0  0  0  0  0  0  0  0
   39.3600   27.8190   42.3640 C   0  0  2  0  0  3  0  0  0  0  0  0
   38.2930   28.8850   42.5350 C   0  0  2  0  0  3  0  0  0  0  0  0
   37.4290   28.1200   43.5530 C   0  0  0  0  0  3  0  0  0  0  0  0
   36.3580   28.3850   43.4390 H   0  0  0  0  0  0  0  0  0  0  0  0
   37.5670   26.7800   43.2700 O   0  0  0  0  0  0  0  0  0  0  0  0
   38.4570   26.6140   42.2220 C   0  0  0  0  0  3  0  0  0  0  0  0
   37.9450   26.6410   41.2310 H   0  0  0  0  0  0  0  0  0  0  0  0
   40.1240   27.7160   43.4990 O   0  0  0  0  0  0  0  0  0  0  0  0
   39.7190   28.2690   44.2100 H   0  0  0  0  0  0  0  0  0  0  0  0
  1  6  1  1  0  0  0
  1 28  1  0  0  0  0
  2  7  1  1  0  0  0
  2  1  1  0  0  0  0
  2 12  1  0  0  0  0
  3  2  1  0  0  0  0
  4  3  1  0  0  0  0
  4  5  1  0  0  0  0
  5 11  1  0  0  0  0
  5  1  1  0  0  0  0
  8  3  1  0  0  0  0
  9  3  1  0  0  0  0
 10  5  1  0  0  0  0
 14 13  2  6  0  0  0
 14 12  1  0  0  0  0
 14 15  1  0  0  0  0
 16 15  1  0  0  0  0
 17 14  1  0  0  0  0
 18 23  2  0  0  0  0
 18 19  1  0  0  0  0
 19 20  2  0  0  0  0
 20 21  1  0  0  0  0
 20 25  1  0  0  0  0
 22 17  1  0  0  0  0
 22 21  2  0  0  0  0
 23 22  1  0  0  0  0
 24 19  1  0  0  0  0
 26 27  1  0  0  0  0
 26 18  1  0  0  0  0
 29 30  1  0  0  0  0
 29 36  1  1  0  0  0
 30 28  1  6  0  0  0
 30 31  1  0  0  0  0
 32 31  1  0  0  0  0
 33 31  1  0  0  0  0
 34 29  1  0  0  0  0
 34 33  1  0  0  0  0
 35 34  1  0  0  0  0
 36 37  1  0  0  0  0
M  END
>  <minimizedAffinity>
-5.33444595

$$$$

 OpenBabel03252500263D

 37 39  0  0  1  0  0  0  0  0999 V2000
   37.6580   29.6220   37.9760 C   0  0  2  0  0  0  0  0  0  0  0  0
   37.6240   30.0280   39.3930 C   0  0  2  0  0  0  0  0  0  0  0  0
   38.5100   31.2170   39.4510 C   0  0  0  0  0  0  0  0  0  0  0  0
   38.4610   31.8360   38.2140 O   0  0  0  0  0  0  0  0  0  0  0  0
   37.7900   31.0350   37.3520 C   0  0  0  0  0  0  0  0  0  0  0  0
   38.4630   29.1190   37.5100 H   0  0  0  0  0  0  0  0  0  0  0  0
   36.5900   30.3350   39.6240 H   0  0  0  0  0  0  0  0  0  0  0  0
   39.4930   31.1180   39.9100 H   0  0  0  0  0  0  0  0  0  0  0  0
   38.0290   31.9930   40.1280 H   0  0  0  0  0  0  0  0  0  0  0  0
   38.2250   31.0230   36.3570 H   0  0  0  0  0  0  0  0  0  0  0  0
   36.7430   31.4380   37.2290 H   0  0  0  0  0  0  0  0  0  0  0  0
   37.9880   29.0200   40.2530 O   0  0  0  0  0  0  0  0  0  0  0  0
   38.0170   29.8660   42.6760 O   0  0  0  0  0  0  0  0  0  0  0  0
   37.1430   29.1510   41.6790 P   0  0  1  0  0  0  0  0  0  0  0  0
   35.7450   30.0740   41.4310 O   0  0  0  0  0  0  0  0  0  0  0  0
   34.9470   29.5010   41.4280 H   0  0  0  0  0  0  0  0  0  0  0  0
   36.7440   27.6320   42.3570 O   0  0  0  0  0  0  0  0  0  0  0  0
   38.3240   24.4420   42.2230 C   0  0  0  0  0  0  0  0  0  0  0  0
   39.5130   24.6040   42.9860 C   0  0  0  0  0  0  0  0  0  0  0  0
   39.7230   25.8760   43.5400 C   0  0  0  0  0  0  0  0  0  0  0  0
   38.8150   26.8440   43.3260 N   0  0  0  0  0  0  0  0  0  0  0  0
   37.6970   26.6390   42.5900 C   0  0  0  0  0  0  0  0  0  0  0  0
   37.4610   25.4380   42.0440 N   0  0  0  0  0  0  0  0  0  0  0  0
   40.2160   23.7920   43.1300 H   0  0  0  0  0  0  0  0  0  0  0  0
   40.6080   26.0670   44.1310 H   0  0  0  0  0  0  0  0  0  0  0  0
   38.1070   23.1950   41.6730 O   0  0  0  0  0  0  0  0  0  0  0  0
   38.8580   22.8510   41.0600 H   0  0  0  0  0  0  0  0  0  0  0  0
   36.5790   28.9740   37.4820 O   0  0  0  0  0  0  0  0  0  0  0  0
   34.3930   28.4060   38.2760 C   0  0  2  0  0  3  0  0  0  0  0  0
   35.3330   29.3100   37.4980 C   0  0  2  0  0  3  0  0  0  0  0  0
   34.7710   29.0000   36.0980 C   0  0  0  0  0  3  0  0  0  0  0  0
   35.5680   29.0640   35.3310 H   0  0  0  0  0  0  0  0  0  0  0  0
   34.3150   27.7020   36.1280 O   0  0  0  0  0  0  0  0  0  0  0  0
   34.4810   27.1770   37.3990 C   0  0  0  0  0  3  0  0  0  0  0  0
   35.4790   26.6950   37.5250 H   0  0  0  0  0  0  0  0  0  0  0  0
   33.1190   28.9150   38.2640 O   0  0  0  0  0  0  0  0  0  0  0  0
   33.0840   29.6820   37.6430 H   0  0  0  0  0  0  0  0  0  0  0  0
  1  6  1  6  0  0  0
  1  2  1  0  0  0  0
  2  3  1  0  0  0  0
  2  7  1  1  0  0  0
  2 12  1  0  0  0  0
  3  8  1  0  0  0  0
  3  9  1  0  0  0  0
  4  3  1  0  0  0  0
  5  1  1  0  0  0  0
  5  4  1  0  0  0  0
 10  5  1  0  0  0  0
 11  5  1  0  0  0  0
 12 14  1  0  0  0  0
 14 17  1  0  0  0  0
 14 13  2  1  0  0  0
 15 14  1  0  0  0  0
 16 15  1  0  0  0  0
 17 22  1  0  0  0  0
 18 19  1  0  0  0  0
 19 24  1  0  0  0  0
 19 20  2  0  0  0  0
 20 25  1  0  0  0  0
 21 20  1  0  0  0  0
 22 21  2  0  0  0  0
 23 18  2  0  0  0  0
 23 22  1  0  0  0  0
 26 18  1  0  0  0  0
 27 26  1  0  0  0  0
 28  1  1  0  0  0  0
 29 36  1  6  0  0  0
 30 28  1  6  0  0  0
 30 29  1  0  0  0  0
 31 33  1  0  0  0  0
 31 30  1  0  0  0  0
 32 31  1  0  0  0  0
 33 34  1  0  0  0  0
 34 35  1  0  0  0  0
 34 29  1  0  0  0  0
 37 36  1  0  0  0  0
M  END
>  <minimizedAffinity>
-5.24219847

$$$$

 OpenBabel03252500263D

 37 39  0  0  1  0  0  0  0  0999 V2000
   36.2000   26.9220   38.9460 C   0  0  2  0  0  0  0  0  0  0  0  0
   36.8100   27.6050   40.1020 C   0  0  2  0  0  0  0  0  0  0  0  0
   37.0590   26.5140   41.0770 C   0  0  0  0  0  0  0  0  0  0  0  0
   37.2660   25.3490   40.3590 O   0  0  0  0  0  0  0  0  0  0  0  0
   36.9730   25.5830   39.0560 C   0  0  0  0  0  0  0  0  0  0  0  0
   35.2010   26.5760   38.9060 H   0  0  0  0  0  0  0  0  0  0  0  0
   37.7750   28.0200   39.7680 H   0  0  0  0  0  0  0  0  0  0  0  0
   36.4230   26.4400   41.9570 H   0  0  0  0  0  0  0  0  0  0  0  0
   38.0760   26.6840   41.5560 H   0  0  0  0  0  0  0  0  0  0  0  0
   36.4580   24.7530   38.5810 H   0  0  0  0  0  0  0  0  0  0  0  0
   37.9390   25.7150   38.4890 H   0  0  0  0  0  0  0  0  0  0  0  0
   36.0360   28.6270   40.5970 O   0  0  0  0  0  0  0  0  0  0  0  0
   36.3890   31.1430   40.9620 O   0  0  0  0  0  0  0  0  0  0  0  0
   37.0020   29.8020   41.2680 P   0  0  1  0  0  0  0  0  0  0  0  0
   37.0540   29.6060   42.9500 O   0  0  0  0  0  0  0  0  0  0  0  0
   37.9210   29.2390   43.2300 H   0  0  0  0  0  0  0  0  0  0  0  0
   38.5850   29.8120   40.6190 O   0  0  0  0  0  0  0  0  0  0  0  0
   39.8510   32.2110   38.3090 C   0  0  0  0  0  0  0  0  0  0  0  0
   40.3940   33.2380   39.1280 C   0  0  0  0  0  0  0  0  0  0  0  0
   40.2910   33.0430   40.5140 C   0  0  0  0  0  0  0  0  0  0  0  0
   39.7020   31.9270   40.9780 N   0  0  0  0  0  0  0  0  0  0  0  0
   39.1990   30.9760   40.1550 C   0  0  0  0  0  0  0  0  0  0  0  0
   39.2790   31.1270   38.8260 N   0  0  0  0  0  0  0  0  0  0  0  0
   40.8600   34.1210   38.7060 H   0  0  0  0  0  0  0  0  0  0  0  0
   40.6840   33.7860   41.1940 H   0  0  0  0  0  0  0  0  0  0  0  0
   39.9470   32.3920   36.9440 O   0  0  0  0  0  0  0  0  0  0  0  0
   39.5230   33.2590   36.5880 H   0  0  0  0  0  0  0  0  0  0  0  0
   36.3690   27.4790   37.7260 O   0  0  0  0  0  0  0  0  0  0  0  0
   36.5730   29.6730   36.7880 C   0  0  2  0  0  3  0  0  0  0  0  0
   37.1880   28.4000   37.3430 C   0  0  2  0  0  3  0  0  0  0  0  0
   37.8230   27.9120   36.0280 C   0  0  0  0  0  3  0  0  0  0  0  0
   37.8490   26.8050   35.9910 H   0  0  0  0  0  0  0  0  0  0  0  0
   37.0130   28.3520   35.0060 O   0  0  0  0  0  0  0  0  0  0  0  0
   35.9710   29.1010   35.5240 C   0  0  0  0  0  3  0  0  0  0  0  0
   35.0880   28.4680   35.7800 H   0  0  0  0  0  0  0  0  0  0  0  0
   37.5510   30.5860   36.4840 O   0  0  0  0  0  0  0  0  0  0  0  0
   38.4340   30.1540   36.5750 H   0  0  0  0  0  0  0  0  0  0  0  0
  1  6  1  1  0  0  0
  1  5  1  0  0  0  0
  1  2  1  0  0  0  0
  2  7  1  6  0  0  0
  2 12  1  0  0  0  0
  2  3  1  0  0  0  0
  3  9  1  0  0  0  0
  3  8  1  0  0  0  0
  4  3  1  0  0  0  0
  5  4  1  0  0  0  0
 10  5  1  0  0  0  0
 11  5  1  0  0  0  0
 12 14  1  0  0  0  0
 14 13  2  6  0  0  0
 14 15  1  0  0  0  0
 15 16  1  0  0  0  0
 17 14  1  0  0  0  0
 18 23  2  0  0  0  0
 18 19  1  0  0  0  0
 19 20  2  0  0  0  0
 20 21  1  0  0  0  0
 20 25  1  0  0  0  0
 22 17  1  0  0  0  0
 22 21  2  0  0  0  0
 23 22  1  0  0  0  0
 24 19  1  0  0  0  0
 26 18  1  0  0  0  0
 27 26  1  0  0  0  0
 28  1  1  0  0  0  0
 29 36  1  6  0  0  0
 29 30  1  0  0  0  0
 30 28  1  6  0  0  0
 31 30  1  0  0  0  0
 32 31  1  0  0  0  0
 33 34  1  0  0  0  0
 33 31  1  0  0  0  0
 34 35  1  0  0  0  0
 34 29  1  0  0  0  0
 36 37  1  0  0  0  0
M  END
>  <minimizedAffinity>
-5.09518337

$$$$
