
 OpenBabel03252504323D

 40 42  0  0  1  0  0  0  0  0999 V2000
   42.6240   35.4160   40.6180 O   0  0  0  0  0  0  0  0  0  0  0  0
   41.4250   35.6320   41.2230 C   0  0  0  0  0  0  0  0  0  0  0  0
   41.4350   35.6310   42.3480 H   0  0  0  0  0  0  0  0  0  0  0  0
   40.9930   36.6140   40.9290 H   0  0  0  0  0  0  0  0  0  0  0  0
   40.5400   33.3860   41.5840 C   0  0  0  0  0  0  0  0  0  0  0  0
   40.3940   34.6010   40.8810 C   0  0  0  0  0  0  0  0  0  0  0  0
   39.3640   34.7060   40.0060 C   0  0  0  0  0  0  0  0  0  0  0  0
   38.5660   33.6470   39.8760 N   0  0  0  0  0  0  0  0  0  0  0  0
   38.6930   32.5080   40.5260 C   0  0  0  0  0  0  0  0  0  0  0  0
   39.7260   32.3260   41.4420 N   0  0  0  0  0  0  0  0  0  0  0  0
   41.3290   33.2050   42.3030 H   0  0  0  0  0  0  0  0  0  0  0  0
   39.2900   35.6360   39.4960 H   0  0  0  0  0  0  0  0  0  0  0  0
   37.6760   30.4940   41.4950 C   0  0  2  0  0  3  0  0  0  0  0  0
   37.7360   31.3920   40.2980 C   0  0  2  0  0  3  0  0  0  0  0  0
   38.4030   30.4700   39.2710 C   0  0  0  0  0  3  0  0  0  0  0  0
   38.0180   30.6880   38.2600 H   0  0  0  0  0  0  0  0  0  0  0  0
   38.0740   29.1650   39.6790 O   0  0  0  0  0  0  0  0  0  0  0  0
   38.4270   29.2450   41.0360 C   0  0  0  0  0  3  0  0  0  0  0  0
   38.0570   28.3480   41.5650 H   0  0  0  0  0  0  0  0  0  0  0  0
   36.3550   30.0970   41.7070 O   0  0  0  0  0  0  0  0  0  0  0  0
   36.0530   29.5700   40.9170 H   0  0  0  0  0  0  0  0  0  0  0  0
   43.8730   35.3010   41.2080 C   0  0  0  0  0  3  0  0  0  0  0  0
   43.9370   35.5920   42.5020 C   0  0  0  0  0  3  0  0  0  0  0  0
   45.1830   35.5390   43.3630 C   0  0  0  0  0  0  0  0  0  0  0  0
   45.9860   35.1910   42.6620 H   0  0  0  0  0  0  0  0  0  0  0  0
   45.4680   36.5380   43.7010 H   0  0  0  0  0  0  0  0  0  0  0  0
   44.9620   34.6140   44.3600 O   0  0  0  0  0  0  0  0  0  0  0  0
   45.6910   32.4840   42.9320 O   0  0  0  0  0  0  0  0  0  0  0  0
   45.9830   33.2850   44.1790 P   0  0  1  0  0  0  0  0  0  0  0  0
   47.6030   33.8090   44.0610 O   0  0  0  0  0  0  0  0  0  0  0  0
   47.6750   34.5640   44.7240 H   0  0  0  0  0  0  0  0  0  0  0  0
   45.8900   32.2910   45.5390 O   0  0  0  0  0  0  0  0  0  0  0  0
   46.1620   32.9740   46.7090 C   0  0  0  0  0  0  0  0  0  0  0  0
   47.0420   32.3300   47.7360 C   0  0  0  0  0  0  0  0  0  0  0  0
   45.5470   32.3870   47.9560 C   0  0  0  0  0  0  0  0  0  0  0  0
   46.2350   34.0760   46.6730 H   0  0  0  0  0  0  0  0  0  0  0  0
   47.6160   32.9920   48.4140 H   0  0  0  0  0  0  0  0  0  0  0  0
   47.4850   31.3620   47.4510 H   0  0  0  0  0  0  0  0  0  0  0  0
   45.0390   31.4030   47.9110 H   0  0  0  0  0  0  0  0  0  0  0  0
   45.1430   33.0440   48.7390 H   0  0  0  0  0  0  0  0  0  0  0  0
  1 22  1  0  0  0  0
  1  2  1  0  0  0  0
  2  3  1  0  0  0  0
  4  2  1  0  0  0  0
  5 11  1  0  0  0  0
  6  2  1  0  0  0  0
  6  5  2  0  0  0  0
  7  6  1  0  0  0  0
  8  7  2  0  0  0  0
  8  9  1  0  0  0  0
  9 10  2  0  0  0  0
 10  5  1  0  0  0  0
 12  7  1  0  0  0  0
 13 20  1  6  0  0  0
 14  9  1  1  0  0  0
 14 13  1  0  0  0  0
 15 17  1  0  0  0  0
 15 14  1  0  0  0  0
 16 15  1  0  0  0  0
 17 18  1  0  0  0  0
 18 13  1  0  0  0  0
 18 19  1  0  0  0  0
 21 20  1  0  0  0  0
 22 23  2  0  0  0  0
 23 24  1  0  0  0  0
 24 26  1  0  0  0  0
 24 27  1  0  0  0  0
 25 24  1  0  0  0  0
 29 28  2  6  0  0  0
 29 27  1  0  0  0  0
 29 32  1  0  0  0  0
 30 29  1  0  0  0  0
 30 31  1  0  0  0  0
 32 33  1  0  0  0  0
 33 34  1  0  0  0  0
 33 35  1  0  0  0  0
 34 35  1  0  0  0  0
 34 37  1  0  0  0  0
 35 40  1  0  0  0  0
 36 33  1  0  0  0  0
 38 34  1  0  0  0  0
 39 35  1  0  0  0  0
M  END
>  <minimizedAffinity>
-5.42068243

>  <minimizedRMSD>
0.472914457

$$$$
