
 OpenBabel03252504323D

 40 42  0  0  1  0  0  0  0  0999 V2000
   42.8680   35.3620   40.6340 O   0  0  0  0  0  0  0  0  0  0  0  0
   41.6550   35.6930   41.1520 C   0  0  0  0  0  0  0  0  0  0  0  0
   41.6060   35.7860   42.2720 H   0  0  0  0  0  0  0  0  0  0  0  0
   41.2970   36.6700   40.7560 H   0  0  0  0  0  0  0  0  0  0  0  0
   40.8290   33.4050   41.3510 C   0  0  0  0  0  0  0  0  0  0  0  0
   40.5830   34.6960   40.8370 C   0  0  0  0  0  0  0  0  0  0  0  0
   39.4350   34.8920   40.1410 C   0  0  0  0  0  0  0  0  0  0  0  0
   38.6260   33.8440   39.9960 N   0  0  0  0  0  0  0  0  0  0  0  0
   38.8450   32.6350   40.4720 C   0  0  0  0  0  0  0  0  0  0  0  0
   40.0010   32.3580   41.1970 N   0  0  0  0  0  0  0  0  0  0  0  0
   41.7140   33.1490   41.9190 H   0  0  0  0  0  0  0  0  0  0  0  0
   39.2880   35.8780   39.7700 H   0  0  0  0  0  0  0  0  0  0  0  0
   37.6940   30.7180   41.4860 C   0  0  2  0  0  3  0  0  0  0  0  0
   37.8630   31.5400   40.2470 C   0  0  2  0  0  3  0  0  0  0  0  0
   38.5570   30.5370   39.3180 C   0  0  0  0  0  3  0  0  0  0  0  0
   38.2460   30.7080   38.2740 H   0  0  0  0  0  0  0  0  0  0  0  0
   38.1550   29.2710   39.7790 O   0  0  0  0  0  0  0  0  0  0  0  0
   38.4250   29.4190   41.1490 C   0  0  0  0  0  3  0  0  0  0  0  0
   37.9910   28.5680   41.7030 H   0  0  0  0  0  0  0  0  0  0  0  0
   36.3490   30.3790   41.6350 O   0  0  0  0  0  0  0  0  0  0  0  0
   36.0780   29.8170   40.8590 H   0  0  0  0  0  0  0  0  0  0  0  0
   44.0730   35.2140   41.3040 C   0  0  0  0  0  3  0  0  0  0  0  0
   44.0870   35.6000   42.5740 C   0  0  0  0  0  3  0  0  0  0  0  0
   45.2790   35.5340   43.5070 C   0  0  0  0  0  0  0  0  0  0  0  0
   46.1230   35.1970   42.8520 H   0  0  0  0  0  0  0  0  0  0  0  0
   45.5410   36.5290   43.8770 H   0  0  0  0  0  0  0  0  0  0  0  0
   44.9980   34.5950   44.4760 O   0  0  0  0  0  0  0  0  0  0  0  0
   45.6410   32.4270   43.0650 O   0  0  0  0  0  0  0  0  0  0  0  0
   45.9810   33.2380   44.2940 P   0  0  1  0  0  0  0  0  0  0  0  0
   47.6100   33.7170   44.1340 O   0  0  0  0  0  0  0  0  0  0  0  0
   47.7170   34.4790   44.7840 H   0  0  0  0  0  0  0  0  0  0  0  0
   45.8910   32.2660   45.6700 O   0  0  0  0  0  0  0  0  0  0  0  0
   46.1940   32.9610   46.8250 C   0  0  0  0  0  0  0  0  0  0  0  0
   47.0710   32.3110   47.8520 C   0  0  0  0  0  0  0  0  0  0  0  0
   45.5810   32.4110   48.0890 C   0  0  0  0  0  0  0  0  0  0  0  0
   46.2960   34.0600   46.7690 H   0  0  0  0  0  0  0  0  0  0  0  0
   47.6690   32.9690   48.5130 H   0  0  0  0  0  0  0  0  0  0  0  0
   47.4850   31.3270   47.5790 H   0  0  0  0  0  0  0  0  0  0  0  0
   45.0470   31.4400   48.0670 H   0  0  0  0  0  0  0  0  0  0  0  0
   45.2020   33.0910   48.8660 H   0  0  0  0  0  0  0  0  0  0  0  0
  1  2  1  0  0  0  0
  1 22  1  0  0  0  0
  2  3  1  0  0  0  0
  4  2  1  0  0  0  0
  5 11  1  0  0  0  0
  6  2  1  0  0  0  0
  6  5  2  0  0  0  0
  7  6  1  0  0  0  0
  8  7  2  0  0  0  0
  8  9  1  0  0  0  0
  9 10  2  0  0  0  0
 10  5  1  0  0  0  0
 12  7  1  0  0  0  0
 13 20  1  6  0  0  0
 14  9  1  1  0  0  0
 14 13  1  0  0  0  0
 15 17  1  0  0  0  0
 15 14  1  0  0  0  0
 16 15  1  0  0  0  0
 17 18  1  0  0  0  0
 18 13  1  0  0  0  0
 18 19  1  0  0  0  0
 21 20  1  0  0  0  0
 22 23  2  0  0  0  0
 23 24  1  0  0  0  0
 24 26  1  0  0  0  0
 24 27  1  0  0  0  0
 25 24  1  0  0  0  0
 29 28  2  6  0  0  0
 29 27  1  0  0  0  0
 29 32  1  0  0  0  0
 30 29  1  0  0  0  0
 30 31  1  0  0  0  0
 32 33  1  0  0  0  0
 33 34  1  0  0  0  0
 33 35  1  0  0  0  0
 34 35  1  0  0  0  0
 34 37  1  0  0  0  0
 35 40  1  0  0  0  0
 36 33  1  0  0  0  0
 38 34  1  0  0  0  0
 39 35  1  0  0  0  0
M  END
>  <minimizedAffinity>
-5.473804

>  <minimizedRMSD>
0.609805107

$$$$
