
 OpenBabel03242518553D

 38 40  0  0  1  0  0  0  0  0999 V2000
   45.7790   31.2530   46.6250 C   0  0  2  0  0  0  0  0  0  0  0  0
   45.9680   30.4350   47.8620 C   0  0  0  0  0  0  0  0  0  0  0  0
   45.1700   29.1920   47.6910 C   0  0  0  0  0  0  0  0  0  0  0  0
   44.3500   29.1150   46.4480 C   0  0  0  0  0  0  0  0  0  0  0  0
   45.2160   29.3260   45.2370 C   0  0  0  0  0  0  0  0  0  0  0  0
   46.1670   30.4140   45.4210 C   0  0  2  0  0  0  0  0  0  0  0  0
   44.6950   31.4400   46.4810 H   0  0  0  0  0  0  0  0  0  0  0  0
   45.5820   31.0700   48.7080 H   0  0  0  0  0  0  0  0  0  0  0  0
   47.0320   30.2540   48.1210 H   0  0  0  0  0  0  0  0  0  0  0  0
   44.4200   29.1630   48.5380 H   0  0  0  0  0  0  0  0  0  0  0  0
   45.7410   28.2410   47.8500 H   0  0  0  0  0  0  0  0  0  0  0  0
   43.9200   28.0890   46.4130 H   0  0  0  0  0  0  0  0  0  0  0  0
   43.4700   29.7910   46.4800 H   0  0  0  0  0  0  0  0  0  0  0  0
   44.4960   29.6190   44.4160 H   0  0  0  0  0  0  0  0  0  0  0  0
   45.5970   28.3370   44.9260 H   0  0  0  0  0  0  0  0  0  0  0  0
   46.2380   31.1080   44.5730 H   0  0  0  0  0  0  0  0  0  0  0  0
   47.4930   29.7730   45.6430 C   0  0  0  0  0  0  0  0  0  0  0  0
   47.4400   28.7700   46.1250 H   0  0  0  0  0  0  0  0  0  0  0  0
   48.0650   30.4030   46.3560 H   0  0  0  0  0  0  0  0  0  0  0  0
   48.3360   29.5820   44.4180 C   0  0  0  0  0  3  0  0  0  0  0  0
   48.5030   30.8400   43.6030 C   0  0  0  0  0  2  0  0  0  0  0  0
   49.4950   30.3000   42.5660 C   0  0  0  0  0  2  0  0  0  0  0  0
   50.5190   29.6620   43.4900 C   0  0  0  0  0  2  0  0  0  0  0  0
   49.8090   29.3690   44.7880 C   0  0  0  0  0  2  0  0  0  0  0  0
   46.4730   32.5650   46.6510 C   0  0  0  0  0  0  0  0  0  0  0  0
   47.4050   32.8330   47.4430 O   0  0  0  0  0  0  0  0  0  0  0  0
   44.6150   35.3290   45.1450 C   0  0  0  0  0  0  0  0  0  0  0  0
   45.1560   35.4430   43.8370 C   0  0  0  0  0  0  0  0  0  0  0  0
   46.1640   34.5550   43.5100 C   0  0  0  0  0  0  0  0  0  0  0  0
   46.5020   33.6970   44.4730 N   0  0  0  0  0  0  0  0  0  0  0  0
   46.0110   33.5780   45.6850 C   0  0  0  0  0  0  0  0  0  0  0  0
   45.0320   34.4290   46.0270 N   0  0  0  0  0  0  0  0  0  0  0  0
   43.8100   36.0280   45.4250 H   0  0  0  0  0  0  0  0  0  0  0  0
   44.7820   36.1940   43.1530 H   0  0  0  0  0  0  0  0  0  0  0  0
   46.7150   34.6640   42.1710 C   0  0  0  0  0  0  0  0  0  0  0  0
   47.4350   33.5120   41.8680 F   0  0  0  0  0  0  0  0  0  0  0  0
   47.5640   35.7220   42.1740 F   0  0  0  0  0  0  0  0  0  0  0  0
   45.7280   34.7540   41.1960 F   0  0  0  0  0  0  0  0  0  0  0  0
  1  7  1  6  0  0  0
  1 25  1  0  0  0  0
  1  2  1  0  0  0  0
  2  9  1  0  0  0  0
  2  8  1  0  0  0  0
  3 11  1  0  0  0  0
  3  2  1  0  0  0  0
  3 10  1  0  0  0  0
  4 13  1  0  0  0  0
  4  3  1  0  0  0  0
  5  6  1  0  0  0  0
  5  4  1  0  0  0  0
  6 16  1  6  0  0  0
  6 17  1  0  0  0  0
  6  1  1  0  0  0  0
 12  4  1  0  0  0  0
 14  5  1  0  0  0  0
 15  5  1  0  0  0  0
 17 18  1  0  0  0  0
 17 19  1  0  0  0  0
 20 24  1  0  0  0  0
 20 17  1  0  0  0  0
 21 20  1  0  0  0  0
 22 23  1  0  0  0  0
 22 21  1  0  0  0  0
 23 24  1  0  0  0  0
 25 26  2  0  0  0  0
 27 33  1  0  0  0  0
 27 32  1  0  0  0  0
 28 27  2  0  0  0  0
 29 28  1  0  0  0  0
 29 30  2  0  0  0  0
 30 31  1  0  0  0  0
 31 32  2  0  0  0  0
 31 25  1  0  0  0  0
 34 28  1  0  0  0  0
 35 37  1  0  0  0  0
 35 29  1  0  0  0  0
 36 35  1  0  0  0  0
 38 35  1  0  0  0  0
M  END
>  <minimizedAffinity>
-5.27325153

>  <minimizedRMSD>
0.881687522

$$$$
