
 OpenBabel03252504003D

 30 33  0  0  0  0  0  0  0  0999 V2000
   46.0400   31.6720   45.1460 C   0  0  0  0  0  0  0  0  0  0  0  0
   45.8030   32.9930   45.5290 C   0  0  0  0  0  0  0  0  0  0  0  0
   45.5280   33.2800   46.8410 C   0  0  0  0  0  0  0  0  0  0  0  0
   45.4890   32.2590   47.7670 C   0  0  0  0  0  0  0  0  0  0  0  0
   45.2550   32.2140   49.0840 N   0  0  0  0  0  0  0  0  0  0  0  0
   45.3270   30.9690   49.5600 C   0  0  0  0  0  0  0  0  0  0  0  0
   45.6260   30.1280   48.4980 C   0  0  0  0  0  0  0  0  0  0  0  0
   45.7250   30.9410   47.3890 C   0  0  0  0  0  0  0  0  0  0  0  0
   46.0010   30.6570   46.0640 C   0  0  0  0  0  0  0  0  0  0  0  0
   46.2640   31.3910   44.1110 H   0  0  0  0  0  0  0  0  0  0  0  0
   45.3430   34.2990   47.1470 H   0  0  0  0  0  0  0  0  0  0  0  0
   45.0410   33.0420   49.6860 H   0  0  0  0  0  0  0  0  0  0  0  0
   45.1800   30.6320   50.5950 H   0  0  0  0  0  0  0  0  0  0  0  0
   45.7580   29.0660   48.5090 H   0  0  0  0  0  0  0  0  0  0  0  0
   46.1850   29.6280   45.7750 H   0  0  0  0  0  0  0  0  0  0  0  0
   46.8390   34.8310   42.5540 C   0  0  0  0  0  0  0  0  0  0  0  0
   45.9800   35.9270   42.5170 C   0  0  0  0  0  0  0  0  0  0  0  0
   45.0300   36.0320   43.5340 C   0  0  0  0  0  0  0  0  0  0  0  0
   44.9980   35.0720   44.4880 N   0  0  0  0  0  0  0  0  0  0  0  0
   45.8620   34.0140   44.4830 C   0  0  0  0  0  0  0  0  0  0  0  0
   46.7780   33.9000   43.5150 N   0  0  0  0  0  0  0  0  0  0  0  0
   45.9710   36.7080   41.7830 H   0  0  0  0  0  0  0  0  0  0  0  0
   44.3200   36.8530   43.5830 H   0  0  0  0  0  0  0  0  0  0  0  0
   47.7910   34.7880   41.4780 C   0  0  0  0  0  0  0  0  0  0  0  0
   48.6910   35.6390   41.2300 O   0  0  0  0  0  0  0  0  0  0  0  0
   47.7650   33.6430   40.5160 C   0  0  0  0  0  3  0  0  0  0  0  0
   47.8270   34.1170   39.0880 C   0  0  0  0  0  2  0  0  0  0  0  0
   48.7250   33.1240   38.4140 C   0  0  0  0  0  2  0  0  0  0  0  0
   49.2130   32.1430   39.4300 C   0  0  0  0  0  2  0  0  0  0  0  0
   49.0220   32.8290   40.7450 C   0  0  0  0  0  2  0  0  0  0  0  0
  1  2  2  0  0  0  0
  1  9  1  0  0  0  0
  2  3  1  0  0  0  0
  3 11  1  0  0  0  0
  3  4  2  0  0  0  0
  4  5  1  0  0  0  0
  5  6  1  0  0  0  0
  5 12  1  0  0  0  0
  6 13  1  0  0  0  0
  7 14  1  0  0  0  0
  7  6  2  0  0  0  0
  8  4  1  0  0  0  0
  8  7  1  0  0  0  0
  9  8  2  0  0  0  0
 10  1  1  0  0  0  0
 15  9  1  0  0  0  0
 16 21  1  0  0  0  0
 17 16  2  0  0  0  0
 17 18  1  0  0  0  0
 18 23  1  0  0  0  0
 18 19  2  0  0  0  0
 20 19  1  0  0  0  0
 20  2  1  0  0  0  0
 21 20  2  0  0  0  0
 22 17  1  0  0  0  0
 24 16  1  0  0  0  0
 25 24  2  0  0  0  0
 26 30  1  0  0  0  0
 26 24  1  0  0  0  0
 27 26  1  0  0  0  0
 28 27  1  0  0  0  0
 28 29  1  0  0  0  0
 29 30  1  0  0  0  0
M  END
>  <minimizedAffinity>
-5.98227692

>  <minimizedRMSD>
0.203535676

$$$$
