
 OpenBabel03252507553D

 40 43  0  0  1  0  0  0  0  0999 V2000
   47.1030   34.8290   42.0930 C   0  0  2  0  0  0  0  0  0  0  0  0
   46.3270   34.3140   40.8820 C   0  0  0  0  0  0  0  0  0  0  0  0
   47.5270   34.1960   39.9150 C   0  0  0  0  0  0  0  0  0  0  0  0
   48.6560   33.7110   40.7700 C   0  0  1  0  0  0  0  0  0  0  0  0
   48.1550   33.7570   42.1820 C   0  0  0  0  0  0  0  0  0  0  0  0
   47.5050   35.8020   41.8210 H   0  0  0  0  0  0  0  0  0  0  0  0
   45.5990   35.0340   40.5180 H   0  0  0  0  0  0  0  0  0  0  0  0
   45.9770   33.3120   41.1220 H   0  0  0  0  0  0  0  0  0  0  0  0
   47.2570   33.5090   39.0960 H   0  0  0  0  0  0  0  0  0  0  0  0
   47.6920   35.2310   39.5690 H   0  0  0  0  0  0  0  0  0  0  0  0
   49.5100   34.4080   40.6310 H   0  0  0  0  0  0  0  0  0  0  0  0
   47.7640   32.8220   42.5750 H   0  0  0  0  0  0  0  0  0  0  0  0
   48.9890   34.1750   42.8150 H   0  0  0  0  0  0  0  0  0  0  0  0
   44.5370   35.7900   44.6780 C   0  0  0  0  0  0  0  0  0  0  0  0
   45.2620   35.8390   43.4930 C   0  0  0  0  0  0  0  0  0  0  0  0
   46.2430   34.8690   43.3110 C   0  0  0  0  0  0  0  0  0  0  0  0
   46.4690   33.8970   44.2950 N   0  0  0  0  0  0  0  0  0  0  0  0
   45.7280   33.9010   45.4320 C   0  0  0  0  0  0  0  0  0  0  0  0
   44.7670   34.8460   45.6190 N   0  0  0  0  0  0  0  0  0  0  0  0
   43.7660   36.5320   44.8480 H   0  0  0  0  0  0  0  0  0  0  0  0
   45.1110   36.5740   42.7180 H   0  0  0  0  0  0  0  0  0  0  0  0
   45.9830   33.1110   46.1250 H   0  0  0  0  0  0  0  0  0  0  0  0
   49.0910   32.2910   40.4920 C   0  0  2  0  0  0  0  0  0  0  0  0
   50.0990   31.7460   41.3970 C   0  0  0  0  0  0  0  0  0  0  0  0
   50.4190   31.9790   39.9600 C   0  0  1  0  0  0  0  0  0  0  0  0
   48.2620   31.6300   40.1870 H   0  0  0  0  0  0  0  0  0  0  0  0
   50.5600   32.4170   42.1570 H   0  0  0  0  0  0  0  0  0  0  0  0
   49.9850   30.7080   41.7780 H   0  0  0  0  0  0  0  0  0  0  0  0
   51.0700   32.8100   39.6230 H   0  0  0  0  0  0  0  0  0  0  0  0
   50.5300   30.8490   39.1130 O   0  0  0  0  0  0  0  0  0  0  0  0
   49.0580   30.8890   36.9600 O   0  0  0  0  0  0  0  0  0  0  0  0
   50.3710   31.3720   37.5230 P   0  0  1  0  0  0  0  0  0  0  0  0
   50.3610   33.0860   37.4640 O   0  0  0  0  0  0  0  0  0  0  0  0
   51.3220   33.3510   37.5850 H   0  0  0  0  0  0  0  0  0  0  0  0
   51.5920   30.8630   36.5180 O   0  0  0  0  0  0  0  0  0  0  0  0
   51.0010   30.0550   35.5300 C   0  0  0  0  0  3  0  0  0  0  0  0
   51.5440   28.6510   35.5780 C   0  0  0  0  0  2  0  0  0  0  0  0
   52.3830   28.4960   34.3240 C   0  0  0  0  0  2  0  0  0  0  0  0
   52.6570   29.9090   33.8610 C   0  0  0  0  0  2  0  0  0  0  0  0
   51.3270   30.5720   34.1440 C   0  0  0  0  0  2  0  0  0  0  0  0
  1  6  1  6  0  0  0
  1  5  1  0  0  0  0
  1 16  1  0  0  0  0
  2  8  1  0  0  0  0
  2  1  1  0  0  0  0
  3  4  1  0  0  0  0
  3  2  1  0  0  0  0
  4 11  1  6  0  0  0
  4  5  1  0  0  0  0
  5 12  1  0  0  0  0
  5 13  1  0  0  0  0
  7  2  1  0  0  0  0
  9  3  1  0  0  0  0
 10  3  1  0  0  0  0
 14 20  1  0  0  0  0
 14 19  1  0  0  0  0
 15 14  2  0  0  0  0
 16 15  1  0  0  0  0
 16 17  2  0  0  0  0
 17 18  1  0  0  0  0
 18 19  2  0  0  0  0
 18 22  1  0  0  0  0
 21 15  1  0  0  0  0
 23 26  1  6  0  0  0
 23  4  1  0  0  0  0
 23 24  1  0  0  0  0
 24 28  1  0  0  0  0
 24 27  1  0  0  0  0
 25 29  1  6  0  0  0
 25 23  1  0  0  0  0
 25 24  1  0  0  0  0
 30 25  1  0  0  0  0
 32 31  2  6  0  0  0
 32 30  1  0  0  0  0
 33 32  1  0  0  0  0
 33 34  1  0  0  0  0
 35 32  1  0  0  0  0
 36 37  1  0  0  0  0
 36 35  1  0  0  0  0
 38 37  1  0  0  0  0
 39 40  1  0  0  0  0
 39 38  1  0  0  0  0
 40 36  1  0  0  0  0
M  END
>  <minimizedAffinity>
-4.97743654

>  <minimizedRMSD>
2.81276941

$$$$
