
 OpenBabel03252503443D

 30 32  0  0  1  0  0  0  0  0999 V2000
   38.3600   29.2800   38.8110 C   0  0  0  0  0  0  0  0  0  0  0  0
   37.6810   29.3530   40.0370 C   0  0  0  0  0  0  0  0  0  0  0  0
   38.0880   30.3550   40.9270 C   0  0  0  0  0  0  0  0  0  0  0  0
   39.0890   31.1880   40.5820 N   0  0  0  0  0  0  0  0  0  0  0  0
   39.7180   31.0910   39.4000 C   0  0  0  0  0  0  0  0  0  0  0  0
   39.3630   30.1310   38.4910 N   0  0  0  0  0  0  0  0  0  0  0  0
   38.1580   28.5710   38.0370 H   0  0  0  0  0  0  0  0  0  0  0  0
   37.5590   30.3920   41.8540 H   0  0  0  0  0  0  0  0  0  0  0  0
   41.1380   32.1380   37.6370 C   0  0  2  0  0  0  0  0  0  0  0  0
   40.7770   32.0640   39.1370 C   0  0  1  0  0  0  0  0  0  0  0  0
   40.4340   33.3680   39.3650 O   0  0  0  0  0  0  0  0  0  0  0  0
   41.3750   34.1540   38.7690 C   0  0  0  0  0  0  0  0  0  0  0  0
   42.1170   33.3200   37.7450 C   0  0  2  0  0  0  0  0  0  0  0  0
   41.6080   31.2230   37.2800 H   0  0  0  0  0  0  0  0  0  0  0  0
   41.7060   31.7460   39.6610 H   0  0  0  0  0  0  0  0  0  0  0  0
   40.8260   34.9400   38.1890 H   0  0  0  0  0  0  0  0  0  0  0  0
   42.0330   34.6960   39.4500 H   0  0  0  0  0  0  0  0  0  0  0  0
   43.0430   32.9390   38.2200 H   0  0  0  0  0  0  0  0  0  0  0  0
   40.0660   32.5830   36.9370 O   0  0  0  0  0  0  0  0  0  0  0  0
   39.4860   33.1610   37.4720 H   0  0  0  0  0  0  0  0  0  0  0  0
   42.3270   33.9380   36.5460 O   0  0  0  0  0  0  0  0  0  0  0  0
   42.5780   33.2530   35.8960 H   0  0  0  0  0  0  0  0  0  0  0  0
   36.6120   28.3720   40.2630 C   0  0  0  0  0  0  0  0  0  0  0  0
   35.6570   28.8300   40.4870 H   0  0  0  0  0  0  0  0  0  0  0  0
   36.4830   27.8050   39.3130 H   0  0  0  0  0  0  0  0  0  0  0  0
   37.0520   27.3450   41.2810 C   0  0  0  0  0  3  0  0  0  0  0  0
   36.5890   27.7370   42.6820 C   0  0  0  0  0  2  0  0  0  0  0  0
   37.7780   27.5680   43.5900 C   0  0  0  0  0  2  0  0  0  0  0  0
   38.6420   26.5990   42.8080 C   0  0  0  0  0  2  0  0  0  0  0  0
   38.5440   27.2120   41.4050 C   0  0  0  0  0  2  0  0  0  0  0  0
  1  2  1  0  0  0  0
  2 23  1  0  0  0  0
  2  3  2  0  0  0  0
  3  8  1  0  0  0  0
  4  3  1  0  0  0  0
  5  4  2  0  0  0  0
  6  1  2  0  0  0  0
  6  5  1  0  0  0  0
  7  1  1  0  0  0  0
  9 14  1  6  0  0  0
  9 13  1  0  0  0  0
  9 10  1  0  0  0  0
 10 11  1  0  0  0  0
 10  5  1  0  0  0  0
 10 15  1  1  0  0  0
 12 11  1  0  0  0  0
 12 17  1  0  0  0  0
 13 18  1  1  0  0  0
 13 12  1  0  0  0  0
 16 12  1  0  0  0  0
 19 20  1  0  0  0  0
 19  9  1  0  0  0  0
 21 13  1  0  0  0  0
 22 21  1  0  0  0  0
 23 24  1  0  0  0  0
 23 26  1  0  0  0  0
 25 23  1  0  0  0  0
 26 30  1  0  0  0  0
 26 27  1  0  0  0  0
 27 28  1  0  0  0  0
 29 28  1  0  0  0  0
 30 29  1  0  0  0  0
M  END
>  <minimizedAffinity>
-5.62639999

$$$$

 OpenBabel03252503443D

 30 32  0  0  1  0  0  0  0  0999 V2000
   39.1630   32.4940   40.0010 C   0  0  0  0  0  0  0  0  0  0  0  0
   38.4600   32.0890   38.8560 C   0  0  0  0  0  0  0  0  0  0  0  0
   39.2070   31.9190   37.6830 C   0  0  0  0  0  0  0  0  0  0  0  0
   40.5350   32.1430   37.6990 N   0  0  0  0  0  0  0  0  0  0  0  0
   41.1770   32.5300   38.8130 C   0  0  0  0  0  0  0  0  0  0  0  0
   40.4990   32.7130   39.9880 N   0  0  0  0  0  0  0  0  0  0  0  0
   38.7270   32.6620   40.9630 H   0  0  0  0  0  0  0  0  0  0  0  0
   38.6530   31.6110   36.8240 H   0  0  0  0  0  0  0  0  0  0  0  0
   43.0780   32.8830   37.2370 C   0  0  2  0  0  0  0  0  0  0  0  0
   42.6220   32.7260   38.7050 C   0  0  1  0  0  0  0  0  0  0  0  0
   43.0870   33.9000   39.2280 O   0  0  0  0  0  0  0  0  0  0  0  0
   44.3540   34.0880   38.7610 C   0  0  0  0  0  0  0  0  0  0  0  0
   44.5500   33.2130   37.5410 C   0  0  2  0  0  0  0  0  0  0  0  0
   42.9520   31.9650   36.6660 H   0  0  0  0  0  0  0  0  0  0  0  0
   43.1440   31.8240   39.0940 H   0  0  0  0  0  0  0  0  0  0  0  0
   44.4150   35.1460   38.3970 H   0  0  0  0  0  0  0  0  0  0  0  0
   45.1470   33.9860   39.5040 H   0  0  0  0  0  0  0  0  0  0  0  0
   45.0380   32.2730   37.8690 H   0  0  0  0  0  0  0  0  0  0  0  0
   42.5280   34.0060   36.7130 O   0  0  0  0  0  0  0  0  0  0  0  0
   42.3530   34.6870   37.3920 H   0  0  0  0  0  0  0  0  0  0  0  0
   45.1770   33.8230   36.4930 O   0  0  0  0  0  0  0  0  0  0  0  0
   45.0330   33.2740   35.6970 H   0  0  0  0  0  0  0  0  0  0  0  0
   37.0130   31.8850   39.0020 C   0  0  0  0  0  0  0  0  0  0  0  0
   36.5370   32.6480   39.6040 H   0  0  0  0  0  0  0  0  0  0  0  0
   36.5700   31.9560   37.9820 H   0  0  0  0  0  0  0  0  0  0  0  0
   36.7280   30.4740   39.4620 C   0  0  0  0  0  3  0  0  0  0  0  0
   35.9100   29.7190   38.4180 C   0  0  0  0  0  2  0  0  0  0  0  0
   34.7920   29.0380   39.1610 C   0  0  0  0  0  2  0  0  0  0  0  0
   35.3360   28.9770   40.5740 C   0  0  0  0  0  2  0  0  0  0  0  0
   35.9000   30.3980   40.7130 C   0  0  0  0  0  2  0  0  0  0  0  0
  1  7  1  0  0  0  0
  2 23  1  0  0  0  0
  2  1  2  0  0  0  0
  3  4  2  0  0  0  0
  3  2  1  0  0  0  0
  4  5  1  0  0  0  0
  5  6  2  0  0  0  0
  6  1  1  0  0  0  0
  8  3  1  0  0  0  0
  9 14  1  6  0  0  0
  9 13  1  0  0  0  0
  9 10  1  0  0  0  0
 10  5  1  0  0  0  0
 10 15  1  1  0  0  0
 10 11  1  0  0  0  0
 12 11  1  0  0  0  0
 12 17  1  0  0  0  0
 13 18  1  1  0  0  0
 13 12  1  0  0  0  0
 16 12  1  0  0  0  0
 19  9  1  0  0  0  0
 19 20  1  0  0  0  0
 21 13  1  0  0  0  0
 22 21  1  0  0  0  0
 23 26  1  0  0  0  0
 23 24  1  0  0  0  0
 25 23  1  0  0  0  0
 26 30  1  0  0  0  0
 27 28  1  0  0  0  0
 27 26  1  0  0  0  0
 28 29  1  0  0  0  0
 29 30  1  0  0  0  0
M  END
>  <minimizedAffinity>
-5.61958265

$$$$

 OpenBabel03252503443D

 30 32  0  0  1  0  0  0  0  0999 V2000
   38.3090   29.2900   38.7870 C   0  0  0  0  0  0  0  0  0  0  0  0
   37.8150   29.1550   40.0930 C   0  0  0  0  0  0  0  0  0  0  0  0
   38.3490   30.0140   41.0630 C   0  0  0  0  0  0  0  0  0  0  0  0
   39.2900   30.9120   40.7130 N   0  0  0  0  0  0  0  0  0  0  0  0
   39.7410   31.0150   39.4530 C   0  0  0  0  0  0  0  0  0  0  0  0
   39.2560   30.2020   38.4640 N   0  0  0  0  0  0  0  0  0  0  0  0
   37.9960   28.7070   37.9470 H   0  0  0  0  0  0  0  0  0  0  0  0
   37.9610   29.8950   42.0500 H   0  0  0  0  0  0  0  0  0  0  0  0
   41.1310   32.1210   37.7030 C   0  0  2  0  0  0  0  0  0  0  0  0
   40.7520   32.0400   39.1980 C   0  0  1  0  0  0  0  0  0  0  0  0
   40.3380   33.3260   39.4100 O   0  0  0  0  0  0  0  0  0  0  0  0
   41.2470   34.1550   38.8210 C   0  0  0  0  0  0  0  0  0  0  0  0
   42.0450   33.3540   37.8150 C   0  0  2  0  0  0  0  0  0  0  0  0
   41.6530   31.2290   37.3610 H   0  0  0  0  0  0  0  0  0  0  0  0
   41.6880   31.7750   39.7380 H   0  0  0  0  0  0  0  0  0  0  0  0
   40.6660   34.9070   38.2270 H   0  0  0  0  0  0  0  0  0  0  0  0
   41.8650   34.7360   39.5070 H   0  0  0  0  0  0  0  0  0  0  0  0
   42.9840   33.0250   38.3080 H   0  0  0  0  0  0  0  0  0  0  0  0
   40.0480   32.5050   36.9830 O   0  0  0  0  0  0  0  0  0  0  0  0
   39.4320   33.0560   37.5050 H   0  0  0  0  0  0  0  0  0  0  0  0
   42.2420   33.9730   36.6150 O   0  0  0  0  0  0  0  0  0  0  0  0
   42.5380   33.2970   35.9740 H   0  0  0  0  0  0  0  0  0  0  0  0
   36.7890   28.1280   40.3130 C   0  0  0  0  0  0  0  0  0  0  0  0
   35.9810   28.4660   40.9500 H   0  0  0  0  0  0  0  0  0  0  0  0
   36.3420   27.8960   39.3190 H   0  0  0  0  0  0  0  0  0  0  0  0
   37.4310   26.8390   40.7710 C   0  0  0  0  0  3  0  0  0  0  0  0
   37.0160   25.6770   39.8710 C   0  0  0  0  0  2  0  0  0  0  0  0
   36.6210   24.5480   40.7850 C   0  0  0  0  0  2  0  0  0  0  0  0
   37.3370   24.9110   42.0710 C   0  0  0  0  0  2  0  0  0  0  0  0
   37.0180   26.4090   42.1500 C   0  0  0  0  0  2  0  0  0  0  0  0
  1  2  1  0  0  0  0
  2 23  1  0  0  0  0
  2  3  2  0  0  0  0
  3  8  1  0  0  0  0
  4  3  1  0  0  0  0
  5  4  2  0  0  0  0
  6  1  2  0  0  0  0
  6  5  1  0  0  0  0
  7  1  1  0  0  0  0
  9 14  1  6  0  0  0
  9 13  1  0  0  0  0
  9 10  1  0  0  0  0
 10 11  1  0  0  0  0
 10  5  1  0  0  0  0
 10 15  1  1  0  0  0
 12 11  1  0  0  0  0
 12 17  1  0  0  0  0
 13 18  1  1  0  0  0
 13 12  1  0  0  0  0
 16 12  1  0  0  0  0
 19 20  1  0  0  0  0
 19  9  1  0  0  0  0
 21 13  1  0  0  0  0
 22 21  1  0  0  0  0
 23 26  1  0  0  0  0
 23 24  1  0  0  0  0
 25 23  1  0  0  0  0
 26 30  1  0  0  0  0
 27 26  1  0  0  0  0
 27 28  1  0  0  0  0
 28 29  1  0  0  0  0
 29 30  1  0  0  0  0
M  END
>  <minimizedAffinity>
-5.46522284

$$$$

 OpenBabel03252503443D

 30 32  0  0  1  0  0  0  0  0999 V2000
   39.6700   28.1040   41.2460 C   0  0  0  0  0  0  0  0  0  0  0  0
   38.8060   27.8570   42.3230 C   0  0  0  0  0  0  0  0  0  0  0  0
   38.0050   28.9250   42.7480 C   0  0  0  0  0  0  0  0  0  0  0  0
   38.0920   30.1140   42.1230 N   0  0  0  0  0  0  0  0  0  0  0  0
   38.9300   30.3170   41.0930 C   0  0  0  0  0  0  0  0  0  0  0  0
   39.7370   29.3100   40.6360 N   0  0  0  0  0  0  0  0  0  0  0  0
   40.3370   27.3860   40.8150 H   0  0  0  0  0  0  0  0  0  0  0  0
   37.3560   28.7170   43.5700 H   0  0  0  0  0  0  0  0  0  0  0  0
   37.5730   31.9620   39.8020 C   0  0  2  0  0  0  0  0  0  0  0  0
   38.9200   31.6480   40.4890 C   0  0  1  0  0  0  0  0  0  0  0  0
   38.9850   32.6860   41.3760 O   0  0  0  0  0  0  0  0  0  0  0  0
   38.6310   33.8220   40.7090 C   0  0  0  0  0  0  0  0  0  0  0  0
   37.8880   33.4270   39.4510 C   0  0  2  0  0  0  0  0  0  0  0  0
   37.4010   31.3390   38.9270 H   0  0  0  0  0  0  0  0  0  0  0  0
   39.6910   31.6930   39.6880 H   0  0  0  0  0  0  0  0  0  0  0  0
   37.8890   34.3600   41.3520 H   0  0  0  0  0  0  0  0  0  0  0  0
   39.4400   34.5330   40.5340 H   0  0  0  0  0  0  0  0  0  0  0  0
   38.6150   33.4170   38.6130 H   0  0  0  0  0  0  0  0  0  0  0  0
   36.5880   31.9890   40.7330 O   0  0  0  0  0  0  0  0  0  0  0  0
   36.9180   32.2480   41.6160 H   0  0  0  0  0  0  0  0  0  0  0  0
   36.7640   34.1590   39.1960 O   0  0  0  0  0  0  0  0  0  0  0  0
   36.2390   33.6780   38.5260 H   0  0  0  0  0  0  0  0  0  0  0  0
   38.8290   26.5060   42.8980 C   0  0  0  0  0  0  0  0  0  0  0  0
   39.7180   26.3100   43.4840 H   0  0  0  0  0  0  0  0  0  0  0  0
   37.9610   26.4330   43.5930 H   0  0  0  0  0  0  0  0  0  0  0  0
   38.5650   25.4770   41.8230 C   0  0  0  0  0  3  0  0  0  0  0  0
   37.1100   25.5350   41.3630 C   0  0  0  0  0  2  0  0  0  0  0  0
   36.6120   24.1140   41.3370 C   0  0  0  0  0  2  0  0  0  0  0  0
   37.9020   23.3250   41.2360 C   0  0  0  0  0  2  0  0  0  0  0  0
   38.7560   24.0580   42.2780 C   0  0  0  0  0  2  0  0  0  0  0  0
  1  2  1  0  0  0  0
  2  3  2  0  0  0  0
  2 23  1  0  0  0  0
  3  8  1  0  0  0  0
  4  3  1  0  0  0  0
  5  4  2  0  0  0  0
  6  5  1  0  0  0  0
  6  1  2  0  0  0  0
  7  1  1  0  0  0  0
  9 14  1  6  0  0  0
  9 10  1  0  0  0  0
  9 19  1  0  0  0  0
 10 15  1  6  0  0  0
 10  5  1  0  0  0  0
 10 11  1  0  0  0  0
 12 16  1  0  0  0  0
 12 11  1  0  0  0  0
 13 18  1  6  0  0  0
 13  9  1  0  0  0  0
 13 12  1  0  0  0  0
 17 12  1  0  0  0  0
 19 20  1  0  0  0  0
 21 13  1  0  0  0  0
 22 21  1  0  0  0  0
 23 24  1  0  0  0  0
 23 25  1  0  0  0  0
 26 30  1  0  0  0  0
 26 23  1  0  0  0  0
 27 26  1  0  0  0  0
 28 27  1  0  0  0  0
 29 28  1  0  0  0  0
 29 30  1  0  0  0  0
M  END
>  <minimizedAffinity>
-5.41253948

$$$$

 OpenBabel03252503443D

 30 32  0  0  1  0  0  0  0  0999 V2000
   38.3780   27.3130   40.4790 C   0  0  0  0  0  0  0  0  0  0  0  0
   37.5130   27.0950   41.5610 C   0  0  0  0  0  0  0  0  0  0  0  0
   36.9850   28.2320   42.1870 C   0  0  0  0  0  0  0  0  0  0  0  0
   37.3200   29.4570   41.7370 N   0  0  0  0  0  0  0  0  0  0  0  0
   38.1510   29.6300   40.6970 C   0  0  0  0  0  0  0  0  0  0  0  0
   38.6970   28.5560   40.0480 N   0  0  0  0  0  0  0  0  0  0  0  0
   38.8530   26.5430   39.9060 H   0  0  0  0  0  0  0  0  0  0  0  0
   36.3300   28.0450   43.0090 H   0  0  0  0  0  0  0  0  0  0  0  0
   37.1490   31.7350   39.8120 C   0  0  2  0  0  0  0  0  0  0  0  0
   38.4240   31.0090   40.2950 C   0  0  1  0  0  0  0  0  0  0  0  0
   38.8040   31.8420   41.3100 O   0  0  0  0  0  0  0  0  0  0  0  0
   38.6920   33.1240   40.8570 C   0  0  0  0  0  0  0  0  0  0  0  0
   37.7860   33.1250   39.6430 C   0  0  2  0  0  0  0  0  0  0  0  0
   36.7670   31.3210   38.8810 H   0  0  0  0  0  0  0  0  0  0  0  0
   39.1230   31.0070   39.4300 H   0  0  0  0  0  0  0  0  0  0  0  0
   38.1510   33.7040   41.6480 H   0  0  0  0  0  0  0  0  0  0  0  0
   39.6350   33.6490   40.6990 H   0  0  0  0  0  0  0  0  0  0  0  0
   38.4260   33.0870   38.7380 H   0  0  0  0  0  0  0  0  0  0  0  0
   36.2690   31.8320   40.8390 O   0  0  0  0  0  0  0  0  0  0  0  0
   36.7150   31.8590   41.7090 H   0  0  0  0  0  0  0  0  0  0  0  0
   36.8600   34.1270   39.6200 O   0  0  0  0  0  0  0  0  0  0  0  0
   36.1860   33.8980   38.9490 H   0  0  0  0  0  0  0  0  0  0  0  0
   37.2470   25.6990   41.9300 C   0  0  0  0  0  0  0  0  0  0  0  0
   37.7300   25.4050   42.8530 H   0  0  0  0  0  0  0  0  0  0  0  0
   36.1490   25.6090   42.0980 H   0  0  0  0  0  0  0  0  0  0  0  0
   37.5460   24.7850   40.7640 C   0  0  0  0  0  3  0  0  0  0  0  0
   36.2770   24.4840   39.9710 C   0  0  0  0  0  2  0  0  0  0  0  0
   36.2580   22.9970   39.7410 C   0  0  0  0  0  2  0  0  0  0  0  0
   37.7180   22.6280   39.9080 C   0  0  0  0  0  2  0  0  0  0  0  0
   38.0640   23.4330   41.1680 C   0  0  0  0  0  2  0  0  0  0  0  0
  1  2  1  0  0  0  0
  2 23  1  0  0  0  0
  2  3  2  0  0  0  0
  3  8  1  0  0  0  0
  4  3  1  0  0  0  0
  5  4  2  0  0  0  0
  6  1  2  0  0  0  0
  6  5  1  0  0  0  0
  7  1  1  0  0  0  0
  9 14  1  6  0  0  0
  9 10  1  0  0  0  0
  9 19  1  0  0  0  0
 10 15  1  6  0  0  0
 10  5  1  0  0  0  0
 10 11  1  0  0  0  0
 12 11  1  0  0  0  0
 12 16  1  0  0  0  0
 13 18  1  6  0  0  0
 13  9  1  0  0  0  0
 13 12  1  0  0  0  0
 17 12  1  0  0  0  0
 19 20  1  0  0  0  0
 21 13  1  0  0  0  0
 22 21  1  0  0  0  0
 23 25  1  0  0  0  0
 23 24  1  0  0  0  0
 26 30  1  0  0  0  0
 26 23  1  0  0  0  0
 27 26  1  0  0  0  0
 28 29  1  0  0  0  0
 28 27  1  0  0  0  0
 29 30  1  0  0  0  0
M  END
>  <minimizedAffinity>
-5.40276718

$$$$

 OpenBabel03252503443D

 30 32  0  0  1  0  0  0  0  0999 V2000
   38.1290   28.4620   42.3950 C   0  0  0  0  0  0  0  0  0  0  0  0
   37.0000   27.6960   42.0690 C   0  0  0  0  0  0  0  0  0  0  0  0
   35.9920   28.3370   41.3360 C   0  0  0  0  0  0  0  0  0  0  0  0
   36.1410   29.6280   40.9840 N   0  0  0  0  0  0  0  0  0  0  0  0
   37.2350   30.3330   41.3130 C   0  0  0  0  0  0  0  0  0  0  0  0
   38.2520   29.7590   42.0270 N   0  0  0  0  0  0  0  0  0  0  0  0
   38.9740   28.1080   42.9470 H   0  0  0  0  0  0  0  0  0  0  0  0
   35.1410   27.7360   41.0990 H   0  0  0  0  0  0  0  0  0  0  0  0
   38.7350   32.2280   40.6990 C   0  0  2  0  0  0  0  0  0  0  0  0
   37.2850   31.7210   40.8570 C   0  0  1  0  0  0  0  0  0  0  0  0
   36.8190   31.9300   39.5890 O   0  0  0  0  0  0  0  0  0  0  0  0
   37.2340   33.1680   39.1950 C   0  0  0  0  0  0  0  0  0  0  0  0
   38.3830   33.5940   40.0840 C   0  0  2  0  0  0  0  0  0  0  0  0
   39.2510   32.3070   41.6550 H   0  0  0  0  0  0  0  0  0  0  0  0
   36.8120   32.3750   41.6230 H   0  0  0  0  0  0  0  0  0  0  0  0
   37.6630   33.0560   38.1660 H   0  0  0  0  0  0  0  0  0  0  0  0
   36.4480   33.9190   39.1060 H   0  0  0  0  0  0  0  0  0  0  0  0
   37.9700   34.2250   40.8970 H   0  0  0  0  0  0  0  0  0  0  0  0
   39.3590   31.5150   39.7300 O   0  0  0  0  0  0  0  0  0  0  0  0
   38.7350   31.1780   39.0560 H   0  0  0  0  0  0  0  0  0  0  0  0
   39.4360   34.1610   39.4280 O   0  0  0  0  0  0  0  0  0  0  0  0
   40.2010   34.1680   40.0370 H   0  0  0  0  0  0  0  0  0  0  0  0
   36.9880   26.3010   42.5270 C   0  0  0  0  0  0  0  0  0  0  0  0
   37.3340   26.1870   43.5460 H   0  0  0  0  0  0  0  0  0  0  0  0
   35.9270   25.9600   42.5070 H   0  0  0  0  0  0  0  0  0  0  0  0
   37.7070   25.4190   41.5330 C   0  0  0  0  0  3  0  0  0  0  0  0
   36.7340   24.8660   40.4950 C   0  0  0  0  0  2  0  0  0  0  0  0
   37.0220   23.3930   40.3800 C   0  0  0  0  0  2  0  0  0  0  0  0
   38.4410   23.3020   40.9040 C   0  0  0  0  0  2  0  0  0  0  0  0
   38.3350   24.1980   42.1440 C   0  0  0  0  0  2  0  0  0  0  0  0
  1  7  1  0  0  0  0
  2  1  1  0  0  0  0
  2 23  1  0  0  0  0
  3  2  2  0  0  0  0
  4  5  2  0  0  0  0
  4  3  1  0  0  0  0
  5  6  1  0  0  0  0
  6  1  2  0  0  0  0
  8  3  1  0  0  0  0
  9 10  1  0  0  0  0
  9 14  1  1  0  0  0
 10  5  1  0  0  0  0
 10 15  1  1  0  0  0
 11 10  1  0  0  0  0
 12 11  1  0  0  0  0
 12 13  1  0  0  0  0
 13  9  1  0  0  0  0
 13 18  1  1  0  0  0
 16 12  1  0  0  0  0
 17 12  1  0  0  0  0
 19  9  1  0  0  0  0
 20 19  1  0  0  0  0
 21 22  1  0  0  0  0
 21 13  1  0  0  0  0
 23 24  1  0  0  0  0
 25 23  1  0  0  0  0
 26 30  1  0  0  0  0
 26 23  1  0  0  0  0
 27 26  1  0  0  0  0
 28 27  1  0  0  0  0
 28 29  1  0  0  0  0
 29 30  1  0  0  0  0
M  END
>  <minimizedAffinity>
-5.39818001

$$$$

 OpenBabel03252503443D

 30 32  0  0  1  0  0  0  0  0999 V2000
   38.5550   28.8900   42.7440 C   0  0  0  0  0  0  0  0  0  0  0  0
   37.2730   28.6330   42.2350 C   0  0  0  0  0  0  0  0  0  0  0  0
   36.7190   29.6090   41.3960 C   0  0  0  0  0  0  0  0  0  0  0  0
   37.4190   30.7250   41.1180 N   0  0  0  0  0  0  0  0  0  0  0  0
   38.6450   30.9400   41.6220 C   0  0  0  0  0  0  0  0  0  0  0  0
   39.2360   30.0220   42.4470 N   0  0  0  0  0  0  0  0  0  0  0  0
   39.1010   28.2380   43.3930 H   0  0  0  0  0  0  0  0  0  0  0  0
   35.7430   29.3950   41.0210 H   0  0  0  0  0  0  0  0  0  0  0  0
   40.0820   32.0350   39.9030 C   0  0  2  0  0  0  0  0  0  0  0  0
   39.3080   32.1830   41.2320 C   0  0  1  0  0  0  0  0  0  0  0  0
   38.4660   33.2100   40.9060 O   0  0  0  0  0  0  0  0  0  0  0  0
   39.2010   34.1570   40.2570 C   0  0  0  0  0  0  0  0  0  0  0  0
   40.4800   33.5150   39.7620 C   0  0  2  0  0  0  0  0  0  0  0  0
   40.9360   31.3680   39.9960 H   0  0  0  0  0  0  0  0  0  0  0  0
   40.0660   32.4510   42.0010 H   0  0  0  0  0  0  0  0  0  0  0  0
   38.6250   34.4470   39.3410 H   0  0  0  0  0  0  0  0  0  0  0  0
   39.3630   35.0840   40.8080 H   0  0  0  0  0  0  0  0  0  0  0  0
   41.2750   33.7160   40.5090 H   0  0  0  0  0  0  0  0  0  0  0  0
   39.2090   31.7700   38.9010 O   0  0  0  0  0  0  0  0  0  0  0  0
   38.3210   32.1430   39.0720 H   0  0  0  0  0  0  0  0  0  0  0  0
   40.8290   33.8440   38.4840 O   0  0  0  0  0  0  0  0  0  0  0  0
   41.5050   33.2050   38.1840 H   0  0  0  0  0  0  0  0  0  0  0  0
   36.6410   27.3690   42.6330 C   0  0  0  0  0  0  0  0  0  0  0  0
   36.5750   27.2470   43.7070 H   0  0  0  0  0  0  0  0  0  0  0  0
   35.5960   27.3910   42.2460 H   0  0  0  0  0  0  0  0  0  0  0  0
   37.3020   26.2090   41.9240 C   0  0  0  0  0  3  0  0  0  0  0  0
   36.9320   26.1970   40.4430 C   0  0  0  0  0  2  0  0  0  0  0  0
   36.5440   24.7810   40.1100 C   0  0  0  0  0  2  0  0  0  0  0  0
   37.2240   23.9950   41.2130 C   0  0  0  0  0  2  0  0  0  0  0  0
   36.8690   24.8610   42.4280 C   0  0  0  0  0  2  0  0  0  0  0  0
  1  7  1  0  0  0  0
  2 23  1  0  0  0  0
  2  1  2  0  0  0  0
  3  2  1  0  0  0  0
  4  3  2  0  0  0  0
  4  5  1  0  0  0  0
  5  6  2  0  0  0  0
  6  1  1  0  0  0  0
  8  3  1  0  0  0  0
  9 14  1  1  0  0  0
  9 10  1  0  0  0  0
 10  5  1  0  0  0  0
 10 15  1  1  0  0  0
 11 10  1  0  0  0  0
 12 17  1  0  0  0  0
 12 11  1  0  0  0  0
 13  9  1  0  0  0  0
 13 12  1  0  0  0  0
 13 18  1  1  0  0  0
 16 12  1  0  0  0  0
 19 20  1  0  0  0  0
 19  9  1  0  0  0  0
 21 13  1  0  0  0  0
 22 21  1  0  0  0  0
 23 24  1  0  0  0  0
 25 23  1  0  0  0  0
 26 30  1  0  0  0  0
 26 23  1  0  0  0  0
 27 26  1  0  0  0  0
 28 27  1  0  0  0  0
 28 29  1  0  0  0  0
 29 30  1  0  0  0  0
M  END
>  <minimizedAffinity>
-5.34193087

$$$$

 OpenBabel03252503443D

 30 32  0  0  1  0  0  0  0  0999 V2000
   38.8010   28.8850   38.1950 C   0  0  0  0  0  0  0  0  0  0  0  0
   37.8590   28.9410   39.2340 C   0  0  0  0  0  0  0  0  0  0  0  0
   37.9730   30.0090   40.1330 C   0  0  0  0  0  0  0  0  0  0  0  0
   38.9540   30.9170   39.9700 N   0  0  0  0  0  0  0  0  0  0  0  0
   39.8400   30.8340   38.9650 C   0  0  0  0  0  0  0  0  0  0  0  0
   39.7780   29.8120   38.0560 N   0  0  0  0  0  0  0  0  0  0  0  0
   38.8370   28.1310   37.4370 H   0  0  0  0  0  0  0  0  0  0  0  0
   37.2470   30.0320   40.9160 H   0  0  0  0  0  0  0  0  0  0  0  0
   41.3050   32.1500   37.4350 C   0  0  2  0  0  0  0  0  0  0  0  0
   40.8480   31.8900   38.8870 C   0  0  1  0  0  0  0  0  0  0  0  0
   40.4050   33.1380   39.2270 O   0  0  0  0  0  0  0  0  0  0  0  0
   41.3310   34.0380   38.7900 C   0  0  0  0  0  0  0  0  0  0  0  0
   42.1940   33.3680   37.7420 C   0  0  2  0  0  0  0  0  0  0  0  0
   41.8560   31.3090   37.0190 H   0  0  0  0  0  0  0  0  0  0  0  0
   41.7570   31.5700   39.4430 H   0  0  0  0  0  0  0  0  0  0  0  0
   40.7720   34.8510   38.2580 H   0  0  0  0  0  0  0  0  0  0  0  0
   41.9040   34.5380   39.5720 H   0  0  0  0  0  0  0  0  0  0  0  0
   43.1090   32.9910   38.2420 H   0  0  0  0  0  0  0  0  0  0  0  0
   40.2560   32.6080   36.7080 O   0  0  0  0  0  0  0  0  0  0  0  0
   39.6040   33.0880   37.2570 H   0  0  0  0  0  0  0  0  0  0  0  0
   42.4450   34.1260   36.6350 O   0  0  0  0  0  0  0  0  0  0  0  0
   42.7840   33.5330   35.9360 H   0  0  0  0  0  0  0  0  0  0  0  0
   36.8500   27.8750   39.2740 C   0  0  0  0  0  0  0  0  0  0  0  0
   37.2780   26.8930   39.4320 H   0  0  0  0  0  0  0  0  0  0  0  0
   36.1900   28.0840   40.1470 H   0  0  0  0  0  0  0  0  0  0  0  0
   35.9480   27.9630   38.0640 C   0  0  0  0  0  3  0  0  0  0  0  0
   34.9970   29.1510   38.1830 C   0  0  0  0  0  2  0  0  0  0  0  0
   33.6270   28.6390   37.8260 C   0  0  0  0  0  2  0  0  0  0  0  0
   33.9490   27.3990   37.0160 C   0  0  0  0  0  2  0  0  0  0  0  0
   35.0450   26.7750   37.8910 C   0  0  0  0  0  2  0  0  0  0  0  0
  1  2  1  0  0  0  0
  2 23  1  0  0  0  0
  2  3  2  0  0  0  0
  3  8  1  0  0  0  0
  4  3  1  0  0  0  0
  5  4  2  0  0  0  0
  6  1  2  0  0  0  0
  6  5  1  0  0  0  0
  7  1  1  0  0  0  0
  9 14  1  6  0  0  0
  9 13  1  0  0  0  0
  9 10  1  0  0  0  0
 10  5  1  0  0  0  0
 10 11  1  0  0  0  0
 10 15  1  1  0  0  0
 12 11  1  0  0  0  0
 12 17  1  0  0  0  0
 13 18  1  1  0  0  0
 13 12  1  0  0  0  0
 16 12  1  0  0  0  0
 19 20  1  0  0  0  0
 19  9  1  0  0  0  0
 21 13  1  0  0  0  0
 22 21  1  0  0  0  0
 23 24  1  0  0  0  0
 23 25  1  0  0  0  0
 26 27  1  0  0  0  0
 26 23  1  0  0  0  0
 28 27  1  0  0  0  0
 29 28  1  0  0  0  0
 29 30  1  0  0  0  0
 30 26  1  0  0  0  0
M  END
>  <minimizedAffinity>
-5.01359129

$$$$

 OpenBabel03252503443D

 30 32  0  0  1  0  0  0  0  0999 V2000
   38.3620   28.9180   43.0140 C   0  0  0  0  0  0  0  0  0  0  0  0
   38.5250   27.6290   42.4850 C   0  0  0  0  0  0  0  0  0  0  0  0
   38.6900   27.5320   41.0970 C   0  0  0  0  0  0  0  0  0  0  0  0
   38.6870   28.6490   40.3450 N   0  0  0  0  0  0  0  0  0  0  0  0
   38.5280   29.8690   40.8840 C   0  0  0  0  0  0  0  0  0  0  0  0
   38.3620   30.0240   42.2330 N   0  0  0  0  0  0  0  0  0  0  0  0
   38.2270   29.1450   44.0510 H   0  0  0  0  0  0  0  0  0  0  0  0
   38.8120   26.5430   40.7150 H   0  0  0  0  0  0  0  0  0  0  0  0
   37.1660   31.6500   39.7930 C   0  0  2  0  0  0  0  0  0  0  0  0
   38.5580   31.0040   39.9630 C   0  0  1  0  0  0  0  0  0  0  0  0
   39.2720   32.0840   40.4010 O   0  0  0  0  0  0  0  0  0  0  0  0
   38.9340   33.1490   39.6180 C   0  0  0  0  0  0  0  0  0  0  0  0
   37.6230   32.8380   38.9280 C   0  0  2  0  0  0  0  0  0  0  0  0
   36.4650   30.9920   39.2830 H   0  0  0  0  0  0  0  0  0  0  0  0
   38.8580   30.6480   38.9520 H   0  0  0  0  0  0  0  0  0  0  0  0
   38.7250   34.0080   40.3070 H   0  0  0  0  0  0  0  0  0  0  0  0
   39.7130   33.4980   38.9390 H   0  0  0  0  0  0  0  0  0  0  0  0
   37.8540   32.4400   37.9180 H   0  0  0  0  0  0  0  0  0  0  0  0
   36.7610   32.1670   40.9790 O   0  0  0  0  0  0  0  0  0  0  0  0
   37.5130   32.4360   41.5440 H   0  0  0  0  0  0  0  0  0  0  0  0
   36.7200   33.8610   38.9230 O   0  0  0  0  0  0  0  0  0  0  0  0
   35.8470   33.4900   38.6860 H   0  0  0  0  0  0  0  0  0  0  0  0
   38.5060   26.5120   43.4380 C   0  0  0  0  0  0  0  0  0  0  0  0
   37.9660   26.7400   44.3470 H   0  0  0  0  0  0  0  0  0  0  0  0
   37.9670   25.6720   42.9440 H   0  0  0  0  0  0  0  0  0  0  0  0
   39.9090   26.0010   43.6710 C   0  0  0  0  0  3  0  0  0  0  0  0
   40.9220   27.1410   43.5940 C   0  0  0  0  0  2  0  0  0  0  0  0
   42.0460   26.6570   42.7190 C   0  0  0  0  0  2  0  0  0  0  0  0
   41.8970   25.1510   42.8080 C   0  0  0  0  0  2  0  0  0  0  0  0
   40.3780   25.0150   42.6380 C   0  0  0  0  0  2  0  0  0  0  0  0
  1  7  1  0  0  0  0
  2  1  1  0  0  0  0
  2 23  1  0  0  0  0
  3  2  2  0  0  0  0
  4  5  2  0  0  0  0
  4  3  1  0  0  0  0
  5  6  1  0  0  0  0
  6  1  2  0  0  0  0
  8  3  1  0  0  0  0
  9 14  1  6  0  0  0
  9 10  1  0  0  0  0
  9 19  1  0  0  0  0
 10 15  1  6  0  0  0
 10 11  1  0  0  0  0
 10  5  1  0  0  0  0
 12 16  1  0  0  0  0
 12 11  1  0  0  0  0
 13 18  1  6  0  0  0
 13 12  1  0  0  0  0
 13  9  1  0  0  0  0
 17 12  1  0  0  0  0
 19 20  1  0  0  0  0
 21 13  1  0  0  0  0
 22 21  1  0  0  0  0
 23 26  1  0  0  0  0
 23 24  1  0  0  0  0
 25 23  1  0  0  0  0
 27 26  1  0  0  0  0
 28 29  1  0  0  0  0
 28 27  1  0  0  0  0
 30 29  1  0  0  0  0
 30 26  1  0  0  0  0
M  END
>  <minimizedAffinity>
-4.94506168

$$$$
