
 OpenBabel03242513453D

 42 45  0  0  0  0  0  0  0  0999 V2000
   40.7150   31.5540   40.6130 C   0  0  0  0  0  0  0  0  0  0  0  0
   40.7610   30.7930   41.7570 C   0  0  0  0  0  0  0  0  0  0  0  0
   41.6980   31.1160   42.6960 C   0  0  0  0  0  0  0  0  0  0  0  0
   42.5890   32.1540   42.5570 C   0  0  0  0  0  0  0  0  0  0  0  0
   43.5990   32.7150   43.2680 N   0  0  0  0  0  0  0  0  0  0  0  0
   44.1280   33.7610   42.5800 C   0  0  0  0  0  0  0  0  0  0  0  0
   43.4420   33.8530   41.4250 N   0  0  0  0  0  0  0  0  0  0  0  0
   42.5040   32.8840   41.4000 C   0  0  0  0  0  0  0  0  0  0  0  0
   41.5930   32.6240   40.4090 C   0  0  0  0  0  0  0  0  0  0  0  0
   39.9740   31.3130   39.8500 H   0  0  0  0  0  0  0  0  0  0  0  0
   41.7580   30.5340   43.6090 H   0  0  0  0  0  0  0  0  0  0  0  0
   43.8390   32.3030   44.2110 H   0  0  0  0  0  0  0  0  0  0  0  0
   44.9480   34.3520   42.9630 H   0  0  0  0  0  0  0  0  0  0  0  0
   39.0480   27.5930   41.3170 C   0  0  0  0  0  0  0  0  0  0  0  0
   38.0760   27.6110   42.3270 C   0  0  0  0  0  0  0  0  0  0  0  0
   38.0510   28.7620   43.1430 C   0  0  0  0  0  0  0  0  0  0  0  0
   38.9250   29.7610   42.9330 N   0  0  0  0  0  0  0  0  0  0  0  0
   39.8340   29.6830   41.9450 C   0  0  0  0  0  0  0  0  0  0  0  0
   39.9130   28.6200   41.1350 N   0  0  0  0  0  0  0  0  0  0  0  0
   39.1240   26.7420   40.6530 H   0  0  0  0  0  0  0  0  0  0  0  0
   37.3010   28.7750   43.9230 H   0  0  0  0  0  0  0  0  0  0  0  0
   37.1690   26.4540   42.4620 C   0  0  0  0  0  0  0  0  0  0  0  0
   36.2890   26.8200   43.4760 F   0  0  0  0  0  0  0  0  0  0  0  0
   37.8950   25.3840   42.8730 F   0  0  0  0  0  0  0  0  0  0  0  0
   36.5340   26.2470   41.2550 F   0  0  0  0  0  0  0  0  0  0  0  0
   41.5540   33.3920   39.2630 O   0  0  0  0  0  0  0  0  0  0  0  0
   42.8630   31.7790   37.7180 O   0  0  0  0  0  0  0  0  0  0  0  0
   41.7600   32.8150   37.6930 P   0  0  2  0  0  0  0  0  0  0  0  0
   42.3300   34.1220   36.7590 O   0  0  0  0  0  0  0  0  0  0  0  0
   41.5710   34.7820   36.7250 H   0  0  0  0  0  0  0  0  0  0  0  0
   40.3640   32.1760   37.0040 O   0  0  0  0  0  0  0  0  0  0  0  0
   39.2790   32.1730   37.8320 C   0  0  0  0  0  0  0  0  0  0  0  0
   39.6660   32.1740   38.8820 H   0  0  0  0  0  0  0  0  0  0  0  0
   38.5530   32.9780   37.7060 H   0  0  0  0  0  0  0  0  0  0  0  0
   38.6030   30.7970   37.6810 C   0  0  0  0  0  0  0  0  0  0  0  0
   39.2070   30.0260   38.1870 H   0  0  0  0  0  0  0  0  0  0  0  0
   38.4020   30.5820   36.6190 H   0  0  0  0  0  0  0  0  0  0  0  0
   37.2850   30.8850   38.4120 C   0  0  0  0  0  3  0  0  0  0  0  0
   37.3120   31.8770   39.5350 C   0  0  0  0  0  2  0  0  0  0  0  0
   36.5230   31.3010   40.6870 C   0  0  0  0  0  2  0  0  0  0  0  0
   36.0360   29.9370   40.2370 C   0  0  0  0  0  2  0  0  0  0  0  0
   36.8810   29.5880   39.0360 C   0  0  0  0  0  2  0  0  0  0  0  0
  1  2  1  0  0  0  0
  2 18  1  0  0  0  0
  2  3  2  0  0  0  0
  3 11  1  0  0  0  0
  4  3  1  0  0  0  0
  4  5  1  0  0  0  0
  5 12  1  0  0  0  0
  6 13  1  0  0  0  0
  6  5  1  0  0  0  0
  7  6  2  0  0  0  0
  8  7  1  0  0  0  0
  8  4  2  0  0  0  0
  9  1  2  0  0  0  0
  9  8  1  0  0  0  0
 10  1  1  0  0  0  0
 14 15  1  0  0  0  0
 15 22  1  0  0  0  0
 15 16  2  0  0  0  0
 16 21  1  0  0  0  0
 17 16  1  0  0  0  0
 18 17  2  0  0  0  0
 19 14  2  0  0  0  0
 19 18  1  0  0  0  0
 20 14  1  0  0  0  0
 22 24  1  0  0  0  0
 22 23  1  0  0  0  0
 25 22  1  0  0  0  0
 26  9  1  0  0  0  0
 28 27  2  1  0  0  0
 28 26  1  0  0  0  0
 29 28  1  0  0  0  0
 30 29  1  0  0  0  0
 31 28  1  0  0  0  0
 31 32  1  0  0  0  0
 32 33  1  0  0  0  0
 34 32  1  0  0  0  0
 35 32  1  0  0  0  0
 35 36  1  0  0  0  0
 35 38  1  0  0  0  0
 37 35  1  0  0  0  0
 38 42  1  0  0  0  0
 38 39  1  0  0  0  0
 39 40  1  0  0  0  0
 41 40  1  0  0  0  0
 42 41  1  0  0  0  0
M  END
>  <minimizedAffinity>
-6.47324705

$$$$

 OpenBabel03242513453D

 42 45  0  0  0  0  0  0  0  0999 V2000
   37.0490   30.3420   39.2720 C   0  0  0  0  0  0  0  0  0  0  0  0
   36.8770   30.2220   37.9140 C   0  0  0  0  0  0  0  0  0  0  0  0
   37.7820   30.8440   37.1020 C   0  0  0  0  0  0  0  0  0  0  0  0
   38.8470   31.5770   37.5700 C   0  0  0  0  0  0  0  0  0  0  0  0
   39.8810   32.2890   37.0580 N   0  0  0  0  0  0  0  0  0  0  0  0
   40.6340   32.8080   38.0650 C   0  0  0  0  0  0  0  0  0  0  0  0
   40.0610   32.4170   39.2190 N   0  0  0  0  0  0  0  0  0  0  0  0
   38.9760   31.6690   38.9330 C   0  0  0  0  0  0  0  0  0  0  0  0
   38.1100   31.0740   39.8140 C   0  0  0  0  0  0  0  0  0  0  0  0
   36.3370   29.8530   39.9380 H   0  0  0  0  0  0  0  0  0  0  0  0
   37.6730   30.7660   36.0260 H   0  0  0  0  0  0  0  0  0  0  0  0
   39.9770   32.3520   36.0080 H   0  0  0  0  0  0  0  0  0  0  0  0
   41.5110   33.4130   37.8810 H   0  0  0  0  0  0  0  0  0  0  0  0
   33.8700   28.1530   37.7060 C   0  0  0  0  0  0  0  0  0  0  0  0
   33.6730   28.0130   36.3250 C   0  0  0  0  0  0  0  0  0  0  0  0
   34.6170   28.6590   35.4970 C   0  0  0  0  0  0  0  0  0  0  0  0
   35.6290   29.3580   36.0390 N   0  0  0  0  0  0  0  0  0  0  0  0
   35.7620   29.4530   37.3730 C   0  0  0  0  0  0  0  0  0  0  0  0
   34.9030   28.8650   38.2160 N   0  0  0  0  0  0  0  0  0  0  0  0
   33.1850   27.6830   38.4010 H   0  0  0  0  0  0  0  0  0  0  0  0
   34.4640   28.5520   34.4310 H   0  0  0  0  0  0  0  0  0  0  0  0
   32.5240   27.2200   35.8460 C   0  0  0  0  0  0  0  0  0  0  0  0
   32.6030   26.0290   36.5620 F   0  0  0  0  0  0  0  0  0  0  0  0
   32.7030   26.9560   34.5270 F   0  0  0  0  0  0  0  0  0  0  0  0
   31.3650   27.9220   36.1060 F   0  0  0  0  0  0  0  0  0  0  0  0
   38.2890   31.2010   41.1770 O   0  0  0  0  0  0  0  0  0  0  0  0
   40.2130   30.7900   42.8610 O   0  0  0  0  0  0  0  0  0  0  0  0
   39.0700   30.0810   42.1660 P   0  0  2  0  0  0  0  0  0  0  0  0
   39.7640   28.9140   41.1360 O   0  0  0  0  0  0  0  0  0  0  0  0
   38.9890   28.4320   40.7120 H   0  0  0  0  0  0  0  0  0  0  0  0
   38.0640   29.3360   43.2920 O   0  0  0  0  0  0  0  0  0  0  0  0
   38.2740   27.9950   43.4320 C   0  0  0  0  0  0  0  0  0  0  0  0
   39.0420   27.7000   42.6740 H   0  0  0  0  0  0  0  0  0  0  0  0
   38.5730   27.6380   44.4180 H   0  0  0  0  0  0  0  0  0  0  0  0
   36.9890   27.2880   42.9600 C   0  0  0  0  0  0  0  0  0  0  0  0
   36.3020   28.0230   42.5080 H   0  0  0  0  0  0  0  0  0  0  0  0
   36.5440   26.7090   43.7840 H   0  0  0  0  0  0  0  0  0  0  0  0
   37.4040   26.3320   41.8680 C   0  0  0  0  0  3  0  0  0  0  0  0
   36.9300   26.7610   40.5120 C   0  0  0  0  0  2  0  0  0  0  0  0
   36.5020   25.5260   39.7540 C   0  0  0  0  0  2  0  0  0  0  0  0
   36.7150   24.3500   40.6890 C   0  0  0  0  0  2  0  0  0  0  0  0
   36.8560   24.9550   42.0650 C   0  0  0  0  0  2  0  0  0  0  0  0
  1  9  1  0  0  0  0
  1 10  1  0  0  0  0
  2  1  2  0  0  0  0
  3  4  2  0  0  0  0
  3  2  1  0  0  0  0
  4  8  1  0  0  0  0
  5  4  1  0  0  0  0
  5  6  1  0  0  0  0
  6  7  2  0  0  0  0
  8  7  1  0  0  0  0
  8  9  2  0  0  0  0
  9 26  1  0  0  0  0
 11  3  1  0  0  0  0
 12  5  1  0  0  0  0
 13  6  1  0  0  0  0
 14 19  1  0  0  0  0
 14 20  1  0  0  0  0
 15 14  2  0  0  0  0
 16 17  2  0  0  0  0
 16 15  1  0  0  0  0
 17 18  1  0  0  0  0
 18  2  1  0  0  0  0
 18 19  2  0  0  0  0
 21 16  1  0  0  0  0
 22 25  1  0  0  0  0
 22 15  1  0  0  0  0
 22 23  1  0  0  0  0
 24 22  1  0  0  0  0
 26 28  1  0  0  0  0
 28 27  2  1  0  0  0
 28 31  1  0  0  0  0
 29 28  1  0  0  0  0
 30 29  1  0  0  0  0
 31 32  1  0  0  0  0
 32 34  1  0  0  0  0
 33 32  1  0  0  0  0
 35 32  1  0  0  0  0
 35 37  1  0  0  0  0
 36 35  1  0  0  0  0
 38 42  1  0  0  0  0
 38 35  1  0  0  0  0
 39 38  1  0  0  0  0
 40 39  1  0  0  0  0
 40 41  1  0  0  0  0
 41 42  1  0  0  0  0
M  END
>  <minimizedAffinity>
-5.93806791

$$$$

 OpenBabel03242513453D

 42 45  0  0  0  0  0  0  0  0999 V2000
   36.9930   26.9960   39.8920 C   0  0  0  0  0  0  0  0  0  0  0  0
   36.6450   28.0250   39.0500 C   0  0  0  0  0  0  0  0  0  0  0  0
   35.8510   27.7260   37.9790 C   0  0  0  0  0  0  0  0  0  0  0  0
   35.3880   26.4620   37.7030 C   0  0  0  0  0  0  0  0  0  0  0  0
   34.6190   25.8540   36.7660 N   0  0  0  0  0  0  0  0  0  0  0  0
   34.5140   24.5260   37.0390 C   0  0  0  0  0  0  0  0  0  0  0  0
   35.2280   24.3030   38.1580 N   0  0  0  0  0  0  0  0  0  0  0  0
   35.7630   25.4690   38.5720 C   0  0  0  0  0  0  0  0  0  0  0  0
   36.5570   25.6860   39.6690 C   0  0  0  0  0  0  0  0  0  0  0  0
   37.6270   27.2130   40.7530 H   0  0  0  0  0  0  0  0  0  0  0  0
   35.5600   28.5180   37.2970 H   0  0  0  0  0  0  0  0  0  0  0  0
   34.2160   26.4440   35.9870 H   0  0  0  0  0  0  0  0  0  0  0  0
   33.9450   23.8490   36.4170 H   0  0  0  0  0  0  0  0  0  0  0  0
   36.7460   31.5070   40.1590 C   0  0  0  0  0  0  0  0  0  0  0  0
   38.0260   31.9280   39.7710 C   0  0  0  0  0  0  0  0  0  0  0  0
   38.8250   30.9630   39.1210 C   0  0  0  0  0  0  0  0  0  0  0  0
   38.3520   29.7230   38.9080 N   0  0  0  0  0  0  0  0  0  0  0  0
   37.1140   29.3820   39.3050 C   0  0  0  0  0  0  0  0  0  0  0  0
   36.3030   30.2490   39.9260 N   0  0  0  0  0  0  0  0  0  0  0  0
   36.0780   32.1950   40.6620 H   0  0  0  0  0  0  0  0  0  0  0  0
   39.8130   31.2880   38.8220 H   0  0  0  0  0  0  0  0  0  0  0  0
   38.4360   33.3170   40.0600 C   0  0  0  0  0  0  0  0  0  0  0  0
   38.7120   33.3200   41.4240 F   0  0  0  0  0  0  0  0  0  0  0  0
   37.3820   34.1360   39.8200 F   0  0  0  0  0  0  0  0  0  0  0  0
   39.5430   33.6180   39.2930 F   0  0  0  0  0  0  0  0  0  0  0  0
   36.9030   24.6480   40.5090 O   0  0  0  0  0  0  0  0  0  0  0  0
   38.9060   23.7730   39.1200 O   0  0  0  0  0  0  0  0  0  0  0  0
   38.4030   23.8790   40.5440 P   0  0  2  0  0  0  0  0  0  0  0  0
   38.1270   22.2880   41.0900 O   0  0  0  0  0  0  0  0  0  0  0  0
   37.8280   22.3780   42.0470 H   0  0  0  0  0  0  0  0  0  0  0  0
   39.5450   24.6370   41.5210 O   0  0  0  0  0  0  0  0  0  0  0  0
   39.0150   25.3330   42.5680 C   0  0  0  0  0  0  0  0  0  0  0  0
   38.3290   26.1060   42.1380 H   0  0  0  0  0  0  0  0  0  0  0  0
   38.4900   24.7590   43.3330 H   0  0  0  0  0  0  0  0  0  0  0  0
   40.1620   26.1520   43.1890 C   0  0  0  0  0  0  0  0  0  0  0  0
   40.9370   26.3470   42.4290 H   0  0  0  0  0  0  0  0  0  0  0  0
   40.5420   25.6560   44.0960 H   0  0  0  0  0  0  0  0  0  0  0  0
   39.5730   27.4860   43.5790 C   0  0  0  0  0  3  0  0  0  0  0  0
   38.0760   27.4610   43.6450 C   0  0  0  0  0  2  0  0  0  0  0  0
   37.5620   28.7690   43.0910 C   0  0  0  0  0  2  0  0  0  0  0  0
   38.7800   29.5720   42.6780 C   0  0  0  0  0  2  0  0  0  0  0  0
   39.9110   28.5740   42.6120 C   0  0  0  0  0  2  0  0  0  0  0  0
  1 10  1  0  0  0  0
  2 18  1  0  0  0  0
  2  1  2  0  0  0  0
  3  2  1  0  0  0  0
  4  3  2  0  0  0  0
  4  8  1  0  0  0  0
  5  6  1  0  0  0  0
  5  4  1  0  0  0  0
  6  7  2  0  0  0  0
  7  8  1  0  0  0  0
  8  9  2  0  0  0  0
  9  1  1  0  0  0  0
  9 26  1  0  0  0  0
 11  3  1  0  0  0  0
 12  5  1  0  0  0  0
 13  6  1  0  0  0  0
 14 20  1  0  0  0  0
 15 22  1  0  0  0  0
 15 14  2  0  0  0  0
 16 15  1  0  0  0  0
 17 16  2  0  0  0  0
 17 18  1  0  0  0  0
 18 19  2  0  0  0  0
 19 14  1  0  0  0  0
 21 16  1  0  0  0  0
 22 23  1  0  0  0  0
 24 22  1  0  0  0  0
 25 22  1  0  0  0  0
 26 28  1  0  0  0  0
 28 27  2  6  0  0  0
 28 29  1  0  0  0  0
 28 31  1  0  0  0  0
 29 30  1  0  0  0  0
 31 32  1  0  0  0  0
 32 35  1  0  0  0  0
 32 34  1  0  0  0  0
 33 32  1  0  0  0  0
 35 38  1  0  0  0  0
 35 37  1  0  0  0  0
 36 35  1  0  0  0  0
 38 39  1  0  0  0  0
 40 39  1  0  0  0  0
 41 40  1  0  0  0  0
 42 41  1  0  0  0  0
 42 38  1  0  0  0  0
M  END
>  <minimizedAffinity>
-5.75201845

$$$$

 OpenBabel03242513453D

 42 45  0  0  0  0  0  0  0  0999 V2000
   38.9680   29.7880   38.8920 C   0  0  0  0  0  0  0  0  0  0  0  0
   39.4640   28.5100   38.8070 C   0  0  0  0  0  0  0  0  0  0  0  0
   40.6310   28.3270   38.1230 C   0  0  0  0  0  0  0  0  0  0  0  0
   41.3280   29.3460   37.5190 C   0  0  0  0  0  0  0  0  0  0  0  0
   42.4640   29.4970   36.7950 N   0  0  0  0  0  0  0  0  0  0  0  0
   42.6360   30.8050   36.4640 C   0  0  0  0  0  0  0  0  0  0  0  0
   41.5940   31.4770   36.9870 N   0  0  0  0  0  0  0  0  0  0  0  0
   40.7930   30.6040   37.6300 C   0  0  0  0  0  0  0  0  0  0  0  0
   39.6260   30.8710   38.3000 C   0  0  0  0  0  0  0  0  0  0  0  0
   38.0360   29.9570   39.4340 H   0  0  0  0  0  0  0  0  0  0  0  0
   41.0470   27.3290   38.0390 H   0  0  0  0  0  0  0  0  0  0  0  0
   43.0460   28.6400   36.5870 H   0  0  0  0  0  0  0  0  0  0  0  0
   43.4810   31.1510   35.8850 H   0  0  0  0  0  0  0  0  0  0  0  0
   38.7260   25.2010   40.1770 C   0  0  0  0  0  0  0  0  0  0  0  0
   37.4000   25.3260   40.6150 C   0  0  0  0  0  0  0  0  0  0  0  0
   36.7970   26.5860   40.4130 C   0  0  0  0  0  0  0  0  0  0  0  0
   37.4870   27.5830   39.8330 N   0  0  0  0  0  0  0  0  0  0  0  0
   38.7570   27.3980   39.4340 C   0  0  0  0  0  0  0  0  0  0  0  0
   39.3890   26.2280   39.5950 N   0  0  0  0  0  0  0  0  0  0  0  0
   39.2510   24.2620   40.2990 H   0  0  0  0  0  0  0  0  0  0  0  0
   35.7740   26.6830   40.7530 H   0  0  0  0  0  0  0  0  0  0  0  0
   36.7440   24.1600   41.2410 C   0  0  0  0  0  0  0  0  0  0  0  0
   37.7050   23.1540   41.1900 F   0  0  0  0  0  0  0  0  0  0  0  0
   35.6860   23.7990   40.4730 F   0  0  0  0  0  0  0  0  0  0  0  0
   36.3890   24.4940   42.5310 F   0  0  0  0  0  0  0  0  0  0  0  0
   39.1340   32.1580   38.3800 O   0  0  0  0  0  0  0  0  0  0  0  0
   37.6780   33.8550   39.6850 O   0  0  0  0  0  0  0  0  0  0  0  0
   38.9520   33.0470   39.8000 P   0  0  2  0  0  0  0  0  0  0  0  0
   40.2410   34.1610   39.8520 O   0  0  0  0  0  0  0  0  0  0  0  0
   41.0740   33.6060   39.9640 H   0  0  0  0  0  0  0  0  0  0  0  0
   38.9360   32.1130   41.2010 O   0  0  0  0  0  0  0  0  0  0  0  0
   40.1700   31.7080   41.6200 C   0  0  0  0  0  0  0  0  0  0  0  0
   40.5330   30.9440   40.8860 H   0  0  0  0  0  0  0  0  0  0  0  0
   40.9290   32.4800   41.7550 H   0  0  0  0  0  0  0  0  0  0  0  0
   39.9620   30.9100   42.9210 C   0  0  0  0  0  0  0  0  0  0  0  0
   39.1420   31.3570   43.5070 H   0  0  0  0  0  0  0  0  0  0  0  0
   40.9100   30.8220   43.4740 H   0  0  0  0  0  0  0  0  0  0  0  0
   39.5150   29.5280   42.5080 C   0  0  0  0  0  3  0  0  0  0  0  0
   38.2420   29.1070   43.1780 C   0  0  0  0  0  2  0  0  0  0  0  0
   38.3570   27.6410   43.5240 C   0  0  0  0  0  2  0  0  0  0  0  0
   39.7310   27.1960   43.0610 C   0  0  0  0  0  2  0  0  0  0  0  0
   40.5130   28.4700   42.8500 C   0  0  0  0  0  2  0  0  0  0  0  0
  1 10  1  0  0  0  0
  2  1  1  0  0  0  0
  2 18  1  0  0  0  0
  3  2  2  0  0  0  0
  4  8  2  0  0  0  0
  4  3  1  0  0  0  0
  5  4  1  0  0  0  0
  6  5  1  0  0  0  0
  6  7  2  0  0  0  0
  7  8  1  0  0  0  0
  8  9  1  0  0  0  0
  9 26  1  0  0  0  0
  9  1  2  0  0  0  0
 11  3  1  0  0  0  0
 12  5  1  0  0  0  0
 13  6  1  0  0  0  0
 14 20  1  0  0  0  0
 14 15  1  0  0  0  0
 15 22  1  0  0  0  0
 16 15  2  0  0  0  0
 16 21  1  0  0  0  0
 17 16  1  0  0  0  0
 18 19  1  0  0  0  0
 18 17  2  0  0  0  0
 19 14  2  0  0  0  0
 22 25  1  0  0  0  0
 23 22  1  0  0  0  0
 24 22  1  0  0  0  0
 26 28  1  0  0  0  0
 28 27  2  6  0  0  0
 28 29  1  0  0  0  0
 28 31  1  0  0  0  0
 29 30  1  0  0  0  0
 31 32  1  0  0  0  0
 32 34  1  0  0  0  0
 32 35  1  0  0  0  0
 33 32  1  0  0  0  0
 35 37  1  0  0  0  0
 35 36  1  0  0  0  0
 38 42  1  0  0  0  0
 38 35  1  0  0  0  0
 38 39  1  0  0  0  0
 39 40  1  0  0  0  0
 41 40  1  0  0  0  0
 42 41  1  0  0  0  0
M  END
>  <minimizedAffinity>
-5.74549866

$$$$

 OpenBabel03242513453D

 42 45  0  0  0  0  0  0  0  0999 V2000
   39.8400   30.1770   39.9430 C   0  0  0  0  0  0  0  0  0  0  0  0
   38.6460   29.7330   40.4590 C   0  0  0  0  0  0  0  0  0  0  0  0
   37.6460   30.6490   40.6220 C   0  0  0  0  0  0  0  0  0  0  0  0
   37.7720   31.9790   40.3000 C   0  0  0  0  0  0  0  0  0  0  0  0
   37.0100   33.1000   40.3370 N   0  0  0  0  0  0  0  0  0  0  0  0
   37.7170   34.1610   39.8650 C   0  0  0  0  0  0  0  0  0  0  0  0
   38.9360   33.6970   39.5310 N   0  0  0  0  0  0  0  0  0  0  0  0
   38.9820   32.3740   39.7890 C   0  0  0  0  0  0  0  0  0  0  0  0
   40.0350   31.5170   39.5950 C   0  0  0  0  0  0  0  0  0  0  0  0
   40.6510   29.4610   39.8050 H   0  0  0  0  0  0  0  0  0  0  0  0
   36.6920   30.3280   41.0270 H   0  0  0  0  0  0  0  0  0  0  0  0
   36.0210   33.0240   40.7020 H   0  0  0  0  0  0  0  0  0  0  0  0
   37.3000   35.1570   39.8060 H   0  0  0  0  0  0  0  0  0  0  0  0
   37.0940   26.4760   41.0530 C   0  0  0  0  0  0  0  0  0  0  0  0
   38.1670   25.6860   41.4890 C   0  0  0  0  0  0  0  0  0  0  0  0
   39.4210   26.3310   41.5610 C   0  0  0  0  0  0  0  0  0  0  0  0
   39.5380   27.6260   41.2240 N   0  0  0  0  0  0  0  0  0  0  0  0
   38.4680   28.3290   40.8140 C   0  0  0  0  0  0  0  0  0  0  0  0
   37.2500   27.7800   40.7220 N   0  0  0  0  0  0  0  0  0  0  0  0
   36.1030   26.0480   40.9740 H   0  0  0  0  0  0  0  0  0  0  0  0
   40.2490   25.7210   41.8970 H   0  0  0  0  0  0  0  0  0  0  0  0
   37.9170   24.2720   41.8320 C   0  0  0  0  0  0  0  0  0  0  0  0
   36.5410   24.2020   42.0290 F   0  0  0  0  0  0  0  0  0  0  0  0
   38.5460   23.9970   43.0030 F   0  0  0  0  0  0  0  0  0  0  0  0
   38.3460   23.4820   40.7870 F   0  0  0  0  0  0  0  0  0  0  0  0
   41.2310   31.9710   39.0770 O   0  0  0  0  0  0  0  0  0  0  0  0
   42.1640   33.6390   37.3310 O   0  0  0  0  0  0  0  0  0  0  0  0
   41.5390   32.2660   37.4470 P   0  0  2  0  0  0  0  0  0  0  0  0
   40.0260   32.3440   36.6660 O   0  0  0  0  0  0  0  0  0  0  0  0
   39.6430   31.4150   36.7230 H   0  0  0  0  0  0  0  0  0  0  0  0
   42.5130   31.1080   36.7080 O   0  0  0  0  0  0  0  0  0  0  0  0
   42.5480   29.9070   37.3560 C   0  0  0  0  0  0  0  0  0  0  0  0
   43.6010   29.5320   37.2970 H   0  0  0  0  0  0  0  0  0  0  0  0
   42.2070   29.8890   38.3920 H   0  0  0  0  0  0  0  0  0  0  0  0
   41.7450   28.9110   36.4980 C   0  0  0  0  0  0  0  0  0  0  0  0
   42.4000   28.0870   36.1700 H   0  0  0  0  0  0  0  0  0  0  0  0
   41.2400   29.4350   35.6710 H   0  0  0  0  0  0  0  0  0  0  0  0
   40.6950   28.3150   37.4040 C   0  0  0  0  0  3  0  0  0  0  0  0
   41.0360   26.9250   37.8490 C   0  0  0  0  0  2  0  0  0  0  0  0
   39.7630   26.1120   37.8600 C   0  0  0  0  0  2  0  0  0  0  0  0
   38.6550   27.0390   37.3980 C   0  0  0  0  0  2  0  0  0  0  0  0
   39.3570   28.2060   36.7470 C   0  0  0  0  0  2  0  0  0  0  0  0
  1  2  1  0  0  0  0
  2  3  2  0  0  0  0
  2 18  1  0  0  0  0
  3 11  1  0  0  0  0
  4  5  1  0  0  0  0
  4  3  1  0  0  0  0
  5 12  1  0  0  0  0
  6  5  1  0  0  0  0
  7  8  1  0  0  0  0
  7  6  2  0  0  0  0
  8  4  2  0  0  0  0
  9  8  1  0  0  0  0
  9  1  2  0  0  0  0
 10  1  1  0  0  0  0
 13  6  1  0  0  0  0
 14 15  1  0  0  0  0
 15 16  2  0  0  0  0
 15 22  1  0  0  0  0
 16 21  1  0  0  0  0
 17 16  1  0  0  0  0
 18 17  2  0  0  0  0
 19 18  1  0  0  0  0
 19 14  2  0  0  0  0
 20 14  1  0  0  0  0
 22 23  1  0  0  0  0
 22 24  1  0  0  0  0
 25 22  1  0  0  0  0
 26  9  1  0  0  0  0
 28 27  2  6  0  0  0
 28 26  1  0  0  0  0
 29 30  1  0  0  0  0
 29 28  1  0  0  0  0
 31 32  1  0  0  0  0
 31 28  1  0  0  0  0
 32 34  1  0  0  0  0
 33 32  1  0  0  0  0
 35 32  1  0  0  0  0
 35 38  1  0  0  0  0
 36 35  1  0  0  0  0
 37 35  1  0  0  0  0
 38 39  1  0  0  0  0
 39 40  1  0  0  0  0
 41 40  1  0  0  0  0
 42 41  1  0  0  0  0
 42 38  1  0  0  0  0
M  END
>  <minimizedAffinity>
-5.71914482

$$$$

 OpenBabel03242513453D

 42 45  0  0  0  0  0  0  0  0999 V2000
   39.1230   29.5870   38.9710 C   0  0  0  0  0  0  0  0  0  0  0  0
   39.7550   28.3730   38.8450 C   0  0  0  0  0  0  0  0  0  0  0  0
   40.9200   28.3350   38.1340 C   0  0  0  0  0  0  0  0  0  0  0  0
   41.4880   29.4390   37.5440 C   0  0  0  0  0  0  0  0  0  0  0  0
   42.5860   29.7320   36.8040 N   0  0  0  0  0  0  0  0  0  0  0  0
   42.6070   31.0580   36.5040 C   0  0  0  0  0  0  0  0  0  0  0  0
   41.5080   31.5990   37.0630 N   0  0  0  0  0  0  0  0  0  0  0  0
   40.8210   30.6270   37.6980 C   0  0  0  0  0  0  0  0  0  0  0  0
   39.6470   30.7490   38.3960 C   0  0  0  0  0  0  0  0  0  0  0  0
   38.1910   29.6390   39.5350 H   0  0  0  0  0  0  0  0  0  0  0  0
   41.4410   27.3910   38.0180 H   0  0  0  0  0  0  0  0  0  0  0  0
   43.2530   28.9480   36.5630 H   0  0  0  0  0  0  0  0  0  0  0  0
   43.3970   31.5080   35.9180 H   0  0  0  0  0  0  0  0  0  0  0  0
   37.3660   25.7960   39.8570 C   0  0  0  0  0  0  0  0  0  0  0  0
   38.1500   24.9140   40.6140 C   0  0  0  0  0  0  0  0  0  0  0  0
   39.5130   25.2570   40.7480 C   0  0  0  0  0  0  0  0  0  0  0  0
   39.9930   26.3700   40.1680 N   0  0  0  0  0  0  0  0  0  0  0  0
   39.1870   27.1750   39.4550 C   0  0  0  0  0  0  0  0  0  0  0  0
   37.8850   26.9110   39.2880 N   0  0  0  0  0  0  0  0  0  0  0  0
   36.3120   25.5970   39.7140 H   0  0  0  0  0  0  0  0  0  0  0  0
   40.1180   24.5750   41.3320 H   0  0  0  0  0  0  0  0  0  0  0  0
   37.5120   23.7210   41.2040 C   0  0  0  0  0  0  0  0  0  0  0  0
   37.6730   23.8840   42.5770 F   0  0  0  0  0  0  0  0  0  0  0  0
   38.2010   22.6230   40.8050 F   0  0  0  0  0  0  0  0  0  0  0  0
   36.1860   23.6970   40.8230 F   0  0  0  0  0  0  0  0  0  0  0  0
   39.0190   31.9720   38.5180 O   0  0  0  0  0  0  0  0  0  0  0  0
   37.3970   33.7770   39.4210 O   0  0  0  0  0  0  0  0  0  0  0  0
   37.9010   32.3800   39.7110 P   0  0  2  0  0  0  0  0  0  0  0  0
   38.7590   32.4600   41.1820 O   0  0  0  0  0  0  0  0  0  0  0  0
   39.0550   31.5170   41.3750 H   0  0  0  0  0  0  0  0  0  0  0  0
   36.6150   31.3020   39.8490 O   0  0  0  0  0  0  0  0  0  0  0  0
   36.3120   30.9490   41.1320 C   0  0  0  0  0  0  0  0  0  0  0  0
   37.1550   31.3010   41.7790 H   0  0  0  0  0  0  0  0  0  0  0  0
   35.3630   31.3050   41.5370 H   0  0  0  0  0  0  0  0  0  0  0  0
   36.3970   29.4130   41.2060 C   0  0  0  0  0  0  0  0  0  0  0  0
   37.0000   29.0310   40.3660 H   0  0  0  0  0  0  0  0  0  0  0  0
   35.3890   28.9750   41.2680 H   0  0  0  0  0  0  0  0  0  0  0  0
   37.1430   29.0870   42.4780 C   0  0  0  0  0  3  0  0  0  0  0  0
   38.6160   29.3430   42.3670 C   0  0  0  0  0  2  0  0  0  0  0  0
   39.3390   28.2370   43.0990 C   0  0  0  0  0  2  0  0  0  0  0  0
   38.2700   27.3060   43.6390 C   0  0  0  0  0  2  0  0  0  0  0  0
   37.0170   27.6510   42.8710 C   0  0  0  0  0  2  0  0  0  0  0  0
  1 10  1  0  0  0  0
  2  1  1  0  0  0  0
  2 18  1  0  0  0  0
  3  2  2  0  0  0  0
  4  8  2  0  0  0  0
  4  3  1  0  0  0  0
  5  4  1  0  0  0  0
  6  5  1  0  0  0  0
  6  7  2  0  0  0  0
  7  8  1  0  0  0  0
  8  9  1  0  0  0  0
  9 26  1  0  0  0  0
  9  1  2  0  0  0  0
 11  3  1  0  0  0  0
 12  5  1  0  0  0  0
 13  6  1  0  0  0  0
 14 15  1  0  0  0  0
 15 16  2  0  0  0  0
 15 22  1  0  0  0  0
 16 21  1  0  0  0  0
 17 16  1  0  0  0  0
 18 17  2  0  0  0  0
 19 18  1  0  0  0  0
 19 14  2  0  0  0  0
 20 14  1  0  0  0  0
 22 23  1  0  0  0  0
 24 22  1  0  0  0  0
 25 22  1  0  0  0  0
 26 28  1  0  0  0  0
 28 27  2  6  0  0  0
 28 31  1  0  0  0  0
 28 29  1  0  0  0  0
 29 30  1  0  0  0  0
 31 32  1  0  0  0  0
 32 35  1  0  0  0  0
 32 34  1  0  0  0  0
 32 33  1  0  0  0  0
 35 37  1  0  0  0  0
 35 38  1  0  0  0  0
 36 35  1  0  0  0  0
 38 42  1  0  0  0  0
 39 38  1  0  0  0  0
 39 40  1  0  0  0  0
 40 41  1  0  0  0  0
 42 41  1  0  0  0  0
M  END
>  <minimizedAffinity>
-5.71626282

$$$$

 OpenBabel03242513453D

 42 45  0  0  0  0  0  0  0  0999 V2000
   40.6460   29.8910   40.4590 C   0  0  0  0  0  0  0  0  0  0  0  0
   40.4600   29.1690   41.6130 C   0  0  0  0  0  0  0  0  0  0  0  0
   41.1210   29.5820   42.7340 C   0  0  0  0  0  0  0  0  0  0  0  0
   41.9560   30.6730   42.7670 C   0  0  0  0  0  0  0  0  0  0  0  0
   42.7300   31.3220   43.6720 N   0  0  0  0  0  0  0  0  0  0  0  0
   43.3470   32.3820   43.0850 C   0  0  0  0  0  0  0  0  0  0  0  0
   42.9550   32.3930   41.7970 N   0  0  0  0  0  0  0  0  0  0  0  0
   42.1110   31.3620   41.5910 C   0  0  0  0  0  0  0  0  0  0  0  0
   41.4830   31.0120   40.4230 C   0  0  0  0  0  0  0  0  0  0  0  0
   40.1270   29.5780   39.5520 H   0  0  0  0  0  0  0  0  0  0  0  0
   40.9930   29.0310   43.6600 H   0  0  0  0  0  0  0  0  0  0  0  0
   42.7590   30.9550   44.6630 H   0  0  0  0  0  0  0  0  0  0  0  0
   44.0130   33.0380   43.6270 H   0  0  0  0  0  0  0  0  0  0  0  0
   38.2150   26.5290   42.7800 C   0  0  0  0  0  0  0  0  0  0  0  0
   37.9350   25.8090   41.6100 C   0  0  0  0  0  0  0  0  0  0  0  0
   38.5520   26.2790   40.4310 C   0  0  0  0  0  0  0  0  0  0  0  0
   39.3530   27.3570   40.4680 N   0  0  0  0  0  0  0  0  0  0  0  0
   39.5820   28.0040   41.6240 C   0  0  0  0  0  0  0  0  0  0  0  0
   39.0290   27.6110   42.7790 N   0  0  0  0  0  0  0  0  0  0  0  0
   37.7770   26.2240   43.7220 H   0  0  0  0  0  0  0  0  0  0  0  0
   38.3340   25.7230   39.5280 H   0  0  0  0  0  0  0  0  0  0  0  0
   37.0380   24.6390   41.6920 C   0  0  0  0  0  0  0  0  0  0  0  0
   36.2260   24.7450   40.5660 F   0  0  0  0  0  0  0  0  0  0  0  0
   36.2700   24.7630   42.8030 F   0  0  0  0  0  0  0  0  0  0  0  0
   37.8060   23.4930   41.6880 F   0  0  0  0  0  0  0  0  0  0  0  0
   41.6760   31.7420   39.2680 O   0  0  0  0  0  0  0  0  0  0  0  0
   39.8800   31.3970   37.4350 O   0  0  0  0  0  0  0  0  0  0  0  0
   40.4560   32.4560   38.3500 P   0  0  2  0  0  0  0  0  0  0  0  0
   41.2070   33.6160   37.3520 O   0  0  0  0  0  0  0  0  0  0  0  0
   41.5520   34.3280   37.9750 H   0  0  0  0  0  0  0  0  0  0  0  0
   39.2390   33.1780   39.2620 O   0  0  0  0  0  0  0  0  0  0  0  0
   37.9950   32.6580   39.0510 C   0  0  0  0  0  0  0  0  0  0  0  0
   37.3110   33.5170   38.8350 H   0  0  0  0  0  0  0  0  0  0  0  0
   37.8960   31.9030   38.2700 H   0  0  0  0  0  0  0  0  0  0  0  0
   37.5010   32.1140   40.4050 C   0  0  0  0  0  0  0  0  0  0  0  0
   36.5240   32.5600   40.6530 H   0  0  0  0  0  0  0  0  0  0  0  0
   38.2690   32.2590   41.1810 H   0  0  0  0  0  0  0  0  0  0  0  0
   37.2810   30.6320   40.2160 C   0  0  0  0  0  3  0  0  0  0  0  0
   36.4730   30.3180   38.9940 C   0  0  0  0  0  2  0  0  0  0  0  0
   35.5420   29.1770   39.3300 C   0  0  0  0  0  2  0  0  0  0  0  0
   35.7980   28.8250   40.7830 C   0  0  0  0  0  2  0  0  0  0  0  0
   36.5420   30.0070   41.3550 C   0  0  0  0  0  2  0  0  0  0  0  0
  1  2  1  0  0  0  0
  2 18  1  0  0  0  0
  2  3  2  0  0  0  0
  3  4  1  0  0  0  0
  3 11  1  0  0  0  0
  4  5  1  0  0  0  0
  5 12  1  0  0  0  0
  6 13  1  0  0  0  0
  6  5  1  0  0  0  0
  7  6  2  0  0  0  0
  8  7  1  0  0  0  0
  8  4  2  0  0  0  0
  9  1  2  0  0  0  0
  9  8  1  0  0  0  0
 10  1  1  0  0  0  0
 14 20  1  0  0  0  0
 15 22  1  0  0  0  0
 15 14  2  0  0  0  0
 16 17  2  0  0  0  0
 16 15  1  0  0  0  0
 17 18  1  0  0  0  0
 18 19  2  0  0  0  0
 19 14  1  0  0  0  0
 21 16  1  0  0  0  0
 22 24  1  0  0  0  0
 23 22  1  0  0  0  0
 25 22  1  0  0  0  0
 26  9  1  0  0  0  0
 28 27  2  6  0  0  0
 28 31  1  0  0  0  0
 28 26  1  0  0  0  0
 29 30  1  0  0  0  0
 29 28  1  0  0  0  0
 32 31  1  0  0  0  0
 32 35  1  0  0  0  0
 33 32  1  0  0  0  0
 34 32  1  0  0  0  0
 35 36  1  0  0  0  0
 35 37  1  0  0  0  0
 38 35  1  0  0  0  0
 38 42  1  0  0  0  0
 39 40  1  0  0  0  0
 39 38  1  0  0  0  0
 40 41  1  0  0  0  0
 41 42  1  0  0  0  0
M  END
>  <minimizedAffinity>
-5.67644548

$$$$

 OpenBabel03242513453D

 42 45  0  0  0  0  0  0  0  0999 V2000
   36.7000   30.3730   39.8870 C   0  0  0  0  0  0  0  0  0  0  0  0
   35.9050   29.2730   39.6740 C   0  0  0  0  0  0  0  0  0  0  0  0
   35.9180   28.2890   40.6210 C   0  0  0  0  0  0  0  0  0  0  0  0
   36.6780   28.3420   41.7650 C   0  0  0  0  0  0  0  0  0  0  0  0
   36.9100   27.5710   42.8560 N   0  0  0  0  0  0  0  0  0  0  0  0
   37.8010   28.1840   43.6800 C   0  0  0  0  0  0  0  0  0  0  0  0
   38.1300   29.3510   43.0950 N   0  0  0  0  0  0  0  0  0  0  0  0
   37.4550   29.4600   41.9330 C   0  0  0  0  0  0  0  0  0  0  0  0
   37.4980   30.4910   41.0300 C   0  0  0  0  0  0  0  0  0  0  0  0
   36.7050   31.1710   39.1430 H   0  0  0  0  0  0  0  0  0  0  0  0
   35.3010   27.4080   40.4800 H   0  0  0  0  0  0  0  0  0  0  0  0
   36.4050   26.6460   42.9340 H   0  0  0  0  0  0  0  0  0  0  0  0
   38.1300   27.7420   44.6100 H   0  0  0  0  0  0  0  0  0  0  0  0
   34.8950   29.1610   36.1620 C   0  0  0  0  0  0  0  0  0  0  0  0
   33.5060   28.9860   36.2350 C   0  0  0  0  0  0  0  0  0  0  0  0
   32.9590   28.9110   37.5350 C   0  0  0  0  0  0  0  0  0  0  0  0
   33.7560   29.0060   38.6120 N   0  0  0  0  0  0  0  0  0  0  0  0
   35.0820   29.1750   38.4740 C   0  0  0  0  0  0  0  0  0  0  0  0
   35.6670   29.2530   37.2720 N   0  0  0  0  0  0  0  0  0  0  0  0
   35.3830   29.2280   35.1980 H   0  0  0  0  0  0  0  0  0  0  0  0
   31.8870   28.7750   37.5910 H   0  0  0  0  0  0  0  0  0  0  0  0
   32.7330   28.8940   34.9810 C   0  0  0  0  0  0  0  0  0  0  0  0
   33.4630   28.0140   34.1870 F   0  0  0  0  0  0  0  0  0  0  0  0
   32.7230   30.1160   34.3920 F   0  0  0  0  0  0  0  0  0  0  0  0
   31.4700   28.4230   35.2740 F   0  0  0  0  0  0  0  0  0  0  0  0
   38.3000   31.5930   41.2510 O   0  0  0  0  0  0  0  0  0  0  0  0
   39.0870   34.0490   41.0210 O   0  0  0  0  0  0  0  0  0  0  0  0
   38.3990   32.9440   40.2490 P   0  0  2  0  0  0  0  0  0  0  0  0
   36.8000   33.4630   39.9630 O   0  0  0  0  0  0  0  0  0  0  0  0
   36.3710   32.7320   39.4190 H   0  0  0  0  0  0  0  0  0  0  0  0
   39.1870   32.6640   38.7880 O   0  0  0  0  0  0  0  0  0  0  0  0
   40.1670   31.7160   38.8500 C   0  0  0  0  0  0  0  0  0  0  0  0
   39.9500   31.0760   39.7430 H   0  0  0  0  0  0  0  0  0  0  0  0
   40.3080   31.0860   37.9710 H   0  0  0  0  0  0  0  0  0  0  0  0
   41.4730   32.4450   39.2190 C   0  0  0  0  0  0  0  0  0  0  0  0
   41.8000   32.1390   40.2260 H   0  0  0  0  0  0  0  0  0  0  0  0
   41.3520   33.5330   39.0990 H   0  0  0  0  0  0  0  0  0  0  0  0
   42.5200   31.9660   38.2420 C   0  0  0  0  0  3  0  0  0  0  0  0
   41.9410   31.5870   36.9130 C   0  0  0  0  0  2  0  0  0  0  0  0
   42.6680   30.3580   36.4190 C   0  0  0  0  0  2  0  0  0  0  0  0
   43.6840   30.0000   37.4870 C   0  0  0  0  0  2  0  0  0  0  0  0
   43.2470   30.7510   38.7210 C   0  0  0  0  0  2  0  0  0  0  0  0
  1  9  1  0  0  0  0
  2  1  2  0  0  0  0
  2  3  1  0  0  0  0
  3  4  2  0  0  0  0
  4  8  1  0  0  0  0
  4  5  1  0  0  0  0
  5 12  1  0  0  0  0
  5  6  1  0  0  0  0
  6 13  1  0  0  0  0
  7  6  2  0  0  0  0
  8  7  1  0  0  0  0
  9 26  1  0  0  0  0
  9  8  2  0  0  0  0
 10  1  1  0  0  0  0
 11  3  1  0  0  0  0
 14 15  2  0  0  0  0
 14 19  1  0  0  0  0
 15 16  1  0  0  0  0
 16 21  1  0  0  0  0
 16 17  2  0  0  0  0
 18 17  1  0  0  0  0
 18  2  1  0  0  0  0
 19 18  2  0  0  0  0
 20 14  1  0  0  0  0
 22 25  1  0  0  0  0
 22 15  1  0  0  0  0
 23 22  1  0  0  0  0
 24 22  1  0  0  0  0
 28 27  2  1  0  0  0
 28 26  1  0  0  0  0
 29 28  1  0  0  0  0
 30 29  1  0  0  0  0
 31 32  1  0  0  0  0
 31 28  1  0  0  0  0
 32 35  1  0  0  0  0
 32 33  1  0  0  0  0
 34 32  1  0  0  0  0
 35 36  1  0  0  0  0
 37 35  1  0  0  0  0
 38 42  1  0  0  0  0
 38 35  1  0  0  0  0
 39 38  1  0  0  0  0
 40 39  1  0  0  0  0
 40 41  1  0  0  0  0
 41 42  1  0  0  0  0
M  END
>  <minimizedAffinity>
-5.64227867

$$$$

 OpenBabel03242513453D

 42 45  0  0  0  0  0  0  0  0999 V2000
   37.4790   29.2630   38.2710 C   0  0  0  0  0  0  0  0  0  0  0  0
   37.4640   27.9380   37.9060 C   0  0  0  0  0  0  0  0  0  0  0  0
   37.1680   27.6410   36.6070 C   0  0  0  0  0  0  0  0  0  0  0  0
   36.8870   28.5910   35.6540 C   0  0  0  0  0  0  0  0  0  0  0  0
   36.5670   28.6300   34.3360 N   0  0  0  0  0  0  0  0  0  0  0  0
   36.4010   29.9190   33.9350 C   0  0  0  0  0  0  0  0  0  0  0  0
   36.6170   30.6920   35.0160 N   0  0  0  0  0  0  0  0  0  0  0  0
   36.9140   29.8980   36.0650 C   0  0  0  0  0  0  0  0  0  0  0  0
   37.2020   30.2790   37.3510 C   0  0  0  0  0  0  0  0  0  0  0  0
   37.7130   29.5220   39.3040 H   0  0  0  0  0  0  0  0  0  0  0  0
   37.1490   26.6040   36.2900 H   0  0  0  0  0  0  0  0  0  0  0  0
   36.4920   27.7170   33.8090 H   0  0  0  0  0  0  0  0  0  0  0  0
   36.1410   30.1810   32.9190 H   0  0  0  0  0  0  0  0  0  0  0  0
   39.2140   25.3230   39.7700 C   0  0  0  0  0  0  0  0  0  0  0  0
   38.2780   24.9440   40.7420 C   0  0  0  0  0  0  0  0  0  0  0  0
   37.0430   25.6270   40.7120 C   0  0  0  0  0  0  0  0  0  0  0  0
   36.8170   26.5800   39.7920 N   0  0  0  0  0  0  0  0  0  0  0  0
   37.7570   26.8970   38.8850 C   0  0  0  0  0  0  0  0  0  0  0  0
   38.9500   26.2890   38.8570 N   0  0  0  0  0  0  0  0  0  0  0  0
   40.1830   24.8410   39.7320 H   0  0  0  0  0  0  0  0  0  0  0  0
   36.3210   25.3340   41.4630 H   0  0  0  0  0  0  0  0  0  0  0  0
   38.6390   23.8830   41.7020 C   0  0  0  0  0  0  0  0  0  0  0  0
   37.6400   23.9350   42.6690 F   0  0  0  0  0  0  0  0  0  0  0  0
   39.8260   24.2080   42.2750 F   0  0  0  0  0  0  0  0  0  0  0  0
   38.6710   22.6760   41.0350 F   0  0  0  0  0  0  0  0  0  0  0  0
   37.2140   31.6120   37.7090 O   0  0  0  0  0  0  0  0  0  0  0  0
   36.2880   31.5570   40.1260 O   0  0  0  0  0  0  0  0  0  0  0  0
   37.3670   32.1990   39.2810 P   0  0  2  0  0  0  0  0  0  0  0  0
   37.0210   33.8670   39.2200 O   0  0  0  0  0  0  0  0  0  0  0  0
   37.7670   34.2790   38.6850 H   0  0  0  0  0  0  0  0  0  0  0  0
   38.8840   31.9470   39.9660 O   0  0  0  0  0  0  0  0  0  0  0  0
   38.8570   31.3190   41.1770 C   0  0  0  0  0  0  0  0  0  0  0  0
   39.3780   31.9880   41.9080 H   0  0  0  0  0  0  0  0  0  0  0  0
   37.8800   31.0350   41.5700 H   0  0  0  0  0  0  0  0  0  0  0  0
   39.7810   30.0910   41.0660 C   0  0  0  0  0  0  0  0  0  0  0  0
   40.6570   30.2210   41.7230 H   0  0  0  0  0  0  0  0  0  0  0  0
   40.0370   29.8970   40.0130 H   0  0  0  0  0  0  0  0  0  0  0  0
   38.9950   28.9150   41.5960 C   0  0  0  0  0  3  0  0  0  0  0  0
   37.7980   29.3320   42.3950 C   0  0  0  0  0  2  0  0  0  0  0  0
   37.6670   28.3900   43.5680 C   0  0  0  0  0  2  0  0  0  0  0  0
   38.8200   27.4090   43.4640 C   0  0  0  0  0  2  0  0  0  0  0  0
   39.7990   28.0450   42.5070 C   0  0  0  0  0  2  0  0  0  0  0  0
  1 10  1  0  0  0  0
  2  1  1  0  0  0  0
  2 18  1  0  0  0  0
  3  2  2  0  0  0  0
  4  8  2  0  0  0  0
  4  3  1  0  0  0  0
  5  4  1  0  0  0  0
  6  5  1  0  0  0  0
  6  7  2  0  0  0  0
  7  8  1  0  0  0  0
  8  9  1  0  0  0  0
  9 26  1  0  0  0  0
  9  1  2  0  0  0  0
 11  3  1  0  0  0  0
 12  5  1  0  0  0  0
 13  6  1  0  0  0  0
 14 15  1  0  0  0  0
 15 22  1  0  0  0  0
 16 15  2  0  0  0  0
 16 21  1  0  0  0  0
 17 16  1  0  0  0  0
 18 17  2  0  0  0  0
 19 18  1  0  0  0  0
 19 14  2  0  0  0  0
 20 14  1  0  0  0  0
 22 24  1  0  0  0  0
 22 23  1  0  0  0  0
 25 22  1  0  0  0  0
 26 28  1  0  0  0  0
 28 31  1  0  0  0  0
 28 27  2  1  0  0  0
 29 28  1  0  0  0  0
 30 29  1  0  0  0  0
 31 32  1  0  0  0  0
 32 34  1  0  0  0  0
 32 33  1  0  0  0  0
 35 32  1  0  0  0  0
 35 38  1  0  0  0  0
 35 36  1  0  0  0  0
 37 35  1  0  0  0  0
 38 39  1  0  0  0  0
 38 42  1  0  0  0  0
 39 40  1  0  0  0  0
 41 40  1  0  0  0  0
 42 41  1  0  0  0  0
M  END
>  <minimizedAffinity>
-5.61483622

$$$$
