
 OpenBabel03242519433D

 30 32  0  0  1  0  0  0  0  0999 V2000
   46.4820   31.5800   39.5720 N   0  0  0  0  0  0  0  0  0  0  0  0
   45.6310   30.5790   38.9910 C   0  0  0  0  0  0  0  0  0  0  0  0
   44.3680   30.3730   39.7910 C   0  0  0  0  0  0  0  0  0  0  0  0
   44.5800   30.1610   41.1840 N   0  0  0  0  0  0  0  0  0  0  0  0
   45.6840   30.8010   41.7520 C   0  0  0  0  0  0  0  0  0  0  0  0
   46.3470   31.8770   40.9590 C   0  0  1  0  0  0  0  0  0  0  0  0
   45.2910   30.9730   37.9970 H   0  0  0  0  0  0  0  0  0  0  0  0
   46.1130   29.6240   38.7820 H   0  0  0  0  0  0  0  0  0  0  0  0
   43.6650   31.2380   39.6910 H   0  0  0  0  0  0  0  0  0  0  0  0
   43.8320   29.5170   39.3340 H   0  0  0  0  0  0  0  0  0  0  0  0
   43.6950   30.3100   41.6940 H   0  0  0  0  0  0  0  0  0  0  0  0
   45.4470   31.2120   42.7560 H   0  0  0  0  0  0  0  0  0  0  0  0
   46.4740   30.0250   41.9370 H   0  0  0  0  0  0  0  0  0  0  0  0
   45.6380   32.7460   41.0050 H   0  0  0  0  0  0  0  0  0  0  0  0
   49.4370   32.4830   37.4860 C   0  0  0  0  0  0  0  0  0  0  0  0
   48.5910   31.6600   38.2600 C   0  0  0  0  0  0  0  0  0  0  0  0
   47.4300   32.2560   38.7760 C   0  0  0  0  0  0  0  0  0  0  0  0
   47.2080   33.5940   38.4890 N   0  0  0  0  0  0  0  0  0  0  0  0
   48.0640   34.3180   37.7410 C   0  0  0  0  0  0  0  0  0  0  0  0
   49.1790   33.7640   37.2390 N   0  0  0  0  0  0  0  0  0  0  0  0
   50.3170   31.9340   37.1260 H   0  0  0  0  0  0  0  0  0  0  0  0
   48.7670   30.6250   38.4780 H   0  0  0  0  0  0  0  0  0  0  0  0
   47.7740   35.3380   37.5970 H   0  0  0  0  0  0  0  0  0  0  0  0
   47.6540   32.1750   41.5540 C   0  0  0  0  0  0  0  0  0  0  0  0
   48.5580   31.3080   41.5720 O   0  0  0  0  0  0  0  0  0  0  0  0
   48.5000   33.1800   42.2400 C   0  0  0  0  0  3  0  0  0  0  0  0
   47.6790   34.2250   42.9900 C   0  0  0  0  0  2  0  0  0  0  0  0
   47.4110   35.2990   41.9680 C   0  0  0  0  0  2  0  0  0  0  0  0
   48.8170   35.4770   41.4340 C   0  0  0  0  0  2  0  0  0  0  0  0
   49.2730   34.0460   41.2780 C   0  0  0  0  0  2  0  0  0  0  0  0
  1  6  1  0  0  0  0
  2  1  1  0  0  0  0
  2  3  1  0  0  0  0
  3  4  1  0  0  0  0
  4 11  1  0  0  0  0
  4  5  1  0  0  0  0
  5 13  1  0  0  0  0
  5 12  1  0  0  0  0
  6 14  1  1  0  0  0
  6 24  1  0  0  0  0
  6  5  1  0  0  0  0
  7  2  1  0  0  0  0
  8  2  1  0  0  0  0
  9  3  1  0  0  0  0
 10  3  1  0  0  0  0
 15 16  1  0  0  0  0
 16 22  1  0  0  0  0
 16 17  2  0  0  0  0
 17  1  1  0  0  0  0
 18 17  1  0  0  0  0
 19 18  2  0  0  0  0
 20 15  2  0  0  0  0
 20 19  1  0  0  0  0
 21 15  1  0  0  0  0
 23 19  1  0  0  0  0
 24 25  2  0  0  0  0
 24 26  1  0  0  0  0
 26 27  1  0  0  0  0
 28 27  1  0  0  0  0
 29 28  1  0  0  0  0
 30 29  1  0  0  0  0
 30 26  1  0  0  0  0
M  END
>  <minimizedAffinity>
-3.35883164

>  <minimizedRMSD>
5.25330544

$$$$
