
 OpenBabel03242522393D

 36 38  0  0  0  0  0  0  0  0999 V2000
   46.3170   31.6940   45.5000 C   0  0  0  0  0  0  0  0  0  0  0  0
   46.1760   30.7110   44.9590 H   0  0  0  0  0  0  0  0  0  0  0  0
   45.3010   32.0130   45.7490 H   0  0  0  0  0  0  0  0  0  0  0  0
   47.3320   32.3770   47.6900 C   0  0  0  0  0  0  0  0  0  0  0  0
   47.1480   31.3990   46.6620 C   0  0  0  0  0  0  0  0  0  0  0  0
   47.7980   30.1630   46.8260 C   0  0  0  0  0  0  0  0  0  0  0  0
   48.5580   29.9760   47.9490 N   0  0  0  0  0  0  0  0  0  0  0  0
   48.6930   30.9170   48.8680 C   0  0  0  0  0  0  0  0  0  0  0  0
   48.0970   32.0990   48.7550 N   0  0  0  0  0  0  0  0  0  0  0  0
   46.8560   33.3440   47.6180 H   0  0  0  0  0  0  0  0  0  0  0  0
   47.6820   29.4030   46.0700 H   0  0  0  0  0  0  0  0  0  0  0  0
   49.5320   30.6170   50.0760 C   0  0  0  0  0  0  0  0  0  0  0  0
   48.8220   30.4840   50.9080 H   0  0  0  0  0  0  0  0  0  0  0  0
   50.0530   29.6780   49.8990 H   0  0  0  0  0  0  0  0  0  0  0  0
   50.4840   31.7120   50.4070 C   0  0  0  0  0  0  0  0  0  0  0  0
   51.6460   31.6110   49.4180 C   0  0  0  0  0  0  0  0  0  0  0  0
   52.9070   31.5290   50.2190 C   0  0  0  0  0  0  0  0  0  0  0  0
   52.4800   30.9510   51.5300 C   0  0  0  0  0  0  0  0  0  0  0  0
   51.1240   31.6080   51.7410 C   0  0  0  0  0  0  0  0  0  0  0  0
   47.0700   32.6780   44.6410 C   0  0  0  0  0  0  0  0  0  0  0  0
   48.0370   33.0040   45.1060 H   0  0  0  0  0  0  0  0  0  0  0  0
   47.3870   32.1370   43.7040 H   0  0  0  0  0  0  0  0  0  0  0  0
   46.7030   34.5660   43.1250 C   0  0  0  0  0  0  0  0  0  0  0  0
   46.3400   33.8810   44.2630 C   0  0  0  0  0  0  0  0  0  0  0  0
   45.3130   34.2700   45.0690 C   0  0  0  0  0  0  0  0  0  0  0  0
   44.5930   35.4020   44.7400 C   0  0  0  0  0  0  0  0  0  0  0  0
   44.8890   36.1380   43.6250 C   0  0  0  0  0  0  0  0  0  0  0  0
   45.9550   35.6850   42.8410 C   0  0  0  0  0  0  0  0  0  0  0  0
   44.9460   33.8240   45.9750 H   0  0  0  0  0  0  0  0  0  0  0  0
   43.7580   35.8000   45.3100 H   0  0  0  0  0  0  0  0  0  0  0  0
   44.3750   37.0160   43.3180 H   0  0  0  0  0  0  0  0  0  0  0  0
   46.2080   36.2560   41.9490 H   0  0  0  0  0  0  0  0  0  0  0  0
   48.0130   34.1060   42.0700 S   0  0  0  0  0  0  0  0  0  0  0  0
   49.3670   34.5660   42.6010 O   0  0  0  0  0  0  0  0  0  0  0  0
   47.8680   34.8620   40.7580 O   0  0  0  0  0  0  0  0  0  0  0  0
   48.0570   32.7820   41.7910 H   0  0  0  0  0  0  0  0  0  0  0  0
  1  3  1  0  0  0  0
  1  5  1  0  0  0  0
  2  1  1  0  0  0  0
  4  9  1  0  0  0  0
  5  6  1  0  0  0  0
  5  4  2  0  0  0  0
  6  7  2  0  0  0  0
  7  8  1  0  0  0  0
  8 12  1  0  0  0  0
  9  8  2  0  0  0  0
 10  4  1  0  0  0  0
 11  6  1  0  0  0  0
 12 15  1  0  0  0  0
 12 13  1  0  0  0  0
 14 12  1  0  0  0  0
 15 19  1  0  0  0  0
 16 17  1  0  0  0  0
 16 15  1  0  0  0  0
 17 18  1  0  0  0  0
 18 19  1  0  0  0  0
 20 21  1  0  0  0  0
 20  1  1  0  0  0  0
 22 20  1  0  0  0  0
 23 24  1  0  0  0  0
 24 20  1  0  0  0  0
 24 25  2  0  0  0  0
 25 29  1  0  0  0  0
 26 25  1  0  0  0  0
 26 30  1  0  0  0  0
 27 26  2  0  0  0  0
 28 23  2  0  0  0  0
 28 27  1  0  0  0  0
 31 27  1  0  0  0  0
 32 28  1  0  0  0  0
 33 34  2  0  0  0  0
 33 23  1  0  0  0  0
 35 33  2  0  0  0  0
 36 33  1  0  0  0  0
M  END
>  <minimizedAffinity>
-5.62858629

>  <minimizedRMSD>
2.19233704

$$$$
