
 OpenBabel03242518543D

 38 40  0  0  1  0  0  0  0  0999 V2000
   45.7980   31.2360   46.6040 C   0  0  2  0  0  0  0  0  0  0  0  0
   45.9150   30.4550   47.8740 C   0  0  0  0  0  0  0  0  0  0  0  0
   45.1020   29.2210   47.7060 C   0  0  0  0  0  0  0  0  0  0  0  0
   44.3380   29.1190   46.4280 C   0  0  0  0  0  0  0  0  0  0  0  0
   45.2630   29.2760   45.2530 C   0  0  0  0  0  0  0  0  0  0  0  0
   46.2240   30.3520   45.4460 C   0  0  2  0  0  0  0  0  0  0  0  0
   44.7250   31.4370   46.4050 H   0  0  0  0  0  0  0  0  0  0  0  0
   45.5030   31.1230   48.6810 H   0  0  0  0  0  0  0  0  0  0  0  0
   46.9620   30.2640   48.1870 H   0  0  0  0  0  0  0  0  0  0  0  0
   44.3140   29.2330   48.5170 H   0  0  0  0  0  0  0  0  0  0  0  0
   45.6470   28.2650   47.9200 H   0  0  0  0  0  0  0  0  0  0  0  0
   43.8900   28.0990   46.4070 H   0  0  0  0  0  0  0  0  0  0  0  0
   43.4710   29.8100   46.3980 H   0  0  0  0  0  0  0  0  0  0  0  0
   44.5860   29.5540   44.3910 H   0  0  0  0  0  0  0  0  0  0  0  0
   45.6390   28.2710   44.9910 H   0  0  0  0  0  0  0  0  0  0  0  0
   46.3480   31.0170   44.5810 H   0  0  0  0  0  0  0  0  0  0  0  0
   47.5270   29.6960   45.7500 C   0  0  0  0  0  0  0  0  0  0  0  0
   47.4960   28.5830   45.7130 H   0  0  0  0  0  0  0  0  0  0  0  0
   47.8000   29.9400   46.7970 H   0  0  0  0  0  0  0  0  0  0  0  0
   48.6750   30.0910   44.8690 C   0  0  0  0  0  3  0  0  0  0  0  0
   49.4540   28.9150   44.3340 C   0  0  0  0  0  2  0  0  0  0  0  0
   50.4060   29.6840   43.4120 C   0  0  0  0  0  2  0  0  0  0  0  0
   49.4050   30.5420   42.6570 C   0  0  0  0  0  2  0  0  0  0  0  0
   48.1800   30.6490   43.5300 C   0  0  0  0  0  2  0  0  0  0  0  0
   46.5150   32.5360   46.6220 C   0  0  0  0  0  0  0  0  0  0  0  0
   47.4270   32.8060   47.4350 O   0  0  0  0  0  0  0  0  0  0  0  0
   44.7060   35.2470   44.9670 C   0  0  0  0  0  0  0  0  0  0  0  0
   45.3390   35.3700   43.7020 C   0  0  0  0  0  0  0  0  0  0  0  0
   46.3900   34.5060   43.4550 C   0  0  0  0  0  0  0  0  0  0  0  0
   46.6770   33.6600   44.4450 N   0  0  0  0  0  0  0  0  0  0  0  0
   46.1010   33.5330   45.6190 C   0  0  0  0  0  0  0  0  0  0  0  0
   45.0780   34.3610   45.8830 N   0  0  0  0  0  0  0  0  0  0  0  0
   43.8660   35.9270   45.1840 H   0  0  0  0  0  0  0  0  0  0  0  0
   44.9980   36.1090   42.9880 H   0  0  0  0  0  0  0  0  0  0  0  0
   47.0360   34.6230   42.1600 C   0  0  0  0  0  0  0  0  0  0  0  0
   47.9870   33.6170   42.0200 F   0  0  0  0  0  0  0  0  0  0  0  0
   47.6630   35.8260   42.1350 F   0  0  0  0  0  0  0  0  0  0  0  0
   46.1470   34.4450   41.1050 F   0  0  0  0  0  0  0  0  0  0  0  0
  1  7  1  6  0  0  0
  1 25  1  0  0  0  0
  1  2  1  0  0  0  0
  2  9  1  0  0  0  0
  2  8  1  0  0  0  0
  3  2  1  0  0  0  0
  3 11  1  0  0  0  0
  3 10  1  0  0  0  0
  4  3  1  0  0  0  0
  5  6  1  0  0  0  0
  5  4  1  0  0  0  0
  6 16  1  6  0  0  0
  6 17  1  0  0  0  0
  6  1  1  0  0  0  0
 12  4  1  0  0  0  0
 13  4  1  0  0  0  0
 14  5  1  0  0  0  0
 15  5  1  0  0  0  0
 17 19  1  0  0  0  0
 18 17  1  0  0  0  0
 20 17  1  0  0  0  0
 21 20  1  0  0  0  0
 22 21  1  0  0  0  0
 23 22  1  0  0  0  0
 23 24  1  0  0  0  0
 24 20  1  0  0  0  0
 25 26  2  0  0  0  0
 27 33  1  0  0  0  0
 27 32  1  0  0  0  0
 28 27  2  0  0  0  0
 29 28  1  0  0  0  0
 29 30  2  0  0  0  0
 30 31  1  0  0  0  0
 31 32  2  0  0  0  0
 31 25  1  0  0  0  0
 34 28  1  0  0  0  0
 35 29  1  0  0  0  0
 36 35  1  0  0  0  0
 37 35  1  0  0  0  0
 38 35  1  0  0  0  0
M  END
>  <minimizedAffinity>
-5.17349243

>  <minimizedRMSD>
1.38457227

$$$$
