
 OpenBabel03252507553D

 40 43  0  0  1  0  0  0  0  0999 V2000
   47.0250   34.8050   41.9550 C   0  0  2  0  0  0  0  0  0  0  0  0
   46.2400   34.2130   40.7860 C   0  0  0  0  0  0  0  0  0  0  0  0
   47.4340   34.0200   39.8240 C   0  0  0  0  0  0  0  0  0  0  0  0
   48.5650   33.5880   40.7050 C   0  0  1  0  0  0  0  0  0  0  0  0
   48.0720   33.7350   42.1130 C   0  0  0  0  0  0  0  0  0  0  0  0
   47.4320   35.7550   41.6140 H   0  0  0  0  0  0  0  0  0  0  0  0
   45.5150   34.9100   40.3770 H   0  0  0  0  0  0  0  0  0  0  0  0
   45.8860   33.2320   41.0970 H   0  0  0  0  0  0  0  0  0  0  0  0
   47.1560   33.2790   39.0560 H   0  0  0  0  0  0  0  0  0  0  0  0
   47.6040   35.0280   39.4060 H   0  0  0  0  0  0  0  0  0  0  0  0
   49.4220   34.2690   40.5140 H   0  0  0  0  0  0  0  0  0  0  0  0
   47.6770   32.8320   42.5710 H   0  0  0  0  0  0  0  0  0  0  0  0
   48.9120   34.1910   42.7110 H   0  0  0  0  0  0  0  0  0  0  0  0
   44.5290   36.0010   44.5100 C   0  0  0  0  0  0  0  0  0  0  0  0
   45.2540   35.9690   43.3250 C   0  0  0  0  0  0  0  0  0  0  0  0
   46.1720   34.9350   43.1710 C   0  0  0  0  0  0  0  0  0  0  0  0
   46.3390   33.9800   44.1840 N   0  0  0  0  0  0  0  0  0  0  0  0
   45.6020   34.0640   45.3200 C   0  0  0  0  0  0  0  0  0  0  0  0
   44.7020   35.0720   45.4790 N   0  0  0  0  0  0  0  0  0  0  0  0
   43.8070   36.7950   44.6580 H   0  0  0  0  0  0  0  0  0  0  0  0
   45.1480   36.6890   42.5270 H   0  0  0  0  0  0  0  0  0  0  0  0
   45.8080   33.2810   46.0360 H   0  0  0  0  0  0  0  0  0  0  0  0
   48.9900   32.1500   40.5240 C   0  0  2  0  0  0  0  0  0  0  0  0
   49.8600   31.6080   41.5630 C   0  0  0  0  0  0  0  0  0  0  0  0
   50.3650   31.7880   40.1720 C   0  0  1  0  0  0  0  0  0  0  0  0
   48.1870   31.5010   40.1360 H   0  0  0  0  0  0  0  0  0  0  0  0
   50.2430   32.2920   42.3560 H   0  0  0  0  0  0  0  0  0  0  0  0
   49.6700   30.5870   41.9570 H   0  0  0  0  0  0  0  0  0  0  0  0
   51.0760   32.5910   39.8960 H   0  0  0  0  0  0  0  0  0  0  0  0
   50.5480   30.6290   39.3780 O   0  0  0  0  0  0  0  0  0  0  0  0
   51.5580   30.0440   37.0460 O   0  0  0  0  0  0  0  0  0  0  0  0
   51.7240   30.9680   38.2260 P   0  0  1  0  0  0  0  0  0  0  0  0
   51.5460   32.5750   37.6560 O   0  0  0  0  0  0  0  0  0  0  0  0
   51.9220   33.1490   38.3870 H   0  0  0  0  0  0  0  0  0  0  0  0
   53.2820   30.8270   38.7880 O   0  0  0  0  0  0  0  0  0  0  0  0
   53.3310   29.6600   39.5730 C   0  0  0  0  0  3  0  0  0  0  0  0
   53.8250   29.9610   40.9630 C   0  0  0  0  0  2  0  0  0  0  0  0
   55.2030   29.3350   41.0510 C   0  0  0  0  0  2  0  0  0  0  0  0
   55.6210   29.1110   39.6140 C   0  0  0  0  0  2  0  0  0  0  0  0
   54.3150   28.6630   38.9960 C   0  0  0  0  0  2  0  0  0  0  0  0
  1  6  1  6  0  0  0
  1  5  1  0  0  0  0
  1 16  1  0  0  0  0
  2  8  1  0  0  0  0
  2  1  1  0  0  0  0
  3  4  1  0  0  0  0
  3  2  1  0  0  0  0
  4 11  1  6  0  0  0
  4  5  1  0  0  0  0
  5 12  1  0  0  0  0
  5 13  1  0  0  0  0
  7  2  1  0  0  0  0
  9  3  1  0  0  0  0
 10  3  1  0  0  0  0
 14 20  1  0  0  0  0
 14 19  1  0  0  0  0
 15 14  2  0  0  0  0
 16 15  1  0  0  0  0
 16 17  2  0  0  0  0
 17 18  1  0  0  0  0
 18 19  2  0  0  0  0
 18 22  1  0  0  0  0
 21 15  1  0  0  0  0
 23 26  1  6  0  0  0
 23  4  1  0  0  0  0
 23 24  1  0  0  0  0
 24 28  1  0  0  0  0
 24 27  1  0  0  0  0
 25 29  1  6  0  0  0
 25 23  1  0  0  0  0
 25 24  1  0  0  0  0
 30 25  1  0  0  0  0
 32 31  2  6  0  0  0
 32 35  1  0  0  0  0
 32 30  1  0  0  0  0
 33 32  1  0  0  0  0
 33 34  1  0  0  0  0
 35 36  1  0  0  0  0
 36 37  1  0  0  0  0
 37 38  1  0  0  0  0
 39 38  1  0  0  0  0
 40 36  1  0  0  0  0
 40 39  1  0  0  0  0
M  END
>  <minimizedAffinity>
-4.97041225

>  <minimizedRMSD>
0.72781533

$$$$
