
 OpenBabel03252501353D

 21 22  0  0  0  0  0  0  0  0999 V2000
   45.5930   34.7500   43.8870 C   0  0  0  0  0  0  0  0  0  0  0  0
   45.2880   34.5080   45.2020 C   0  0  0  0  0  0  0  0  0  0  0  0
   46.0810   33.5540   45.8380 C   0  0  0  0  0  0  0  0  0  0  0  0
   47.0550   32.9610   45.1310 N   0  0  0  0  0  0  0  0  0  0  0  0
   47.3170   33.2300   43.8430 C   0  0  0  0  0  0  0  0  0  0  0  0
   46.5680   34.1540   43.1890 N   0  0  0  0  0  0  0  0  0  0  0  0
   45.8450   33.3600   46.8760 H   0  0  0  0  0  0  0  0  0  0  0  0
   48.1230   32.7080   43.3400 H   0  0  0  0  0  0  0  0  0  0  0  0
   43.9530   34.9900   42.2280 C   0  0  0  0  0  0  0  0  0  0  0  0
   43.9820   33.7300   42.4320 O   0  0  0  0  0  0  0  0  0  0  0  0
   44.8870   35.7060   43.0410 N   0  0  0  0  0  0  0  0  0  0  0  0
   44.9870   36.7210   42.9850 H   0  0  0  0  0  0  0  0  0  0  0  0
   43.1230   35.6760   41.3210 O   0  0  0  0  0  0  0  0  0  0  0  0
   42.0500   34.9630   40.7270 C   0  0  0  0  0  3  0  0  0  0  0  0
   40.8560   35.8680   40.5120 C   0  0  0  0  0  2  0  0  0  0  0  0
   40.5710   35.8080   39.0430 C   0  0  0  0  0  2  0  0  0  0  0  0
   41.9050   35.5510   38.3880 C   0  0  0  0  0  2  0  0  0  0  0  0
   42.5220   34.5570   39.3460 C   0  0  0  0  0  2  0  0  0  0  0  0
   44.2240   35.2320   45.7760 N   0  0  0  0  0  0  0  0  0  0  0  0
   43.2460   34.9370   45.5230 H   0  0  0  0  0  0  0  0  0  0  0  0
   44.7840   35.9280   46.3490 H   0  0  0  0  0  0  0  0  0  0  0  0
  1  2  1  0  0  0  0
  2 19  1  0  0  0  0
  2  3  2  0  0  0  0
  3  7  1  0  0  0  0
  4  3  1  0  0  0  0
  5  4  2  0  0  0  0
  6  5  1  0  0  0  0
  6  1  2  0  0  0  0
  8  5  1  0  0  0  0
  9 10  2  0  0  0  0
  9 11  1  0  0  0  0
 11  1  1  0  0  0  0
 12 11  1  0  0  0  0
 13  9  1  0  0  0  0
 14 13  1  0  0  0  0
 15 14  1  0  0  0  0
 16 15  1  0  0  0  0
 17 16  1  0  0  0  0
 17 18  1  0  0  0  0
 18 14  1  0  0  0  0
 19 21  1  0  0  0  0
 20 19  1  0  0  0  0
M  END
>  <minimizedAffinity>
-5.01004648

>  <minimizedRMSD>
1.166049

$$$$
