
 OpenBabel03242519413D

 25 27  0  0  1  0  0  0  0  0999 V2000
   48.0600   32.9340   41.8010 O   0  0  0  0  0  0  0  0  0  0  0  0
   47.1780   34.0830   41.2920 P   0  0  2  0  0  0  0  0  0  0  0  0
   45.5890   33.8690   41.8910 O   0  0  0  0  0  0  0  0  0  0  0  0
   44.3920   35.9110   44.6620 C   0  0  0  0  0  0  0  0  0  0  0  0
   44.6800   35.4830   43.3460 C   0  0  0  0  0  0  0  0  0  0  0  0
   45.3250   34.2530   43.1880 C   0  0  0  0  0  0  0  0  0  0  0  0
   45.6410   33.5360   44.2900 N   0  0  0  0  0  0  0  0  0  0  0  0
   45.3550   33.9720   45.5380 C   0  0  0  0  0  0  0  0  0  0  0  0
   44.7390   35.1410   45.7370 N   0  0  0  0  0  0  0  0  0  0  0  0
   43.8940   36.8590   44.8030 H   0  0  0  0  0  0  0  0  0  0  0  0
   44.3660   36.1620   42.5540 H   0  0  0  0  0  0  0  0  0  0  0  0
   45.6790   33.2730   46.2880 H   0  0  0  0  0  0  0  0  0  0  0  0
   47.1430   34.0510   39.6290 O   0  0  0  0  0  0  0  0  0  0  0  0
   46.6990   33.0630   38.7930 C   0  0  1  0  0  3  0  0  0  0  0  0
   46.0840   33.4210   37.6750 O   0  0  0  0  0  0  0  0  0  0  0  0
   46.4380   31.7160   38.2800 C   0  0  0  0  0  0  0  0  0  0  0  0
   47.2130   31.3990   37.0220 C   0  0  0  0  0  2  0  0  0  0  0  0
   48.5570   30.9630   37.5320 C   0  0  0  0  0  2  0  0  0  0  0  0
   48.4520   30.7790   38.9990 C   0  0  0  0  0  2  0  0  0  0  0  0
   46.9950   30.7040   39.2970 C   0  0  0  0  0  2  0  0  0  0  0  0
   47.7940   35.4830   41.9090 O   0  0  0  0  0  0  0  0  0  0  0  0
   49.0490   35.7930   41.4090 C   0  0  0  0  0  0  0  0  0  0  0  0
   49.4790   37.0620   41.7790 F   0  0  0  0  0  0  0  0  0  0  0  0
   49.9410   34.8250   41.7460 F   0  0  0  0  0  0  0  0  0  0  0  0
   48.9220   35.8260   40.0290 F   0  0  0  0  0  0  0  0  0  0  0  0
  2  1  2  1  0  0  0
  2  3  1  0  0  0  0
  2 21  1  0  0  0  0
  3  6  1  0  0  0  0
  4 10  1  0  0  0  0
  4  9  1  0  0  0  0
  5  4  2  0  0  0  0
  6  5  1  0  0  0  0
  6  7  2  0  0  0  0
  7  8  1  0  0  0  0
  8  9  2  0  0  0  0
  8 12  1  0  0  0  0
 11  5  1  0  0  0  0
 13  2  1  0  0  0  0
 14 13  1  6  0  0  0
 15 16  1  0  0  0  0
 15 14  1  0  0  0  0
 16 14  1  0  0  0  0
 16 20  1  0  0  0  0
 17 18  1  0  0  0  0
 17 16  1  0  0  0  0
 18 19  1  0  0  0  0
 19 20  1  0  0  0  0
 22 24  1  0  0  0  0
 22 23  1  0  0  0  0
 22 21  1  0  0  0  0
 25 22  1  0  0  0  0
M  END
>  <minimizedAffinity>
-4.83444595

>  <minimizedRMSD>
0.487591833

$$$$
