
 OpenBabel03242517123D

 43 46  0  0  1  0  0  0  0  0999 V2000
   37.0570   26.6650   41.3880 C   0  0  2  0  0  0  0  0  0  0  0  0
   37.5180   28.0540   41.1180 C   0  0  2  0  0  0  0  0  0  0  0  0
   38.1070   28.7130   42.3080 C   0  0  0  0  0  0  0  0  0  0  0  0
   37.2430   28.6620   43.5430 C   0  0  0  0  0  0  0  0  0  0  0  0
   36.4440   27.3990   43.6760 C   0  0  0  0  0  0  0  0  0  0  0  0
   37.0250   26.2750   42.8370 C   0  0  0  0  0  0  0  0  0  0  0  0
   36.0030   26.5550   40.9890 H   0  0  0  0  0  0  0  0  0  0  0  0
   38.3150   28.0150   40.3400 H   0  0  0  0  0  0  0  0  0  0  0  0
   38.2410   29.8030   42.0480 H   0  0  0  0  0  0  0  0  0  0  0  0
   39.1360   28.3390   42.4770 H   0  0  0  0  0  0  0  0  0  0  0  0
   36.6000   29.5730   43.5930 H   0  0  0  0  0  0  0  0  0  0  0  0
   37.9580   28.7700   44.4090 H   0  0  0  0  0  0  0  0  0  0  0  0
   36.5140   27.0520   44.7390 H   0  0  0  0  0  0  0  0  0  0  0  0
   35.3600   27.5500   43.4290 H   0  0  0  0  0  0  0  0  0  0  0  0
   37.9640   26.0080   43.2990 H   0  0  0  0  0  0  0  0  0  0  0  0
   36.3420   25.4040   42.9770 H   0  0  0  0  0  0  0  0  0  0  0  0
   36.5730   30.3470   40.6210 C   0  0  1  0  0  0  0  0  0  0  0  0
   36.3860   28.8760   40.5440 C   0  0  1  0  0  0  0  0  0  0  0  0
   36.2290   28.5190   39.2090 O   0  0  0  0  0  0  0  0  0  0  0  0
   36.7360   29.5440   38.4280 C   0  0  0  0  0  0  0  0  0  0  0  0
   36.2290   30.7610   39.1820 C   0  0  2  0  0  0  0  0  0  0  0  0
   37.6230   30.6450   40.8240 H   0  0  0  0  0  0  0  0  0  0  0  0
   35.4480   28.5750   41.0600 H   0  0  0  0  0  0  0  0  0  0  0  0
   36.3340   29.4820   37.4130 H   0  0  0  0  0  0  0  0  0  0  0  0
   37.8340   29.4810   38.4900 H   0  0  0  0  0  0  0  0  0  0  0  0
   35.1470   30.8710   39.0230 H   0  0  0  0  0  0  0  0  0  0  0  0
   35.6900   30.9770   41.4690 O   0  0  0  0  0  0  0  0  0  0  0  0
   36.0750   31.4310   42.2390 H   0  0  0  0  0  0  0  0  0  0  0  0
   36.9390   31.9080   38.8590 O   0  0  0  0  0  0  0  0  0  0  0  0
   38.1350   31.9720   39.5270 C   0  0  0  0  0  3  0  0  0  0  0  0
   39.3350   31.9490   38.6030 C   0  0  0  0  0  2  0  0  0  0  0  0
   40.4310   32.2200   39.6430 C   0  0  0  0  0  2  0  0  0  0  0  0
   39.8400   33.3830   40.3990 C   0  0  0  0  0  2  0  0  0  0  0  0
   38.3290   33.3220   40.1940 C   0  0  0  0  0  2  0  0  0  0  0  0
   37.8440   25.6560   40.6480 C   0  0  0  0  0  0  0  0  0  0  0  0
   37.8360   24.3780   41.2100 C   0  0  0  0  0  0  0  0  0  0  0  0
   38.5450   23.3330   40.5960 C   0  0  0  0  0  0  0  0  0  0  0  0
   39.2260   23.6730   39.4310 N   0  0  0  0  0  0  0  0  0  0  0  0
   39.2070   24.9250   38.9220 C   0  0  0  0  0  0  0  0  0  0  0  0
   38.5170   25.9230   39.5250 N   0  0  0  0  0  0  0  0  0  0  0  0
   37.3700   23.9800   42.0950 H   0  0  0  0  0  0  0  0  0  0  0  0
   38.6120   22.3140   40.9320 H   0  0  0  0  0  0  0  0  0  0  0  0
   39.7700   25.0850   38.0110 H   0  0  0  0  0  0  0  0  0  0  0  0
  1  7  1  6  0  0  0
  1  6  1  0  0  0  0
  2  8  1  6  0  0  0
  2  1  1  0  0  0  0
  2  3  1  0  0  0  0
  3 10  1  0  0  0  0
  3  4  1  0  0  0  0
  4 11  1  0  0  0  0
  4  5  1  0  0  0  0
  4 12  1  0  0  0  0
  5 13  1  0  0  0  0
  6 16  1  0  0  0  0
  6 15  1  0  0  0  0
  6  5  1  0  0  0  0
  9  3  1  0  0  0  0
 14  5  1  0  0  0  0
 17 22  1  1  0  0  0
 17 27  1  0  0  0  0
 18 17  1  0  0  0  0
 18 23  1  1  0  0  0
 18  2  1  0  0  0  0
 19 18  1  0  0  0  0
 20 25  1  0  0  0  0
 20 21  1  0  0  0  0
 20 19  1  0  0  0  0
 21 26  1  6  0  0  0
 21 17  1  0  0  0  0
 24 20  1  0  0  0  0
 27 28  1  0  0  0  0
 29 21  1  0  0  0  0
 29 30  1  0  0  0  0
 30 34  1  0  0  0  0
 31 30  1  0  0  0  0
 31 32  1  0  0  0  0
 32 33  1  0  0  0  0
 34 33  1  0  0  0  0
 35 36  1  0  0  0  0
 35  1  1  0  0  0  0
 36 41  1  0  0  0  0
 37 42  1  0  0  0  0
 37 36  2  0  0  0  0
 38 37  1  0  0  0  0
 39 38  2  0  0  0  0
 39 40  1  0  0  0  0
 40 35  2  0  0  0  0
 43 39  1  0  0  0  0
M  END
>  <minimizedAffinity>
-6.04057646

$$$$

 OpenBabel03242517123D

 43 46  0  0  1  0  0  0  0  0999 V2000
   39.1280   28.2920   42.2410 C   0  0  2  0  0  0  0  0  0  0  0  0
   37.9510   29.1300   42.6000 C   0  0  2  0  0  0  0  0  0  0  0  0
   37.1230   28.5380   43.6790 C   0  0  0  0  0  0  0  0  0  0  0  0
   36.7140   27.1070   43.4400 C   0  0  0  0  0  0  0  0  0  0  0  0
   37.7470   26.2890   42.7230 C   0  0  0  0  0  0  0  0  0  0  0  0
   39.1280   26.9110   42.8280 C   0  0  0  0  0  0  0  0  0  0  0  0
   39.1540   28.1770   41.1150 H   0  0  0  0  0  0  0  0  0  0  0  0
   38.3200   30.1120   42.9740 H   0  0  0  0  0  0  0  0  0  0  0  0
   36.1730   29.1450   43.7340 H   0  0  0  0  0  0  0  0  0  0  0  0
   37.6120   28.6960   44.6600 H   0  0  0  0  0  0  0  0  0  0  0  0
   35.7240   27.0770   42.9250 H   0  0  0  0  0  0  0  0  0  0  0  0
   36.5140   26.6810   44.4650 H   0  0  0  0  0  0  0  0  0  0  0  0
   37.8220   25.2950   43.2350 H   0  0  0  0  0  0  0  0  0  0  0  0
   37.4820   26.1080   41.6480 H   0  0  0  0  0  0  0  0  0  0  0  0
   39.4260   26.8120   43.8620 H   0  0  0  0  0  0  0  0  0  0  0  0
   39.8070   26.2510   42.2370 H   0  0  0  0  0  0  0  0  0  0  0  0
   36.8860   30.8530   41.0850 C   0  0  1  0  0  0  0  0  0  0  0  0
   37.1200   29.4140   41.3690 C   0  0  1  0  0  0  0  0  0  0  0  0
   37.7630   28.8460   40.2750 O   0  0  0  0  0  0  0  0  0  0  0  0
   38.3420   29.8660   39.5390 C   0  0  0  0  0  0  0  0  0  0  0  0
   37.2470   30.9180   39.5930 C   0  0  2  0  0  0  0  0  0  0  0  0
   37.5750   31.5260   41.6360 H   0  0  0  0  0  0  0  0  0  0  0  0
   36.1520   28.8760   41.4750 H   0  0  0  0  0  0  0  0  0  0  0  0
   38.5490   29.5290   38.5200 H   0  0  0  0  0  0  0  0  0  0  0  0
   39.2280   30.2030   40.0990 H   0  0  0  0  0  0  0  0  0  0  0  0
   36.4120   30.6170   38.9440 H   0  0  0  0  0  0  0  0  0  0  0  0
   35.5720   31.2400   41.2230 O   0  0  0  0  0  0  0  0  0  0  0  0
   35.3840   31.9010   41.9120 H   0  0  0  0  0  0  0  0  0  0  0  0
   37.7270   32.1860   39.2990 O   0  0  0  0  0  0  0  0  0  0  0  0
   38.9900   32.3810   39.7950 C   0  0  0  0  0  3  0  0  0  0  0  0
   40.0220   32.6270   38.7150 C   0  0  0  0  0  2  0  0  0  0  0  0
   41.2160   32.9780   39.6140 C   0  0  0  0  0  2  0  0  0  0  0  0
   40.5890   33.9630   40.5670 C   0  0  0  0  0  2  0  0  0  0  0  0
   39.0890   33.6820   40.5710 C   0  0  0  0  0  2  0  0  0  0  0  0
   40.4090   28.9460   42.5800 C   0  0  0  0  0  0  0  0  0  0  0  0
   40.3820   30.3410   42.5540 C   0  0  0  0  0  0  0  0  0  0  0  0
   41.5390   31.0750   42.8600 C   0  0  0  0  0  0  0  0  0  0  0  0
   42.6630   30.3200   43.1770 N   0  0  0  0  0  0  0  0  0  0  0  0
   42.6450   28.9680   43.1890 C   0  0  0  0  0  0  0  0  0  0  0  0
   41.5210   28.2730   42.8920 N   0  0  0  0  0  0  0  0  0  0  0  0
   39.6020   31.0450   42.3220 H   0  0  0  0  0  0  0  0  0  0  0  0
   41.6390   32.1460   42.8740 H   0  0  0  0  0  0  0  0  0  0  0  0
   43.5740   28.4740   43.4490 H   0  0  0  0  0  0  0  0  0  0  0  0
  1  7  1  6  0  0  0
  1 35  1  0  0  0  0
  1  2  1  0  0  0  0
  1  6  1  0  0  0  0
  2  8  1  1  0  0  0
  2  3  1  0  0  0  0
  3  9  1  0  0  0  0
  3 10  1  0  0  0  0
  4  3  1  0  0  0  0
  4 12  1  0  0  0  0
  5  6  1  0  0  0  0
  5 13  1  0  0  0  0
  5  4  1  0  0  0  0
  6 15  1  0  0  0  0
 11  4  1  0  0  0  0
 14  5  1  0  0  0  0
 16  6  1  0  0  0  0
 17 27  1  0  0  0  0
 17 18  1  0  0  0  0
 17 22  1  1  0  0  0
 18 23  1  1  0  0  0
 18  2  1  0  0  0  0
 19 18  1  0  0  0  0
 20 21  1  0  0  0  0
 20 25  1  0  0  0  0
 20 19  1  0  0  0  0
 21 26  1  6  0  0  0
 21 17  1  0  0  0  0
 24 20  1  0  0  0  0
 27 28  1  0  0  0  0
 29 21  1  0  0  0  0
 29 30  1  0  0  0  0
 30 34  1  0  0  0  0
 31 32  1  0  0  0  0
 31 30  1  0  0  0  0
 32 33  1  0  0  0  0
 33 34  1  0  0  0  0
 35 40  1  0  0  0  0
 36 35  2  0  0  0  0
 36 37  1  0  0  0  0
 37 42  1  0  0  0  0
 37 38  2  0  0  0  0
 38 39  1  0  0  0  0
 39 43  1  0  0  0  0
 40 39  2  0  0  0  0
 41 36  1  0  0  0  0
M  END
>  <minimizedAffinity>
-5.98796606

$$$$

 OpenBabel03242517123D

 43 46  0  0  1  0  0  0  0  0999 V2000
   36.2190   27.4830   38.5340 C   0  0  2  0  0  0  0  0  0  0  0  0
   35.3540   28.4520   39.2610 C   0  0  2  0  0  0  0  0  0  0  0  0
   34.0800   28.7370   38.5560 C   0  0  0  0  0  0  0  0  0  0  0  0
   34.2420   29.1370   37.1110 C   0  0  0  0  0  0  0  0  0  0  0  0
   35.3740   28.4460   36.4100 C   0  0  0  0  0  0  0  0  0  0  0  0
   35.7880   27.1750   37.1300 C   0  0  0  0  0  0  0  0  0  0  0  0
   37.2640   27.9120   38.4760 H   0  0  0  0  0  0  0  0  0  0  0  0
   35.0870   28.0110   40.2490 H   0  0  0  0  0  0  0  0  0  0  0  0
   33.6010   29.6110   39.0860 H   0  0  0  0  0  0  0  0  0  0  0  0
   33.3710   27.9000   38.7030 H   0  0  0  0  0  0  0  0  0  0  0  0
   34.3140   30.2480   37.0320 H   0  0  0  0  0  0  0  0  0  0  0  0
   33.2580   28.8800   36.6220 H   0  0  0  0  0  0  0  0  0  0  0  0
   35.0120   28.1200   35.4010 H   0  0  0  0  0  0  0  0  0  0  0  0
   36.2610   29.1170   36.2630 H   0  0  0  0  0  0  0  0  0  0  0  0
   34.9730   26.4770   37.0030 H   0  0  0  0  0  0  0  0  0  0  0  0
   36.6510   26.7640   36.5540 H   0  0  0  0  0  0  0  0  0  0  0  0
   36.2880   30.0550   40.9800 C   0  0  1  0  0  0  0  0  0  0  0  0
   36.1200   29.7250   39.5410 C   0  0  1  0  0  0  0  0  0  0  0  0
   37.3790   29.6050   38.9640 O   0  0  0  0  0  0  0  0  0  0  0  0
   38.2980   29.3910   39.9780 C   0  0  0  0  0  0  0  0  0  0  0  0
   37.7930   30.3590   41.0340 C   0  0  2  0  0  0  0  0  0  0  0  0
   36.0850   29.1960   41.6530 H   0  0  0  0  0  0  0  0  0  0  0  0
   35.6100   30.5570   39.0080 H   0  0  0  0  0  0  0  0  0  0  0  0
   39.3060   29.6340   39.6340 H   0  0  0  0  0  0  0  0  0  0  0  0
   38.1680   28.3500   40.3140 H   0  0  0  0  0  0  0  0  0  0  0  0
   38.0260   31.3900   40.7340 H   0  0  0  0  0  0  0  0  0  0  0  0
   35.6100   31.1860   41.3740 O   0  0  0  0  0  0  0  0  0  0  0  0
   34.9110   31.0640   42.0400 H   0  0  0  0  0  0  0  0  0  0  0  0
   38.2720   30.0460   42.2980 O   0  0  0  0  0  0  0  0  0  0  0  0
   38.7800   28.7740   42.3510 C   0  0  0  0  0  3  0  0  0  0  0  0
   40.2110   28.7240   42.8450 C   0  0  0  0  0  2  0  0  0  0  0  0
   40.3640   27.2010   42.9510 C   0  0  0  0  0  2  0  0  0  0  0  0
   39.0980   26.8250   43.6770 C   0  0  0  0  0  2  0  0  0  0  0  0
   38.0920   27.9430   43.4200 C   0  0  0  0  0  2  0  0  0  0  0  0
   36.3770   26.2090   39.2660 C   0  0  0  0  0  0  0  0  0  0  0  0
   35.9540   25.0750   38.5700 C   0  0  0  0  0  0  0  0  0  0  0  0
   36.0560   23.8050   39.1610 C   0  0  0  0  0  0  0  0  0  0  0  0
   36.5940   23.7820   40.4440 N   0  0  0  0  0  0  0  0  0  0  0  0
   36.9910   24.9060   41.0810 C   0  0  0  0  0  0  0  0  0  0  0  0
   36.8870   26.1240   40.4990 N   0  0  0  0  0  0  0  0  0  0  0  0
   35.5180   24.9460   37.5940 H   0  0  0  0  0  0  0  0  0  0  0  0
   35.7660   22.8660   38.7250 H   0  0  0  0  0  0  0  0  0  0  0  0
   37.3960   24.7780   42.0780 H   0  0  0  0  0  0  0  0  0  0  0  0
  1  7  1  6  0  0  0
  1  2  1  0  0  0  0
  1 35  1  0  0  0  0
  2 18  1  0  0  0  0
  2  8  1  1  0  0  0
  3 10  1  0  0  0  0
  3  9  1  0  0  0  0
  3  2  1  0  0  0  0
  4  3  1  0  0  0  0
  5  4  1  0  0  0  0
  5  6  1  0  0  0  0
  6  1  1  0  0  0  0
 11  4  1  0  0  0  0
 12  4  1  0  0  0  0
 13  5  1  0  0  0  0
 14  5  1  0  0  0  0
 15  6  1  0  0  0  0
 16  6  1  0  0  0  0
 17 21  1  0  0  0  0
 17 27  1  0  0  0  0
 17 22  1  1  0  0  0
 18 23  1  6  0  0  0
 18 17  1  0  0  0  0
 19 18  1  0  0  0  0
 19 20  1  0  0  0  0
 20 25  1  0  0  0  0
 20 21  1  0  0  0  0
 21 26  1  6  0  0  0
 21 29  1  0  0  0  0
 24 20  1  0  0  0  0
 27 28  1  0  0  0  0
 29 30  1  0  0  0  0
 30 31  1  0  0  0  0
 30 34  1  0  0  0  0
 31 32  1  0  0  0  0
 32 33  1  0  0  0  0
 34 33  1  0  0  0  0
 35 40  1  0  0  0  0
 36 37  1  0  0  0  0
 36 35  2  0  0  0  0
 37 38  2  0  0  0  0
 38 39  1  0  0  0  0
 39 43  1  0  0  0  0
 40 39  2  0  0  0  0
 41 36  1  0  0  0  0
 42 37  1  0  0  0  0
M  END
>  <minimizedAffinity>
-5.94717932

$$$$

 OpenBabel03242517123D

 43 46  0  0  1  0  0  0  0  0999 V2000
   39.7340   31.9470   39.8650 C   0  0  2  0  0  0  0  0  0  0  0  0
   38.3790   31.3650   39.6610 C   0  0  2  0  0  0  0  0  0  0  0  0
   37.4480   32.2880   38.9660 C   0  0  0  0  0  0  0  0  0  0  0  0
   37.3580   33.6630   39.5780 C   0  0  0  0  0  0  0  0  0  0  0  0
   38.6510   34.1600   40.1550 C   0  0  0  0  0  0  0  0  0  0  0  0
   39.8450   33.4170   39.5810 C   0  0  0  0  0  0  0  0  0  0  0  0
   40.0290   31.7930   40.9470 H   0  0  0  0  0  0  0  0  0  0  0  0
   38.4790   30.4600   39.0200 H   0  0  0  0  0  0  0  0  0  0  0  0
   36.4190   31.8300   39.0370 H   0  0  0  0  0  0  0  0  0  0  0  0
   37.6720   32.3050   37.8820 H   0  0  0  0  0  0  0  0  0  0  0  0
   36.5280   33.6920   40.3240 H   0  0  0  0  0  0  0  0  0  0  0  0
   37.0130   34.3370   38.7420 H   0  0  0  0  0  0  0  0  0  0  0  0
   38.7830   35.2290   39.8460 H   0  0  0  0  0  0  0  0  0  0  0  0
   38.6660   34.1160   41.2750 H   0  0  0  0  0  0  0  0  0  0  0  0
   39.9180   33.7170   38.5460 H   0  0  0  0  0  0  0  0  0  0  0  0
   40.7420   33.8330   40.0970 H   0  0  0  0  0  0  0  0  0  0  0  0
   36.5750   30.0800   40.8820 C   0  0  1  0  0  0  0  0  0  0  0  0
   37.8060   30.9050   40.9820 C   0  0  1  0  0  0  0  0  0  0  0  0
   38.7820   30.1660   41.6410 O   0  0  0  0  0  0  0  0  0  0  0  0
   38.4320   28.8280   41.5650 C   0  0  0  0  0  0  0  0  0  0  0  0
   36.9350   28.9070   41.8060 C   0  0  2  0  0  0  0  0  0  0  0  0
   36.4010   29.6750   39.8630 H   0  0  0  0  0  0  0  0  0  0  0  0
   37.6210   31.8060   41.6090 H   0  0  0  0  0  0  0  0  0  0  0  0
   38.9520   28.2560   42.3370 H   0  0  0  0  0  0  0  0  0  0  0  0
   38.6400   28.5000   40.5340 H   0  0  0  0  0  0  0  0  0  0  0  0
   36.7420   29.1300   42.8650 H   0  0  0  0  0  0  0  0  0  0  0  0
   35.4510   30.6930   41.3880 O   0  0  0  0  0  0  0  0  0  0  0  0
   34.7330   30.8730   40.7570 H   0  0  0  0  0  0  0  0  0  0  0  0
   36.2760   27.7670   41.3690 O   0  0  0  0  0  0  0  0  0  0  0  0
   37.1170   26.6870   41.2990 C   0  0  0  0  0  3  0  0  0  0  0  0
   36.8560   25.6600   42.3810 C   0  0  0  0  0  2  0  0  0  0  0  0
   37.8100   24.5620   41.8900 C   0  0  0  0  0  2  0  0  0  0  0  0
   37.4620   24.5030   40.4240 C   0  0  0  0  0  2  0  0  0  0  0  0
   36.8510   25.8520   40.0590 C   0  0  0  0  0  2  0  0  0  0  0  0
   40.7740   31.2400   39.0900 C   0  0  0  0  0  0  0  0  0  0  0  0
   40.9860   31.7360   37.8030 C   0  0  0  0  0  0  0  0  0  0  0  0
   41.9510   31.1480   36.9700 C   0  0  0  0  0  0  0  0  0  0  0  0
   42.6460   30.0750   37.5200 N   0  0  0  0  0  0  0  0  0  0  0  0
   42.4070   29.6260   38.7730 C   0  0  0  0  0  0  0  0  0  0  0  0
   41.4730   30.2040   39.5650 N   0  0  0  0  0  0  0  0  0  0  0  0
   40.5260   32.5380   37.2510 H   0  0  0  0  0  0  0  0  0  0  0  0
   42.2030   31.4410   35.9660 H   0  0  0  0  0  0  0  0  0  0  0  0
   43.0020   28.7840   39.1060 H   0  0  0  0  0  0  0  0  0  0  0  0
  1  7  1  1  0  0  0
  2  8  1  6  0  0  0
  2  1  1  0  0  0  0
  2 18  1  0  0  0  0
  3  9  1  0  0  0  0
  3  4  1  0  0  0  0
  3  2  1  0  0  0  0
  4  5  1  0  0  0  0
  4 11  1  0  0  0  0
  5 14  1  0  0  0  0
  6  1  1  0  0  0  0
  6 16  1  0  0  0  0
  6  5  1  0  0  0  0
 10  3  1  0  0  0  0
 12  4  1  0  0  0  0
 13  5  1  0  0  0  0
 15  6  1  0  0  0  0
 17 22  1  6  0  0  0
 17 18  1  0  0  0  0
 17 27  1  0  0  0  0
 17 21  1  0  0  0  0
 18 23  1  1  0  0  0
 18 19  1  0  0  0  0
 20 19  1  0  0  0  0
 20 21  1  0  0  0  0
 20 24  1  0  0  0  0
 21 26  1  1  0  0  0
 25 20  1  0  0  0  0
 28 27  1  0  0  0  0
 29 21  1  0  0  0  0
 30 29  1  0  0  0  0
 30 31  1  0  0  0  0
 32 31  1  0  0  0  0
 33 32  1  0  0  0  0
 34 33  1  0  0  0  0
 34 30  1  0  0  0  0
 35 40  1  0  0  0  0
 35  1  1  0  0  0  0
 36 35  2  0  0  0  0
 37 38  2  0  0  0  0
 37 36  1  0  0  0  0
 38 39  1  0  0  0  0
 39 43  1  0  0  0  0
 39 40  2  0  0  0  0
 41 36  1  0  0  0  0
 42 37  1  0  0  0  0
M  END
>  <minimizedAffinity>
-5.91991377

$$$$

 OpenBabel03242517123D

 43 46  0  0  1  0  0  0  0  0999 V2000
   38.3610   27.2270   41.2480 C   0  0  2  0  0  0  0  0  0  0  0  0
   37.9470   28.5850   41.6960 C   0  0  2  0  0  0  0  0  0  0  0  0
   37.6710   28.6590   43.1510 C   0  0  0  0  0  0  0  0  0  0  0  0
   36.7170   27.6090   43.6610 C   0  0  0  0  0  0  0  0  0  0  0  0
   36.8370   26.2850   42.9640 C   0  0  0  0  0  0  0  0  0  0  0  0
   38.1770   26.1390   42.2650 C   0  0  0  0  0  0  0  0  0  0  0  0
   37.7430   26.9460   40.3430 H   0  0  0  0  0  0  0  0  0  0  0  0
   38.7810   29.2930   41.4860 H   0  0  0  0  0  0  0  0  0  0  0  0
   37.1880   29.6610   43.3430 H   0  0  0  0  0  0  0  0  0  0  0  0
   38.6240   28.6970   43.7150 H   0  0  0  0  0  0  0  0  0  0  0  0
   35.6730   28.0020   43.6360 H   0  0  0  0  0  0  0  0  0  0  0  0
   36.9550   27.5010   44.7580 H   0  0  0  0  0  0  0  0  0  0  0  0
   36.8110   25.4780   43.7420 H   0  0  0  0  0  0  0  0  0  0  0  0
   35.9990   26.1030   42.2420 H   0  0  0  0  0  0  0  0  0  0  0  0
   38.9190   26.0610   43.0470 H   0  0  0  0  0  0  0  0  0  0  0  0
   38.1490   25.1480   41.7540 H   0  0  0  0  0  0  0  0  0  0  0  0
   36.6460   30.5310   40.7370 C   0  0  1  0  0  0  0  0  0  0  0  0
   36.7570   29.0580   40.8900 C   0  0  1  0  0  0  0  0  0  0  0  0
   36.8390   28.4860   39.6260 O   0  0  0  0  0  0  0  0  0  0  0  0
   37.2330   29.4690   38.7340 C   0  0  0  0  0  0  0  0  0  0  0  0
   36.4100   30.6490   39.2230 C   0  0  2  0  0  0  0  0  0  0  0  0
   37.5850   31.0690   40.9820 H   0  0  0  0  0  0  0  0  0  0  0  0
   35.8380   28.6450   41.3610 H   0  0  0  0  0  0  0  0  0  0  0  0
   36.9800   29.1770   37.7110 H   0  0  0  0  0  0  0  0  0  0  0  0
   38.3060   29.6490   38.9070 H   0  0  0  0  0  0  0  0  0  0  0  0
   35.3560   30.5050   38.9490 H   0  0  0  0  0  0  0  0  0  0  0  0
   35.5600   31.0770   41.3820 O   0  0  0  0  0  0  0  0  0  0  0  0
   35.7510   31.7090   42.0970 H   0  0  0  0  0  0  0  0  0  0  0  0
   36.9210   31.8600   38.7790 O   0  0  0  0  0  0  0  0  0  0  0  0
   37.9600   32.2940   39.5610 C   0  0  0  0  0  3  0  0  0  0  0  0
   39.2850   32.3220   38.8280 C   0  0  0  0  0  2  0  0  0  0  0  0
   40.1300   33.0090   39.9100 C   0  0  0  0  0  2  0  0  0  0  0  0
   39.2370   34.1590   40.2970 C   0  0  0  0  0  2  0  0  0  0  0  0
   37.8130   33.7610   39.9200 C   0  0  0  0  0  2  0  0  0  0  0  0
   39.7590   27.1920   40.7720 C   0  0  0  0  0  0  0  0  0  0  0  0
   40.2730   25.9140   40.5510 C   0  0  0  0  0  0  0  0  0  0  0  0
   41.5910   25.7520   40.0940 C   0  0  0  0  0  0  0  0  0  0  0  0
   42.3050   26.9280   39.8920 N   0  0  0  0  0  0  0  0  0  0  0  0
   41.7680   28.1480   40.1200 C   0  0  0  0  0  0  0  0  0  0  0  0
   40.4940   28.2880   40.5600 N   0  0  0  0  0  0  0  0  0  0  0  0
   39.8470   24.9320   40.6700 H   0  0  0  0  0  0  0  0  0  0  0  0
   42.0930   24.8230   39.8880 H   0  0  0  0  0  0  0  0  0  0  0  0
   42.4080   29.0010   39.9320 H   0  0  0  0  0  0  0  0  0  0  0  0
  1  7  1  6  0  0  0
  1  2  1  0  0  0  0
  1  6  1  0  0  0  0
  2  8  1  6  0  0  0
  2  3  1  0  0  0  0
  3  9  1  0  0  0  0
  3  4  1  0  0  0  0
  3 10  1  0  0  0  0
  4 12  1  0  0  0  0
  5  4  1  0  0  0  0
  5 13  1  0  0  0  0
  6  5  1  0  0  0  0
  6 15  1  0  0  0  0
 11  4  1  0  0  0  0
 14  5  1  0  0  0  0
 16  6  1  0  0  0  0
 17 18  1  0  0  0  0
 17 22  1  1  0  0  0
 17 27  1  0  0  0  0
 18 23  1  1  0  0  0
 18  2  1  0  0  0  0
 19 18  1  0  0  0  0
 20 25  1  0  0  0  0
 20 21  1  0  0  0  0
 20 19  1  0  0  0  0
 21 26  1  6  0  0  0
 21 17  1  0  0  0  0
 24 20  1  0  0  0  0
 27 28  1  0  0  0  0
 29 21  1  0  0  0  0
 29 30  1  0  0  0  0
 30 34  1  0  0  0  0
 31 30  1  0  0  0  0
 31 32  1  0  0  0  0
 32 33  1  0  0  0  0
 34 33  1  0  0  0  0
 35  1  1  0  0  0  0
 36 41  1  0  0  0  0
 36 35  2  0  0  0  0
 37 36  1  0  0  0  0
 38 37  2  0  0  0  0
 38 39  1  0  0  0  0
 39 40  2  0  0  0  0
 40 35  1  0  0  0  0
 42 37  1  0  0  0  0
 43 39  1  0  0  0  0
M  END
>  <minimizedAffinity>
-5.82691765

$$$$

 OpenBabel03242517123D

 43 46  0  0  1  0  0  0  0  0999 V2000
   37.2360   30.3120   38.7170 C   0  0  2  0  0  0  0  0  0  0  0  0
   36.7790   30.4990   40.1210 C   0  0  2  0  0  0  0  0  0  0  0  0
   36.6210   31.9260   40.4960 C   0  0  0  0  0  0  0  0  0  0  0  0
   37.8230   32.7860   40.2010 C   0  0  0  0  0  0  0  0  0  0  0  0
   38.5650   32.3920   38.9570 C   0  0  0  0  0  0  0  0  0  0  0  0
   37.7000   31.5610   38.0270 C   0  0  0  0  0  0  0  0  0  0  0  0
   38.1070   29.5890   38.7190 H   0  0  0  0  0  0  0  0  0  0  0  0
   35.7790   30.0210   40.2310 H   0  0  0  0  0  0  0  0  0  0  0  0
   36.4630   31.9560   41.6130 H   0  0  0  0  0  0  0  0  0  0  0  0
   35.6800   32.3260   40.0700 H   0  0  0  0  0  0  0  0  0  0  0  0
   38.4910   32.8230   41.0940 H   0  0  0  0  0  0  0  0  0  0  0  0
   37.4190   33.8350   40.1040 H   0  0  0  0  0  0  0  0  0  0  0  0
   38.8130   33.3260   38.3890 H   0  0  0  0  0  0  0  0  0  0  0  0
   39.5240   31.8550   39.1820 H   0  0  0  0  0  0  0  0  0  0  0  0
   36.9400   32.2280   37.6450 H   0  0  0  0  0  0  0  0  0  0  0  0
   38.3510   31.2930   37.1610 H   0  0  0  0  0  0  0  0  0  0  0  0
   37.0570   28.8270   41.9980 C   0  0  1  0  0  0  0  0  0  0  0  0
   37.7130   29.7850   41.0720 C   0  0  1  0  0  0  0  0  0  0  0  0
   38.6530   29.0960   40.3150 O   0  0  0  0  0  0  0  0  0  0  0  0
   38.3400   27.7480   40.3630 C   0  0  0  0  0  0  0  0  0  0  0  0
   37.9560   27.5930   41.8250 C   0  0  2  0  0  0  0  0  0  0  0  0
   36.0280   28.5510   41.6870 H   0  0  0  0  0  0  0  0  0  0  0  0
   38.2760   30.5560   41.6430 H   0  0  0  0  0  0  0  0  0  0  0  0
   39.2110   27.1460   40.0930 H   0  0  0  0  0  0  0  0  0  0  0  0
   37.4620   27.6000   39.7160 H   0  0  0  0  0  0  0  0  0  0  0  0
   38.8570   27.6380   42.4520 H   0  0  0  0  0  0  0  0  0  0  0  0
   37.1070   29.2090   43.3200 O   0  0  0  0  0  0  0  0  0  0  0  0
   36.2530   29.3790   43.7560 H   0  0  0  0  0  0  0  0  0  0  0  0
   37.2020   26.4500   42.0470 O   0  0  0  0  0  0  0  0  0  0  0  0
   37.6230   25.4020   41.2690 C   0  0  0  0  0  3  0  0  0  0  0  0
   38.3860   24.3520   42.0490 C   0  0  0  0  0  2  0  0  0  0  0  0
   38.5200   23.2970   40.9420 C   0  0  0  0  0  2  0  0  0  0  0  0
   37.1100   23.2450   40.4120 C   0  0  0  0  0  2  0  0  0  0  0  0
   36.4530   24.5750   40.7670 C   0  0  0  0  0  2  0  0  0  0  0  0
   36.2120   29.6620   37.8720 C   0  0  0  0  0  0  0  0  0  0  0  0
   35.1410   29.1040   38.5710 C   0  0  0  0  0  0  0  0  0  0  0  0
   34.1040   28.4610   37.8780 C   0  0  0  0  0  0  0  0  0  0  0  0
   34.2350   28.4320   36.4930 N   0  0  0  0  0  0  0  0  0  0  0  0
   35.2910   28.9850   35.8560 C   0  0  0  0  0  0  0  0  0  0  0  0
   36.2850   29.6030   36.5390 N   0  0  0  0  0  0  0  0  0  0  0  0
   34.9160   29.0440   39.6230 H   0  0  0  0  0  0  0  0  0  0  0  0
   33.2320   27.9970   38.3050 H   0  0  0  0  0  0  0  0  0  0  0  0
   35.2990   28.9070   34.7750 H   0  0  0  0  0  0  0  0  0  0  0  0
  1  7  1  1  0  0  0
  1  2  1  0  0  0  0
  2  8  1  1  0  0  0
  2  3  1  0  0  0  0
  2 18  1  0  0  0  0
  3  9  1  0  0  0  0
  4  3  1  0  0  0  0
  4 11  1  0  0  0  0
  5 14  1  0  0  0  0
  5  4  1  0  0  0  0
  6  1  1  0  0  0  0
  6  5  1  0  0  0  0
 10  3  1  0  0  0  0
 12  4  1  0  0  0  0
 13  5  1  0  0  0  0
 15  6  1  0  0  0  0
 16  6  1  0  0  0  0
 17 22  1  6  0  0  0
 17 27  1  0  0  0  0
 18 23  1  1  0  0  0
 18 17  1  0  0  0  0
 19 20  1  0  0  0  0
 19 18  1  0  0  0  0
 20 21  1  0  0  0  0
 21 17  1  0  0  0  0
 21 29  1  0  0  0  0
 21 26  1  1  0  0  0
 24 20  1  0  0  0  0
 25 20  1  0  0  0  0
 27 28  1  0  0  0  0
 30 29  1  0  0  0  0
 30 31  1  0  0  0  0
 32 31  1  0  0  0  0
 33 34  1  0  0  0  0
 33 32  1  0  0  0  0
 34 30  1  0  0  0  0
 35 36  1  0  0  0  0
 35  1  1  0  0  0  0
 36 41  1  0  0  0  0
 37 42  1  0  0  0  0
 37 36  2  0  0  0  0
 38 37  1  0  0  0  0
 39 38  2  0  0  0  0
 39 40  1  0  0  0  0
 40 35  2  0  0  0  0
 43 39  1  0  0  0  0
M  END
>  <minimizedAffinity>
-5.75100136

$$$$

 OpenBabel03242517123D

 43 46  0  0  1  0  0  0  0  0999 V2000
   36.5460   28.7800   41.3080 C   0  0  2  0  0  0  0  0  0  0  0  0
   37.9010   29.3570   41.0900 C   0  0  2  0  0  0  0  0  0  0  0  0
   38.9800   28.5690   41.7340 C   0  0  0  0  0  0  0  0  0  0  0  0
   38.7500   28.2710   43.1940 C   0  0  0  0  0  0  0  0  0  0  0  0
   37.3100   28.0450   43.5510 C   0  0  0  0  0  0  0  0  0  0  0  0
   36.4790   27.6850   42.3320 C   0  0  0  0  0  0  0  0  0  0  0  0
   35.8590   29.6080   41.6590 H   0  0  0  0  0  0  0  0  0  0  0  0
   38.1090   29.3600   39.9950 H   0  0  0  0  0  0  0  0  0  0  0  0
   39.9210   29.1880   41.6710 H   0  0  0  0  0  0  0  0  0  0  0  0
   39.1990   27.6660   41.1310 H   0  0  0  0  0  0  0  0  0  0  0  0
   39.2170   29.0670   43.8210 H   0  0  0  0  0  0  0  0  0  0  0  0
   39.3590   27.3460   43.4060 H   0  0  0  0  0  0  0  0  0  0  0  0
   37.2540   27.1550   44.2300 H   0  0  0  0  0  0  0  0  0  0  0  0
   36.8580   28.9210   44.0860 H   0  0  0  0  0  0  0  0  0  0  0  0
   36.8020   26.7000   42.0260 H   0  0  0  0  0  0  0  0  0  0  0  0
   35.4310   27.5760   42.6980 H   0  0  0  0  0  0  0  0  0  0  0  0
   39.1910   31.5270   41.2440 C   0  0  1  0  0  0  0  0  0  0  0  0
   37.9320   30.7990   41.5450 C   0  0  1  0  0  0  0  0  0  0  0  0
   36.8780   31.4660   40.9330 O   0  0  0  0  0  0  0  0  0  0  0  0
   37.3990   32.2680   39.9310 C   0  0  0  0  0  0  0  0  0  0  0  0
   38.6390   32.8160   40.6170 C   0  0  2  0  0  0  0  0  0  0  0  0
   39.8220   31.0170   40.4870 H   0  0  0  0  0  0  0  0  0  0  0  0
   37.7220   30.8190   42.6370 H   0  0  0  0  0  0  0  0  0  0  0  0
   36.6870   33.0520   39.6630 H   0  0  0  0  0  0  0  0  0  0  0  0
   37.6810   31.6010   39.1010 H   0  0  0  0  0  0  0  0  0  0  0  0
   38.3470   33.5600   41.3710 H   0  0  0  0  0  0  0  0  0  0  0  0
   39.9150   31.8730   42.3630 O   0  0  0  0  0  0  0  0  0  0  0  0
   40.7990   31.4770   42.4490 H   0  0  0  0  0  0  0  0  0  0  0  0
   39.5630   33.3080   39.7070 O   0  0  0  0  0  0  0  0  0  0  0  0
   40.3530   32.3120   39.1920 C   0  0  0  0  0  3  0  0  0  0  0  0
   40.2010   32.1460   37.6950 C   0  0  0  0  0  2  0  0  0  0  0  0
   41.3240   31.1260   37.4620 C   0  0  0  0  0  2  0  0  0  0  0  0
   42.4560   31.7500   38.2360 C   0  0  0  0  0  2  0  0  0  0  0  0
   41.8260   32.6660   39.2810 C   0  0  0  0  0  2  0  0  0  0  0  0
   35.9330   28.2900   40.0560 C   0  0  0  0  0  0  0  0  0  0  0  0
   34.8950   29.0810   39.5620 C   0  0  0  0  0  0  0  0  0  0  0  0
   34.2350   28.7200   38.3760 C   0  0  0  0  0  0  0  0  0  0  0  0
   34.6900   27.5540   37.7680 N   0  0  0  0  0  0  0  0  0  0  0  0
   35.7000   26.8170   38.2830 C   0  0  0  0  0  0  0  0  0  0  0  0
   36.3270   27.1790   39.4270 N   0  0  0  0  0  0  0  0  0  0  0  0
   34.4400   29.9870   39.9240 H   0  0  0  0  0  0  0  0  0  0  0  0
   33.4280   29.2470   37.9000 H   0  0  0  0  0  0  0  0  0  0  0  0
   35.9770   25.9260   37.7320 H   0  0  0  0  0  0  0  0  0  0  0  0
  1  7  1  1  0  0  0
  1  6  1  0  0  0  0
  2  8  1  6  0  0  0
  2  1  1  0  0  0  0
  2 18  1  0  0  0  0
  2  3  1  0  0  0  0
  3  4  1  0  0  0  0
  4 12  1  0  0  0  0
  4  5  1  0  0  0  0
  4 11  1  0  0  0  0
  5 14  1  0  0  0  0
  5 13  1  0  0  0  0
  6 16  1  0  0  0  0
  6  5  1  0  0  0  0
  9  3  1  0  0  0  0
 10  3  1  0  0  0  0
 15  6  1  0  0  0  0
 17 22  1  6  0  0  0
 17 18  1  0  0  0  0
 17 27  1  0  0  0  0
 18 23  1  1  0  0  0
 19 18  1  0  0  0  0
 20 21  1  0  0  0  0
 20 19  1  0  0  0  0
 21 17  1  0  0  0  0
 21 26  1  1  0  0  0
 24 20  1  0  0  0  0
 25 20  1  0  0  0  0
 27 28  1  0  0  0  0
 29 21  1  0  0  0  0
 30 34  1  0  0  0  0
 30 29  1  0  0  0  0
 31 30  1  0  0  0  0
 32 31  1  0  0  0  0
 32 33  1  0  0  0  0
 33 34  1  0  0  0  0
 35  1  1  0  0  0  0
 36 41  1  0  0  0  0
 36 35  1  0  0  0  0
 37 36  2  0  0  0  0
 38 39  2  0  0  0  0
 38 37  1  0  0  0  0
 39 40  1  0  0  0  0
 40 35  2  0  0  0  0
 42 37  1  0  0  0  0
 43 39  1  0  0  0  0
M  END
>  <minimizedAffinity>
-5.71657658

$$$$

 OpenBabel03242517123D

 43 46  0  0  1  0  0  0  0  0999 V2000
   37.1550   28.0890   40.0660 C   0  0  2  0  0  0  0  0  0  0  0  0
   36.5510   29.3840   40.4810 C   0  0  2  0  0  0  0  0  0  0  0  0
   35.0730   29.4050   40.3520 C   0  0  0  0  0  0  0  0  0  0  0  0
   34.5580   28.9770   39.0010 C   0  0  0  0  0  0  0  0  0  0  0  0
   35.3750   27.9010   38.3490 C   0  0  0  0  0  0  0  0  0  0  0  0
   36.2220   27.1490   39.3600 C   0  0  0  0  0  0  0  0  0  0  0  0
   38.0110   28.3050   39.3570 H   0  0  0  0  0  0  0  0  0  0  0  0
   36.7850   29.5520   41.5570 H   0  0  0  0  0  0  0  0  0  0  0  0
   34.7450   30.4740   40.5040 H   0  0  0  0  0  0  0  0  0  0  0  0
   34.6130   28.8490   41.1930 H   0  0  0  0  0  0  0  0  0  0  0  0
   34.4370   29.8690   38.3420 H   0  0  0  0  0  0  0  0  0  0  0  0
   33.5050   28.6160   39.1870 H   0  0  0  0  0  0  0  0  0  0  0  0
   34.6720   27.1420   37.9180 H   0  0  0  0  0  0  0  0  0  0  0  0
   36.0170   28.2940   37.5180 H   0  0  0  0  0  0  0  0  0  0  0  0
   35.5330   26.5830   39.9700 H   0  0  0  0  0  0  0  0  0  0  0  0
   36.8110   26.4050   38.7720 H   0  0  0  0  0  0  0  0  0  0  0  0
   37.6090   31.6810   40.5370 C   0  0  1  0  0  0  0  0  0  0  0  0
   37.1810   30.5230   39.7110 C   0  0  1  0  0  0  0  0  0  0  0  0
   38.2910   30.0250   39.0380 O   0  0  0  0  0  0  0  0  0  0  0  0
   39.4270   30.4680   39.6950 C   0  0  0  0  0  0  0  0  0  0  0  0
   39.0360   31.9010   40.0120 C   0  0  2  0  0  0  0  0  0  0  0  0
   37.6730   31.4460   41.6210 H   0  0  0  0  0  0  0  0  0  0  0  0
   36.4610   30.8480   38.9280 H   0  0  0  0  0  0  0  0  0  0  0  0
   40.2950   30.4070   39.0350 H   0  0  0  0  0  0  0  0  0  0  0  0
   39.5130   29.8780   40.6210 H   0  0  0  0  0  0  0  0  0  0  0  0
   39.0580   32.5030   39.0930 H   0  0  0  0  0  0  0  0  0  0  0  0
   36.8860   32.8290   40.3040 O   0  0  0  0  0  0  0  0  0  0  0  0
   36.3700   33.1770   41.0510 H   0  0  0  0  0  0  0  0  0  0  0  0
   39.8130   32.4410   41.0270 O   0  0  0  0  0  0  0  0  0  0  0  0
   40.7560   33.3090   40.5400 C   0  0  0  0  0  3  0  0  0  0  0  0
   42.1360   32.6930   40.4400 C   0  0  0  0  0  2  0  0  0  0  0  0
   42.8480   33.8410   39.7110 C   0  0  0  0  0  2  0  0  0  0  0  0
   41.8640   34.1470   38.6110 C   0  0  0  0  0  2  0  0  0  0  0  0
   40.5020   33.6500   39.0830 C   0  0  0  0  0  2  0  0  0  0  0  0
   37.7790   27.3700   41.1960 C   0  0  0  0  0  0  0  0  0  0  0  0
   38.0000   28.1440   42.3350 C   0  0  0  0  0  0  0  0  0  0  0  0
   38.5850   27.5720   43.4760 C   0  0  0  0  0  0  0  0  0  0  0  0
   38.9090   26.2230   43.3720 N   0  0  0  0  0  0  0  0  0  0  0  0
   38.6770   25.5090   42.2470 C   0  0  0  0  0  0  0  0  0  0  0  0
   38.1110   26.0760   41.1540 N   0  0  0  0  0  0  0  0  0  0  0  0
   37.8120   29.1820   42.5520 H   0  0  0  0  0  0  0  0  0  0  0  0
   38.8020   28.0650   44.4070 H   0  0  0  0  0  0  0  0  0  0  0  0
   38.9670   24.4660   42.2680 H   0  0  0  0  0  0  0  0  0  0  0  0
  1  7  1  6  0  0  0
  1  2  1  0  0  0  0
  1 35  1  0  0  0  0
  2  8  1  1  0  0  0
  3  2  1  0  0  0  0
  3  9  1  0  0  0  0
  3 10  1  0  0  0  0
  4 12  1  0  0  0  0
  4  3  1  0  0  0  0
  5  4  1  0  0  0  0
  5  6  1  0  0  0  0
  6 15  1  0  0  0  0
  6  1  1  0  0  0  0
 11  4  1  0  0  0  0
 13  5  1  0  0  0  0
 14  5  1  0  0  0  0
 16  6  1  0  0  0  0
 17 22  1  1  0  0  0
 18 23  1  6  0  0  0
 18  2  1  0  0  0  0
 18 17  1  0  0  0  0
 19 20  1  0  0  0  0
 19 18  1  0  0  0  0
 20 21  1  0  0  0  0
 20 25  1  0  0  0  0
 21 26  1  6  0  0  0
 21 17  1  0  0  0  0
 21 29  1  0  0  0  0
 24 20  1  0  0  0  0
 27 17  1  0  0  0  0
 27 28  1  0  0  0  0
 30 29  1  0  0  0  0
 31 30  1  0  0  0  0
 32 31  1  0  0  0  0
 33 34  1  0  0  0  0
 33 32  1  0  0  0  0
 34 30  1  0  0  0  0
 35 36  1  0  0  0  0
 36 41  1  0  0  0  0
 36 37  2  0  0  0  0
 37 42  1  0  0  0  0
 38 37  1  0  0  0  0
 39 43  1  0  0  0  0
 39 38  2  0  0  0  0
 40 35  2  0  0  0  0
 40 39  1  0  0  0  0
M  END
>  <minimizedAffinity>
-5.60784006

$$$$

 OpenBabel03242517123D

 43 46  0  0  1  0  0  0  0  0999 V2000
   37.3550   30.9480   37.9920 C   0  0  2  0  0  0  0  0  0  0  0  0
   37.7260   29.5710   38.4170 C   0  0  2  0  0  0  0  0  0  0  0  0
   38.2540   28.7420   37.3050 C   0  0  0  0  0  0  0  0  0  0  0  0
   37.3780   28.7110   36.0780 C   0  0  0  0  0  0  0  0  0  0  0  0
   36.6620   30.0010   35.8070 C   0  0  0  0  0  0  0  0  0  0  0  0
   37.3290   31.1720   36.5080 C   0  0  0  0  0  0  0  0  0  0  0  0
   36.3170   31.1740   38.3820 H   0  0  0  0  0  0  0  0  0  0  0  0
   38.5340   29.6440   39.1800 H   0  0  0  0  0  0  0  0  0  0  0  0
   38.3180   27.6820   37.6880 H   0  0  0  0  0  0  0  0  0  0  0  0
   39.3030   29.0240   37.0880 H   0  0  0  0  0  0  0  0  0  0  0  0
   36.6750   27.8460   36.1370 H   0  0  0  0  0  0  0  0  0  0  0  0
   38.0720   28.4560   35.2260 H   0  0  0  0  0  0  0  0  0  0  0  0
   36.7410   30.2200   34.7100 H   0  0  0  0  0  0  0  0  0  0  0  0
   35.5750   29.9540   36.0750 H   0  0  0  0  0  0  0  0  0  0  0  0
   38.2780   31.3200   36.0130 H   0  0  0  0  0  0  0  0  0  0  0  0
   36.7040   32.0650   36.2730 H   0  0  0  0  0  0  0  0  0  0  0  0
   36.9040   27.9180   40.1450 C   0  0  1  0  0  0  0  0  0  0  0  0
   36.5500   28.8980   39.0880 C   0  0  1  0  0  0  0  0  0  0  0  0
   35.7520   29.8880   39.6510 O   0  0  0  0  0  0  0  0  0  0  0  0
   35.9410   29.8640   41.0230 C   0  0  0  0  0  0  0  0  0  0  0  0
   35.9740   28.3670   41.2820 C   0  0  2  0  0  0  0  0  0  0  0  0
   37.9520   28.0140   40.4990 H   0  0  0  0  0  0  0  0  0  0  0  0
   35.9350   28.4140   38.2980 H   0  0  0  0  0  0  0  0  0  0  0  0
   35.1080   30.3590   41.5290 H   0  0  0  0  0  0  0  0  0  0  0  0
   36.9280   30.3110   41.2190 H   0  0  0  0  0  0  0  0  0  0  0  0
   34.9610   27.9520   41.1870 H   0  0  0  0  0  0  0  0  0  0  0  0
   36.5880   26.6160   39.8260 O   0  0  0  0  0  0  0  0  0  0  0  0
   37.3330   25.9940   39.7550 H   0  0  0  0  0  0  0  0  0  0  0  0
   36.5670   28.0630   42.4990 O   0  0  0  0  0  0  0  0  0  0  0  0
   37.9330   28.0050   42.4000 C   0  0  0  0  0  3  0  0  0  0  0  0
   38.6270   29.1850   43.0490 C   0  0  0  0  0  2  0  0  0  0  0  0
   40.0770   28.6990   42.9160 C   0  0  0  0  0  2  0  0  0  0  0  0
   39.9600   27.2810   43.4110 C   0  0  0  0  0  2  0  0  0  0  0  0
   38.5040   26.8650   43.2240 C   0  0  0  0  0  2  0  0  0  0  0  0
   38.2170   31.9790   38.6060 C   0  0  0  0  0  0  0  0  0  0  0  0
   37.5440   32.9180   39.3890 C   0  0  0  0  0  0  0  0  0  0  0  0
   38.2570   33.9460   40.0270 C   0  0  0  0  0  0  0  0  0  0  0  0
   39.6320   33.9440   39.8170 N   0  0  0  0  0  0  0  0  0  0  0  0
   40.2430   33.0140   39.0490 C   0  0  0  0  0  0  0  0  0  0  0  0
   39.5430   32.0270   38.4400 N   0  0  0  0  0  0  0  0  0  0  0  0
   36.5030   33.0470   39.6290 H   0  0  0  0  0  0  0  0  0  0  0  0
   37.8510   34.7210   40.6520 H   0  0  0  0  0  0  0  0  0  0  0  0
   41.3190   33.1010   38.9490 H   0  0  0  0  0  0  0  0  0  0  0  0
  1  7  1  1  0  0  0
  1  2  1  0  0  0  0
  1 35  1  0  0  0  0
  2 18  1  0  0  0  0
  2  8  1  1  0  0  0
  3  9  1  0  0  0  0
  3  2  1  0  0  0  0
  4 11  1  0  0  0  0
  4  3  1  0  0  0  0
  5 14  1  0  0  0  0
  5  4  1  0  0  0  0
  5  6  1  0  0  0  0
  6  1  1  0  0  0  0
 10  3  1  0  0  0  0
 12  4  1  0  0  0  0
 13  5  1  0  0  0  0
 15  6  1  0  0  0  0
 16  6  1  0  0  0  0
 17 22  1  1  0  0  0
 17 21  1  0  0  0  0
 18 23  1  6  0  0  0
 18 19  1  0  0  0  0
 18 17  1  0  0  0  0
 19 20  1  0  0  0  0
 20 25  1  0  0  0  0
 20 21  1  0  0  0  0
 20 24  1  0  0  0  0
 21 26  1  6  0  0  0
 21 29  1  0  0  0  0
 27 17  1  0  0  0  0
 28 27  1  0  0  0  0
 30 29  1  0  0  0  0
 30 31  1  0  0  0  0
 30 34  1  0  0  0  0
 32 31  1  0  0  0  0
 32 33  1  0  0  0  0
 34 33  1  0  0  0  0
 35 36  1  0  0  0  0
 36 41  1  0  0  0  0
 36 37  2  0  0  0  0
 37 42  1  0  0  0  0
 38 37  1  0  0  0  0
 39 38  2  0  0  0  0
 40 35  2  0  0  0  0
 40 39  1  0  0  0  0
 43 39  1  0  0  0  0
M  END
>  <minimizedAffinity>
-5.60337353

$$$$
