
 OpenBabel03252508343D

 31 33  0  0  1  0  0  0  0  0999 V2000
   44.8380   33.7640   41.6560 N   0  0  0  0  0  0  0  0  0  0  0  0
   46.1060   33.4660   41.0470 C   0  0  1  0  0  0  0  0  0  0  0  0
   45.9840   32.9870   39.6370 C   0  0  0  0  0  0  0  0  0  0  0  0
   44.9150   32.1390   39.3490 N   0  0  0  0  0  0  0  0  0  0  0  0
   43.7410   32.2690   40.1020 C   0  0  0  0  0  0  0  0  0  0  0  0
   43.6960   33.6170   40.8190 C   0  0  0  0  0  0  0  0  0  0  0  0
   46.6450   32.7210   41.6890 H   0  0  0  0  0  0  0  0  0  0  0  0
   46.9400   32.5310   39.3170 H   0  0  0  0  0  0  0  0  0  0  0  0
   45.8860   33.9060   38.9870 H   0  0  0  0  0  0  0  0  0  0  0  0
   44.6640   32.2320   38.3190 H   0  0  0  0  0  0  0  0  0  0  0  0
   43.7620   31.5130   40.9400 H   0  0  0  0  0  0  0  0  0  0  0  0
   42.7980   32.0780   39.5760 H   0  0  0  0  0  0  0  0  0  0  0  0
   43.6240   34.4480   40.0860 H   0  0  0  0  0  0  0  0  0  0  0  0
   42.7900   33.6470   41.4820 H   0  0  0  0  0  0  0  0  0  0  0  0
   44.3270   35.4130   43.3010 C   0  0  0  0  0  0  0  0  0  0  0  0
   44.8540   34.1650   43.0030 C   0  0  0  0  0  0  0  0  0  0  0  0
   45.3600   33.4080   44.0790 C   0  0  0  0  0  0  0  0  0  0  0  0
   45.3150   33.9120   45.3340 N   0  0  0  0  0  0  0  0  0  0  0  0
   44.7960   35.1260   45.5760 C   0  0  0  0  0  0  0  0  0  0  0  0
   44.3110   35.8630   44.5780 N   0  0  0  0  0  0  0  0  0  0  0  0
   43.9110   36.0890   42.5800 H   0  0  0  0  0  0  0  0  0  0  0  0
   45.7550   32.4520   43.7970 H   0  0  0  0  0  0  0  0  0  0  0  0
   44.8050   35.4430   46.6150 H   0  0  0  0  0  0  0  0  0  0  0  0
   46.9200   34.7360   41.0140 C   0  0  0  0  0  0  0  0  0  0  0  0
   46.8990   35.1450   42.0520 H   0  0  0  0  0  0  0  0  0  0  0  0
   46.4810   35.4710   40.3390 H   0  0  0  0  0  0  0  0  0  0  0  0
   48.3740   34.4920   40.7050 C   0  0  0  0  0  3  0  0  0  0  0  0
   49.1030   35.7790   41.1110 C   0  0  0  0  0  2  0  0  0  0  0  0
   49.5750   35.4720   42.4990 C   0  0  0  0  0  2  0  0  0  0  0  0
   50.0560   34.0560   42.4000 C   0  0  0  0  0  2  0  0  0  0  0  0
   48.9800   33.4180   41.5440 C   0  0  0  0  0  2  0  0  0  0  0  0
  1 16  1  0  0  0  0
  2  1  1  0  0  0  0
  2  7  1  1  0  0  0
  3  2  1  0  0  0  0
  4  3  1  0  0  0  0
  4  5  1  0  0  0  0
  5  6  1  0  0  0  0
  5 11  1  0  0  0  0
  6 14  1  0  0  0  0
  6  1  1  0  0  0  0
  8  3  1  0  0  0  0
  9  3  1  0  0  0  0
 10  4  1  0  0  0  0
 12  5  1  0  0  0  0
 13  6  1  0  0  0  0
 15 20  1  0  0  0  0
 16 15  2  0  0  0  0
 16 17  1  0  0  0  0
 17 18  2  0  0  0  0
 18 19  1  0  0  0  0
 19 23  1  0  0  0  0
 20 19  2  0  0  0  0
 21 15  1  0  0  0  0
 22 17  1  0  0  0  0
 24  2  1  0  0  0  0
 24 25  1  0  0  0  0
 26 24  1  0  0  0  0
 27 24  1  0  0  0  0
 27 28  1  0  0  0  0
 27 31  1  0  0  0  0
 28 29  1  0  0  0  0
 30 29  1  0  0  0  0
 31 30  1  0  0  0  0
M  END
>  <minimizedAffinity>
-5.01218367

>  <minimizedRMSD>
1.55534387

$$$$
