
 OpenBabel03252505113D

 40 43  0  0  1  0  0  0  0  0999 V2000
   44.5500   35.5480   44.6080 C   0  0  0  0  0  0  0  0  0  0  0  0
   45.2490   35.6120   43.3840 C   0  0  0  0  0  0  0  0  0  0  0  0
   46.3760   34.7400   43.2150 C   0  0  0  0  0  0  0  0  0  0  0  0
   46.7120   33.9020   44.2350 N   0  0  0  0  0  0  0  0  0  0  0  0
   46.0170   33.8800   45.3750 C   0  0  0  0  0  0  0  0  0  0  0  0
   44.9380   34.6940   45.5750 N   0  0  0  0  0  0  0  0  0  0  0  0
   43.7110   36.2280   44.6750 H   0  0  0  0  0  0  0  0  0  0  0  0
   45.0080   36.2570   42.5720 H   0  0  0  0  0  0  0  0  0  0  0  0
   46.4240   32.9550   46.4590 C   0  0  2  0  0  0  0  0  0  0  0  0
   46.9510   31.7260   45.7550 C   0  0  0  0  0  0  0  0  0  0  0  0
   46.0670   30.5450   45.7540 C   0  0  0  0  0  0  0  0  0  0  0  0
   45.7870   30.2740   47.2400 C   0  0  0  0  0  0  0  0  0  0  0  0
   45.0090   31.3380   47.8640 C   0  0  0  0  0  0  0  0  0  0  0  0
   45.3860   32.7080   47.4160 C   0  0  0  0  0  0  0  0  0  0  0  0
   47.2840   33.4750   46.9660 H   0  0  0  0  0  0  0  0  0  0  0  0
   47.2800   31.9430   44.7130 H   0  0  0  0  0  0  0  0  0  0  0  0
   47.8840   31.4240   46.2790 H   0  0  0  0  0  0  0  0  0  0  0  0
   46.6690   29.6780   45.4300 H   0  0  0  0  0  0  0  0  0  0  0  0
   45.1540   30.6020   45.1580 H   0  0  0  0  0  0  0  0  0  0  0  0
   45.1280   29.3790   47.2230 H   0  0  0  0  0  0  0  0  0  0  0  0
   46.7380   30.0860   47.7390 H   0  0  0  0  0  0  0  0  0  0  0  0
   44.2270   31.3770   48.5670 H   0  0  0  0  0  0  0  0  0  0  0  0
   44.7040   33.8550   47.9390 N   0  0  0  0  0  0  0  0  0  0  0  0
   45.0410   34.3990   48.7700 H   0  0  0  0  0  0  0  0  0  0  0  0
   43.8510   34.4000   47.7200 H   0  0  0  0  0  0  0  0  0  0  0  0
   47.1080   34.7800   41.9670 C   0  0  0  0  0  0  0  0  0  0  0  0
   48.2500   35.5330   41.9100 C   0  0  0  0  0  0  0  0  0  0  0  0
   48.9140   35.5320   40.6660 C   0  0  0  0  0  0  0  0  0  0  0  0
   48.3520   34.7850   39.6540 C   0  0  0  0  0  0  0  0  0  0  0  0
   47.2210   34.0410   39.7140 C   0  0  0  0  0  0  0  0  0  0  0  0
   46.6020   34.0620   40.9300 N   0  0  0  0  0  0  0  0  0  0  0  0
   48.6240   36.0890   42.7440 H   0  0  0  0  0  0  0  0  0  0  0  0
   49.8090   36.1160   40.6070 H   0  0  0  0  0  0  0  0  0  0  0  0
   48.9480   34.8620   38.7550 H   0  0  0  0  0  0  0  0  0  0  0  0
   46.7210   33.3210   38.6580 O   0  0  0  0  0  0  0  0  0  0  0  0
   47.4270   32.3940   37.8820 C   0  0  0  0  0  3  0  0  0  0  0  0
   48.1200   33.0870   36.7180 C   0  0  0  0  0  2  0  0  0  0  0  0
   49.1420   32.0240   36.3300 C   0  0  0  0  0  2  0  0  0  0  0  0
   49.7120   31.6190   37.6730 C   0  0  0  0  0  2  0  0  0  0  0  0
   48.6320   31.9240   38.6800 C   0  0  0  0  0  2  0  0  0  0  0  0
  1  7  1  0  0  0  0
  1  6  1  0  0  0  0
  2  1  2  0  0  0  0
  3  2  1  0  0  0  0
  3  4  2  0  0  0  0
  4  5  1  0  0  0  0
  5  6  2  0  0  0  0
  5  9  1  0  0  0  0
  8  2  1  0  0  0  0
  9 15  1  1  0  0  0
  9 14  1  0  0  0  0
 10 17  1  0  0  0  0
 10  9  1  0  0  0  0
 11 10  1  0  0  0  0
 11 12  1  0  0  0  0
 12 21  1  0  0  0  0
 12 13  1  0  0  0  0
 13 22  1  0  0  0  0
 14 13  2  0  0  0  0
 14 23  1  0  0  0  0
 16 10  1  0  0  0  0
 18 11  1  0  0  0  0
 19 11  1  0  0  0  0
 20 12  1  0  0  0  0
 23 24  1  0  0  0  0
 25 23  1  0  0  0  0
 26  3  1  0  0  0  0
 27 26  1  0  0  0  0
 27 32  1  0  0  0  0
 28 27  2  0  0  0  0
 29 30  2  0  0  0  0
 29 28  1  0  0  0  0
 30 31  1  0  0  0  0
 31 26  2  0  0  0  0
 33 28  1  0  0  0  0
 34 29  1  0  0  0  0
 35 30  1  0  0  0  0
 36 35  1  0  0  0  0
 36 40  1  0  0  0  0
 37 36  1  0  0  0  0
 38 37  1  0  0  0  0
 38 39  1  0  0  0  0
 39 40  1  0  0  0  0
M  END
>  <minimizedAffinity>
-6.96376562

>  <minimizedRMSD>
0.779765725

$$$$
