
 OpenBabel03242516473D

 38 42  0  0  1  0  0  0  0  0999 V2000
   36.8700   29.3360   41.9070 C   0  0  0  0  0  0  0  0  0  0  0  0
   35.9240   28.9640   41.0260 N   0  0  0  0  0  0  0  0  0  0  0  0
   35.8520   29.8330   40.0080 C   0  0  0  0  0  0  0  0  0  0  0  0
   36.7880   30.7860   40.2580 N   0  0  0  0  0  0  0  0  0  0  0  0
   37.4080   30.5070   41.3920 N   0  0  0  0  0  0  0  0  0  0  0  0
   35.2380   29.8920   39.1170 H   0  0  0  0  0  0  0  0  0  0  0  0
   37.7610   30.9520   37.3220 O   0  0  0  0  0  0  0  0  0  0  0  0
   38.0590   31.6170   38.3600 C   0  0  0  0  0  0  0  0  0  0  0  0
   37.0990   31.9480   39.4420 C   0  0  2  0  0  0  0  0  0  0  0  0
   37.8400   33.0000   40.2570 C   0  0  0  0  0  0  0  0  0  0  0  0
   39.2860   32.5100   40.1260 C   0  0  0  0  0  0  0  0  0  0  0  0
   39.3360   32.1800   38.7150 N   0  0  0  0  0  0  0  0  0  0  0  0
   36.1790   32.4500   39.0710 H   0  0  0  0  0  0  0  0  0  0  0  0
   37.7340   33.9920   39.8080 H   0  0  0  0  0  0  0  0  0  0  0  0
   37.5910   32.9580   41.3370 H   0  0  0  0  0  0  0  0  0  0  0  0
   39.4540   31.6590   40.7960 H   0  0  0  0  0  0  0  0  0  0  0  0
   39.9380   33.3760   40.3130 H   0  0  0  0  0  0  0  0  0  0  0  0
   40.4180   32.3570   37.8020 C   0  0  0  0  0  3  0  0  0  0  0  0
   41.3410   33.5000   38.2450 C   0  0  0  0  0  2  0  0  0  0  0  0
   42.4270   33.3360   37.1780 C   0  0  0  0  0  2  0  0  0  0  0  0
   42.5300   31.8320   36.9580 C   0  0  0  0  0  2  0  0  0  0  0  0
   41.3970   31.2230   37.7840 C   0  0  0  0  0  2  0  0  0  0  0  0
   37.9890   27.3900   43.2750 C   0  0  1  0  0  0  0  0  0  0  0  0
   37.3270   28.7180   43.1570 C   0  0  2  0  0  0  0  0  0  0  0  0
   36.5840   27.5940   43.6790 C   0  0  0  0  0  0  0  0  0  0  0  0
   38.7840   27.3490   44.0530 H   0  0  0  0  0  0  0  0  0  0  0  0
   37.6610   29.5080   43.8960 H   0  0  0  0  0  0  0  0  0  0  0  0
   35.7410   27.1560   43.1210 H   0  0  0  0  0  0  0  0  0  0  0  0
   36.3710   27.5570   44.7870 H   0  0  0  0  0  0  0  0  0  0  0  0
   37.4590   25.6120   41.6200 C   0  0  0  0  0  0  0  0  0  0  0  0
   38.3430   26.5840   42.0860 C   0  0  0  0  0  0  0  0  0  0  0  0
   39.5110   26.7470   41.3830 C   0  0  0  0  0  0  0  0  0  0  0  0
   39.7220   25.9610   40.2960 N   0  0  0  0  0  0  0  0  0  0  0  0
   38.8690   25.0420   39.8700 C   0  0  0  0  0  0  0  0  0  0  0  0
   37.7180   24.8740   40.5550 N   0  0  0  0  0  0  0  0  0  0  0  0
   36.4980   25.4050   42.1130 H   0  0  0  0  0  0  0  0  0  0  0  0
   40.2010   27.4860   41.7230 H   0  0  0  0  0  0  0  0  0  0  0  0
   39.2460   24.5420   38.9930 H   0  0  0  0  0  0  0  0  0  0  0  0
  1 24  1  0  0  0  0
  2  1  1  0  0  0  0
  3  4  1  0  0  0  0
  3  2  2  0  0  0  0
  4  5  1  0  0  0  0
  5  1  2  0  0  0  0
  6  3  1  0  0  0  0
  7  8  2  0  0  0  0
  8 12  1  0  0  0  0
  8  9  1  0  0  0  0
  9 13  1  6  0  0  0
  9 10  1  0  0  0  0
  9  4  1  0  0  0  0
 10 15  1  0  0  0  0
 11 10  1  0  0  0  0
 11 17  1  0  0  0  0
 11 16  1  0  0  0  0
 12 11  1  0  0  0  0
 14 10  1  0  0  0  0
 18 19  1  0  0  0  0
 18 12  1  0  0  0  0
 20 19  1  0  0  0  0
 21 20  1  0  0  0  0
 21 22  1  0  0  0  0
 22 18  1  0  0  0  0
 23 25  1  0  0  0  0
 23 26  1  1  0  0  0
 24 23  1  0  0  0  0
 24 25  1  0  0  0  0
 24 27  1  1  0  0  0
 25 29  1  0  0  0  0
 28 25  1  0  0  0  0
 30 31  1  0  0  0  0
 30 36  1  0  0  0  0
 31 23  1  0  0  0  0
 32 37  1  0  0  0  0
 32 31  2  0  0  0  0
 33 32  1  0  0  0  0
 34 33  2  0  0  0  0
 34 35  1  0  0  0  0
 35 30  2  0  0  0  0
 38 34  1  0  0  0  0
M  END
>  <minimizedAffinity>
-5.87753725

$$$$

 OpenBabel03242516473D

 38 42  0  0  1  0  0  0  0  0999 V2000
   37.0540   29.2760   39.2820 C   0  0  0  0  0  0  0  0  0  0  0  0
   35.7700   29.2010   39.6760 N   0  0  0  0  0  0  0  0  0  0  0  0
   35.6870   28.9520   40.9910 C   0  0  0  0  0  0  0  0  0  0  0  0
   36.9670   28.8670   41.4400 N   0  0  0  0  0  0  0  0  0  0  0  0
   37.8010   29.0570   40.4310 N   0  0  0  0  0  0  0  0  0  0  0  0
   34.8590   28.8220   41.6770 H   0  0  0  0  0  0  0  0  0  0  0  0
   39.6870   29.4590   42.7990 O   0  0  0  0  0  0  0  0  0  0  0  0
   38.8810   28.4840   42.8880 C   0  0  0  0  0  0  0  0  0  0  0  0
   37.4060   28.6110   42.8010 C   0  0  2  0  0  0  0  0  0  0  0  0
   36.9100   27.2540   43.2850 C   0  0  0  0  0  0  0  0  0  0  0  0
   38.0080   26.3300   42.7480 C   0  0  0  0  0  0  0  0  0  0  0  0
   39.1950   27.0930   43.0850 N   0  0  0  0  0  0  0  0  0  0  0  0
   36.9890   29.3540   43.5160 H   0  0  0  0  0  0  0  0  0  0  0  0
   36.8800   27.2120   44.3770 H   0  0  0  0  0  0  0  0  0  0  0  0
   35.9680   26.9420   42.7900 H   0  0  0  0  0  0  0  0  0  0  0  0
   37.8650   26.1650   41.6740 H   0  0  0  0  0  0  0  0  0  0  0  0
   37.9860   25.4160   43.3580 H   0  0  0  0  0  0  0  0  0  0  0  0
   40.4600   26.6090   43.5320 C   0  0  0  0  0  3  0  0  0  0  0  0
   40.9850   25.4910   42.6200 C   0  0  0  0  0  2  0  0  0  0  0  0
   42.3610   25.3050   43.2650 C   0  0  0  0  0  2  0  0  0  0  0  0
   42.7870   26.7080   43.6800 C   0  0  0  0  0  2  0  0  0  0  0  0
   41.5770   27.5990   43.4010 C   0  0  0  0  0  2  0  0  0  0  0  0
   38.2570   30.8240   37.5320 C   0  0  1  0  0  0  0  0  0  0  0  0
   37.6510   29.5360   37.9670 C   0  0  2  0  0  0  0  0  0  0  0  0
   36.9340   30.3870   37.0450 C   0  0  0  0  0  0  0  0  0  0  0  0
   39.1500   30.7050   36.8780 H   0  0  0  0  0  0  0  0  0  0  0  0
   38.1230   28.5970   37.5480 H   0  0  0  0  0  0  0  0  0  0  0  0
   36.0010   30.8930   37.3390 H   0  0  0  0  0  0  0  0  0  0  0  0
   36.8770   30.0770   35.9600 H   0  0  0  0  0  0  0  0  0  0  0  0
   37.2830   32.7290   38.7980 C   0  0  0  0  0  0  0  0  0  0  0  0
   38.4010   31.9720   38.4530 C   0  0  0  0  0  0  0  0  0  0  0  0
   39.5970   32.3420   39.0190 C   0  0  0  0  0  0  0  0  0  0  0  0
   39.6070   33.4030   39.8650 N   0  0  0  0  0  0  0  0  0  0  0  0
   38.5320   34.1100   40.1790 C   0  0  0  0  0  0  0  0  0  0  0  0
   37.3520   33.7550   39.6270 N   0  0  0  0  0  0  0  0  0  0  0  0
   36.2810   32.5140   38.3990 H   0  0  0  0  0  0  0  0  0  0  0  0
   40.4650   31.7760   38.7680 H   0  0  0  0  0  0  0  0  0  0  0  0
   38.7780   34.9040   40.8650 H   0  0  0  0  0  0  0  0  0  0  0  0
  1  2  1  0  0  0  0
  1  5  2  0  0  0  0
  2  3  2  0  0  0  0
  3  4  1  0  0  0  0
  3  6  1  0  0  0  0
  4  9  1  0  0  0  0
  5  4  1  0  0  0  0
  7  8  2  0  0  0  0
  8 12  1  0  0  0  0
  9  8  1  0  0  0  0
  9 10  1  0  0  0  0
  9 13  1  1  0  0  0
 10 14  1  0  0  0  0
 11 12  1  0  0  0  0
 11 10  1  0  0  0  0
 11 17  1  0  0  0  0
 12 18  1  0  0  0  0
 15 10  1  0  0  0  0
 16 11  1  0  0  0  0
 19 20  1  0  0  0  0
 19 18  1  0  0  0  0
 20 21  1  0  0  0  0
 22 18  1  0  0  0  0
 22 21  1  0  0  0  0
 23 26  1  6  0  0  0
 23 24  1  0  0  0  0
 23 31  1  0  0  0  0
 24 27  1  6  0  0  0
 24  1  1  0  0  0  0
 25 28  1  0  0  0  0
 25 23  1  0  0  0  0
 25 24  1  0  0  0  0
 29 25  1  0  0  0  0
 30 35  1  0  0  0  0
 31 30  2  0  0  0  0
 31 32  1  0  0  0  0
 32 33  2  0  0  0  0
 33 34  1  0  0  0  0
 34 38  1  0  0  0  0
 35 34  2  0  0  0  0
 36 30  1  0  0  0  0
 37 32  1  0  0  0  0
M  END
>  <minimizedAffinity>
-5.87376976

$$$$

 OpenBabel03242516473D

 38 42  0  0  1  0  0  0  0  0999 V2000
   37.1050   26.6690   42.6350 C   0  0  0  0  0  0  0  0  0  0  0  0
   37.7140   27.4530   43.5430 N   0  0  0  0  0  0  0  0  0  0  0  0
   37.6190   28.7450   43.1990 C   0  0  0  0  0  0  0  0  0  0  0  0
   36.9260   28.7750   42.0300 N   0  0  0  0  0  0  0  0  0  0  0  0
   36.6100   27.5410   41.6750 N   0  0  0  0  0  0  0  0  0  0  0  0
   37.9670   29.6670   43.6490 H   0  0  0  0  0  0  0  0  0  0  0  0
   34.5120   29.2450   40.1480 O   0  0  0  0  0  0  0  0  0  0  0  0
   35.7290   29.5920   40.0790 C   0  0  0  0  0  0  0  0  0  0  0  0
   36.5620   29.9480   41.2530 C   0  0  2  0  0  0  0  0  0  0  0  0
   37.7950   30.5870   40.6260 C   0  0  0  0  0  0  0  0  0  0  0  0
   37.9300   29.7660   39.3390 C   0  0  0  0  0  0  0  0  0  0  0  0
   36.5480   29.7160   38.9010 N   0  0  0  0  0  0  0  0  0  0  0  0
   36.1060   30.7380   41.8880 H   0  0  0  0  0  0  0  0  0  0  0  0
   37.6150   31.6380   40.3880 H   0  0  0  0  0  0  0  0  0  0  0  0
   38.7180   30.4030   41.2140 H   0  0  0  0  0  0  0  0  0  0  0  0
   38.3700   28.7870   39.5650 H   0  0  0  0  0  0  0  0  0  0  0  0
   38.5080   30.3740   38.6280 H   0  0  0  0  0  0  0  0  0  0  0  0
   36.0400   29.7740   37.5700 C   0  0  0  0  0  3  0  0  0  0  0  0
   37.1530   30.0780   36.5590 C   0  0  0  0  0  2  0  0  0  0  0  0
   36.3340   29.9330   35.2730 C   0  0  0  0  0  2  0  0  0  0  0  0
   35.3600   28.7970   35.5620 C   0  0  0  0  0  2  0  0  0  0  0  0
   35.5580   28.4580   37.0390 C   0  0  0  0  0  2  0  0  0  0  0  0
   37.9820   24.2310   42.1920 C   0  0  1  0  0  0  0  0  0  0  0  0
   36.9300   25.2140   42.5720 C   0  0  2  0  0  0  0  0  0  0  0  0
   36.8820   24.5840   41.2730 C   0  0  0  0  0  0  0  0  0  0  0  0
   37.9360   23.2770   42.7640 H   0  0  0  0  0  0  0  0  0  0  0  0
   36.1810   24.8670   43.3460 H   0  0  0  0  0  0  0  0  0  0  0  0
   37.0490   25.1610   40.3490 H   0  0  0  0  0  0  0  0  0  0  0  0
   36.1050   23.7840   41.0900 H   0  0  0  0  0  0  0  0  0  0  0  0
   40.2950   24.7030   42.9710 C   0  0  0  0  0  0  0  0  0  0  0  0
   39.3760   24.6420   41.9240 C   0  0  0  0  0  0  0  0  0  0  0  0
   39.8440   24.9620   40.6720 C   0  0  0  0  0  0  0  0  0  0  0  0
   41.1490   25.3100   40.5430 N   0  0  0  0  0  0  0  0  0  0  0  0
   42.0050   25.3620   41.5520 C   0  0  0  0  0  0  0  0  0  0  0  0
   41.5560   25.0500   42.7860 N   0  0  0  0  0  0  0  0  0  0  0  0
   40.0200   24.4660   44.0100 H   0  0  0  0  0  0  0  0  0  0  0  0
   39.1570   24.9220   39.8570 H   0  0  0  0  0  0  0  0  0  0  0  0
   42.9840   25.6620   41.2130 H   0  0  0  0  0  0  0  0  0  0  0  0
  1  2  1  0  0  0  0
  3  2  2  0  0  0  0
  3  6  1  0  0  0  0
  4  3  1  0  0  0  0
  5  4  1  0  0  0  0
  5  1  2  0  0  0  0
  8  7  2  0  0  0  0
  8  9  1  0  0  0  0
  9 13  1  1  0  0  0
  9  4  1  0  0  0  0
 10 15  1  0  0  0  0
 10  9  1  0  0  0  0
 11 16  1  0  0  0  0
 11 10  1  0  0  0  0
 12 11  1  0  0  0  0
 12  8  1  0  0  0  0
 14 10  1  0  0  0  0
 17 11  1  0  0  0  0
 18 12  1  0  0  0  0
 19 18  1  0  0  0  0
 20 21  1  0  0  0  0
 20 19  1  0  0  0  0
 21 22  1  0  0  0  0
 22 18  1  0  0  0  0
 23 24  1  0  0  0  0
 23 26  1  1  0  0  0
 24  1  1  0  0  0  0
 24 27  1  1  0  0  0
 25 23  1  0  0  0  0
 25 24  1  0  0  0  0
 28 25  1  0  0  0  0
 29 25  1  0  0  0  0
 30 36  1  0  0  0  0
 31 23  1  0  0  0  0
 31 30  2  0  0  0  0
 32 31  1  0  0  0  0
 33 32  2  0  0  0  0
 33 34  1  0  0  0  0
 34 35  2  0  0  0  0
 35 30  1  0  0  0  0
 37 32  1  0  0  0  0
 38 34  1  0  0  0  0
M  END
>  <minimizedAffinity>
-5.84834051

$$$$

 OpenBabel03242516473D

 38 42  0  0  1  0  0  0  0  0999 V2000
   37.6620   32.6210   39.6130 C   0  0  0  0  0  0  0  0  0  0  0  0
   37.3240   31.9230   38.5140 N   0  0  0  0  0  0  0  0  0  0  0  0
   36.6640   30.8040   38.8420 C   0  0  0  0  0  0  0  0  0  0  0  0
   36.5840   30.7970   40.1990 N   0  0  0  0  0  0  0  0  0  0  0  0
   37.1760   31.8770   40.6800 N   0  0  0  0  0  0  0  0  0  0  0  0
   36.2330   29.9930   38.2670 H   0  0  0  0  0  0  0  0  0  0  0  0
   37.5940   29.4710   42.8090 O   0  0  0  0  0  0  0  0  0  0  0  0
   36.9600   29.0170   41.8100 C   0  0  0  0  0  0  0  0  0  0  0  0
   35.9570   29.7900   41.0380 C   0  0  2  0  0  0  0  0  0  0  0  0
   35.2750   28.7250   40.1880 C   0  0  0  0  0  0  0  0  0  0  0  0
   36.4450   27.7770   39.9080 C   0  0  0  0  0  0  0  0  0  0  0  0
   37.0600   27.7070   41.2200 N   0  0  0  0  0  0  0  0  0  0  0  0
   35.1560   30.2230   41.6750 H   0  0  0  0  0  0  0  0  0  0  0  0
   34.4950   28.2090   40.7550 H   0  0  0  0  0  0  0  0  0  0  0  0
   34.9420   29.1120   39.2030 H   0  0  0  0  0  0  0  0  0  0  0  0
   37.0880   28.1980   39.1270 H   0  0  0  0  0  0  0  0  0  0  0  0
   36.0120   26.7950   39.6640 H   0  0  0  0  0  0  0  0  0  0  0  0
   37.6640   26.5820   41.8550 C   0  0  0  0  0  3  0  0  0  0  0  0
   36.9490   25.2770   41.4790 C   0  0  0  0  0  2  0  0  0  0  0  0
   37.8940   24.2960   42.1800 C   0  0  0  0  0  2  0  0  0  0  0  0
   39.2800   24.9050   42.0100 C   0  0  0  0  0  2  0  0  0  0  0  0
   39.0470   26.2720   41.3680 C   0  0  0  0  0  2  0  0  0  0  0  0
   39.8370   34.0960   39.6170 C   0  0  1  0  0  0  0  0  0  0  0  0
   38.3710   33.8960   39.7730 C   0  0  2  0  0  0  0  0  0  0  0  0
   39.1940   34.0810   40.9460 C   0  0  0  0  0  0  0  0  0  0  0  0
   40.1140   35.0690   39.1520 H   0  0  0  0  0  0  0  0  0  0  0  0
   37.7140   34.7620   39.4570 H   0  0  0  0  0  0  0  0  0  0  0  0
   39.3540   33.2640   41.6680 H   0  0  0  0  0  0  0  0  0  0  0  0
   39.1430   35.0690   41.4890 H   0  0  0  0  0  0  0  0  0  0  0  0
   41.0260   32.8490   37.8250 C   0  0  0  0  0  0  0  0  0  0  0  0
   40.7340   33.0040   39.1790 C   0  0  0  0  0  0  0  0  0  0  0  0
   41.3270   32.1190   40.0460 C   0  0  0  0  0  0  0  0  0  0  0  0
   42.1450   31.1660   39.5320 N   0  0  0  0  0  0  0  0  0  0  0  0
   42.4090   31.0350   38.2400 C   0  0  0  0  0  0  0  0  0  0  0  0
   41.8310   31.9000   37.3800 N   0  0  0  0  0  0  0  0  0  0  0  0
   40.6020   33.5060   37.0520 H   0  0  0  0  0  0  0  0  0  0  0  0
   41.1160   32.2200   41.0860 H   0  0  0  0  0  0  0  0  0  0  0  0
   43.0830   30.2120   38.0650 H   0  0  0  0  0  0  0  0  0  0  0  0
  1 24  1  0  0  0  0
  1  5  2  0  0  0  0
  2  3  2  0  0  0  0
  2  1  1  0  0  0  0
  3  4  1  0  0  0  0
  4  5  1  0  0  0  0
  4  9  1  0  0  0  0
  6  3  1  0  0  0  0
  8  7  2  0  0  0  0
  9 13  1  1  0  0  0
  9  8  1  0  0  0  0
 10 14  1  0  0  0  0
 10  9  1  0  0  0  0
 11 10  1  0  0  0  0
 11 12  1  0  0  0  0
 12  8  1  0  0  0  0
 12 18  1  0  0  0  0
 15 10  1  0  0  0  0
 16 11  1  0  0  0  0
 17 11  1  0  0  0  0
 19 18  1  0  0  0  0
 19 20  1  0  0  0  0
 21 20  1  0  0  0  0
 22 18  1  0  0  0  0
 22 21  1  0  0  0  0
 23 26  1  6  0  0  0
 23 24  1  0  0  0  0
 23 25  1  0  0  0  0
 24 27  1  6  0  0  0
 24 25  1  0  0  0  0
 25 29  1  0  0  0  0
 25 28  1  0  0  0  0
 30 31  1  0  0  0  0
 31 23  1  0  0  0  0
 31 32  2  0  0  0  0
 32 37  1  0  0  0  0
 33 32  1  0  0  0  0
 34 33  2  0  0  0  0
 35 30  2  0  0  0  0
 35 34  1  0  0  0  0
 36 30  1  0  0  0  0
 38 34  1  0  0  0  0
M  END
>  <minimizedAffinity>
-5.74379778

$$$$

 OpenBabel03242516473D

 38 42  0  0  1  0  0  0  0  0999 V2000
   38.1210   31.3660   41.2090 C   0  0  0  0  0  0  0  0  0  0  0  0
   39.3870   31.4670   41.6530 N   0  0  0  0  0  0  0  0  0  0  0  0
   39.6930   30.4410   42.4610 C   0  0  0  0  0  0  0  0  0  0  0  0
   38.5770   29.6670   42.5280 N   0  0  0  0  0  0  0  0  0  0  0  0
   37.6240   30.2050   41.7850 N   0  0  0  0  0  0  0  0  0  0  0  0
   40.5840   30.1600   43.0090 H   0  0  0  0  0  0  0  0  0  0  0  0
   40.3820   27.1540   42.6650 O   0  0  0  0  0  0  0  0  0  0  0  0
   39.1220   27.3020   42.6440 C   0  0  0  0  0  0  0  0  0  0  0  0
   38.4060   28.4350   43.2780 C   0  0  2  0  0  0  0  0  0  0  0  0
   36.9510   27.9850   43.2570 C   0  0  0  0  0  0  0  0  0  0  0  0
   36.9050   27.2000   41.9420 C   0  0  0  0  0  0  0  0  0  0  0  0
   38.1410   26.4460   42.0310 N   0  0  0  0  0  0  0  0  0  0  0  0
   38.6620   28.5680   44.3520 H   0  0  0  0  0  0  0  0  0  0  0  0
   36.7300   27.3250   44.1000 H   0  0  0  0  0  0  0  0  0  0  0  0
   36.2430   28.8310   43.1420 H   0  0  0  0  0  0  0  0  0  0  0  0
   36.8580   27.8940   41.0940 H   0  0  0  0  0  0  0  0  0  0  0  0
   36.0560   26.5040   42.0120 H   0  0  0  0  0  0  0  0  0  0  0  0
   38.3930   25.1080   41.6070 C   0  0  0  0  0  3  0  0  0  0  0  0
   37.0860   24.3280   41.4100 C   0  0  0  0  0  2  0  0  0  0  0  0
   37.6800   23.0360   40.8400 C   0  0  0  0  0  2  0  0  0  0  0  0
   38.8530   23.4960   39.9830 C   0  0  0  0  0  2  0  0  0  0  0  0
   38.9720   24.9990   40.2290 C   0  0  0  0  0  2  0  0  0  0  0  0
   36.9690   31.8900   38.9050 C   0  0  1  0  0  0  0  0  0  0  0  0
   37.3390   32.2210   40.3090 C   0  0  2  0  0  0  0  0  0  0  0  0
   38.0230   32.8750   39.2180 C   0  0  0  0  0  0  0  0  0  0  0  0
   35.9560   32.2430   38.6090 H   0  0  0  0  0  0  0  0  0  0  0  0
   36.5850   32.8320   40.8910 H   0  0  0  0  0  0  0  0  0  0  0  0
   39.0890   32.6830   39.0120 H   0  0  0  0  0  0  0  0  0  0  0  0
   37.7790   33.9560   39.0000 H   0  0  0  0  0  0  0  0  0  0  0  0
   36.3390   29.5610   38.3070 C   0  0  0  0  0  0  0  0  0  0  0  0
   37.2910   30.5790   38.3000 C   0  0  0  0  0  0  0  0  0  0  0  0
   38.4940   30.2970   37.7000 C   0  0  0  0  0  0  0  0  0  0  0  0
   38.6720   29.0640   37.1630 N   0  0  0  0  0  0  0  0  0  0  0  0
   37.7530   28.1090   37.1810 C   0  0  0  0  0  0  0  0  0  0  0  0
   36.5680   28.3760   37.7680 N   0  0  0  0  0  0  0  0  0  0  0  0
   35.3450   29.6870   38.7620 H   0  0  0  0  0  0  0  0  0  0  0  0
   39.2360   31.0630   37.6850 H   0  0  0  0  0  0  0  0  0  0  0  0
   38.1150   27.2170   36.6970 H   0  0  0  0  0  0  0  0  0  0  0  0
  1  2  1  0  0  0  0
  1  5  2  0  0  0  0
  2  3  2  0  0  0  0
  3  4  1  0  0  0  0
  3  6  1  0  0  0  0
  4  9  1  0  0  0  0
  5  4  1  0  0  0  0
  8  7  2  0  0  0  0
  8  9  1  0  0  0  0
  9 13  1  1  0  0  0
 10  9  1  0  0  0  0
 10 14  1  0  0  0  0
 11 17  1  0  0  0  0
 11 12  1  0  0  0  0
 11 10  1  0  0  0  0
 12  8  1  0  0  0  0
 15 10  1  0  0  0  0
 16 11  1  0  0  0  0
 18 12  1  0  0  0  0
 19 18  1  0  0  0  0
 20 19  1  0  0  0  0
 21 22  1  0  0  0  0
 21 20  1  0  0  0  0
 22 18  1  0  0  0  0
 23 26  1  6  0  0  0
 23 25  1  0  0  0  0
 23 24  1  0  0  0  0
 24 27  1  1  0  0  0
 24  1  1  0  0  0  0
 25 24  1  0  0  0  0
 28 25  1  0  0  0  0
 29 25  1  0  0  0  0
 30 36  1  0  0  0  0
 31 30  1  0  0  0  0
 31 23  1  0  0  0  0
 32 31  2  0  0  0  0
 33 34  2  0  0  0  0
 33 32  1  0  0  0  0
 34 35  1  0  0  0  0
 35 30  2  0  0  0  0
 37 32  1  0  0  0  0
 38 34  1  0  0  0  0
M  END
>  <minimizedAffinity>
-5.70043135

$$$$

 OpenBabel03242516473D

 38 42  0  0  1  0  0  0  0  0999 V2000
   36.8330   25.3710   39.5990 C   0  0  0  0  0  0  0  0  0  0  0  0
   37.6360   25.2470   38.5270 N   0  0  0  0  0  0  0  0  0  0  0  0
   37.5050   26.3000   37.7080 C   0  0  0  0  0  0  0  0  0  0  0  0
   36.5850   27.1160   38.2860 N   0  0  0  0  0  0  0  0  0  0  0  0
   36.1690   26.5770   39.4190 N   0  0  0  0  0  0  0  0  0  0  0  0
   37.9620   26.5750   36.7650 H   0  0  0  0  0  0  0  0  0  0  0  0
   38.1030   29.3850   36.8240 O   0  0  0  0  0  0  0  0  0  0  0  0
   37.1850   29.3960   37.6990 C   0  0  0  0  0  0  0  0  0  0  0  0
   36.1000   28.3890   37.7810 C   0  0  2  0  0  0  0  0  0  0  0  0
   35.1130   29.0180   38.7560 C   0  0  0  0  0  0  0  0  0  0  0  0
   36.0650   29.7490   39.7090 C   0  0  0  0  0  0  0  0  0  0  0  0
   36.9920   30.3440   38.7660 N   0  0  0  0  0  0  0  0  0  0  0  0
   35.5420   28.2700   36.8270 H   0  0  0  0  0  0  0  0  0  0  0  0
   34.4610   29.7350   38.2490 H   0  0  0  0  0  0  0  0  0  0  0  0
   34.5750   28.2640   39.3670 H   0  0  0  0  0  0  0  0  0  0  0  0
   36.5210   29.0320   40.4020 H   0  0  0  0  0  0  0  0  0  0  0  0
   35.4850   30.5490   40.1930 H   0  0  0  0  0  0  0  0  0  0  0  0
   37.6230   31.6210   38.8320 C   0  0  0  0  0  3  0  0  0  0  0  0
   36.9960   32.4990   39.9240 C   0  0  0  0  0  2  0  0  0  0  0  0
   37.9550   33.6890   39.8320 C   0  0  0  0  0  2  0  0  0  0  0  0
   39.3140   33.0680   39.5340 C   0  0  0  0  0  2  0  0  0  0  0  0
   39.0410   31.5800   39.3120 C   0  0  0  0  0  2  0  0  0  0  0  0
   37.0210   24.8220   42.1630 C   0  0  1  0  0  0  0  0  0  0  0  0
   36.6280   24.5020   40.7630 C   0  0  2  0  0  0  0  0  0  0  0  0
   37.7800   23.8530   41.3460 C   0  0  0  0  0  0  0  0  0  0  0  0
   36.3040   24.4520   42.9300 H   0  0  0  0  0  0  0  0  0  0  0  0
   35.6890   23.8810   40.6400 H   0  0  0  0  0  0  0  0  0  0  0  0
   38.7990   24.0600   40.9830 H   0  0  0  0  0  0  0  0  0  0  0  0
   37.6920   22.7680   41.6470 H   0  0  0  0  0  0  0  0  0  0  0  0
   36.7490   27.1630   42.9530 C   0  0  0  0  0  0  0  0  0  0  0  0
   37.5920   26.1350   42.5340 C   0  0  0  0  0  0  0  0  0  0  0  0
   38.9370   26.4100   42.5080 C   0  0  0  0  0  0  0  0  0  0  0  0
   39.3480   27.6470   42.8860 N   0  0  0  0  0  0  0  0  0  0  0  0
   38.5300   28.6110   43.2800 C   0  0  0  0  0  0  0  0  0  0  0  0
   37.2050   28.3500   43.3100 N   0  0  0  0  0  0  0  0  0  0  0  0
   35.6570   27.0430   43.0090 H   0  0  0  0  0  0  0  0  0  0  0  0
   39.5990   25.6370   42.1900 H   0  0  0  0  0  0  0  0  0  0  0  0
   39.0780   29.5040   43.5320 H   0  0  0  0  0  0  0  0  0  0  0  0
  1 24  1  0  0  0  0
  2  1  1  0  0  0  0
  3  4  1  0  0  0  0
  3  2  2  0  0  0  0
  4  5  1  0  0  0  0
  5  1  2  0  0  0  0
  6  3  1  0  0  0  0
  7  8  2  0  0  0  0
  8  9  1  0  0  0  0
  8 12  1  0  0  0  0
  9 13  1  6  0  0  0
  9  4  1  0  0  0  0
  9 10  1  0  0  0  0
 10 15  1  0  0  0  0
 10 11  1  0  0  0  0
 11 17  1  0  0  0  0
 11 16  1  0  0  0  0
 12 18  1  0  0  0  0
 12 11  1  0  0  0  0
 14 10  1  0  0  0  0
 18 22  1  0  0  0  0
 18 19  1  0  0  0  0
 20 19  1  0  0  0  0
 21 20  1  0  0  0  0
 22 21  1  0  0  0  0
 23 31  1  0  0  0  0
 23 26  1  1  0  0  0
 24 27  1  6  0  0  0
 24 25  1  0  0  0  0
 24 23  1  0  0  0  0
 25 29  1  0  0  0  0
 25 23  1  0  0  0  0
 28 25  1  0  0  0  0
 30 36  1  0  0  0  0
 30 35  1  0  0  0  0
 31 30  2  0  0  0  0
 32 31  1  0  0  0  0
 32 33  2  0  0  0  0
 33 34  1  0  0  0  0
 34 35  2  0  0  0  0
 34 38  1  0  0  0  0
 37 32  1  0  0  0  0
M  END
>  <minimizedAffinity>
-5.64944553

$$$$

 OpenBabel03242516473D

 38 42  0  0  1  0  0  0  0  0999 V2000
   36.6610   25.5930   39.6500 C   0  0  0  0  0  0  0  0  0  0  0  0
   35.8210   25.7410   38.6100 N   0  0  0  0  0  0  0  0  0  0  0  0
   36.2220   26.7400   37.8110 C   0  0  0  0  0  0  0  0  0  0  0  0
   37.3570   27.2380   38.3690 N   0  0  0  0  0  0  0  0  0  0  0  0
   37.6360   26.5650   39.4720 N   0  0  0  0  0  0  0  0  0  0  0  0
   35.8320   27.1670   36.8940 H   0  0  0  0  0  0  0  0  0  0  0  0
   39.5410   28.9010   39.8030 O   0  0  0  0  0  0  0  0  0  0  0  0
   38.6360   29.2140   38.9720 C   0  0  0  0  0  0  0  0  0  0  0  0
   38.1720   28.3340   37.8730 C   0  0  2  0  0  0  0  0  0  0  0  0
   37.3480   29.2700   36.9990 C   0  0  0  0  0  0  0  0  0  0  0  0
   36.7340   30.1950   38.0550 C   0  0  0  0  0  0  0  0  0  0  0  0
   37.8830   30.4400   38.9050 N   0  0  0  0  0  0  0  0  0  0  0  0
   39.0000   27.9710   37.2250 H   0  0  0  0  0  0  0  0  0  0  0  0
   37.9890   29.8420   36.3210 H   0  0  0  0  0  0  0  0  0  0  0  0
   36.5010   28.7560   36.5000 H   0  0  0  0  0  0  0  0  0  0  0  0
   35.9000   29.6880   38.5550 H   0  0  0  0  0  0  0  0  0  0  0  0
   36.4610   31.1300   37.5440 H   0  0  0  0  0  0  0  0  0  0  0  0
   38.2480   31.6460   39.5730 C   0  0  0  0  0  3  0  0  0  0  0  0
   39.4790   32.2940   38.9250 C   0  0  0  0  0  2  0  0  0  0  0  0
   39.5140   33.5820   39.7520 C   0  0  0  0  0  2  0  0  0  0  0  0
   38.0500   33.9350   39.9810 C   0  0  0  0  0  2  0  0  0  0  0  0
   37.2550   32.7570   39.4180 C   0  0  0  0  0  2  0  0  0  0  0  0
   37.0940   24.9530   42.1620 C   0  0  1  0  0  0  0  0  0  0  0  0
   36.6580   24.6480   40.7720 C   0  0  2  0  0  0  0  0  0  0  0  0
   37.9260   24.1440   41.2480 C   0  0  0  0  0  0  0  0  0  0  0  0
   36.4890   24.4470   42.9480 H   0  0  0  0  0  0  0  0  0  0  0  0
   35.8100   23.9050   40.6690 H   0  0  0  0  0  0  0  0  0  0  0  0
   38.8790   24.5130   40.8390 H   0  0  0  0  0  0  0  0  0  0  0  0
   38.0110   23.0450   41.4910 H   0  0  0  0  0  0  0  0  0  0  0  0
   38.8490   26.6210   42.7260 C   0  0  0  0  0  0  0  0  0  0  0  0
   37.4980   26.3140   42.5750 C   0  0  0  0  0  0  0  0  0  0  0  0
   36.6030   27.3300   42.8090 C   0  0  0  0  0  0  0  0  0  0  0  0
   37.0900   28.5460   43.1670 N   0  0  0  0  0  0  0  0  0  0  0  0
   38.3790   28.8160   43.3060 C   0  0  0  0  0  0  0  0  0  0  0  0
   39.2660   27.8240   43.0790 N   0  0  0  0  0  0  0  0  0  0  0  0
   39.6430   25.8770   42.5620 H   0  0  0  0  0  0  0  0  0  0  0  0
   35.5650   27.1170   42.6990 H   0  0  0  0  0  0  0  0  0  0  0  0
   38.5300   29.8430   43.5960 H   0  0  0  0  0  0  0  0  0  0  0  0
  1 24  1  0  0  0  0
  2  1  1  0  0  0  0
  3  4  1  0  0  0  0
  3  2  2  0  0  0  0
  4  5  1  0  0  0  0
  5  1  2  0  0  0  0
  6  3  1  0  0  0  0
  8  7  2  0  0  0  0
  9 13  1  6  0  0  0
  9  4  1  0  0  0  0
  9  8  1  0  0  0  0
 10  9  1  0  0  0  0
 10 11  1  0  0  0  0
 11 16  1  0  0  0  0
 11 12  1  0  0  0  0
 12  8  1  0  0  0  0
 12 18  1  0  0  0  0
 14 10  1  0  0  0  0
 15 10  1  0  0  0  0
 17 11  1  0  0  0  0
 19 18  1  0  0  0  0
 19 20  1  0  0  0  0
 20 21  1  0  0  0  0
 22 18  1  0  0  0  0
 22 21  1  0  0  0  0
 23 31  1  0  0  0  0
 23 26  1  1  0  0  0
 24 27  1  6  0  0  0
 24 25  1  0  0  0  0
 24 23  1  0  0  0  0
 25 29  1  0  0  0  0
 25 23  1  0  0  0  0
 28 25  1  0  0  0  0
 30 35  1  0  0  0  0
 31 30  2  0  0  0  0
 31 32  1  0  0  0  0
 32 33  2  0  0  0  0
 33 34  1  0  0  0  0
 34 38  1  0  0  0  0
 35 34  2  0  0  0  0
 36 30  1  0  0  0  0
 37 32  1  0  0  0  0
M  END
>  <minimizedAffinity>
-5.62637424

$$$$

 OpenBabel03242516473D

 38 42  0  0  1  0  0  0  0  0999 V2000
   36.9430   26.3260   41.5440 C   0  0  0  0  0  0  0  0  0  0  0  0
   36.6890   26.8560   40.3340 N   0  0  0  0  0  0  0  0  0  0  0  0
   36.8590   28.1850   40.3500 C   0  0  0  0  0  0  0  0  0  0  0  0
   37.2340   28.5030   41.6170 N   0  0  0  0  0  0  0  0  0  0  0  0
   37.2890   27.4030   42.3480 N   0  0  0  0  0  0  0  0  0  0  0  0
   36.7580   28.9620   39.6010 H   0  0  0  0  0  0  0  0  0  0  0  0
   36.7940   31.2930   40.3470 O   0  0  0  0  0  0  0  0  0  0  0  0
   37.7340   30.8120   41.0490 C   0  0  0  0  0  0  0  0  0  0  0  0
   37.5390   29.8240   42.1380 C   0  0  2  0  0  0  0  0  0  0  0  0
   38.8820   29.8280   42.8570 C   0  0  0  0  0  0  0  0  0  0  0  0
   39.8420   30.0590   41.6860 C   0  0  0  0  0  0  0  0  0  0  0  0
   39.1420   31.1000   40.9590 N   0  0  0  0  0  0  0  0  0  0  0  0
   36.7930   30.1520   42.8960 H   0  0  0  0  0  0  0  0  0  0  0  0
   38.9460   30.6550   43.5680 H   0  0  0  0  0  0  0  0  0  0  0  0
   39.1410   28.8370   43.2840 H   0  0  0  0  0  0  0  0  0  0  0  0
   39.9770   29.1270   41.1240 H   0  0  0  0  0  0  0  0  0  0  0  0
   40.7680   30.4780   42.1060 H   0  0  0  0  0  0  0  0  0  0  0  0
   39.6910   32.2190   40.2680 C   0  0  0  0  0  3  0  0  0  0  0  0
   41.0390   32.6410   40.8680 C   0  0  0  0  0  2  0  0  0  0  0  0
   41.4090   33.7240   39.8510 C   0  0  0  0  0  2  0  0  0  0  0  0
   40.8900   33.1960   38.5190 C   0  0  0  0  0  2  0  0  0  0  0  0
   40.1140   31.9250   38.8610 C   0  0  0  0  0  2  0  0  0  0  0  0
   38.0850   24.0380   42.1540 C   0  0  1  0  0  0  0  0  0  0  0  0
   36.9070   24.9390   42.0220 C   0  0  2  0  0  0  0  0  0  0  0  0
   37.1050   23.8770   41.0610 C   0  0  0  0  0  0  0  0  0  0  0  0
   38.0400   23.3620   43.0370 H   0  0  0  0  0  0  0  0  0  0  0  0
   36.0860   24.7990   42.7880 H   0  0  0  0  0  0  0  0  0  0  0  0
   37.3540   24.0940   40.0100 H   0  0  0  0  0  0  0  0  0  0  0  0
   36.4370   22.9690   41.1180 H   0  0  0  0  0  0  0  0  0  0  0  0
   40.3290   24.7390   42.9620 C   0  0  0  0  0  0  0  0  0  0  0  0
   39.4630   24.5090   41.8940 C   0  0  0  0  0  0  0  0  0  0  0  0
   39.9630   24.7260   40.6330 C   0  0  0  0  0  0  0  0  0  0  0  0
   41.2490   25.1430   40.5150 N   0  0  0  0  0  0  0  0  0  0  0  0
   42.0560   25.3560   41.5440 C   0  0  0  0  0  0  0  0  0  0  0  0
   41.5740   25.1470   42.7870 N   0  0  0  0  0  0  0  0  0  0  0  0
   40.0250   24.5950   44.0090 H   0  0  0  0  0  0  0  0  0  0  0  0
   39.3170   24.5560   39.8030 H   0  0  0  0  0  0  0  0  0  0  0  0
   43.0280   25.6820   41.2110 H   0  0  0  0  0  0  0  0  0  0  0  0
  1 24  1  0  0  0  0
  1  5  2  0  0  0  0
  2  3  2  0  0  0  0
  2  1  1  0  0  0  0
  3  4  1  0  0  0  0
  4  9  1  0  0  0  0
  4  5  1  0  0  0  0
  6  3  1  0  0  0  0
  7  8  2  0  0  0  0
  8  9  1  0  0  0  0
  9 10  1  0  0  0  0
  9 13  1  1  0  0  0
 10 15  1  0  0  0  0
 10 14  1  0  0  0  0
 11 17  1  0  0  0  0
 11 10  1  0  0  0  0
 12  8  1  0  0  0  0
 12 11  1  0  0  0  0
 16 11  1  0  0  0  0
 18 19  1  0  0  0  0
 18 12  1  0  0  0  0
 20 19  1  0  0  0  0
 21 22  1  0  0  0  0
 21 20  1  0  0  0  0
 22 18  1  0  0  0  0
 23 26  1  1  0  0  0
 24 23  1  0  0  0  0
 24 27  1  1  0  0  0
 25 29  1  0  0  0  0
 25 24  1  0  0  0  0
 25 23  1  0  0  0  0
 28 25  1  0  0  0  0
 30 36  1  0  0  0  0
 31 23  1  0  0  0  0
 31 30  2  0  0  0  0
 32 31  1  0  0  0  0
 33 32  2  0  0  0  0
 33 34  1  0  0  0  0
 34 35  2  0  0  0  0
 35 30  1  0  0  0  0
 37 32  1  0  0  0  0
 38 34  1  0  0  0  0
M  END
>  <minimizedAffinity>
-5.56963825

$$$$

 OpenBabel03242516473D

 38 42  0  0  1  0  0  0  0  0999 V2000
   36.6520   30.7740   40.0650 C   0  0  0  0  0  0  0  0  0  0  0  0
   35.6420   29.8880   40.1490 N   0  0  0  0  0  0  0  0  0  0  0  0
   35.8010   29.0810   41.2070 C   0  0  0  0  0  0  0  0  0  0  0  0
   36.9530   29.4740   41.8120 N   0  0  0  0  0  0  0  0  0  0  0  0
   37.4780   30.4860   41.1430 N   0  0  0  0  0  0  0  0  0  0  0  0
   35.2250   28.2590   41.6140 H   0  0  0  0  0  0  0  0  0  0  0  0
   39.8060   29.8340   42.9630 O   0  0  0  0  0  0  0  0  0  0  0  0
   39.0330   28.8310   42.8920 C   0  0  0  0  0  0  0  0  0  0  0  0
   37.5560   28.9080   43.0060 C   0  0  2  0  0  0  0  0  0  0  0  0
   37.1440   27.4520   43.1840 C   0  0  0  0  0  0  0  0  0  0  0  0
   38.1840   26.7420   42.3120 C   0  0  0  0  0  0  0  0  0  0  0  0
   39.3900   27.4500   42.6950 N   0  0  0  0  0  0  0  0  0  0  0  0
   37.2160   29.4300   43.9280 H   0  0  0  0  0  0  0  0  0  0  0  0
   37.2450   27.1380   44.2270 H   0  0  0  0  0  0  0  0  0  0  0  0
   36.1540   27.2300   42.7350 H   0  0  0  0  0  0  0  0  0  0  0  0
   37.9160   26.8440   41.2540 H   0  0  0  0  0  0  0  0  0  0  0  0
   38.2510   25.7040   42.6700 H   0  0  0  0  0  0  0  0  0  0  0  0
   40.7080   26.9290   42.8600 C   0  0  0  0  0  3  0  0  0  0  0  0
   40.6790   25.4300   43.1880 C   0  0  0  0  0  2  0  0  0  0  0  0
   42.1870   25.1650   43.1590 C   0  0  0  0  0  2  0  0  0  0  0  0
   42.7150   26.0600   42.0450 C   0  0  0  0  0  2  0  0  0  0  0  0
   41.5210   26.9050   41.6020 C   0  0  0  0  0  2  0  0  0  0  0  0
   37.5020   31.6770   37.7480 C   0  0  1  0  0  0  0  0  0  0  0  0
   36.9190   31.8520   39.1060 C   0  0  2  0  0  0  0  0  0  0  0  0
   38.2920   32.2310   38.8660 C   0  0  0  0  0  0  0  0  0  0  0  0
   37.0760   32.3640   36.9820 H   0  0  0  0  0  0  0  0  0  0  0  0
   36.1620   32.6860   39.2200 H   0  0  0  0  0  0  0  0  0  0  0  0
   39.1280   31.6800   39.3250 H   0  0  0  0  0  0  0  0  0  0  0  0
   38.5440   33.3300   38.8040 H   0  0  0  0  0  0  0  0  0  0  0  0
   36.8970   29.7620   36.2840 C   0  0  0  0  0  0  0  0  0  0  0  0
   37.7890   30.3400   37.1860 C   0  0  0  0  0  0  0  0  0  0  0  0
   38.9160   29.6170   37.4910 C   0  0  0  0  0  0  0  0  0  0  0  0
   39.0830   28.4060   36.9010 N   0  0  0  0  0  0  0  0  0  0  0  0
   38.2220   27.8740   36.0460 C   0  0  0  0  0  0  0  0  0  0  0  0
   37.1100   28.5770   35.7400 N   0  0  0  0  0  0  0  0  0  0  0  0
   35.9660   30.2600   35.9750 H   0  0  0  0  0  0  0  0  0  0  0  0
   39.6110   30.0410   38.1790 H   0  0  0  0  0  0  0  0  0  0  0  0
   38.5600   26.9080   35.7070 H   0  0  0  0  0  0  0  0  0  0  0  0
  1  2  1  0  0  0  0
  1  5  2  0  0  0  0
  2  3  2  0  0  0  0
  3  6  1  0  0  0  0
  3  4  1  0  0  0  0
  4  9  1  0  0  0  0
  5  4  1  0  0  0  0
  8  7  2  0  0  0  0
  8  9  1  0  0  0  0
  9 10  1  0  0  0  0
  9 13  1  1  0  0  0
 10 14  1  0  0  0  0
 11 17  1  0  0  0  0
 11 12  1  0  0  0  0
 11 10  1  0  0  0  0
 12 18  1  0  0  0  0
 12  8  1  0  0  0  0
 15 10  1  0  0  0  0
 16 11  1  0  0  0  0
 18 19  1  0  0  0  0
 20 19  1  0  0  0  0
 21 20  1  0  0  0  0
 22 21  1  0  0  0  0
 22 18  1  0  0  0  0
 23 26  1  6  0  0  0
 23 25  1  0  0  0  0
 23 24  1  0  0  0  0
 24 27  1  1  0  0  0
 24  1  1  0  0  0  0
 25 24  1  0  0  0  0
 25 28  1  0  0  0  0
 29 25  1  0  0  0  0
 30 31  1  0  0  0  0
 31 32  2  0  0  0  0
 31 23  1  0  0  0  0
 32 37  1  0  0  0  0
 33 32  1  0  0  0  0
 34 33  2  0  0  0  0
 35 34  1  0  0  0  0
 35 30  2  0  0  0  0
 36 30  1  0  0  0  0
 38 34  1  0  0  0  0
M  END
>  <minimizedAffinity>
-5.54471779

$$$$
