
 OpenBabel03252503433D

 30 32  0  0  1  0  0  0  0  0999 V2000
   44.6460   35.3830   45.1860 C   0  0  0  0  0  0  0  0  0  0  0  0
   45.3900   35.2340   44.0060 C   0  0  0  0  0  0  0  0  0  0  0  0
   46.2310   34.1170   43.9270 C   0  0  0  0  0  0  0  0  0  0  0  0
   46.2920   33.2520   44.9570 N   0  0  0  0  0  0  0  0  0  0  0  0
   45.5660   33.4250   46.0740 C   0  0  0  0  0  0  0  0  0  0  0  0
   44.7270   34.4980   46.2080 N   0  0  0  0  0  0  0  0  0  0  0  0
   43.9650   36.1830   45.3870 H   0  0  0  0  0  0  0  0  0  0  0  0
   46.7890   34.0220   43.0210 H   0  0  0  0  0  0  0  0  0  0  0  0
   47.1880   32.1550   47.4800 C   0  0  2  0  0  0  0  0  0  0  0  0
   45.7090   32.4080   47.1150 C   0  0  1  0  0  0  0  0  0  0  0  0
   45.2170   32.7630   48.3400 O   0  0  0  0  0  0  0  0  0  0  0  0
   45.7140   31.8830   49.2560 C   0  0  0  0  0  0  0  0  0  0  0  0
   46.9220   31.1980   48.6550 C   0  0  2  0  0  0  0  0  0  0  0  0
   47.7400   31.6920   46.6650 H   0  0  0  0  0  0  0  0  0  0  0  0
   45.3150   31.4390   46.7370 H   0  0  0  0  0  0  0  0  0  0  0  0
   46.0970   32.4890   50.1170 H   0  0  0  0  0  0  0  0  0  0  0  0
   44.9860   31.1910   49.6830 H   0  0  0  0  0  0  0  0  0  0  0  0
   46.5880   30.2320   48.2240 H   0  0  0  0  0  0  0  0  0  0  0  0
   47.7200   33.2830   48.0110 O   0  0  0  0  0  0  0  0  0  0  0  0
   47.0490   33.8360   48.4580 H   0  0  0  0  0  0  0  0  0  0  0  0
   47.9930   31.0850   49.4920 O   0  0  0  0  0  0  0  0  0  0  0  0
   48.7770   30.8650   48.9500 H   0  0  0  0  0  0  0  0  0  0  0  0
   45.2120   36.2630   42.9740 C   0  0  0  0  0  0  0  0  0  0  0  0
   44.7260   37.1560   43.3450 H   0  0  0  0  0  0  0  0  0  0  0  0
   46.2300   36.5660   42.6370 H   0  0  0  0  0  0  0  0  0  0  0  0
   44.5500   35.6680   41.7520 C   0  0  0  0  0  0  0  0  0  0  0  0
   43.1530   35.1530   42.0890 C   0  0  0  0  0  0  0  0  0  0  0  0
   43.0470   33.7770   41.4890 C   0  0  0  0  0  0  0  0  0  0  0  0
   44.1180   33.8120   40.4170 C   0  0  0  0  0  0  0  0  0  0  0  0
   45.2650   34.4700   41.1950 C   0  0  0  0  0  0  0  0  0  0  0  0
  1  7  1  0  0  0  0
  1  6  1  0  0  0  0
  2  1  2  0  0  0  0
  3  2  1  0  0  0  0
  3  4  2  0  0  0  0
  4  5  1  0  0  0  0
  5  6  2  0  0  0  0
  5 10  1  0  0  0  0
  8  3  1  0  0  0  0
  9 14  1  6  0  0  0
  9 19  1  0  0  0  0
  9 13  1  0  0  0  0
 10 15  1  6  0  0  0
 10  9  1  0  0  0  0
 10 11  1  0  0  0  0
 11 12  1  0  0  0  0
 12 17  1  0  0  0  0
 12 16  1  0  0  0  0
 13 18  1  6  0  0  0
 13 12  1  0  0  0  0
 13 21  1  0  0  0  0
 19 20  1  0  0  0  0
 22 21  1  0  0  0  0
 23 24  1  0  0  0  0
 23  2  1  0  0  0  0
 25 23  1  0  0  0  0
 26 27  1  0  0  0  0
 26 23  1  0  0  0  0
 28 27  1  0  0  0  0
 29 30  1  0  0  0  0
 29 28  1  0  0  0  0
 30 26  1  0  0  0  0
M  END
>  <minimizedAffinity>
-5.99363804

>  <minimizedRMSD>
0.497184485

$$$$
