
 OpenBabel03242519423D

 25 27  0  0  1  0  0  0  0  0999 V2000
   48.0570   32.9380   41.8400 O   0  0  0  0  0  0  0  0  0  0  0  0
   47.1740   34.0770   41.3100 P   0  0  2  0  0  0  0  0  0  0  0  0
   45.5840   33.8700   41.9080 O   0  0  0  0  0  0  0  0  0  0  0  0
   44.3920   35.9220   44.6730 C   0  0  0  0  0  0  0  0  0  0  0  0
   44.6800   35.4890   43.3590 C   0  0  0  0  0  0  0  0  0  0  0  0
   45.3200   34.2560   43.2030 C   0  0  0  0  0  0  0  0  0  0  0  0
   45.6310   33.5410   44.3070 N   0  0  0  0  0  0  0  0  0  0  0  0
   45.3450   33.9800   45.5540 C   0  0  0  0  0  0  0  0  0  0  0  0
   44.7340   35.1520   45.7500 N   0  0  0  0  0  0  0  0  0  0  0  0
   43.8980   36.8720   44.8120 H   0  0  0  0  0  0  0  0  0  0  0  0
   44.3700   36.1690   42.5640 H   0  0  0  0  0  0  0  0  0  0  0  0
   45.6660   33.2810   46.3060 H   0  0  0  0  0  0  0  0  0  0  0  0
   47.1450   34.0180   39.6470 O   0  0  0  0  0  0  0  0  0  0  0  0
   46.6790   33.0270   38.8270 C   0  0  1  0  0  3  0  0  0  0  0  0
   45.8200   33.3580   37.8730 O   0  0  0  0  0  0  0  0  0  0  0  0
   46.5010   31.6890   38.2580 C   0  0  0  0  0  0  0  0  0  0  0  0
   47.5380   30.6990   38.7330 C   0  0  0  0  0  2  0  0  0  0  0  0
   47.0010   30.2270   40.0550 C   0  0  0  0  0  2  0  0  0  0  0  0
   45.6080   30.7140   40.1810 C   0  0  0  0  0  2  0  0  0  0  0  0
   45.1870   31.1080   38.8090 C   0  0  0  0  0  2  0  0  0  0  0  0
   47.7860   35.4880   41.9050 O   0  0  0  0  0  0  0  0  0  0  0  0
   49.0420   35.7910   41.4060 C   0  0  0  0  0  0  0  0  0  0  0  0
   49.4790   37.0580   41.7760 F   0  0  0  0  0  0  0  0  0  0  0  0
   49.9290   34.8190   41.7430 F   0  0  0  0  0  0  0  0  0  0  0  0
   48.9160   35.8260   40.0260 F   0  0  0  0  0  0  0  0  0  0  0  0
  2  1  2  1  0  0  0
  2 21  1  0  0  0  0
  2  3  1  0  0  0  0
  3  6  1  0  0  0  0
  4 10  1  0  0  0  0
  4  9  1  0  0  0  0
  5  4  2  0  0  0  0
  6  5  1  0  0  0  0
  6  7  2  0  0  0  0
  7  8  1  0  0  0  0
  8  9  2  0  0  0  0
  8 12  1  0  0  0  0
 11  5  1  0  0  0  0
 13  2  1  0  0  0  0
 14 13  1  6  0  0  0
 15 16  1  0  0  0  0
 15 14  1  0  0  0  0
 16 17  1  0  0  0  0
 16 20  1  0  0  0  0
 16 14  1  0  0  0  0
 17 18  1  0  0  0  0
 18 19  1  0  0  0  0
 20 19  1  0  0  0  0
 22 24  1  0  0  0  0
 22 23  1  0  0  0  0
 22 21  1  0  0  0  0
 25 22  1  0  0  0  0
M  END
>  <minimizedAffinity>
-4.71447325

>  <minimizedRMSD>
0.270884991

$$$$
