
 OpenBabel03252503433D

 30 32  0  0  1  0  0  0  0  0999 V2000
   44.6830   35.3190   45.2720 C   0  0  0  0  0  0  0  0  0  0  0  0
   45.4450   35.1570   44.1050 C   0  0  0  0  0  0  0  0  0  0  0  0
   46.2670   34.0240   44.0400 C   0  0  0  0  0  0  0  0  0  0  0  0
   46.2930   33.1580   45.0710 N   0  0  0  0  0  0  0  0  0  0  0  0
   45.5500   33.3430   46.1740 C   0  0  0  0  0  0  0  0  0  0  0  0
   44.7290   34.4320   46.2930 N   0  0  0  0  0  0  0  0  0  0  0  0
   44.0120   36.1310   45.4610 H   0  0  0  0  0  0  0  0  0  0  0  0
   46.8390   33.9200   43.1440 H   0  0  0  0  0  0  0  0  0  0  0  0
   47.1240   31.9830   47.5490 C   0  0  2  0  0  0  0  0  0  0  0  0
   45.6540   32.3240   47.2170 C   0  0  1  0  0  0  0  0  0  0  0  0
   45.2140   32.7120   48.4510 O   0  0  0  0  0  0  0  0  0  0  0  0
   45.6770   31.8070   49.3600 C   0  0  0  0  0  0  0  0  0  0  0  0
   46.8280   31.0470   48.7340 C   0  0  2  0  0  0  0  0  0  0  0  0
   47.6280   31.4840   46.7230 H   0  0  0  0  0  0  0  0  0  0  0  0
   45.1940   31.3790   46.8530 H   0  0  0  0  0  0  0  0  0  0  0  0
   46.1170   32.3910   50.2080 H   0  0  0  0  0  0  0  0  0  0  0  0
   44.9200   31.1630   49.8070 H   0  0  0  0  0  0  0  0  0  0  0  0
   46.4260   30.1020   48.3160 H   0  0  0  0  0  0  0  0  0  0  0  0
   47.7360   33.0780   48.0620 O   0  0  0  0  0  0  0  0  0  0  0  0
   47.1110   33.6720   48.5220 H   0  0  0  0  0  0  0  0  0  0  0  0
   47.9090   30.8730   49.5470 O   0  0  0  0  0  0  0  0  0  0  0  0
   48.6650   30.6030   48.9880 H   0  0  0  0  0  0  0  0  0  0  0  0
   45.3050   36.1890   43.0710 C   0  0  0  0  0  0  0  0  0  0  0  0
   44.8100   37.0830   43.4290 H   0  0  0  0  0  0  0  0  0  0  0  0
   46.3340   36.4900   42.7680 H   0  0  0  0  0  0  0  0  0  0  0  0
   44.6810   35.6010   41.8260 C   0  0  0  0  0  3  0  0  0  0  0  0
   43.3040   35.0180   42.1340 C   0  0  0  0  0  2  0  0  0  0  0  0
   43.2640   33.6550   41.4960 C   0  0  0  0  0  2  0  0  0  0  0  0
   44.3430   33.7650   40.4370 C   0  0  0  0  0  2  0  0  0  0  0  0
   45.4530   34.4500   41.2450 C   0  0  0  0  0  2  0  0  0  0  0  0
  1  7  1  0  0  0  0
  1  6  1  0  0  0  0
  2  1  2  0  0  0  0
  3  2  1  0  0  0  0
  3  4  2  0  0  0  0
  4  5  1  0  0  0  0
  5  6  2  0  0  0  0
  5 10  1  0  0  0  0
  8  3  1  0  0  0  0
  9 14  1  6  0  0  0
  9 19  1  0  0  0  0
  9 13  1  0  0  0  0
 10 15  1  6  0  0  0
 10  9  1  0  0  0  0
 10 11  1  0  0  0  0
 11 12  1  0  0  0  0
 12 17  1  0  0  0  0
 12 16  1  0  0  0  0
 13 18  1  6  0  0  0
 13 12  1  0  0  0  0
 13 21  1  0  0  0  0
 19 20  1  0  0  0  0
 22 21  1  0  0  0  0
 23 24  1  0  0  0  0
 23  2  1  0  0  0  0
 25 23  1  0  0  0  0
 26 27  1  0  0  0  0
 26 23  1  0  0  0  0
 28 27  1  0  0  0  0
 29 30  1  0  0  0  0
 29 28  1  0  0  0  0
 30 26  1  0  0  0  0
M  END
>  <minimizedAffinity>
-5.95014858

>  <minimizedRMSD>
0.516450286

$$$$
