
 OpenBabel03252508343D

 31 33  0  0  1  0  0  0  0  0999 V2000
   44.7750   34.3010   42.1880 N   0  0  0  0  0  0  0  0  0  0  0  0
   45.9240   34.0150   41.3740 C   0  0  1  0  0  0  0  0  0  0  0  0
   45.6380   34.0780   39.9090 C   0  0  0  0  0  0  0  0  0  0  0  0
   44.4060   33.5800   39.4840 N   0  0  0  0  0  0  0  0  0  0  0  0
   43.3220   33.6450   40.3690 C   0  0  0  0  0  0  0  0  0  0  0  0
   43.5860   34.6510   41.4870 C   0  0  0  0  0  0  0  0  0  0  0  0
   46.3330   33.0140   41.6700 H   0  0  0  0  0  0  0  0  0  0  0  0
   46.4650   33.6010   39.3490 H   0  0  0  0  0  0  0  0  0  0  0  0
   45.6960   35.1670   39.6110 H   0  0  0  0  0  0  0  0  0  0  0  0
   44.1290   34.0630   38.5770 H   0  0  0  0  0  0  0  0  0  0  0  0
   43.2310   32.6560   40.9040 H   0  0  0  0  0  0  0  0  0  0  0  0
   42.3350   33.8130   39.9220 H   0  0  0  0  0  0  0  0  0  0  0  0
   43.6480   35.6820   41.0800 H   0  0  0  0  0  0  0  0  0  0  0  0
   42.7390   34.6080   42.2230 H   0  0  0  0  0  0  0  0  0  0  0  0
   44.4970   35.2750   44.3470 C   0  0  0  0  0  0  0  0  0  0  0  0
   44.9380   34.2060   43.5810 C   0  0  0  0  0  0  0  0  0  0  0  0
   45.5130   33.1170   44.2680 C   0  0  0  0  0  0  0  0  0  0  0  0
   45.6120   33.1510   45.6170 N   0  0  0  0  0  0  0  0  0  0  0  0
   45.1710   34.2070   46.3180 C   0  0  0  0  0  0  0  0  0  0  0  0
   44.6250   35.2500   45.6950 N   0  0  0  0  0  0  0  0  0  0  0  0
   44.0430   36.1630   43.9540 H   0  0  0  0  0  0  0  0  0  0  0  0
   45.8370   32.3170   43.6320 H   0  0  0  0  0  0  0  0  0  0  0  0
   45.2950   34.1410   47.3960 H   0  0  0  0  0  0  0  0  0  0  0  0
   46.9760   35.0570   41.6640 C   0  0  0  0  0  0  0  0  0  0  0  0
   47.1710   35.0030   42.7620 H   0  0  0  0  0  0  0  0  0  0  0  0
   46.6200   36.0590   41.4210 H   0  0  0  0  0  0  0  0  0  0  0  0
   48.2960   34.7580   41.0020 C   0  0  0  0  0  3  0  0  0  0  0  0
   49.2700   35.8190   41.5280 C   0  0  0  0  0  2  0  0  0  0  0  0
   49.9380   35.1230   42.6730 C   0  0  0  0  0  2  0  0  0  0  0  0
   50.1770   33.7390   42.1490 C   0  0  0  0  0  2  0  0  0  0  0  0
   48.8780   33.4500   41.4210 C   0  0  0  0  0  2  0  0  0  0  0  0
  1 16  1  0  0  0  0
  2 24  1  0  0  0  0
  2  7  1  1  0  0  0
  2  1  1  0  0  0  0
  3  2  1  0  0  0  0
  4  3  1  0  0  0  0
  4  5  1  0  0  0  0
  5 11  1  0  0  0  0
  5  6  1  0  0  0  0
  6  1  1  0  0  0  0
  6 14  1  0  0  0  0
  8  3  1  0  0  0  0
  9  3  1  0  0  0  0
 10  4  1  0  0  0  0
 12  5  1  0  0  0  0
 13  6  1  0  0  0  0
 15 20  1  0  0  0  0
 16 17  1  0  0  0  0
 16 15  2  0  0  0  0
 17 18  2  0  0  0  0
 18 19  1  0  0  0  0
 19 23  1  0  0  0  0
 20 19  2  0  0  0  0
 21 15  1  0  0  0  0
 22 17  1  0  0  0  0
 24 25  1  0  0  0  0
 26 24  1  0  0  0  0
 27 31  1  0  0  0  0
 27 28  1  0  0  0  0
 27 24  1  0  0  0  0
 28 29  1  0  0  0  0
 30 29  1  0  0  0  0
 31 30  1  0  0  0  0
M  END
>  <minimizedAffinity>
-4.94462442

>  <minimizedRMSD>
1.52235115

$$$$
