
 OpenBabel03252508343D

 31 33  0  0  1  0  0  0  0  0999 V2000
   44.1520   34.4170   41.4620 N   0  0  0  0  0  0  0  0  0  0  0  0
   43.8270   33.5840   40.3360 C   0  0  1  0  0  0  0  0  0  0  0  0
   42.7920   34.1830   39.4410 C   0  0  0  0  0  0  0  0  0  0  0  0
   41.7460   34.8710   40.0560 N   0  0  0  0  0  0  0  0  0  0  0  0
   41.9960   35.4990   41.2840 C   0  0  0  0  0  0  0  0  0  0  0  0
   43.4950   35.6790   41.5130 C   0  0  0  0  0  0  0  0  0  0  0  0
   43.5120   32.5770   40.7140 H   0  0  0  0  0  0  0  0  0  0  0  0
   42.3980   33.4060   38.7590 H   0  0  0  0  0  0  0  0  0  0  0  0
   43.3290   34.9030   38.7550 H   0  0  0  0  0  0  0  0  0  0  0  0
   41.3620   35.5980   39.3800 H   0  0  0  0  0  0  0  0  0  0  0  0
   41.6710   34.8090   42.1160 H   0  0  0  0  0  0  0  0  0  0  0  0
   41.4600   36.4370   41.4720 H   0  0  0  0  0  0  0  0  0  0  0  0
   43.9230   36.3860   40.7730 H   0  0  0  0  0  0  0  0  0  0  0  0
   43.6580   36.0980   42.5430 H   0  0  0  0  0  0  0  0  0  0  0  0
   46.1930   34.6790   42.6680 C   0  0  0  0  0  0  0  0  0  0  0  0
   45.0750   33.9060   42.3900 C   0  0  0  0  0  0  0  0  0  0  0  0
   44.9650   32.6710   43.0640 C   0  0  0  0  0  0  0  0  0  0  0  0
   45.9280   32.2950   43.9370 N   0  0  0  0  0  0  0  0  0  0  0  0
   46.9920   33.0760   44.1750 C   0  0  0  0  0  0  0  0  0  0  0  0
   47.1230   34.2460   43.5520 N   0  0  0  0  0  0  0  0  0  0  0  0
   46.4000   35.6340   42.2270 H   0  0  0  0  0  0  0  0  0  0  0  0
   44.0840   32.1120   42.8150 H   0  0  0  0  0  0  0  0  0  0  0  0
   47.7100   32.6870   44.8910 H   0  0  0  0  0  0  0  0  0  0  0  0
   45.0770   33.4070   39.5090 C   0  0  0  0  0  0  0  0  0  0  0  0
   45.9340   33.6260   40.1910 H   0  0  0  0  0  0  0  0  0  0  0  0
   45.1050   34.1080   38.6750 H   0  0  0  0  0  0  0  0  0  0  0  0
   45.2780   31.9850   39.0510 C   0  0  0  0  0  3  0  0  0  0  0  0
   45.1600   32.0260   37.5220 C   0  0  0  0  0  2  0  0  0  0  0  0
   46.5850   32.1370   37.0790 C   0  0  0  0  0  2  0  0  0  0  0  0
   47.3080   31.1880   37.9860 C   0  0  0  0  0  2  0  0  0  0  0  0
   46.6510   31.4690   39.3220 C   0  0  0  0  0  2  0  0  0  0  0  0
  1  6  1  0  0  0  0
  1 16  1  0  0  0  0
  2  7  1  1  0  0  0
  2  1  1  0  0  0  0
  3  4  1  0  0  0  0
  3  2  1  0  0  0  0
  4  5  1  0  0  0  0
  5 12  1  0  0  0  0
  5  6  1  0  0  0  0
  5 11  1  0  0  0  0
  6 14  1  0  0  0  0
  8  3  1  0  0  0  0
  9  3  1  0  0  0  0
 10  4  1  0  0  0  0
 13  6  1  0  0  0  0
 15 20  1  0  0  0  0
 16 15  2  0  0  0  0
 16 17  1  0  0  0  0
 17 18  2  0  0  0  0
 18 19  1  0  0  0  0
 19 23  1  0  0  0  0
 20 19  2  0  0  0  0
 21 15  1  0  0  0  0
 22 17  1  0  0  0  0
 24 25  1  0  0  0  0
 24  2  1  0  0  0  0
 26 24  1  0  0  0  0
 27 31  1  0  0  0  0
 27 24  1  0  0  0  0
 28 27  1  0  0  0  0
 29 28  1  0  0  0  0
 29 30  1  0  0  0  0
 30 31  1  0  0  0  0
M  END
>  <minimizedAffinity>
-3.35756278

>  <minimizedRMSD>
4.49541998

$$$$
