
 OpenBabel03242510503D

 18 19  0  0  0  0  0  0  0  0999 V2000
   44.5590   36.3180   44.2880 C   0  0  0  0  0  0  0  0  0  0  0  0
   45.2570   36.0290   43.1030 C   0  0  0  0  0  0  0  0  0  0  0  0
   46.0120   34.8400   43.0720 C   0  0  0  0  0  0  0  0  0  0  0  0
   46.0160   34.0550   44.1810 N   0  0  0  0  0  0  0  0  0  0  0  0
   45.3380   34.3680   45.2890 C   0  0  0  0  0  0  0  0  0  0  0  0
   44.6050   35.4980   45.3530 N   0  0  0  0  0  0  0  0  0  0  0  0
   46.4500   32.4920   46.3860 C   0  0  0  0  0  0  0  0  0  0  0  0
   47.2860   32.3620   45.4750 O   0  0  0  0  0  0  0  0  0  0  0  0
   45.4010   33.4760   46.4150 N   0  0  0  0  0  0  0  0  0  0  0  0
   43.9800   37.2510   44.2850 H   0  0  0  0  0  0  0  0  0  0  0  0
   45.2630   36.6380   42.2220 H   0  0  0  0  0  0  0  0  0  0  0  0
   46.5950   34.5010   42.2200 H   0  0  0  0  0  0  0  0  0  0  0  0
   44.7010   33.5830   47.1800 H   0  0  0  0  0  0  0  0  0  0  0  0
   46.4270   31.6120   47.6070 C   0  0  0  0  0  0  0  0  0  0  0  0
   45.5970   30.3840   47.4000 C   0  0  0  0  0  0  0  0  0  0  0  0
   45.0470   30.0630   48.7580 C   0  0  0  0  0  0  0  0  0  0  0  0
   45.2710   31.2700   49.6290 C   0  0  0  0  0  0  0  0  0  0  0  0
   45.6420   32.3680   48.6570 C   0  0  0  0  0  0  0  0  0  0  0  0
  1  6  1  0  0  0  0
  2  1  2  0  0  0  0
  3  2  1  0  0  0  0
  3  4  2  0  0  0  0
  4  5  1  0  0  0  0
  5  6  2  0  0  0  0
  5  9  1  0  0  0  0
  7  9  1  0  0  0  0
  7 14  1  0  0  0  0
  8  7  2  0  0  0  0
  9 13  1  0  0  0  0
 10  1  1  0  0  0  0
 11  2  1  0  0  0  0
 12  3  1  0  0  0  0
 14 18  1  0  0  0  0
 15 14  1  0  0  0  0
 15 16  1  0  0  0  0
 16 17  1  0  0  0  0
 18 17  1  0  0  0  0
M  END
>  <minimizedAffinity>
-5.56399155

>  <minimizedRMSD>
0.732562602

$$$$
