
 OpenBabel03252505433D

 38 41  0  0  1  0  0  0  0  0999 V2000
   43.9610   34.6600   42.3680 C   0  0  1  0  0  0  0  0  0  0  0  0
   44.1560   36.1460   41.9220 C   0  0  0  0  0  0  0  0  0  0  0  0
   44.0000   34.9660   40.9680 C   0  0  2  0  0  0  0  0  0  0  0  0
   42.9750   34.5460   42.9010 H   0  0  0  0  0  0  0  0  0  0  0  0
   45.1410   36.5770   42.1010 H   0  0  0  0  0  0  0  0  0  0  0  0
   43.3090   36.8230   42.0000 H   0  0  0  0  0  0  0  0  0  0  0  0
   44.8960   34.8660   40.3310 H   0  0  0  0  0  0  0  0  0  0  0  0
   45.1000   34.1080   43.1250 C   0  0  0  0  0  0  0  0  0  0  0  0
   46.3390   34.0070   42.4690 C   0  0  0  0  0  0  0  0  0  0  0  0
   47.4250   33.4920   43.1680 C   0  0  0  0  0  0  0  0  0  0  0  0
   47.2320   33.1110   44.4560 N   0  0  0  0  0  0  0  0  0  0  0  0
   46.0450   33.2200   45.0510 C   0  0  0  0  0  0  0  0  0  0  0  0
   45.0130   33.7160   44.3650 N   0  0  0  0  0  0  0  0  0  0  0  0
   46.5170   34.3050   41.4420 H   0  0  0  0  0  0  0  0  0  0  0  0
   48.4090   33.3970   42.6930 H   0  0  0  0  0  0  0  0  0  0  0  0
   46.0350   32.7490   46.4780 C   0  0  0  0  0  0  0  0  0  0  0  0
   45.0630   33.4040   47.2210 F   0  0  0  0  0  0  0  0  0  0  0  0
   47.2720   33.0890   47.0740 F   0  0  0  0  0  0  0  0  0  0  0  0
   45.9510   31.3850   46.5220 F   0  0  0  0  0  0  0  0  0  0  0  0
   42.6670   34.8420   40.2620 C   0  0  0  0  0  0  0  0  0  0  0  0
   42.5260   35.2020   38.9440 C   0  0  0  0  0  0  0  0  0  0  0  0
   41.3310   35.0750   38.2660 C   0  0  0  0  0  0  0  0  0  0  0  0
   40.2780   34.5790   38.9350 N   0  0  0  0  0  0  0  0  0  0  0  0
   40.4030   34.2160   40.2420 C   0  0  0  0  0  0  0  0  0  0  0  0
   41.5760   34.3410   40.9120 N   0  0  0  0  0  0  0  0  0  0  0  0
   43.3970   35.5970   38.4410 H   0  0  0  0  0  0  0  0  0  0  0  0
   41.2280   35.3620   37.2260 H   0  0  0  0  0  0  0  0  0  0  0  0
   39.2740   33.6430   41.0370 C   0  0  0  0  0  0  0  0  0  0  0  0
   38.7180   34.4560   41.4990 H   0  0  0  0  0  0  0  0  0  0  0  0
   39.6870   32.9900   41.8310 H   0  0  0  0  0  0  0  0  0  0  0  0
   38.4390   32.7450   40.1580 C   0  0  0  0  0  0  0  0  0  0  0  0
   37.4550   33.2400   40.0180 H   0  0  0  0  0  0  0  0  0  0  0  0
   38.9170   32.6580   39.1830 H   0  0  0  0  0  0  0  0  0  0  0  0
   38.1680   31.3980   40.7640 C   0  0  0  0  0  3  0  0  0  0  0  0
   39.3080   30.9120   41.5980 C   0  0  0  0  0  2  0  0  0  0  0  0
   40.0580   29.8710   40.8270 C   0  0  0  0  0  2  0  0  0  0  0  0
   39.1790   29.4830   39.6700 C   0  0  0  0  0  2  0  0  0  0  0  0
   37.9260   30.3170   39.7540 C   0  0  0  0  0  2  0  0  0  0  0  0
  1  4  1  1  0  0  0
  1  8  1  0  0  0  0
  2  6  1  0  0  0  0
  2  5  1  0  0  0  0
  2  1  1  0  0  0  0
  3  7  1  6  0  0  0
  3  2  1  0  0  0  0
  3  1  1  0  0  0  0
  8 13  1  0  0  0  0
  9  8  2  0  0  0  0
  9 10  1  0  0  0  0
 10 11  2  0  0  0  0
 11 12  1  0  0  0  0
 12 16  1  0  0  0  0
 13 12  2  0  0  0  0
 14  9  1  0  0  0  0
 15 10  1  0  0  0  0
 16 19  1  0  0  0  0
 16 18  1  0  0  0  0
 16 17  1  0  0  0  0
 20 25  1  0  0  0  0
 20  3  1  0  0  0  0
 21 20  2  0  0  0  0
 22 23  2  0  0  0  0
 22 21  1  0  0  0  0
 23 24  1  0  0  0  0
 24 25  2  0  0  0  0
 24 28  1  0  0  0  0
 26 21  1  0  0  0  0
 27 22  1  0  0  0  0
 28 29  1  0  0  0  0
 28 30  1  0  0  0  0
 31 34  1  0  0  0  0
 31 28  1  0  0  0  0
 32 31  1  0  0  0  0
 33 31  1  0  0  0  0
 34 35  1  0  0  0  0
 36 35  1  0  0  0  0
 37 38  1  0  0  0  0
 37 36  1  0  0  0  0
 38 34  1  0  0  0  0
M  END
>  <minimizedAffinity>
-5.71715641

>  <minimizedRMSD>
0.917707443

$$$$
