
 OpenBabel03252505433D

 38 41  0  0  1  0  0  0  0  0999 V2000
   44.0290   34.6670   42.4400 C   0  0  1  0  0  0  0  0  0  0  0  0
   44.2330   36.1450   41.9690 C   0  0  0  0  0  0  0  0  0  0  0  0
   44.0660   34.9500   41.0350 C   0  0  2  0  0  0  0  0  0  0  0  0
   43.0440   34.5680   42.9770 H   0  0  0  0  0  0  0  0  0  0  0  0
   45.2200   36.5720   42.1390 H   0  0  0  0  0  0  0  0  0  0  0  0
   43.3890   36.8280   42.0390 H   0  0  0  0  0  0  0  0  0  0  0  0
   44.9600   34.8350   40.3980 H   0  0  0  0  0  0  0  0  0  0  0  0
   45.1670   34.1200   43.2030 C   0  0  0  0  0  0  0  0  0  0  0  0
   46.4160   34.0520   42.5620 C   0  0  0  0  0  0  0  0  0  0  0  0
   47.5010   33.5420   43.2670 C   0  0  0  0  0  0  0  0  0  0  0  0
   47.2970   33.1340   44.5450 N   0  0  0  0  0  0  0  0  0  0  0  0
   46.0990   33.2120   45.1250 C   0  0  0  0  0  0  0  0  0  0  0  0
   45.0690   33.7030   44.4330 N   0  0  0  0  0  0  0  0  0  0  0  0
   46.6030   34.3730   41.5440 H   0  0  0  0  0  0  0  0  0  0  0  0
   48.4930   33.4730   42.8040 H   0  0  0  0  0  0  0  0  0  0  0  0
   46.0780   32.7150   46.5430 C   0  0  0  0  0  0  0  0  0  0  0  0
   45.1070   33.3620   47.2930 F   0  0  0  0  0  0  0  0  0  0  0  0
   47.3140   33.0340   47.1520 F   0  0  0  0  0  0  0  0  0  0  0  0
   45.9830   31.3500   46.5600 F   0  0  0  0  0  0  0  0  0  0  0  0
   42.7310   34.8240   40.3340 C   0  0  0  0  0  0  0  0  0  0  0  0
   42.5850   35.1770   39.0150 C   0  0  0  0  0  0  0  0  0  0  0  0
   41.3880   35.0470   38.3420 C   0  0  0  0  0  0  0  0  0  0  0  0
   40.3370   34.5550   39.0180 N   0  0  0  0  0  0  0  0  0  0  0  0
   40.4660   34.1990   40.3260 C   0  0  0  0  0  0  0  0  0  0  0  0
   41.6420   34.3270   40.9910 N   0  0  0  0  0  0  0  0  0  0  0  0
   43.4550   35.5690   38.5070 H   0  0  0  0  0  0  0  0  0  0  0  0
   41.2810   35.3280   37.3010 H   0  0  0  0  0  0  0  0  0  0  0  0
   39.3400   33.6310   41.1280 C   0  0  0  0  0  0  0  0  0  0  0  0
   38.8360   34.4400   41.6530 H   0  0  0  0  0  0  0  0  0  0  0  0
   39.7490   32.9170   41.8700 H   0  0  0  0  0  0  0  0  0  0  0  0
   38.4370   32.8210   40.2310 C   0  0  0  0  0  0  0  0  0  0  0  0
   37.4550   33.3380   40.1950 H   0  0  0  0  0  0  0  0  0  0  0  0
   38.8520   32.8090   39.2250 H   0  0  0  0  0  0  0  0  0  0  0  0
   38.1800   31.4310   40.7390 C   0  0  0  0  0  3  0  0  0  0  0  0
   39.3030   30.9170   41.5790 C   0  0  0  0  0  2  0  0  0  0  0  0
   40.1030   29.9460   40.7700 C   0  0  0  0  0  2  0  0  0  0  0  0
   39.2740   29.6140   39.5600 C   0  0  0  0  0  2  0  0  0  0  0  0
   37.9980   30.4140   39.6540 C   0  0  0  0  0  2  0  0  0  0  0  0
  1  4  1  1  0  0  0
  1  8  1  0  0  0  0
  2  6  1  0  0  0  0
  2  5  1  0  0  0  0
  2  1  1  0  0  0  0
  3  7  1  6  0  0  0
  3  2  1  0  0  0  0
  3  1  1  0  0  0  0
  8 13  1  0  0  0  0
  9  8  2  0  0  0  0
  9 10  1  0  0  0  0
 10 11  2  0  0  0  0
 11 12  1  0  0  0  0
 12 16  1  0  0  0  0
 13 12  2  0  0  0  0
 14  9  1  0  0  0  0
 15 10  1  0  0  0  0
 16 19  1  0  0  0  0
 16 18  1  0  0  0  0
 16 17  1  0  0  0  0
 20 25  1  0  0  0  0
 20  3  1  0  0  0  0
 21 20  2  0  0  0  0
 22 21  1  0  0  0  0
 22 23  2  0  0  0  0
 23 24  1  0  0  0  0
 24 25  2  0  0  0  0
 24 28  1  0  0  0  0
 26 21  1  0  0  0  0
 27 22  1  0  0  0  0
 28 29  1  0  0  0  0
 28 30  1  0  0  0  0
 31 34  1  0  0  0  0
 31 28  1  0  0  0  0
 32 31  1  0  0  0  0
 33 31  1  0  0  0  0
 34 35  1  0  0  0  0
 36 35  1  0  0  0  0
 37 38  1  0  0  0  0
 37 36  1  0  0  0  0
 38 34  1  0  0  0  0
M  END
>  <minimizedAffinity>
-5.74029922

>  <minimizedRMSD>
0.878227592

$$$$
