
 OpenBabel03252507553D

 40 43  0  0  1  0  0  0  0  0999 V2000
   47.0730   34.8820   41.9830 C   0  0  2  0  0  0  0  0  0  0  0  0
   46.3450   34.2140   40.8170 C   0  0  0  0  0  0  0  0  0  0  0  0
   47.5620   34.0840   39.8730 C   0  0  0  0  0  0  0  0  0  0  0  0
   48.7080   33.7490   40.7770 C   0  0  1  0  0  0  0  0  0  0  0  0
   48.1880   33.8900   42.1750 C   0  0  0  0  0  0  0  0  0  0  0  0
   47.4180   35.8500   41.6280 H   0  0  0  0  0  0  0  0  0  0  0  0
   45.5790   34.8510   40.3850 H   0  0  0  0  0  0  0  0  0  0  0  0
   46.0550   33.2170   41.1440 H   0  0  0  0  0  0  0  0  0  0  0  0
   47.3460   33.3120   39.1180 H   0  0  0  0  0  0  0  0  0  0  0  0
   47.6680   35.0930   39.4370 H   0  0  0  0  0  0  0  0  0  0  0  0
   49.5190   34.4830   40.5810 H   0  0  0  0  0  0  0  0  0  0  0  0
   47.8500   32.9710   42.6480 H   0  0  0  0  0  0  0  0  0  0  0  0
   48.9860   34.4140   42.7740 H   0  0  0  0  0  0  0  0  0  0  0  0
   44.5130   35.9920   44.5140 C   0  0  0  0  0  0  0  0  0  0  0  0
   45.2590   35.9930   43.3410 C   0  0  0  0  0  0  0  0  0  0  0  0
   46.1960   34.9760   43.1860 C   0  0  0  0  0  0  0  0  0  0  0  0
   46.3620   34.0060   44.1850 N   0  0  0  0  0  0  0  0  0  0  0  0
   45.6040   34.0590   45.3100 C   0  0  0  0  0  0  0  0  0  0  0  0
   44.6840   35.0490   45.4700 N   0  0  0  0  0  0  0  0  0  0  0  0
   43.7750   36.7710   44.6630 H   0  0  0  0  0  0  0  0  0  0  0  0
   45.1540   36.7240   42.5550 H   0  0  0  0  0  0  0  0  0  0  0  0
   45.8110   33.2670   46.0150 H   0  0  0  0  0  0  0  0  0  0  0  0
   49.2340   32.3400   40.6300 C   0  0  2  0  0  0  0  0  0  0  0  0
   50.1830   31.9060   41.6510 C   0  0  0  0  0  0  0  0  0  0  0  0
   50.6160   32.0680   40.2340 C   0  0  1  0  0  0  0  0  0  0  0  0
   48.4660   31.6190   40.3000 H   0  0  0  0  0  0  0  0  0  0  0  0
   50.5440   32.6470   42.4010 H   0  0  0  0  0  0  0  0  0  0  0  0
   50.0860   30.8890   42.0890 H   0  0  0  0  0  0  0  0  0  0  0  0
   51.2540   32.9090   39.8980 H   0  0  0  0  0  0  0  0  0  0  0  0
   50.8550   30.8950   39.4750 O   0  0  0  0  0  0  0  0  0  0  0  0
   50.7760   30.3550   36.9250 O   0  0  0  0  0  0  0  0  0  0  0  0
   51.2950   31.3600   37.9210 P   0  0  1  0  0  0  0  0  0  0  0  0
   50.5940   32.8780   37.5390 O   0  0  0  0  0  0  0  0  0  0  0  0
   51.1550   33.5490   38.0310 H   0  0  0  0  0  0  0  0  0  0  0  0
   52.9350   31.5180   37.7010 O   0  0  0  0  0  0  0  0  0  0  0  0
   53.4680   30.2180   37.6400 C   0  0  0  0  0  3  0  0  0  0  0  0
   54.4570   29.9830   38.7500 C   0  0  0  0  0  2  0  0  0  0  0  0
   55.8140   29.9030   38.0780 C   0  0  0  0  0  2  0  0  0  0  0  0
   55.6120   30.5350   36.7180 C   0  0  0  0  0  2  0  0  0  0  0  0
   54.2400   30.0120   36.3530 C   0  0  0  0  0  2  0  0  0  0  0  0
  1  6  1  6  0  0  0
  1  5  1  0  0  0  0
  1 16  1  0  0  0  0
  2  8  1  0  0  0  0
  2  1  1  0  0  0  0
  3  4  1  0  0  0  0
  3  2  1  0  0  0  0
  4 11  1  6  0  0  0
  4  5  1  0  0  0  0
  5 12  1  0  0  0  0
  5 13  1  0  0  0  0
  7  2  1  0  0  0  0
  9  3  1  0  0  0  0
 10  3  1  0  0  0  0
 14 20  1  0  0  0  0
 14 19  1  0  0  0  0
 15 14  2  0  0  0  0
 16 15  1  0  0  0  0
 16 17  2  0  0  0  0
 17 18  1  0  0  0  0
 18 19  2  0  0  0  0
 18 22  1  0  0  0  0
 21 15  1  0  0  0  0
 23 26  1  6  0  0  0
 23  4  1  0  0  0  0
 23 24  1  0  0  0  0
 24 28  1  0  0  0  0
 24 27  1  0  0  0  0
 25 29  1  6  0  0  0
 25 23  1  0  0  0  0
 25 24  1  0  0  0  0
 30 25  1  0  0  0  0
 32 31  2  6  0  0  0
 32 30  1  0  0  0  0
 33 32  1  0  0  0  0
 33 34  1  0  0  0  0
 35 32  1  0  0  0  0
 36 35  1  0  0  0  0
 36 37  1  0  0  0  0
 38 37  1  0  0  0  0
 39 38  1  0  0  0  0
 40 39  1  0  0  0  0
 40 36  1  0  0  0  0
M  END
>  <minimizedAffinity>
-5.38329554

>  <minimizedRMSD>
1.49715376

$$$$
