
 OpenBabel03242518553D

 38 40  0  0  1  0  0  0  0  0999 V2000
   45.7810   31.2530   46.6250 C   0  0  2  0  0  0  0  0  0  0  0  0
   45.9710   30.4360   47.8630 C   0  0  0  0  0  0  0  0  0  0  0  0
   45.1730   29.1930   47.6930 C   0  0  0  0  0  0  0  0  0  0  0  0
   44.3520   29.1160   46.4500 C   0  0  0  0  0  0  0  0  0  0  0  0
   45.2180   29.3260   45.2390 C   0  0  0  0  0  0  0  0  0  0  0  0
   46.1680   30.4140   45.4220 C   0  0  2  0  0  0  0  0  0  0  0  0
   44.6970   31.4410   46.4820 H   0  0  0  0  0  0  0  0  0  0  0  0
   45.5850   31.0720   48.7090 H   0  0  0  0  0  0  0  0  0  0  0  0
   47.0340   30.2560   48.1210 H   0  0  0  0  0  0  0  0  0  0  0  0
   44.4230   29.1650   48.5400 H   0  0  0  0  0  0  0  0  0  0  0  0
   45.7430   28.2420   47.8520 H   0  0  0  0  0  0  0  0  0  0  0  0
   43.9220   28.0890   46.4170 H   0  0  0  0  0  0  0  0  0  0  0  0
   43.4720   29.7910   46.4820 H   0  0  0  0  0  0  0  0  0  0  0  0
   44.4970   29.6190   44.4180 H   0  0  0  0  0  0  0  0  0  0  0  0
   45.5980   28.3370   44.9280 H   0  0  0  0  0  0  0  0  0  0  0  0
   46.2390   31.1080   44.5730 H   0  0  0  0  0  0  0  0  0  0  0  0
   47.4950   29.7740   45.6440 C   0  0  0  0  0  0  0  0  0  0  0  0
   47.4420   28.7710   46.1260 H   0  0  0  0  0  0  0  0  0  0  0  0
   48.0660   30.4040   46.3560 H   0  0  0  0  0  0  0  0  0  0  0  0
   48.3380   29.5820   44.4180 C   0  0  0  0  0  3  0  0  0  0  0  0
   48.5040   30.8390   43.6020 C   0  0  0  0  0  2  0  0  0  0  0  0
   49.4950   30.2990   42.5660 C   0  0  0  0  0  2  0  0  0  0  0  0
   50.5190   29.6620   43.4900 C   0  0  0  0  0  2  0  0  0  0  0  0
   49.8110   29.3680   44.7880 C   0  0  0  0  0  2  0  0  0  0  0  0
   46.4750   32.5660   46.6510 C   0  0  0  0  0  0  0  0  0  0  0  0
   47.4070   32.8340   47.4420 O   0  0  0  0  0  0  0  0  0  0  0  0
   44.6150   35.3280   45.1430 C   0  0  0  0  0  0  0  0  0  0  0  0
   45.1570   35.4430   43.8350 C   0  0  0  0  0  0  0  0  0  0  0  0
   46.1660   34.5550   43.5090 C   0  0  0  0  0  0  0  0  0  0  0  0
   46.5040   33.6970   44.4720 N   0  0  0  0  0  0  0  0  0  0  0  0
   46.0130   33.5780   45.6850 C   0  0  0  0  0  0  0  0  0  0  0  0
   45.0320   34.4280   46.0260 N   0  0  0  0  0  0  0  0  0  0  0  0
   43.8090   36.0260   45.4230 H   0  0  0  0  0  0  0  0  0  0  0  0
   44.7820   36.1930   43.1510 H   0  0  0  0  0  0  0  0  0  0  0  0
   46.7180   34.6640   42.1710 C   0  0  0  0  0  0  0  0  0  0  0  0
   47.4380   33.5120   41.8670 F   0  0  0  0  0  0  0  0  0  0  0  0
   47.5660   35.7230   42.1740 F   0  0  0  0  0  0  0  0  0  0  0  0
   45.7310   34.7540   41.1950 F   0  0  0  0  0  0  0  0  0  0  0  0
  1  7  1  6  0  0  0
  1 25  1  0  0  0  0
  1  2  1  0  0  0  0
  2  9  1  0  0  0  0
  2  8  1  0  0  0  0
  3 11  1  0  0  0  0
  3  2  1  0  0  0  0
  3 10  1  0  0  0  0
  4 13  1  0  0  0  0
  4  3  1  0  0  0  0
  5  6  1  0  0  0  0
  5  4  1  0  0  0  0
  6 16  1  6  0  0  0
  6 17  1  0  0  0  0
  6  1  1  0  0  0  0
 12  4  1  0  0  0  0
 14  5  1  0  0  0  0
 15  5  1  0  0  0  0
 17 18  1  0  0  0  0
 17 19  1  0  0  0  0
 20 24  1  0  0  0  0
 20 17  1  0  0  0  0
 21 20  1  0  0  0  0
 22 23  1  0  0  0  0
 22 21  1  0  0  0  0
 23 24  1  0  0  0  0
 25 26  2  0  0  0  0
 27 33  1  0  0  0  0
 27 32  1  0  0  0  0
 28 27  2  0  0  0  0
 29 28  1  0  0  0  0
 29 30  2  0  0  0  0
 30 31  1  0  0  0  0
 31 32  2  0  0  0  0
 31 25  1  0  0  0  0
 34 28  1  0  0  0  0
 35 37  1  0  0  0  0
 35 29  1  0  0  0  0
 36 35  1  0  0  0  0
 38 35  1  0  0  0  0
M  END
>  <minimizedAffinity>
-5.27269983

>  <minimizedRMSD>
0.935389996

$$$$
