
 OpenBabel03252509323D

 23 24  0  0  0  0  0  0  0  0999 V2000
   47.0740   33.5680   42.8590 C   0  0  0  0  0  0  0  0  0  0  0  0
   46.9560   34.0900   41.8730 H   0  0  0  0  0  0  0  0  0  0  0  0
   46.6910   32.5230   42.6730 H   0  0  0  0  0  0  0  0  0  0  0  0
   45.1550   34.2650   45.9720 C   0  0  0  0  0  0  0  0  0  0  0  0
   46.0170   33.6320   45.0670 C   0  0  0  0  0  0  0  0  0  0  0  0
   46.1740   34.2210   43.8130 C   0  0  0  0  0  0  0  0  0  0  0  0
   45.4890   35.3750   43.5310 N   0  0  0  0  0  0  0  0  0  0  0  0
   44.6660   35.9520   44.4370 C   0  0  0  0  0  0  0  0  0  0  0  0
   44.5090   35.3940   45.6400 N   0  0  0  0  0  0  0  0  0  0  0  0
   44.9720   33.8770   46.9700 H   0  0  0  0  0  0  0  0  0  0  0  0
   46.5160   32.7250   45.3790 H   0  0  0  0  0  0  0  0  0  0  0  0
   44.2220   36.8480   44.0220 H   0  0  0  0  0  0  0  0  0  0  0  0
   48.3820   33.5310   43.3120 O   0  0  0  0  0  0  0  0  0  0  0  0
   50.7220   33.0250   42.2560 O   0  0  0  0  0  0  0  0  0  0  0  0
   49.3730   33.5870   41.9350 P   0  0  2  0  0  0  0  0  0  0  0  0
   49.4480   35.2120   41.4700 O   0  0  0  0  0  0  0  0  0  0  0  0
   50.0300   35.6970   42.1080 H   0  0  0  0  0  0  0  0  0  0  0  0
   48.6570   32.6590   40.7280 O   0  0  0  0  0  0  0  0  0  0  0  0
   48.8630   33.2700   39.4980 C   0  0  0  0  0  3  0  0  0  0  0  0
   49.2230   32.2750   38.4140 C   0  0  0  0  0  2  0  0  0  0  0  0
   49.0710   33.1280   37.1720 C   0  0  0  0  0  2  0  0  0  0  0  0
   48.0230   34.1680   37.5080 C   0  0  0  0  0  2  0  0  0  0  0  0
   47.5590   33.8240   38.9300 C   0  0  0  0  0  2  0  0  0  0  0  0
  1 13  1  0  0  0  0
  1  6  1  0  0  0  0
  2  1  1  0  0  0  0
  3  1  1  0  0  0  0
  4 10  1  0  0  0  0
  5 11  1  0  0  0  0
  5  4  2  0  0  0  0
  6  5  1  0  0  0  0
  7  6  2  0  0  0  0
  7  8  1  0  0  0  0
  8  9  2  0  0  0  0
  9  4  1  0  0  0  0
 12  8  1  0  0  0  0
 15 14  2  1  0  0  0
 15 13  1  0  0  0  0
 16 15  1  0  0  0  0
 16 17  1  0  0  0  0
 18 15  1  0  0  0  0
 19 18  1  0  0  0  0
 20 19  1  0  0  0  0
 21 22  1  0  0  0  0
 21 20  1  0  0  0  0
 22 23  1  0  0  0  0
 23 19  1  0  0  0  0
M  END
>  <minimizedAffinity>
-4.26629972

>  <minimizedRMSD>
2.53520465

$$$$
