
 OpenBabel03252508343D

 31 33  0  0  1  0  0  0  0  0999 V2000
   44.7160   34.0610   42.1240 N   0  0  0  0  0  0  0  0  0  0  0  0
   45.8610   33.8040   41.2930 C   0  0  1  0  0  0  0  0  0  0  0  0
   45.5330   33.7600   39.8360 C   0  0  0  0  0  0  0  0  0  0  0  0
   44.3280   33.1550   39.4790 N   0  0  0  0  0  0  0  0  0  0  0  0
   43.2650   33.2000   40.3910 C   0  0  0  0  0  0  0  0  0  0  0  0
   43.4890   34.2870   41.4400 C   0  0  0  0  0  0  0  0  0  0  0  0
   46.3460   32.8520   41.6340 H   0  0  0  0  0  0  0  0  0  0  0  0
   46.3750   33.3070   39.2800 H   0  0  0  0  0  0  0  0  0  0  0  0
   45.5070   34.8300   39.4750 H   0  0  0  0  0  0  0  0  0  0  0  0
   43.9930   33.5640   38.5550 H   0  0  0  0  0  0  0  0  0  0  0  0
   43.2570   32.2410   40.9850 H   0  0  0  0  0  0  0  0  0  0  0  0
   42.2570   33.2740   39.9660 H   0  0  0  0  0  0  0  0  0  0  0  0
   43.4680   35.2940   40.9730 H   0  0  0  0  0  0  0  0  0  0  0  0
   42.6660   34.2310   42.2040 H   0  0  0  0  0  0  0  0  0  0  0  0
   44.4980   35.1760   44.2210 C   0  0  0  0  0  0  0  0  0  0  0  0
   44.9230   34.0610   43.5150 C   0  0  0  0  0  0  0  0  0  0  0  0
   45.5270   33.0230   44.2550 C   0  0  0  0  0  0  0  0  0  0  0  0
   45.6660   33.1480   45.5960 N   0  0  0  0  0  0  0  0  0  0  0  0
   45.2390   34.2470   46.2370 C   0  0  0  0  0  0  0  0  0  0  0  0
   44.6670   35.2420   45.5630 N   0  0  0  0  0  0  0  0  0  0  0  0
   44.0260   36.0340   43.7830 H   0  0  0  0  0  0  0  0  0  0  0  0
   45.8370   32.1840   43.6640 H   0  0  0  0  0  0  0  0  0  0  0  0
   45.3960   34.2540   47.3120 H   0  0  0  0  0  0  0  0  0  0  0  0
   46.8450   34.9310   41.4910 C   0  0  0  0  0  0  0  0  0  0  0  0
   47.0130   35.0060   42.5920 H   0  0  0  0  0  0  0  0  0  0  0  0
   46.4420   35.8780   41.1320 H   0  0  0  0  0  0  0  0  0  0  0  0
   48.1980   34.6380   40.8940 C   0  0  0  0  0  3  0  0  0  0  0  0
   49.1120   35.7740   41.3710 C   0  0  0  0  0  2  0  0  0  0  0  0
   49.7660   35.1890   42.5840 C   0  0  0  0  0  2  0  0  0  0  0  0
   50.0770   33.7820   42.1710 C   0  0  0  0  0  2  0  0  0  0  0  0
   48.8160   33.3890   41.4260 C   0  0  0  0  0  2  0  0  0  0  0  0
  1 16  1  0  0  0  0
  2 24  1  0  0  0  0
  2  7  1  1  0  0  0
  2  1  1  0  0  0  0
  3  2  1  0  0  0  0
  4  3  1  0  0  0  0
  4  5  1  0  0  0  0
  5 11  1  0  0  0  0
  5  6  1  0  0  0  0
  6  1  1  0  0  0  0
  6 14  1  0  0  0  0
  8  3  1  0  0  0  0
  9  3  1  0  0  0  0
 10  4  1  0  0  0  0
 12  5  1  0  0  0  0
 13  6  1  0  0  0  0
 15 20  1  0  0  0  0
 16 15  2  0  0  0  0
 16 17  1  0  0  0  0
 17 18  2  0  0  0  0
 18 19  1  0  0  0  0
 19 23  1  0  0  0  0
 20 19  2  0  0  0  0
 21 15  1  0  0  0  0
 22 17  1  0  0  0  0
 24 25  1  0  0  0  0
 26 24  1  0  0  0  0
 27 28  1  0  0  0  0
 27 31  1  0  0  0  0
 27 24  1  0  0  0  0
 28 29  1  0  0  0  0
 30 29  1  0  0  0  0
 31 30  1  0  0  0  0
M  END
>  <minimizedAffinity>
-4.96082592

>  <minimizedRMSD>
1.39459956

$$$$
