
 OpenBabel03252503593D

 30 33  0  0  0  0  0  0  0  0999 V2000
   46.0420   31.6720   45.1450 C   0  0  0  0  0  0  0  0  0  0  0  0
   45.8040   32.9930   45.5280 C   0  0  0  0  0  0  0  0  0  0  0  0
   45.5280   33.2800   46.8400 C   0  0  0  0  0  0  0  0  0  0  0  0
   45.4890   32.2590   47.7660 C   0  0  0  0  0  0  0  0  0  0  0  0
   45.2550   32.2140   49.0830 N   0  0  0  0  0  0  0  0  0  0  0  0
   45.3270   30.9690   49.5590 C   0  0  0  0  0  0  0  0  0  0  0  0
   45.6270   30.1280   48.4970 C   0  0  0  0  0  0  0  0  0  0  0  0
   45.7250   30.9410   47.3890 C   0  0  0  0  0  0  0  0  0  0  0  0
   46.0020   30.6570   46.0630 C   0  0  0  0  0  0  0  0  0  0  0  0
   46.2650   31.3910   44.1100 H   0  0  0  0  0  0  0  0  0  0  0  0
   45.3430   34.2990   47.1460 H   0  0  0  0  0  0  0  0  0  0  0  0
   45.0410   33.0420   49.6850 H   0  0  0  0  0  0  0  0  0  0  0  0
   45.1810   30.6330   50.5940 H   0  0  0  0  0  0  0  0  0  0  0  0
   45.7590   29.0660   48.5090 H   0  0  0  0  0  0  0  0  0  0  0  0
   46.1870   29.6280   45.7740 H   0  0  0  0  0  0  0  0  0  0  0  0
   46.8400   34.8310   42.5530 C   0  0  0  0  0  0  0  0  0  0  0  0
   45.9800   35.9270   42.5160 C   0  0  0  0  0  0  0  0  0  0  0  0
   45.0310   36.0320   43.5330 C   0  0  0  0  0  0  0  0  0  0  0  0
   44.9990   35.0710   44.4870 N   0  0  0  0  0  0  0  0  0  0  0  0
   45.8630   34.0140   44.4820 C   0  0  0  0  0  0  0  0  0  0  0  0
   46.7790   33.9000   43.5140 N   0  0  0  0  0  0  0  0  0  0  0  0
   45.9710   36.7080   41.7820 H   0  0  0  0  0  0  0  0  0  0  0  0
   44.3210   36.8530   43.5820 H   0  0  0  0  0  0  0  0  0  0  0  0
   47.7920   34.7870   41.4770 C   0  0  0  0  0  0  0  0  0  0  0  0
   48.6920   35.6390   41.2290 O   0  0  0  0  0  0  0  0  0  0  0  0
   47.7660   33.6420   40.5150 C   0  0  0  0  0  3  0  0  0  0  0  0
   47.8280   34.1160   39.0870 C   0  0  0  0  0  2  0  0  0  0  0  0
   48.7250   33.1250   38.4120 C   0  0  0  0  0  2  0  0  0  0  0  0
   49.2140   32.1440   39.4290 C   0  0  0  0  0  2  0  0  0  0  0  0
   49.0220   32.8290   40.7440 C   0  0  0  0  0  2  0  0  0  0  0  0
  1  2  2  0  0  0  0
  1  9  1  0  0  0  0
  2  3  1  0  0  0  0
  3 11  1  0  0  0  0
  3  4  2  0  0  0  0
  4  5  1  0  0  0  0
  5  6  1  0  0  0  0
  5 12  1  0  0  0  0
  6 13  1  0  0  0  0
  7 14  1  0  0  0  0
  7  6  2  0  0  0  0
  8  4  1  0  0  0  0
  8  7  1  0  0  0  0
  9  8  2  0  0  0  0
 10  1  1  0  0  0  0
 15  9  1  0  0  0  0
 16 21  1  0  0  0  0
 17 16  2  0  0  0  0
 17 18  1  0  0  0  0
 18 23  1  0  0  0  0
 18 19  2  0  0  0  0
 20 19  1  0  0  0  0
 20  2  1  0  0  0  0
 21 20  2  0  0  0  0
 22 17  1  0  0  0  0
 24 16  1  0  0  0  0
 25 24  2  0  0  0  0
 26 30  1  0  0  0  0
 26 24  1  0  0  0  0
 27 26  1  0  0  0  0
 28 27  1  0  0  0  0
 28 29  1  0  0  0  0
 29 30  1  0  0  0  0
M  END
>  <minimizedAffinity>
-5.9797492

>  <minimizedRMSD>
0.388415992

$$$$
