
 OpenBabel03252507553D

 40 43  0  0  1  0  0  0  0  0999 V2000
   47.0260   34.8070   41.9580 C   0  0  2  0  0  0  0  0  0  0  0  0
   46.2420   34.2120   40.7890 C   0  0  0  0  0  0  0  0  0  0  0  0
   47.4370   34.0200   39.8290 C   0  0  0  0  0  0  0  0  0  0  0  0
   48.5680   33.5910   40.7110 C   0  0  1  0  0  0  0  0  0  0  0  0
   48.0730   33.7380   42.1180 C   0  0  0  0  0  0  0  0  0  0  0  0
   47.4310   35.7560   41.6170 H   0  0  0  0  0  0  0  0  0  0  0  0
   45.5160   34.9080   40.3790 H   0  0  0  0  0  0  0  0  0  0  0  0
   45.8890   33.2310   41.1010 H   0  0  0  0  0  0  0  0  0  0  0  0
   47.1600   33.2790   39.0610 H   0  0  0  0  0  0  0  0  0  0  0  0
   47.6060   35.0280   39.4100 H   0  0  0  0  0  0  0  0  0  0  0  0
   49.4240   34.2720   40.5200 H   0  0  0  0  0  0  0  0  0  0  0  0
   47.6790   32.8350   42.5770 H   0  0  0  0  0  0  0  0  0  0  0  0
   48.9120   34.1960   42.7170 H   0  0  0  0  0  0  0  0  0  0  0  0
   44.5280   36.0030   44.5120 C   0  0  0  0  0  0  0  0  0  0  0  0
   45.2540   35.9710   43.3270 C   0  0  0  0  0  0  0  0  0  0  0  0
   46.1710   34.9370   43.1740 C   0  0  0  0  0  0  0  0  0  0  0  0
   46.3370   33.9810   44.1860 N   0  0  0  0  0  0  0  0  0  0  0  0
   45.5980   34.0650   45.3220 C   0  0  0  0  0  0  0  0  0  0  0  0
   44.6990   35.0740   45.4810 N   0  0  0  0  0  0  0  0  0  0  0  0
   43.8060   36.7970   44.6600 H   0  0  0  0  0  0  0  0  0  0  0  0
   45.1490   36.6920   42.5300 H   0  0  0  0  0  0  0  0  0  0  0  0
   45.8030   33.2810   46.0380 H   0  0  0  0  0  0  0  0  0  0  0  0
   48.9950   32.1530   40.5320 C   0  0  2  0  0  0  0  0  0  0  0  0
   49.8720   31.6160   41.5680 C   0  0  0  0  0  0  0  0  0  0  0  0
   50.3680   31.7930   40.1740 C   0  0  1  0  0  0  0  0  0  0  0  0
   48.1910   31.5010   40.1490 H   0  0  0  0  0  0  0  0  0  0  0  0
   50.2570   32.3020   42.3570 H   0  0  0  0  0  0  0  0  0  0  0  0
   49.6850   30.5950   41.9650 H   0  0  0  0  0  0  0  0  0  0  0  0
   51.0770   32.5960   39.8920 H   0  0  0  0  0  0  0  0  0  0  0  0
   50.5490   30.6320   39.3820 O   0  0  0  0  0  0  0  0  0  0  0  0
   51.5570   30.0420   37.0500 O   0  0  0  0  0  0  0  0  0  0  0  0
   51.7260   30.9670   38.2280 P   0  0  1  0  0  0  0  0  0  0  0  0
   51.5490   32.5740   37.6550 O   0  0  0  0  0  0  0  0  0  0  0  0
   51.9260   33.1490   38.3850 H   0  0  0  0  0  0  0  0  0  0  0  0
   53.2830   30.8260   38.7890 O   0  0  0  0  0  0  0  0  0  0  0  0
   53.3320   29.6600   39.5750 C   0  0  0  0  0  3  0  0  0  0  0  0
   53.8280   29.9620   40.9660 C   0  0  0  0  0  2  0  0  0  0  0  0
   55.2050   29.3350   41.0520 C   0  0  0  0  0  2  0  0  0  0  0  0
   55.6210   29.1080   39.6170 C   0  0  0  0  0  2  0  0  0  0  0  0
   54.3140   28.6610   39.0000 C   0  0  0  0  0  2  0  0  0  0  0  0
  1  6  1  6  0  0  0
  1  5  1  0  0  0  0
  1 16  1  0  0  0  0
  2  8  1  0  0  0  0
  2  1  1  0  0  0  0
  3  4  1  0  0  0  0
  3  2  1  0  0  0  0
  4 11  1  6  0  0  0
  4  5  1  0  0  0  0
  5 12  1  0  0  0  0
  5 13  1  0  0  0  0
  7  2  1  0  0  0  0
  9  3  1  0  0  0  0
 10  3  1  0  0  0  0
 14 20  1  0  0  0  0
 14 19  1  0  0  0  0
 15 14  2  0  0  0  0
 16 15  1  0  0  0  0
 16 17  2  0  0  0  0
 17 18  1  0  0  0  0
 18 19  2  0  0  0  0
 18 22  1  0  0  0  0
 21 15  1  0  0  0  0
 23 26  1  6  0  0  0
 23  4  1  0  0  0  0
 23 24  1  0  0  0  0
 24 28  1  0  0  0  0
 24 27  1  0  0  0  0
 25 29  1  6  0  0  0
 25 23  1  0  0  0  0
 25 24  1  0  0  0  0
 30 25  1  0  0  0  0
 32 31  2  6  0  0  0
 32 35  1  0  0  0  0
 32 30  1  0  0  0  0
 33 32  1  0  0  0  0
 33 34  1  0  0  0  0
 35 36  1  0  0  0  0
 36 37  1  0  0  0  0
 37 38  1  0  0  0  0
 39 38  1  0  0  0  0
 40 36  1  0  0  0  0
 40 39  1  0  0  0  0
M  END
>  <minimizedAffinity>
-4.96797323

>  <minimizedRMSD>
0.718454659

$$$$
