
 OpenBabel03242516463D

 38 42  0  0  1  0  0  0  0  0999 V2000
   45.3160   33.1760   42.1810 C   0  0  0  0  0  0  0  0  0  0  0  0
   44.5390   32.0810   42.2540 N   0  0  0  0  0  0  0  0  0  0  0  0
   43.2660   32.3780   41.9600 C   0  0  0  0  0  0  0  0  0  0  0  0
   43.2410   33.7100   41.6920 N   0  0  0  0  0  0  0  0  0  0  0  0
   44.4600   34.2070   41.8190 N   0  0  0  0  0  0  0  0  0  0  0  0
   42.3540   31.7950   41.9080 H   0  0  0  0  0  0  0  0  0  0  0  0
   40.2200   33.0540   41.8780 O   0  0  0  0  0  0  0  0  0  0  0  0
   40.9100   33.6640   41.0060 C   0  0  0  0  0  0  0  0  0  0  0  0
   42.0870   34.5100   41.3180 C   0  0  2  0  0  0  0  0  0  0  0  0
   42.3410   35.2510   40.0110 C   0  0  0  0  0  0  0  0  0  0  0  0
   41.9430   34.1830   38.9860 C   0  0  0  0  0  0  0  0  0  0  0  0
   40.7210   33.6770   39.5790 N   0  0  0  0  0  0  0  0  0  0  0  0
   41.8700   35.2990   42.0710 H   0  0  0  0  0  0  0  0  0  0  0  0
   41.6900   36.1240   39.9210 H   0  0  0  0  0  0  0  0  0  0  0  0
   43.4160   35.4630   39.8420 H   0  0  0  0  0  0  0  0  0  0  0  0
   42.7430   33.4400   38.8920 H   0  0  0  0  0  0  0  0  0  0  0  0
   41.6960   34.7100   38.0520 H   0  0  0  0  0  0  0  0  0  0  0  0
   39.5270   33.2570   38.9220 C   0  0  0  0  0  0  0  0  0  0  0  0
   39.1330   34.2290   37.8010 C   0  0  0  0  0  0  0  0  0  0  0  0
   37.9490   33.4440   37.2310 C   0  0  0  0  0  0  0  0  0  0  0  0
   38.3570   31.9820   37.3550 C   0  0  0  0  0  0  0  0  0  0  0  0
   39.6740   31.9920   38.1320 C   0  0  0  0  0  0  0  0  0  0  0  0
   47.4330   33.3940   43.7230 C   0  0  1  0  0  0  0  0  0  0  0  0
   46.7560   33.3600   42.3980 C   0  0  2  0  0  0  0  0  0  0  0  0
   47.2120   34.6220   42.9340 C   0  0  0  0  0  0  0  0  0  0  0  0
   48.4390   32.9180   43.7290 H   0  0  0  0  0  0  0  0  0  0  0  0
   47.3510   32.9120   41.5460 H   0  0  0  0  0  0  0  0  0  0  0  0
   46.5010   35.4030   43.2470 H   0  0  0  0  0  0  0  0  0  0  0  0
   48.1310   35.0980   42.4810 H   0  0  0  0  0  0  0  0  0  0  0  0
   46.9250   31.9630   45.6920 C   0  0  0  0  0  0  0  0  0  0  0  0
   46.7010   33.1420   44.9830 C   0  0  0  0  0  0  0  0  0  0  0  0
   45.8000   34.0270   45.5240 C   0  0  0  0  0  0  0  0  0  0  0  0
   45.1990   33.6970   46.6960 N   0  0  0  0  0  0  0  0  0  0  0  0
   45.4260   32.5690   47.3520 C   0  0  0  0  0  0  0  0  0  0  0  0
   46.3090   31.6930   46.8290 N   0  0  0  0  0  0  0  0  0  0  0  0
   47.6270   31.1910   45.3420 H   0  0  0  0  0  0  0  0  0  0  0  0
   45.6130   34.9350   44.9980 H   0  0  0  0  0  0  0  0  0  0  0  0
   44.8380   32.5230   48.2550 H   0  0  0  0  0  0  0  0  0  0  0  0
  1  2  1  0  0  0  0
  1 24  1  0  0  0  0
  3  2  2  0  0  0  0
  4  5  1  0  0  0  0
  4  3  1  0  0  0  0
  5  1  2  0  0  0  0
  6  3  1  0  0  0  0
  8  9  1  0  0  0  0
  8  7  2  0  0  0  0
  9  4  1  0  0  0  0
  9 13  1  1  0  0  0
 10  9  1  0  0  0  0
 11 12  1  0  0  0  0
 11 10  1  0  0  0  0
 12  8  1  0  0  0  0
 14 10  1  0  0  0  0
 15 10  1  0  0  0  0
 16 11  1  0  0  0  0
 17 11  1  0  0  0  0
 18 12  1  0  0  0  0
 19 18  1  0  0  0  0
 20 21  1  0  0  0  0
 20 19  1  0  0  0  0
 21 22  1  0  0  0  0
 22 18  1  0  0  0  0
 23 26  1  6  0  0  0
 23 31  1  0  0  0  0
 24 27  1  6  0  0  0
 24 25  1  0  0  0  0
 24 23  1  0  0  0  0
 25 28  1  0  0  0  0
 25 23  1  0  0  0  0
 29 25  1  0  0  0  0
 30 35  1  0  0  0  0
 31 32  1  0  0  0  0
 31 30  2  0  0  0  0
 32 33  2  0  0  0  0
 33 34  1  0  0  0  0
 34 38  1  0  0  0  0
 35 34  2  0  0  0  0
 36 30  1  0  0  0  0
 37 32  1  0  0  0  0
M  END
>  <minimizedAffinity>
-6.0240283

>  <minimizedRMSD>
1.24838901

$$$$
