
 OpenBabel03242519413D

 25 27  0  0  1  0  0  0  0  0999 V2000
   48.0600   32.9390   41.8390 O   0  0  0  0  0  0  0  0  0  0  0  0
   47.1760   34.0770   41.3090 P   0  0  2  0  0  0  0  0  0  0  0  0
   45.5860   33.8680   41.9070 O   0  0  0  0  0  0  0  0  0  0  0  0
   44.3930   35.9210   44.6720 C   0  0  0  0  0  0  0  0  0  0  0  0
   44.6810   35.4880   43.3570 C   0  0  0  0  0  0  0  0  0  0  0  0
   45.3210   34.2550   43.2020 C   0  0  0  0  0  0  0  0  0  0  0  0
   45.6330   33.5400   44.3070 N   0  0  0  0  0  0  0  0  0  0  0  0
   45.3460   33.9800   45.5540 C   0  0  0  0  0  0  0  0  0  0  0  0
   44.7350   35.1510   45.7490 N   0  0  0  0  0  0  0  0  0  0  0  0
   43.8980   36.8700   44.8100 H   0  0  0  0  0  0  0  0  0  0  0  0
   44.3710   36.1670   42.5630 H   0  0  0  0  0  0  0  0  0  0  0  0
   45.6670   33.2820   46.3060 H   0  0  0  0  0  0  0  0  0  0  0  0
   47.1460   34.0180   39.6470 O   0  0  0  0  0  0  0  0  0  0  0  0
   46.6800   33.0270   38.8260 C   0  0  1  0  0  3  0  0  0  0  0  0
   45.8210   33.3580   37.8730 O   0  0  0  0  0  0  0  0  0  0  0  0
   46.5020   31.6890   38.2570 C   0  0  0  0  0  0  0  0  0  0  0  0
   47.5390   30.6980   38.7340 C   0  0  0  0  0  2  0  0  0  0  0  0
   47.0020   30.2260   40.0540 C   0  0  0  0  0  2  0  0  0  0  0  0
   45.6080   30.7150   40.1820 C   0  0  0  0  0  2  0  0  0  0  0  0
   45.1870   31.1090   38.8080 C   0  0  0  0  0  2  0  0  0  0  0  0
   47.7860   35.4890   41.9040 O   0  0  0  0  0  0  0  0  0  0  0  0
   49.0430   35.7920   41.4060 C   0  0  0  0  0  0  0  0  0  0  0  0
   49.4790   37.0590   41.7770 F   0  0  0  0  0  0  0  0  0  0  0  0
   49.9290   34.8200   41.7440 F   0  0  0  0  0  0  0  0  0  0  0  0
   48.9170   35.8270   40.0260 F   0  0  0  0  0  0  0  0  0  0  0  0
  2  1  2  1  0  0  0
  2 21  1  0  0  0  0
  2  3  1  0  0  0  0
  3  6  1  0  0  0  0
  4 10  1  0  0  0  0
  4  9  1  0  0  0  0
  5  4  2  0  0  0  0
  6  5  1  0  0  0  0
  6  7  2  0  0  0  0
  7  8  1  0  0  0  0
  8  9  2  0  0  0  0
  8 12  1  0  0  0  0
 11  5  1  0  0  0  0
 13  2  1  0  0  0  0
 14 13  1  6  0  0  0
 15 16  1  0  0  0  0
 15 14  1  0  0  0  0
 16 17  1  0  0  0  0
 16 20  1  0  0  0  0
 16 14  1  0  0  0  0
 17 18  1  0  0  0  0
 18 19  1  0  0  0  0
 20 19  1  0  0  0  0
 22 24  1  0  0  0  0
 22 23  1  0  0  0  0
 22 21  1  0  0  0  0
 25 22  1  0  0  0  0
M  END
>  <minimizedAffinity>
-4.71217728

>  <minimizedRMSD>
0.341849774

$$$$
