
 OpenBabel03242522403D

 36 38  0  0  0  0  0  0  0  0999 V2000
   33.5570   28.8880   36.4850 C   0  0  0  0  0  0  0  0  0  0  0  0
   33.9250   29.6560   35.7420 H   0  0  0  0  0  0  0  0  0  0  0  0
   33.6520   27.9350   35.9590 H   0  0  0  0  0  0  0  0  0  0  0  0
   33.8670   29.0330   38.9710 C   0  0  0  0  0  0  0  0  0  0  0  0
   34.4240   29.0110   37.6530 C   0  0  0  0  0  0  0  0  0  0  0  0
   35.8210   29.1120   37.5430 C   0  0  0  0  0  0  0  0  0  0  0  0
   36.5540   29.2240   38.6940 N   0  0  0  0  0  0  0  0  0  0  0  0
   35.9850   29.2390   39.8870 C   0  0  0  0  0  0  0  0  0  0  0  0
   34.6690   29.1460   40.0390 N   0  0  0  0  0  0  0  0  0  0  0  0
   32.7990   28.9580   39.1160 H   0  0  0  0  0  0  0  0  0  0  0  0
   36.2750   29.1000   36.5640 H   0  0  0  0  0  0  0  0  0  0  0  0
   36.8700   29.3480   41.0960 C   0  0  0  0  0  0  0  0  0  0  0  0
   37.9020   29.2720   40.7180 H   0  0  0  0  0  0  0  0  0  0  0  0
   36.7230   30.3320   41.5340 H   0  0  0  0  0  0  0  0  0  0  0  0
   36.6250   28.2690   42.0910 C   0  0  0  0  0  3  0  0  0  0  0  0
   37.4580   28.6020   43.3290 C   0  0  0  0  0  2  0  0  0  0  0  0
   38.3100   27.4100   43.6280 C   0  0  0  0  0  2  0  0  0  0  0  0
   38.4640   26.7200   42.3100 C   0  0  0  0  0  2  0  0  0  0  0  0
   37.0900   26.9200   41.6850 C   0  0  0  0  0  2  0  0  0  0  0  0
   32.1510   29.2000   36.9300 C   0  0  0  0  0  0  0  0  0  0  0  0
   31.4750   28.3060   36.8830 H   0  0  0  0  0  0  0  0  0  0  0  0
   32.1910   29.4530   38.0290 H   0  0  0  0  0  0  0  0  0  0  0  0
   30.4290   30.9380   36.8190 C   0  0  0  0  0  0  0  0  0  0  0  0
   31.4860   30.2870   36.2240 C   0  0  0  0  0  0  0  0  0  0  0  0
   31.9590   30.6130   34.9880 C   0  0  0  0  0  0  0  0  0  0  0  0
   31.3590   31.6420   34.2900 C   0  0  0  0  0  0  0  0  0  0  0  0
   30.3040   32.3410   34.8120 C   0  0  0  0  0  0  0  0  0  0  0  0
   29.8670   31.9560   36.0830 C   0  0  0  0  0  0  0  0  0  0  0  0
   32.7650   30.1780   34.4260 H   0  0  0  0  0  0  0  0  0  0  0  0
   31.6550   31.9840   33.3020 H   0  0  0  0  0  0  0  0  0  0  0  0
   29.8010   33.1400   34.3260 H   0  0  0  0  0  0  0  0  0  0  0  0
   29.0280   32.4980   36.5170 H   0  0  0  0  0  0  0  0  0  0  0  0
   29.7900   30.5500   38.3940 S   0  0  0  0  0  0  0  0  0  0  0  0
   28.9410   29.2830   38.3730 O   0  0  0  0  0  0  0  0  0  0  0  0
   28.8020   31.6340   38.7980 O   0  0  0  0  0  0  0  0  0  0  0  0
   30.7310   30.4550   39.3620 H   0  0  0  0  0  0  0  0  0  0  0  0
  1 20  1  0  0  0  0
  1  5  1  0  0  0  0
  2  1  1  0  0  0  0
  3  1  1  0  0  0  0
  4 10  1  0  0  0  0
  4  9  1  0  0  0  0
  5  4  2  0  0  0  0
  6  5  1  0  0  0  0
  6  7  2  0  0  0  0
  7  8  1  0  0  0  0
  8  9  2  0  0  0  0
  8 12  1  0  0  0  0
 11  6  1  0  0  0  0
 12 14  1  0  0  0  0
 12 15  1  0  0  0  0
 13 12  1  0  0  0  0
 15 16  1  0  0  0  0
 16 17  1  0  0  0  0
 18 17  1  0  0  0  0
 19 15  1  0  0  0  0
 19 18  1  0  0  0  0
 20 22  1  0  0  0  0
 21 20  1  0  0  0  0
 23 33  1  0  0  0  0
 24 23  1  0  0  0  0
 24 20  1  0  0  0  0
 25 24  2  0  0  0  0
 26 27  2  0  0  0  0
 26 25  1  0  0  0  0
 27 28  1  0  0  0  0
 28 32  1  0  0  0  0
 28 23  2  0  0  0  0
 29 25  1  0  0  0  0
 30 26  1  0  0  0  0
 31 27  1  0  0  0  0
 33 35  2  0  0  0  0
 33 36  1  0  0  0  0
 34 33  2  0  0  0  0
M  END
>  <minimizedAffinity>
-5.69715786

$$$$

 OpenBabel03242522403D

 36 38  0  0  0  0  0  0  0  0999 V2000
   35.3480   28.3140   38.7860 C   0  0  0  0  0  0  0  0  0  0  0  0
   35.1450   27.2140   38.9450 H   0  0  0  0  0  0  0  0  0  0  0  0
   36.3910   28.3530   38.4620 H   0  0  0  0  0  0  0  0  0  0  0  0
   33.0430   29.0590   38.1330 C   0  0  0  0  0  0  0  0  0  0  0  0
   34.3950   28.7580   37.7740 C   0  0  0  0  0  0  0  0  0  0  0  0
   34.7500   28.9070   36.4220 C   0  0  0  0  0  0  0  0  0  0  0  0
   33.7880   29.3280   35.5430 N   0  0  0  0  0  0  0  0  0  0  0  0
   32.5530   29.5920   35.9320 C   0  0  0  0  0  0  0  0  0  0  0  0
   32.1730   29.4660   37.1990 N   0  0  0  0  0  0  0  0  0  0  0  0
   32.7140   28.9630   39.1580 H   0  0  0  0  0  0  0  0  0  0  0  0
   35.7610   28.6870   36.1160 H   0  0  0  0  0  0  0  0  0  0  0  0
   31.5690   30.0660   34.9010 C   0  0  0  0  0  0  0  0  0  0  0  0
   32.1240   30.0950   33.9500 H   0  0  0  0  0  0  0  0  0  0  0  0
   30.7750   29.3260   34.8280 H   0  0  0  0  0  0  0  0  0  0  0  0
   31.0240   31.4190   35.1990 C   0  0  0  0  0  3  0  0  0  0  0  0
   29.5000   31.3070   35.1630 C   0  0  0  0  0  2  0  0  0  0  0  0
   29.0000   32.3350   34.1980 C   0  0  0  0  0  2  0  0  0  0  0  0
   30.1430   32.5540   33.2600 C   0  0  0  0  0  2  0  0  0  0  0  0
   31.3420   32.4610   34.1930 C   0  0  0  0  0  2  0  0  0  0  0  0
   35.0730   29.1000   40.0430 C   0  0  0  0  0  0  0  0  0  0  0  0
   34.8100   30.1710   39.8340 H   0  0  0  0  0  0  0  0  0  0  0  0
   34.1370   28.6770   40.5090 H   0  0  0  0  0  0  0  0  0  0  0  0
   36.9970   30.1690   41.1170 C   0  0  0  0  0  0  0  0  0  0  0  0
   36.1350   29.0980   41.0400 C   0  0  0  0  0  0  0  0  0  0  0  0
   36.2180   28.0160   41.8650 C   0  0  0  0  0  0  0  0  0  0  0  0
   37.2080   27.9800   42.8260 C   0  0  0  0  0  0  0  0  0  0  0  0
   38.1040   29.0040   42.9690 C   0  0  0  0  0  0  0  0  0  0  0  0
   37.9640   30.0840   42.0920 C   0  0  0  0  0  0  0  0  0  0  0  0
   35.6110   27.1290   41.8940 H   0  0  0  0  0  0  0  0  0  0  0  0
   37.3640   27.1700   43.5340 H   0  0  0  0  0  0  0  0  0  0  0  0
   38.8860   29.0360   43.6870 H   0  0  0  0  0  0  0  0  0  0  0  0
   38.6670   30.9100   42.1870 H   0  0  0  0  0  0  0  0  0  0  0  0
   36.9290   31.5680   40.0790 S   0  0  0  0  0  0  0  0  0  0  0  0
   37.4090   31.2580   38.6650 O   0  0  0  0  0  0  0  0  0  0  0  0
   37.9350   32.5930   40.5800 O   0  0  0  0  0  0  0  0  0  0  0  0
   35.7120   32.1590   40.0300 H   0  0  0  0  0  0  0  0  0  0  0  0
  1  2  1  0  0  0  0
  1 20  1  0  0  0  0
  3  1  1  0  0  0  0
  4 10  1  0  0  0  0
  5  4  1  0  0  0  0
  5  1  1  0  0  0  0
  6  5  2  0  0  0  0
  7  8  2  0  0  0  0
  7  6  1  0  0  0  0
  8  9  1  0  0  0  0
  9  4  2  0  0  0  0
 11  6  1  0  0  0  0
 12 15  1  0  0  0  0
 12  8  1  0  0  0  0
 13 12  1  0  0  0  0
 14 12  1  0  0  0  0
 16 15  1  0  0  0  0
 17 16  1  0  0  0  0
 18 19  1  0  0  0  0
 18 17  1  0  0  0  0
 19 15  1  0  0  0  0
 20 22  1  0  0  0  0
 20 24  1  0  0  0  0
 21 20  1  0  0  0  0
 23 28  1  0  0  0  0
 24 23  2  0  0  0  0
 24 25  1  0  0  0  0
 25 29  1  0  0  0  0
 25 26  2  0  0  0  0
 26 27  1  0  0  0  0
 26 30  1  0  0  0  0
 27 31  1  0  0  0  0
 28 32  1  0  0  0  0
 28 27  2  0  0  0  0
 33 35  2  0  0  0  0
 33 23  1  0  0  0  0
 34 33  2  0  0  0  0
 36 33  1  0  0  0  0
M  END
>  <minimizedAffinity>
-5.41144371

$$$$

 OpenBabel03242522403D

 36 38  0  0  0  0  0  0  0  0999 V2000
   37.2720   28.4640   43.2900 C   0  0  0  0  0  0  0  0  0  0  0  0
   36.9200   28.9150   44.2640 H   0  0  0  0  0  0  0  0  0  0  0  0
   36.3790   27.9950   42.8700 H   0  0  0  0  0  0  0  0  0  0  0  0
   39.1120   30.0730   42.7240 C   0  0  0  0  0  0  0  0  0  0  0  0
   37.7900   29.5730   42.4960 C   0  0  0  0  0  0  0  0  0  0  0  0
   37.0320   30.1940   41.4890 C   0  0  0  0  0  0  0  0  0  0  0  0
   37.6020   31.2280   40.7950 N   0  0  0  0  0  0  0  0  0  0  0  0
   38.8290   31.6490   41.0490 C   0  0  0  0  0  0  0  0  0  0  0  0
   39.5810   31.0920   41.9920 N   0  0  0  0  0  0  0  0  0  0  0  0
   39.7400   29.6340   43.4850 H   0  0  0  0  0  0  0  0  0  0  0  0
   36.0320   29.8420   41.2910 H   0  0  0  0  0  0  0  0  0  0  0  0
   39.3770   32.7780   40.2260 C   0  0  0  0  0  0  0  0  0  0  0  0
   38.6990   32.8760   39.3630 H   0  0  0  0  0  0  0  0  0  0  0  0
   39.3270   33.6860   40.8230 H   0  0  0  0  0  0  0  0  0  0  0  0
   40.7610   32.5230   39.7420 C   0  0  0  0  0  3  0  0  0  0  0  0
   41.2450   33.8070   39.0660 C   0  0  0  0  0  2  0  0  0  0  0  0
   41.6890   33.4440   37.6850 C   0  0  0  0  0  2  0  0  0  0  0  0
   40.9080   32.2130   37.3530 C   0  0  0  0  0  2  0  0  0  0  0  0
   40.8790   31.4850   38.6890 C   0  0  0  0  0  2  0  0  0  0  0  0
   38.4100   27.5020   43.5230 C   0  0  0  0  0  0  0  0  0  0  0  0
   39.4120   27.9580   43.3050 H   0  0  0  0  0  0  0  0  0  0  0  0
   38.4460   27.2810   44.6280 H   0  0  0  0  0  0  0  0  0  0  0  0
   39.4960   25.5600   42.4990 C   0  0  0  0  0  0  0  0  0  0  0  0
   38.3370   26.2420   42.7960 C   0  0  0  0  0  0  0  0  0  0  0  0
   37.0990   25.7920   42.4440 C   0  0  0  0  0  0  0  0  0  0  0  0
   36.9890   24.5990   41.7590 C   0  0  0  0  0  0  0  0  0  0  0  0
   38.0920   23.8590   41.4270 C   0  0  0  0  0  0  0  0  0  0  0  0
   39.3310   24.3760   41.8170 C   0  0  0  0  0  0  0  0  0  0  0  0
   36.1360   26.2360   42.6140 H   0  0  0  0  0  0  0  0  0  0  0  0
   36.0550   24.1490   41.4320 H   0  0  0  0  0  0  0  0  0  0  0  0
   38.0730   22.9360   40.9030 H   0  0  0  0  0  0  0  0  0  0  0  0
   40.2220   23.8050   41.5620 H   0  0  0  0  0  0  0  0  0  0  0  0
   41.0980   26.1020   42.9250 S   0  0  0  0  0  0  0  0  0  0  0  0
   41.6730   27.0620   41.8880 O   0  0  0  0  0  0  0  0  0  0  0  0
   42.0430   24.9110   42.8720 O   0  0  0  0  0  0  0  0  0  0  0  0
   41.1820   26.6540   44.1580 H   0  0  0  0  0  0  0  0  0  0  0  0
  1 20  1  0  0  0  0
  1  2  1  0  0  0  0
  3  1  1  0  0  0  0
  4 10  1  0  0  0  0
  5  4  1  0  0  0  0
  5  1  1  0  0  0  0
  6  5  2  0  0  0  0
  7  8  2  0  0  0  0
  7  6  1  0  0  0  0
  8  9  1  0  0  0  0
  9  4  2  0  0  0  0
 11  6  1  0  0  0  0
 12 14  1  0  0  0  0
 12  8  1  0  0  0  0
 13 12  1  0  0  0  0
 15 12  1  0  0  0  0
 16 15  1  0  0  0  0
 17 16  1  0  0  0  0
 18 17  1  0  0  0  0
 18 19  1  0  0  0  0
 19 15  1  0  0  0  0
 20 22  1  0  0  0  0
 21 20  1  0  0  0  0
 23 24  1  0  0  0  0
 23 33  1  0  0  0  0
 24 20  1  0  0  0  0
 25 29  1  0  0  0  0
 25 24  2  0  0  0  0
 26 25  1  0  0  0  0
 27 26  2  0  0  0  0
 27 28  1  0  0  0  0
 28 23  2  0  0  0  0
 30 26  1  0  0  0  0
 31 27  1  0  0  0  0
 32 28  1  0  0  0  0
 33 36  1  0  0  0  0
 34 33  2  0  0  0  0
 35 33  2  0  0  0  0
M  END
>  <minimizedAffinity>
-5.34189177

$$$$

 OpenBabel03242522403D

 36 38  0  0  0  0  0  0  0  0999 V2000
   38.7210   29.9880   42.5760 C   0  0  0  0  0  0  0  0  0  0  0  0
   37.7320   30.4890   42.7930 H   0  0  0  0  0  0  0  0  0  0  0  0
   39.3520   30.2540   43.4270 H   0  0  0  0  0  0  0  0  0  0  0  0
   37.1810   28.0380   42.9230 C   0  0  0  0  0  0  0  0  0  0  0  0
   38.4340   28.5610   42.4710 C   0  0  0  0  0  0  0  0  0  0  0  0
   39.3560   27.6480   41.9310 C   0  0  0  0  0  0  0  0  0  0  0  0
   39.0000   26.3270   41.8730 N   0  0  0  0  0  0  0  0  0  0  0  0
   37.8270   25.8990   42.3070 C   0  0  0  0  0  0  0  0  0  0  0  0
   36.9250   26.7260   42.8240 N   0  0  0  0  0  0  0  0  0  0  0  0
   36.4340   28.6930   43.3460 H   0  0  0  0  0  0  0  0  0  0  0  0
   40.3110   28.0080   41.5810 H   0  0  0  0  0  0  0  0  0  0  0  0
   37.5150   24.4350   42.1870 C   0  0  0  0  0  0  0  0  0  0  0  0
   38.4880   23.9320   42.0670 H   0  0  0  0  0  0  0  0  0  0  0  0
   37.0590   24.1100   43.1190 H   0  0  0  0  0  0  0  0  0  0  0  0
   36.6470   24.1220   41.0200 C   0  0  0  0  0  3  0  0  0  0  0  0
   37.2450   22.8930   40.3330 C   0  0  0  0  0  2  0  0  0  0  0  0
   37.4640   23.2480   38.8960 C   0  0  0  0  0  2  0  0  0  0  0  0
   37.6220   24.7340   38.8980 C   0  0  0  0  0  2  0  0  0  0  0  0
   36.6170   25.1590   39.9600 C   0  0  0  0  0  2  0  0  0  0  0  0
   39.2720   30.4390   41.2460 C   0  0  0  0  0  0  0  0  0  0  0  0
   40.3860   30.5690   41.2630 H   0  0  0  0  0  0  0  0  0  0  0  0
   39.1070   29.6010   40.5100 H   0  0  0  0  0  0  0  0  0  0  0  0
   37.5840   31.5870   39.8950 C   0  0  0  0  0  0  0  0  0  0  0  0
   38.6970   31.6610   40.7010 C   0  0  0  0  0  0  0  0  0  0  0  0
   39.3020   32.8380   41.0280 C   0  0  0  0  0  0  0  0  0  0  0  0
   38.7820   34.0190   40.5350 C   0  0  0  0  0  0  0  0  0  0  0  0
   37.6770   34.0320   39.7280 C   0  0  0  0  0  0  0  0  0  0  0  0
   37.1050   32.7910   39.4310 C   0  0  0  0  0  0  0  0  0  0  0  0
   40.1690   33.0170   41.6370 H   0  0  0  0  0  0  0  0  0  0  0  0
   39.1830   35.0090   40.7330 H   0  0  0  0  0  0  0  0  0  0  0  0
   37.2310   34.9040   39.3180 H   0  0  0  0  0  0  0  0  0  0  0  0
   36.2250   32.7780   38.7890 H   0  0  0  0  0  0  0  0  0  0  0  0
   36.7840   30.1040   39.4470 S   0  0  0  0  0  0  0  0  0  0  0  0
   36.1710   30.1800   38.0530 O   0  0  0  0  0  0  0  0  0  0  0  0
   35.5800   29.9090   40.3570 O   0  0  0  0  0  0  0  0  0  0  0  0
   37.5690   29.0050   39.5440 H   0  0  0  0  0  0  0  0  0  0  0  0
  1  2  1  0  0  0  0
  1  3  1  0  0  0  0
  4 10  1  0  0  0  0
  5  1  1  0  0  0  0
  5  4  2  0  0  0  0
  6  5  1  0  0  0  0
  7  6  2  0  0  0  0
  7  8  1  0  0  0  0
  8  9  2  0  0  0  0
  9  4  1  0  0  0  0
 11  6  1  0  0  0  0
 12  8  1  0  0  0  0
 12 14  1  0  0  0  0
 13 12  1  0  0  0  0
 15 12  1  0  0  0  0
 16 15  1  0  0  0  0
 17 18  1  0  0  0  0
 17 16  1  0  0  0  0
 18 19  1  0  0  0  0
 19 15  1  0  0  0  0
 20 21  1  0  0  0  0
 20  1  1  0  0  0  0
 22 20  1  0  0  0  0
 23 24  1  0  0  0  0
 24 25  2  0  0  0  0
 24 20  1  0  0  0  0
 25 29  1  0  0  0  0
 26 30  1  0  0  0  0
 26 25  1  0  0  0  0
 27 26  2  0  0  0  0
 28 27  1  0  0  0  0
 28 23  2  0  0  0  0
 31 27  1  0  0  0  0
 32 28  1  0  0  0  0
 33 36  1  0  0  0  0
 33 23  1  0  0  0  0
 33 35  2  0  0  0  0
 34 33  2  0  0  0  0
M  END
>  <minimizedAffinity>
-5.24610853

$$$$

 OpenBabel03242522403D

 36 38  0  0  0  0  0  0  0  0999 V2000
   39.0920   28.8740   42.8470 C   0  0  0  0  0  0  0  0  0  0  0  0
   40.1180   28.5600   42.4920 H   0  0  0  0  0  0  0  0  0  0  0  0
   39.2780   29.7540   43.4680 H   0  0  0  0  0  0  0  0  0  0  0  0
   37.0320   29.7740   41.7340 C   0  0  0  0  0  0  0  0  0  0  0  0
   38.3160   29.1490   41.6420 C   0  0  0  0  0  0  0  0  0  0  0  0
   38.7820   28.8200   40.3580 C   0  0  0  0  0  0  0  0  0  0  0  0
   37.9840   29.1170   39.2850 N   0  0  0  0  0  0  0  0  0  0  0  0
   36.8050   29.6960   39.4290 C   0  0  0  0  0  0  0  0  0  0  0  0
   36.3250   30.0240   40.6230 N   0  0  0  0  0  0  0  0  0  0  0  0
   36.6230   30.0500   42.6950 H   0  0  0  0  0  0  0  0  0  0  0  0
   39.7460   28.3480   40.2530 H   0  0  0  0  0  0  0  0  0  0  0  0
   36.0070   29.9990   38.1940 C   0  0  0  0  0  0  0  0  0  0  0  0
   35.2450   30.7330   38.5030 H   0  0  0  0  0  0  0  0  0  0  0  0
   36.6720   30.4620   37.4680 H   0  0  0  0  0  0  0  0  0  0  0  0
   35.3370   28.7970   37.6270 C   0  0  0  0  0  3  0  0  0  0  0  0
   35.2590   28.9980   36.1140 C   0  0  0  0  0  2  0  0  0  0  0  0
   33.8260   28.8400   35.7160 C   0  0  0  0  0  2  0  0  0  0  0  0
   33.0550   29.1930   36.9470 C   0  0  0  0  0  2  0  0  0  0  0  0
   33.9270   28.6050   38.0470 C   0  0  0  0  0  2  0  0  0  0  0  0
   38.4070   27.7470   43.5800 C   0  0  0  0  0  0  0  0  0  0  0  0
   38.8540   27.5550   44.5910 H   0  0  0  0  0  0  0  0  0  0  0  0
   37.3550   28.0820   43.8080 H   0  0  0  0  0  0  0  0  0  0  0  0
   39.5150   25.7730   42.6470 C   0  0  0  0  0  0  0  0  0  0  0  0
   38.3520   26.4730   42.8770 C   0  0  0  0  0  0  0  0  0  0  0  0
   37.1260   26.0280   42.4810 C   0  0  0  0  0  0  0  0  0  0  0  0
   37.0320   24.8210   41.8180 C   0  0  0  0  0  0  0  0  0  0  0  0
   38.1400   24.0630   41.5510 C   0  0  0  0  0  0  0  0  0  0  0  0
   39.3670   24.5760   41.9830 C   0  0  0  0  0  0  0  0  0  0  0  0
   36.1600   26.4850   42.6000 H   0  0  0  0  0  0  0  0  0  0  0  0
   36.1080   24.3740   41.4600 H   0  0  0  0  0  0  0  0  0  0  0  0
   38.1340   23.1290   41.0460 H   0  0  0  0  0  0  0  0  0  0  0  0
   40.2620   23.9910   41.7810 H   0  0  0  0  0  0  0  0  0  0  0  0
   41.1020   26.3080   43.1310 S   0  0  0  0  0  0  0  0  0  0  0  0
   41.8030   27.0970   42.0300 O   0  0  0  0  0  0  0  0  0  0  0  0
   41.9900   25.0860   43.3150 O   0  0  0  0  0  0  0  0  0  0  0  0
   41.1160   27.0180   44.2830 H   0  0  0  0  0  0  0  0  0  0  0  0
  1  3  1  0  0  0  0
  1 20  1  0  0  0  0
  2  1  1  0  0  0  0
  4 10  1  0  0  0  0
  5  4  1  0  0  0  0
  5  1  1  0  0  0  0
  6  5  2  0  0  0  0
  7  8  2  0  0  0  0
  7  6  1  0  0  0  0
  8  9  1  0  0  0  0
  9  4  2  0  0  0  0
 11  6  1  0  0  0  0
 12 13  1  0  0  0  0
 12  8  1  0  0  0  0
 14 12  1  0  0  0  0
 15 19  1  0  0  0  0
 15 12  1  0  0  0  0
 16 15  1  0  0  0  0
 17 16  1  0  0  0  0
 17 18  1  0  0  0  0
 18 19  1  0  0  0  0
 20 22  1  0  0  0  0
 20 21  1  0  0  0  0
 23 24  1  0  0  0  0
 23 33  1  0  0  0  0
 24 20  1  0  0  0  0
 25 29  1  0  0  0  0
 25 24  2  0  0  0  0
 26 25  1  0  0  0  0
 27 26  2  0  0  0  0
 27 28  1  0  0  0  0
 28 23  2  0  0  0  0
 30 26  1  0  0  0  0
 31 27  1  0  0  0  0
 32 28  1  0  0  0  0
 33 35  2  0  0  0  0
 33 36  1  0  0  0  0
 34 33  2  0  0  0  0
M  END
>  <minimizedAffinity>
-5.18543959

$$$$

 OpenBabel03242522403D

 36 38  0  0  0  0  0  0  0  0999 V2000
   36.2820   27.8890   37.7560 C   0  0  0  0  0  0  0  0  0  0  0  0
   36.2820   26.7730   37.5770 H   0  0  0  0  0  0  0  0  0  0  0  0
   37.1790   28.2450   37.2430 H   0  0  0  0  0  0  0  0  0  0  0  0
   33.9150   28.6750   38.0310 C   0  0  0  0  0  0  0  0  0  0  0  0
   35.0340   28.3880   37.1860 C   0  0  0  0  0  0  0  0  0  0  0  0
   34.8730   28.6060   35.8080 C   0  0  0  0  0  0  0  0  0  0  0  0
   33.6660   29.0760   35.3640 N   0  0  0  0  0  0  0  0  0  0  0  0
   32.6650   29.3240   36.1910 C   0  0  0  0  0  0  0  0  0  0  0  0
   32.7720   29.1330   37.5010 N   0  0  0  0  0  0  0  0  0  0  0  0
   33.9820   28.5260   39.0990 H   0  0  0  0  0  0  0  0  0  0  0  0
   35.6960   28.4000   35.1420 H   0  0  0  0  0  0  0  0  0  0  0  0
   31.3830   29.8550   35.6170 C   0  0  0  0  0  0  0  0  0  0  0  0
   31.3850   29.5570   34.5560 H   0  0  0  0  0  0  0  0  0  0  0  0
   30.5570   29.3610   36.1240 H   0  0  0  0  0  0  0  0  0  0  0  0
   31.2730   31.3360   35.7160 C   0  0  0  0  0  3  0  0  0  0  0  0
   29.8900   31.6460   36.2890 C   0  0  0  0  0  2  0  0  0  0  0  0
   29.2170   32.5880   35.3420 C   0  0  0  0  0  2  0  0  0  0  0  0
   29.8620   32.3160   34.0210 C   0  0  0  0  0  2  0  0  0  0  0  0
   31.3070   32.0580   34.4210 C   0  0  0  0  0  2  0  0  0  0  0  0
   36.2620   28.1980   39.2320 C   0  0  0  0  0  0  0  0  0  0  0  0
   36.9460   29.0440   39.5040 H   0  0  0  0  0  0  0  0  0  0  0  0
   35.2340   28.5870   39.4820 H   0  0  0  0  0  0  0  0  0  0  0  0
   36.9770   27.3370   41.4100 C   0  0  0  0  0  0  0  0  0  0  0  0
   36.5700   27.0840   40.1190 C   0  0  0  0  0  0  0  0  0  0  0  0
   36.4320   25.8250   39.6160 C   0  0  0  0  0  0  0  0  0  0  0  0
   36.7090   24.7440   40.4280 C   0  0  0  0  0  0  0  0  0  0  0  0
   37.1170   24.9090   41.7240 C   0  0  0  0  0  0  0  0  0  0  0  0
   37.2390   26.2250   42.1780 C   0  0  0  0  0  0  0  0  0  0  0  0
   36.1310   25.5090   38.6340 H   0  0  0  0  0  0  0  0  0  0  0  0
   36.6310   23.7020   40.1300 H   0  0  0  0  0  0  0  0  0  0  0  0
   37.3450   24.1200   42.3980 H   0  0  0  0  0  0  0  0  0  0  0  0
   37.5640   26.3800   43.2060 H   0  0  0  0  0  0  0  0  0  0  0  0
   37.1720   28.9300   42.0910 S   0  0  0  0  0  0  0  0  0  0  0  0
   38.4590   29.6010   41.6230 O   0  0  0  0  0  0  0  0  0  0  0  0
   37.3660   28.7950   43.5940 O   0  0  0  0  0  0  0  0  0  0  0  0
   36.1200   29.7540   41.8730 H   0  0  0  0  0  0  0  0  0  0  0  0
  1 20  1  0  0  0  0
  2  1  1  0  0  0  0
  3  1  1  0  0  0  0
  4 10  1  0  0  0  0
  5  1  1  0  0  0  0
  5  4  2  0  0  0  0
  6  5  1  0  0  0  0
  7  6  2  0  0  0  0
  7  8  1  0  0  0  0
  8  9  2  0  0  0  0
  9  4  1  0  0  0  0
 11  6  1  0  0  0  0
 12 15  1  0  0  0  0
 12 14  1  0  0  0  0
 12  8  1  0  0  0  0
 13 12  1  0  0  0  0
 15 16  1  0  0  0  0
 17 16  1  0  0  0  0
 18 19  1  0  0  0  0
 18 17  1  0  0  0  0
 19 15  1  0  0  0  0
 20 22  1  0  0  0  0
 20 21  1  0  0  0  0
 20 24  1  0  0  0  0
 23 33  1  0  0  0  0
 23 28  1  0  0  0  0
 24 23  2  0  0  0  0
 25 24  1  0  0  0  0
 25 26  2  0  0  0  0
 26 27  1  0  0  0  0
 27 28  2  0  0  0  0
 27 31  1  0  0  0  0
 28 32  1  0  0  0  0
 29 25  1  0  0  0  0
 30 26  1  0  0  0  0
 33 35  2  0  0  0  0
 34 33  2  0  0  0  0
 36 33  1  0  0  0  0
M  END
>  <minimizedAffinity>
-5.1238308

$$$$

 OpenBabel03242522403D

 36 38  0  0  0  0  0  0  0  0999 V2000
   37.0130   27.5060   43.5490 C   0  0  0  0  0  0  0  0  0  0  0  0
   37.0300   28.0720   44.5270 H   0  0  0  0  0  0  0  0  0  0  0  0
   36.1030   26.9030   43.6010 H   0  0  0  0  0  0  0  0  0  0  0  0
   36.0160   28.4660   41.4570 C   0  0  0  0  0  0  0  0  0  0  0  0
   36.9960   28.5180   42.4980 C   0  0  0  0  0  0  0  0  0  0  0  0
   37.9230   29.5730   42.4570 C   0  0  0  0  0  0  0  0  0  0  0  0
   37.8300   30.4760   41.4320 N   0  0  0  0  0  0  0  0  0  0  0  0
   36.9030   30.3790   40.4960 C   0  0  0  0  0  0  0  0  0  0  0  0
   36.0060   29.3990   40.4950 N   0  0  0  0  0  0  0  0  0  0  0  0
   35.2770   27.6780   41.4380 H   0  0  0  0  0  0  0  0  0  0  0  0
   38.6770   29.6420   43.2260 H   0  0  0  0  0  0  0  0  0  0  0  0
   36.8660   31.4260   39.4200 C   0  0  0  0  0  0  0  0  0  0  0  0
   35.8050   31.7000   39.3060 H   0  0  0  0  0  0  0  0  0  0  0  0
   37.4210   32.2920   39.7730 H   0  0  0  0  0  0  0  0  0  0  0  0
   37.3940   30.9370   38.1170 C   0  0  0  0  0  3  0  0  0  0  0  0
   38.4590   29.8860   38.4310 C   0  0  0  0  0  2  0  0  0  0  0  0
   39.7130   30.2980   37.7280 C   0  0  0  0  0  2  0  0  0  0  0  0
   39.5910   31.7820   37.5870 C   0  0  0  0  0  2  0  0  0  0  0  0
   38.1060   31.9530   37.3050 C   0  0  0  0  0  2  0  0  0  0  0  0
   38.2720   26.6930   43.3750 C   0  0  0  0  0  0  0  0  0  0  0  0
   39.1630   27.3250   43.1250 H   0  0  0  0  0  0  0  0  0  0  0  0
   38.5280   26.2470   44.3790 H   0  0  0  0  0  0  0  0  0  0  0  0
   39.3380   25.2740   41.6880 C   0  0  0  0  0  0  0  0  0  0  0  0
   38.2060   25.6210   42.3900 C   0  0  0  0  0  0  0  0  0  0  0  0
   37.0040   25.0030   42.2160 C   0  0  0  0  0  0  0  0  0  0  0  0
   36.9040   23.9790   41.2960 C   0  0  0  0  0  0  0  0  0  0  0  0
   37.9820   23.5720   40.5580 C   0  0  0  0  0  0  0  0  0  0  0  0
   39.1850   24.2480   40.7840 C   0  0  0  0  0  0  0  0  0  0  0  0
   36.0620   25.1890   42.6980 H   0  0  0  0  0  0  0  0  0  0  0  0
   35.9980   23.4190   41.0790 H   0  0  0  0  0  0  0  0  0  0  0  0
   37.9690   22.7930   39.8360 H   0  0  0  0  0  0  0  0  0  0  0  0
   40.0560   23.9410   40.2070 H   0  0  0  0  0  0  0  0  0  0  0  0
   40.8920   26.0430   41.8750 S   0  0  0  0  0  0  0  0  0  0  0  0
   41.3990   25.9690   43.3120 O   0  0  0  0  0  0  0  0  0  0  0  0
   40.7270   27.5350   41.6310 O   0  0  0  0  0  0  0  0  0  0  0  0
   41.8410   25.5780   41.0290 H   0  0  0  0  0  0  0  0  0  0  0  0
  1  3  1  0  0  0  0
  1  2  1  0  0  0  0
  4  5  1  0  0  0  0
  5  1  1  0  0  0  0
  6  5  2  0  0  0  0
  6 11  1  0  0  0  0
  7  6  1  0  0  0  0
  8  7  2  0  0  0  0
  9  8  1  0  0  0  0
  9  4  2  0  0  0  0
 10  4  1  0  0  0  0
 12 14  1  0  0  0  0
 12  8  1  0  0  0  0
 13 12  1  0  0  0  0
 15 16  1  0  0  0  0
 15 12  1  0  0  0  0
 17 16  1  0  0  0  0
 18 17  1  0  0  0  0
 19 18  1  0  0  0  0
 19 15  1  0  0  0  0
 20  1  1  0  0  0  0
 20 22  1  0  0  0  0
 21 20  1  0  0  0  0
 23 33  1  0  0  0  0
 23 24  1  0  0  0  0
 24 20  1  0  0  0  0
 25 24  2  0  0  0  0
 25 29  1  0  0  0  0
 26 25  1  0  0  0  0
 27 28  1  0  0  0  0
 27 26  2  0  0  0  0
 28 23  2  0  0  0  0
 30 26  1  0  0  0  0
 31 27  1  0  0  0  0
 32 28  1  0  0  0  0
 33 34  2  0  0  0  0
 35 33  2  0  0  0  0
 36 33  1  0  0  0  0
M  END
>  <minimizedAffinity>
-5.0254879

$$$$

 OpenBabel03242522403D

 36 38  0  0  0  0  0  0  0  0999 V2000
   32.8790   28.1740   36.7860 C   0  0  0  0  0  0  0  0  0  0  0  0
   33.1250   27.6750   35.8020 H   0  0  0  0  0  0  0  0  0  0  0  0
   31.9740   27.6650   37.1280 H   0  0  0  0  0  0  0  0  0  0  0  0
   34.4050   28.9480   38.6200 C   0  0  0  0  0  0  0  0  0  0  0  0
   34.0390   27.9660   37.6450 C   0  0  0  0  0  0  0  0  0  0  0  0
   34.8400   26.8150   37.5590 C   0  0  0  0  0  0  0  0  0  0  0  0
   35.9100   26.7060   38.4070 N   0  0  0  0  0  0  0  0  0  0  0  0
   36.2010   27.6460   39.2900 C   0  0  0  0  0  0  0  0  0  0  0  0
   35.4720   28.7510   39.4060 N   0  0  0  0  0  0  0  0  0  0  0  0
   33.8250   29.8530   38.7310 H   0  0  0  0  0  0  0  0  0  0  0  0
   34.5930   26.0540   36.8350 H   0  0  0  0  0  0  0  0  0  0  0  0
   37.3830   27.4330   40.1910 C   0  0  0  0  0  0  0  0  0  0  0  0
   38.0870   26.8080   39.6180 H   0  0  0  0  0  0  0  0  0  0  0  0
   37.8410   28.4020   40.3800 H   0  0  0  0  0  0  0  0  0  0  0  0
   37.0270   26.7440   41.4600 C   0  0  0  0  0  3  0  0  0  0  0  0
   36.5330   27.8170   42.4310 C   0  0  0  0  0  2  0  0  0  0  0  0
   37.3490   27.6990   43.6790 C   0  0  0  0  0  2  0  0  0  0  0  0
   38.6340   27.0830   43.2290 C   0  0  0  0  0  2  0  0  0  0  0  0
   38.1610   26.1000   42.1680 C   0  0  0  0  0  2  0  0  0  0  0  0
   32.7080   29.6620   36.6060 C   0  0  0  0  0  0  0  0  0  0  0  0
   33.4390   30.2570   37.2140 H   0  0  0  0  0  0  0  0  0  0  0  0
   32.9770   29.9070   35.5390 H   0  0  0  0  0  0  0  0  0  0  0  0
   30.7040   30.8850   35.9090 C   0  0  0  0  0  0  0  0  0  0  0  0
   31.3780   30.1880   36.8860 C   0  0  0  0  0  0  0  0  0  0  0  0
   30.8590   29.9530   38.1250 C   0  0  0  0  0  0  0  0  0  0  0  0
   29.5990   30.4310   38.4260 C   0  0  0  0  0  0  0  0  0  0  0  0
   28.8620   31.1320   37.5100 C   0  0  0  0  0  0  0  0  0  0  0  0
   29.4520   31.3380   36.2590 C   0  0  0  0  0  0  0  0  0  0  0  0
   31.2900   29.4330   38.9600 H   0  0  0  0  0  0  0  0  0  0  0  0
   29.0920   30.3010   39.3780 H   0  0  0  0  0  0  0  0  0  0  0  0
   27.8900   31.5240   37.6790 H   0  0  0  0  0  0  0  0  0  0  0  0
   28.8840   31.8940   35.5150 H   0  0  0  0  0  0  0  0  0  0  0  0
   31.3330   31.2110   34.3160 S   0  0  0  0  0  0  0  0  0  0  0  0
   31.3610   32.7040   34.0050 O   0  0  0  0  0  0  0  0  0  0  0  0
   30.3620   30.6510   33.2870 O   0  0  0  0  0  0  0  0  0  0  0  0
   32.5520   30.6720   34.0840 H   0  0  0  0  0  0  0  0  0  0  0  0
  1  3  1  0  0  0  0
  1  5  1  0  0  0  0
  2  1  1  0  0  0  0
  4 10  1  0  0  0  0
  4  9  1  0  0  0  0
  5  4  2  0  0  0  0
  6  5  1  0  0  0  0
  6  7  2  0  0  0  0
  7  8  1  0  0  0  0
  8  9  2  0  0  0  0
  8 12  1  0  0  0  0
 11  6  1  0  0  0  0
 12 14  1  0  0  0  0
 12 15  1  0  0  0  0
 13 12  1  0  0  0  0
 15 19  1  0  0  0  0
 15 16  1  0  0  0  0
 16 17  1  0  0  0  0
 18 17  1  0  0  0  0
 19 18  1  0  0  0  0
 20  1  1  0  0  0  0
 20 24  1  0  0  0  0
 20 21  1  0  0  0  0
 22 20  1  0  0  0  0
 23 28  2  0  0  0  0
 23 24  1  0  0  0  0
 24 25  2  0  0  0  0
 25 26  1  0  0  0  0
 25 29  1  0  0  0  0
 26 30  1  0  0  0  0
 27 31  1  0  0  0  0
 27 26  2  0  0  0  0
 28 27  1  0  0  0  0
 32 28  1  0  0  0  0
 33 23  1  0  0  0  0
 34 33  2  0  0  0  0
 35 33  2  0  0  0  0
 36 33  1  0  0  0  0
M  END
>  <minimizedAffinity>
-5.02373362

$$$$

 OpenBabel03242522403D

 36 38  0  0  0  0  0  0  0  0999 V2000
   39.4080   30.5440   42.7780 C   0  0  0  0  0  0  0  0  0  0  0  0
   38.5460   31.2230   43.0480 H   0  0  0  0  0  0  0  0  0  0  0  0
   40.0910   30.6240   43.6270 H   0  0  0  0  0  0  0  0  0  0  0  0
   37.4130   29.0400   42.5530 C   0  0  0  0  0  0  0  0  0  0  0  0
   38.8320   29.2140   42.6020 C   0  0  0  0  0  0  0  0  0  0  0  0
   39.6280   28.0630   42.4750 C   0  0  0  0  0  0  0  0  0  0  0  0
   38.9990   26.8570   42.3130 N   0  0  0  0  0  0  0  0  0  0  0  0
   37.6820   26.7550   42.2750 C   0  0  0  0  0  0  0  0  0  0  0  0
   36.8910   27.8160   42.3910 N   0  0  0  0  0  0  0  0  0  0  0  0
   36.7520   29.8890   42.6450 H   0  0  0  0  0  0  0  0  0  0  0  0
   40.7020   28.1580   42.5080 H   0  0  0  0  0  0  0  0  0  0  0  0
   37.0800   25.3930   42.0760 C   0  0  0  0  0  0  0  0  0  0  0  0
   37.4920   24.7640   42.8810 H   0  0  0  0  0  0  0  0  0  0  0  0
   36.0030   25.4780   42.2060 H   0  0  0  0  0  0  0  0  0  0  0  0
   37.4220   24.7970   40.7560 C   0  0  0  0  0  3  0  0  0  0  0  0
   36.5940   25.5330   39.7030 C   0  0  0  0  0  2  0  0  0  0  0  0
   35.8350   24.5010   38.9310 C   0  0  0  0  0  2  0  0  0  0  0  0
   35.7020   23.3500   39.8760 C   0  0  0  0  0  2  0  0  0  0  0  0
   37.0440   23.3710   40.5930 C   0  0  0  0  0  2  0  0  0  0  0  0
   40.0230   30.9500   41.4630 C   0  0  0  0  0  0  0  0  0  0  0  0
   40.8390   31.7090   41.5840 H   0  0  0  0  0  0  0  0  0  0  0  0
   40.5520   30.0470   41.0430 H   0  0  0  0  0  0  0  0  0  0  0  0
   38.9490   30.7830   39.2680 C   0  0  0  0  0  0  0  0  0  0  0  0
   39.0980   31.4590   40.4580 C   0  0  0  0  0  0  0  0  0  0  0  0
   38.4120   32.5970   40.7580 C   0  0  0  0  0  0  0  0  0  0  0  0
   37.5210   33.1070   39.8340 C   0  0  0  0  0  0  0  0  0  0  0  0
   37.3140   32.4950   38.6270 C   0  0  0  0  0  0  0  0  0  0  0  0
   38.0500   31.3310   38.3820 C   0  0  0  0  0  0  0  0  0  0  0  0
   38.4490   33.2070   41.6420 H   0  0  0  0  0  0  0  0  0  0  0  0
   36.9240   34.0040   39.9700 H   0  0  0  0  0  0  0  0  0  0  0  0
   36.6450   32.8360   37.8760 H   0  0  0  0  0  0  0  0  0  0  0  0
   37.9020   30.8290   37.4280 H   0  0  0  0  0  0  0  0  0  0  0  0
   39.8110   29.3280   38.8430 S   0  0  0  0  0  0  0  0  0  0  0  0
   40.1530   29.2770   37.3570 O   0  0  0  0  0  0  0  0  0  0  0  0
   38.8820   28.1400   39.0370 O   0  0  0  0  0  0  0  0  0  0  0  0
   40.9280   29.1160   39.5770 H   0  0  0  0  0  0  0  0  0  0  0  0
  1  2  1  0  0  0  0
  1  3  1  0  0  0  0
  4  5  1  0  0  0  0
  4 10  1  0  0  0  0
  5  1  1  0  0  0  0
  6 11  1  0  0  0  0
  6  5  2  0  0  0  0
  7  6  1  0  0  0  0
  8  7  2  0  0  0  0
  8  9  1  0  0  0  0
  9  4  2  0  0  0  0
 12 14  1  0  0  0  0
 12  8  1  0  0  0  0
 12 13  1  0  0  0  0
 15 12  1  0  0  0  0
 16 15  1  0  0  0  0
 17 16  1  0  0  0  0
 17 18  1  0  0  0  0
 18 19  1  0  0  0  0
 19 15  1  0  0  0  0
 20 21  1  0  0  0  0
 20  1  1  0  0  0  0
 22 20  1  0  0  0  0
 23 24  1  0  0  0  0
 24 25  2  0  0  0  0
 24 20  1  0  0  0  0
 25 29  1  0  0  0  0
 26 30  1  0  0  0  0
 26 25  1  0  0  0  0
 27 26  2  0  0  0  0
 28 27  1  0  0  0  0
 28 23  2  0  0  0  0
 31 27  1  0  0  0  0
 32 28  1  0  0  0  0
 33 35  2  0  0  0  0
 33 23  1  0  0  0  0
 33 36  1  0  0  0  0
 34 33  2  0  0  0  0
M  END
>  <minimizedAffinity>
-5.0091033

$$$$
