
 OpenBabel03242519413D

 25 27  0  0  1  0  0  0  0  0999 V2000
   48.5660   33.2350   43.0640 O   0  0  0  0  0  0  0  0  0  0  0  0
   47.5910   33.7520   41.9970 P   0  0  2  0  0  0  0  0  0  0  0  0
   45.9900   33.4150   42.4980 O   0  0  0  0  0  0  0  0  0  0  0  0
   44.3790   35.9060   44.6150 C   0  0  0  0  0  0  0  0  0  0  0  0
   44.8710   35.2480   43.4640 C   0  0  0  0  0  0  0  0  0  0  0  0
   45.5240   34.0250   43.6410 C   0  0  0  0  0  0  0  0  0  0  0  0
   45.6530   33.5310   44.8940 N   0  0  0  0  0  0  0  0  0  0  0  0
   45.1730   34.1830   45.9780 C   0  0  0  0  0  0  0  0  0  0  0  0
   44.5420   35.3540   45.8550 N   0  0  0  0  0  0  0  0  0  0  0  0
   43.8720   36.8510   44.4960 H   0  0  0  0  0  0  0  0  0  0  0  0
   44.6940   35.7630   42.5200 H   0  0  0  0  0  0  0  0  0  0  0  0
   45.3680   33.6420   46.8860 H   0  0  0  0  0  0  0  0  0  0  0  0
   47.8890   32.9700   40.5580 O   0  0  0  0  0  0  0  0  0  0  0  0
   49.0590   32.4310   40.0950 C   0  0  1  0  0  3  0  0  0  0  0  0
   49.2890   32.4690   38.7900 O   0  0  0  0  0  0  0  0  0  0  0  0
   50.3650   31.7690   40.1130 C   0  0  0  0  0  0  0  0  0  0  0  0
   51.0260   31.7940   41.4710 C   0  0  0  0  0  2  0  0  0  0  0  0
   50.4070   30.6300   42.1910 C   0  0  0  0  0  2  0  0  0  0  0  0
   49.6490   29.8300   41.2000 C   0  0  0  0  0  2  0  0  0  0  0  0
   50.1390   30.2670   39.8640 C   0  0  0  0  0  2  0  0  0  0  0  0
   47.7860   35.3880   41.9060 O   0  0  0  0  0  0  0  0  0  0  0  0
   49.0290   35.7620   41.4200 C   0  0  0  0  0  0  0  0  0  0  0  0
   49.3640   37.0720   41.7470 F   0  0  0  0  0  0  0  0  0  0  0  0
   49.9760   34.8720   41.8140 F   0  0  0  0  0  0  0  0  0  0  0  0
   48.9320   35.7330   40.0380 F   0  0  0  0  0  0  0  0  0  0  0  0
  2  3  1  0  0  0  0
  2  1  2  1  0  0  0
  3  6  1  0  0  0  0
  4  9  1  0  0  0  0
  5  6  1  0  0  0  0
  5  4  2  0  0  0  0
  6  7  2  0  0  0  0
  7  8  1  0  0  0  0
  8 12  1  0  0  0  0
  9  8  2  0  0  0  0
 10  4  1  0  0  0  0
 11  5  1  0  0  0  0
 13  2  1  0  0  0  0
 14 16  1  0  0  0  0
 14 13  1  1  0  0  0
 15 14  1  0  0  0  0
 15 16  1  0  0  0  0
 16 17  1  0  0  0  0
 17 18  1  0  0  0  0
 19 18  1  0  0  0  0
 20 16  1  0  0  0  0
 20 19  1  0  0  0  0
 21  2  1  0  0  0  0
 22 23  1  0  0  0  0
 22 24  1  0  0  0  0
 22 21  1  0  0  0  0
 25 22  1  0  0  0  0
M  END
>  <minimizedAffinity>
-4.93253469

>  <minimizedRMSD>
3.34425664

$$$$
