
 OpenBabel03242519413D

 25 27  0  0  1  0  0  0  0  0999 V2000
   47.5750   32.3400   41.5480 O   0  0  0  0  0  0  0  0  0  0  0  0
   47.0790   33.7850   41.3940 P   0  0  2  0  0  0  0  0  0  0  0  0
   45.4600   33.8770   41.9400 O   0  0  0  0  0  0  0  0  0  0  0  0
   44.4120   35.9890   44.7190 C   0  0  0  0  0  0  0  0  0  0  0  0
   44.6610   35.5420   43.4010 C   0  0  0  0  0  0  0  0  0  0  0  0
   45.2320   34.2770   43.2380 C   0  0  0  0  0  0  0  0  0  0  0  0
   45.5180   33.5450   44.3390 N   0  0  0  0  0  0  0  0  0  0  0  0
   45.2700   33.9980   45.5890 C   0  0  0  0  0  0  0  0  0  0  0  0
   44.7250   35.2010   45.7920 N   0  0  0  0  0  0  0  0  0  0  0  0
   43.9710   36.9630   44.8630 H   0  0  0  0  0  0  0  0  0  0  0  0
   44.3790   36.2370   42.6100 H   0  0  0  0  0  0  0  0  0  0  0  0
   45.5620   33.2830   46.3370 H   0  0  0  0  0  0  0  0  0  0  0  0
   47.1400   34.2160   39.7880 O   0  0  0  0  0  0  0  0  0  0  0  0
   46.9600   33.4360   38.6780 C   0  0  1  0  0  3  0  0  0  0  0  0
   45.7480   32.9540   38.4430 O   0  0  0  0  0  0  0  0  0  0  0  0
   47.2790   32.7140   37.4440 C   0  0  0  0  0  0  0  0  0  0  0  0
   48.5250   33.2250   36.7600 C   0  0  0  0  0  2  0  0  0  0  0  0
   49.6410   32.5210   37.4790 C   0  0  0  0  0  2  0  0  0  0  0  0
   49.0420   31.4660   38.3300 C   0  0  0  0  0  2  0  0  0  0  0  0
   47.6560   31.2710   37.8220 C   0  0  0  0  0  2  0  0  0  0  0  0
   48.0210   34.7310   42.3630 O   0  0  0  0  0  0  0  0  0  0  0  0
   49.2640   35.0030   41.8160 C   0  0  0  0  0  0  0  0  0  0  0  0
   50.2040   35.3770   42.7710 F   0  0  0  0  0  0  0  0  0  0  0  0
   49.6840   33.9570   41.0590 F   0  0  0  0  0  0  0  0  0  0  0  0
   49.0970   36.1110   40.9990 F   0  0  0  0  0  0  0  0  0  0  0  0
  2  1  2  1  0  0  0
  2  3  1  0  0  0  0
  2 21  1  0  0  0  0
  3  6  1  0  0  0  0
  4 10  1  0  0  0  0
  4  9  1  0  0  0  0
  5  4  2  0  0  0  0
  6  5  1  0  0  0  0
  6  7  2  0  0  0  0
  7  8  1  0  0  0  0
  8  9  2  0  0  0  0
  8 12  1  0  0  0  0
 11  5  1  0  0  0  0
 13  2  1  0  0  0  0
 14 13  1  6  0  0  0
 15 14  1  0  0  0  0
 16 20  1  0  0  0  0
 16 15  1  0  0  0  0
 16 14  1  0  0  0  0
 17 16  1  0  0  0  0
 17 18  1  0  0  0  0
 18 19  1  0  0  0  0
 20 19  1  0  0  0  0
 22 21  1  0  0  0  0
 22 23  1  0  0  0  0
 24 22  1  0  0  0  0
 25 22  1  0  0  0  0
M  END
>  <minimizedAffinity>
-4.59952784

>  <minimizedRMSD>
1.99988115

$$$$
