
 OpenBabel03252504003D

 30 33  0  0  0  0  0  0  0  0999 V2000
   46.0870   31.7280   45.1040 C   0  0  0  0  0  0  0  0  0  0  0  0
   45.8190   33.0370   45.5070 C   0  0  0  0  0  0  0  0  0  0  0  0
   45.5260   33.2960   46.8210 C   0  0  0  0  0  0  0  0  0  0  0  0
   45.5000   32.2580   47.7290 C   0  0  0  0  0  0  0  0  0  0  0  0
   45.2560   32.1860   49.0430 N   0  0  0  0  0  0  0  0  0  0  0  0
   45.3490   30.9350   49.4990 C   0  0  0  0  0  0  0  0  0  0  0  0
   45.6760   30.1190   48.4250 C   0  0  0  0  0  0  0  0  0  0  0  0
   45.7670   30.9520   47.3320 C   0  0  0  0  0  0  0  0  0  0  0  0
   46.0610   30.6970   46.0040 C   0  0  0  0  0  0  0  0  0  0  0  0
   46.3250   31.4700   44.0670 H   0  0  0  0  0  0  0  0  0  0  0  0
   45.3170   34.3050   47.1430 H   0  0  0  0  0  0  0  0  0  0  0  0
   45.0190   32.9990   49.6570 H   0  0  0  0  0  0  0  0  0  0  0  0
   45.2010   30.5770   50.5260 H   0  0  0  0  0  0  0  0  0  0  0  0
   45.8300   29.0590   48.4200 H   0  0  0  0  0  0  0  0  0  0  0  0
   46.2690   29.6770   45.6990 H   0  0  0  0  0  0  0  0  0  0  0  0
   46.9340   35.0360   42.6680 C   0  0  0  0  0  0  0  0  0  0  0  0
   45.9610   36.0260   42.5480 C   0  0  0  0  0  0  0  0  0  0  0  0
   44.9060   36.0030   43.4610 C   0  0  0  0  0  0  0  0  0  0  0  0
   44.8890   35.0280   44.4000 N   0  0  0  0  0  0  0  0  0  0  0  0
   45.8660   34.0770   44.4800 C   0  0  0  0  0  0  0  0  0  0  0  0
   46.8840   34.0870   43.6120 N   0  0  0  0  0  0  0  0  0  0  0  0
   45.9370   36.8150   41.8210 H   0  0  0  0  0  0  0  0  0  0  0  0
   44.1040   36.7350   43.4410 H   0  0  0  0  0  0  0  0  0  0  0  0
   47.9900   35.1220   41.6970 C   0  0  0  0  0  0  0  0  0  0  0  0
   48.9470   35.9480   41.6910 O   0  0  0  0  0  0  0  0  0  0  0  0
   48.0160   34.1640   40.5490 C   0  0  0  0  0  3  0  0  0  0  0  0
   48.6940   32.8710   40.9210 C   0  0  0  0  0  2  0  0  0  0  0  0
   47.8680   31.8200   40.2450 C   0  0  0  0  0  2  0  0  0  0  0  0
   46.7160   32.4780   39.5550 C   0  0  0  0  0  2  0  0  0  0  0  0
   46.5810   33.8090   40.2200 C   0  0  0  0  0  2  0  0  0  0  0  0
  1  2  2  0  0  0  0
  1  9  1  0  0  0  0
  2  3  1  0  0  0  0
  3 11  1  0  0  0  0
  3  4  2  0  0  0  0
  4  5  1  0  0  0  0
  5  6  1  0  0  0  0
  5 12  1  0  0  0  0
  6 13  1  0  0  0  0
  7  6  2  0  0  0  0
  8  4  1  0  0  0  0
  8  7  1  0  0  0  0
  9  8  2  0  0  0  0
 10  1  1  0  0  0  0
 14  7  1  0  0  0  0
 15  9  1  0  0  0  0
 16 21  1  0  0  0  0
 17 16  2  0  0  0  0
 17 18  1  0  0  0  0
 18 19  2  0  0  0  0
 19 20  1  0  0  0  0
 20  2  1  0  0  0  0
 21 20  2  0  0  0  0
 22 17  1  0  0  0  0
 23 18  1  0  0  0  0
 24 16  1  0  0  0  0
 25 24  2  0  0  0  0
 26 27  1  0  0  0  0
 26 24  1  0  0  0  0
 28 27  1  0  0  0  0
 29 30  1  0  0  0  0
 29 28  1  0  0  0  0
 30 26  1  0  0  0  0
M  END
>  <minimizedAffinity>
-5.91249037

>  <minimizedRMSD>
0.347911954

$$$$
