
 OpenBabel03242517013D

 28 30  0  0  0  0  0  0  0  0999 V2000
   37.4930   31.6790   39.9190 C   0  0  0  0  0  0  0  0  0  0  0  0
   37.1800   32.9780   39.5600 C   0  0  0  0  0  0  0  0  0  0  0  0
   38.0230   33.9960   39.9620 C   0  0  0  0  0  0  0  0  0  0  0  0
   39.1380   33.7110   40.6970 C   0  0  0  0  0  0  0  0  0  0  0  0
   39.4790   32.4410   41.0700 C   0  0  0  0  0  0  0  0  0  0  0  0
   38.6090   31.4220   40.6520 C   0  0  0  0  0  0  0  0  0  0  0  0
   36.2940   33.2070   38.9760 H   0  0  0  0  0  0  0  0  0  0  0  0
   37.8440   35.0310   39.7190 H   0  0  0  0  0  0  0  0  0  0  0  0
   39.7990   34.5090   41.0110 H   0  0  0  0  0  0  0  0  0  0  0  0
   40.3510   32.1730   41.6510 H   0  0  0  0  0  0  0  0  0  0  0  0
   35.6040   29.1130   37.8800 C   0  0  0  0  0  0  0  0  0  0  0  0
   36.5470   30.1130   38.2020 C   0  0  0  0  0  0  0  0  0  0  0  0
   36.5670   30.6430   39.4690 C   0  0  0  0  0  0  0  0  0  0  0  0
   35.6540   30.1620   40.3600 N   0  0  0  0  0  0  0  0  0  0  0  0
   34.7480   29.2060   40.0640 C   0  0  0  0  0  0  0  0  0  0  0  0
   34.7290   28.6790   38.8030 N   0  0  0  0  0  0  0  0  0  0  0  0
   35.5780   28.6890   36.8900 H   0  0  0  0  0  0  0  0  0  0  0  0
   37.2490   30.4700   37.4880 H   0  0  0  0  0  0  0  0  0  0  0  0
   34.0640   28.8930   40.8490 H   0  0  0  0  0  0  0  0  0  0  0  0
   38.7440   29.2630   42.1370 C   0  0  0  0  0  0  0  0  0  0  0  0
   38.4310   29.6690   43.2670 O   0  0  0  0  0  0  0  0  0  0  0  0
   38.8380   30.0610   40.9690 N   0  0  0  0  0  0  0  0  0  0  0  0
   39.1420   29.6840   40.0190 H   0  0  0  0  0  0  0  0  0  0  0  0
   39.0730   27.8100   41.8740 C   0  0  0  0  0  3  0  0  0  0  0  0
   38.2780   27.4610   40.6280 C   0  0  0  0  0  2  0  0  0  0  0  0
   36.9970   26.8200   41.0790 C   0  0  0  0  0  2  0  0  0  0  0  0
   37.1090   26.5930   42.5620 C   0  0  0  0  0  2  0  0  0  0  0  0
   38.4820   27.0230   42.9960 C   0  0  0  0  0  2  0  0  0  0  0  0
  1  6  1  0  0  0  0
  2  1  2  0  0  0  0
  2  3  1  0  0  0  0
  3  4  2  0  0  0  0
  4  9  1  0  0  0  0
  4  5  1  0  0  0  0
  5 10  1  0  0  0  0
  6 22  1  0  0  0  0
  6  5  2  0  0  0  0
  7  2  1  0  0  0  0
  8  3  1  0  0  0  0
 11 12  2  0  0  0  0
 11 16  1  0  0  0  0
 12 13  1  0  0  0  0
 13  1  1  0  0  0  0
 13 14  2  0  0  0  0
 15 14  1  0  0  0  0
 15 19  1  0  0  0  0
 16 15  2  0  0  0  0
 17 11  1  0  0  0  0
 18 12  1  0  0  0  0
 20 21  2  0  0  0  0
 22 20  1  0  0  0  0
 23 22  1  0  0  0  0
 24 20  1  0  0  0  0
 24 28  1  0  0  0  0
 25 26  1  0  0  0  0
 25 24  1  0  0  0  0
 26 27  1  0  0  0  0
 27 28  1  0  0  0  0
M  END
>  <minimizedAffinity>
-5.52520514

$$$$

 OpenBabel03242517013D

 28 30  0  0  0  0  0  0  0  0999 V2000
   37.3260   29.9460   39.2900 C   0  0  0  0  0  0  0  0  0  0  0  0
   37.2770   30.7250   38.1480 C   0  0  0  0  0  0  0  0  0  0  0  0
   37.2850   32.1000   38.2850 C   0  0  0  0  0  0  0  0  0  0  0  0
   37.3390   32.6630   39.5280 C   0  0  0  0  0  0  0  0  0  0  0  0
   37.3880   31.9260   40.6770 C   0  0  0  0  0  0  0  0  0  0  0  0
   37.3800   30.5320   40.5150 C   0  0  0  0  0  0  0  0  0  0  0  0
   37.2340   30.2790   37.1590 H   0  0  0  0  0  0  0  0  0  0  0  0
   37.2490   32.7700   37.4410 H   0  0  0  0  0  0  0  0  0  0  0  0
   37.3450   33.7400   39.6350 H   0  0  0  0  0  0  0  0  0  0  0  0
   37.4320   32.3320   41.6790 H   0  0  0  0  0  0  0  0  0  0  0  0
   36.3000   26.3640   38.6400 C   0  0  0  0  0  0  0  0  0  0  0  0
   36.1900   27.7590   38.8170 C   0  0  0  0  0  0  0  0  0  0  0  0
   37.3150   28.5000   39.0870 C   0  0  0  0  0  0  0  0  0  0  0  0
   38.4970   27.8270   39.1700 N   0  0  0  0  0  0  0  0  0  0  0  0
   38.6160   26.4930   39.0030 C   0  0  0  0  0  0  0  0  0  0  0  0
   37.4960   25.7570   38.7340 N   0  0  0  0  0  0  0  0  0  0  0  0
   35.4250   25.7710   38.4280 H   0  0  0  0  0  0  0  0  0  0  0  0
   35.2540   28.2590   38.7470 H   0  0  0  0  0  0  0  0  0  0  0  0
   39.6070   26.0540   39.0900 H   0  0  0  0  0  0  0  0  0  0  0  0
   38.4150   29.2290   42.5450 C   0  0  0  0  0  0  0  0  0  0  0  0
   39.6040   29.5840   42.5410 O   0  0  0  0  0  0  0  0  0  0  0  0
   37.4240   29.6470   41.6200 N   0  0  0  0  0  0  0  0  0  0  0  0
   36.4180   29.2940   41.6340 H   0  0  0  0  0  0  0  0  0  0  0  0
   37.8730   28.2700   43.5820 C   0  0  0  0  0  3  0  0  0  0  0  0
   38.9220   27.1770   43.6720 C   0  0  0  0  0  2  0  0  0  0  0  0
   38.4770   26.0540   42.7800 C   0  0  0  0  0  2  0  0  0  0  0  0
   37.0810   26.3730   42.3230 C   0  0  0  0  0  2  0  0  0  0  0  0
   36.6500   27.6460   42.9960 C   0  0  0  0  0  2  0  0  0  0  0  0
  1  6  1  0  0  0  0
  2  3  1  0  0  0  0
  2  1  2  0  0  0  0
  3  4  2  0  0  0  0
  4  9  1  0  0  0  0
  4  5  1  0  0  0  0
  5 10  1  0  0  0  0
  6  5  2  0  0  0  0
  6 22  1  0  0  0  0
  7  2  1  0  0  0  0
  8  3  1  0  0  0  0
 11 16  2  0  0  0  0
 11 12  1  0  0  0  0
 12 13  2  0  0  0  0
 13 14  1  0  0  0  0
 13  1  1  0  0  0  0
 15 19  1  0  0  0  0
 15 14  2  0  0  0  0
 16 15  1  0  0  0  0
 17 11  1  0  0  0  0
 18 12  1  0  0  0  0
 20 24  1  0  0  0  0
 21 20  2  0  0  0  0
 22 23  1  0  0  0  0
 22 20  1  0  0  0  0
 24 25  1  0  0  0  0
 26 25  1  0  0  0  0
 27 26  1  0  0  0  0
 27 28  1  0  0  0  0
 28 24  1  0  0  0  0
M  END
>  <minimizedAffinity>
-5.38769197

$$$$

 OpenBabel03242517013D

 28 30  0  0  0  0  0  0  0  0999 V2000
   37.3770   25.7280   41.1390 C   0  0  0  0  0  0  0  0  0  0  0  0
   37.8800   24.5400   41.6390 C   0  0  0  0  0  0  0  0  0  0  0  0
   37.6050   23.3690   40.9600 C   0  0  0  0  0  0  0  0  0  0  0  0
   36.8520   23.3990   39.8210 C   0  0  0  0  0  0  0  0  0  0  0  0
   36.3400   24.5520   39.2980 C   0  0  0  0  0  0  0  0  0  0  0  0
   36.6300   25.7300   40.0030 C   0  0  0  0  0  0  0  0  0  0  0  0
   38.4780   24.5140   42.5440 H   0  0  0  0  0  0  0  0  0  0  0  0
   37.9630   22.4070   41.2890 H   0  0  0  0  0  0  0  0  0  0  0  0
   36.6380   22.4810   39.2890 H   0  0  0  0  0  0  0  0  0  0  0  0
   35.7400   24.6190   38.4000 H   0  0  0  0  0  0  0  0  0  0  0  0
   37.4300   28.5340   43.6750 C   0  0  0  0  0  0  0  0  0  0  0  0
   37.0310   27.3460   43.0260 C   0  0  0  0  0  0  0  0  0  0  0  0
   37.6970   26.9350   41.8960 C   0  0  0  0  0  0  0  0  0  0  0  0
   38.7250   27.7170   41.4610 N   0  0  0  0  0  0  0  0  0  0  0  0
   39.1150   28.8550   42.0730 C   0  0  0  0  0  0  0  0  0  0  0  0
   38.4520   29.2630   43.1970 N   0  0  0  0  0  0  0  0  0  0  0  0
   36.9160   28.8670   44.5630 H   0  0  0  0  0  0  0  0  0  0  0  0
   36.2260   26.7540   43.3870 H   0  0  0  0  0  0  0  0  0  0  0  0
   39.9480   29.4060   41.6440 H   0  0  0  0  0  0  0  0  0  0  0  0
   36.5730   27.9610   38.6210 C   0  0  0  0  0  0  0  0  0  0  0  0
   37.5810   27.8800   37.9000 O   0  0  0  0  0  0  0  0  0  0  0  0
   36.1620   26.9970   39.5760 N   0  0  0  0  0  0  0  0  0  0  0  0
   35.3070   27.1140   40.2020 H   0  0  0  0  0  0  0  0  0  0  0  0
   35.6370   29.1470   38.5530 C   0  0  0  0  0  3  0  0  0  0  0  0
   36.5480   30.3360   38.3090 C   0  0  0  0  0  2  0  0  0  0  0  0
   36.8310   30.9650   39.6430 C   0  0  0  0  0  2  0  0  0  0  0  0
   35.9360   30.2970   40.6500 C   0  0  0  0  0  2  0  0  0  0  0  0
   35.0590   29.3200   39.9180 C   0  0  0  0  0  2  0  0  0  0  0  0
  1  2  1  0  0  0  0
  1 13  1  0  0  0  0
  2  7  1  0  0  0  0
  3  8  1  0  0  0  0
  3  2  2  0  0  0  0
  4  3  1  0  0  0  0
  5  4  2  0  0  0  0
  5  6  1  0  0  0  0
  6  1  2  0  0  0  0
  9  4  1  0  0  0  0
 10  5  1  0  0  0  0
 11 17  1  0  0  0  0
 12 18  1  0  0  0  0
 12 11  2  0  0  0  0
 13 12  1  0  0  0  0
 14 13  2  0  0  0  0
 14 15  1  0  0  0  0
 15 16  2  0  0  0  0
 16 11  1  0  0  0  0
 19 15  1  0  0  0  0
 20 22  1  0  0  0  0
 21 20  2  0  0  0  0
 22  6  1  0  0  0  0
 22 23  1  0  0  0  0
 24 20  1  0  0  0  0
 24 28  1  0  0  0  0
 25 24  1  0  0  0  0
 25 26  1  0  0  0  0
 26 27  1  0  0  0  0
 28 27  1  0  0  0  0
M  END
>  <minimizedAffinity>
-5.38197088

$$$$

 OpenBabel03242517013D

 28 30  0  0  0  0  0  0  0  0999 V2000
   37.6450   30.8950   38.5040 C   0  0  0  0  0  0  0  0  0  0  0  0
   37.4540   31.0650   37.1450 C   0  0  0  0  0  0  0  0  0  0  0  0
   36.6550   30.1600   36.4720 C   0  0  0  0  0  0  0  0  0  0  0  0
   36.0740   29.1250   37.1470 C   0  0  0  0  0  0  0  0  0  0  0  0
   36.2400   28.9260   38.4890 C   0  0  0  0  0  0  0  0  0  0  0  0
   37.0550   29.8560   39.1530 C   0  0  0  0  0  0  0  0  0  0  0  0
   37.9150   31.8860   36.6060 H   0  0  0  0  0  0  0  0  0  0  0  0
   36.4610   30.2290   35.4140 H   0  0  0  0  0  0  0  0  0  0  0  0
   35.4480   28.4170   36.6200 H   0  0  0  0  0  0  0  0  0  0  0  0
   35.7980   28.1210   39.0600 H   0  0  0  0  0  0  0  0  0  0  0  0
   40.5820   32.9620   39.6900 C   0  0  0  0  0  0  0  0  0  0  0  0
   39.8590   31.9680   38.9970 C   0  0  0  0  0  0  0  0  0  0  0  0
   38.4980   31.8790   39.1650 C   0  0  0  0  0  0  0  0  0  0  0  0
   37.9150   32.7740   40.0110 N   0  0  0  0  0  0  0  0  0  0  0  0
   38.5950   33.7290   40.6800 C   0  0  0  0  0  0  0  0  0  0  0  0
   39.9490   33.8180   40.5120 N   0  0  0  0  0  0  0  0  0  0  0  0
   41.6500   33.0440   39.5680 H   0  0  0  0  0  0  0  0  0  0  0  0
   40.3390   31.2820   38.3430 H   0  0  0  0  0  0  0  0  0  0  0  0
   38.0340   34.3940   41.3310 H   0  0  0  0  0  0  0  0  0  0  0  0
   36.8870   28.9320   41.6040 C   0  0  0  0  0  0  0  0  0  0  0  0
   36.0640   28.0080   41.5090 O   0  0  0  0  0  0  0  0  0  0  0  0
   37.3150   29.7690   40.5420 N   0  0  0  0  0  0  0  0  0  0  0  0
   38.0010   30.5760   40.6670 H   0  0  0  0  0  0  0  0  0  0  0  0
   37.5510   29.2780   42.9190 C   0  0  0  0  0  3  0  0  0  0  0  0
   38.9470   29.7300   42.5310 C   0  0  0  0  0  2  0  0  0  0  0  0
   39.8590   28.5470   42.6800 C   0  0  0  0  0  2  0  0  0  0  0  0
   39.0700   27.4550   43.3480 C   0  0  0  0  0  2  0  0  0  0  0  0
   37.7070   27.9990   43.6740 C   0  0  0  0  0  2  0  0  0  0  0  0
  1  6  1  0  0  0  0
  1 13  1  0  0  0  0
  2  1  2  0  0  0  0
  3  2  1  0  0  0  0
  3  4  2  0  0  0  0
  4  5  1  0  0  0  0
  5 10  1  0  0  0  0
  5  6  2  0  0  0  0
  6 22  1  0  0  0  0
  7  2  1  0  0  0  0
  8  3  1  0  0  0  0
  9  4  1  0  0  0  0
 11 16  1  0  0  0  0
 12 13  1  0  0  0  0
 12 11  2  0  0  0  0
 13 14  2  0  0  0  0
 14 15  1  0  0  0  0
 15 19  1  0  0  0  0
 16 15  2  0  0  0  0
 17 11  1  0  0  0  0
 18 12  1  0  0  0  0
 20 24  1  0  0  0  0
 21 20  2  0  0  0  0
 22 23  1  0  0  0  0
 22 20  1  0  0  0  0
 24 28  1  0  0  0  0
 25 26  1  0  0  0  0
 25 24  1  0  0  0  0
 26 27  1  0  0  0  0
 27 28  1  0  0  0  0
M  END
>  <minimizedAffinity>
-5.28233385

$$$$

 OpenBabel03242517013D

 28 30  0  0  0  0  0  0  0  0999 V2000
   37.2200   30.2730   38.2850 C   0  0  0  0  0  0  0  0  0  0  0  0
   37.3190   30.6230   36.9510 C   0  0  0  0  0  0  0  0  0  0  0  0
   36.6300   29.8720   36.0170 C   0  0  0  0  0  0  0  0  0  0  0  0
   35.8710   28.8100   36.4180 C   0  0  0  0  0  0  0  0  0  0  0  0
   35.7490   28.4350   37.7270 C   0  0  0  0  0  0  0  0  0  0  0  0
   36.4570   29.2100   38.6580 C   0  0  0  0  0  0  0  0  0  0  0  0
   37.9220   31.4660   36.6300 H   0  0  0  0  0  0  0  0  0  0  0  0
   36.6600   30.0860   34.9610 H   0  0  0  0  0  0  0  0  0  0  0  0
   35.3320   28.2230   35.6870 H   0  0  0  0  0  0  0  0  0  0  0  0
   35.1590   27.6020   38.0850 H   0  0  0  0  0  0  0  0  0  0  0  0
   38.3560   33.0260   40.6160 C   0  0  0  0  0  0  0  0  0  0  0  0
   37.5450   32.3150   39.7050 C   0  0  0  0  0  0  0  0  0  0  0  0
   37.9680   31.0980   39.2280 C   0  0  0  0  0  0  0  0  0  0  0  0
   39.1730   30.6400   39.6730 N   0  0  0  0  0  0  0  0  0  0  0  0
   39.9570   31.3110   40.5440 C   0  0  0  0  0  0  0  0  0  0  0  0
   39.5350   32.5220   41.0170 N   0  0  0  0  0  0  0  0  0  0  0  0
   38.0360   33.9820   40.9980 H   0  0  0  0  0  0  0  0  0  0  0  0
   36.6090   32.6960   39.3750 H   0  0  0  0  0  0  0  0  0  0  0  0
   40.9000   30.8560   40.8350 H   0  0  0  0  0  0  0  0  0  0  0  0
   36.6410   27.7920   40.8580 C   0  0  0  0  0  0  0  0  0  0  0  0
   36.9080   26.6510   40.4460 O   0  0  0  0  0  0  0  0  0  0  0  0
   36.4230   28.9340   40.0460 N   0  0  0  0  0  0  0  0  0  0  0  0
   36.1620   29.8920   40.4340 H   0  0  0  0  0  0  0  0  0  0  0  0
   36.5140   28.0960   42.3350 C   0  0  0  0  0  3  0  0  0  0  0  0
   37.3600   29.3400   42.5380 C   0  0  0  0  0  2  0  0  0  0  0  0
   38.7110   28.8900   43.0130 C   0  0  0  0  0  2  0  0  0  0  0  0
   38.6180   27.4160   43.2940 C   0  0  0  0  0  2  0  0  0  0  0  0
   37.1950   26.9870   43.0650 C   0  0  0  0  0  2  0  0  0  0  0  0
  1  6  1  0  0  0  0
  1 13  1  0  0  0  0
  2  1  2  0  0  0  0
  3  4  2  0  0  0  0
  3  2  1  0  0  0  0
  4  5  1  0  0  0  0
  5 10  1  0  0  0  0
  5  6  2  0  0  0  0
  6 22  1  0  0  0  0
  7  2  1  0  0  0  0
  8  3  1  0  0  0  0
  9  4  1  0  0  0  0
 11 17  1  0  0  0  0
 11 16  1  0  0  0  0
 12 11  2  0  0  0  0
 13 14  2  0  0  0  0
 13 12  1  0  0  0  0
 14 15  1  0  0  0  0
 15 19  1  0  0  0  0
 15 16  2  0  0  0  0
 18 12  1  0  0  0  0
 20 24  1  0  0  0  0
 21 20  2  0  0  0  0
 22 23  1  0  0  0  0
 22 20  1  0  0  0  0
 24 25  1  0  0  0  0
 24 28  1  0  0  0  0
 25 26  1  0  0  0  0
 26 27  1  0  0  0  0
 28 27  1  0  0  0  0
M  END
>  <minimizedAffinity>
-5.24513578

$$$$

 OpenBabel03242517013D

 28 30  0  0  0  0  0  0  0  0999 V2000
   39.0750   30.9260   40.8400 C   0  0  0  0  0  0  0  0  0  0  0  0
   39.5510   32.0070   40.1190 C   0  0  0  0  0  0  0  0  0  0  0  0
   38.6410   32.9150   39.6120 C   0  0  0  0  0  0  0  0  0  0  0  0
   37.3040   32.7360   39.8250 C   0  0  0  0  0  0  0  0  0  0  0  0
   36.7980   31.6810   40.5320 C   0  0  0  0  0  0  0  0  0  0  0  0
   37.7390   30.7710   41.0380 C   0  0  0  0  0  0  0  0  0  0  0  0
   40.6130   32.1500   39.9480 H   0  0  0  0  0  0  0  0  0  0  0  0
   38.9380   33.7800   39.0420 H   0  0  0  0  0  0  0  0  0  0  0  0
   36.5920   33.4480   39.4280 H   0  0  0  0  0  0  0  0  0  0  0  0
   35.7480   31.5040   40.7230 H   0  0  0  0  0  0  0  0  0  0  0  0
   41.7510   29.2230   42.8990 C   0  0  0  0  0  0  0  0  0  0  0  0
   40.8050   30.1910   42.5020 C   0  0  0  0  0  0  0  0  0  0  0  0
   40.0790   29.9980   41.3520 C   0  0  0  0  0  0  0  0  0  0  0  0
   40.3220   28.8560   40.6470 N   0  0  0  0  0  0  0  0  0  0  0  0
   41.2240   27.9230   41.0170 C   0  0  0  0  0  0  0  0  0  0  0  0
   41.9460   28.1160   42.1620 N   0  0  0  0  0  0  0  0  0  0  0  0
   42.3270   29.3620   43.8000 H   0  0  0  0  0  0  0  0  0  0  0  0
   40.6350   31.0730   43.0710 H   0  0  0  0  0  0  0  0  0  0  0  0
   41.3410   27.0470   40.3830 H   0  0  0  0  0  0  0  0  0  0  0  0
   36.8500   28.3420   41.4820 C   0  0  0  0  0  0  0  0  0  0  0  0
   36.5810   27.9200   40.3460 O   0  0  0  0  0  0  0  0  0  0  0  0
   37.3550   29.6320   41.7860 N   0  0  0  0  0  0  0  0  0  0  0  0
   37.5430   29.9720   42.7780 H   0  0  0  0  0  0  0  0  0  0  0  0
   36.6600   27.4880   42.7160 C   0  0  0  0  0  3  0  0  0  0  0  0
   37.7300   27.9690   43.6780 C   0  0  0  0  0  2  0  0  0  0  0  0
   38.9060   27.0460   43.5380 C   0  0  0  0  0  2  0  0  0  0  0  0
   38.4750   25.9020   42.6620 C   0  0  0  0  0  2  0  0  0  0  0  0
   37.0200   26.0910   42.3340 C   0  0  0  0  0  2  0  0  0  0  0  0
  1  6  1  0  0  0  0
  1 13  1  0  0  0  0
  2  1  2  0  0  0  0
  3  4  2  0  0  0  0
  3  2  1  0  0  0  0
  4  5  1  0  0  0  0
  5 10  1  0  0  0  0
  5  6  2  0  0  0  0
  6 22  1  0  0  0  0
  7  2  1  0  0  0  0
  8  3  1  0  0  0  0
  9  4  1  0  0  0  0
 11 17  1  0  0  0  0
 12 11  1  0  0  0  0
 12 18  1  0  0  0  0
 13 12  2  0  0  0  0
 14 15  2  0  0  0  0
 14 13  1  0  0  0  0
 15 16  1  0  0  0  0
 16 11  2  0  0  0  0
 19 15  1  0  0  0  0
 20 22  1  0  0  0  0
 20 24  1  0  0  0  0
 21 20  2  0  0  0  0
 22 23  1  0  0  0  0
 24 25  1  0  0  0  0
 26 25  1  0  0  0  0
 27 26  1  0  0  0  0
 28 27  1  0  0  0  0
 28 24  1  0  0  0  0
M  END
>  <minimizedAffinity>
-5.12317896

$$$$

 OpenBabel03242517013D

 28 30  0  0  0  0  0  0  0  0999 V2000
   37.6820   28.0410   41.4660 C   0  0  0  0  0  0  0  0  0  0  0  0
   37.4430   26.9470   42.2780 C   0  0  0  0  0  0  0  0  0  0  0  0
   38.3780   26.6220   43.2410 C   0  0  0  0  0  0  0  0  0  0  0  0
   39.5090   27.3740   43.3780 C   0  0  0  0  0  0  0  0  0  0  0  0
   39.7800   28.4600   42.5950 C   0  0  0  0  0  0  0  0  0  0  0  0
   38.8170   28.7730   41.6230 C   0  0  0  0  0  0  0  0  0  0  0  0
   36.5440   26.3470   42.1710 H   0  0  0  0  0  0  0  0  0  0  0  0
   38.2590   25.7840   43.9100 H   0  0  0  0  0  0  0  0  0  0  0  0
   40.2410   27.1190   44.1330 H   0  0  0  0  0  0  0  0  0  0  0  0
   40.6620   29.0810   42.6710 H   0  0  0  0  0  0  0  0  0  0  0  0
   34.5490   29.1840   39.6820 C   0  0  0  0  0  0  0  0  0  0  0  0
   35.4600   28.9460   40.7340 C   0  0  0  0  0  0  0  0  0  0  0  0
   36.6620   28.3390   40.4640 C   0  0  0  0  0  0  0  0  0  0  0  0
   36.9090   27.9940   39.1690 N   0  0  0  0  0  0  0  0  0  0  0  0
   36.0470   28.2160   38.1540 C   0  0  0  0  0  0  0  0  0  0  0  0
   34.8500   28.8200   38.4230 N   0  0  0  0  0  0  0  0  0  0  0  0
   33.6020   29.6590   39.8790 H   0  0  0  0  0  0  0  0  0  0  0  0
   35.2410   29.2250   41.7350 H   0  0  0  0  0  0  0  0  0  0  0  0
   36.3420   27.9020   37.1560 H   0  0  0  0  0  0  0  0  0  0  0  0
   39.3120   31.2400   40.8770 C   0  0  0  0  0  0  0  0  0  0  0  0
   39.5460   31.8250   41.9470 O   0  0  0  0  0  0  0  0  0  0  0  0
   38.9690   29.8710   40.7410 N   0  0  0  0  0  0  0  0  0  0  0  0
   38.7420   29.4090   39.8070 H   0  0  0  0  0  0  0  0  0  0  0  0
   39.3720   31.9580   39.5460 C   0  0  0  0  0  3  0  0  0  0  0  0
   38.7650   33.3210   39.8240 C   0  0  0  0  0  2  0  0  0  0  0  0
   37.3180   33.2570   39.4300 C   0  0  0  0  0  2  0  0  0  0  0  0
   37.1040   31.9440   38.7290 C   0  0  0  0  0  2  0  0  0  0  0  0
   38.4320   31.2470   38.6290 C   0  0  0  0  0  2  0  0  0  0  0  0
  1  6  2  0  0  0  0
  1  2  1  0  0  0  0
  2  3  2  0  0  0  0
  3  4  1  0  0  0  0
  3  8  1  0  0  0  0
  4  9  1  0  0  0  0
  5 10  1  0  0  0  0
  5  4  2  0  0  0  0
  6  5  1  0  0  0  0
  7  2  1  0  0  0  0
 11 17  1  0  0  0  0
 11 12  1  0  0  0  0
 12 18  1  0  0  0  0
 13 12  2  0  0  0  0
 13  1  1  0  0  0  0
 14 13  1  0  0  0  0
 15 16  1  0  0  0  0
 15 14  2  0  0  0  0
 16 11  2  0  0  0  0
 19 15  1  0  0  0  0
 20 21  2  0  0  0  0
 22 20  1  0  0  0  0
 22  6  1  0  0  0  0
 23 22  1  0  0  0  0
 24 25  1  0  0  0  0
 24 20  1  0  0  0  0
 26 25  1  0  0  0  0
 27 26  1  0  0  0  0
 28 27  1  0  0  0  0
 28 24  1  0  0  0  0
M  END
>  <minimizedAffinity>
-5.09032154

$$$$

 OpenBabel03242517013D

 28 30  0  0  0  0  0  0  0  0999 V2000
   36.4240   26.7240   39.4890 C   0  0  0  0  0  0  0  0  0  0  0  0
   35.7800   26.2060   38.3800 C   0  0  0  0  0  0  0  0  0  0  0  0
   34.9370   27.0300   37.6610 C   0  0  0  0  0  0  0  0  0  0  0  0
   34.7520   28.3260   38.0480 C   0  0  0  0  0  0  0  0  0  0  0  0
   35.3710   28.8720   39.1370 C   0  0  0  0  0  0  0  0  0  0  0  0
   36.2230   28.0180   39.8540 C   0  0  0  0  0  0  0  0  0  0  0  0
   35.9250   25.1750   38.0700 H   0  0  0  0  0  0  0  0  0  0  0  0
   34.4020   26.6960   36.7860 H   0  0  0  0  0  0  0  0  0  0  0  0
   34.0910   28.9710   37.4840 H   0  0  0  0  0  0  0  0  0  0  0  0
   35.2520   29.8930   39.4770 H   0  0  0  0  0  0  0  0  0  0  0  0
   37.8150   24.0170   41.7350 C   0  0  0  0  0  0  0  0  0  0  0  0
   36.8710   24.8460   41.0920 C   0  0  0  0  0  0  0  0  0  0  0  0
   37.3030   25.8100   40.2130 C   0  0  0  0  0  0  0  0  0  0  0  0
   38.6470   25.9110   40.0120 N   0  0  0  0  0  0  0  0  0  0  0  0
   39.5600   25.1250   40.6210 C   0  0  0  0  0  0  0  0  0  0  0  0
   39.1290   24.1660   41.4950 N   0  0  0  0  0  0  0  0  0  0  0  0
   37.4900   23.2570   42.4270 H   0  0  0  0  0  0  0  0  0  0  0  0
   35.8280   24.7450   41.2670 H   0  0  0  0  0  0  0  0  0  0  0  0
   40.6090   25.2880   40.3900 H   0  0  0  0  0  0  0  0  0  0  0  0
   38.0780   29.2410   41.2510 C   0  0  0  0  0  0  0  0  0  0  0  0
   38.8070   29.7470   40.3830 O   0  0  0  0  0  0  0  0  0  0  0  0
   36.9270   28.4510   41.0040 N   0  0  0  0  0  0  0  0  0  0  0  0
   36.3420   28.0040   41.7750 H   0  0  0  0  0  0  0  0  0  0  0  0
   38.3520   29.4220   42.7280 C   0  0  0  0  0  3  0  0  0  0  0  0
   39.8430   29.1760   42.8690 C   0  0  0  0  0  2  0  0  0  0  0  0
   40.0240   27.7420   43.2770 C   0  0  0  0  0  2  0  0  0  0  0  0
   38.6590   27.1890   43.5820 C   0  0  0  0  0  2  0  0  0  0  0  0
   37.6610   28.3040   43.4350 C   0  0  0  0  0  2  0  0  0  0  0  0
  1  6  1  0  0  0  0
  1 13  1  0  0  0  0
  2  1  2  0  0  0  0
  3  4  2  0  0  0  0
  3  2  1  0  0  0  0
  4  5  1  0  0  0  0
  5 10  1  0  0  0  0
  5  6  2  0  0  0  0
  6 22  1  0  0  0  0
  7  2  1  0  0  0  0
  8  3  1  0  0  0  0
  9  4  1  0  0  0  0
 11 17  1  0  0  0  0
 12 18  1  0  0  0  0
 12 11  2  0  0  0  0
 13 12  1  0  0  0  0
 14 13  2  0  0  0  0
 14 15  1  0  0  0  0
 15 16  2  0  0  0  0
 16 11  1  0  0  0  0
 19 15  1  0  0  0  0
 20 24  1  0  0  0  0
 21 20  2  0  0  0  0
 22 20  1  0  0  0  0
 22 23  1  0  0  0  0
 24 25  1  0  0  0  0
 24 28  1  0  0  0  0
 25 26  1  0  0  0  0
 26 27  1  0  0  0  0
 28 27  1  0  0  0  0
M  END
>  <minimizedAffinity>
-5.06559706

$$$$

 OpenBabel03242517013D

 28 30  0  0  0  0  0  0  0  0999 V2000
   38.6650   31.6360   40.9050 C   0  0  0  0  0  0  0  0  0  0  0  0
   39.6310   32.6020   41.1260 C   0  0  0  0  0  0  0  0  0  0  0  0
   39.4170   33.8750   40.6340 C   0  0  0  0  0  0  0  0  0  0  0  0
   38.2730   34.1590   39.9460 C   0  0  0  0  0  0  0  0  0  0  0  0
   37.2980   33.2320   39.7080 C   0  0  0  0  0  0  0  0  0  0  0  0
   37.5340   31.9460   40.2160 C   0  0  0  0  0  0  0  0  0  0  0  0
   40.5410   32.3780   41.6730 H   0  0  0  0  0  0  0  0  0  0  0  0
   40.1240   34.6780   40.7680 H   0  0  0  0  0  0  0  0  0  0  0  0
   38.1060   35.1570   39.5600 H   0  0  0  0  0  0  0  0  0  0  0  0
   36.3780   33.4160   39.1680 H   0  0  0  0  0  0  0  0  0  0  0  0
   39.9790   28.1370   41.4840 C   0  0  0  0  0  0  0  0  0  0  0  0
   39.7890   29.3940   40.8690 C   0  0  0  0  0  0  0  0  0  0  0  0
   38.9420   30.3090   41.4460 C   0  0  0  0  0  0  0  0  0  0  0  0
   38.3220   29.9400   42.6030 N   0  0  0  0  0  0  0  0  0  0  0  0
   38.4960   28.7420   43.2000 C   0  0  0  0  0  0  0  0  0  0  0  0
   39.3390   27.8320   42.6250 N   0  0  0  0  0  0  0  0  0  0  0  0
   40.6410   27.4100   41.0420 H   0  0  0  0  0  0  0  0  0  0  0  0
   40.2860   29.6550   39.9670 H   0  0  0  0  0  0  0  0  0  0  0  0
   37.9520   28.5480   44.1210 H   0  0  0  0  0  0  0  0  0  0  0  0
   36.1260   30.1350   38.9410 C   0  0  0  0  0  0  0  0  0  0  0  0
   36.4410   30.3070   37.7530 O   0  0  0  0  0  0  0  0  0  0  0  0
   36.6100   30.8870   40.0420 N   0  0  0  0  0  0  0  0  0  0  0  0
   36.2930   30.7320   41.0470 H   0  0  0  0  0  0  0  0  0  0  0  0
   35.1510   29.0560   39.3600 C   0  0  0  0  0  3  0  0  0  0  0  0
   35.7030   28.5370   40.6760 C   0  0  0  0  0  2  0  0  0  0  0  0
   36.5210   27.3160   40.3690 C   0  0  0  0  0  2  0  0  0  0  0  0
   36.2940   26.9790   38.9210 C   0  0  0  0  0  2  0  0  0  0  0  0
   35.2830   27.9460   38.3700 C   0  0  0  0  0  2  0  0  0  0  0  0
  1  2  1  0  0  0  0
  1 13  1  0  0  0  0
  2  7  1  0  0  0  0
  3  8  1  0  0  0  0
  3  2  2  0  0  0  0
  4  3  1  0  0  0  0
  5  4  2  0  0  0  0
  5  6  1  0  0  0  0
  6  1  2  0  0  0  0
  9  4  1  0  0  0  0
 10  5  1  0  0  0  0
 11 16  1  0  0  0  0
 12 13  1  0  0  0  0
 12 11  2  0  0  0  0
 13 14  2  0  0  0  0
 14 15  1  0  0  0  0
 15 19  1  0  0  0  0
 16 15  2  0  0  0  0
 17 11  1  0  0  0  0
 18 12  1  0  0  0  0
 20 24  1  0  0  0  0
 20 22  1  0  0  0  0
 21 20  2  0  0  0  0
 22  6  1  0  0  0  0
 22 23  1  0  0  0  0
 24 25  1  0  0  0  0
 26 25  1  0  0  0  0
 27 26  1  0  0  0  0
 28 27  1  0  0  0  0
 28 24  1  0  0  0  0
M  END
>  <minimizedAffinity>
-5.06057072

$$$$
