
 OpenBabel03252504003D

 30 33  0  0  0  0  0  0  0  0999 V2000
   46.0350   31.7130   45.1780 C   0  0  0  0  0  0  0  0  0  0  0  0
   45.7640   33.0200   45.5860 C   0  0  0  0  0  0  0  0  0  0  0  0
   45.4810   33.2760   46.9020 C   0  0  0  0  0  0  0  0  0  0  0  0
   45.4650   32.2360   47.8080 C   0  0  0  0  0  0  0  0  0  0  0  0
   45.2300   32.1600   49.1240 N   0  0  0  0  0  0  0  0  0  0  0  0
   45.3320   30.9080   49.5760 C   0  0  0  0  0  0  0  0  0  0  0  0
   45.6530   30.0950   48.4990 C   0  0  0  0  0  0  0  0  0  0  0  0
   45.7330   30.9310   47.4060 C   0  0  0  0  0  0  0  0  0  0  0  0
   46.0190   30.6800   46.0760 C   0  0  0  0  0  0  0  0  0  0  0  0
   46.2660   31.4580   44.1380 H   0  0  0  0  0  0  0  0  0  0  0  0
   45.2700   34.2830   47.2270 H   0  0  0  0  0  0  0  0  0  0  0  0
   44.9950   32.9710   49.7410 H   0  0  0  0  0  0  0  0  0  0  0  0
   45.1920   30.5480   50.6040 H   0  0  0  0  0  0  0  0  0  0  0  0
   45.8110   29.0370   48.4900 H   0  0  0  0  0  0  0  0  0  0  0  0
   46.2280   29.6610   45.7680 H   0  0  0  0  0  0  0  0  0  0  0  0
   46.7830   34.9600   42.6700 C   0  0  0  0  0  0  0  0  0  0  0  0
   45.8740   36.0150   42.6300 C   0  0  0  0  0  0  0  0  0  0  0  0
   44.8970   36.0570   43.6250 C   0  0  0  0  0  0  0  0  0  0  0  0
   44.8870   35.0780   44.5620 N   0  0  0  0  0  0  0  0  0  0  0  0
   45.8000   34.0630   44.5590 C   0  0  0  0  0  0  0  0  0  0  0  0
   46.7430   34.0100   43.6120 N   0  0  0  0  0  0  0  0  0  0  0  0
   45.8450   36.8090   41.9100 H   0  0  0  0  0  0  0  0  0  0  0  0
   44.1480   36.8430   43.6720 H   0  0  0  0  0  0  0  0  0  0  0  0
   47.7610   34.9810   41.6170 C   0  0  0  0  0  0  0  0  0  0  0  0
   48.6870   35.8270   41.4610 O   0  0  0  0  0  0  0  0  0  0  0  0
   47.7330   33.9200   40.5630 C   0  0  0  0  0  3  0  0  0  0  0  0
   46.3230   33.5050   40.2300 C   0  0  0  0  0  2  0  0  0  0  0  0
   46.3390   33.3210   38.7440 C   0  0  0  0  0  2  0  0  0  0  0  0
   47.6950   33.6750   38.2260 C   0  0  0  0  0  2  0  0  0  0  0  0
   48.3040   34.5220   39.2960 C   0  0  0  0  0  2  0  0  0  0  0  0
  1  2  2  0  0  0  0
  1  9  1  0  0  0  0
  2  3  1  0  0  0  0
  3 11  1  0  0  0  0
  3  4  2  0  0  0  0
  4  5  1  0  0  0  0
  5  6  1  0  0  0  0
  5 12  1  0  0  0  0
  6 13  1  0  0  0  0
  7  6  2  0  0  0  0
  8  4  1  0  0  0  0
  8  7  1  0  0  0  0
  9  8  2  0  0  0  0
 10  1  1  0  0  0  0
 14  7  1  0  0  0  0
 15  9  1  0  0  0  0
 16 21  1  0  0  0  0
 17 16  2  0  0  0  0
 17 18  1  0  0  0  0
 18 23  1  0  0  0  0
 18 19  2  0  0  0  0
 20 19  1  0  0  0  0
 20  2  1  0  0  0  0
 21 20  2  0  0  0  0
 22 17  1  0  0  0  0
 24 16  1  0  0  0  0
 25 24  2  0  0  0  0
 26 24  1  0  0  0  0
 27 26  1  0  0  0  0
 28 27  1  0  0  0  0
 29 28  1  0  0  0  0
 29 30  1  0  0  0  0
 30 26  1  0  0  0  0
M  END
>  <minimizedAffinity>
-6.16412592

>  <minimizedRMSD>
0.375801951

$$$$
