
 OpenBabel03242510503D

 18 19  0  0  0  0  0  0  0  0999 V2000
   44.5590   36.3190   44.2890 C   0  0  0  0  0  0  0  0  0  0  0  0
   45.2570   36.0300   43.1040 C   0  0  0  0  0  0  0  0  0  0  0  0
   46.0110   34.8400   43.0720 C   0  0  0  0  0  0  0  0  0  0  0  0
   46.0150   34.0560   44.1810 N   0  0  0  0  0  0  0  0  0  0  0  0
   45.3370   34.3680   45.2890 C   0  0  0  0  0  0  0  0  0  0  0  0
   44.6050   35.4980   45.3540 N   0  0  0  0  0  0  0  0  0  0  0  0
   46.4500   32.4920   46.3850 C   0  0  0  0  0  0  0  0  0  0  0  0
   47.2850   32.3620   45.4740 O   0  0  0  0  0  0  0  0  0  0  0  0
   45.4010   33.4770   46.4150 N   0  0  0  0  0  0  0  0  0  0  0  0
   43.9800   37.2530   44.2860 H   0  0  0  0  0  0  0  0  0  0  0  0
   45.2620   36.6390   42.2230 H   0  0  0  0  0  0  0  0  0  0  0  0
   46.5940   34.5020   42.2200 H   0  0  0  0  0  0  0  0  0  0  0  0
   44.7010   33.5840   47.1810 H   0  0  0  0  0  0  0  0  0  0  0  0
   46.4270   31.6120   47.6060 C   0  0  0  0  0  3  0  0  0  0  0  0
   45.5990   30.3830   47.3990 C   0  0  0  0  0  2  0  0  0  0  0  0
   45.0470   30.0620   48.7570 C   0  0  0  0  0  2  0  0  0  0  0  0
   45.2720   31.2690   49.6280 C   0  0  0  0  0  2  0  0  0  0  0  0
   45.6410   32.3680   48.6580 C   0  0  0  0  0  2  0  0  0  0  0  0
  1  6  1  0  0  0  0
  2  1  2  0  0  0  0
  3  2  1  0  0  0  0
  3  4  2  0  0  0  0
  4  5  1  0  0  0  0
  5  6  2  0  0  0  0
  5  9  1  0  0  0  0
  7  9  1  0  0  0  0
  7 14  1  0  0  0  0
  8  7  2  0  0  0  0
  9 13  1  0  0  0  0
 10  1  1  0  0  0  0
 11  2  1  0  0  0  0
 12  3  1  0  0  0  0
 14 18  1  0  0  0  0
 15 14  1  0  0  0  0
 15 16  1  0  0  0  0
 16 17  1  0  0  0  0
 18 17  1  0  0  0  0
M  END
>  <minimizedAffinity>
-5.56390095

>  <minimizedRMSD>
0.76061213

$$$$
