
 OpenBabel03252505443D

 38 41  0  0  1  0  0  0  0  0999 V2000
   37.3970   30.5440   38.2480 C   0  0  1  0  0  0  0  0  0  0  0  0
   37.2440   32.0490   38.6490 C   0  0  0  0  0  0  0  0  0  0  0  0
   36.7580   30.8710   39.4890 C   0  0  2  0  0  0  0  0  0  0  0  0
   38.4870   30.2640   38.2230 H   0  0  0  0  0  0  0  0  0  0  0  0
   36.5340   32.6330   38.0650 H   0  0  0  0  0  0  0  0  0  0  0  0
   38.1220   32.5760   39.0140 H   0  0  0  0  0  0  0  0  0  0  0  0
   35.6650   30.9280   39.6340 H   0  0  0  0  0  0  0  0  0  0  0  0
   36.6710   30.1770   37.0170 C   0  0  0  0  0  0  0  0  0  0  0  0
   35.6940   29.1710   37.1060 C   0  0  0  0  0  0  0  0  0  0  0  0
   34.9980   28.8130   35.9560 C   0  0  0  0  0  0  0  0  0  0  0  0
   35.2990   29.4590   34.8020 N   0  0  0  0  0  0  0  0  0  0  0  0
   36.2310   30.4100   34.7500 C   0  0  0  0  0  0  0  0  0  0  0  0
   36.8900   30.7400   35.8630 N   0  0  0  0  0  0  0  0  0  0  0  0
   35.4360   28.6420   38.0160 H   0  0  0  0  0  0  0  0  0  0  0  0
   34.2270   28.0330   35.9820 H   0  0  0  0  0  0  0  0  0  0  0  0
   36.4150   31.0070   33.3830 C   0  0  0  0  0  0  0  0  0  0  0  0
   36.8590   30.0600   32.4720 F   0  0  0  0  0  0  0  0  0  0  0  0
   37.4340   31.9860   33.4520 F   0  0  0  0  0  0  0  0  0  0  0  0
   35.2780   31.6640   33.0010 F   0  0  0  0  0  0  0  0  0  0  0  0
   37.5740   30.5400   40.7200 C   0  0  0  0  0  0  0  0  0  0  0  0
   38.6990   31.2590   41.0410 C   0  0  0  0  0  0  0  0  0  0  0  0
   39.4470   30.9990   42.1710 C   0  0  0  0  0  0  0  0  0  0  0  0
   39.0440   30.0020   42.9760 N   0  0  0  0  0  0  0  0  0  0  0  0
   37.9290   29.2800   42.6710 C   0  0  0  0  0  0  0  0  0  0  0  0
   37.1930   29.5330   41.5600 N   0  0  0  0  0  0  0  0  0  0  0  0
   38.9890   32.0530   40.3680 H   0  0  0  0  0  0  0  0  0  0  0  0
   40.3330   31.5710   42.4170 H   0  0  0  0  0  0  0  0  0  0  0  0
   37.4200   28.1700   43.5330 C   0  0  0  0  0  0  0  0  0  0  0  0
   36.8110   28.5910   44.3300 H   0  0  0  0  0  0  0  0  0  0  0  0
   38.2820   27.6360   43.9800 H   0  0  0  0  0  0  0  0  0  0  0  0
   36.7040   27.1530   42.6800 C   0  0  0  0  0  0  0  0  0  0  0  0
   35.9000   26.7070   43.3020 H   0  0  0  0  0  0  0  0  0  0  0  0
   36.2390   27.6600   41.8360 H   0  0  0  0  0  0  0  0  0  0  0  0
   37.5840   26.0230   42.2290 C   0  0  0  0  0  3  0  0  0  0  0  0
   38.0200   26.1740   40.8080 C   0  0  0  0  0  2  0  0  0  0  0  0
   37.2180   25.2410   39.9580 C   0  0  0  0  0  2  0  0  0  0  0  0
   36.5390   24.2840   40.8980 C   0  0  0  0  0  2  0  0  0  0  0  0
   36.9270   24.6780   42.3020 C   0  0  0  0  0  2  0  0  0  0  0  0
  1  4  1  1  0  0  0
  1  2  1  0  0  0  0
  1  3  1  0  0  0  0
  2  6  1  0  0  0  0
  2  3  1  0  0  0  0
  3  7  1  1  0  0  0
  3 20  1  0  0  0  0
  5  2  1  0  0  0  0
  8  9  1  0  0  0  0
  8  1  1  0  0  0  0
  9 14  1  0  0  0  0
 10 15  1  0  0  0  0
 10  9  2  0  0  0  0
 11 10  1  0  0  0  0
 12 11  2  0  0  0  0
 12 13  1  0  0  0  0
 13  8  2  0  0  0  0
 16 18  1  0  0  0  0
 16 12  1  0  0  0  0
 17 16  1  0  0  0  0
 19 16  1  0  0  0  0
 20 21  2  0  0  0  0
 20 25  1  0  0  0  0
 21 22  1  0  0  0  0
 22 27  1  0  0  0  0
 22 23  2  0  0  0  0
 24 23  1  0  0  0  0
 24 28  1  0  0  0  0
 25 24  2  0  0  0  0
 26 21  1  0  0  0  0
 28 30  1  0  0  0  0
 28 29  1  0  0  0  0
 31 32  1  0  0  0  0
 31 28  1  0  0  0  0
 33 31  1  0  0  0  0
 34 38  1  0  0  0  0
 34 31  1  0  0  0  0
 35 34  1  0  0  0  0
 36 35  1  0  0  0  0
 36 37  1  0  0  0  0
 37 38  1  0  0  0  0
M  END
>  <minimizedAffinity>
-6.17387056

$$$$

 OpenBabel03252505443D

 38 41  0  0  1  0  0  0  0  0999 V2000
   35.5140   28.8420   38.4410 C   0  0  1  0  0  0  0  0  0  0  0  0
   36.4250   28.0160   37.4740 C   0  0  0  0  0  0  0  0  0  0  0  0
   35.0400   27.5830   37.9450 C   0  0  2  0  0  0  0  0  0  0  0  0
   35.2030   29.8040   37.9450 H   0  0  0  0  0  0  0  0  0  0  0  0
   37.3160   27.5710   37.9140 H   0  0  0  0  0  0  0  0  0  0  0  0
   36.5050   28.3410   36.4390 H   0  0  0  0  0  0  0  0  0  0  0  0
   35.1040   26.6290   38.4980 H   0  0  0  0  0  0  0  0  0  0  0  0
   36.0900   29.0360   39.7850 C   0  0  0  0  0  0  0  0  0  0  0  0
   36.5480   30.3210   40.1230 C   0  0  0  0  0  0  0  0  0  0  0  0
   37.0920   30.5240   41.3870 C   0  0  0  0  0  0  0  0  0  0  0  0
   37.1530   29.4660   42.2340 N   0  0  0  0  0  0  0  0  0  0  0  0
   36.7090   28.2580   41.8830 C   0  0  0  0  0  0  0  0  0  0  0  0
   36.1910   28.0810   40.6660 N   0  0  0  0  0  0  0  0  0  0  0  0
   36.5100   31.1810   39.4660 H   0  0  0  0  0  0  0  0  0  0  0  0
   37.4610   31.5120   41.6920 H   0  0  0  0  0  0  0  0  0  0  0  0
   36.8590   27.2200   42.9580 C   0  0  0  0  0  0  0  0  0  0  0  0
   36.7630   25.9360   42.4400 F   0  0  0  0  0  0  0  0  0  0  0  0
   35.7830   27.3520   43.8670 F   0  0  0  0  0  0  0  0  0  0  0  0
   37.9990   27.4510   43.6780 F   0  0  0  0  0  0  0  0  0  0  0  0
   33.9200   27.6890   36.9330 C   0  0  0  0  0  0  0  0  0  0  0  0
   33.6090   26.6380   36.1060 C   0  0  0  0  0  0  0  0  0  0  0  0
   32.5760   26.6950   35.1930 C   0  0  0  0  0  0  0  0  0  0  0  0
   31.8580   27.8290   35.1250 N   0  0  0  0  0  0  0  0  0  0  0  0
   32.1540   28.8790   35.9410 C   0  0  0  0  0  0  0  0  0  0  0  0
   33.1700   28.8260   36.8380 N   0  0  0  0  0  0  0  0  0  0  0  0
   34.2100   25.7440   36.1910 H   0  0  0  0  0  0  0  0  0  0  0  0
   32.3370   25.8620   34.5430 H   0  0  0  0  0  0  0  0  0  0  0  0
   31.3850   30.1600   35.9250 C   0  0  0  0  0  0  0  0  0  0  0  0
   31.7200   30.7850   36.7510 H   0  0  0  0  0  0  0  0  0  0  0  0
   30.3070   29.9350   36.0560 H   0  0  0  0  0  0  0  0  0  0  0  0
   31.5080   30.8100   34.5690 C   0  0  0  0  0  0  0  0  0  0  0  0
   32.5840   30.8090   34.2980 H   0  0  0  0  0  0  0  0  0  0  0  0
   30.9710   30.2080   33.8370 H   0  0  0  0  0  0  0  0  0  0  0  0
   31.0530   32.2410   34.5480 C   0  0  0  0  0  3  0  0  0  0  0  0
   30.1390   32.5640   35.6850 C   0  0  0  0  0  2  0  0  0  0  0  0
   28.7360   32.6220   35.1710 C   0  0  0  0  0  2  0  0  0  0  0  0
   28.8320   32.6720   33.6710 C   0  0  0  0  0  2  0  0  0  0  0  0
   30.2970   32.6180   33.3110 C   0  0  0  0  0  2  0  0  0  0  0  0
  1  4  1  6  0  0  0
  1  8  1  0  0  0  0
  2  5  1  0  0  0  0
  2  3  1  0  0  0  0
  2  1  1  0  0  0  0
  3  1  1  0  0  0  0
  3  7  1  1  0  0  0
  6  2  1  0  0  0  0
  8  9  2  0  0  0  0
  8 13  1  0  0  0  0
  9 10  1  0  0  0  0
 10 15  1  0  0  0  0
 10 11  2  0  0  0  0
 12 11  1  0  0  0  0
 12 16  1  0  0  0  0
 13 12  2  0  0  0  0
 14  9  1  0  0  0  0
 16 19  1  0  0  0  0
 16 18  1  0  0  0  0
 17 16  1  0  0  0  0
 20  3  1  0  0  0  0
 21 26  1  0  0  0  0
 21 20  2  0  0  0  0
 22 21  1  0  0  0  0
 23 22  2  0  0  0  0
 23 24  1  0  0  0  0
 24 25  2  0  0  0  0
 25 20  1  0  0  0  0
 27 22  1  0  0  0  0
 28 24  1  0  0  0  0
 28 30  1  0  0  0  0
 28 29  1  0  0  0  0
 31 28  1  0  0  0  0
 32 31  1  0  0  0  0
 33 31  1  0  0  0  0
 34 31  1  0  0  0  0
 34 35  1  0  0  0  0
 36 35  1  0  0  0  0
 37 36  1  0  0  0  0
 38 37  1  0  0  0  0
 38 34  1  0  0  0  0
M  END
>  <minimizedAffinity>
-6.03876925

$$$$

 OpenBabel03252505443D

 38 41  0  0  1  0  0  0  0  0999 V2000
   37.2010   30.0380   39.5120 C   0  0  1  0  0  0  0  0  0  0  0  0
   36.1710   29.9360   38.3390 C   0  0  0  0  0  0  0  0  0  0  0  0
   37.3540   28.9940   38.5410 C   0  0  2  0  0  0  0  0  0  0  0  0
   36.6860   29.8350   40.4920 H   0  0  0  0  0  0  0  0  0  0  0  0
   36.2200   30.7220   37.5860 H   0  0  0  0  0  0  0  0  0  0  0  0
   35.1850   29.5300   38.5530 H   0  0  0  0  0  0  0  0  0  0  0  0
   38.0350   29.0430   37.6730 H   0  0  0  0  0  0  0  0  0  0  0  0
   37.9860   31.2880   39.5120 C   0  0  0  0  0  0  0  0  0  0  0  0
   37.4820   32.3790   40.2400 C   0  0  0  0  0  0  0  0  0  0  0  0
   38.2100   33.5650   40.2550 C   0  0  0  0  0  0  0  0  0  0  0  0
   39.3750   33.6060   39.5610 N   0  0  0  0  0  0  0  0  0  0  0  0
   39.8270   32.5530   38.8800 C   0  0  0  0  0  0  0  0  0  0  0  0
   39.1150   31.4240   38.8770 N   0  0  0  0  0  0  0  0  0  0  0  0
   36.5560   32.3690   40.8020 H   0  0  0  0  0  0  0  0  0  0  0  0
   37.8530   34.4400   40.8110 H   0  0  0  0  0  0  0  0  0  0  0  0
   41.1350   32.7960   38.1820 C   0  0  0  0  0  0  0  0  0  0  0  0
   41.4210   34.1510   38.1000 F   0  0  0  0  0  0  0  0  0  0  0  0
   41.0250   32.3420   36.8470 F   0  0  0  0  0  0  0  0  0  0  0  0
   42.1220   32.0480   38.7610 F   0  0  0  0  0  0  0  0  0  0  0  0
   37.0320   27.6080   39.0540 C   0  0  0  0  0  0  0  0  0  0  0  0
   36.5980   26.6200   38.2060 C   0  0  0  0  0  0  0  0  0  0  0  0
   36.3230   25.3390   38.6400 C   0  0  0  0  0  0  0  0  0  0  0  0
   36.4920   25.0670   39.9440 N   0  0  0  0  0  0  0  0  0  0  0  0
   36.9230   26.0380   40.7980 C   0  0  0  0  0  0  0  0  0  0  0  0
   37.1930   27.2970   40.3740 N   0  0  0  0  0  0  0  0  0  0  0  0
   36.4750   26.8780   37.1640 H   0  0  0  0  0  0  0  0  0  0  0  0
   35.9810   24.5650   37.9640 H   0  0  0  0  0  0  0  0  0  0  0  0
   37.1450   25.7950   42.2560 C   0  0  0  0  0  0  0  0  0  0  0  0
   38.1910   25.5400   42.4170 H   0  0  0  0  0  0  0  0  0  0  0  0
   36.5110   24.9460   42.5810 H   0  0  0  0  0  0  0  0  0  0  0  0
   36.6720   26.9890   43.0480 C   0  0  0  0  0  0  0  0  0  0  0  0
   36.3000   27.7410   42.3220 H   0  0  0  0  0  0  0  0  0  0  0  0
   35.8390   26.6870   43.6820 H   0  0  0  0  0  0  0  0  0  0  0  0
   37.7610   27.6500   43.8420 C   0  0  0  0  0  3  0  0  0  0  0  0
   37.9570   29.0800   43.4580 C   0  0  0  0  0  2  0  0  0  0  0  0
   39.1840   29.1850   42.6090 C   0  0  0  0  0  2  0  0  0  0  0  0
   39.9200   27.8820   42.7580 C   0  0  0  0  0  2  0  0  0  0  0  0
   39.1050   27.0070   43.6790 C   0  0  0  0  0  2  0  0  0  0  0  0
  1  8  1  0  0  0  0
  1  4  1  1  0  0  0
  2  3  1  0  0  0  0
  2  6  1  0  0  0  0
  2  1  1  0  0  0  0
  3  7  1  6  0  0  0
  3 20  1  0  0  0  0
  3  1  1  0  0  0  0
  5  2  1  0  0  0  0
  8  9  1  0  0  0  0
  9 10  2  0  0  0  0
  9 14  1  0  0  0  0
 10 15  1  0  0  0  0
 11 10  1  0  0  0  0
 12 11  2  0  0  0  0
 13 12  1  0  0  0  0
 13  8  2  0  0  0  0
 16 19  1  0  0  0  0
 16 12  1  0  0  0  0
 17 16  1  0  0  0  0
 18 16  1  0  0  0  0
 20 25  1  0  0  0  0
 21 22  1  0  0  0  0
 21 20  2  0  0  0  0
 22 23  2  0  0  0  0
 23 24  1  0  0  0  0
 24 28  1  0  0  0  0
 25 24  2  0  0  0  0
 26 21  1  0  0  0  0
 27 22  1  0  0  0  0
 28 29  1  0  0  0  0
 28 30  1  0  0  0  0
 28 31  1  0  0  0  0
 31 33  1  0  0  0  0
 31 34  1  0  0  0  0
 32 31  1  0  0  0  0
 35 34  1  0  0  0  0
 36 37  1  0  0  0  0
 36 35  1  0  0  0  0
 37 38  1  0  0  0  0
 38 34  1  0  0  0  0
M  END
>  <minimizedAffinity>
-5.85586596

$$$$

 OpenBabel03252505443D

 38 41  0  0  1  0  0  0  0  0999 V2000
   37.0740   30.1000   38.3580 C   0  0  1  0  0  0  0  0  0  0  0  0
   37.2170   31.6500   38.5150 C   0  0  0  0  0  0  0  0  0  0  0  0
   36.6260   30.7200   39.5710 C   0  0  2  0  0  0  0  0  0  0  0  0
   38.0930   29.6250   38.3020 H   0  0  0  0  0  0  0  0  0  0  0  0
   36.5610   32.2590   37.8950 H   0  0  0  0  0  0  0  0  0  0  0  0
   38.2040   32.0570   38.7240 H   0  0  0  0  0  0  0  0  0  0  0  0
   35.5790   30.9970   39.7820 H   0  0  0  0  0  0  0  0  0  0  0  0
   36.1770   29.6910   37.2600 C   0  0  0  0  0  0  0  0  0  0  0  0
   36.7240   29.5860   35.9700 C   0  0  0  0  0  0  0  0  0  0  0  0
   35.8940   29.1980   34.9230 C   0  0  0  0  0  0  0  0  0  0  0  0
   34.5930   28.9390   35.2030 N   0  0  0  0  0  0  0  0  0  0  0  0
   34.1040   29.0460   36.4390 C   0  0  0  0  0  0  0  0  0  0  0  0
   34.9140   29.4200   37.4310 N   0  0  0  0  0  0  0  0  0  0  0  0
   37.7600   29.7870   35.7220 H   0  0  0  0  0  0  0  0  0  0  0  0
   36.2810   29.1040   33.9000 H   0  0  0  0  0  0  0  0  0  0  0  0
   32.6420   28.7130   36.5450 C   0  0  0  0  0  0  0  0  0  0  0  0
   32.4240   27.3480   36.4290 F   0  0  0  0  0  0  0  0  0  0  0  0
   31.9630   29.3080   35.4560 F   0  0  0  0  0  0  0  0  0  0  0  0
   32.1150   29.2710   37.6770 F   0  0  0  0  0  0  0  0  0  0  0  0
   37.4940   30.4350   40.7780 C   0  0  0  0  0  0  0  0  0  0  0  0
   38.6740   31.1070   40.9790 C   0  0  0  0  0  0  0  0  0  0  0  0
   39.4720   30.8880   42.0830 C   0  0  0  0  0  0  0  0  0  0  0  0
   39.0620   29.9810   42.9850 N   0  0  0  0  0  0  0  0  0  0  0  0
   37.8920   29.3070   42.8000 C   0  0  0  0  0  0  0  0  0  0  0  0
   37.1070   29.5190   41.7140 N   0  0  0  0  0  0  0  0  0  0  0  0
   38.9680   31.8290   40.2310 H   0  0  0  0  0  0  0  0  0  0  0  0
   40.4010   31.4230   42.2350 H   0  0  0  0  0  0  0  0  0  0  0  0
   37.3750   28.2980   43.7720 C   0  0  0  0  0  0  0  0  0  0  0  0
   36.6950   28.7900   44.4650 H   0  0  0  0  0  0  0  0  0  0  0  0
   38.2270   27.8740   44.3410 H   0  0  0  0  0  0  0  0  0  0  0  0
   36.7630   27.1390   43.0250 C   0  0  0  0  0  0  0  0  0  0  0  0
   36.5190   26.3550   43.7720 H   0  0  0  0  0  0  0  0  0  0  0  0
   35.8340   27.4660   42.5600 H   0  0  0  0  0  0  0  0  0  0  0  0
   37.6920   26.5150   42.0230 C   0  0  0  0  0  3  0  0  0  0  0  0
   36.9710   26.0190   40.8120 C   0  0  0  0  0  2  0  0  0  0  0  0
   36.8530   24.5310   40.8990 C   0  0  0  0  0  2  0  0  0  0  0  0
   37.7930   24.0900   41.9860 C   0  0  0  0  0  2  0  0  0  0  0  0
   38.4430   25.3300   42.5510 C   0  0  0  0  0  2  0  0  0  0  0  0
  1  4  1  1  0  0  0
  1  2  1  0  0  0  0
  1  3  1  0  0  0  0
  2  6  1  0  0  0  0
  2  3  1  0  0  0  0
  3  7  1  1  0  0  0
  3 20  1  0  0  0  0
  5  2  1  0  0  0  0
  8 13  1  0  0  0  0
  8  1  1  0  0  0  0
  9  8  2  0  0  0  0
 10 11  2  0  0  0  0
 10  9  1  0  0  0  0
 11 12  1  0  0  0  0
 12 16  1  0  0  0  0
 12 13  2  0  0  0  0
 14  9  1  0  0  0  0
 15 10  1  0  0  0  0
 16 19  1  0  0  0  0
 17 16  1  0  0  0  0
 18 16  1  0  0  0  0
 20 21  2  0  0  0  0
 20 25  1  0  0  0  0
 21 22  1  0  0  0  0
 22 27  1  0  0  0  0
 22 23  2  0  0  0  0
 24 23  1  0  0  0  0
 24 28  1  0  0  0  0
 25 24  2  0  0  0  0
 26 21  1  0  0  0  0
 28 30  1  0  0  0  0
 28 29  1  0  0  0  0
 31 32  1  0  0  0  0
 31 28  1  0  0  0  0
 33 31  1  0  0  0  0
 34 38  1  0  0  0  0
 34 31  1  0  0  0  0
 35 36  1  0  0  0  0
 35 34  1  0  0  0  0
 36 37  1  0  0  0  0
 37 38  1  0  0  0  0
M  END
>  <minimizedAffinity>
-5.84351492

$$$$

 OpenBabel03252505443D

 38 41  0  0  1  0  0  0  0  0999 V2000
   36.2520   28.5440   39.1050 C   0  0  1  0  0  0  0  0  0  0  0  0
   34.8350   28.1940   38.5410 C   0  0  0  0  0  0  0  0  0  0  0  0
   36.0960   27.3710   38.2960 C   0  0  2  0  0  0  0  0  0  0  0  0
   36.2460   28.4690   40.2290 H   0  0  0  0  0  0  0  0  0  0  0  0
   34.4510   28.8510   37.7620 H   0  0  0  0  0  0  0  0  0  0  0  0
   34.1020   27.7680   39.2220 H   0  0  0  0  0  0  0  0  0  0  0  0
   36.3180   27.3220   37.2160 H   0  0  0  0  0  0  0  0  0  0  0  0
   36.7930   29.8240   38.6090 C   0  0  0  0  0  0  0  0  0  0  0  0
   37.0250   29.9480   37.2280 C   0  0  0  0  0  0  0  0  0  0  0  0
   37.5330   31.1480   36.7410 C   0  0  0  0  0  0  0  0  0  0  0  0
   37.7780   32.1440   37.6300 N   0  0  0  0  0  0  0  0  0  0  0  0
   37.5470   31.9960   38.9350 C   0  0  0  0  0  0  0  0  0  0  0  0
   37.0600   30.8360   39.3840 N   0  0  0  0  0  0  0  0  0  0  0  0
   36.8360   29.1680   36.5000 H   0  0  0  0  0  0  0  0  0  0  0  0
   37.7280   31.2870   35.6710 H   0  0  0  0  0  0  0  0  0  0  0  0
   37.8790   33.2110   39.7530 C   0  0  0  0  0  0  0  0  0  0  0  0
   36.9740   34.2380   39.5250 F   0  0  0  0  0  0  0  0  0  0  0  0
   39.1380   33.7050   39.3370 F   0  0  0  0  0  0  0  0  0  0  0  0
   38.0180   32.8670   41.0690 F   0  0  0  0  0  0  0  0  0  0  0  0
   36.2080   26.0670   39.0560 C   0  0  0  0  0  0  0  0  0  0  0  0
   35.7870   24.8840   38.5010 C   0  0  0  0  0  0  0  0  0  0  0  0
   35.9010   23.6750   39.1570 C   0  0  0  0  0  0  0  0  0  0  0  0
   36.4470   23.6760   40.3850 N   0  0  0  0  0  0  0  0  0  0  0  0
   36.8700   24.8420   40.9480 C   0  0  0  0  0  0  0  0  0  0  0  0
   36.7580   26.0310   40.3050 N   0  0  0  0  0  0  0  0  0  0  0  0
   35.3540   24.9250   37.5110 H   0  0  0  0  0  0  0  0  0  0  0  0
   35.5670   22.7460   38.7120 H   0  0  0  0  0  0  0  0  0  0  0  0
   37.4990   24.9070   42.3020 C   0  0  0  0  0  0  0  0  0  0  0  0
   37.7550   23.8990   42.6230 H   0  0  0  0  0  0  0  0  0  0  0  0
   36.7720   25.3410   43.0180 H   0  0  0  0  0  0  0  0  0  0  0  0
   38.6680   25.8610   42.2740 C   0  0  0  0  0  0  0  0  0  0  0  0
   39.5850   25.2670   42.4700 H   0  0  0  0  0  0  0  0  0  0  0  0
   38.7500   26.2940   41.2770 H   0  0  0  0  0  0  0  0  0  0  0  0
   38.6000   26.9230   43.3340 C   0  0  0  0  0  3  0  0  0  0  0  0
   37.2420   27.5390   43.4340 C   0  0  0  0  0  2  0  0  0  0  0  0
   37.2750   28.8830   42.7800 C   0  0  0  0  0  2  0  0  0  0  0  0
   38.7260   29.2270   42.5840 C   0  0  0  0  0  2  0  0  0  0  0  0
   39.5390   28.0680   43.1040 C   0  0  0  0  0  2  0  0  0  0  0  0
  1  4  1  1  0  0  0
  2  1  1  0  0  0  0
  2  6  1  0  0  0  0
  3  7  1  6  0  0  0
  3  2  1  0  0  0  0
  3 20  1  0  0  0  0
  3  1  1  0  0  0  0
  5  2  1  0  0  0  0
  8  1  1  0  0  0  0
  8 13  1  0  0  0  0
  9  8  2  0  0  0  0
 10  9  1  0  0  0  0
 10 11  2  0  0  0  0
 11 12  1  0  0  0  0
 12 13  2  0  0  0  0
 12 16  1  0  0  0  0
 14  9  1  0  0  0  0
 15 10  1  0  0  0  0
 16 19  1  0  0  0  0
 17 16  1  0  0  0  0
 18 16  1  0  0  0  0
 20 25  1  0  0  0  0
 21 20  2  0  0  0  0
 21 22  1  0  0  0  0
 22 23  2  0  0  0  0
 23 24  1  0  0  0  0
 24 28  1  0  0  0  0
 25 24  2  0  0  0  0
 26 21  1  0  0  0  0
 27 22  1  0  0  0  0
 28 29  1  0  0  0  0
 28 30  1  0  0  0  0
 31 28  1  0  0  0  0
 31 32  1  0  0  0  0
 31 34  1  0  0  0  0
 33 31  1  0  0  0  0
 34 35  1  0  0  0  0
 36 35  1  0  0  0  0
 37 36  1  0  0  0  0
 37 38  1  0  0  0  0
 38 34  1  0  0  0  0
M  END
>  <minimizedAffinity>
-5.75705624

$$$$

 OpenBabel03252505443D

 38 41  0  0  1  0  0  0  0  0999 V2000
   36.7430   29.3990   38.1600 C   0  0  1  0  0  0  0  0  0  0  0  0
   37.3370   30.4070   37.1220 C   0  0  0  0  0  0  0  0  0  0  0  0
   36.7920   30.7920   38.4940 C   0  0  2  0  0  0  0  0  0  0  0  0
   37.5480   28.6970   38.5160 H   0  0  0  0  0  0  0  0  0  0  0  0
   36.7410   30.5850   36.2280 H   0  0  0  0  0  0  0  0  0  0  0  0
   38.4170   30.4440   37.0010 H   0  0  0  0  0  0  0  0  0  0  0  0
   35.9450   31.4910   38.3870 H   0  0  0  0  0  0  0  0  0  0  0  0
   35.5290   28.7050   37.6910 C   0  0  0  0  0  0  0  0  0  0  0  0
   35.6220   27.3290   37.4180 C   0  0  0  0  0  0  0  0  0  0  0  0
   34.4860   26.6570   36.9780 C   0  0  0  0  0  0  0  0  0  0  0  0
   33.3400   27.3680   36.8350 N   0  0  0  0  0  0  0  0  0  0  0  0
   33.2830   28.6730   37.1030 C   0  0  0  0  0  0  0  0  0  0  0  0
   34.3830   29.3020   37.5230 N   0  0  0  0  0  0  0  0  0  0  0  0
   36.5250   26.7400   37.5260 H   0  0  0  0  0  0  0  0  0  0  0  0
   34.5160   25.5840   36.7540 H   0  0  0  0  0  0  0  0  0  0  0  0
   31.9250   29.2790   36.8860 C   0  0  0  0  0  0  0  0  0  0  0  0
   31.9910   30.3860   36.0520 F   0  0  0  0  0  0  0  0  0  0  0  0
   31.4410   29.7570   38.1260 F   0  0  0  0  0  0  0  0  0  0  0  0
   31.0420   28.3180   36.4750 F   0  0  0  0  0  0  0  0  0  0  0  0
   37.8170   31.1470   39.5500 C   0  0  0  0  0  0  0  0  0  0  0  0
   38.5730   32.2880   39.4500 C   0  0  0  0  0  0  0  0  0  0  0  0
   39.4950   32.6530   40.4100 C   0  0  0  0  0  0  0  0  0  0  0  0
   39.6430   31.8490   41.4760 N   0  0  0  0  0  0  0  0  0  0  0  0
   38.8980   30.7140   41.5900 C   0  0  0  0  0  0  0  0  0  0  0  0
   37.9930   30.3530   40.6470 N   0  0  0  0  0  0  0  0  0  0  0  0
   38.4240   32.9080   38.5770 H   0  0  0  0  0  0  0  0  0  0  0  0
   40.0880   33.5550   40.3230 H   0  0  0  0  0  0  0  0  0  0  0  0
   39.0050   29.7880   42.7580 C   0  0  0  0  0  0  0  0  0  0  0  0
   39.5170   30.3000   43.5700 H   0  0  0  0  0  0  0  0  0  0  0  0
   39.5960   28.8990   42.4610 H   0  0  0  0  0  0  0  0  0  0  0  0
   37.6360   29.2690   43.1210 C   0  0  0  0  0  0  0  0  0  0  0  0
   37.1980   29.9750   43.8570 H   0  0  0  0  0  0  0  0  0  0  0  0
   37.0070   29.2710   42.2320 H   0  0  0  0  0  0  0  0  0  0  0  0
   37.6620   27.9180   43.7760 C   0  0  0  0  0  3  0  0  0  0  0  0
   38.9340   27.1810   43.5080 C   0  0  0  0  0  2  0  0  0  0  0  0
   38.6740   26.1330   42.4730 C   0  0  0  0  0  2  0  0  0  0  0  0
   37.1790   26.0060   42.3600 C   0  0  0  0  0  2  0  0  0  0  0  0
   36.5680   27.0010   43.3160 C   0  0  0  0  0  2  0  0  0  0  0  0
  1  3  1  0  0  0  0
  1  4  1  1  0  0  0
  2  1  1  0  0  0  0
  2  3  1  0  0  0  0
  3  7  1  1  0  0  0
  3 20  1  0  0  0  0
  5  2  1  0  0  0  0
  6  2  1  0  0  0  0
  8  1  1  0  0  0  0
  9 14  1  0  0  0  0
  9  8  2  0  0  0  0
 10  9  1  0  0  0  0
 11 10  2  0  0  0  0
 11 12  1  0  0  0  0
 12 13  2  0  0  0  0
 13  8  1  0  0  0  0
 15 10  1  0  0  0  0
 16 12  1  0  0  0  0
 16 18  1  0  0  0  0
 17 16  1  0  0  0  0
 19 16  1  0  0  0  0
 20 25  1  0  0  0  0
 21 20  2  0  0  0  0
 21 22  1  0  0  0  0
 22 23  2  0  0  0  0
 23 24  1  0  0  0  0
 24 28  1  0  0  0  0
 25 24  2  0  0  0  0
 26 21  1  0  0  0  0
 27 22  1  0  0  0  0
 28 31  1  0  0  0  0
 28 29  1  0  0  0  0
 30 28  1  0  0  0  0
 31 34  1  0  0  0  0
 31 32  1  0  0  0  0
 33 31  1  0  0  0  0
 35 34  1  0  0  0  0
 36 35  1  0  0  0  0
 37 36  1  0  0  0  0
 37 38  1  0  0  0  0
 38 34  1  0  0  0  0
M  END
>  <minimizedAffinity>
-5.7525034

$$$$

 OpenBabel03252505443D

 38 41  0  0  1  0  0  0  0  0999 V2000
   39.2400   28.6750   42.0040 C   0  0  1  0  0  0  0  0  0  0  0  0
   38.3690   29.5230   42.9880 C   0  0  0  0  0  0  0  0  0  0  0  0
   39.8880   29.6150   42.8720 C   0  0  2  0  0  0  0  0  0  0  0  0
   38.9970   28.9540   40.9410 H   0  0  0  0  0  0  0  0  0  0  0  0
   37.9160   28.9830   43.8180 H   0  0  0  0  0  0  0  0  0  0  0  0
   37.8000   30.3570   42.5840 H   0  0  0  0  0  0  0  0  0  0  0  0
   40.3620   29.3530   43.8340 H   0  0  0  0  0  0  0  0  0  0  0  0
   39.1830   27.2230   42.2550 C   0  0  0  0  0  0  0  0  0  0  0  0
   40.0650   26.6850   43.2080 C   0  0  0  0  0  0  0  0  0  0  0  0
   40.0240   25.3180   43.4600 C   0  0  0  0  0  0  0  0  0  0  0  0
   39.1270   24.5690   42.7700 N   0  0  0  0  0  0  0  0  0  0  0  0
   38.3020   25.1090   41.8720 C   0  0  0  0  0  0  0  0  0  0  0  0
   38.3570   26.4230   41.6420 N   0  0  0  0  0  0  0  0  0  0  0  0
   40.7890   27.2620   43.7720 H   0  0  0  0  0  0  0  0  0  0  0  0
   40.6950   24.8580   44.1960 H   0  0  0  0  0  0  0  0  0  0  0  0
   37.3830   24.1170   41.2170 C   0  0  0  0  0  0  0  0  0  0  0  0
   37.9690   22.8620   41.1330 F   0  0  0  0  0  0  0  0  0  0  0  0
   37.1530   24.5270   39.8830 F   0  0  0  0  0  0  0  0  0  0  0  0
   36.1640   24.1270   41.8370 F   0  0  0  0  0  0  0  0  0  0  0  0
   40.4370   30.8390   42.1730 C   0  0  0  0  0  0  0  0  0  0  0  0
   41.7370   31.2400   42.3590 C   0  0  0  0  0  0  0  0  0  0  0  0
   42.2740   32.3350   41.7140 C   0  0  0  0  0  0  0  0  0  0  0  0
   41.4810   33.0220   40.8760 N   0  0  0  0  0  0  0  0  0  0  0  0
   40.1900   32.6360   40.6790 C   0  0  0  0  0  0  0  0  0  0  0  0
   39.6590   31.5600   41.3130 N   0  0  0  0  0  0  0  0  0  0  0  0
   42.3420   30.6610   43.0420 H   0  0  0  0  0  0  0  0  0  0  0  0
   43.3010   32.6450   41.8670 H   0  0  0  0  0  0  0  0  0  0  0  0
   39.2630   33.3480   39.7480 C   0  0  0  0  0  0  0  0  0  0  0  0
   39.5480   33.1210   38.7230 H   0  0  0  0  0  0  0  0  0  0  0  0
   39.3510   34.4400   39.9160 H   0  0  0  0  0  0  0  0  0  0  0  0
   37.8350   32.9940   40.0840 C   0  0  0  0  0  0  0  0  0  0  0  0
   37.8580   32.3380   40.9790 H   0  0  0  0  0  0  0  0  0  0  0  0
   37.2950   33.9040   40.3430 H   0  0  0  0  0  0  0  0  0  0  0  0
   37.1360   32.2280   38.9980 C   0  0  0  0  0  3  0  0  0  0  0  0
   36.5320   30.9570   39.4990 C   0  0  0  0  0  2  0  0  0  0  0  0
   37.3980   29.8130   39.0760 C   0  0  0  0  0  2  0  0  0  0  0  0
   38.3390   30.3530   38.0350 C   0  0  0  0  0  2  0  0  0  0  0  0
   38.0350   31.8220   37.8700 C   0  0  0  0  0  2  0  0  0  0  0  0
  1  4  1  6  0  0  0
  1  8  1  0  0  0  0
  1  3  1  0  0  0  0
  1  2  1  0  0  0  0
  2  5  1  0  0  0  0
  3  2  1  0  0  0  0
  3  7  1  1  0  0  0
  6  2  1  0  0  0  0
  8  9  1  0  0  0  0
  9 10  2  0  0  0  0
  9 14  1  0  0  0  0
 10 15  1  0  0  0  0
 11 10  1  0  0  0  0
 12 11  2  0  0  0  0
 13 12  1  0  0  0  0
 13  8  2  0  0  0  0
 16 19  1  0  0  0  0
 16 12  1  0  0  0  0
 17 16  1  0  0  0  0
 18 16  1  0  0  0  0
 20 21  1  0  0  0  0
 20  3  1  0  0  0  0
 21 26  1  0  0  0  0
 22 27  1  0  0  0  0
 22 21  2  0  0  0  0
 23 22  1  0  0  0  0
 24 23  2  0  0  0  0
 24 25  1  0  0  0  0
 25 20  2  0  0  0  0
 28 30  1  0  0  0  0
 28 31  1  0  0  0  0
 28 24  1  0  0  0  0
 29 28  1  0  0  0  0
 31 33  1  0  0  0  0
 31 32  1  0  0  0  0
 34 35  1  0  0  0  0
 34 31  1  0  0  0  0
 36 35  1  0  0  0  0
 37 36  1  0  0  0  0
 38 37  1  0  0  0  0
 38 34  1  0  0  0  0
M  END
>  <minimizedAffinity>
-5.65450573

$$$$

 OpenBabel03252505443D

 38 41  0  0  1  0  0  0  0  0999 V2000
   36.7670   29.4980   38.4900 C   0  0  1  0  0  0  0  0  0  0  0  0
   36.6900   30.9010   39.1780 C   0  0  0  0  0  0  0  0  0  0  0  0
   36.0280   29.6340   39.7110 C   0  0  2  0  0  0  0  0  0  0  0  0
   37.8290   29.1230   38.5040 H   0  0  0  0  0  0  0  0  0  0  0  0
   36.0940   31.6560   38.6660 H   0  0  0  0  0  0  0  0  0  0  0  0
   37.5630   31.2580   39.7200 H   0  0  0  0  0  0  0  0  0  0  0  0
   34.9330   29.7690   39.7680 H   0  0  0  0  0  0  0  0  0  0  0  0
   36.1490   29.4540   37.1520 C   0  0  0  0  0  0  0  0  0  0  0  0
   35.0630   28.5840   36.9570 C   0  0  0  0  0  0  0  0  0  0  0  0
   34.4660   28.5300   35.7020 C   0  0  0  0  0  0  0  0  0  0  0  0
   34.9660   29.3260   34.7240 N   0  0  0  0  0  0  0  0  0  0  0  0
   35.9980   30.1430   34.9390 C   0  0  0  0  0  0  0  0  0  0  0  0
   36.5590   30.1800   36.1500 N   0  0  0  0  0  0  0  0  0  0  0  0
   34.6460   27.9400   37.7230 H   0  0  0  0  0  0  0  0  0  0  0  0
   33.6160   27.8650   35.5080 H   0  0  0  0  0  0  0  0  0  0  0  0
   36.4010   30.9440   33.7340 C   0  0  0  0  0  0  0  0  0  0  0  0
   37.2170   32.0100   34.0840 F   0  0  0  0  0  0  0  0  0  0  0  0
   35.2400   31.5160   33.1640 F   0  0  0  0  0  0  0  0  0  0  0  0
   36.9320   30.1210   32.7790 F   0  0  0  0  0  0  0  0  0  0  0  0
   36.6800   28.9890   40.9150 C   0  0  0  0  0  0  0  0  0  0  0  0
   37.2610   29.7480   41.9000 C   0  0  0  0  0  0  0  0  0  0  0  0
   37.8390   29.1900   43.0220 C   0  0  0  0  0  0  0  0  0  0  0  0
   37.8220   27.8520   43.1370 N   0  0  0  0  0  0  0  0  0  0  0  0
   37.2480   27.0850   42.1680 C   0  0  0  0  0  0  0  0  0  0  0  0
   36.6810   27.6320   41.0640 N   0  0  0  0  0  0  0  0  0  0  0  0
   37.2540   30.8210   41.7700 H   0  0  0  0  0  0  0  0  0  0  0  0
   38.2950   29.7960   43.7950 H   0  0  0  0  0  0  0  0  0  0  0  0
   37.1830   25.5940   42.2460 C   0  0  0  0  0  0  0  0  0  0  0  0
   36.2600   25.3050   42.7440 H   0  0  0  0  0  0  0  0  0  0  0  0
   38.0450   25.2260   42.8380 H   0  0  0  0  0  0  0  0  0  0  0  0
   37.3510   25.0060   40.8670 C   0  0  0  0  0  0  0  0  0  0  0  0
   36.8570   25.6950   40.1500 H   0  0  0  0  0  0  0  0  0  0  0  0
   38.4120   24.9670   40.6230 H   0  0  0  0  0  0  0  0  0  0  0  0
   36.6970   23.6640   40.7050 C   0  0  0  0  0  3  0  0  0  0  0  0
   37.6680   22.6030   40.3020 C   0  0  0  0  0  2  0  0  0  0  0  0
   37.4930   22.3200   38.8440 C   0  0  0  0  0  2  0  0  0  0  0  0
   36.1930   22.9580   38.4380 C   0  0  0  0  0  2  0  0  0  0  0  0
   35.6230   23.6370   39.6590 C   0  0  0  0  0  2  0  0  0  0  0  0
  1  4  1  1  0  0  0
  1  2  1  0  0  0  0
  1  3  1  0  0  0  0
  2  3  1  0  0  0  0
  2  6  1  0  0  0  0
  3  7  1  6  0  0  0
  3 20  1  0  0  0  0
  5  2  1  0  0  0  0
  8  1  1  0  0  0  0
  9  8  1  0  0  0  0
  9 14  1  0  0  0  0
 10  9  2  0  0  0  0
 11 12  2  0  0  0  0
 11 10  1  0  0  0  0
 12 13  1  0  0  0  0
 13  8  2  0  0  0  0
 15 10  1  0  0  0  0
 16 17  1  0  0  0  0
 16 12  1  0  0  0  0
 18 16  1  0  0  0  0
 19 16  1  0  0  0  0
 20 25  2  0  0  0  0
 20 21  1  0  0  0  0
 21 22  2  0  0  0  0
 22 23  1  0  0  0  0
 22 27  1  0  0  0  0
 24 28  1  0  0  0  0
 24 23  2  0  0  0  0
 25 24  1  0  0  0  0
 26 21  1  0  0  0  0
 28 29  1  0  0  0  0
 28 30  1  0  0  0  0
 31 28  1  0  0  0  0
 32 31  1  0  0  0  0
 33 31  1  0  0  0  0
 34 31  1  0  0  0  0
 35 34  1  0  0  0  0
 36 35  1  0  0  0  0
 37 36  1  0  0  0  0
 37 38  1  0  0  0  0
 38 34  1  0  0  0  0
M  END
>  <minimizedAffinity>
-5.59583282

$$$$

 OpenBabel03252505443D

 38 41  0  0  1  0  0  0  0  0999 V2000
   36.1380   29.1870   38.9300 C   0  0  1  0  0  0  0  0  0  0  0  0
   34.7710   29.1440   39.6890 C   0  0  0  0  0  0  0  0  0  0  0  0
   35.9560   28.2290   39.9810 C   0  0  2  0  0  0  0  0  0  0  0  0
   36.6580   30.1650   39.1330 H   0  0  0  0  0  0  0  0  0  0  0  0
   33.9180   28.7710   39.1240 H   0  0  0  0  0  0  0  0  0  0  0  0
   34.5650   29.9210   40.4220 H   0  0  0  0  0  0  0  0  0  0  0  0
   35.6730   27.1730   39.8220 H   0  0  0  0  0  0  0  0  0  0  0  0
   36.0350   28.8670   37.4940 C   0  0  0  0  0  0  0  0  0  0  0  0
   35.8080   27.5280   37.1330 C   0  0  0  0  0  0  0  0  0  0  0  0
   35.7050   27.2080   35.7830 C   0  0  0  0  0  0  0  0  0  0  0  0
   35.8290   28.2120   34.8790 N   0  0  0  0  0  0  0  0  0  0  0  0
   36.0440   29.4730   35.2530 C   0  0  0  0  0  0  0  0  0  0  0  0
   36.1410   29.7620   36.5530 N   0  0  0  0  0  0  0  0  0  0  0  0
   35.7040   26.7100   37.8370 H   0  0  0  0  0  0  0  0  0  0  0  0
   35.5270   26.1750   35.4590 H   0  0  0  0  0  0  0  0  0  0  0  0
   36.1500   30.4380   34.1050 C   0  0  0  0  0  0  0  0  0  0  0  0
   36.8890   29.9030   33.0600 F   0  0  0  0  0  0  0  0  0  0  0  0
   36.8620   31.5790   34.5390 F   0  0  0  0  0  0  0  0  0  0  0  0
   34.9050   30.8770   33.7460 F   0  0  0  0  0  0  0  0  0  0  0  0
   36.7400   28.5230   41.2410 C   0  0  0  0  0  0  0  0  0  0  0  0
   36.5460   27.7910   42.3860 C   0  0  0  0  0  0  0  0  0  0  0  0
   37.2650   28.0170   43.5420 C   0  0  0  0  0  0  0  0  0  0  0  0
   38.1860   28.9950   43.5270 N   0  0  0  0  0  0  0  0  0  0  0  0
   38.3910   29.7300   42.3980 C   0  0  0  0  0  0  0  0  0  0  0  0
   37.6840   29.5100   41.2620 N   0  0  0  0  0  0  0  0  0  0  0  0
   35.7960   27.0130   42.3570 H   0  0  0  0  0  0  0  0  0  0  0  0
   37.1050   27.4350   44.4410 H   0  0  0  0  0  0  0  0  0  0  0  0
   39.4100   30.8190   42.3140 C   0  0  0  0  0  0  0  0  0  0  0  0
   40.1410   30.6830   43.1080 H   0  0  0  0  0  0  0  0  0  0  0  0
   38.9060   31.7970   42.4500 H   0  0  0  0  0  0  0  0  0  0  0  0
   40.0040   30.8520   40.9270 C   0  0  0  0  0  0  0  0  0  0  0  0
   41.0990   30.7070   41.0320 H   0  0  0  0  0  0  0  0  0  0  0  0
   39.6040   30.0200   40.3490 H   0  0  0  0  0  0  0  0  0  0  0  0
   39.8030   32.1630   40.2210 C   0  0  0  0  0  3  0  0  0  0  0  0
   38.7210   32.9830   40.8440 C   0  0  0  0  0  2  0  0  0  0  0  0
   37.4980   32.8940   39.9880 C   0  0  0  0  0  2  0  0  0  0  0  0
   37.9360   32.3000   38.6780 C   0  0  0  0  0  2  0  0  0  0  0  0
   39.4150   32.0210   38.7810 C   0  0  0  0  0  2  0  0  0  0  0  0
  1  4  1  1  0  0  0
  1  2  1  0  0  0  0
  1  3  1  0  0  0  0
  2  3  1  0  0  0  0
  2  6  1  0  0  0  0
  3  7  1  6  0  0  0
  3 20  1  0  0  0  0
  5  2  1  0  0  0  0
  8  1  1  0  0  0  0
  9  8  1  0  0  0  0
  9 14  1  0  0  0  0
 10  9  2  0  0  0  0
 11 12  2  0  0  0  0
 11 10  1  0  0  0  0
 12 13  1  0  0  0  0
 13  8  2  0  0  0  0
 15 10  1  0  0  0  0
 16 18  1  0  0  0  0
 16 12  1  0  0  0  0
 17 16  1  0  0  0  0
 19 16  1  0  0  0  0
 20 25  2  0  0  0  0
 20 21  1  0  0  0  0
 21 22  2  0  0  0  0
 22 27  1  0  0  0  0
 23 22  1  0  0  0  0
 24 23  2  0  0  0  0
 25 24  1  0  0  0  0
 26 21  1  0  0  0  0
 28 24  1  0  0  0  0
 28 30  1  0  0  0  0
 28 29  1  0  0  0  0
 31 32  1  0  0  0  0
 31 28  1  0  0  0  0
 33 31  1  0  0  0  0
 34 35  1  0  0  0  0
 34 31  1  0  0  0  0
 36 35  1  0  0  0  0
 37 38  1  0  0  0  0
 37 36  1  0  0  0  0
 38 34  1  0  0  0  0
M  END
>  <minimizedAffinity>
-5.59429789

$$$$
