
 OpenBabel03252507553D

 40 43  0  0  1  0  0  0  0  0999 V2000
   47.0850   34.8740   41.9800 C   0  0  2  0  0  0  0  0  0  0  0  0
   46.3550   34.2140   40.8110 C   0  0  0  0  0  0  0  0  0  0  0  0
   47.5730   34.0820   39.8680 C   0  0  0  0  0  0  0  0  0  0  0  0
   48.7160   33.7370   40.7710 C   0  0  1  0  0  0  0  0  0  0  0  0
   48.1940   33.8740   42.1700 C   0  0  0  0  0  0  0  0  0  0  0  0
   47.4370   35.8410   41.6290 H   0  0  0  0  0  0  0  0  0  0  0  0
   45.5940   34.8580   40.3810 H   0  0  0  0  0  0  0  0  0  0  0  0
   46.0590   33.2180   41.1330 H   0  0  0  0  0  0  0  0  0  0  0  0
   47.3530   33.3140   39.1090 H   0  0  0  0  0  0  0  0  0  0  0  0
   47.6850   35.0920   39.4360 H   0  0  0  0  0  0  0  0  0  0  0  0
   49.5310   34.4670   40.5800 H   0  0  0  0  0  0  0  0  0  0  0  0
   47.8510   32.9550   42.6380 H   0  0  0  0  0  0  0  0  0  0  0  0
   48.9950   34.3920   42.7720 H   0  0  0  0  0  0  0  0  0  0  0  0
   44.5220   35.9820   44.5080 C   0  0  0  0  0  0  0  0  0  0  0  0
   45.2680   35.9830   43.3350 C   0  0  0  0  0  0  0  0  0  0  0  0
   46.2080   34.9680   43.1820 C   0  0  0  0  0  0  0  0  0  0  0  0
   46.3760   34.0010   44.1830 N   0  0  0  0  0  0  0  0  0  0  0  0
   45.6160   34.0540   45.3080 C   0  0  0  0  0  0  0  0  0  0  0  0
   44.6950   35.0420   45.4650 N   0  0  0  0  0  0  0  0  0  0  0  0
   43.7820   36.7600   44.6550 H   0  0  0  0  0  0  0  0  0  0  0  0
   45.1620   36.7130   42.5470 H   0  0  0  0  0  0  0  0  0  0  0  0
   45.8250   33.2630   46.0150 H   0  0  0  0  0  0  0  0  0  0  0  0
   49.2340   32.3250   40.6200 C   0  0  2  0  0  0  0  0  0  0  0  0
   50.1700   31.8770   41.6460 C   0  0  0  0  0  0  0  0  0  0  0  0
   50.6180   32.0460   40.2350 C   0  0  1  0  0  0  0  0  0  0  0  0
   48.4650   31.6110   40.2770 H   0  0  0  0  0  0  0  0  0  0  0  0
   50.5280   32.6100   42.4050 H   0  0  0  0  0  0  0  0  0  0  0  0
   50.0620   30.8580   42.0760 H   0  0  0  0  0  0  0  0  0  0  0  0
   51.2640   32.8860   39.9120 H   0  0  0  0  0  0  0  0  0  0  0  0
   50.8560   30.8770   39.4700 O   0  0  0  0  0  0  0  0  0  0  0  0
   50.7750   30.3480   36.9180 O   0  0  0  0  0  0  0  0  0  0  0  0
   51.2940   31.3510   37.9180 P   0  0  1  0  0  0  0  0  0  0  0  0
   50.5880   32.8680   37.5430 O   0  0  0  0  0  0  0  0  0  0  0  0
   51.1480   33.5390   38.0380 H   0  0  0  0  0  0  0  0  0  0  0  0
   52.9320   31.5140   37.6960 O   0  0  0  0  0  0  0  0  0  0  0  0
   53.4700   30.2150   37.6370 C   0  0  0  0  0  3  0  0  0  0  0  0
   54.4620   29.9840   38.7460 C   0  0  0  0  0  2  0  0  0  0  0  0
   55.8180   29.9090   38.0720 C   0  0  0  0  0  2  0  0  0  0  0  0
   55.6130   30.5380   36.7130 C   0  0  0  0  0  2  0  0  0  0  0  0
   54.2420   30.0100   36.3490 C   0  0  0  0  0  2  0  0  0  0  0  0
  1  6  1  6  0  0  0
  1  5  1  0  0  0  0
  1 16  1  0  0  0  0
  2  8  1  0  0  0  0
  2  1  1  0  0  0  0
  3  4  1  0  0  0  0
  3  2  1  0  0  0  0
  4 11  1  6  0  0  0
  4  5  1  0  0  0  0
  5 12  1  0  0  0  0
  5 13  1  0  0  0  0
  7  2  1  0  0  0  0
  9  3  1  0  0  0  0
 10  3  1  0  0  0  0
 14 20  1  0  0  0  0
 14 19  1  0  0  0  0
 15 14  2  0  0  0  0
 16 15  1  0  0  0  0
 16 17  2  0  0  0  0
 17 18  1  0  0  0  0
 18 19  2  0  0  0  0
 18 22  1  0  0  0  0
 21 15  1  0  0  0  0
 23 26  1  6  0  0  0
 23  4  1  0  0  0  0
 23 24  1  0  0  0  0
 24 28  1  0  0  0  0
 24 27  1  0  0  0  0
 25 29  1  6  0  0  0
 25 23  1  0  0  0  0
 25 24  1  0  0  0  0
 30 25  1  0  0  0  0
 32 31  2  6  0  0  0
 32 30  1  0  0  0  0
 33 32  1  0  0  0  0
 33 34  1  0  0  0  0
 35 32  1  0  0  0  0
 36 35  1  0  0  0  0
 36 37  1  0  0  0  0
 38 37  1  0  0  0  0
 39 38  1  0  0  0  0
 40 39  1  0  0  0  0
 40 36  1  0  0  0  0
M  END
>  <minimizedAffinity>
-5.38732862

>  <minimizedRMSD>
2.10859728

$$$$
