
 OpenBabel03242517003D

 28 30  0  0  0  0  0  0  0  0999 V2000
   46.6590   34.7810   41.9740 C   0  0  0  0  0  0  0  0  0  0  0  0
   47.9460   35.2840   41.9200 C   0  0  0  0  0  0  0  0  0  0  0  0
   48.6750   35.1110   40.7600 C   0  0  0  0  0  0  0  0  0  0  0  0
   48.1250   34.4550   39.6970 C   0  0  0  0  0  0  0  0  0  0  0  0
   46.8570   33.9440   39.7130 C   0  0  0  0  0  0  0  0  0  0  0  0
   46.1340   34.1310   40.9010 C   0  0  0  0  0  0  0  0  0  0  0  0
   48.3860   35.8060   42.7640 H   0  0  0  0  0  0  0  0  0  0  0  0
   49.6830   35.4770   40.6450 H   0  0  0  0  0  0  0  0  0  0  0  0
   48.6960   34.3200   38.7880 H   0  0  0  0  0  0  0  0  0  0  0  0
   46.3850   33.4190   38.8940 H   0  0  0  0  0  0  0  0  0  0  0  0
   44.5110   36.1910   44.7490 C   0  0  0  0  0  0  0  0  0  0  0  0
   45.1680   36.0960   43.5040 C   0  0  0  0  0  0  0  0  0  0  0  0
   45.9330   34.9910   43.2240 C   0  0  0  0  0  0  0  0  0  0  0  0
   46.0150   34.0290   44.1870 N   0  0  0  0  0  0  0  0  0  0  0  0
   45.3910   34.1080   45.3810 C   0  0  0  0  0  0  0  0  0  0  0  0
   44.6300   35.2090   45.6600 N   0  0  0  0  0  0  0  0  0  0  0  0
   43.9070   37.0530   44.9830 H   0  0  0  0  0  0  0  0  0  0  0  0
   45.0870   36.8610   42.7700 H   0  0  0  0  0  0  0  0  0  0  0  0
   45.5220   33.2850   46.0800 H   0  0  0  0  0  0  0  0  0  0  0  0
   43.5110   34.1650   40.8140 C   0  0  0  0  0  0  0  0  0  0  0  0
   43.2500   35.3010   40.3870 O   0  0  0  0  0  0  0  0  0  0  0  0
   44.8100   33.6520   41.0580 N   0  0  0  0  0  0  0  0  0  0  0  0
   44.9960   32.6810   41.4560 H   0  0  0  0  0  0  0  0  0  0  0  0
   42.4230   33.1630   41.1320 C   0  0  0  0  0  3  0  0  0  0  0  0
   42.9690   31.8390   40.6320 C   0  0  0  0  0  2  0  0  0  0  0  0
   42.4130   31.6140   39.2540 C   0  0  0  0  0  2  0  0  0  0  0  0
   41.3820   32.6810   39.0110 C   0  0  0  0  0  2  0  0  0  0  0  0
   41.2560   33.5030   40.2630 C   0  0  0  0  0  2  0  0  0  0  0  0
  1 13  1  0  0  0  0
  2  1  1  0  0  0  0
  2  7  1  0  0  0  0
  3  2  2  0  0  0  0
  4  5  2  0  0  0  0
  4  3  1  0  0  0  0
  5  6  1  0  0  0  0
  6 22  1  0  0  0  0
  6  1  2  0  0  0  0
  8  3  1  0  0  0  0
  9  4  1  0  0  0  0
 10  5  1  0  0  0  0
 11 17  1  0  0  0  0
 11 16  1  0  0  0  0
 12 11  2  0  0  0  0
 13 12  1  0  0  0  0
 13 14  2  0  0  0  0
 14 15  1  0  0  0  0
 15 16  2  0  0  0  0
 15 19  1  0  0  0  0
 18 12  1  0  0  0  0
 20 22  1  0  0  0  0
 20 24  1  0  0  0  0
 21 20  2  0  0  0  0
 22 23  1  0  0  0  0
 25 24  1  0  0  0  0
 26 25  1  0  0  0  0
 27 26  1  0  0  0  0
 27 28  1  0  0  0  0
 28 24  1  0  0  0  0
M  END
>  <minimizedAffinity>
-5.73006058

>  <minimizedRMSD>
0.456710577

$$$$
