
 OpenBabel03242518543D

 38 40  0  0  1  0  0  0  0  0999 V2000
   45.8870   31.3300   46.4410 C   0  0  2  0  0  0  0  0  0  0  0  0
   45.3670   30.7230   47.7050 C   0  0  0  0  0  0  0  0  0  0  0  0
   44.8420   29.3750   47.3600 C   0  0  0  0  0  0  0  0  0  0  0  0
   44.8710   29.0210   45.9120 C   0  0  0  0  0  0  0  0  0  0  0  0
   46.2630   29.1730   45.3650 C   0  0  0  0  0  0  0  0  0  0  0  0
   46.9110   30.3900   45.8340 C   0  0  2  0  0  0  0  0  0  0  0  0
   45.0690   31.3540   45.6920 H   0  0  0  0  0  0  0  0  0  0  0  0
   44.5520   31.4140   48.0620 H   0  0  0  0  0  0  0  0  0  0  0  0
   46.1030   30.7200   48.5360 H   0  0  0  0  0  0  0  0  0  0  0  0
   43.7460   29.3680   47.6410 H   0  0  0  0  0  0  0  0  0  0  0  0
   45.2510   28.5380   47.9820 H   0  0  0  0  0  0  0  0  0  0  0  0
   44.5650   27.9530   45.8400 H   0  0  0  0  0  0  0  0  0  0  0  0
   44.1080   29.5750   45.3260 H   0  0  0  0  0  0  0  0  0  0  0  0
   46.1250   29.2530   44.2450 H   0  0  0  0  0  0  0  0  0  0  0  0
   46.7820   28.2080   45.5070 H   0  0  0  0  0  0  0  0  0  0  0  0
   47.4300   30.9630   45.0530 H   0  0  0  0  0  0  0  0  0  0  0  0
   47.8980   29.9640   46.8650 C   0  0  0  0  0  0  0  0  0  0  0  0
   47.4570   29.7850   47.8720 H   0  0  0  0  0  0  0  0  0  0  0  0
   48.6210   30.7920   47.0120 H   0  0  0  0  0  0  0  0  0  0  0  0
   48.6770   28.7220   46.5460 C   0  0  0  0  0  3  0  0  0  0  0  0
   50.1600   28.9620   46.4110 C   0  0  0  0  0  2  0  0  0  0  0  0
   50.6020   27.5060   46.2350 C   0  0  0  0  0  2  0  0  0  0  0  0
   49.8780   26.8670   47.4080 C   0  0  0  0  0  2  0  0  0  0  0  0
   48.7200   27.7710   47.7480 C   0  0  0  0  0  2  0  0  0  0  0  0
   46.4060   32.7120   46.5990 C   0  0  0  0  0  0  0  0  0  0  0  0
   47.1620   33.0590   47.5350 O   0  0  0  0  0  0  0  0  0  0  0  0
   44.6170   35.4340   44.9400 C   0  0  0  0  0  0  0  0  0  0  0  0
   45.2080   35.5080   43.6510 C   0  0  0  0  0  0  0  0  0  0  0  0
   46.2260   34.6080   43.3900 C   0  0  0  0  0  0  0  0  0  0  0  0
   46.5230   33.7780   44.3910 N   0  0  0  0  0  0  0  0  0  0  0  0
   45.9860   33.6960   45.5860 C   0  0  0  0  0  0  0  0  0  0  0  0
   44.9960   34.5600   45.8650 N   0  0  0  0  0  0  0  0  0  0  0  0
   43.8040   36.1430   45.1680 H   0  0  0  0  0  0  0  0  0  0  0  0
   44.8640   36.2390   42.9310 H   0  0  0  0  0  0  0  0  0  0  0  0
   46.8280   34.6750   42.0710 C   0  0  0  0  0  0  0  0  0  0  0  0
   47.5750   33.5240   41.8400 F   0  0  0  0  0  0  0  0  0  0  0  0
   47.6620   35.7460   42.0680 F   0  0  0  0  0  0  0  0  0  0  0  0
   45.8800   34.7150   41.0550 F   0  0  0  0  0  0  0  0  0  0  0  0
  1  7  1  6  0  0  0
  1 25  1  0  0  0  0
  1  2  1  0  0  0  0
  2  8  1  0  0  0  0
  2  9  1  0  0  0  0
  3 10  1  0  0  0  0
  3  2  1  0  0  0  0
  3 11  1  0  0  0  0
  4  3  1  0  0  0  0
  5 15  1  0  0  0  0
  5  6  1  0  0  0  0
  5  4  1  0  0  0  0
  6 16  1  6  0  0  0
  6  1  1  0  0  0  0
  6 17  1  0  0  0  0
 12  4  1  0  0  0  0
 13  4  1  0  0  0  0
 14  5  1  0  0  0  0
 17 19  1  0  0  0  0
 17 18  1  0  0  0  0
 20 17  1  0  0  0  0
 20 24  1  0  0  0  0
 21 20  1  0  0  0  0
 22 21  1  0  0  0  0
 22 23  1  0  0  0  0
 23 24  1  0  0  0  0
 25 26  2  0  0  0  0
 27 33  1  0  0  0  0
 27 32  1  0  0  0  0
 28 27  2  0  0  0  0
 29 28  1  0  0  0  0
 29 30  2  0  0  0  0
 30 31  1  0  0  0  0
 31 32  2  0  0  0  0
 31 25  1  0  0  0  0
 34 28  1  0  0  0  0
 35 29  1  0  0  0  0
 36 35  1  0  0  0  0
 37 35  1  0  0  0  0
 38 35  1  0  0  0  0
M  END
>  <minimizedAffinity>
-5.16314602

>  <minimizedRMSD>
0.693995476

$$$$
