
 OpenBabel03252503433D

 30 32  0  0  1  0  0  0  0  0999 V2000
   44.7790   34.9530   45.1890 C   0  0  0  0  0  0  0  0  0  0  0  0
   45.3900   34.6410   43.9660 C   0  0  0  0  0  0  0  0  0  0  0  0
   46.1630   33.4730   43.9250 C   0  0  0  0  0  0  0  0  0  0  0  0
   46.2850   32.7150   45.0310 N   0  0  0  0  0  0  0  0  0  0  0  0
   45.6850   33.0420   46.1870 C   0  0  0  0  0  0  0  0  0  0  0  0
   44.9190   34.1710   46.2860 N   0  0  0  0  0  0  0  0  0  0  0  0
   44.1610   35.8080   45.3680 H   0  0  0  0  0  0  0  0  0  0  0  0
   46.6200   33.2550   42.9850 H   0  0  0  0  0  0  0  0  0  0  0  0
   47.3760   31.9560   47.6640 C   0  0  2  0  0  0  0  0  0  0  0  0
   45.8820   32.1290   47.3110 C   0  0  1  0  0  0  0  0  0  0  0  0
   45.4030   32.5770   48.5110 O   0  0  0  0  0  0  0  0  0  0  0  0
   45.9470   31.8000   49.4900 C   0  0  0  0  0  0  0  0  0  0  0  0
   47.1650   31.1010   48.9260 C   0  0  2  0  0  0  0  0  0  0  0  0
   47.9270   31.4390   46.8810 H   0  0  0  0  0  0  0  0  0  0  0  0
   45.5140   31.1170   47.0310 H   0  0  0  0  0  0  0  0  0  0  0  0
   46.3270   32.4930   50.2840 H   0  0  0  0  0  0  0  0  0  0  0  0
   45.2520   31.1270   49.9940 H   0  0  0  0  0  0  0  0  0  0  0  0
   46.8560   30.0900   48.5910 H   0  0  0  0  0  0  0  0  0  0  0  0
   47.8810   33.1440   48.0790 O   0  0  0  0  0  0  0  0  0  0  0  0
   47.2010   33.7140   48.4900 H   0  0  0  0  0  0  0  0  0  0  0  0
   48.2560   31.0980   49.7460 O   0  0  0  0  0  0  0  0  0  0  0  0
   49.0360   30.8550   49.2070 H   0  0  0  0  0  0  0  0  0  0  0  0
   45.1600   35.5700   42.8510 C   0  0  0  0  0  0  0  0  0  0  0  0
   45.3030   36.6070   43.1280 H   0  0  0  0  0  0  0  0  0  0  0  0
   45.9190   35.3360   42.0700 H   0  0  0  0  0  0  0  0  0  0  0  0
   43.8230   35.2880   42.2040 C   0  0  0  0  0  3  0  0  0  0  0  0
   43.7410   33.8360   41.7390 C   0  0  0  0  0  2  0  0  0  0  0  0
   43.2030   33.8660   40.3340 C   0  0  0  0  0  2  0  0  0  0  0  0
   42.5080   35.2130   40.2860 C   0  0  0  0  0  2  0  0  0  0  0  0
   43.5680   36.0930   40.9620 C   0  0  0  0  0  2  0  0  0  0  0  0
  1  7  1  0  0  0  0
  1  6  1  0  0  0  0
  2  1  2  0  0  0  0
  3  2  1  0  0  0  0
  3  4  2  0  0  0  0
  4  5  1  0  0  0  0
  5  6  2  0  0  0  0
  5 10  1  0  0  0  0
  8  3  1  0  0  0  0
  9 14  1  6  0  0  0
  9 19  1  0  0  0  0
  9 13  1  0  0  0  0
 10 15  1  6  0  0  0
 10  9  1  0  0  0  0
 10 11  1  0  0  0  0
 11 12  1  0  0  0  0
 12 17  1  0  0  0  0
 12 16  1  0  0  0  0
 13 18  1  6  0  0  0
 13 12  1  0  0  0  0
 13 21  1  0  0  0  0
 19 20  1  0  0  0  0
 22 21  1  0  0  0  0
 23 24  1  0  0  0  0
 23  2  1  0  0  0  0
 25 23  1  0  0  0  0
 26 23  1  0  0  0  0
 27 26  1  0  0  0  0
 28 27  1  0  0  0  0
 29 28  1  0  0  0  0
 29 30  1  0  0  0  0
 30 26  1  0  0  0  0
M  END
>  <minimizedAffinity>
-5.34398174

>  <minimizedRMSD>
0.566025794

$$$$
