
 OpenBabel03252503353D

 18 19  0  0  0  0  0  0  0  0999 V2000
   44.5220   36.0510   44.5610 C   0  0  0  0  0  0  0  0  0  0  0  0
   45.2040   35.9260   43.3440 C   0  0  0  0  0  0  0  0  0  0  0  0
   46.0720   34.8510   43.1590 C   0  0  0  0  0  0  0  0  0  0  0  0
   46.2330   33.9500   44.1690 N   0  0  0  0  0  0  0  0  0  0  0  0
   45.5490   34.1080   45.3400 C   0  0  0  0  0  0  0  0  0  0  0  0
   44.7060   35.1480   45.5270 N   0  0  0  0  0  0  0  0  0  0  0  0
   43.8910   36.9220   44.5600 H   0  0  0  0  0  0  0  0  0  0  0  0
   45.1490   36.5790   42.4860 H   0  0  0  0  0  0  0  0  0  0  0  0
   45.6450   33.4190   46.1660 H   0  0  0  0  0  0  0  0  0  0  0  0
   46.2740   33.8980   40.8740 C   0  0  0  0  0  0  0  0  0  0  0  0
   45.1360   33.3650   41.1170 O   0  0  0  0  0  0  0  0  0  0  0  0
   46.8000   34.6590   41.9510 N   0  0  0  0  0  0  0  0  0  0  0  0
   47.7510   35.1320   41.9420 H   0  0  0  0  0  0  0  0  0  0  0  0
   47.0560   33.8070   39.6470 C   0  0  0  0  0  3  0  0  0  0  0  0
   46.3460   33.1660   38.4770 C   0  0  0  0  0  2  0  0  0  0  0  0
   47.4970   33.1610   37.4620 C   0  0  0  0  0  2  0  0  0  0  0  0
   48.7630   32.9450   38.2910 C   0  0  0  0  0  2  0  0  0  0  0  0
   48.2720   32.9210   39.7440 C   0  0  0  0  0  2  0  0  0  0  0  0
  1  6  1  0  0  0  0
  2  1  2  0  0  0  0
  3  2  1  0  0  0  0
  3  4  2  0  0  0  0
  4  5  1  0  0  0  0
  5  6  2  0  0  0  0
  5  9  1  0  0  0  0
  7  1  1  0  0  0  0
  8  2  1  0  0  0  0
 10 11  2  0  0  0  0
 10 12  1  0  0  0  0
 12  3  1  0  0  0  0
 13 12  1  0  0  0  0
 14 18  1  0  0  0  0
 14 10  1  0  0  0  0
 15 14  1  0  0  0  0
 16 17  1  0  0  0  0
 16 15  1  0  0  0  0
 17 18  1  0  0  0  0
M  END
>  <minimizedAffinity>
-3.96987033

>  <minimizedRMSD>
0.731893957

$$$$
