
 OpenBabel03252505113D

 40 43  0  0  1  0  0  0  0  0999 V2000
   44.6150   35.4160   44.7430 C   0  0  0  0  0  0  0  0  0  0  0  0
   45.2930   35.5190   43.5100 C   0  0  0  0  0  0  0  0  0  0  0  0
   46.4180   34.6540   43.2950 C   0  0  0  0  0  0  0  0  0  0  0  0
   46.7710   33.7850   44.2840 N   0  0  0  0  0  0  0  0  0  0  0  0
   46.0960   33.7280   45.4330 C   0  0  0  0  0  0  0  0  0  0  0  0
   45.0200   34.5340   45.6760 N   0  0  0  0  0  0  0  0  0  0  0  0
   43.7770   36.0930   44.8450 H   0  0  0  0  0  0  0  0  0  0  0  0
   45.0370   36.1880   42.7220 H   0  0  0  0  0  0  0  0  0  0  0  0
   46.5220   32.7700   46.4820 C   0  0  2  0  0  0  0  0  0  0  0  0
   47.0140   31.5550   45.7320 C   0  0  0  0  0  0  0  0  0  0  0  0
   46.1160   30.3840   45.7260 C   0  0  0  0  0  0  0  0  0  0  0  0
   45.8750   30.0780   47.2120 C   0  0  0  0  0  0  0  0  0  0  0  0
   45.1280   31.1340   47.8840 C   0  0  0  0  0  0  0  0  0  0  0  0
   45.5080   32.5110   47.4610 C   0  0  0  0  0  0  0  0  0  0  0  0
   47.4030   33.2670   46.9780 H   0  0  0  0  0  0  0  0  0  0  0  0
   47.3160   31.7940   44.6870 H   0  0  0  0  0  0  0  0  0  0  0  0
   47.9580   31.2280   46.2210 H   0  0  0  0  0  0  0  0  0  0  0  0
   46.6990   29.5180   45.3630 H   0  0  0  0  0  0  0  0  0  0  0  0
   45.1880   30.4660   45.1570 H   0  0  0  0  0  0  0  0  0  0  0  0
   45.2050   29.1910   47.1910 H   0  0  0  0  0  0  0  0  0  0  0  0
   46.8380   29.8660   47.6780 H   0  0  0  0  0  0  0  0  0  0  0  0
   44.3660   31.1640   48.6100 H   0  0  0  0  0  0  0  0  0  0  0  0
   44.8550   33.6520   48.0320 N   0  0  0  0  0  0  0  0  0  0  0  0
   45.2220   34.1710   48.8670 H   0  0  0  0  0  0  0  0  0  0  0  0
   44.0030   34.2120   47.8510 H   0  0  0  0  0  0  0  0  0  0  0  0
   47.1280   34.7330   42.0360 C   0  0  0  0  0  0  0  0  0  0  0  0
   48.2560   35.5060   41.9770 C   0  0  0  0  0  0  0  0  0  0  0  0
   48.8990   35.5440   40.7230 C   0  0  0  0  0  0  0  0  0  0  0  0
   48.3340   34.8080   39.7040 C   0  0  0  0  0  0  0  0  0  0  0  0
   47.2170   34.0440   39.7670 C   0  0  0  0  0  0  0  0  0  0  0  0
   46.6170   34.0280   40.9930 N   0  0  0  0  0  0  0  0  0  0  0  0
   48.6340   36.0520   42.8160 H   0  0  0  0  0  0  0  0  0  0  0  0
   49.7830   36.1440   40.6620 H   0  0  0  0  0  0  0  0  0  0  0  0
   48.9130   34.9140   38.7980 H   0  0  0  0  0  0  0  0  0  0  0  0
   46.7120   33.3370   38.7040 O   0  0  0  0  0  0  0  0  0  0  0  0
   47.4110   32.4130   37.9190 C   0  0  0  0  0  3  0  0  0  0  0  0
   48.0920   33.1100   36.7500 C   0  0  0  0  0  2  0  0  0  0  0  0
   49.1120   32.0500   36.3490 C   0  0  0  0  0  2  0  0  0  0  0  0
   49.6950   31.6430   37.6860 C   0  0  0  0  0  2  0  0  0  0  0  0
   48.6250   31.9430   38.7040 C   0  0  0  0  0  2  0  0  0  0  0  0
  1  7  1  0  0  0  0
  1  6  1  0  0  0  0
  2  1  2  0  0  0  0
  3  2  1  0  0  0  0
  3  4  2  0  0  0  0
  4  5  1  0  0  0  0
  5  6  2  0  0  0  0
  5  9  1  0  0  0  0
  8  2  1  0  0  0  0
  9 15  1  1  0  0  0
  9 14  1  0  0  0  0
 10 17  1  0  0  0  0
 10  9  1  0  0  0  0
 11 10  1  0  0  0  0
 11 12  1  0  0  0  0
 12 21  1  0  0  0  0
 12 13  1  0  0  0  0
 13 22  1  0  0  0  0
 14 13  2  0  0  0  0
 14 23  1  0  0  0  0
 16 10  1  0  0  0  0
 18 11  1  0  0  0  0
 19 11  1  0  0  0  0
 20 12  1  0  0  0  0
 23 24  1  0  0  0  0
 25 23  1  0  0  0  0
 26  3  1  0  0  0  0
 27 26  1  0  0  0  0
 27 32  1  0  0  0  0
 28 27  2  0  0  0  0
 29 30  2  0  0  0  0
 29 28  1  0  0  0  0
 30 31  1  0  0  0  0
 31 26  2  0  0  0  0
 33 28  1  0  0  0  0
 34 29  1  0  0  0  0
 35 30  1  0  0  0  0
 36 40  1  0  0  0  0
 36 35  1  0  0  0  0
 37 36  1  0  0  0  0
 38 37  1  0  0  0  0
 38 39  1  0  0  0  0
 39 40  1  0  0  0  0
M  END
>  <minimizedAffinity>
-6.94662905

>  <minimizedRMSD>
0.71040529

$$$$
