
 OpenBabel03252503433D

 30 32  0  0  1  0  0  0  0  0999 V2000
   45.2510   34.4620   44.7390 C   0  0  0  0  0  0  0  0  0  0  0  0
   45.3900   33.8210   43.4990 C   0  0  0  0  0  0  0  0  0  0  0  0
   45.7280   32.4620   43.5250 C   0  0  0  0  0  0  0  0  0  0  0  0
   45.9000   31.8400   44.7070 N   0  0  0  0  0  0  0  0  0  0  0  0
   45.7580   32.4840   45.8770 C   0  0  0  0  0  0  0  0  0  0  0  0
   45.4300   33.8120   45.9120 N   0  0  0  0  0  0  0  0  0  0  0  0
   44.9960   35.4930   44.8730 H   0  0  0  0  0  0  0  0  0  0  0  0
   45.8300   31.9930   42.5710 H   0  0  0  0  0  0  0  0  0  0  0  0
   47.4110   31.7700   47.6020 C   0  0  2  0  0  0  0  0  0  0  0  0
   45.9550   31.6940   47.0910 C   0  0  1  0  0  0  0  0  0  0  0  0
   45.2900   32.1520   48.1930 O   0  0  0  0  0  0  0  0  0  0  0  0
   45.8260   31.5370   49.2860 C   0  0  0  0  0  0  0  0  0  0  0  0
   47.1840   30.9870   48.9070 C   0  0  2  0  0  0  0  0  0  0  0  0
   48.1120   31.2840   46.9260 H   0  0  0  0  0  0  0  0  0  0  0  0
   45.7650   30.6210   46.8650 H   0  0  0  0  0  0  0  0  0  0  0  0
   46.0160   32.3340   50.0500 H   0  0  0  0  0  0  0  0  0  0  0  0
   45.1800   30.8070   49.7760 H   0  0  0  0  0  0  0  0  0  0  0  0
   47.0570   29.9190   48.6330 H   0  0  0  0  0  0  0  0  0  0  0  0
   47.6960   33.0460   47.9590 O   0  0  0  0  0  0  0  0  0  0  0  0
   46.9030   33.5380   48.2500 H   0  0  0  0  0  0  0  0  0  0  0  0
   48.1680   31.2050   49.8270 O   0  0  0  0  0  0  0  0  0  0  0  0
   49.0280   31.0410   49.3920 H   0  0  0  0  0  0  0  0  0  0  0  0
   45.1700   34.6380   42.2990 C   0  0  0  0  0  0  0  0  0  0  0  0
   45.6170   35.6220   42.3680 H   0  0  0  0  0  0  0  0  0  0  0  0
   45.6700   34.1160   41.4520 H   0  0  0  0  0  0  0  0  0  0  0  0
   43.7010   34.6570   41.9420 C   0  0  0  0  0  3  0  0  0  0  0  0
   43.3320   33.4340   41.1050 C   0  0  0  0  0  2  0  0  0  0  0  0
   42.5140   33.9410   39.9460 C   0  0  0  0  0  2  0  0  0  0  0  0
   42.0100   35.2720   40.4660 C   0  0  0  0  0  2  0  0  0  0  0  0
   43.2960   35.8280   41.0940 C   0  0  0  0  0  2  0  0  0  0  0  0
  1  7  1  0  0  0  0
  1  6  1  0  0  0  0
  2  3  1  0  0  0  0
  2  1  2  0  0  0  0
  3  4  2  0  0  0  0
  4  5  1  0  0  0  0
  5  6  2  0  0  0  0
  5 10  1  0  0  0  0
  8  3  1  0  0  0  0
  9 14  1  6  0  0  0
  9 19  1  0  0  0  0
  9 13  1  0  0  0  0
 10 15  1  6  0  0  0
 10  9  1  0  0  0  0
 10 11  1  0  0  0  0
 11 12  1  0  0  0  0
 12 17  1  0  0  0  0
 12 16  1  0  0  0  0
 13 18  1  6  0  0  0
 13 12  1  0  0  0  0
 13 21  1  0  0  0  0
 19 20  1  0  0  0  0
 22 21  1  0  0  0  0
 23 24  1  0  0  0  0
 23  2  1  0  0  0  0
 25 23  1  0  0  0  0
 26 23  1  0  0  0  0
 27 26  1  0  0  0  0
 28 29  1  0  0  0  0
 28 27  1  0  0  0  0
 29 30  1  0  0  0  0
 30 26  1  0  0  0  0
M  END
>  <minimizedAffinity>
-5.40236664

>  <minimizedRMSD>
1.15346014

$$$$
