
 OpenBabel03242521443D

 34 36  0  0  1  0  0  0  0  0999 V2000
   45.6060   35.0630   43.7500 C   0  0  0  0  0  0  0  0  0  0  0  0
   46.7060   34.3590   43.2360 C   0  0  0  0  0  0  0  0  0  0  0  0
   47.2920   33.3510   44.0290 C   0  0  0  0  0  0  0  0  0  0  0  0
   46.7640   33.1230   45.2280 N   0  0  0  0  0  0  0  0  0  0  0  0
   45.7010   33.8140   45.7060 C   0  0  0  0  0  0  0  0  0  0  0  0
   45.1190   34.7870   44.9690 N   0  0  0  0  0  0  0  0  0  0  0  0
   47.0440   34.6370   42.2410 H   0  0  0  0  0  0  0  0  0  0  0  0
   45.3220   33.5760   46.6950 H   0  0  0  0  0  0  0  0  0  0  0  0
   49.3000   33.4750   42.5650 C   0  0  2  0  0  0  0  0  0  0  0  0
   48.4280   32.6500   43.4450 C   0  0  2  0  0  0  0  0  0  0  0  0
   48.0620   31.5970   42.5560 O   0  0  0  0  0  0  0  0  0  0  0  0
   49.2790   31.1930   42.0550 C   0  0  0  0  0  0  0  0  0  0  0  0
   50.2410   32.3510   42.0820 C   0  0  1  0  0  0  0  0  0  0  0  0
   48.8060   33.8180   41.6370 H   0  0  0  0  0  0  0  0  0  0  0  0
   49.0320   32.1890   44.2490 H   0  0  0  0  0  0  0  0  0  0  0  0
   49.1370   30.9060   40.9910 H   0  0  0  0  0  0  0  0  0  0  0  0
   49.6780   30.2970   42.5730 H   0  0  0  0  0  0  0  0  0  0  0  0
   51.0640   32.2400   42.8060 H   0  0  0  0  0  0  0  0  0  0  0  0
   49.9370   34.5040   43.1870 O   0  0  0  0  0  0  0  0  0  0  0  0
   49.8180   34.4410   44.1700 H   0  0  0  0  0  0  0  0  0  0  0  0
   50.7380   32.6970   40.8320 O   0  0  0  0  0  0  0  0  0  0  0  0
   50.0170   32.9860   40.2370 H   0  0  0  0  0  0  0  0  0  0  0  0
   44.9940   36.1410   42.9040 C   0  0  0  0  0  0  0  0  0  0  0  0
   45.6310   36.3460   42.0430 H   0  0  0  0  0  0  0  0  0  0  0  0
   43.9810   35.7590   42.6360 H   0  0  0  0  0  0  0  0  0  0  0  0
   44.8520   38.6760   43.4140 C   0  0  0  0  0  0  0  0  0  0  0  0
   45.0360   38.9090   42.1880 O   0  0  0  0  0  0  0  0  0  0  0  0
   44.8140   37.2950   43.7660 N   0  0  0  0  0  0  0  0  0  0  0  0
   44.6320   37.0790   44.7890 H   0  0  0  0  0  0  0  0  0  0  0  0
   44.6810   39.7140   44.4560 C   0  0  0  0  0  3  0  0  0  0  0  0
   45.6960   40.8070   44.1950 C   0  0  0  0  0  2  0  0  0  0  0  0
   47.0020   40.2910   44.7730 C   0  0  0  0  0  2  0  0  0  0  0  0
   46.5360   39.5640   46.0100 C   0  0  0  0  0  2  0  0  0  0  0  0
   45.1180   39.1110   45.7730 C   0  0  0  0  0  2  0  0  0  0  0  0
  1  6  1  0  0  0  0
  2  1  2  0  0  0  0
  2  3  1  0  0  0  0
  3  4  2  0  0  0  0
  4  5  1  0  0  0  0
  5  8  1  0  0  0  0
  6  5  2  0  0  0  0
  7  2  1  0  0  0  0
  9 14  1  6  0  0  0
  9 19  1  0  0  0  0
  9 10  1  0  0  0  0
 10  3  1  0  0  0  0
 10 15  1  1  0  0  0
 11 10  1  0  0  0  0
 12 13  1  0  0  0  0
 12 11  1  0  0  0  0
 12 17  1  0  0  0  0
 13  9  1  0  0  0  0
 13 18  1  1  0  0  0
 16 12  1  0  0  0  0
 19 20  1  0  0  0  0
 21 13  1  0  0  0  0
 22 21  1  0  0  0  0
 23  1  1  0  0  0  0
 23 28  1  0  0  0  0
 24 23  1  0  0  0  0
 25 23  1  0  0  0  0
 26 28  1  0  0  0  0
 26 30  1  0  0  0  0
 27 26  2  0  0  0  0
 28 29  1  0  0  0  0
 30 34  1  0  0  0  0
 31 30  1  0  0  0  0
 31 32  1  0  0  0  0
 32 33  1  0  0  0  0
 34 33  1  0  0  0  0
M  END
>  <minimizedAffinity>
2.49309397

>  <minimizedRMSD>
1.04170513

$$$$
