
 OpenBabel03242516363D

 40 43  0  0  1  0  0  0  0  0999 V2000
   37.8930   32.2320   40.5980 C   0  0  2  0  0  0  0  0  0  0  0  0
   38.7910   31.7230   39.4410 C   0  0  1  0  0  0  0  0  0  0  0  0
   37.9040   31.8410   38.4100 O   0  0  0  0  0  0  0  0  0  0  0  0
   36.7520   31.1780   38.8780 C   0  0  0  0  0  0  0  0  0  0  0  0
   36.8110   31.1900   40.4200 C   0  0  1  0  0  0  0  0  0  0  0  0
   38.4240   32.1710   41.5550 H   0  0  0  0  0  0  0  0  0  0  0  0
   39.0410   30.6930   39.7690 H   0  0  0  0  0  0  0  0  0  0  0  0
   35.8320   31.6490   38.5130 H   0  0  0  0  0  0  0  0  0  0  0  0
   36.8130   30.1290   38.5550 H   0  0  0  0  0  0  0  0  0  0  0  0
   35.8640   31.5150   40.8840 H   0  0  0  0  0  0  0  0  0  0  0  0
   41.8630   33.6860   38.3630 C   0  0  0  0  0  0  0  0  0  0  0  0
   40.7460   32.8610   38.2040 C   0  0  0  0  0  0  0  0  0  0  0  0
   40.0070   32.5370   39.3210 C   0  0  0  0  0  0  0  0  0  0  0  0
   40.4250   33.0510   40.5290 N   0  0  0  0  0  0  0  0  0  0  0  0
   41.5050   33.8430   40.6490 C   0  0  0  0  0  0  0  0  0  0  0  0
   42.2230   34.1580   39.5590 N   0  0  0  0  0  0  0  0  0  0  0  0
   42.3620   33.8670   37.3980 H   0  0  0  0  0  0  0  0  0  0  0  0
   40.3620   32.4260   37.3010 H   0  0  0  0  0  0  0  0  0  0  0  0
   41.8000   34.2280   41.6200 H   0  0  0  0  0  0  0  0  0  0  0  0
   37.3330   33.4390   40.2850 O   0  0  0  0  0  0  0  0  0  0  0  0
   37.5470   33.6410   39.3290 H   0  0  0  0  0  0  0  0  0  0  0  0
   37.2480   29.9640   40.8250 O   0  0  0  0  0  0  0  0  0  0  0  0
   36.5700   28.0670   42.0470 C   0  0  1  0  0  0  0  0  0  0  0  0
   36.9550   29.6310   42.1480 C   0  0  1  0  0  0  0  0  0  0  0  0
   38.1010   29.4900   42.8400 O   0  0  0  0  0  0  0  0  0  0  0  0
   38.8270   28.6570   41.9430 C   0  0  0  0  0  0  0  0  0  0  0  0
   37.9180   27.4500   41.8560 C   0  0  1  0  0  0  0  0  0  0  0  0
   35.8530   27.9820   41.2550 H   0  0  0  0  0  0  0  0  0  0  0  0
   36.0170   30.0200   42.5350 H   0  0  0  0  0  0  0  0  0  0  0  0
   39.0120   29.1430   40.9840 H   0  0  0  0  0  0  0  0  0  0  0  0
   39.8070   28.4030   42.4210 H   0  0  0  0  0  0  0  0  0  0  0  0
   38.0590   27.0040   40.8510 H   0  0  0  0  0  0  0  0  0  0  0  0
   36.1300   27.7360   43.3320 O   0  0  0  0  0  0  0  0  0  0  0  0
   35.1490   27.6830   43.3800 H   0  0  0  0  0  0  0  0  0  0  0  0
   38.2510   26.5820   42.8760 O   0  0  0  0  0  0  0  0  0  0  0  0
   38.6710   25.3420   42.4660 C   0  0  0  0  0  3  0  0  0  0  0  0
   39.8500   24.7920   43.2350 C   0  0  0  0  0  2  0  0  0  0  0  0
   41.0720   25.0870   42.4080 C   0  0  0  0  0  2  0  0  0  0  0  0
   40.5830   25.0850   40.9940 C   0  0  0  0  0  2  0  0  0  0  0  0
   39.0950   25.2570   41.0220 C   0  0  0  0  0  2  0  0  0  0  0  0
  1  6  1  1  0  0  0
  2  7  1  1  0  0  0
  2  1  1  0  0  0  0
  3  4  1  0  0  0  0
  3  2  1  0  0  0  0
  4  5  1  0  0  0  0
  5  1  1  0  0  0  0
  5 22  1  0  0  0  0
  5 10  1  1  0  0  0
  8  4  1  0  0  0  0
  9  4  1  0  0  0  0
 11 16  1  0  0  0  0
 12 11  2  0  0  0  0
 12 13  1  0  0  0  0
 13  2  1  0  0  0  0
 13 14  2  0  0  0  0
 14 15  1  0  0  0  0
 15 19  1  0  0  0  0
 16 15  2  0  0  0  0
 17 11  1  0  0  0  0
 18 12  1  0  0  0  0
 20  1  1  0  0  0  0
 21 20  1  0  0  0  0
 22 24  1  0  0  0  0
 23 28  1  6  0  0  0
 23 24  1  0  0  0  0
 23 33  1  0  0  0  0
 24 29  1  1  0  0  0
 24 25  1  0  0  0  0
 26 31  1  0  0  0  0
 26 25  1  0  0  0  0
 27 32  1  6  0  0  0
 27 26  1  0  0  0  0
 27 23  1  0  0  0  0
 27 35  1  0  0  0  0
 30 26  1  0  0  0  0
 33 34  1  0  0  0  0
 36 35  1  0  0  0  0
 36 37  1  0  0  0  0
 38 37  1  0  0  0  0
 39 40  1  0  0  0  0
 39 38  1  0  0  0  0
 40 36  1  0  0  0  0
M  END
>  <minimizedAffinity>
-5.92312908

$$$$

 OpenBabel03242516363D

 40 43  0  0  1  0  0  0  0  0999 V2000
   38.2510   26.0190   41.5610 C   0  0  2  0  0  0  0  0  0  0  0  0
   38.8940   27.1310   42.4300 C   0  0  1  0  0  0  0  0  0  0  0  0
   38.0720   27.0600   43.5170 O   0  0  0  0  0  0  0  0  0  0  0  0
   36.7760   27.1260   42.9660 C   0  0  0  0  0  0  0  0  0  0  0  0
   36.8760   26.6490   41.5020 C   0  0  1  0  0  0  0  0  0  0  0  0
   38.7550   25.9460   40.5910 H   0  0  0  0  0  0  0  0  0  0  0  0
   38.7920   28.0270   41.7830 H   0  0  0  0  0  0  0  0  0  0  0  0
   36.0590   26.5210   43.5320 H   0  0  0  0  0  0  0  0  0  0  0  0
   36.4730   28.1820   42.9470 H   0  0  0  0  0  0  0  0  0  0  0  0
   36.1070   25.9040   41.2390 H   0  0  0  0  0  0  0  0  0  0  0  0
   42.5000   26.9690   43.6240 C   0  0  0  0  0  0  0  0  0  0  0  0
   41.1950   27.4650   43.5420 C   0  0  0  0  0  0  0  0  0  0  0  0
   40.3090   26.8420   42.6910 C   0  0  0  0  0  0  0  0  0  0  0  0
   40.7740   25.7630   41.9710 N   0  0  0  0  0  0  0  0  0  0  0  0
   42.0360   25.3090   42.0730 C   0  0  0  0  0  0  0  0  0  0  0  0
   42.8970   25.9180   42.9030 N   0  0  0  0  0  0  0  0  0  0  0  0
   43.1020   27.5550   44.3360 H   0  0  0  0  0  0  0  0  0  0  0  0
   40.7640   28.2950   44.0690 H   0  0  0  0  0  0  0  0  0  0  0  0
   42.3630   24.4540   41.4870 H   0  0  0  0  0  0  0  0  0  0  0  0
   38.1220   24.8590   42.2730 O   0  0  0  0  0  0  0  0  0  0  0  0
   38.3660   25.0510   43.2230 H   0  0  0  0  0  0  0  0  0  0  0  0
   36.8860   27.7570   40.7070 O   0  0  0  0  0  0  0  0  0  0  0  0
   36.6470   30.0550   41.1700 C   0  0  1  0  0  0  0  0  0  0  0  0
   35.8560   28.6680   40.9370 C   0  0  1  0  0  0  0  0  0  0  0  0
   35.2710   28.9880   39.7670 O   0  0  0  0  0  0  0  0  0  0  0  0
   36.4270   29.2640   38.9840 C   0  0  0  0  0  0  0  0  0  0  0  0
   37.0610   30.3890   39.7730 C   0  0  1  0  0  0  0  0  0  0  0  0
   37.4110   29.8500   41.8920 H   0  0  0  0  0  0  0  0  0  0  0  0
   35.3580   28.5840   41.8990 H   0  0  0  0  0  0  0  0  0  0  0  0
   37.0670   28.3870   38.8690 H   0  0  0  0  0  0  0  0  0  0  0  0
   36.0880   29.6060   37.9730 H   0  0  0  0  0  0  0  0  0  0  0  0
   38.1560   30.3270   39.6120 H   0  0  0  0  0  0  0  0  0  0  0  0
   35.6520   30.9620   41.5470 O   0  0  0  0  0  0  0  0  0  0  0  0
   35.6560   31.1260   42.5160 H   0  0  0  0  0  0  0  0  0  0  0  0
   36.5230   31.5820   39.3340 O   0  0  0  0  0  0  0  0  0  0  0  0
   37.4360   32.4850   38.8520 C   0  0  0  0  0  3  0  0  0  0  0  0
   38.8780   32.1350   39.1410 C   0  0  0  0  0  2  0  0  0  0  0  0
   39.2720   32.9250   40.3590 C   0  0  0  0  0  2  0  0  0  0  0  0
   38.4300   34.1610   40.2980 C   0  0  0  0  0  2  0  0  0  0  0  0
   37.2820   33.8900   39.3760 C   0  0  0  0  0  2  0  0  0  0  0  0
  1  6  1  6  0  0  0
  1 20  1  0  0  0  0
  1  2  1  0  0  0  0
  2  7  1  6  0  0  0
  2 13  1  0  0  0  0
  2  3  1  0  0  0  0
  4  3  1  0  0  0  0
  4  8  1  0  0  0  0
  5 10  1  6  0  0  0
  5  1  1  0  0  0  0
  5  4  1  0  0  0  0
  9  4  1  0  0  0  0
 11 17  1  0  0  0  0
 12 11  1  0  0  0  0
 12 18  1  0  0  0  0
 13 12  2  0  0  0  0
 14 15  2  0  0  0  0
 14 13  1  0  0  0  0
 15 16  1  0  0  0  0
 16 11  2  0  0  0  0
 19 15  1  0  0  0  0
 20 21  1  0  0  0  0
 22 24  1  0  0  0  0
 22  5  1  0  0  0  0
 23 33  1  0  0  0  0
 23 28  1  1  0  0  0
 24 23  1  0  0  0  0
 24 29  1  1  0  0  0
 25 24  1  0  0  0  0
 26 25  1  0  0  0  0
 26 27  1  0  0  0  0
 27 32  1  6  0  0  0
 27 23  1  0  0  0  0
 30 26  1  0  0  0  0
 31 26  1  0  0  0  0
 33 34  1  0  0  0  0
 35 27  1  0  0  0  0
 36 37  1  0  0  0  0
 36 35  1  0  0  0  0
 36 40  1  0  0  0  0
 37 38  1  0  0  0  0
 39 38  1  0  0  0  0
 40 39  1  0  0  0  0
M  END
>  <minimizedAffinity>
-5.71313429

$$$$

 OpenBabel03242516363D

 40 43  0  0  1  0  0  0  0  0999 V2000
   36.6830   30.2310   41.4730 C   0  0  2  0  0  0  0  0  0  0  0  0
   37.5250   30.4570   40.1900 C   0  0  1  0  0  0  0  0  0  0  0  0
   36.5540   30.2490   39.2530 O   0  0  0  0  0  0  0  0  0  0  0  0
   35.9840   29.0150   39.6280 C   0  0  0  0  0  0  0  0  0  0  0  0
   36.2650   28.8180   41.1320 C   0  0  1  0  0  0  0  0  0  0  0  0
   37.3130   30.3120   42.3660 H   0  0  0  0  0  0  0  0  0  0  0  0
   38.3090   29.6780   40.2790 H   0  0  0  0  0  0  0  0  0  0  0  0
   34.9090   28.9810   39.4180 H   0  0  0  0  0  0  0  0  0  0  0  0
   36.5170   28.2210   39.0870 H   0  0  0  0  0  0  0  0  0  0  0  0
   35.3690   28.5190   41.7010 H   0  0  0  0  0  0  0  0  0  0  0  0
   38.3610   34.1610   39.9750 C   0  0  0  0  0  0  0  0  0  0  0  0
   37.5650   33.0160   39.8730 C   0  0  0  0  0  0  0  0  0  0  0  0
   38.1270   31.7970   40.1850 C   0  0  0  0  0  0  0  0  0  0  0  0
   39.4470   31.7890   40.5770 N   0  0  0  0  0  0  0  0  0  0  0  0
   40.1870   32.9090   40.6670 C   0  0  0  0  0  0  0  0  0  0  0  0
   39.6370   34.0950   40.3630 N   0  0  0  0  0  0  0  0  0  0  0  0
   37.7940   35.0630   39.6990 H   0  0  0  0  0  0  0  0  0  0  0  0
   36.5360   32.9450   39.5760 H   0  0  0  0  0  0  0  0  0  0  0  0
   41.2250   32.8590   40.9810 H   0  0  0  0  0  0  0  0  0  0  0  0
   35.5500   30.9940   41.4510 O   0  0  0  0  0  0  0  0  0  0  0  0
   35.4820   31.4230   40.5510 H   0  0  0  0  0  0  0  0  0  0  0  0
   37.3190   27.9610   41.2450 O   0  0  0  0  0  0  0  0  0  0  0  0
   38.1420   25.7880   41.6370 C   0  0  1  0  0  0  0  0  0  0  0  0
   37.1700   26.9490   42.1940 C   0  0  1  0  0  0  0  0  0  0  0  0
   37.8750   27.2610   43.2970 O   0  0  0  0  0  0  0  0  0  0  0  0
   39.1140   27.6250   42.7000 C   0  0  0  0  0  0  0  0  0  0  0  0
   39.4860   26.3470   41.9790 C   0  0  1  0  0  0  0  0  0  0  0  0
   37.8930   25.6540   40.6040 H   0  0  0  0  0  0  0  0  0  0  0  0
   36.2240   26.4160   42.1690 H   0  0  0  0  0  0  0  0  0  0  0  0
   39.0190   28.4930   42.0450 H   0  0  0  0  0  0  0  0  0  0  0  0
   39.8380   27.8640   43.5200 H   0  0  0  0  0  0  0  0  0  0  0  0
   40.0820   26.6330   41.0900 H   0  0  0  0  0  0  0  0  0  0  0  0
   37.9050   24.7020   42.4860 O   0  0  0  0  0  0  0  0  0  0  0  0
   37.3270   24.0280   42.0640 H   0  0  0  0  0  0  0  0  0  0  0  0
   40.1850   25.5430   42.8560 O   0  0  0  0  0  0  0  0  0  0  0  0
   41.4050   25.1130   42.3980 C   0  0  0  0  0  3  0  0  0  0  0  0
   42.5580   25.3780   43.3390 C   0  0  0  0  0  2  0  0  0  0  0  0
   43.2200   26.6390   42.8570 C   0  0  0  0  0  2  0  0  0  0  0  0
   42.9790   26.6530   41.3790 C   0  0  0  0  0  2  0  0  0  0  0  0
   41.8450   25.7190   41.0900 C   0  0  0  0  0  2  0  0  0  0  0  0
  1  6  1  1  0  0  0
  2  7  1  6  0  0  0
  2  1  1  0  0  0  0
  3  4  1  0  0  0  0
  3  2  1  0  0  0  0
  4  5  1  0  0  0  0
  5 22  1  0  0  0  0
  5  1  1  0  0  0  0
  5 10  1  1  0  0  0
  8  4  1  0  0  0  0
  9  4  1  0  0  0  0
 11 16  1  0  0  0  0
 12 11  2  0  0  0  0
 12 13  1  0  0  0  0
 13  2  1  0  0  0  0
 13 14  2  0  0  0  0
 14 15  1  0  0  0  0
 15 19  1  0  0  0  0
 16 15  2  0  0  0  0
 17 11  1  0  0  0  0
 18 12  1  0  0  0  0
 20  1  1  0  0  0  0
 21 20  1  0  0  0  0
 22 24  1  0  0  0  0
 23 28  1  6  0  0  0
 23 27  1  0  0  0  0
 23 24  1  0  0  0  0
 23 33  1  0  0  0  0
 24 29  1  1  0  0  0
 24 25  1  0  0  0  0
 26 25  1  0  0  0  0
 26 31  1  0  0  0  0
 27 32  1  6  0  0  0
 27 26  1  0  0  0  0
 27 35  1  0  0  0  0
 30 26  1  0  0  0  0
 34 33  1  0  0  0  0
 36 35  1  0  0  0  0
 36 37  1  0  0  0  0
 38 37  1  0  0  0  0
 39 38  1  0  0  0  0
 40 39  1  0  0  0  0
 40 36  1  0  0  0  0
M  END
>  <minimizedAffinity>
-5.68578529

$$$$

 OpenBabel03242516363D

 40 43  0  0  1  0  0  0  0  0999 V2000
   40.3600   32.5130   40.9860 C   0  0  2  0  0  0  0  0  0  0  0  0
   40.3280   32.0350   39.5110 C   0  0  1  0  0  0  0  0  0  0  0  0
   39.2260   32.7180   39.0850 O   0  0  0  0  0  0  0  0  0  0  0  0
   38.2440   32.4070   40.0470 C   0  0  0  0  0  0  0  0  0  0  0  0
   38.9810   32.0020   41.3410 C   0  0  1  0  0  0  0  0  0  0  0  0
   41.1760   32.0260   41.5330 H   0  0  0  0  0  0  0  0  0  0  0  0
   40.2250   30.9360   39.6200 H   0  0  0  0  0  0  0  0  0  0  0  0
   37.5640   33.2470   40.2260 H   0  0  0  0  0  0  0  0  0  0  0  0
   37.6940   31.5230   39.6920 H   0  0  0  0  0  0  0  0  0  0  0  0
   38.5860   32.5080   42.2370 H   0  0  0  0  0  0  0  0  0  0  0  0
   43.7640   32.1590   37.8870 C   0  0  0  0  0  0  0  0  0  0  0  0
   42.7020   31.6000   38.6040 C   0  0  0  0  0  0  0  0  0  0  0  0
   41.5810   32.3710   38.8220 C   0  0  0  0  0  0  0  0  0  0  0  0
   41.5840   33.6520   38.3160 N   0  0  0  0  0  0  0  0  0  0  0  0
   42.6220   34.1610   37.6290 C   0  0  0  0  0  0  0  0  0  0  0  0
   43.7130   33.4080   37.4170 N   0  0  0  0  0  0  0  0  0  0  0  0
   44.5940   31.4420   37.7840 H   0  0  0  0  0  0  0  0  0  0  0  0
   42.6290   30.6160   39.0270 H   0  0  0  0  0  0  0  0  0  0  0  0
   42.5830   35.1760   37.2460 H   0  0  0  0  0  0  0  0  0  0  0  0
   40.3050   33.8770   41.0570 O   0  0  0  0  0  0  0  0  0  0  0  0
   40.1350   34.2280   40.1360 H   0  0  0  0  0  0  0  0  0  0  0  0
   38.9740   30.6400   41.4110 O   0  0  0  0  0  0  0  0  0  0  0  0
   37.3630   29.2250   42.3880 C   0  0  1  0  0  0  0  0  0  0  0  0
   38.6860   30.1060   42.6670 C   0  0  1  0  0  0  0  0  0  0  0  0
   39.5290   29.0900   42.9260 O   0  0  0  0  0  0  0  0  0  0  0  0
   39.4250   28.3680   41.7040 C   0  0  0  0  0  0  0  0  0  0  0  0
   37.9460   28.0500   41.6700 C   0  0  1  0  0  0  0  0  0  0  0  0
   36.6820   29.8590   41.8570 H   0  0  0  0  0  0  0  0  0  0  0  0
   38.2820   30.8050   43.3950 H   0  0  0  0  0  0  0  0  0  0  0  0
   39.7740   28.9500   40.8490 H   0  0  0  0  0  0  0  0  0  0  0  0
   40.0460   27.4410   41.7940 H   0  0  0  0  0  0  0  0  0  0  0  0
   37.6460   27.9930   40.6040 H   0  0  0  0  0  0  0  0  0  0  0  0
   36.9620   28.7920   43.6550 O   0  0  0  0  0  0  0  0  0  0  0  0
   36.1990   29.3110   43.9940 H   0  0  0  0  0  0  0  0  0  0  0  0
   37.7430   26.8640   42.3460 O   0  0  0  0  0  0  0  0  0  0  0  0
   38.1070   25.7350   41.6550 C   0  0  0  0  0  3  0  0  0  0  0  0
   37.8280   25.7900   40.1710 C   0  0  0  0  0  2  0  0  0  0  0  0
   36.5240   25.0700   39.9560 C   0  0  0  0  0  2  0  0  0  0  0  0
   36.4700   24.0490   41.0500 C   0  0  0  0  0  2  0  0  0  0  0  0
   37.4400   24.4640   42.1130 C   0  0  0  0  0  2  0  0  0  0  0  0
  1 20  1  0  0  0  0
  1  5  1  0  0  0  0
  1  6  1  1  0  0  0
  2  7  1  6  0  0  0
  2  1  1  0  0  0  0
  3  2  1  0  0  0  0
  3  4  1  0  0  0  0
  4  8  1  0  0  0  0
  4  5  1  0  0  0  0
  5 22  1  0  0  0  0
  5 10  1  1  0  0  0
  9  4  1  0  0  0  0
 11 12  1  0  0  0  0
 12 13  2  0  0  0  0
 12 18  1  0  0  0  0
 13  2  1  0  0  0  0
 14 13  1  0  0  0  0
 15 14  2  0  0  0  0
 16 15  1  0  0  0  0
 16 11  2  0  0  0  0
 17 11  1  0  0  0  0
 19 15  1  0  0  0  0
 21 20  1  0  0  0  0
 22 24  1  0  0  0  0
 23 28  1  6  0  0  0
 23 24  1  0  0  0  0
 23 33  1  0  0  0  0
 24 25  1  0  0  0  0
 24 29  1  1  0  0  0
 26 31  1  0  0  0  0
 26 25  1  0  0  0  0
 27 32  1  6  0  0  0
 27 26  1  0  0  0  0
 27 35  1  0  0  0  0
 27 23  1  0  0  0  0
 30 26  1  0  0  0  0
 33 34  1  0  0  0  0
 36 40  1  0  0  0  0
 36 35  1  0  0  0  0
 37 36  1  0  0  0  0
 38 37  1  0  0  0  0
 38 39  1  0  0  0  0
 39 40  1  0  0  0  0
M  END
>  <minimizedAffinity>
-5.6290369

$$$$

 OpenBabel03242516363D

 40 43  0  0  1  0  0  0  0  0999 V2000
   36.8110   28.3120   41.7620 C   0  0  2  0  0  0  0  0  0  0  0  0
   38.2520   27.7390   41.7310 C   0  0  1  0  0  0  0  0  0  0  0  0
   38.7220   28.2680   42.8980 O   0  0  0  0  0  0  0  0  0  0  0  0
   38.4040   29.6380   42.8000 C   0  0  0  0  0  0  0  0  0  0  0  0
   37.2280   29.7660   41.8100 C   0  0  1  0  0  0  0  0  0  0  0  0
   36.2640   28.0300   40.8560 H   0  0  0  0  0  0  0  0  0  0  0  0
   38.6570   28.1650   40.7900 H   0  0  0  0  0  0  0  0  0  0  0  0
   38.1510   30.0710   43.7740 H   0  0  0  0  0  0  0  0  0  0  0  0
   39.2680   30.1510   42.3520 H   0  0  0  0  0  0  0  0  0  0  0  0
   36.4120   30.4020   42.1920 H   0  0  0  0  0  0  0  0  0  0  0  0
   38.8960   23.9970   41.9350 C   0  0  0  0  0  0  0  0  0  0  0  0
   39.1740   25.3580   42.0910 C   0  0  0  0  0  0  0  0  0  0  0  0
   38.2340   26.2720   41.6680 C   0  0  0  0  0  0  0  0  0  0  0  0
   37.0740   25.7780   41.1130 N   0  0  0  0  0  0  0  0  0  0  0  0
   36.8350   24.4610   40.9780 C   0  0  0  0  0  0  0  0  0  0  0  0
   37.7520   23.5730   41.3910 N   0  0  0  0  0  0  0  0  0  0  0  0
   39.7250   23.3780   42.3110 H   0  0  0  0  0  0  0  0  0  0  0  0
   40.0500   25.8150   42.5110 H   0  0  0  0  0  0  0  0  0  0  0  0
   35.9060   24.1130   40.5350 H   0  0  0  0  0  0  0  0  0  0  0  0
   36.2040   28.0370   42.9550 O   0  0  0  0  0  0  0  0  0  0  0  0
   36.8870   27.6340   43.5650 H   0  0  0  0  0  0  0  0  0  0  0  0
   37.7400   30.1610   40.6100 O   0  0  0  0  0  0  0  0  0  0  0  0
   38.0400   32.4970   40.7080 C   0  0  1  0  0  0  0  0  0  0  0  0
   37.1630   31.3070   40.0610 C   0  0  1  0  0  0  0  0  0  0  0  0
   37.5740   31.4500   38.7880 O   0  0  0  0  0  0  0  0  0  0  0  0
   38.9740   31.2600   38.9610 C   0  0  0  0  0  0  0  0  0  0  0  0
   39.3100   32.3760   39.9270 C   0  0  1  0  0  0  0  0  0  0  0  0
   38.0710   32.3120   41.7630 H   0  0  0  0  0  0  0  0  0  0  0  0
   36.1850   31.5760   40.4510 H   0  0  0  0  0  0  0  0  0  0  0  0
   39.2130   30.2630   39.3340 H   0  0  0  0  0  0  0  0  0  0  0  0
   39.4700   31.4090   37.9680 H   0  0  0  0  0  0  0  0  0  0  0  0
   40.1700   32.0350   40.5370 H   0  0  0  0  0  0  0  0  0  0  0  0
   37.3960   33.6660   40.2930 O   0  0  0  0  0  0  0  0  0  0  0  0
   36.8530   34.0590   41.0120 H   0  0  0  0  0  0  0  0  0  0  0  0
   39.5900   33.5120   39.1960 O   0  0  0  0  0  0  0  0  0  0  0  0
   40.8150   34.0750   39.4510 C   0  0  0  0  0  3  0  0  0  0  0  0
   41.7300   34.1590   38.2510 C   0  0  0  0  0  2  0  0  0  0  0  0
   42.6540   32.9740   38.3360 C   0  0  0  0  0  2  0  0  0  0  0  0
   42.7830   32.6990   39.8020 C   0  0  0  0  0  2  0  0  0  0  0  0
   41.6380   33.3680   40.4980 C   0  0  0  0  0  2  0  0  0  0  0  0
  1  6  1  6  0  0  0
  1  5  1  0  0  0  0
  1 20  1  0  0  0  0
  2  7  1  6  0  0  0
  2  1  1  0  0  0  0
  2  3  1  0  0  0  0
  4  3  1  0  0  0  0
  4  8  1  0  0  0  0
  5 10  1  1  0  0  0
  5  4  1  0  0  0  0
  9  4  1  0  0  0  0
 11 12  1  0  0  0  0
 11 17  1  0  0  0  0
 12 18  1  0  0  0  0
 13  2  1  0  0  0  0
 13 12  2  0  0  0  0
 14 13  1  0  0  0  0
 15 14  2  0  0  0  0
 15 16  1  0  0  0  0
 16 11  2  0  0  0  0
 19 15  1  0  0  0  0
 20 21  1  0  0  0  0
 22  5  1  0  0  0  0
 23 28  1  1  0  0  0
 24 29  1  1  0  0  0
 24 22  1  0  0  0  0
 24 23  1  0  0  0  0
 25 26  1  0  0  0  0
 25 24  1  0  0  0  0
 26 30  1  0  0  0  0
 26 27  1  0  0  0  0
 27 32  1  1  0  0  0
 27 23  1  0  0  0  0
 31 26  1  0  0  0  0
 33 23  1  0  0  0  0
 33 34  1  0  0  0  0
 35 36  1  0  0  0  0
 35 27  1  0  0  0  0
 36 40  1  0  0  0  0
 37 38  1  0  0  0  0
 37 36  1  0  0  0  0
 38 39  1  0  0  0  0
 39 40  1  0  0  0  0
M  END
>  <minimizedAffinity>
-5.60903358

$$$$

 OpenBabel03242516363D

 40 43  0  0  1  0  0  0  0  0999 V2000
   36.9750   25.4550   41.2630 C   0  0  2  0  0  0  0  0  0  0  0  0
   38.3920   25.4110   40.6330 C   0  0  1  0  0  0  0  0  0  0  0  0
   39.1330   25.2940   41.7730 O   0  0  0  0  0  0  0  0  0  0  0  0
   38.6560   26.3360   42.5940 C   0  0  0  0  0  0  0  0  0  0  0  0
   37.2290   26.6780   42.1180 C   0  0  1  0  0  0  0  0  0  0  0  0
   36.2130   25.5980   40.4890 H   0  0  0  0  0  0  0  0  0  0  0  0
   38.4450   26.3820   40.0990 H   0  0  0  0  0  0  0  0  0  0  0  0
   38.6650   26.0590   43.6540 H   0  0  0  0  0  0  0  0  0  0  0  0
   39.2840   27.2200   42.4120 H   0  0  0  0  0  0  0  0  0  0  0  0
   36.5040   26.7420   42.9470 H   0  0  0  0  0  0  0  0  0  0  0  0
   37.9190   22.5050   38.2270 C   0  0  0  0  0  0  0  0  0  0  0  0
   37.5340   23.4970   39.1340 C   0  0  0  0  0  0  0  0  0  0  0  0
   38.5120   24.2940   39.6880 C   0  0  0  0  0  0  0  0  0  0  0  0
   39.8150   24.0550   39.3080 N   0  0  0  0  0  0  0  0  0  0  0  0
   40.1530   23.0920   38.4310 C   0  0  0  0  0  0  0  0  0  0  0  0
   39.1980   22.3180   37.8930 N   0  0  0  0  0  0  0  0  0  0  0  0
   37.0460   21.9420   37.8620 H   0  0  0  0  0  0  0  0  0  0  0  0
   36.5450   23.7400   39.4760 H   0  0  0  0  0  0  0  0  0  0  0  0
   41.1920   22.9380   38.1580 H   0  0  0  0  0  0  0  0  0  0  0  0
   36.7910   24.4070   42.1200 O   0  0  0  0  0  0  0  0  0  0  0  0
   37.6650   23.9320   42.2210 H   0  0  0  0  0  0  0  0  0  0  0  0
   37.3080   27.7990   41.3470 O   0  0  0  0  0  0  0  0  0  0  0  0
   36.7340   30.0830   41.4300 C   0  0  1  0  0  0  0  0  0  0  0  0
   36.1550   28.5820   41.3080 C   0  0  1  0  0  0  0  0  0  0  0  0
   35.7100   28.6630   40.0400 O   0  0  0  0  0  0  0  0  0  0  0  0
   36.9250   28.9900   39.3760 C   0  0  0  0  0  0  0  0  0  0  0  0
   37.3010   30.2850   40.0610 C   0  0  1  0  0  0  0  0  0  0  0  0
   37.4060   30.0820   42.2650 H   0  0  0  0  0  0  0  0  0  0  0  0
   35.5370   28.5570   42.2020 H   0  0  0  0  0  0  0  0  0  0  0  0
   37.6750   28.2020   39.4730 H   0  0  0  0  0  0  0  0  0  0  0  0
   36.6970   29.1460   38.2910 H   0  0  0  0  0  0  0  0  0  0  0  0
   38.4080   30.3540   40.0500 H   0  0  0  0  0  0  0  0  0  0  0  0
   35.5950   30.8860   41.5400 O   0  0  0  0  0  0  0  0  0  0  0  0
   35.4400   31.1740   42.4670 H   0  0  0  0  0  0  0  0  0  0  0  0
   36.6940   31.3240   39.3860 O   0  0  0  0  0  0  0  0  0  0  0  0
   37.5550   32.2630   38.8750 C   0  0  0  0  0  3  0  0  0  0  0  0
   39.0000   32.0740   39.2770 C   0  0  0  0  0  2  0  0  0  0  0  0
   39.2440   33.0010   40.4370 C   0  0  0  0  0  2  0  0  0  0  0  0
   38.3030   34.1440   40.2130 C   0  0  0  0  0  2  0  0  0  0  0  0
   37.2450   33.6880   39.2560 C   0  0  0  0  0  2  0  0  0  0  0  0
  1  6  1  6  0  0  0
  1  5  1  0  0  0  0
  1 20  1  0  0  0  0
  2  7  1  6  0  0  0
  2  1  1  0  0  0  0
  2  3  1  0  0  0  0
  3  4  1  0  0  0  0
  4  8  1  0  0  0  0
  5  4  1  0  0  0  0
  5 10  1  1  0  0  0
  9  4  1  0  0  0  0
 11 12  1  0  0  0  0
 12 18  1  0  0  0  0
 12 13  2  0  0  0  0
 13  2  1  0  0  0  0
 14 13  1  0  0  0  0
 15 14  2  0  0  0  0
 16 11  2  0  0  0  0
 16 15  1  0  0  0  0
 17 11  1  0  0  0  0
 19 15  1  0  0  0  0
 20 21  1  0  0  0  0
 22  5  1  0  0  0  0
 23 33  1  0  0  0  0
 23 28  1  1  0  0  0
 24 22  1  0  0  0  0
 24 23  1  0  0  0  0
 24 29  1  1  0  0  0
 25 24  1  0  0  0  0
 26 30  1  0  0  0  0
 26 25  1  0  0  0  0
 26 27  1  0  0  0  0
 27 32  1  1  0  0  0
 27 23  1  0  0  0  0
 31 26  1  0  0  0  0
 33 34  1  0  0  0  0
 35 27  1  0  0  0  0
 36 40  1  0  0  0  0
 36 37  1  0  0  0  0
 36 35  1  0  0  0  0
 37 38  1  0  0  0  0
 39 38  1  0  0  0  0
 40 39  1  0  0  0  0
M  END
>  <minimizedAffinity>
-5.40847778

$$$$

 OpenBabel03242516363D

 40 43  0  0  1  0  0  0  0  0999 V2000
   37.3920   28.4840   35.9240 C   0  0  2  0  0  0  0  0  0  0  0  0
   36.4280   27.3120   36.2450 C   0  0  1  0  0  0  0  0  0  0  0  0
   35.2790   27.8250   35.7180 O   0  0  0  0  0  0  0  0  0  0  0  0
   35.1910   29.1110   36.2900 C   0  0  0  0  0  0  0  0  0  0  0  0
   36.6190   29.5300   36.6970 C   0  0  1  0  0  0  0  0  0  0  0  0
   38.3930   28.2800   36.3210 H   0  0  0  0  0  0  0  0  0  0  0  0
   36.4880   27.2490   37.3510 H   0  0  0  0  0  0  0  0  0  0  0  0
   34.7460   29.8370   35.6010 H   0  0  0  0  0  0  0  0  0  0  0  0
   34.5980   29.0280   37.2120 H   0  0  0  0  0  0  0  0  0  0  0  0
   36.8800   30.5480   36.3620 H   0  0  0  0  0  0  0  0  0  0  0  0
   38.1650   24.0800   35.2440 C   0  0  0  0  0  0  0  0  0  0  0  0
   37.9440   25.2410   35.9910 C   0  0  0  0  0  0  0  0  0  0  0  0
   36.8980   26.0620   35.6310 C   0  0  0  0  0  0  0  0  0  0  0  0
   36.1350   25.6810   34.5490 N   0  0  0  0  0  0  0  0  0  0  0  0
   36.3730   24.5560   33.8500 C   0  0  0  0  0  0  0  0  0  0  0  0
   37.3920   23.7580   34.2030 N   0  0  0  0  0  0  0  0  0  0  0  0
   39.0260   23.5160   35.6340 H   0  0  0  0  0  0  0  0  0  0  0  0
   38.4920   25.6010   36.8410 H   0  0  0  0  0  0  0  0  0  0  0  0
   35.7470   24.2920   33.0030 H   0  0  0  0  0  0  0  0  0  0  0  0
   37.3140   28.8310   34.6050 O   0  0  0  0  0  0  0  0  0  0  0  0
   36.5610   28.3180   34.1940 H   0  0  0  0  0  0  0  0  0  0  0  0
   36.7420   29.3280   38.0400 O   0  0  0  0  0  0  0  0  0  0  0  0
   35.9730   30.0210   40.1570 C   0  0  1  0  0  0  0  0  0  0  0  0
   36.7510   30.4840   38.8210 C   0  0  1  0  0  0  0  0  0  0  0  0
   37.9700   30.6460   39.3680 O   0  0  0  0  0  0  0  0  0  0  0  0
   38.1870   29.3340   39.8730 C   0  0  0  0  0  0  0  0  0  0  0  0
   37.0170   29.1810   40.8210 C   0  0  1  0  0  0  0  0  0  0  0  0
   35.0690   29.5480   39.8330 H   0  0  0  0  0  0  0  0  0  0  0  0
   36.0850   31.2790   38.4950 H   0  0  0  0  0  0  0  0  0  0  0  0
   38.2160   28.5850   39.0800 H   0  0  0  0  0  0  0  0  0  0  0  0
   39.1650   29.3290   40.4180 H   0  0  0  0  0  0  0  0  0  0  0  0
   36.7590   28.1040   40.8540 H   0  0  0  0  0  0  0  0  0  0  0  0
   35.8370   31.1960   40.9020 O   0  0  0  0  0  0  0  0  0  0  0  0
   34.9260   31.5630   40.8410 H   0  0  0  0  0  0  0  0  0  0  0  0
   37.3900   29.6790   42.0530 O   0  0  0  0  0  0  0  0  0  0  0  0
   37.4270   28.7520   43.0640 C   0  0  0  0  0  3  0  0  0  0  0  0
   38.8010   28.1940   43.3560 C   0  0  0  0  0  2  0  0  0  0  0  0
   38.8900   26.8800   42.6290 C   0  0  0  0  0  2  0  0  0  0  0  0
   37.4820   26.3740   42.5870 C   0  0  0  0  0  2  0  0  0  0  0  0
   36.5690   27.5330   42.8430 C   0  0  0  0  0  2  0  0  0  0  0  0
  1  2  1  0  0  0  0
  1  6  1  1  0  0  0
  1  5  1  0  0  0  0
  2  7  1  1  0  0  0
  3  2  1  0  0  0  0
  3  4  1  0  0  0  0
  4  5  1  0  0  0  0
  4  9  1  0  0  0  0
  5 10  1  6  0  0  0
  5 22  1  0  0  0  0
  8  4  1  0  0  0  0
 11 17  1  0  0  0  0
 11 12  1  0  0  0  0
 12 18  1  0  0  0  0
 13 12  2  0  0  0  0
 13  2  1  0  0  0  0
 14 13  1  0  0  0  0
 15 16  1  0  0  0  0
 15 14  2  0  0  0  0
 16 11  2  0  0  0  0
 19 15  1  0  0  0  0
 20  1  1  0  0  0  0
 21 20  1  0  0  0  0
 22 24  1  0  0  0  0
 23 28  1  6  0  0  0
 23 27  1  0  0  0  0
 23 33  1  0  0  0  0
 24 29  1  6  0  0  0
 24 25  1  0  0  0  0
 24 23  1  0  0  0  0
 25 26  1  0  0  0  0
 26 31  1  0  0  0  0
 26 27  1  0  0  0  0
 27 32  1  1  0  0  0
 27 35  1  0  0  0  0
 30 26  1  0  0  0  0
 34 33  1  0  0  0  0
 35 36  1  0  0  0  0
 36 37  1  0  0  0  0
 38 37  1  0  0  0  0
 39 38  1  0  0  0  0
 39 40  1  0  0  0  0
 40 36  1  0  0  0  0
M  END
>  <minimizedAffinity>
-5.37515688

$$$$

 OpenBabel03242516363D

 40 43  0  0  1  0  0  0  0  0999 V2000
   36.3540   28.9490   39.6900 C   0  0  2  0  0  0  0  0  0  0  0  0
   37.2820   28.1740   40.6610 C   0  0  1  0  0  0  0  0  0  0  0  0
   36.9840   28.8310   41.8190 O   0  0  0  0  0  0  0  0  0  0  0  0
   37.1380   30.1920   41.4830 C   0  0  0  0  0  0  0  0  0  0  0  0
   36.9620   30.3090   39.9540 C   0  0  1  0  0  0  0  0  0  0  0  0
   36.4830   28.5900   38.6630 H   0  0  0  0  0  0  0  0  0  0  0  0
   38.2860   28.3550   40.2260 H   0  0  0  0  0  0  0  0  0  0  0  0
   36.4220   30.8290   42.0140 H   0  0  0  0  0  0  0  0  0  0  0  0
   38.1720   30.4810   41.7170 H   0  0  0  0  0  0  0  0  0  0  0  0
   36.2720   31.1180   39.6620 H   0  0  0  0  0  0  0  0  0  0  0  0
   36.3520   24.5710   39.8760 C   0  0  0  0  0  0  0  0  0  0  0  0
   36.5620   25.9290   39.6160 C   0  0  0  0  0  0  0  0  0  0  0  0
   36.9690   26.7390   40.6540 C   0  0  0  0  0  0  0  0  0  0  0  0
   37.1410   26.1500   41.8880 N   0  0  0  0  0  0  0  0  0  0  0  0
   36.9330   24.8390   42.1050 C   0  0  0  0  0  0  0  0  0  0  0  0
   36.5360   24.0520   41.0930 N   0  0  0  0  0  0  0  0  0  0  0  0
   36.0310   24.0400   38.9670 H   0  0  0  0  0  0  0  0  0  0  0  0
   36.4480   26.4550   38.6880 H   0  0  0  0  0  0  0  0  0  0  0  0
   37.0810   24.4150   43.0940 H   0  0  0  0  0  0  0  0  0  0  0  0
   35.0750   28.9900   40.1690 O   0  0  0  0  0  0  0  0  0  0  0  0
   35.0780   28.6090   41.0930 H   0  0  0  0  0  0  0  0  0  0  0  0
   38.2050   30.3980   39.4020 O   0  0  0  0  0  0  0  0  0  0  0  0
   39.3870   31.8340   37.9540 C   0  0  1  0  0  0  0  0  0  0  0  0
   38.2360   30.7070   38.0420 C   0  0  1  0  0  0  0  0  0  0  0  0
   38.8850   29.7340   37.3750 O   0  0  0  0  0  0  0  0  0  0  0  0
   40.0410   29.6050   38.1960 C   0  0  0  0  0  0  0  0  0  0  0  0
   40.6190   31.0020   38.1180 C   0  0  1  0  0  0  0  0  0  0  0  0
   39.1580   32.5600   38.7080 H   0  0  0  0  0  0  0  0  0  0  0  0
   37.3940   31.2840   37.6700 H   0  0  0  0  0  0  0  0  0  0  0  0
   39.7950   29.2820   39.2090 H   0  0  0  0  0  0  0  0  0  0  0  0
   40.7190   28.8500   37.7250 H   0  0  0  0  0  0  0  0  0  0  0  0
   41.1520   31.1900   39.0710 H   0  0  0  0  0  0  0  0  0  0  0  0
   39.3440   32.2710   36.6270 O   0  0  0  0  0  0  0  0  0  0  0  0
   38.8850   33.1360   36.5420 H   0  0  0  0  0  0  0  0  0  0  0  0
   41.4500   31.0660   37.0180 O   0  0  0  0  0  0  0  0  0  0  0  0
   42.5160   30.2030   37.0490 C   0  0  0  0  0  3  0  0  0  0  0  0
   43.7650   30.7690   37.6830 C   0  0  0  0  0  2  0  0  0  0  0  0
   44.6380   31.2440   36.5530 C   0  0  0  0  0  2  0  0  0  0  0  0
   44.2960   30.3450   35.4060 C   0  0  0  0  0  2  0  0  0  0  0  0
   42.9740   29.7060   35.7010 C   0  0  0  0  0  2  0  0  0  0  0  0
  1  6  1  6  0  0  0
  1  5  1  0  0  0  0
  1 20  1  0  0  0  0
  1  2  1  0  0  0  0
  2  7  1  6  0  0  0
  2  3  1  0  0  0  0
  4  9  1  0  0  0  0
  4  3  1  0  0  0  0
  4  8  1  0  0  0  0
  5 10  1  6  0  0  0
  5  4  1  0  0  0  0
 11 16  1  0  0  0  0
 12 11  2  0  0  0  0
 12 13  1  0  0  0  0
 13  2  1  0  0  0  0
 13 14  2  0  0  0  0
 14 15  1  0  0  0  0
 15 19  1  0  0  0  0
 16 15  2  0  0  0  0
 17 11  1  0  0  0  0
 18 12  1  0  0  0  0
 20 21  1  0  0  0  0
 22  5  1  0  0  0  0
 23 24  1  0  0  0  0
 23 27  1  0  0  0  0
 23 28  1  1  0  0  0
 24 29  1  6  0  0  0
 24 22  1  0  0  0  0
 25 24  1  0  0  0  0
 25 26  1  0  0  0  0
 26 30  1  0  0  0  0
 27 26  1  0  0  0  0
 27 32  1  1  0  0  0
 31 26  1  0  0  0  0
 33 23  1  0  0  0  0
 34 33  1  0  0  0  0
 35 36  1  0  0  0  0
 35 27  1  0  0  0  0
 36 37  1  0  0  0  0
 38 37  1  0  0  0  0
 39 40  1  0  0  0  0
 39 38  1  0  0  0  0
 40 36  1  0  0  0  0
M  END
>  <minimizedAffinity>
-5.33715343

$$$$

 OpenBabel03242516363D

 40 43  0  0  1  0  0  0  0  0999 V2000
   38.2820   31.0660   38.5800 C   0  0  2  0  0  0  0  0  0  0  0  0
   36.9400   30.4010   38.9840 C   0  0  1  0  0  0  0  0  0  0  0  0
   36.3270   31.4770   39.5570 O   0  0  0  0  0  0  0  0  0  0  0  0
   37.2850   31.9630   40.4710 C   0  0  0  0  0  0  0  0  0  0  0  0
   38.6690   31.4880   39.9810 C   0  0  1  0  0  0  0  0  0  0  0  0
   38.9570   30.3310   38.1290 H   0  0  0  0  0  0  0  0  0  0  0  0
   37.2720   29.5920   39.6670 H   0  0  0  0  0  0  0  0  0  0  0  0
   37.2490   33.0550   40.5590 H   0  0  0  0  0  0  0  0  0  0  0  0
   37.0970   31.4830   41.4420 H   0  0  0  0  0  0  0  0  0  0  0  0
   39.4190   32.2960   39.9620 H   0  0  0  0  0  0  0  0  0  0  0  0
   34.5780   28.8370   36.4480 C   0  0  0  0  0  0  0  0  0  0  0  0
   35.0040   29.2780   37.7040 C   0  0  0  0  0  0  0  0  0  0  0  0
   36.2570   29.8400   37.8110 C   0  0  0  0  0  0  0  0  0  0  0  0
   37.0130   29.9290   36.6620 N   0  0  0  0  0  0  0  0  0  0  0  0
   36.5730   29.4960   35.4670 C   0  0  0  0  0  0  0  0  0  0  0  0
   35.3520   28.9490   35.3650 N   0  0  0  0  0  0  0  0  0  0  0  0
   33.5640   28.4100   36.5010 H   0  0  0  0  0  0  0  0  0  0  0  0
   34.4750   29.2410   38.6380 H   0  0  0  0  0  0  0  0  0  0  0  0
   37.2010   29.5850   34.5850 H   0  0  0  0  0  0  0  0  0  0  0  0
   38.0620   32.2130   37.8710 O   0  0  0  0  0  0  0  0  0  0  0  0
   37.0810   32.4050   37.8900 H   0  0  0  0  0  0  0  0  0  0  0  0
   39.0220   30.4060   40.7310 O   0  0  0  0  0  0  0  0  0  0  0  0
   37.8640   29.1550   42.3590 C   0  0  1  0  0  0  0  0  0  0  0  0
   38.7220   30.4960   42.0900 C   0  0  1  0  0  0  0  0  0  0  0  0
   39.8080   30.1630   42.8120 O   0  0  0  0  0  0  0  0  0  0  0  0
   40.1820   28.9590   42.1500 C   0  0  0  0  0  0  0  0  0  0  0  0
   38.9390   28.1160   42.3390 C   0  0  1  0  0  0  0  0  0  0  0  0
   37.1090   29.1220   41.6000 H   0  0  0  0  0  0  0  0  0  0  0  0
   37.9780   31.2400   42.3610 H   0  0  0  0  0  0  0  0  0  0  0  0
   40.4490   29.1280   41.1060 H   0  0  0  0  0  0  0  0  0  0  0  0
   41.0620   28.5260   42.6880 H   0  0  0  0  0  0  0  0  0  0  0  0
   38.8720   27.4310   41.4710 H   0  0  0  0  0  0  0  0  0  0  0  0
   37.4240   29.2850   43.6790 O   0  0  0  0  0  0  0  0  0  0  0  0
   36.4800   29.5580   43.7240 H   0  0  0  0  0  0  0  0  0  0  0  0
   39.0490   27.4470   43.5410 O   0  0  0  0  0  0  0  0  0  0  0  0
   39.1060   26.0800   43.4380 C   0  0  0  0  0  3  0  0  0  0  0  0
   40.4820   25.4910   43.6490 C   0  0  0  0  0  2  0  0  0  0  0  0
   41.0620   25.2630   42.2800 C   0  0  0  0  0  2  0  0  0  0  0  0
   39.8760   25.0040   41.4040 C   0  0  0  0  0  2  0  0  0  0  0  0
   38.6610   25.5210   42.1110 C   0  0  0  0  0  2  0  0  0  0  0  0
  1  6  1  6  0  0  0
  1  2  1  0  0  0  0
  1  5  1  0  0  0  0
  2  3  1  0  0  0  0
  2  7  1  1  0  0  0
  3  4  1  0  0  0  0
  4  8  1  0  0  0  0
  4  9  1  0  0  0  0
  5 10  1  1  0  0  0
  5  4  1  0  0  0  0
  5 22  1  0  0  0  0
 11 17  1  0  0  0  0
 11 12  1  0  0  0  0
 12 13  2  0  0  0  0
 12 18  1  0  0  0  0
 13  2  1  0  0  0  0
 14 13  1  0  0  0  0
 15 14  2  0  0  0  0
 16 15  1  0  0  0  0
 16 11  2  0  0  0  0
 19 15  1  0  0  0  0
 20 21  1  0  0  0  0
 20  1  1  0  0  0  0
 22 24  1  0  0  0  0
 23 28  1  6  0  0  0
 23 33  1  0  0  0  0
 24 23  1  0  0  0  0
 24 29  1  1  0  0  0
 24 25  1  0  0  0  0
 26 27  1  0  0  0  0
 26 31  1  0  0  0  0
 26 25  1  0  0  0  0
 27 32  1  6  0  0  0
 27 23  1  0  0  0  0
 27 35  1  0  0  0  0
 30 26  1  0  0  0  0
 33 34  1  0  0  0  0
 36 35  1  0  0  0  0
 36 37  1  0  0  0  0
 38 37  1  0  0  0  0
 39 40  1  0  0  0  0
 39 38  1  0  0  0  0
 40 36  1  0  0  0  0
M  END
>  <minimizedAffinity>
-5.28519106

$$$$
