
 OpenBabel03252507553D

 40 43  0  0  1  0  0  0  0  0999 V2000
   47.0180   34.8040   41.9500 C   0  0  2  0  0  0  0  0  0  0  0  0
   46.2300   34.2100   40.7830 C   0  0  0  0  0  0  0  0  0  0  0  0
   47.4210   34.0170   39.8180 C   0  0  0  0  0  0  0  0  0  0  0  0
   48.5550   33.5870   40.6960 C   0  0  1  0  0  0  0  0  0  0  0  0
   48.0660   33.7350   42.1060 C   0  0  0  0  0  0  0  0  0  0  0  0
   47.4240   35.7530   41.6070 H   0  0  0  0  0  0  0  0  0  0  0  0
   45.5030   34.9060   40.3760 H   0  0  0  0  0  0  0  0  0  0  0  0
   45.8770   33.2290   41.0960 H   0  0  0  0  0  0  0  0  0  0  0  0
   47.1410   33.2760   39.0520 H   0  0  0  0  0  0  0  0  0  0  0  0
   47.5890   35.0250   39.3990 H   0  0  0  0  0  0  0  0  0  0  0  0
   49.4110   34.2680   40.5020 H   0  0  0  0  0  0  0  0  0  0  0  0
   47.6730   32.8320   42.5660 H   0  0  0  0  0  0  0  0  0  0  0  0
   48.9070   34.1920   42.7010 H   0  0  0  0  0  0  0  0  0  0  0  0
   44.5300   36.0010   44.5120 C   0  0  0  0  0  0  0  0  0  0  0  0
   45.2520   35.9690   43.3250 C   0  0  0  0  0  0  0  0  0  0  0  0
   46.1680   34.9340   43.1680 C   0  0  0  0  0  0  0  0  0  0  0  0
   46.3370   33.9790   44.1800 N   0  0  0  0  0  0  0  0  0  0  0  0
   45.6030   34.0640   45.3190 C   0  0  0  0  0  0  0  0  0  0  0  0
   44.7040   35.0730   45.4800 N   0  0  0  0  0  0  0  0  0  0  0  0
   43.8090   36.7960   44.6620 H   0  0  0  0  0  0  0  0  0  0  0  0
   45.1440   36.6890   42.5280 H   0  0  0  0  0  0  0  0  0  0  0  0
   45.8110   33.2800   46.0340 H   0  0  0  0  0  0  0  0  0  0  0  0
   48.9810   32.1480   40.5160 C   0  0  2  0  0  0  0  0  0  0  0  0
   49.8460   31.6050   41.5580 C   0  0  0  0  0  0  0  0  0  0  0  0
   50.3560   31.7870   40.1690 C   0  0  1  0  0  0  0  0  0  0  0  0
   48.1780   31.5000   40.1230 H   0  0  0  0  0  0  0  0  0  0  0  0
   50.2250   32.2870   42.3530 H   0  0  0  0  0  0  0  0  0  0  0  0
   49.6530   30.5830   41.9490 H   0  0  0  0  0  0  0  0  0  0  0  0
   51.0690   32.5890   39.8970 H   0  0  0  0  0  0  0  0  0  0  0  0
   50.5420   30.6290   39.3740 O   0  0  0  0  0  0  0  0  0  0  0  0
   51.5590   30.0460   37.0440 O   0  0  0  0  0  0  0  0  0  0  0  0
   51.7210   30.9690   38.2250 P   0  0  1  0  0  0  0  0  0  0  0  0
   51.5430   32.5770   37.6560 O   0  0  0  0  0  0  0  0  0  0  0  0
   51.9170   33.1510   38.3890 H   0  0  0  0  0  0  0  0  0  0  0  0
   53.2780   30.8290   38.7910 O   0  0  0  0  0  0  0  0  0  0  0  0
   53.3250   29.6640   39.5780 C   0  0  0  0  0  3  0  0  0  0  0  0
   53.8180   29.9660   40.9680 C   0  0  0  0  0  2  0  0  0  0  0  0
   55.1960   29.3380   41.0580 C   0  0  0  0  0  2  0  0  0  0  0  0
   55.6150   29.1120   39.6220 C   0  0  0  0  0  2  0  0  0  0  0  0
   54.3080   28.6650   39.0030 C   0  0  0  0  0  2  0  0  0  0  0  0
  1  6  1  6  0  0  0
  1  5  1  0  0  0  0
  1 16  1  0  0  0  0
  2  8  1  0  0  0  0
  2  1  1  0  0  0  0
  3  4  1  0  0  0  0
  3  2  1  0  0  0  0
  4 11  1  6  0  0  0
  4  5  1  0  0  0  0
  5 12  1  0  0  0  0
  5 13  1  0  0  0  0
  7  2  1  0  0  0  0
  9  3  1  0  0  0  0
 10  3  1  0  0  0  0
 14 20  1  0  0  0  0
 14 19  1  0  0  0  0
 15 14  2  0  0  0  0
 16 15  1  0  0  0  0
 16 17  2  0  0  0  0
 17 18  1  0  0  0  0
 18 19  2  0  0  0  0
 18 22  1  0  0  0  0
 21 15  1  0  0  0  0
 23 26  1  6  0  0  0
 23  4  1  0  0  0  0
 23 24  1  0  0  0  0
 24 28  1  0  0  0  0
 24 27  1  0  0  0  0
 25 29  1  6  0  0  0
 25 23  1  0  0  0  0
 25 24  1  0  0  0  0
 30 25  1  0  0  0  0
 32 31  2  6  0  0  0
 32 35  1  0  0  0  0
 32 30  1  0  0  0  0
 33 32  1  0  0  0  0
 33 34  1  0  0  0  0
 35 36  1  0  0  0  0
 36 37  1  0  0  0  0
 37 38  1  0  0  0  0
 39 38  1  0  0  0  0
 40 36  1  0  0  0  0
 40 39  1  0  0  0  0
M  END
>  <minimizedAffinity>
-4.96708584

>  <minimizedRMSD>
0.751237869

$$$$
