
 OpenBabel03252503343D

 18 19  0  0  0  0  0  0  0  0999 V2000
   44.4620   35.9440   44.8760 C   0  0  0  0  0  0  0  0  0  0  0  0
   45.0370   35.8790   43.6000 C   0  0  0  0  0  0  0  0  0  0  0  0
   45.8970   34.8270   43.2960 C   0  0  0  0  0  0  0  0  0  0  0  0
   46.1560   33.8870   44.2480 N   0  0  0  0  0  0  0  0  0  0  0  0
   45.5740   33.9850   45.4800 C   0  0  0  0  0  0  0  0  0  0  0  0
   44.7390   35.0040   45.7830 N   0  0  0  0  0  0  0  0  0  0  0  0
   43.8230   36.8050   44.9670 H   0  0  0  0  0  0  0  0  0  0  0  0
   44.9000   36.5670   42.7790 H   0  0  0  0  0  0  0  0  0  0  0  0
   45.7500   33.2650   46.2640 H   0  0  0  0  0  0  0  0  0  0  0  0
   45.9680   33.8780   41.0000 C   0  0  0  0  0  0  0  0  0  0  0  0
   44.9160   33.2400   41.3530 O   0  0  0  0  0  0  0  0  0  0  0  0
   46.5190   34.6960   42.0220 N   0  0  0  0  0  0  0  0  0  0  0  0
   47.4150   35.2580   41.9200 H   0  0  0  0  0  0  0  0  0  0  0  0
   46.6320   33.8530   39.7020 C   0  0  0  0  0  3  0  0  0  0  0  0
   46.9400   32.4740   39.1650 C   0  0  0  0  0  2  0  0  0  0  0  0
   47.7030   32.8710   37.8920 C   0  0  0  0  0  2  0  0  0  0  0  0
   48.4520   34.1510   38.2560 C   0  0  0  0  0  2  0  0  0  0  0  0
   48.0100   34.4620   39.6920 C   0  0  0  0  0  2  0  0  0  0  0  0
  1  7  1  0  0  0  0
  1  6  1  0  0  0  0
  2  1  2  0  0  0  0
  3  2  1  0  0  0  0
  3  4  2  0  0  0  0
  4  5  1  0  0  0  0
  5  6  2  0  0  0  0
  5  9  1  0  0  0  0
  8  2  1  0  0  0  0
 10 11  2  0  0  0  0
 10 12  1  0  0  0  0
 12  3  1  0  0  0  0
 13 12  1  0  0  0  0
 14 10  1  0  0  0  0
 15 14  1  0  0  0  0
 16 17  1  0  0  0  0
 16 15  1  0  0  0  0
 17 18  1  0  0  0  0
 18 14  1  0  0  0  0
M  END
>  <minimizedAffinity>
-4.07092905

>  <minimizedRMSD>
0.548460782

$$$$
