
 OpenBabel03252507583D

 23 25  0  0  1  0  0  0  0  0999 V2000
   46.4370   32.6360   45.6890 C   0  0  1  0  0  0  0  0  0  0  0  0
   47.1180   32.9580   46.9830 C   0  0  0  0  0  0  0  0  0  0  0  0
   45.6420   32.7590   46.9510 C   0  0  2  0  0  0  0  0  0  0  0  0
   46.6420   31.6450   45.2430 H   0  0  0  0  0  0  0  0  0  0  0  0
   47.7640   32.1550   47.3870 H   0  0  0  0  0  0  0  0  0  0  0  0
   47.5840   33.9490   47.0080 H   0  0  0  0  0  0  0  0  0  0  0  0
   45.0460   33.6940   47.1260 H   0  0  0  0  0  0  0  0  0  0  0  0
   46.7350   34.8670   42.7890 C   0  0  0  0  0  0  0  0  0  0  0  0
   45.6450   35.7530   42.9530 C   0  0  0  0  0  0  0  0  0  0  0  0
   44.7990   35.5720   44.0760 C   0  0  0  0  0  0  0  0  0  0  0  0
   45.0970   34.5490   44.9230 N   0  0  0  0  0  0  0  0  0  0  0  0
   46.1660   33.7320   44.7000 C   0  0  0  0  0  0  0  0  0  0  0  0
   46.9700   33.8820   43.6590 N   0  0  0  0  0  0  0  0  0  0  0  0
   45.4110   36.5660   42.2780 H   0  0  0  0  0  0  0  0  0  0  0  0
   43.9500   36.2170   44.2550 H   0  0  0  0  0  0  0  0  0  0  0  0
   47.5180   35.1490   41.6360 C   0  0  0  0  0  0  0  0  0  0  0  0
   48.6220   35.7770   41.6360 O   0  0  0  0  0  0  0  0  0  0  0  0
   47.3220   34.8870   40.5850 H   0  0  0  0  0  0  0  0  0  0  0  0
   45.1340   31.5700   47.6830 C   0  0  0  0  0  3  0  0  0  0  0  0
   45.4610   31.5790   49.1560 C   0  0  0  0  0  2  0  0  0  0  0  0
   45.0620   30.1560   49.5560 C   0  0  0  0  0  2  0  0  0  0  0  0
   44.9600   29.3530   48.2860 C   0  0  0  0  0  2  0  0  0  0  0  0
   45.6640   30.2440   47.2530 C   0  0  0  0  0  2  0  0  0  0  0  0
  1  4  1  6  0  0  0
  1  3  1  0  0  0  0
  1  2  1  0  0  0  0
  2  6  1  0  0  0  0
  2  5  1  0  0  0  0
  3  2  1  0  0  0  0
  3  7  1  1  0  0  0
  3 19  1  0  0  0  0
  8  9  2  0  0  0  0
  8 13  1  0  0  0  0
  9 10  1  0  0  0  0
 10 15  1  0  0  0  0
 10 11  2  0  0  0  0
 12 11  1  0  0  0  0
 12  1  1  0  0  0  0
 13 12  2  0  0  0  0
 14  9  1  0  0  0  0
 16  8  1  0  0  0  0
 17 16  2  0  0  0  0
 18 16  1  0  0  0  0
 19 20  1  0  0  0  0
 20 21  1  0  0  0  0
 22 21  1  0  0  0  0
 23 19  1  0  0  0  0
 23 22  1  0  0  0  0
M  END
>  <minimizedAffinity>
-4.53503084

>  <minimizedRMSD>
1.034235

$$$$
