
 OpenBabel03252504053D

 15 16  0  0  0  0  0  0  0  0999 V2000
   36.9690   32.0180   39.6530 C   0  0  0  0  0  0  0  0  0  0  0  0
   36.7040   31.1150   40.6930 C   0  0  0  0  0  0  0  0  0  0  0  0
   37.6750   30.1380   40.9500 C   0  0  0  0  0  0  0  0  0  0  0  0
   38.8030   30.1170   40.1920 N   0  0  0  0  0  0  0  0  0  0  0  0
   39.0210   31.0100   39.1930 C   0  0  0  0  0  0  0  0  0  0  0  0
   38.0850   31.9640   38.9340 N   0  0  0  0  0  0  0  0  0  0  0  0
   36.1670   32.7530   39.5080 H   0  0  0  0  0  0  0  0  0  0  0  0
   39.9330   30.9630   38.6090 H   0  0  0  0  0  0  0  0  0  0  0  0
   37.4430   29.1650   42.0330 C   0  0  0  0  0  3  0  0  0  0  0  0
   36.9030   27.8460   41.5830 C   0  0  0  0  0  2  0  0  0  0  0  0
   37.1080   26.9670   42.7980 C   0  0  0  0  0  2  0  0  0  0  0  0
   38.1340   27.6790   43.6790 C   0  0  0  0  0  2  0  0  0  0  0  0
   38.7040   28.7740   42.7680 C   0  0  0  0  0  2  0  0  0  0  0  0
   35.5540   31.1320   41.4690 O   0  0  0  0  0  0  0  0  0  0  0  0
   35.4820   31.6160   42.3700 H   0  0  0  0  0  0  0  0  0  0  0  0
  1  2  1  0  0  0  0
  2  3  2  0  0  0  0
  2 14  1  0  0  0  0
  3  9  1  0  0  0  0
  4  3  1  0  0  0  0
  5  4  2  0  0  0  0
  6  5  1  0  0  0  0
  6  1  2  0  0  0  0
  7  1  1  0  0  0  0
  8  5  1  0  0  0  0
  9 13  1  0  0  0  0
 10  9  1  0  0  0  0
 10 11  1  0  0  0  0
 11 12  1  0  0  0  0
 13 12  1  0  0  0  0
 14 15  1  0  0  0  0
M  END
>  <minimizedAffinity>
-4.5669651

$$$$

 OpenBabel03252504053D

 15 16  0  0  0  0  0  0  0  0999 V2000
   38.5130   32.6530   39.8550 C   0  0  0  0  0  0  0  0  0  0  0  0
   37.7070   31.7870   40.6080 C   0  0  0  0  0  0  0  0  0  0  0  0
   38.3370   30.6820   41.1950 C   0  0  0  0  0  0  0  0  0  0  0  0
   39.6720   30.5100   41.0080 N   0  0  0  0  0  0  0  0  0  0  0  0
   40.4170   31.3730   40.2710 C   0  0  0  0  0  0  0  0  0  0  0  0
   39.8170   32.4510   39.6960 N   0  0  0  0  0  0  0  0  0  0  0  0
   37.9540   33.4950   39.4250 H   0  0  0  0  0  0  0  0  0  0  0  0
   41.4800   31.2040   40.1440 H   0  0  0  0  0  0  0  0  0  0  0  0
   37.5320   29.7420   41.9960 C   0  0  0  0  0  3  0  0  0  0  0  0
   37.0810   28.5210   41.2600 C   0  0  0  0  0  2  0  0  0  0  0  0
   36.6200   27.6080   42.3760 C   0  0  0  0  0  2  0  0  0  0  0  0
   37.2380   28.1510   43.6640 C   0  0  0  0  0  2  0  0  0  0  0  0
   38.2830   29.1610   43.1720 C   0  0  0  0  0  2  0  0  0  0  0  0
   36.3430   31.9580   40.8010 O   0  0  0  0  0  0  0  0  0  0  0  0
   35.9400   32.4400   41.6110 H   0  0  0  0  0  0  0  0  0  0  0  0
  1  2  1  0  0  0  0
  2 14  1  0  0  0  0
  2  3  2  0  0  0  0
  3  9  1  0  0  0  0
  4  3  1  0  0  0  0
  5  4  2  0  0  0  0
  6  1  2  0  0  0  0
  6  5  1  0  0  0  0
  7  1  1  0  0  0  0
  8  5  1  0  0  0  0
  9 13  1  0  0  0  0
 10  9  1  0  0  0  0
 10 11  1  0  0  0  0
 11 12  1  0  0  0  0
 13 12  1  0  0  0  0
 14 15  1  0  0  0  0
M  END
>  <minimizedAffinity>
-4.19468498

$$$$

 OpenBabel03252504053D

 15 16  0  0  0  0  0  0  0  0999 V2000
   39.1350   33.2840   40.5870 C   0  0  0  0  0  0  0  0  0  0  0  0
   37.8900   32.7540   40.2170 C   0  0  0  0  0  0  0  0  0  0  0  0
   37.8000   31.3610   40.1040 C   0  0  0  0  0  0  0  0  0  0  0  0
   38.9020   30.6080   40.3550 N   0  0  0  0  0  0  0  0  0  0  0  0
   40.0910   31.1600   40.7120 C   0  0  0  0  0  0  0  0  0  0  0  0
   40.1910   32.5130   40.8250 N   0  0  0  0  0  0  0  0  0  0  0  0
   39.1330   34.3790   40.6550 H   0  0  0  0  0  0  0  0  0  0  0  0
   40.9490   30.5280   40.9050 H   0  0  0  0  0  0  0  0  0  0  0  0
   36.5110   30.7570   39.7170 C   0  0  0  0  0  3  0  0  0  0  0  0
   36.5250   30.0480   38.4010 C   0  0  0  0  0  2  0  0  0  0  0  0
   35.2400   29.2480   38.4370 C   0  0  0  0  0  2  0  0  0  0  0  0
   34.8110   29.1850   39.9030 C   0  0  0  0  0  2  0  0  0  0  0  0
   36.0440   29.6800   40.6690 C   0  0  0  0  0  2  0  0  0  0  0  0
   36.7610   33.5200   39.9590 O   0  0  0  0  0  0  0  0  0  0  0  0
   36.0450   33.7330   40.6610 H   0  0  0  0  0  0  0  0  0  0  0  0
  1  7  1  0  0  0  0
  1  6  1  0  0  0  0
  2  1  2  0  0  0  0
  3  2  1  0  0  0  0
  3  4  2  0  0  0  0
  4  5  1  0  0  0  0
  5  6  2  0  0  0  0
  5  8  1  0  0  0  0
  9  3  1  0  0  0  0
  9 13  1  0  0  0  0
 10 11  1  0  0  0  0
 10  9  1  0  0  0  0
 11 12  1  0  0  0  0
 12 13  1  0  0  0  0
 14  2  1  0  0  0  0
 14 15  1  0  0  0  0
M  END
>  <minimizedAffinity>
-4.09845924

$$$$

 OpenBabel03252504053D

 15 16  0  0  0  0  0  0  0  0999 V2000
   39.0900   32.8890   40.8010 C   0  0  0  0  0  0  0  0  0  0  0  0
   39.4510   31.8050   41.6140 C   0  0  0  0  0  0  0  0  0  0  0  0
   38.5220   30.7630   41.7330 C   0  0  0  0  0  0  0  0  0  0  0  0
   37.3420   30.8550   41.0660 N   0  0  0  0  0  0  0  0  0  0  0  0
   37.0310   31.9230   40.2870 C   0  0  0  0  0  0  0  0  0  0  0  0
   37.9260   32.9410   40.1630 N   0  0  0  0  0  0  0  0  0  0  0  0
   39.8640   33.6670   40.7540 H   0  0  0  0  0  0  0  0  0  0  0  0
   36.0810   31.9610   39.7690 H   0  0  0  0  0  0  0  0  0  0  0  0
   38.8550   29.6010   42.5780 C   0  0  0  0  0  3  0  0  0  0  0  0
   37.6750   28.9200   43.1950 C   0  0  0  0  0  2  0  0  0  0  0  0
   38.2590   27.6090   43.6760 C   0  0  0  0  0  2  0  0  0  0  0  0
   39.5780   27.4210   42.9270 C   0  0  0  0  0  2  0  0  0  0  0  0
   39.5240   28.4790   41.8180 C   0  0  0  0  0  2  0  0  0  0  0  0
   40.6550   31.7070   42.2990 O   0  0  0  0  0  0  0  0  0  0  0  0
   41.4810   31.2270   41.9300 H   0  0  0  0  0  0  0  0  0  0  0  0
  1  2  1  0  0  0  0
  2  3  2  0  0  0  0
  2 14  1  0  0  0  0
  3  9  1  0  0  0  0
  4  3  1  0  0  0  0
  5  4  2  0  0  0  0
  6  5  1  0  0  0  0
  6  1  2  0  0  0  0
  7  1  1  0  0  0  0
  8  5  1  0  0  0  0
  9 10  1  0  0  0  0
 10 11  1  0  0  0  0
 12 11  1  0  0  0  0
 13  9  1  0  0  0  0
 13 12  1  0  0  0  0
 15 14  1  0  0  0  0
M  END
>  <minimizedAffinity>
-3.93221045

$$$$

 OpenBabel03252504053D

 15 16  0  0  0  0  0  0  0  0999 V2000
   37.3180   29.5380   42.4220 C   0  0  0  0  0  0  0  0  0  0  0  0
   36.5230   29.8940   41.3220 C   0  0  0  0  0  0  0  0  0  0  0  0
   36.6150   29.0840   40.1840 C   0  0  0  0  0  0  0  0  0  0  0  0
   37.4520   28.0150   40.2030 N   0  0  0  0  0  0  0  0  0  0  0  0
   38.2050   27.7030   41.2890 C   0  0  0  0  0  0  0  0  0  0  0  0
   38.1250   28.4830   42.4020 N   0  0  0  0  0  0  0  0  0  0  0  0
   37.1960   30.2160   43.2770 H   0  0  0  0  0  0  0  0  0  0  0  0
   38.8620   26.8420   41.2690 H   0  0  0  0  0  0  0  0  0  0  0  0
   35.8000   29.4180   39.0010 C   0  0  0  0  0  3  0  0  0  0  0  0
   36.4840   29.1980   37.6890 C   0  0  0  0  0  2  0  0  0  0  0  0
   35.3400   29.2630   36.7000 C   0  0  0  0  0  2  0  0  0  0  0  0
   34.0570   29.0610   37.5070 C   0  0  0  0  0  2  0  0  0  0  0  0
   34.5550   28.5700   38.8720 C   0  0  0  0  0  2  0  0  0  0  0  0
   35.6670   30.9870   41.2970 O   0  0  0  0  0  0  0  0  0  0  0  0
   34.6700   30.9330   41.5290 H   0  0  0  0  0  0  0  0  0  0  0  0
  1  7  1  0  0  0  0
  2  1  2  0  0  0  0
  3  4  2  0  0  0  0
  3  2  1  0  0  0  0
  4  5  1  0  0  0  0
  5  6  2  0  0  0  0
  6  1  1  0  0  0  0
  8  5  1  0  0  0  0
  9  3  1  0  0  0  0
 10  9  1  0  0  0  0
 11 12  1  0  0  0  0
 11 10  1  0  0  0  0
 12 13  1  0  0  0  0
 13  9  1  0  0  0  0
 14  2  1  0  0  0  0
 14 15  1  0  0  0  0
M  END
>  <minimizedAffinity>
-3.91810536

$$$$

 OpenBabel03252504053D

 15 16  0  0  0  0  0  0  0  0999 V2000
   37.1380   27.0240   42.6950 C   0  0  0  0  0  0  0  0  0  0  0  0
   37.1580   28.4230   42.5960 C   0  0  0  0  0  0  0  0  0  0  0  0
   37.2940   28.9680   41.3130 C   0  0  0  0  0  0  0  0  0  0  0  0
   37.3970   28.1290   40.2500 N   0  0  0  0  0  0  0  0  0  0  0  0
   37.3730   26.7780   40.3870 C   0  0  0  0  0  0  0  0  0  0  0  0
   37.2420   26.2370   41.6290 N   0  0  0  0  0  0  0  0  0  0  0  0
   37.0300   26.6680   43.7270 H   0  0  0  0  0  0  0  0  0  0  0  0
   37.4580   26.1400   39.5160 H   0  0  0  0  0  0  0  0  0  0  0  0
   37.3200   30.4350   41.1580 C   0  0  0  0  0  3  0  0  0  0  0  0
   38.6840   31.0430   41.2090 C   0  0  0  0  0  2  0  0  0  0  0  0
   38.4490   32.4400   40.6730 C   0  0  0  0  0  2  0  0  0  0  0  0
   37.1080   32.4020   39.9410 C   0  0  0  0  0  2  0  0  0  0  0  0
   36.7970   30.9050   39.8200 C   0  0  0  0  0  2  0  0  0  0  0  0
   37.0530   29.2850   43.6800 O   0  0  0  0  0  0  0  0  0  0  0  0
   36.1690   29.6900   44.0010 H   0  0  0  0  0  0  0  0  0  0  0  0
  1  7  1  0  0  0  0
  2  1  1  0  0  0  0
  2 14  1  0  0  0  0
  3  2  2  0  0  0  0
  4  5  2  0  0  0  0
  4  3  1  0  0  0  0
  5  6  1  0  0  0  0
  6  1  2  0  0  0  0
  8  5  1  0  0  0  0
  9 10  1  0  0  0  0
  9  3  1  0  0  0  0
 11 10  1  0  0  0  0
 12 11  1  0  0  0  0
 13 12  1  0  0  0  0
 13  9  1  0  0  0  0
 14 15  1  0  0  0  0
M  END
>  <minimizedAffinity>
-3.90705752

$$$$

 OpenBabel03252504053D

 15 16  0  0  0  0  0  0  0  0999 V2000
   38.2230   29.2490   43.2240 C   0  0  0  0  0  0  0  0  0  0  0  0
   37.3910   28.1930   42.8260 C   0  0  0  0  0  0  0  0  0  0  0  0
   37.8510   27.3800   41.7820 C   0  0  0  0  0  0  0  0  0  0  0  0
   39.0590   27.6510   41.2210 N   0  0  0  0  0  0  0  0  0  0  0  0
   39.8350   28.6840   41.6360 C   0  0  0  0  0  0  0  0  0  0  0  0
   39.3990   29.4820   42.6500 N   0  0  0  0  0  0  0  0  0  0  0  0
   37.8000   29.8440   44.0440 H   0  0  0  0  0  0  0  0  0  0  0  0
   40.7930   28.8700   41.1660 H   0  0  0  0  0  0  0  0  0  0  0  0
   37.0120   26.2560   41.3270 C   0  0  0  0  0  3  0  0  0  0  0  0
   36.9330   26.0980   39.8420 C   0  0  0  0  0  2  0  0  0  0  0  0
   36.3410   24.7130   39.6840 C   0  0  0  0  0  2  0  0  0  0  0  0
   36.5380   24.0030   41.0220 C   0  0  0  0  0  2  0  0  0  0  0  0
   37.5210   24.9070   41.7770 C   0  0  0  0  0  2  0  0  0  0  0  0
   36.1570   27.9120   43.3960 O   0  0  0  0  0  0  0  0  0  0  0  0
   36.0220   27.2410   44.1580 H   0  0  0  0  0  0  0  0  0  0  0  0
  1  7  1  0  0  0  0
  2  1  1  0  0  0  0
  2 14  1  0  0  0  0
  3  2  2  0  0  0  0
  4  5  2  0  0  0  0
  4  3  1  0  0  0  0
  5  6  1  0  0  0  0
  6  1  2  0  0  0  0
  8  5  1  0  0  0  0
  9 13  1  0  0  0  0
  9  3  1  0  0  0  0
 10  9  1  0  0  0  0
 11 10  1  0  0  0  0
 11 12  1  0  0  0  0
 12 13  1  0  0  0  0
 14 15  1  0  0  0  0
M  END
>  <minimizedAffinity>
-3.80015278

$$$$

 OpenBabel03252504053D

 15 16  0  0  0  0  0  0  0  0999 V2000
   36.1540   30.0630   40.9520 C   0  0  0  0  0  0  0  0  0  0  0  0
   36.6730   29.0450   41.7650 C   0  0  0  0  0  0  0  0  0  0  0  0
   36.8920   27.8000   41.1620 C   0  0  0  0  0  0  0  0  0  0  0  0
   36.5960   27.6460   39.8450 N   0  0  0  0  0  0  0  0  0  0  0  0
   36.0950   28.6580   39.0920 C   0  0  0  0  0  0  0  0  0  0  0  0
   35.8780   29.8730   39.6670 N   0  0  0  0  0  0  0  0  0  0  0  0
   36.0080   31.0090   41.4900 H   0  0  0  0  0  0  0  0  0  0  0  0
   35.8710   28.4990   38.0440 H   0  0  0  0  0  0  0  0  0  0  0  0
   37.4360   26.6970   41.9760 C   0  0  0  0  0  3  0  0  0  0  0  0
   36.9670   25.3350   41.5750 C   0  0  0  0  0  2  0  0  0  0  0  0
   37.9300   24.4210   42.3030 C   0  0  0  0  0  2  0  0  0  0  0  0
   39.1320   25.2800   42.6930 C   0  0  0  0  0  2  0  0  0  0  0  0
   38.9390   26.5700   41.8850 C   0  0  0  0  0  2  0  0  0  0  0  0
   36.9760   29.1970   43.1110 O   0  0  0  0  0  0  0  0  0  0  0  0
   37.9080   29.4420   43.4600 H   0  0  0  0  0  0  0  0  0  0  0  0
  1  7  1  0  0  0  0
  1  2  1  0  0  0  0
  2 14  1  0  0  0  0
  3  2  2  0  0  0  0
  3  9  1  0  0  0  0
  4  3  1  0  0  0  0
  5  6  1  0  0  0  0
  5  4  2  0  0  0  0
  6  1  2  0  0  0  0
  8  5  1  0  0  0  0
 10  9  1  0  0  0  0
 10 11  1  0  0  0  0
 11 12  1  0  0  0  0
 13  9  1  0  0  0  0
 13 12  1  0  0  0  0
 14 15  1  0  0  0  0
M  END
>  <minimizedAffinity>
-3.79909778

$$$$

 OpenBabel03252504053D

 15 16  0  0  0  0  0  0  0  0999 V2000
   39.4390   31.4070   39.1200 C   0  0  0  0  0  0  0  0  0  0  0  0
   39.2320   30.2400   39.8700 C   0  0  0  0  0  0  0  0  0  0  0  0
   38.2030   30.2690   40.8190 C   0  0  0  0  0  0  0  0  0  0  0  0
   37.4710   31.4040   40.9610 N   0  0  0  0  0  0  0  0  0  0  0  0
   37.7030   32.5140   40.2140 C   0  0  0  0  0  0  0  0  0  0  0  0
   38.7010   32.4980   39.2880 N   0  0  0  0  0  0  0  0  0  0  0  0
   40.2610   31.3120   38.3970 H   0  0  0  0  0  0  0  0  0  0  0  0
   37.0980   33.4020   40.3540 H   0  0  0  0  0  0  0  0  0  0  0  0
   37.9460   29.0660   41.6340 C   0  0  0  0  0  3  0  0  0  0  0  0
   38.0780   29.2720   43.1090 C   0  0  0  0  0  2  0  0  0  0  0  0
   37.4250   28.0310   43.6800 C   0  0  0  0  0  2  0  0  0  0  0  0
   36.5790   27.4310   42.5570 C   0  0  0  0  0  2  0  0  0  0  0  0
   36.5370   28.5390   41.4970 C   0  0  0  0  0  2  0  0  0  0  0  0
   39.9780   29.0770   39.7290 O   0  0  0  0  0  0  0  0  0  0  0  0
   39.7040   28.2950   39.1280 H   0  0  0  0  0  0  0  0  0  0  0  0
  1  6  2  0  0  0  0
  1  2  1  0  0  0  0
  2  3  2  0  0  0  0
  3  4  1  0  0  0  0
  3  9  1  0  0  0  0
  5  8  1  0  0  0  0
  5  4  2  0  0  0  0
  6  5  1  0  0  0  0
  7  1  1  0  0  0  0
  9 10  1  0  0  0  0
 10 11  1  0  0  0  0
 12 11  1  0  0  0  0
 13  9  1  0  0  0  0
 13 12  1  0  0  0  0
 14  2  1  0  0  0  0
 15 14  1  0  0  0  0
M  END
>  <minimizedAffinity>
-3.65644264

$$$$
