
 OpenBabel03252504513D

 30 32  0  0  0  0  0  0  0  0999 V2000
   46.7390   32.3100   42.9250 C   0  0  0  0  0  0  0  0  0  0  0  0
   47.0440   33.4800   43.6360 C   0  0  0  0  0  0  0  0  0  0  0  0
   48.1070   34.2620   43.1570 C   0  0  0  0  0  0  0  0  0  0  0  0
   48.7590   33.8300   42.0420 N   0  0  0  0  0  0  0  0  0  0  0  0
   48.4400   32.7130   41.3930 C   0  0  0  0  0  0  0  0  0  0  0  0
   47.4290   31.9540   41.8370 N   0  0  0  0  0  0  0  0  0  0  0  0
   45.9310   31.6520   43.2310 H   0  0  0  0  0  0  0  0  0  0  0  0
   48.3850   35.1690   43.6620 H   0  0  0  0  0  0  0  0  0  0  0  0
   47.3030   33.6990   38.7410 Cl  0  0  0  0  0  0  0  0  0  0  0  0
   48.7470   32.7080   38.9560 C   0  0  0  0  0  0  0  0  0  0  0  0
   49.1860   32.3090   40.2020 C   0  0  0  0  0  0  0  0  0  0  0  0
   50.3180   31.5350   40.3360 C   0  0  0  0  0  0  0  0  0  0  0  0
   51.0310   31.1480   39.2140 C   0  0  0  0  0  0  0  0  0  0  0  0
   50.5630   31.5650   37.9940 C   0  0  0  0  0  0  0  0  0  0  0  0
   51.4670   31.0740   36.5750 Cl  0  0  0  0  0  0  0  0  0  0  0  0
   49.4450   32.3330   37.8210 C   0  0  0  0  0  0  0  0  0  0  0  0
   50.6820   31.2090   41.3090 H   0  0  0  0  0  0  0  0  0  0  0  0
   51.9200   30.5400   39.3260 H   0  0  0  0  0  0  0  0  0  0  0  0
   49.1020   32.6440   36.8530 H   0  0  0  0  0  0  0  0  0  0  0  0
   46.2760   33.8440   44.8180 C   0  0  0  0  0  0  0  0  0  0  0  0
   46.8960   34.4760   45.4660 H   0  0  0  0  0  0  0  0  0  0  0  0
   45.3380   34.3830   44.5840 H   0  0  0  0  0  0  0  0  0  0  0  0
   45.8690   32.5530   45.5220 C   0  0  0  0  0  0  0  0  0  0  0  0
   44.8540   32.6100   45.9170 H   0  0  0  0  0  0  0  0  0  0  0  0
   45.8730   31.7160   44.7940 H   0  0  0  0  0  0  0  0  0  0  0  0
   46.9290   32.2480   46.5420 C   0  0  0  0  0  3  0  0  0  0  0  0
   46.4240   32.2960   47.9680 C   0  0  0  0  0  2  0  0  0  0  0  0
   47.6210   31.6800   48.7040 C   0  0  0  0  0  2  0  0  0  0  0  0
   47.9830   30.5230   47.8240 C   0  0  0  0  0  2  0  0  0  0  0  0
   47.4340   30.8270   46.4470 C   0  0  0  0  0  2  0  0  0  0  0  0
  1  7  1  0  0  0  0
  1  2  1  0  0  0  0
  2 20  1  0  0  0  0
  3  2  2  0  0  0  0
  3  8  1  0  0  0  0
  4  3  1  0  0  0  0
  5  6  1  0  0  0  0
  5  4  2  0  0  0  0
  6  1  2  0  0  0  0
  9 10  1  0  0  0  0
 10 11  1  0  0  0  0
 11 12  2  0  0  0  0
 11  5  1  0  0  0  0
 12 17  1  0  0  0  0
 13 18  1  0  0  0  0
 13 12  1  0  0  0  0
 14 13  2  0  0  0  0
 15 14  1  0  0  0  0
 16 14  1  0  0  0  0
 16 10  2  0  0  0  0
 19 16  1  0  0  0  0
 20 21  1  0  0  0  0
 20 23  1  0  0  0  0
 22 20  1  0  0  0  0
 23 24  1  0  0  0  0
 23 26  1  0  0  0  0
 25 23  1  0  0  0  0
 26 27  1  0  0  0  0
 27 28  1  0  0  0  0
 29 28  1  0  0  0  0
 30 26  1  0  0  0  0
 30 29  1  0  0  0  0
M  END
>  <minimizedAffinity>
-4.2446866

>  <minimizedRMSD>
8.20973015

$$$$
