
 OpenBabel03252501303D

 34 36  0  0  0  0  0  0  0  0999 V2000
   37.2250   30.3610   41.2770 C   0  0  0  0  0  0  0  0  0  0  0  0
   38.4230   30.0680   41.8670 C   0  0  0  0  0  0  0  0  0  0  0  0
   38.7270   28.8540   42.3970 C   0  0  0  0  0  0  0  0  0  0  0  0
   37.7860   27.8690   42.3380 C   0  0  0  0  0  0  0  0  0  0  0  0
   36.5670   28.1420   41.7430 C   0  0  0  0  0  0  0  0  0  0  0  0
   36.2830   29.3860   41.2120 C   0  0  0  0  0  0  0  0  0  0  0  0
   39.1340   30.9110   41.8800 H   0  0  0  0  0  0  0  0  0  0  0  0
   39.7170   28.7850   42.8280 H   0  0  0  0  0  0  0  0  0  0  0  0
   35.9450   27.2400   41.7880 H   0  0  0  0  0  0  0  0  0  0  0  0
   34.8690   28.9070   39.3080 C   0  0  0  0  0  0  0  0  0  0  0  0
   35.6210   28.6740   38.2930 O   0  0  0  0  0  0  0  0  0  0  0  0
   34.9540   29.2980   40.6850 N   0  0  0  0  0  0  0  0  0  0  0  0
   34.0280   28.6680   38.6610 H   0  0  0  0  0  0  0  0  0  0  0  0
   33.9990   29.4550   41.0750 H   0  0  0  0  0  0  0  0  0  0  0  0
   38.1980   26.5540   42.9460 C   0  0  0  0  0  3  0  0  0  0  0  0
   39.5220   26.6550   43.6690 C   0  0  0  0  0  2  0  0  0  0  0  0
   40.1470   25.2650   43.5290 C   0  0  0  0  0  2  0  0  0  0  0  0
   39.1610   24.4550   42.7150 C   0  0  0  0  0  2  0  0  0  0  0  0
   38.5130   25.5630   41.8740 C   0  0  0  0  0  2  0  0  0  0  0  0
   36.7670   31.6240   40.6750 C   0  0  0  0  0  0  0  0  0  0  0  0
   35.6580   31.7150   40.7740 H   0  0  0  0  0  0  0  0  0  0  0  0
   37.1550   32.5160   41.2290 H   0  0  0  0  0  0  0  0  0  0  0  0
   37.2380   31.7660   39.2520 C   0  0  0  0  0  0  0  0  0  0  0  0
   36.5290   32.4400   38.7270 H   0  0  0  0  0  0  0  0  0  0  0  0
   37.2750   30.7950   38.7020 H   0  0  0  0  0  0  0  0  0  0  0  0
   40.6840   32.7300   38.4600 C   0  0  0  0  0  0  0  0  0  0  0  0
   40.9180   33.8090   39.3480 C   0  0  0  0  0  0  0  0  0  0  0  0
   39.8580   34.1600   40.1910 C   0  0  0  0  0  0  0  0  0  0  0  0
   38.7010   33.4850   40.1290 N   0  0  0  0  0  0  0  0  0  0  0  0
   38.5430   32.4610   39.2570 C   0  0  0  0  0  0  0  0  0  0  0  0
   39.5000   32.0860   38.4400 N   0  0  0  0  0  0  0  0  0  0  0  0
   41.5020   32.4520   37.8020 H   0  0  0  0  0  0  0  0  0  0  0  0
   41.8580   34.3410   39.3830 H   0  0  0  0  0  0  0  0  0  0  0  0
   39.9590   34.9800   40.9030 H   0  0  0  0  0  0  0  0  0  0  0  0
  1  2  1  0  0  0  0
  2  7  1  0  0  0  0
  2  3  2  0  0  0  0
  3  8  1  0  0  0  0
  4  3  1  0  0  0  0
  4 15  1  0  0  0  0
  5  9  1  0  0  0  0
  5  4  2  0  0  0  0
  6  1  2  0  0  0  0
  6  5  1  0  0  0  0
 10 12  1  0  0  0  0
 11 10  2  0  0  0  0
 12 14  1  0  0  0  0
 12  6  1  0  0  0  0
 13 10  1  0  0  0  0
 15 16  1  0  0  0  0
 17 16  1  0  0  0  0
 18 17  1  0  0  0  0
 19 18  1  0  0  0  0
 19 15  1  0  0  0  0
 20 21  1  0  0  0  0
 20 22  1  0  0  0  0
 20  1  1  0  0  0  0
 23 30  1  0  0  0  0
 23 20  1  0  0  0  0
 24 23  1  0  0  0  0
 25 23  1  0  0  0  0
 26 27  1  0  0  0  0
 27 33  1  0  0  0  0
 27 28  2  0  0  0  0
 28 34  1  0  0  0  0
 29 28  1  0  0  0  0
 30 29  2  0  0  0  0
 31 26  2  0  0  0  0
 31 30  1  0  0  0  0
 32 26  1  0  0  0  0
M  END
>  <minimizedAffinity>
-5.78337669

$$$$

 OpenBabel03252501303D

 34 36  0  0  0  0  0  0  0  0999 V2000
   38.8990   28.9790   42.6730 C   0  0  0  0  0  0  0  0  0  0  0  0
   39.5580   27.7830   42.7220 C   0  0  0  0  0  0  0  0  0  0  0  0
   38.9770   26.5870   42.4360 C   0  0  0  0  0  0  0  0  0  0  0  0
   37.6620   26.5770   42.0790 C   0  0  0  0  0  0  0  0  0  0  0  0
   36.9740   27.7770   42.0220 C   0  0  0  0  0  0  0  0  0  0  0  0
   37.5890   28.9790   42.3170 C   0  0  0  0  0  0  0  0  0  0  0  0
   40.6170   27.8670   43.0180 H   0  0  0  0  0  0  0  0  0  0  0  0
   39.6360   25.7340   42.5220 H   0  0  0  0  0  0  0  0  0  0  0  0
   35.9390   27.5730   41.7190 H   0  0  0  0  0  0  0  0  0  0  0  0
   36.2770   30.3160   40.7860 C   0  0  0  0  0  0  0  0  0  0  0  0
   36.6700   30.0630   39.5880 O   0  0  0  0  0  0  0  0  0  0  0  0
   36.5880   29.9880   42.1460 N   0  0  0  0  0  0  0  0  0  0  0  0
   35.5210   30.9560   40.3360 H   0  0  0  0  0  0  0  0  0  0  0  0
   36.0080   30.5640   42.7970 H   0  0  0  0  0  0  0  0  0  0  0  0
   37.0910   25.2170   41.7790 C   0  0  0  0  0  3  0  0  0  0  0  0
   38.1560   24.1430   41.7810 C   0  0  0  0  0  2  0  0  0  0  0  0
   37.6620   23.1030   40.7730 C   0  0  0  0  0  2  0  0  0  0  0  0
   36.3580   23.6490   40.2330 C   0  0  0  0  0  2  0  0  0  0  0  0
   36.6060   25.1570   40.3690 C   0  0  0  0  0  2  0  0  0  0  0  0
   39.4010   30.3330   42.9620 C   0  0  0  0  0  0  0  0  0  0  0  0
   38.5710   31.0760   42.8690 H   0  0  0  0  0  0  0  0  0  0  0  0
   39.7310   30.4370   44.0260 H   0  0  0  0  0  0  0  0  0  0  0  0
   40.5920   30.6790   42.1080 C   0  0  0  0  0  0  0  0  0  0  0  0
   40.7170   29.8690   41.3590 H   0  0  0  0  0  0  0  0  0  0  0  0
   41.5400   30.7690   42.6920 H   0  0  0  0  0  0  0  0  0  0  0  0
   40.9380   33.7130   40.0830 C   0  0  0  0  0  0  0  0  0  0  0  0
   39.5990   34.1590   39.9570 C   0  0  0  0  0  0  0  0  0  0  0  0
   38.6240   33.3780   40.5860 C   0  0  0  0  0  0  0  0  0  0  0  0
   38.9810   32.2750   41.2610 N   0  0  0  0  0  0  0  0  0  0  0  0
   40.2800   31.9050   41.3430 C   0  0  0  0  0  0  0  0  0  0  0  0
   41.2410   32.5960   40.7740 N   0  0  0  0  0  0  0  0  0  0  0  0
   41.7010   34.3140   39.5980 H   0  0  0  0  0  0  0  0  0  0  0  0
   39.3320   35.0510   39.4090 H   0  0  0  0  0  0  0  0  0  0  0  0
   37.5690   33.6540   40.5350 H   0  0  0  0  0  0  0  0  0  0  0  0
  1  2  1  0  0  0  0
  1 20  1  0  0  0  0
  2  7  1  0  0  0  0
  3  8  1  0  0  0  0
  3  2  2  0  0  0  0
  4  3  1  0  0  0  0
  5  4  2  0  0  0  0
  5  6  1  0  0  0  0
  6  1  2  0  0  0  0
  9  5  1  0  0  0  0
 10 12  1  0  0  0  0
 11 10  2  0  0  0  0
 12  6  1  0  0  0  0
 12 14  1  0  0  0  0
 13 10  1  0  0  0  0
 15 16  1  0  0  0  0
 15  4  1  0  0  0  0
 17 16  1  0  0  0  0
 18 19  1  0  0  0  0
 18 17  1  0  0  0  0
 19 15  1  0  0  0  0
 20 22  1  0  0  0  0
 21 20  1  0  0  0  0
 23 25  1  0  0  0  0
 23 20  1  0  0  0  0
 24 23  1  0  0  0  0
 26 31  1  0  0  0  0
 27 26  2  0  0  0  0
 27 28  1  0  0  0  0
 28 29  2  0  0  0  0
 29 30  1  0  0  0  0
 30 23  1  0  0  0  0
 31 30  2  0  0  0  0
 32 26  1  0  0  0  0
 33 27  1  0  0  0  0
 34 28  1  0  0  0  0
M  END
>  <minimizedAffinity>
-5.76271534

$$$$

 OpenBabel03252501303D

 34 36  0  0  0  0  0  0  0  0999 V2000
   36.2180   28.7290   40.5340 C   0  0  0  0  0  0  0  0  0  0  0  0
   36.1410   27.7890   39.5460 C   0  0  0  0  0  0  0  0  0  0  0  0
   36.4890   26.4850   39.7140 C   0  0  0  0  0  0  0  0  0  0  0  0
   36.9400   26.0900   40.9380 C   0  0  0  0  0  0  0  0  0  0  0  0
   37.0260   27.0250   41.9540 C   0  0  0  0  0  0  0  0  0  0  0  0
   36.6650   28.3450   41.7560 C   0  0  0  0  0  0  0  0  0  0  0  0
   35.7680   28.1790   38.5840 H   0  0  0  0  0  0  0  0  0  0  0  0
   36.3700   25.8690   38.8330 H   0  0  0  0  0  0  0  0  0  0  0  0
   37.4050   26.5290   42.8560 H   0  0  0  0  0  0  0  0  0  0  0  0
   38.2380   29.3370   43.3050 C   0  0  0  0  0  0  0  0  0  0  0  0
   39.4250   29.1610   42.8440 O   0  0  0  0  0  0  0  0  0  0  0  0
   36.8750   29.0050   43.0100 N   0  0  0  0  0  0  0  0  0  0  0  0
   38.7010   29.9040   44.1080 H   0  0  0  0  0  0  0  0  0  0  0  0
   36.2520   29.3150   43.7890 H   0  0  0  0  0  0  0  0  0  0  0  0
   37.3060   24.6340   41.0440 C   0  0  0  0  0  3  0  0  0  0  0  0
   38.7330   24.3750   40.6170 C   0  0  0  0  0  2  0  0  0  0  0  0
   38.7160   22.9560   40.0440 C   0  0  0  0  0  2  0  0  0  0  0  0
   37.2790   22.4910   40.1510 C   0  0  0  0  0  2  0  0  0  0  0  0
   36.5410   23.8320   40.0440 C   0  0  0  0  0  2  0  0  0  0  0  0
   35.8830   30.1620   40.4850 C   0  0  0  0  0  0  0  0  0  0  0  0
   34.7730   30.2970   40.5090 H   0  0  0  0  0  0  0  0  0  0  0  0
   36.2340   30.7050   41.3990 H   0  0  0  0  0  0  0  0  0  0  0  0
   36.5270   30.8450   39.3080 C   0  0  0  0  0  0  0  0  0  0  0  0
   35.7310   31.3840   38.7530 H   0  0  0  0  0  0  0  0  0  0  0  0
   37.0260   30.1330   38.6060 H   0  0  0  0  0  0  0  0  0  0  0  0
   39.3230   32.5020   41.0010 C   0  0  0  0  0  0  0  0  0  0  0  0
   39.1010   33.8700   40.7060 C   0  0  0  0  0  0  0  0  0  0  0  0
   37.9790   34.1600   39.9220 C   0  0  0  0  0  0  0  0  0  0  0  0
   37.1840   33.1680   39.4960 N   0  0  0  0  0  0  0  0  0  0  0  0
   37.4530   31.8800   39.8150 C   0  0  0  0  0  0  0  0  0  0  0  0
   38.4910   31.5440   40.5460 N   0  0  0  0  0  0  0  0  0  0  0  0
   40.1920   32.2690   41.6090 H   0  0  0  0  0  0  0  0  0  0  0  0
   39.7530   34.6550   41.0590 H   0  0  0  0  0  0  0  0  0  0  0  0
   37.7380   35.1900   39.6510 H   0  0  0  0  0  0  0  0  0  0  0  0
  1  6  1  0  0  0  0
  2  3  1  0  0  0  0
  2  1  2  0  0  0  0
  3  4  2  0  0  0  0
  4 15  1  0  0  0  0
  4  5  1  0  0  0  0
  5  9  1  0  0  0  0
  6  5  2  0  0  0  0
  6 12  1  0  0  0  0
  7  2  1  0  0  0  0
  8  3  1  0  0  0  0
 10 13  1  0  0  0  0
 11 10  2  0  0  0  0
 12 10  1  0  0  0  0
 12 14  1  0  0  0  0
 16 15  1  0  0  0  0
 17 18  1  0  0  0  0
 17 16  1  0  0  0  0
 19 18  1  0  0  0  0
 19 15  1  0  0  0  0
 20 21  1  0  0  0  0
 20  1  1  0  0  0  0
 20 22  1  0  0  0  0
 23 30  1  0  0  0  0
 23 20  1  0  0  0  0
 24 23  1  0  0  0  0
 25 23  1  0  0  0  0
 26 32  1  0  0  0  0
 27 26  1  0  0  0  0
 27 33  1  0  0  0  0
 28 27  2  0  0  0  0
 29 30  2  0  0  0  0
 29 28  1  0  0  0  0
 30 31  1  0  0  0  0
 31 26  2  0  0  0  0
 34 28  1  0  0  0  0
M  END
>  <minimizedAffinity>
-5.66711473

$$$$

 OpenBabel03252501303D

 34 36  0  0  0  0  0  0  0  0999 V2000
   35.9970   28.0530   39.3040 C   0  0  0  0  0  0  0  0  0  0  0  0
   36.6020   26.8340   39.1850 C   0  0  0  0  0  0  0  0  0  0  0  0
   37.1950   26.1800   40.2190 C   0  0  0  0  0  0  0  0  0  0  0  0
   37.1870   26.7730   41.4470 C   0  0  0  0  0  0  0  0  0  0  0  0
   36.5780   28.0070   41.5910 C   0  0  0  0  0  0  0  0  0  0  0  0
   35.9820   28.6490   40.5230 C   0  0  0  0  0  0  0  0  0  0  0  0
   36.5710   26.4160   38.1650 H   0  0  0  0  0  0  0  0  0  0  0  0
   37.6300   25.2240   39.9600 H   0  0  0  0  0  0  0  0  0  0  0  0
   36.6690   28.3220   42.6380 H   0  0  0  0  0  0  0  0  0  0  0  0
   36.4120   30.9420   41.1680 C   0  0  0  0  0  0  0  0  0  0  0  0
   37.6720   31.1660   41.0500 O   0  0  0  0  0  0  0  0  0  0  0  0
   35.4590   29.8780   41.0410 N   0  0  0  0  0  0  0  0  0  0  0  0
   36.3130   31.9910   41.4350 H   0  0  0  0  0  0  0  0  0  0  0  0
   34.5170   30.1970   41.3600 H   0  0  0  0  0  0  0  0  0  0  0  0
   37.8630   25.9880   42.5400 C   0  0  0  0  0  3  0  0  0  0  0  0
   38.9410   26.7920   43.2310 C   0  0  0  0  0  2  0  0  0  0  0  0
   39.9740   25.7540   43.6770 C   0  0  0  0  0  2  0  0  0  0  0  0
   39.4440   24.4200   43.1950 C   0  0  0  0  0  2  0  0  0  0  0  0
   38.6520   24.8620   41.9580 C   0  0  0  0  0  2  0  0  0  0  0  0
   35.3290   28.8660   38.2740 C   0  0  0  0  0  0  0  0  0  0  0  0
   34.3140   28.4530   38.0580 H   0  0  0  0  0  0  0  0  0  0  0  0
   35.1200   29.9050   38.6330 H   0  0  0  0  0  0  0  0  0  0  0  0
   36.1770   29.0030   37.0370 C   0  0  0  0  0  0  0  0  0  0  0  0
   35.5780   29.5440   36.2750 H   0  0  0  0  0  0  0  0  0  0  0  0
   36.4900   28.0210   36.6070 H   0  0  0  0  0  0  0  0  0  0  0  0
   39.5790   30.1800   37.7240 C   0  0  0  0  0  0  0  0  0  0  0  0
   39.3910   31.5670   37.9450 C   0  0  0  0  0  0  0  0  0  0  0  0
   38.0780   32.0380   37.8430 C   0  0  0  0  0  0  0  0  0  0  0  0
   37.0820   31.1900   37.5520 N   0  0  0  0  0  0  0  0  0  0  0  0
   37.3300   29.8740   37.3530 C   0  0  0  0  0  0  0  0  0  0  0  0
   38.5400   29.3720   37.4340 N   0  0  0  0  0  0  0  0  0  0  0  0
   40.5950   29.8070   37.8010 H   0  0  0  0  0  0  0  0  0  0  0  0
   40.2070   32.2350   38.1790 H   0  0  0  0  0  0  0  0  0  0  0  0
   37.8500   33.0940   37.9990 H   0  0  0  0  0  0  0  0  0  0  0  0
  1  6  1  0  0  0  0
  2  1  2  0  0  0  0
  2  3  1  0  0  0  0
  3  4  2  0  0  0  0
  4  5  1  0  0  0  0
  4 15  1  0  0  0  0
  5  9  1  0  0  0  0
  6 12  1  0  0  0  0
  6  5  2  0  0  0  0
  7  2  1  0  0  0  0
  8  3  1  0  0  0  0
 10 13  1  0  0  0  0
 11 10  2  0  0  0  0
 12 10  1  0  0  0  0
 12 14  1  0  0  0  0
 15 16  1  0  0  0  0
 16 17  1  0  0  0  0
 18 17  1  0  0  0  0
 19 15  1  0  0  0  0
 19 18  1  0  0  0  0
 20 22  1  0  0  0  0
 20  1  1  0  0  0  0
 21 20  1  0  0  0  0
 23 30  1  0  0  0  0
 23 20  1  0  0  0  0
 24 23  1  0  0  0  0
 25 23  1  0  0  0  0
 26 32  1  0  0  0  0
 26 27  1  0  0  0  0
 27 33  1  0  0  0  0
 28 27  2  0  0  0  0
 28 34  1  0  0  0  0
 29 28  1  0  0  0  0
 30 31  1  0  0  0  0
 30 29  2  0  0  0  0
 31 26  2  0  0  0  0
M  END
>  <minimizedAffinity>
-5.51974869

$$$$

 OpenBabel03252501303D

 34 36  0  0  0  0  0  0  0  0999 V2000
   36.9960   30.3680   41.0350 C   0  0  0  0  0  0  0  0  0  0  0  0
   36.0870   29.3620   40.8680 C   0  0  0  0  0  0  0  0  0  0  0  0
   36.2540   28.1040   41.3570 C   0  0  0  0  0  0  0  0  0  0  0  0
   37.3930   27.8280   42.0540 C   0  0  0  0  0  0  0  0  0  0  0  0
   38.3270   28.8330   42.2360 C   0  0  0  0  0  0  0  0  0  0  0  0
   38.1320   30.1030   41.7290 C   0  0  0  0  0  0  0  0  0  0  0  0
   35.1920   29.6560   40.2950 H   0  0  0  0  0  0  0  0  0  0  0  0
   35.4430   27.4230   41.1390 H   0  0  0  0  0  0  0  0  0  0  0  0
   39.1670   28.4290   42.8150 H   0  0  0  0  0  0  0  0  0  0  0  0
   40.4520   30.6510   41.3110 C   0  0  0  0  0  0  0  0  0  0  0  0
   40.8790   29.9030   40.3570 O   0  0  0  0  0  0  0  0  0  0  0  0
   39.2820   30.8650   42.1130 N   0  0  0  0  0  0  0  0  0  0  0  0
   41.4280   31.1290   41.2900 H   0  0  0  0  0  0  0  0  0  0  0  0
   39.4830   31.5630   42.8630 H   0  0  0  0  0  0  0  0  0  0  0  0
   37.5050   26.4150   42.5620 C   0  0  0  0  0  3  0  0  0  0  0  0
   38.9410   26.0170   42.8180 C   0  0  0  0  0  2  0  0  0  0  0  0
   38.9790   24.5100   42.5540 C   0  0  0  0  0  2  0  0  0  0  0  0
   37.5730   24.1340   42.1390 C   0  0  0  0  0  2  0  0  0  0  0  0
   37.1080   25.4480   41.4960 C   0  0  0  0  0  2  0  0  0  0  0  0
   36.9430   31.7600   40.5570 C   0  0  0  0  0  0  0  0  0  0  0  0
   35.9590   32.2190   40.8230 H   0  0  0  0  0  0  0  0  0  0  0  0
   37.6880   32.4110   41.0810 H   0  0  0  0  0  0  0  0  0  0  0  0
   37.2510   31.8550   39.0860 C   0  0  0  0  0  0  0  0  0  0  0  0
   36.5520   32.5940   38.6410 H   0  0  0  0  0  0  0  0  0  0  0  0
   37.1280   30.8840   38.5470 H   0  0  0  0  0  0  0  0  0  0  0  0
   40.2780   33.8620   39.5790 C   0  0  0  0  0  0  0  0  0  0  0  0
   41.1290   33.4030   38.5440 C   0  0  0  0  0  0  0  0  0  0  0  0
   40.6100   32.4060   37.7120 C   0  0  0  0  0  0  0  0  0  0  0  0
   39.3700   31.9380   37.9180 N   0  0  0  0  0  0  0  0  0  0  0  0
   38.6080   32.4210   38.9270 C   0  0  0  0  0  0  0  0  0  0  0  0
   39.0390   33.3560   39.7420 N   0  0  0  0  0  0  0  0  0  0  0  0
   40.6730   34.6360   40.2300 H   0  0  0  0  0  0  0  0  0  0  0  0
   42.1250   33.7920   38.3940 H   0  0  0  0  0  0  0  0  0  0  0  0
   41.2040   31.9990   36.8910 H   0  0  0  0  0  0  0  0  0  0  0  0
  1  6  1  0  0  0  0
  2  1  2  0  0  0  0
  2  3  1  0  0  0  0
  3  4  2  0  0  0  0
  4  5  1  0  0  0  0
  4 15  1  0  0  0  0
  5  9  1  0  0  0  0
  6 12  1  0  0  0  0
  6  5  2  0  0  0  0
  7  2  1  0  0  0  0
  8  3  1  0  0  0  0
 10 12  1  0  0  0  0
 11 10  2  0  0  0  0
 12 14  1  0  0  0  0
 13 10  1  0  0  0  0
 15 16  1  0  0  0  0
 17 16  1  0  0  0  0
 18 17  1  0  0  0  0
 19 18  1  0  0  0  0
 19 15  1  0  0  0  0
 20 21  1  0  0  0  0
 20  1  1  0  0  0  0
 20 22  1  0  0  0  0
 23 20  1  0  0  0  0
 24 23  1  0  0  0  0
 25 23  1  0  0  0  0
 26 31  1  0  0  0  0
 26 32  1  0  0  0  0
 27 26  2  0  0  0  0
 28 29  2  0  0  0  0
 28 27  1  0  0  0  0
 29 30  1  0  0  0  0
 30 23  1  0  0  0  0
 30 31  2  0  0  0  0
 33 27  1  0  0  0  0
 34 28  1  0  0  0  0
M  END
>  <minimizedAffinity>
-5.4269824

$$$$

 OpenBabel03252501303D

 34 36  0  0  0  0  0  0  0  0999 V2000
   36.3360   28.1290   40.7330 C   0  0  0  0  0  0  0  0  0  0  0  0
   36.3780   27.1900   39.7420 C   0  0  0  0  0  0  0  0  0  0  0  0
   36.0680   27.4470   38.4430 C   0  0  0  0  0  0  0  0  0  0  0  0
   35.6930   28.7140   38.1080 C   0  0  0  0  0  0  0  0  0  0  0  0
   35.6450   29.6820   39.0950 C   0  0  0  0  0  0  0  0  0  0  0  0
   35.9660   29.3940   40.4080 C   0  0  0  0  0  0  0  0  0  0  0  0
   36.6880   26.1890   40.0860 H   0  0  0  0  0  0  0  0  0  0  0  0
   36.1510   26.5950   37.7830 H   0  0  0  0  0  0  0  0  0  0  0  0
   35.3270   30.6290   38.6420 H   0  0  0  0  0  0  0  0  0  0  0  0
   36.9060   31.5390   41.0160 C   0  0  0  0  0  0  0  0  0  0  0  0
   38.0920   31.6150   40.5250 O   0  0  0  0  0  0  0  0  0  0  0  0
   35.8120   30.6200   41.1320 N   0  0  0  0  0  0  0  0  0  0  0  0
   37.0500   32.5600   41.3600 H   0  0  0  0  0  0  0  0  0  0  0  0
   35.0680   31.0210   41.7450 H   0  0  0  0  0  0  0  0  0  0  0  0
   35.3660   28.9190   36.6520 C   0  0  0  0  0  3  0  0  0  0  0  0
   35.2870   27.6100   35.9000 C   0  0  0  0  0  2  0  0  0  0  0  0
   35.7280   27.9530   34.4750 C   0  0  0  0  0  2  0  0  0  0  0  0
   36.0570   29.4310   34.4960 C   0  0  0  0  0  2  0  0  0  0  0  0
   36.4980   29.5990   35.9570 C   0  0  0  0  0  2  0  0  0  0  0  0
   36.6370   27.9850   42.1680 C   0  0  0  0  0  0  0  0  0  0  0  0
   37.5070   28.6310   42.4430 H   0  0  0  0  0  0  0  0  0  0  0  0
   35.8060   28.3730   42.8100 H   0  0  0  0  0  0  0  0  0  0  0  0
   36.8370   26.5430   42.5520 C   0  0  0  0  0  0  0  0  0  0  0  0
   36.6290   25.9220   41.6550 H   0  0  0  0  0  0  0  0  0  0  0  0
   36.1600   26.2100   43.3760 H   0  0  0  0  0  0  0  0  0  0  0  0
   40.2780   27.1070   43.6790 C   0  0  0  0  0  0  0  0  0  0  0  0
   40.8960   25.8560   43.4350 C   0  0  0  0  0  0  0  0  0  0  0  0
   40.0820   24.8600   42.8850 C   0  0  0  0  0  0  0  0  0  0  0  0
   38.7930   25.1180   42.6190 N   0  0  0  0  0  0  0  0  0  0  0  0
   38.2650   26.3380   42.8760 C   0  0  0  0  0  0  0  0  0  0  0  0
   38.9770   27.3130   43.3920 N   0  0  0  0  0  0  0  0  0  0  0  0
   40.9030   27.8860   44.1050 H   0  0  0  0  0  0  0  0  0  0  0  0
   41.9360   25.6670   43.6560 H   0  0  0  0  0  0  0  0  0  0  0  0
   40.4820   23.8680   42.6680 H   0  0  0  0  0  0  0  0  0  0  0  0
  1 20  1  0  0  0  0
  2  7  1  0  0  0  0
  2  1  2  0  0  0  0
  3  2  1  0  0  0  0
  4  3  2  0  0  0  0
  4  5  1  0  0  0  0
  5  6  2  0  0  0  0
  6  1  1  0  0  0  0
  6 12  1  0  0  0  0
  8  3  1  0  0  0  0
  9  5  1  0  0  0  0
 10 12  1  0  0  0  0
 10 13  1  0  0  0  0
 11 10  2  0  0  0  0
 12 14  1  0  0  0  0
 15  4  1  0  0  0  0
 16 15  1  0  0  0  0
 17 18  1  0  0  0  0
 17 16  1  0  0  0  0
 18 19  1  0  0  0  0
 19 15  1  0  0  0  0
 20 21  1  0  0  0  0
 20 23  1  0  0  0  0
 20 22  1  0  0  0  0
 23 30  1  0  0  0  0
 23 25  1  0  0  0  0
 24 23  1  0  0  0  0
 26 32  1  0  0  0  0
 27 33  1  0  0  0  0
 27 26  1  0  0  0  0
 28 27  2  0  0  0  0
 29 30  2  0  0  0  0
 29 28  1  0  0  0  0
 30 31  1  0  0  0  0
 31 26  2  0  0  0  0
 34 28  1  0  0  0  0
M  END
>  <minimizedAffinity>
-5.35633278

$$$$

 OpenBabel03252501303D

 34 36  0  0  0  0  0  0  0  0999 V2000
   36.5970   28.0810   41.2660 C   0  0  0  0  0  0  0  0  0  0  0  0
   36.6280   26.9850   40.4510 C   0  0  0  0  0  0  0  0  0  0  0  0
   36.0960   26.9590   39.2000 C   0  0  0  0  0  0  0  0  0  0  0  0
   35.4960   28.0890   38.7290 C   0  0  0  0  0  0  0  0  0  0  0  0
   35.4540   29.2110   39.5380 C   0  0  0  0  0  0  0  0  0  0  0  0
   36.0030   29.2110   40.8060 C   0  0  0  0  0  0  0  0  0  0  0  0
   37.1280   26.1090   40.8960 H   0  0  0  0  0  0  0  0  0  0  0  0
   36.2040   26.0150   38.6840 H   0  0  0  0  0  0  0  0  0  0  0  0
   34.9380   30.0140   38.9960 H   0  0  0  0  0  0  0  0  0  0  0  0
   36.6460   31.5440   40.8170 C   0  0  0  0  0  0  0  0  0  0  0  0
   37.6740   31.6850   40.0590 O   0  0  0  0  0  0  0  0  0  0  0  0
   35.7810   30.5240   41.3340 N   0  0  0  0  0  0  0  0  0  0  0  0
   36.6700   32.6240   40.9460 H   0  0  0  0  0  0  0  0  0  0  0  0
   35.1170   30.9320   42.0290 H   0  0  0  0  0  0  0  0  0  0  0  0
   34.9310   27.9800   37.3380 C   0  0  0  0  0  3  0  0  0  0  0  0
   33.7060   28.8470   37.1540 C   0  0  0  0  0  2  0  0  0  0  0  0
   32.8560   28.1050   36.1200 C   0  0  0  0  0  2  0  0  0  0  0  0
   33.6290   26.8460   35.7880 C   0  0  0  0  0  2  0  0  0  0  0  0
   34.3730   26.6150   37.1100 C   0  0  0  0  0  2  0  0  0  0  0  0
   37.1240   28.2420   42.6320 C   0  0  0  0  0  0  0  0  0  0  0  0
   37.0550   29.3130   42.9450 H   0  0  0  0  0  0  0  0  0  0  0  0
   36.4950   27.7060   43.3880 H   0  0  0  0  0  0  0  0  0  0  0  0
   38.5160   27.6850   42.7610 C   0  0  0  0  0  0  0  0  0  0  0  0
   38.7220   27.0780   41.8540 H   0  0  0  0  0  0  0  0  0  0  0  0
   38.6490   27.0340   43.6590 H   0  0  0  0  0  0  0  0  0  0  0  0
   39.9380   31.0630   42.7620 C   0  0  0  0  0  0  0  0  0  0  0  0
   41.3300   30.8160   42.6710 C   0  0  0  0  0  0  0  0  0  0  0  0
   41.7190   29.4730   42.6140 C   0  0  0  0  0  0  0  0  0  0  0  0
   40.7920   28.5050   42.6460 N   0  0  0  0  0  0  0  0  0  0  0  0
   39.4760   28.8100   42.7330 C   0  0  0  0  0  0  0  0  0  0  0  0
   39.0490   30.0500   42.7910 N   0  0  0  0  0  0  0  0  0  0  0  0
   39.6280   32.1020   42.8070 H   0  0  0  0  0  0  0  0  0  0  0  0
   42.0620   31.6100   42.6460 H   0  0  0  0  0  0  0  0  0  0  0  0
   42.7730   29.1990   42.5430 H   0  0  0  0  0  0  0  0  0  0  0  0
  1 20  1  0  0  0  0
  2  7  1  0  0  0  0
  2  1  2  0  0  0  0
  3  2  1  0  0  0  0
  4  3  2  0  0  0  0
  4  5  1  0  0  0  0
  5  6  2  0  0  0  0
  6  1  1  0  0  0  0
  6 12  1  0  0  0  0
  8  3  1  0  0  0  0
  9  5  1  0  0  0  0
 10 13  1  0  0  0  0
 10 12  1  0  0  0  0
 11 10  2  0  0  0  0
 12 14  1  0  0  0  0
 15  4  1  0  0  0  0
 16 15  1  0  0  0  0
 17 16  1  0  0  0  0
 18 17  1  0  0  0  0
 18 19  1  0  0  0  0
 19 15  1  0  0  0  0
 20 23  1  0  0  0  0
 20 21  1  0  0  0  0
 20 22  1  0  0  0  0
 23 25  1  0  0  0  0
 24 23  1  0  0  0  0
 26 31  1  0  0  0  0
 26 32  1  0  0  0  0
 27 26  2  0  0  0  0
 28 29  2  0  0  0  0
 28 27  1  0  0  0  0
 29 30  1  0  0  0  0
 30 23  1  0  0  0  0
 30 31  2  0  0  0  0
 33 27  1  0  0  0  0
 34 28  1  0  0  0  0
M  END
>  <minimizedAffinity>
-5.21013451

$$$$

 OpenBabel03252501303D

 34 36  0  0  0  0  0  0  0  0999 V2000
   34.9820   28.2920   38.3790 C   0  0  0  0  0  0  0  0  0  0  0  0
   35.4110   27.0880   37.8950 C   0  0  0  0  0  0  0  0  0  0  0  0
   36.2210   26.2420   38.5840 C   0  0  0  0  0  0  0  0  0  0  0  0
   36.6310   26.6120   39.8310 C   0  0  0  0  0  0  0  0  0  0  0  0
   36.2080   27.8260   40.3410 C   0  0  0  0  0  0  0  0  0  0  0  0
   35.3840   28.6680   39.6190 C   0  0  0  0  0  0  0  0  0  0  0  0
   35.0410   26.8550   36.8830 H   0  0  0  0  0  0  0  0  0  0  0  0
   36.4690   25.3290   38.0600 H   0  0  0  0  0  0  0  0  0  0  0  0
   36.6330   27.9520   41.3450 H   0  0  0  0  0  0  0  0  0  0  0  0
   36.1950   30.7930   40.4460 C   0  0  0  0  0  0  0  0  0  0  0  0
   37.3790   30.9820   39.9840 O   0  0  0  0  0  0  0  0  0  0  0  0
   35.1520   29.8090   40.4540 N   0  0  0  0  0  0  0  0  0  0  0  0
   36.2760   31.7830   40.8880 H   0  0  0  0  0  0  0  0  0  0  0  0
   34.3800   30.1070   41.0910 H   0  0  0  0  0  0  0  0  0  0  0  0
   37.5250   25.6230   40.5290 C   0  0  0  0  0  3  0  0  0  0  0  0
   37.4580   24.2520   39.8950 C   0  0  0  0  0  2  0  0  0  0  0  0
   37.7170   23.2780   41.0460 C   0  0  0  0  0  2  0  0  0  0  0  0
   37.8930   24.1410   42.2770 C   0  0  0  0  0  2  0  0  0  0  0  0
   37.0170   25.3450   41.9050 C   0  0  0  0  0  2  0  0  0  0  0  0
   34.1160   29.2980   37.7410 C   0  0  0  0  0  0  0  0  0  0  0  0
   33.8820   30.1160   38.4660 H   0  0  0  0  0  0  0  0  0  0  0  0
   34.6390   29.8290   36.9050 H   0  0  0  0  0  0  0  0  0  0  0  0
   32.8820   28.6750   37.1470 C   0  0  0  0  0  0  0  0  0  0  0  0
   32.5090   27.9130   37.8640 H   0  0  0  0  0  0  0  0  0  0  0  0
   33.0700   28.1730   36.1670 H   0  0  0  0  0  0  0  0  0  0  0  0
   30.0730   30.8790   37.9730 C   0  0  0  0  0  0  0  0  0  0  0  0
   29.9170   31.6430   36.7900 C   0  0  0  0  0  0  0  0  0  0  0  0
   30.8030   31.3570   35.7470 C   0  0  0  0  0  0  0  0  0  0  0  0
   31.7350   30.4050   35.9000 N   0  0  0  0  0  0  0  0  0  0  0  0
   31.8290   29.7100   37.0580 C   0  0  0  0  0  0  0  0  0  0  0  0
   31.0270   29.9320   38.0730 N   0  0  0  0  0  0  0  0  0  0  0  0
   29.3880   31.0940   38.7880 H   0  0  0  0  0  0  0  0  0  0  0  0
   29.1590   32.4060   36.6860 H   0  0  0  0  0  0  0  0  0  0  0  0
   30.7490   31.9020   34.8030 H   0  0  0  0  0  0  0  0  0  0  0  0
  1  6  1  0  0  0  0
  2  1  2  0  0  0  0
  2  3  1  0  0  0  0
  3  4  2  0  0  0  0
  4  5  1  0  0  0  0
  4 15  1  0  0  0  0
  5  9  1  0  0  0  0
  6  5  2  0  0  0  0
  6 12  1  0  0  0  0
  7  2  1  0  0  0  0
  8  3  1  0  0  0  0
 10 12  1  0  0  0  0
 10 13  1  0  0  0  0
 11 10  2  0  0  0  0
 12 14  1  0  0  0  0
 15 19  1  0  0  0  0
 16 15  1  0  0  0  0
 16 17  1  0  0  0  0
 17 18  1  0  0  0  0
 19 18  1  0  0  0  0
 20  1  1  0  0  0  0
 20 21  1  0  0  0  0
 22 20  1  0  0  0  0
 23 20  1  0  0  0  0
 23 24  1  0  0  0  0
 25 23  1  0  0  0  0
 26 31  1  0  0  0  0
 26 32  1  0  0  0  0
 27 26  2  0  0  0  0
 28 29  2  0  0  0  0
 28 27  1  0  0  0  0
 29 30  1  0  0  0  0
 30 23  1  0  0  0  0
 30 31  2  0  0  0  0
 33 27  1  0  0  0  0
 34 28  1  0  0  0  0
M  END
>  <minimizedAffinity>
-5.14605474

$$$$

 OpenBabel03252501303D

 34 36  0  0  0  0  0  0  0  0999 V2000
   36.9180   30.1280   39.8300 C   0  0  0  0  0  0  0  0  0  0  0  0
   36.1400   29.7700   40.8950 C   0  0  0  0  0  0  0  0  0  0  0  0
   36.2090   28.5590   41.5080 C   0  0  0  0  0  0  0  0  0  0  0  0
   37.1050   27.6460   41.0350 C   0  0  0  0  0  0  0  0  0  0  0  0
   37.9030   27.9880   39.9580 C   0  0  0  0  0  0  0  0  0  0  0  0
   37.8130   29.2270   39.3540 C   0  0  0  0  0  0  0  0  0  0  0  0
   35.4400   30.5560   41.2230 H   0  0  0  0  0  0  0  0  0  0  0  0
   35.5260   28.4320   42.3370 H   0  0  0  0  0  0  0  0  0  0  0  0
   38.5550   27.1370   39.7210 H   0  0  0  0  0  0  0  0  0  0  0  0
   38.2820   28.8230   37.0140 C   0  0  0  0  0  0  0  0  0  0  0  0
   37.2200   28.3540   36.4630 O   0  0  0  0  0  0  0  0  0  0  0  0
   38.7800   29.2240   38.2970 N   0  0  0  0  0  0  0  0  0  0  0  0
   38.7290   28.8050   36.0230 H   0  0  0  0  0  0  0  0  0  0  0  0
   39.7970   29.4520   38.2340 H   0  0  0  0  0  0  0  0  0  0  0  0
   37.1210   26.3300   41.7660 C   0  0  0  0  0  3  0  0  0  0  0  0
   38.4600   26.0580   42.4130 C   0  0  0  0  0  2  0  0  0  0  0  0
   38.5960   24.5340   42.4000 C   0  0  0  0  0  2  0  0  0  0  0  0
   37.3430   24.0190   41.7250 C   0  0  0  0  0  2  0  0  0  0  0  0
   37.0190   25.1980   40.7970 C   0  0  0  0  0  2  0  0  0  0  0  0
   36.9390   31.3930   39.0760 C   0  0  0  0  0  0  0  0  0  0  0  0
   37.5960   31.2900   38.1770 H   0  0  0  0  0  0  0  0  0  0  0  0
   35.9370   31.6380   38.6430 H   0  0  0  0  0  0  0  0  0  0  0  0
   37.3260   32.5560   39.9490 C   0  0  0  0  0  0  0  0  0  0  0  0
   37.2910   32.2120   41.0040 H   0  0  0  0  0  0  0  0  0  0  0  0
   36.6420   33.4330   39.8420 H   0  0  0  0  0  0  0  0  0  0  0  0
   40.6560   32.6810   38.4270 C   0  0  0  0  0  0  0  0  0  0  0  0
   41.3410   33.6100   39.2480 C   0  0  0  0  0  0  0  0  0  0  0  0
   40.6080   34.1590   40.3060 C   0  0  0  0  0  0  0  0  0  0  0  0
   39.3310   33.7990   40.4950 N   0  0  0  0  0  0  0  0  0  0  0  0
   38.7360   32.9030   39.6720 C   0  0  0  0  0  0  0  0  0  0  0  0
   39.3700   32.3540   38.6630 N   0  0  0  0  0  0  0  0  0  0  0  0
   41.2180   32.2500   37.6040 H   0  0  0  0  0  0  0  0  0  0  0  0
   42.3710   33.8880   39.0800 H   0  0  0  0  0  0  0  0  0  0  0  0
   41.0640   34.8830   40.9850 H   0  0  0  0  0  0  0  0  0  0  0  0
  1  2  1  0  0  0  0
  2  7  1  0  0  0  0
  2  3  2  0  0  0  0
  3  8  1  0  0  0  0
  4  3  1  0  0  0  0
  4 15  1  0  0  0  0
  5  4  2  0  0  0  0
  6  1  2  0  0  0  0
  6  5  1  0  0  0  0
  9  5  1  0  0  0  0
 10 12  1  0  0  0  0
 11 10  2  0  0  0  0
 12  6  1  0  0  0  0
 13 10  1  0  0  0  0
 14 12  1  0  0  0  0
 15 16  1  0  0  0  0
 17 16  1  0  0  0  0
 18 17  1  0  0  0  0
 19 18  1  0  0  0  0
 19 15  1  0  0  0  0
 20  1  1  0  0  0  0
 20 23  1  0  0  0  0
 21 20  1  0  0  0  0
 22 20  1  0  0  0  0
 23 24  1  0  0  0  0
 25 23  1  0  0  0  0
 26 31  2  0  0  0  0
 26 27  1  0  0  0  0
 27 28  2  0  0  0  0
 28 29  1  0  0  0  0
 28 34  1  0  0  0  0
 30 23  1  0  0  0  0
 30 29  2  0  0  0  0
 31 30  1  0  0  0  0
 32 26  1  0  0  0  0
 33 27  1  0  0  0  0
M  END
>  <minimizedAffinity>
-5.09316921

$$$$
