
 OpenBabel03252505343D

 26 28  0  0  0  0  0  0  0  0999 V2000
   46.8950   34.9000   41.9650 C   0  0  0  0  0  0  0  0  0  0  0  0
   48.1090   35.5290   41.9330 C   0  0  0  0  0  0  0  0  0  0  0  0
   48.9840   35.5080   40.8560 C   0  0  0  0  0  0  0  0  0  0  0  0
   48.6010   34.7960   39.7230 C   0  0  0  0  0  0  0  0  0  0  0  0
   47.3770   34.1610   39.7520 C   0  0  0  0  0  0  0  0  0  0  0  0
   46.5260   34.2010   40.8430 C   0  0  0  0  0  0  0  0  0  0  0  0
   48.4700   36.1050   42.7870 H   0  0  0  0  0  0  0  0  0  0  0  0
   49.9340   36.0240   40.8840 H   0  0  0  0  0  0  0  0  0  0  0  0
   49.2840   34.7840   38.8900 H   0  0  0  0  0  0  0  0  0  0  0  0
   47.1220   33.6190   38.8460 H   0  0  0  0  0  0  0  0  0  0  0  0
   44.4710   36.0590   44.5890 C   0  0  0  0  0  0  0  0  0  0  0  0
   45.2080   36.0770   43.3790 C   0  0  0  0  0  0  0  0  0  0  0  0
   46.0840   35.0070   43.1560 C   0  0  0  0  0  0  0  0  0  0  0  0
   46.2010   34.0090   44.0800 N   0  0  0  0  0  0  0  0  0  0  0  0
   45.4560   34.0630   45.2220 C   0  0  0  0  0  0  0  0  0  0  0  0
   44.6010   35.0770   45.4730 N   0  0  0  0  0  0  0  0  0  0  0  0
   45.5750   33.0400   46.1960 N   0  0  0  0  0  0  0  0  0  0  0  0
   43.8240   36.9200   44.6730 H   0  0  0  0  0  0  0  0  0  0  0  0
   45.1500   36.8390   42.6240 H   0  0  0  0  0  0  0  0  0  0  0  0
   46.3860   33.1840   46.8380 H   0  0  0  0  0  0  0  0  0  0  0  0
   44.7740   32.3890   45.9910 H   0  0  0  0  0  0  0  0  0  0  0  0
   45.2170   33.4990   40.8210 C   0  0  0  0  0  3  0  0  0  0  0  0
   44.9590   32.8050   42.1630 C   0  0  0  0  0  2  0  0  0  0  0  0
   43.4360   32.7840   42.1520 C   0  0  0  0  0  2  0  0  0  0  0  0
   43.1720   34.2540   41.8190 C   0  0  0  0  0  2  0  0  0  0  0  0
   44.0460   34.3910   40.5830 C   0  0  0  0  0  2  0  0  0  0  0  0
  1 13  1  0  0  0  0
  2  1  1  0  0  0  0
  2  7  1  0  0  0  0
  3  8  1  0  0  0  0
  3  2  2  0  0  0  0
  4  5  2  0  0  0  0
  4  3  1  0  0  0  0
  5  6  1  0  0  0  0
  6  1  2  0  0  0  0
  9  4  1  0  0  0  0
 10  5  1  0  0  0  0
 11 18  1  0  0  0  0
 11 16  1  0  0  0  0
 12 11  2  0  0  0  0
 13 12  1  0  0  0  0
 13 14  2  0  0  0  0
 14 15  1  0  0  0  0
 15 16  2  0  0  0  0
 15 17  1  0  0  0  0
 17 20  1  0  0  0  0
 19 12  1  0  0  0  0
 21 17  1  0  0  0  0
 22  6  1  0  0  0  0
 22 23  1  0  0  0  0
 24 23  1  0  0  0  0
 25 24  1  0  0  0  0
 26 22  1  0  0  0  0
 26 25  1  0  0  0  0
M  END
>  <minimizedAffinity>
-5.82408714

>  <minimizedRMSD>
0.606443048

$$$$
