
 OpenBabel03242522233D

 24 26  0  0  0  0  0  0  0  0999 V2000
   44.5430   35.7630   45.0330 C   0  0  0  0  0  0  0  0  0  0  0  0
   45.2010   35.7050   43.8050 C   0  0  0  0  0  0  0  0  0  0  0  0
   46.0530   34.6700   43.4450 C   0  0  0  0  0  0  0  0  0  0  0  0
   46.2160   33.6840   44.3820 N   0  0  0  0  0  0  0  0  0  0  0  0
   45.5780   33.7400   45.5740 C   0  0  0  0  0  0  0  0  0  0  0  0
   44.7640   34.7540   45.8890 N   0  0  0  0  0  0  0  0  0  0  0  0
   43.8940   36.5600   45.2980 H   0  0  0  0  0  0  0  0  0  0  0  0
   45.0620   36.4960   43.0680 H   0  0  0  0  0  0  0  0  0  0  0  0
   44.5980   33.0910   41.4540 Cl  0  0  0  0  0  0  0  0  0  0  0  0
   46.1300   33.8960   41.1530 C   0  0  0  0  0  0  0  0  0  0  0  0
   46.7350   34.6160   42.1600 C   0  0  0  0  0  0  0  0  0  0  0  0
   47.9460   35.2410   41.8890 C   0  0  0  0  0  0  0  0  0  0  0  0
   48.5300   35.1440   40.6450 C   0  0  0  0  0  0  0  0  0  0  0  0
   47.8770   34.4010   39.6550 C   0  0  0  0  0  0  0  0  0  0  0  0
   48.6140   34.2760   38.0790 Cl  0  0  0  0  0  0  0  0  0  0  0  0
   46.6720   33.7660   39.8880 C   0  0  0  0  0  0  0  0  0  0  0  0
   48.4020   35.8020   42.7010 H   0  0  0  0  0  0  0  0  0  0  0  0
   49.4760   35.6470   40.4790 H   0  0  0  0  0  0  0  0  0  0  0  0
   46.2010   33.2000   39.0880 H   0  0  0  0  0  0  0  0  0  0  0  0
   45.8350   32.6090   46.5140 C   0  0  0  0  0  3  0  0  0  0  0  0
   47.1110   32.8390   47.3080 C   0  0  0  0  0  2  0  0  0  0  0  0
   47.5560   31.4910   47.7830 C   0  0  0  0  0  2  0  0  0  0  0  0
   47.0230   30.5290   46.7580 C   0  0  0  0  0  2  0  0  0  0  0  0
   46.1630   31.3180   45.7940 C   0  0  0  0  0  2  0  0  0  0  0  0
  1  7  1  0  0  0  0
  1  6  1  0  0  0  0
  2  1  2  0  0  0  0
  3  2  1  0  0  0  0
  3  4  2  0  0  0  0
  4  5  1  0  0  0  0
  5  6  2  0  0  0  0
  5 20  1  0  0  0  0
  8  2  1  0  0  0  0
 10  9  1  0  0  0  0
 10 11  1  0  0  0  0
 11  3  1  0  0  0  0
 12 11  2  0  0  0  0
 12 17  1  0  0  0  0
 13 12  1  0  0  0  0
 14 16  1  0  0  0  0
 14 13  2  0  0  0  0
 15 14  1  0  0  0  0
 16 10  2  0  0  0  0
 18 13  1  0  0  0  0
 19 16  1  0  0  0  0
 20 21  1  0  0  0  0
 21 22  1  0  0  0  0
 23 22  1  0  0  0  0
 24 20  1  0  0  0  0
 24 23  1  0  0  0  0
M  END
>  <minimizedAffinity>
-5.98256588

>  <minimizedRMSD>
0.414129436

$$$$
