
 OpenBabel03252506443D

 36 39  0  0  1  0  0  0  0  0999 V2000
   37.1310   30.0110   40.7000 N   0  0  1  0  0  0  0  0  0  0  0  0
   37.5410   31.3630   41.0360 C   0  0  0  0  0  0  0  0  0  0  0  0
   37.3500   32.3670   39.9600 C   0  0  0  0  0  0  0  0  0  0  0  0
   38.2020   32.0170   38.7690 C   0  0  0  0  0  0  0  0  0  0  0  0
   38.3490   30.5410   38.6130 C   0  0  0  0  0  0  0  0  0  0  0  0
   37.2000   29.8270   39.2830 C   0  0  2  0  0  0  0  0  0  0  0  0
   37.0650   31.6660   41.9990 H   0  0  0  0  0  0  0  0  0  0  0  0
   38.6360   31.3500   41.2670 H   0  0  0  0  0  0  0  0  0  0  0  0
   36.3120   32.6510   39.7250 H   0  0  0  0  0  0  0  0  0  0  0  0
   37.7780   33.3320   40.3890 H   0  0  0  0  0  0  0  0  0  0  0  0
   37.8180   32.5220   37.8530 H   0  0  0  0  0  0  0  0  0  0  0  0
   39.2030   32.4750   38.9220 H   0  0  0  0  0  0  0  0  0  0  0  0
   38.4890   30.1590   37.6070 H   0  0  0  0  0  0  0  0  0  0  0  0
   39.2640   30.2290   39.1810 H   0  0  0  0  0  0  0  0  0  0  0  0
   37.5640   28.7430   39.2130 H   0  0  0  0  0  0  0  0  0  0  0  0
   37.4660   28.1850   42.4950 C   0  0  1  0  0  0  0  0  0  0  0  0
   38.1110   29.4310   42.9050 C   0  0  0  0  0  0  0  0  0  0  0  0
   37.9770   29.1350   41.4550 C   0  0  2  0  0  0  0  0  0  0  0  0
   36.3620   28.0780   42.5290 H   0  0  0  0  0  0  0  0  0  0  0  0
   37.5140   30.2550   43.3630 H   0  0  0  0  0  0  0  0  0  0  0  0
   39.1270   29.3740   43.3440 H   0  0  0  0  0  0  0  0  0  0  0  0
   38.8760   28.7580   40.9040 H   0  0  0  0  0  0  0  0  0  0  0  0
   39.3100   26.7940   43.4950 C   0  0  0  0  0  0  0  0  0  0  0  0
   38.1550   26.8720   42.6650 C   0  0  0  0  0  0  0  0  0  0  0  0
   37.7000   25.7230   42.0440 C   0  0  0  0  0  0  0  0  0  0  0  0
   38.3890   24.5710   42.2630 N   0  0  0  0  0  0  0  0  0  0  0  0
   39.4920   24.5140   43.0590 C   0  0  0  0  0  0  0  0  0  0  0  0
   39.9530   25.6190   43.6730 N   0  0  0  0  0  0  0  0  0  0  0  0
   39.6590   27.7050   43.9790 H   0  0  0  0  0  0  0  0  0  0  0  0
   36.8340   25.7570   41.4170 H   0  0  0  0  0  0  0  0  0  0  0  0
   39.9420   23.5330   43.1450 H   0  0  0  0  0  0  0  0  0  0  0  0
   35.9290   29.8180   38.5430 C   0  0  0  0  0  3  0  0  0  0  0  0
   34.8050   29.0320   39.2360 C   0  0  0  0  0  2  0  0  0  0  0  0
   33.8070   28.7540   38.1300 C   0  0  0  0  0  2  0  0  0  0  0  0
   34.5450   28.8440   36.8200 C   0  0  0  0  0  2  0  0  0  0  0  0
   35.9640   29.3010   37.1450 C   0  0  0  0  0  2  0  0  0  0  0  0
  1  2  1  6  0  0  0
  1 18  1  0  0  0  0
  2  8  1  0  0  0  0
  2  7  1  0  0  0  0
  3 10  1  0  0  0  0
  3  2  1  0  0  0  0
  4 12  1  0  0  0  0
  4  3  1  0  0  0  0
  5  4  1  0  0  0  0
  5 14  1  0  0  0  0
  5  6  1  0  0  0  0
  6 15  1  6  0  0  0
  6  1  1  0  0  0  0
  9  3  1  0  0  0  0
 11  4  1  0  0  0  0
 13  5  1  0  0  0  0
 16 19  1  1  0  0  0
 16 24  1  0  0  0  0
 16 17  1  0  0  0  0
 17 21  1  0  0  0  0
 17 20  1  0  0  0  0
 18 22  1  6  0  0  0
 18 16  1  0  0  0  0
 18 17  1  0  0  0  0
 23 28  1  0  0  0  0
 23 29  1  0  0  0  0
 24 23  2  0  0  0  0
 25 26  2  0  0  0  0
 25 24  1  0  0  0  0
 26 27  1  0  0  0  0
 27 31  1  0  0  0  0
 27 28  2  0  0  0  0
 30 25  1  0  0  0  0
 32 33  1  0  0  0  0
 32  6  1  0  0  0  0
 34 33  1  0  0  0  0
 35 36  1  0  0  0  0
 35 34  1  0  0  0  0
 36 32  1  0  0  0  0
M  END
>  <minimizedAffinity>
-5.49060822

$$$$

 OpenBabel03252506443D

 36 39  0  0  1  0  0  0  0  0999 V2000
   37.4310   30.1410   40.9350 N   0  0  1  0  0  0  0  0  0  0  0  0
   36.0520   30.3350   40.5240 C   0  0  0  0  0  0  0  0  0  0  0  0
   35.2300   29.1000   40.4660 C   0  0  0  0  0  0  0  0  0  0  0  0
   35.7850   28.1580   39.4320 C   0  0  0  0  0  0  0  0  0  0  0  0
   37.2700   28.2620   39.3350 C   0  0  0  0  0  0  0  0  0  0  0  0
   37.8420   28.8080   40.6210 C   0  0  2  0  0  0  0  0  0  0  0  0
   35.5870   31.1340   41.1510 H   0  0  0  0  0  0  0  0  0  0  0  0
   36.0510   30.7660   39.4910 H   0  0  0  0  0  0  0  0  0  0  0  0
   34.9650   28.6350   41.4280 H   0  0  0  0  0  0  0  0  0  0  0  0
   34.2180   29.4480   40.0740 H   0  0  0  0  0  0  0  0  0  0  0  0
   35.4260   27.1200   39.6170 H   0  0  0  0  0  0  0  0  0  0  0  0
   35.3310   28.4230   38.4520 H   0  0  0  0  0  0  0  0  0  0  0  0
   37.8120   27.3710   39.0340 H   0  0  0  0  0  0  0  0  0  0  0  0
   37.5060   29.0310   38.5540 H   0  0  0  0  0  0  0  0  0  0  0  0
   38.9310   28.9740   40.3060 H   0  0  0  0  0  0  0  0  0  0  0  0
   38.8630   32.2880   41.0190 C   0  0  1  0  0  0  0  0  0  0  0  0
   37.6110   32.5340   40.3030 C   0  0  0  0  0  0  0  0  0  0  0  0
   38.1920   31.1660   40.2860 C   0  0  2  0  0  0  0  0  0  0  0  0
   38.8750   32.1840   42.1230 H   0  0  0  0  0  0  0  0  0  0  0  0
   36.6660   32.7300   40.8630 H   0  0  0  0  0  0  0  0  0  0  0  0
   37.6540   33.1160   39.3610 H   0  0  0  0  0  0  0  0  0  0  0  0
   38.7440   30.8350   39.3700 H   0  0  0  0  0  0  0  0  0  0  0  0
   41.3780   32.3400   41.0630 C   0  0  0  0  0  0  0  0  0  0  0  0
   40.1600   32.8100   40.4970 C   0  0  0  0  0  0  0  0  0  0  0  0
   40.2130   33.7350   39.4700 C   0  0  0  0  0  0  0  0  0  0  0  0
   41.4410   34.1490   39.0550 N   0  0  0  0  0  0  0  0  0  0  0  0
   42.5970   33.6890   39.6080 C   0  0  0  0  0  0  0  0  0  0  0  0
   42.5690   32.7890   40.6080 N   0  0  0  0  0  0  0  0  0  0  0  0
   41.3240   31.6110   41.8710 H   0  0  0  0  0  0  0  0  0  0  0  0
   39.3110   34.1020   39.0280 H   0  0  0  0  0  0  0  0  0  0  0  0
   43.5020   34.1030   39.1820 H   0  0  0  0  0  0  0  0  0  0  0  0
   37.9420   27.8530   41.7360 C   0  0  0  0  0  3  0  0  0  0  0  0
   38.7920   28.3530   42.9140 C   0  0  0  0  0  2  0  0  0  0  0  0
   39.1460   27.0940   43.6790 C   0  0  0  0  0  2  0  0  0  0  0  0
   39.0240   25.9340   42.7260 C   0  0  0  0  0  2  0  0  0  0  0  0
   38.4720   26.4960   41.4180 C   0  0  0  0  0  2  0  0  0  0  0  0
  1  2  1  6  0  0  0
  2  7  1  0  0  0  0
  3  2  1  0  0  0  0
  3  9  1  0  0  0  0
  4 11  1  0  0  0  0
  4  3  1  0  0  0  0
  5  4  1  0  0  0  0
  5  6  1  0  0  0  0
  6 15  1  6  0  0  0
  6  1  1  0  0  0  0
  6 32  1  0  0  0  0
  8  2  1  0  0  0  0
 10  3  1  0  0  0  0
 12  4  1  0  0  0  0
 13  5  1  0  0  0  0
 14  5  1  0  0  0  0
 16 19  1  1  0  0  0
 17 20  1  0  0  0  0
 17 16  1  0  0  0  0
 18 22  1  6  0  0  0
 18 17  1  0  0  0  0
 18  1  1  0  0  0  0
 18 16  1  0  0  0  0
 21 17  1  0  0  0  0
 23 29  1  0  0  0  0
 24 16  1  0  0  0  0
 24 23  2  0  0  0  0
 25 24  1  0  0  0  0
 26 25  2  0  0  0  0
 26 27  1  0  0  0  0
 27 28  2  0  0  0  0
 28 23  1  0  0  0  0
 30 25  1  0  0  0  0
 31 27  1  0  0  0  0
 32 33  1  0  0  0  0
 33 34  1  0  0  0  0
 35 34  1  0  0  0  0
 36 32  1  0  0  0  0
 36 35  1  0  0  0  0
M  END
>  <minimizedAffinity>
-4.99860907

$$$$

 OpenBabel03252506443D

 36 39  0  0  1  0  0  0  0  0999 V2000
   37.0100   29.8910   39.3350 N   0  0  1  0  0  0  0  0  0  0  0  0
   35.9040   29.7730   38.4020 C   0  0  0  0  0  0  0  0  0  0  0  0
   34.9820   28.6380   38.6550 C   0  0  0  0  0  0  0  0  0  0  0  0
   35.7170   27.3320   38.5090 C   0  0  0  0  0  0  0  0  0  0  0  0
   37.1410   27.4540   38.9370 C   0  0  0  0  0  0  0  0  0  0  0  0
   37.3040   28.6080   39.8950 C   0  0  2  0  0  0  0  0  0  0  0  0
   35.3740   30.7530   38.3290 H   0  0  0  0  0  0  0  0  0  0  0  0
   36.3260   29.6180   37.3760 H   0  0  0  0  0  0  0  0  0  0  0  0
   34.3340   28.7130   39.5410 H   0  0  0  0  0  0  0  0  0  0  0  0
   34.2320   28.6810   37.7970 H   0  0  0  0  0  0  0  0  0  0  0  0
   35.1680   26.5150   39.0300 H   0  0  0  0  0  0  0  0  0  0  0  0
   35.6760   27.0360   37.4390 H   0  0  0  0  0  0  0  0  0  0  0  0
   37.6160   26.5650   39.3400 H   0  0  0  0  0  0  0  0  0  0  0  0
   37.7440   27.7300   38.0330 H   0  0  0  0  0  0  0  0  0  0  0  0
   38.4460   28.6510   39.9720 H   0  0  0  0  0  0  0  0  0  0  0  0
   38.5390   31.9010   38.7940 C   0  0  1  0  0  0  0  0  0  0  0  0
   37.7290   31.5440   37.6300 C   0  0  0  0  0  0  0  0  0  0  0  0
   38.0910   30.4830   38.6050 C   0  0  2  0  0  0  0  0  0  0  0  0
   38.0870   32.4220   39.6620 H   0  0  0  0  0  0  0  0  0  0  0  0
   36.6710   31.8870   37.5470 H   0  0  0  0  0  0  0  0  0  0  0  0
   38.2250   31.5130   36.6390 H   0  0  0  0  0  0  0  0  0  0  0  0
   38.9230   29.7800   38.3420 H   0  0  0  0  0  0  0  0  0  0  0  0
   40.5760   32.2290   37.3540 C   0  0  0  0  0  0  0  0  0  0  0  0
   39.9900   32.2180   38.6510 C   0  0  0  0  0  0  0  0  0  0  0  0
   40.7840   32.5100   39.7460 C   0  0  0  0  0  0  0  0  0  0  0  0
   42.0950   32.7930   39.5180 N   0  0  0  0  0  0  0  0  0  0  0  0
   42.6400   32.8000   38.2710 C   0  0  0  0  0  0  0  0  0  0  0  0
   41.8860   32.5180   37.1910 N   0  0  0  0  0  0  0  0  0  0  0  0
   39.9410   31.9980   36.4990 H   0  0  0  0  0  0  0  0  0  0  0  0
   40.3660   32.5080   40.7300 H   0  0  0  0  0  0  0  0  0  0  0  0
   43.6940   33.0420   38.2350 H   0  0  0  0  0  0  0  0  0  0  0  0
   36.8690   28.3620   41.2790 C   0  0  0  0  0  3  0  0  0  0  0  0
   37.5600   29.2530   42.3220 C   0  0  0  0  0  2  0  0  0  0  0  0
   37.3420   28.5300   43.6350 C   0  0  0  0  0  2  0  0  0  0  0  0
   37.0780   27.0810   43.3160 C   0  0  0  0  0  2  0  0  0  0  0  0
   37.0140   26.9710   41.7950 C   0  0  0  0  0  2  0  0  0  0  0  0
  1  2  1  6  0  0  0
  1  6  1  0  0  0  0
  2  3  1  0  0  0  0
  3  9  1  0  0  0  0
  4  3  1  0  0  0  0
  4  5  1  0  0  0  0
  4 11  1  0  0  0  0
  5 13  1  0  0  0  0
  5  6  1  0  0  0  0
  6 15  1  1  0  0  0
  6 32  1  0  0  0  0
  7  2  1  0  0  0  0
  8  2  1  0  0  0  0
 10  3  1  0  0  0  0
 12  4  1  0  0  0  0
 14  5  1  0  0  0  0
 16 19  1  1  0  0  0
 17 18  1  0  0  0  0
 17 16  1  0  0  0  0
 18 22  1  6  0  0  0
 18 16  1  0  0  0  0
 18  1  1  0  0  0  0
 20 17  1  0  0  0  0
 21 17  1  0  0  0  0
 23 24  1  0  0  0  0
 24 16  1  0  0  0  0
 24 25  2  0  0  0  0
 25 30  1  0  0  0  0
 26 25  1  0  0  0  0
 27 26  2  0  0  0  0
 28 23  2  0  0  0  0
 28 27  1  0  0  0  0
 29 23  1  0  0  0  0
 31 27  1  0  0  0  0
 32 36  1  0  0  0  0
 32 33  1  0  0  0  0
 33 34  1  0  0  0  0
 35 34  1  0  0  0  0
 36 35  1  0  0  0  0
M  END
>  <minimizedAffinity>
-4.97574949

$$$$

 OpenBabel03252506443D

 36 39  0  0  1  0  0  0  0  0999 V2000
   37.4110   27.9260   40.7820 N   0  0  1  0  0  0  0  0  0  0  0  0
   37.4440   29.2720   41.3240 C   0  0  0  0  0  0  0  0  0  0  0  0
   38.0640   29.3980   42.6670 C   0  0  0  0  0  0  0  0  0  0  0  0
   37.2670   28.6210   43.6800 C   0  0  0  0  0  0  0  0  0  0  0  0
   36.6530   27.4020   43.0770 C   0  0  0  0  0  0  0  0  0  0  0  0
   37.4260   26.9770   41.8520 C   0  0  2  0  0  0  0  0  0  0  0  0
   37.8960   29.9640   40.5730 H   0  0  0  0  0  0  0  0  0  0  0  0
   36.3900   29.6350   41.4260 H   0  0  0  0  0  0  0  0  0  0  0  0
   39.1550   29.2590   42.7240 H   0  0  0  0  0  0  0  0  0  0  0  0
   37.9420   30.4990   42.9370 H   0  0  0  0  0  0  0  0  0  0  0  0
   37.8860   28.4040   44.5800 H   0  0  0  0  0  0  0  0  0  0  0  0
   36.4650   29.2870   44.0650 H   0  0  0  0  0  0  0  0  0  0  0  0
   36.4940   26.5510   43.7310 H   0  0  0  0  0  0  0  0  0  0  0  0
   35.6340   27.6840   42.7030 H   0  0  0  0  0  0  0  0  0  0  0  0
   36.7310   26.1640   41.4430 H   0  0  0  0  0  0  0  0  0  0  0  0
   36.3140   27.6670   38.4590 C   0  0  1  0  0  0  0  0  0  0  0  0
   36.0420   28.9940   39.0090 C   0  0  0  0  0  0  0  0  0  0  0  0
   36.2510   27.8580   39.9430 C   0  0  2  0  0  0  0  0  0  0  0  0
   37.3180   27.4110   38.0620 H   0  0  0  0  0  0  0  0  0  0  0  0
   36.8060   29.8050   38.9390 H   0  0  0  0  0  0  0  0  0  0  0  0
   35.0130   29.3960   38.9200 H   0  0  0  0  0  0  0  0  0  0  0  0
   35.3530   27.3890   40.4190 H   0  0  0  0  0  0  0  0  0  0  0  0
   34.1360   27.5620   37.2010 C   0  0  0  0  0  0  0  0  0  0  0  0
   35.2360   26.8780   37.7920 C   0  0  0  0  0  0  0  0  0  0  0  0
   35.2790   25.4970   37.7250 C   0  0  0  0  0  0  0  0  0  0  0  0
   34.2560   24.8630   37.0930 N   0  0  0  0  0  0  0  0  0  0  0  0
   33.2110   25.5320   36.5330 C   0  0  0  0  0  0  0  0  0  0  0  0
   33.1480   26.8760   36.5860 N   0  0  0  0  0  0  0  0  0  0  0  0
   34.1140   28.6490   37.2600 H   0  0  0  0  0  0  0  0  0  0  0  0
   36.0960   24.9620   38.1620 H   0  0  0  0  0  0  0  0  0  0  0  0
   32.4660   24.9030   36.0620 H   0  0  0  0  0  0  0  0  0  0  0  0
   38.6890   26.2650   42.1030 C   0  0  0  0  0  3  0  0  0  0  0  0
   38.5380   24.7400   42.2080 C   0  0  0  0  0  2  0  0  0  0  0  0
   39.7970   24.2890   42.9210 C   0  0  0  0  0  2  0  0  0  0  0  0
   40.3370   25.4720   43.6800 C   0  0  0  0  0  2  0  0  0  0  0  0
   39.4610   26.6670   43.3130 C   0  0  0  0  0  2  0  0  0  0  0  0
  1  2  1  1  0  0  0
  1  6  1  0  0  0  0
  2  8  1  0  0  0  0
  2  3  1  0  0  0  0
  3  9  1  0  0  0  0
  3 10  1  0  0  0  0
  3  4  1  0  0  0  0
  4 12  1  0  0  0  0
  4 11  1  0  0  0  0
  5  4  1  0  0  0  0
  5 13  1  0  0  0  0
  6 15  1  6  0  0  0
  6 32  1  0  0  0  0
  6  5  1  0  0  0  0
  7  2  1  0  0  0  0
 14  5  1  0  0  0  0
 16 19  1  6  0  0  0
 16 17  1  0  0  0  0
 16 18  1  0  0  0  0
 17 18  1  0  0  0  0
 18 22  1  1  0  0  0
 18  1  1  0  0  0  0
 20 17  1  0  0  0  0
 21 17  1  0  0  0  0
 23 29  1  0  0  0  0
 23 24  1  0  0  0  0
 24 16  1  0  0  0  0
 25 24  2  0  0  0  0
 25 30  1  0  0  0  0
 26 25  1  0  0  0  0
 27 28  1  0  0  0  0
 27 26  2  0  0  0  0
 28 23  2  0  0  0  0
 31 27  1  0  0  0  0
 32 33  1  0  0  0  0
 32 36  1  0  0  0  0
 33 34  1  0  0  0  0
 34 35  1  0  0  0  0
 36 35  1  0  0  0  0
M  END
>  <minimizedAffinity>
-4.96788263

$$$$

 OpenBabel03252506443D

 36 39  0  0  1  0  0  0  0  0999 V2000
   38.2690   26.0830   42.1940 N   0  0  1  0  0  0  0  0  0  0  0  0
   37.2800   25.0220   42.1220 C   0  0  0  0  0  0  0  0  0  0  0  0
   37.8090   23.6910   41.7320 C   0  0  0  0  0  0  0  0  0  0  0  0
   38.3780   23.7480   40.3400 C   0  0  0  0  0  0  0  0  0  0  0  0
   38.9790   25.0820   40.0470 C   0  0  0  0  0  0  0  0  0  0  0  0
   39.3670   25.7760   41.3310 C   0  0  2  0  0  0  0  0  0  0  0  0
   36.6970   24.9930   43.0740 H   0  0  0  0  0  0  0  0  0  0  0  0
   36.5210   25.3020   41.3480 H   0  0  0  0  0  0  0  0  0  0  0  0
   38.4360   23.1700   42.4720 H   0  0  0  0  0  0  0  0  0  0  0  0
   36.8880   23.0220   41.6750 H   0  0  0  0  0  0  0  0  0  0  0  0
   39.0810   22.9010   40.1710 H   0  0  0  0  0  0  0  0  0  0  0  0
   37.5500   23.5510   39.6250 H   0  0  0  0  0  0  0  0  0  0  0  0
   39.8060   25.1110   39.3440 H   0  0  0  0  0  0  0  0  0  0  0  0
   38.1790   25.7220   39.5930 H   0  0  0  0  0  0  0  0  0  0  0  0
   39.6370   26.8140   40.9290 H   0  0  0  0  0  0  0  0  0  0  0  0
   37.7600   28.5770   42.6290 C   0  0  1  0  0  0  0  0  0  0  0  0
   36.5650   27.7630   42.8500 C   0  0  0  0  0  0  0  0  0  0  0  0
   37.5800   27.2970   41.8710 C   0  0  2  0  0  0  0  0  0  0  0  0
   38.5930   28.5740   43.3610 H   0  0  0  0  0  0  0  0  0  0  0  0
   36.4230   27.2130   43.8100 H   0  0  0  0  0  0  0  0  0  0  0  0
   35.6000   28.1310   42.4460 H   0  0  0  0  0  0  0  0  0  0  0  0
   37.3740   27.4450   40.7800 H   0  0  0  0  0  0  0  0  0  0  0  0
   38.8590   30.6520   41.7230 C   0  0  0  0  0  0  0  0  0  0  0  0
   37.6810   29.8680   41.8830 C   0  0  0  0  0  0  0  0  0  0  0  0
   36.4960   30.3220   41.3340 C   0  0  0  0  0  0  0  0  0  0  0  0
   36.5220   31.5060   40.6660 N   0  0  0  0  0  0  0  0  0  0  0  0
   37.6560   32.2450   40.5220 C   0  0  0  0  0  0  0  0  0  0  0  0
   38.8210   31.8220   41.0480 N   0  0  0  0  0  0  0  0  0  0  0  0
   39.7870   30.2840   42.1590 H   0  0  0  0  0  0  0  0  0  0  0  0
   35.5990   29.7490   41.4400 H   0  0  0  0  0  0  0  0  0  0  0  0
   37.5340   33.1660   39.9680 H   0  0  0  0  0  0  0  0  0  0  0  0
   40.6100   25.3090   41.9630 C   0  0  0  0  0  3  0  0  0  0  0  0
   40.7980   25.7940   43.4090 C   0  0  0  0  0  2  0  0  0  0  0  0
   42.2800   25.6220   43.6710 C   0  0  0  0  0  2  0  0  0  0  0  0
   42.9780   25.6060   42.3370 C   0  0  0  0  0  2  0  0  0  0  0  0
   41.8870   25.6430   41.2700 C   0  0  0  0  0  2  0  0  0  0  0  0
  1  2  1  6  0  0  0
  2  7  1  0  0  0  0
  3  2  1  0  0  0  0
  3  9  1  0  0  0  0
  4  3  1  0  0  0  0
  5  4  1  0  0  0  0
  5  6  1  0  0  0  0
  6 15  1  6  0  0  0
  6 32  1  0  0  0  0
  6  1  1  0  0  0  0
  8  2  1  0  0  0  0
 10  3  1  0  0  0  0
 11  4  1  0  0  0  0
 12  4  1  0  0  0  0
 13  5  1  0  0  0  0
 14  5  1  0  0  0  0
 16 17  1  0  0  0  0
 16 19  1  1  0  0  0
 17 20  1  0  0  0  0
 18 22  1  6  0  0  0
 18  1  1  0  0  0  0
 18 16  1  0  0  0  0
 18 17  1  0  0  0  0
 21 17  1  0  0  0  0
 23 24  1  0  0  0  0
 23 29  1  0  0  0  0
 24 16  1  0  0  0  0
 25 30  1  0  0  0  0
 25 24  2  0  0  0  0
 26 25  1  0  0  0  0
 27 26  2  0  0  0  0
 27 28  1  0  0  0  0
 28 23  2  0  0  0  0
 31 27  1  0  0  0  0
 32 33  1  0  0  0  0
 33 34  1  0  0  0  0
 35 34  1  0  0  0  0
 36 32  1  0  0  0  0
 36 35  1  0  0  0  0
M  END
>  <minimizedAffinity>
-4.96289015

$$$$

 OpenBabel03252506443D

 36 39  0  0  1  0  0  0  0  0999 V2000
   37.7320   28.3410   40.7140 N   0  0  1  0  0  0  0  0  0  0  0  0
   38.2670   29.3570   41.6020 C   0  0  0  0  0  0  0  0  0  0  0  0
   38.6280   28.8840   42.9620 C   0  0  0  0  0  0  0  0  0  0  0  0
   37.4000   28.3900   43.6790 C   0  0  0  0  0  0  0  0  0  0  0  0
   36.4240   27.7720   42.7350 C   0  0  0  0  0  0  0  0  0  0  0  0
   37.1290   27.2990   41.4870 C   0  0  2  0  0  0  0  0  0  0  0  0
   39.1070   29.8890   41.0930 H   0  0  0  0  0  0  0  0  0  0  0  0
   37.4880   30.1500   41.7380 H   0  0  0  0  0  0  0  0  0  0  0  0
   39.5110   28.2320   43.0420 H   0  0  0  0  0  0  0  0  0  0  0  0
   38.9650   29.8240   43.5130 H   0  0  0  0  0  0  0  0  0  0  0  0
   37.6850   27.7190   44.5220 H   0  0  0  0  0  0  0  0  0  0  0  0
   36.9280   29.2600   44.1840 H   0  0  0  0  0  0  0  0  0  0  0  0
   35.7870   26.9840   43.1250 H   0  0  0  0  0  0  0  0  0  0  0  0
   35.7250   28.5790   42.3940 H   0  0  0  0  0  0  0  0  0  0  0  0
   36.2290   27.0250   40.8350 H   0  0  0  0  0  0  0  0  0  0  0  0
   36.8520   28.8300   38.3370 C   0  0  1  0  0  0  0  0  0  0  0  0
   37.4370   30.0340   38.9250 C   0  0  0  0  0  0  0  0  0  0  0  0
   36.8360   29.0150   39.8240 C   0  0  2  0  0  0  0  0  0  0  0  0
   37.4960   28.0020   37.9760 H   0  0  0  0  0  0  0  0  0  0  0  0
   38.5420   30.1890   38.9190 H   0  0  0  0  0  0  0  0  0  0  0  0
   36.8920   30.9920   38.8060 H   0  0  0  0  0  0  0  0  0  0  0  0
   35.8160   29.2110   40.2420 H   0  0  0  0  0  0  0  0  0  0  0  0
   35.5640   29.2260   36.2110 C   0  0  0  0  0  0  0  0  0  0  0  0
   35.5580   28.8900   37.5950 C   0  0  0  0  0  0  0  0  0  0  0  0
   34.3500   28.6210   38.2120 C   0  0  0  0  0  0  0  0  0  0  0  0
   33.2230   28.6940   37.4540 N   0  0  0  0  0  0  0  0  0  0  0  0
   33.2460   29.0170   36.1320 C   0  0  0  0  0  0  0  0  0  0  0  0
   34.4100   29.2830   35.5100 N   0  0  0  0  0  0  0  0  0  0  0  0
   36.5220   29.4350   35.7360 H   0  0  0  0  0  0  0  0  0  0  0  0
   34.3210   28.3650   39.2500 H   0  0  0  0  0  0  0  0  0  0  0  0
   32.2770   29.0390   35.6500 H   0  0  0  0  0  0  0  0  0  0  0  0
   37.8720   26.0350   41.6090 C   0  0  0  0  0  3  0  0  0  0  0  0
   38.7220   25.6860   40.3770 C   0  0  0  0  0  2  0  0  0  0  0  0
   38.9840   24.2000   40.5120 C   0  0  0  0  0  2  0  0  0  0  0  0
   37.9080   23.6290   41.3990 C   0  0  0  0  0  2  0  0  0  0  0  0
   37.0750   24.8080   41.8940 C   0  0  0  0  0  2  0  0  0  0  0  0
  1  6  1  0  0  0  0
  1  2  1  1  0  0  0
  2  8  1  0  0  0  0
  2  3  1  0  0  0  0
  3  9  1  0  0  0  0
  3 10  1  0  0  0  0
  3  4  1  0  0  0  0
  4 12  1  0  0  0  0
  4 11  1  0  0  0  0
  5 13  1  0  0  0  0
  5  4  1  0  0  0  0
  6 15  1  6  0  0  0
  6 32  1  0  0  0  0
  6  5  1  0  0  0  0
  7  2  1  0  0  0  0
 14  5  1  0  0  0  0
 16 19  1  6  0  0  0
 16 17  1  0  0  0  0
 16 18  1  0  0  0  0
 17 18  1  0  0  0  0
 18 22  1  1  0  0  0
 18  1  1  0  0  0  0
 20 17  1  0  0  0  0
 21 17  1  0  0  0  0
 23 24  1  0  0  0  0
 24 25  2  0  0  0  0
 24 16  1  0  0  0  0
 25 30  1  0  0  0  0
 26 25  1  0  0  0  0
 27 26  2  0  0  0  0
 28 27  1  0  0  0  0
 28 23  2  0  0  0  0
 29 23  1  0  0  0  0
 31 27  1  0  0  0  0
 32 36  1  0  0  0  0
 33 34  1  0  0  0  0
 33 32  1  0  0  0  0
 34 35  1  0  0  0  0
 35 36  1  0  0  0  0
M  END
>  <minimizedAffinity>
-4.9188118

$$$$

 OpenBabel03252506443D

 36 39  0  0  1  0  0  0  0  0999 V2000
   36.6840   29.8310   39.6100 N   0  0  1  0  0  0  0  0  0  0  0  0
   35.7940   29.8610   38.4630 C   0  0  0  0  0  0  0  0  0  0  0  0
   35.2100   28.5510   38.0820 C   0  0  0  0  0  0  0  0  0  0  0  0
   36.3000   27.6000   37.6670 C   0  0  0  0  0  0  0  0  0  0  0  0
   37.5590   27.8410   38.4290 C   0  0  0  0  0  0  0  0  0  0  0  0
   37.2550   28.5250   39.7400 C   0  0  2  0  0  0  0  0  0  0  0  0
   35.0200   30.6510   38.6150 H   0  0  0  0  0  0  0  0  0  0  0  0
   36.3770   30.2190   37.5770 H   0  0  0  0  0  0  0  0  0  0  0  0
   34.4550   28.1280   38.7620 H   0  0  0  0  0  0  0  0  0  0  0  0
   34.6010   28.7710   37.1430 H   0  0  0  0  0  0  0  0  0  0  0  0
   35.9430   26.5460   37.7270 H   0  0  0  0  0  0  0  0  0  0  0  0
   36.4900   27.7520   36.5820 H   0  0  0  0  0  0  0  0  0  0  0  0
   38.2100   26.9890   38.5960 H   0  0  0  0  0  0  0  0  0  0  0  0
   38.1740   28.5750   37.8460 H   0  0  0  0  0  0  0  0  0  0  0  0
   38.3160   28.7760   40.0910 H   0  0  0  0  0  0  0  0  0  0  0  0
   37.9380   31.9350   40.4260 C   0  0  1  0  0  0  0  0  0  0  0  0
   37.0930   32.2550   39.2760 C   0  0  0  0  0  0  0  0  0  0  0  0
   37.6390   30.8790   39.4070 C   0  0  2  0  0  0  0  0  0  0  0  0
   37.4920   31.7590   41.4270 H   0  0  0  0  0  0  0  0  0  0  0  0
   36.0000   32.4350   39.4070 H   0  0  0  0  0  0  0  0  0  0  0  0
   37.5180   32.8970   38.4780 H   0  0  0  0  0  0  0  0  0  0  0  0
   38.5230   30.5960   38.7800 H   0  0  0  0  0  0  0  0  0  0  0  0
   39.6750   33.6550   39.8290 C   0  0  0  0  0  0  0  0  0  0  0  0
   39.3310   32.4610   40.5250 C   0  0  0  0  0  0  0  0  0  0  0  0
   40.2990   31.8250   41.2800 C   0  0  0  0  0  0  0  0  0  0  0  0
   41.5400   32.3810   41.3160 N   0  0  0  0  0  0  0  0  0  0  0  0
   41.8530   33.5230   40.6450 C   0  0  0  0  0  0  0  0  0  0  0  0
   40.9270   34.1590   39.9030 N   0  0  0  0  0  0  0  0  0  0  0  0
   38.9050   34.1480   39.2380 H   0  0  0  0  0  0  0  0  0  0  0  0
   40.0630   30.9270   41.8110 H   0  0  0  0  0  0  0  0  0  0  0  0
   42.8770   33.8540   40.7610 H   0  0  0  0  0  0  0  0  0  0  0  0
   36.7260   27.6630   40.8080 C   0  0  0  0  0  3  0  0  0  0  0  0
   36.7230   28.3170   42.1980 C   0  0  0  0  0  2  0  0  0  0  0  0
   36.6150   27.1510   43.1600 C   0  0  0  0  0  2  0  0  0  0  0  0
   37.1060   25.9230   42.4400 C   0  0  0  0  0  2  0  0  0  0  0  0
   37.3890   26.3410   40.9990 C   0  0  0  0  0  2  0  0  0  0  0  0
  1  2  1  6  0  0  0
  1  6  1  0  0  0  0
  2  7  1  0  0  0  0
  3  2  1  0  0  0  0
  3  9  1  0  0  0  0
  4 11  1  0  0  0  0
  4  3  1  0  0  0  0
  4  5  1  0  0  0  0
  5 13  1  0  0  0  0
  5  6  1  0  0  0  0
  6 15  1  1  0  0  0
  6 32  1  0  0  0  0
  8  2  1  0  0  0  0
 10  3  1  0  0  0  0
 12  4  1  0  0  0  0
 14  5  1  0  0  0  0
 16 24  1  0  0  0  0
 16 19  1  1  0  0  0
 17 18  1  0  0  0  0
 17 20  1  0  0  0  0
 17 16  1  0  0  0  0
 18 22  1  6  0  0  0
 18  1  1  0  0  0  0
 18 16  1  0  0  0  0
 21 17  1  0  0  0  0
 23 28  2  0  0  0  0
 23 24  1  0  0  0  0
 24 25  2  0  0  0  0
 25 26  1  0  0  0  0
 25 30  1  0  0  0  0
 27 31  1  0  0  0  0
 27 26  2  0  0  0  0
 28 27  1  0  0  0  0
 29 23  1  0  0  0  0
 32 36  1  0  0  0  0
 32 33  1  0  0  0  0
 33 34  1  0  0  0  0
 35 34  1  0  0  0  0
 36 35  1  0  0  0  0
M  END
>  <minimizedAffinity>
-4.91606283

$$$$

 OpenBabel03252506443D

 36 39  0  0  1  0  0  0  0  0999 V2000
   39.5140   27.9870   41.1610 N   0  0  1  0  0  0  0  0  0  0  0  0
   40.7150   27.4000   41.7270 C   0  0  0  0  0  0  0  0  0  0  0  0
   40.5100   26.1340   42.4730 C   0  0  0  0  0  0  0  0  0  0  0  0
   39.6300   26.3770   43.6700 C   0  0  0  0  0  0  0  0  0  0  0  0
   38.6220   27.4440   43.4030 C   0  0  0  0  0  0  0  0  0  0  0  0
   38.3750   27.5710   41.9190 C   0  0  2  0  0  0  0  0  0  0  0  0
   41.4950   27.3110   40.9310 H   0  0  0  0  0  0  0  0  0  0  0  0
   41.1540   28.1300   42.4530 H   0  0  0  0  0  0  0  0  0  0  0  0
   40.2550   25.2430   41.8790 H   0  0  0  0  0  0  0  0  0  0  0  0
   41.5420   25.8710   42.8810 H   0  0  0  0  0  0  0  0  0  0  0  0
   39.1790   25.4210   44.0230 H   0  0  0  0  0  0  0  0  0  0  0  0
   40.2820   26.6870   44.5150 H   0  0  0  0  0  0  0  0  0  0  0  0
   37.6780   27.3790   43.9340 H   0  0  0  0  0  0  0  0  0  0  0  0
   39.0730   28.4220   43.7150 H   0  0  0  0  0  0  0  0  0  0  0  0
   37.7320   28.5190   41.9000 H   0  0  0  0  0  0  0  0  0  0  0  0
   39.7120   30.2230   39.8850 C   0  0  1  0  0  0  0  0  0  0  0  0
   40.9890   29.8710   40.5050 C   0  0  0  0  0  0  0  0  0  0  0  0
   39.7290   29.4030   41.1390 C   0  0  2  0  0  0  0  0  0  0  0  0
   39.3530   29.6880   38.9810 H   0  0  0  0  0  0  0  0  0  0  0  0
   41.6740   29.1370   40.0180 H   0  0  0  0  0  0  0  0  0  0  0  0
   41.5540   30.6690   41.0260 H   0  0  0  0  0  0  0  0  0  0  0  0
   39.3520   29.9500   42.0390 H   0  0  0  0  0  0  0  0  0  0  0  0
   37.8670   31.8870   39.4870 C   0  0  0  0  0  0  0  0  0  0  0  0
   39.1870   31.6180   39.9490 C   0  0  0  0  0  0  0  0  0  0  0  0
   39.9440   32.6600   40.4530 C   0  0  0  0  0  0  0  0  0  0  0  0
   39.3800   33.8970   40.4780 N   0  0  0  0  0  0  0  0  0  0  0  0
   38.1160   34.1380   40.0320 C   0  0  0  0  0  0  0  0  0  0  0  0
   37.3610   33.1390   39.5370 N   0  0  0  0  0  0  0  0  0  0  0  0
   37.2800   31.0590   39.0920 H   0  0  0  0  0  0  0  0  0  0  0  0
   40.9380   32.4820   40.8070 H   0  0  0  0  0  0  0  0  0  0  0  0
   37.7940   35.1680   40.1100 H   0  0  0  0  0  0  0  0  0  0  0  0
   37.5060   26.5450   41.3220 C   0  0  0  0  0  3  0  0  0  0  0  0
   37.1080   25.4210   42.2900 C   0  0  0  0  0  2  0  0  0  0  0  0
   36.6570   24.2920   41.3850 C   0  0  0  0  0  2  0  0  0  0  0  0
   37.2880   24.5130   40.0360 C   0  0  0  0  0  2  0  0  0  0  0  0
   38.0170   25.8520   40.1050 C   0  0  0  0  0  2  0  0  0  0  0  0
  1  2  1  1  0  0  0
  1  6  1  0  0  0  0
  2  8  1  0  0  0  0
  2  3  1  0  0  0  0
  3 10  1  0  0  0  0
  3  4  1  0  0  0  0
  4 11  1  0  0  0  0
  4 12  1  0  0  0  0
  5  4  1  0  0  0  0
  5 14  1  0  0  0  0
  5 13  1  0  0  0  0
  6 15  1  6  0  0  0
  6  5  1  0  0  0  0
  7  2  1  0  0  0  0
  9  3  1  0  0  0  0
 16 19  1  6  0  0  0
 16 24  1  0  0  0  0
 16 17  1  0  0  0  0
 16 18  1  0  0  0  0
 17 21  1  0  0  0  0
 17 18  1  0  0  0  0
 18  1  1  0  0  0  0
 18 22  1  1  0  0  0
 20 17  1  0  0  0  0
 23 28  2  0  0  0  0
 23 24  1  0  0  0  0
 24 25  2  0  0  0  0
 25 26  1  0  0  0  0
 25 30  1  0  0  0  0
 27 31  1  0  0  0  0
 27 26  2  0  0  0  0
 28 27  1  0  0  0  0
 29 23  1  0  0  0  0
 32  6  1  0  0  0  0
 32 33  1  0  0  0  0
 34 33  1  0  0  0  0
 35 36  1  0  0  0  0
 35 34  1  0  0  0  0
 36 32  1  0  0  0  0
M  END
>  <minimizedAffinity>
-4.87045622

$$$$

 OpenBabel03252506443D

 36 39  0  0  1  0  0  0  0  0999 V2000
   37.2130   28.8650   41.6580 N   0  0  1  0  0  0  0  0  0  0  0  0
   36.5550   27.9840   42.6060 C   0  0  0  0  0  0  0  0  0  0  0  0
   37.4270   27.4450   43.6800 C   0  0  0  0  0  0  0  0  0  0  0  0
   38.5110   26.5880   43.0840 C   0  0  0  0  0  0  0  0  0  0  0  0
   38.9310   27.0870   41.7420 C   0  0  0  0  0  0  0  0  0  0  0  0
   38.6090   28.5550   41.6050 C   0  0  2  0  0  0  0  0  0  0  0  0
   35.6400   28.4840   43.0040 H   0  0  0  0  0  0  0  0  0  0  0  0
   36.1580   27.0990   42.0460 H   0  0  0  0  0  0  0  0  0  0  0  0
   37.7640   28.1570   44.4490 H   0  0  0  0  0  0  0  0  0  0  0  0
   36.7520   26.7430   44.2730 H   0  0  0  0  0  0  0  0  0  0  0  0
   39.3580   26.4770   43.7990 H   0  0  0  0  0  0  0  0  0  0  0  0
   38.1130   25.5550   42.9860 H   0  0  0  0  0  0  0  0  0  0  0  0
   39.9570   26.9010   41.4420 H   0  0  0  0  0  0  0  0  0  0  0  0
   38.2980   26.5700   40.9740 H   0  0  0  0  0  0  0  0  0  0  0  0
   38.8330   28.7110   40.4930 H   0  0  0  0  0  0  0  0  0  0  0  0
   35.9850   29.8530   39.6130 C   0  0  1  0  0  0  0  0  0  0  0  0
   35.0730   29.0370   40.4140 C   0  0  0  0  0  0  0  0  0  0  0  0
   36.5220   28.7060   40.4140 C   0  0  2  0  0  0  0  0  0  0  0  0
   36.3050   30.8560   39.9610 H   0  0  0  0  0  0  0  0  0  0  0  0
   34.5980   29.4540   41.3340 H   0  0  0  0  0  0  0  0  0  0  0  0
   34.3920   28.3410   39.8850 H   0  0  0  0  0  0  0  0  0  0  0  0
   36.8690   27.8440   39.7880 H   0  0  0  0  0  0  0  0  0  0  0  0
   34.9130   29.1070   37.4610 C   0  0  0  0  0  0  0  0  0  0  0  0
   35.9960   29.7530   38.1240 C   0  0  0  0  0  0  0  0  0  0  0  0
   37.0260   30.2780   37.3650 C   0  0  0  0  0  0  0  0  0  0  0  0
   36.9470   30.1460   36.0140 N   0  0  0  0  0  0  0  0  0  0  0  0
   35.9050   29.5240   35.3960 C   0  0  0  0  0  0  0  0  0  0  0  0
   34.8920   29.0050   36.1140 N   0  0  0  0  0  0  0  0  0  0  0  0
   34.1080   28.6970   38.0690 H   0  0  0  0  0  0  0  0  0  0  0  0
   37.8490   30.7690   37.8410 H   0  0  0  0  0  0  0  0  0  0  0  0
   35.9710   29.4900   34.3160 H   0  0  0  0  0  0  0  0  0  0  0  0
   39.5300   29.4810   42.2820 C   0  0  0  0  0  3  0  0  0  0  0  0
   39.5960   30.8770   41.6440 C   0  0  0  0  0  2  0  0  0  0  0  0
   40.8920   31.4650   42.1630 C   0  0  0  0  0  2  0  0  0  0  0  0
   41.7770   30.3170   42.5750 C   0  0  0  0  0  2  0  0  0  0  0  0
   40.9490   29.0450   42.4160 C   0  0  0  0  0  2  0  0  0  0  0  0
  1  2  1  1  0  0  0
  2  7  1  0  0  0  0
  2  3  1  0  0  0  0
  3 10  1  0  0  0  0
  3  9  1  0  0  0  0
  4  3  1  0  0  0  0
  4 11  1  0  0  0  0
  5  4  1  0  0  0  0
  6 15  1  6  0  0  0
  6  1  1  0  0  0  0
  6  5  1  0  0  0  0
  6 32  1  0  0  0  0
  8  2  1  0  0  0  0
 12  4  1  0  0  0  0
 13  5  1  0  0  0  0
 14  5  1  0  0  0  0
 16 19  1  1  0  0  0
 16 18  1  0  0  0  0
 16 17  1  0  0  0  0
 17 20  1  0  0  0  0
 18 22  1  6  0  0  0
 18 17  1  0  0  0  0
 18  1  1  0  0  0  0
 21 17  1  0  0  0  0
 23 29  1  0  0  0  0
 23 24  1  0  0  0  0
 24 16  1  0  0  0  0
 25 30  1  0  0  0  0
 25 24  2  0  0  0  0
 26 25  1  0  0  0  0
 27 26  2  0  0  0  0
 27 28  1  0  0  0  0
 28 23  2  0  0  0  0
 31 27  1  0  0  0  0
 32 36  1  0  0  0  0
 33 34  1  0  0  0  0
 33 32  1  0  0  0  0
 34 35  1  0  0  0  0
 36 35  1  0  0  0  0
M  END
>  <minimizedAffinity>
-4.79389811

$$$$
