
 OpenBabel03252506283D

 43 47  0  0  0  0  0  0  0  0999 V2000
   46.7500   30.6640   48.7130 C   0  0  0  0  0  0  0  0  0  0  0  0
   47.4730   29.8470   48.7800 H   0  0  0  0  0  0  0  0  0  0  0  0
   46.9880   31.4110   49.4750 H   0  0  0  0  0  0  0  0  0  0  0  0
   46.4270   32.7630   45.8380 C   0  0  0  0  0  0  0  0  0  0  0  0
   47.3230   31.7810   45.3820 C   0  0  0  0  0  0  0  0  0  0  0  0
   47.5420   30.8990   46.3870 C   0  0  0  0  0  0  0  0  0  0  0  0
   46.8160   31.3170   47.4150 N   0  0  0  0  0  0  0  0  0  0  0  0
   46.1420   32.4270   47.1120 N   0  0  0  0  0  0  0  0  0  0  0  0
   47.7910   31.6940   44.4020 H   0  0  0  0  0  0  0  0  0  0  0  0
   48.1840   30.0170   46.3740 H   0  0  0  0  0  0  0  0  0  0  0  0
   44.5460   35.7230   44.8260 C   0  0  0  0  0  0  0  0  0  0  0  0
   45.0270   36.0080   43.5600 C   0  0  0  0  0  0  0  0  0  0  0  0
   46.0140   35.1520   43.0660 C   0  0  0  0  0  0  0  0  0  0  0  0
   46.4310   34.1290   43.8260 N   0  0  0  0  0  0  0  0  0  0  0  0
   45.9490   33.8780   45.0480 C   0  0  0  0  0  0  0  0  0  0  0  0
   44.9980   34.6880   45.5440 N   0  0  0  0  0  0  0  0  0  0  0  0
   43.7790   36.3830   45.2180 H   0  0  0  0  0  0  0  0  0  0  0  0
   44.7100   36.8250   42.9210 H   0  0  0  0  0  0  0  0  0  0  0  0
   46.6130   35.3350   41.7400 C   0  0  0  0  0  0  0  0  0  0  0  0
   46.3700   34.1390   40.8750 C   0  0  0  0  0  0  0  0  0  0  0  0
   47.5380   34.1220   39.9190 C   0  0  0  0  0  0  0  0  0  0  0  0
   48.5910   35.0440   40.4910 C   0  0  0  0  0  0  0  0  0  0  0  0
   48.1210   35.3940   41.8850 C   0  0  0  0  0  0  0  0  0  0  0  0
   45.3730   30.1460   48.9660 C   0  0  0  0  0  0  0  0  0  0  0  0
   45.3740   29.7660   50.0220 H   0  0  0  0  0  0  0  0  0  0  0  0
   44.6610   30.9980   48.9840 H   0  0  0  0  0  0  0  0  0  0  0  0
   44.9620   27.7100   48.2690 C   0  0  0  0  0  0  0  0  0  0  0  0
   44.9050   29.0800   48.0970 C   0  0  0  0  0  0  0  0  0  0  0  0
   44.3080   29.5120   46.9140 C   0  0  0  0  0  0  0  0  0  0  0  0
   43.8110   28.6440   45.9810 C   0  0  0  0  0  0  0  0  0  0  0  0
   43.2030   28.7700   44.7880 N   0  0  0  0  0  0  0  0  0  0  0  0
   42.9040   27.5800   44.2560 C   0  0  0  0  0  0  0  0  0  0  0  0
   43.3290   26.5930   45.1270 C   0  0  0  0  0  0  0  0  0  0  0  0
   43.8830   27.2900   46.1790 C   0  0  0  0  0  0  0  0  0  0  0  0
   44.4650   26.8390   47.3360 C   0  0  0  0  0  0  0  0  0  0  0  0
   45.4360   27.4110   49.2090 H   0  0  0  0  0  0  0  0  0  0  0  0
   44.1930   30.5660   46.6440 H   0  0  0  0  0  0  0  0  0  0  0  0
   42.9720   29.6780   44.2970 H   0  0  0  0  0  0  0  0  0  0  0  0
   42.4130   27.3710   43.3040 H   0  0  0  0  0  0  0  0  0  0  0  0
   43.2360   25.5220   44.9940 H   0  0  0  0  0  0  0  0  0  0  0  0
   44.5650   25.4130   47.5940 C   0  0  0  0  0  0  0  0  0  0  0  0
   44.9910   24.9560   48.6860 O   0  0  0  0  0  0  0  0  0  0  0  0
   44.2730   24.6890   46.8440 H   0  0  0  0  0  0  0  0  0  0  0  0
  1  2  1  0  0  0  0
  1 24  1  0  0  0  0
  1  3  1  0  0  0  0
  4  8  2  0  0  0  0
  5  4  1  0  0  0  0
  5  6  2  0  0  0  0
  6  7  1  0  0  0  0
  7  1  1  0  0  0  0
  8  7  1  0  0  0  0
  9  5  1  0  0  0  0
 10  6  1  0  0  0  0
 11 17  1  0  0  0  0
 11 16  1  0  0  0  0
 12 11  2  0  0  0  0
 13 12  1  0  0  0  0
 13 14  2  0  0  0  0
 14 15  1  0  0  0  0
 15 16  2  0  0  0  0
 15  4  1  0  0  0  0
 18 12  1  0  0  0  0
 19 23  1  0  0  0  0
 19 13  1  0  0  0  0
 20 19  1  0  0  0  0
 21 22  1  0  0  0  0
 21 20  1  0  0  0  0
 22 23  1  0  0  0  0
 24 26  1  0  0  0  0
 24 25  1  0  0  0  0
 27 36  1  0  0  0  0
 28 27  1  0  0  0  0
 28 24  1  0  0  0  0
 29 28  2  0  0  0  0
 30 34  2  0  0  0  0
 30 29  1  0  0  0  0
 31 30  1  0  0  0  0
 32 31  1  0  0  0  0
 32 33  2  0  0  0  0
 33 34  1  0  0  0  0
 34 35  1  0  0  0  0
 35 41  1  0  0  0  0
 35 27  2  0  0  0  0
 37 29  1  0  0  0  0
 38 31  1  0  0  0  0
 39 32  1  0  0  0  0
 40 33  1  0  0  0  0
 41 42  2  0  0  0  0
 43 41  1  0  0  0  0
M  END
>  <minimizedAffinity>
-6.32859516

>  <minimizedRMSD>
0.855104983

$$$$
