
 OpenBabel03252507533D

 34 37  0  0  1  0  0  0  0  0999 V2000
   43.1250   33.1470   40.6100 C   0  0  2  0  0  0  0  0  0  0  0  0
   42.9910   32.3610   41.8890 C   0  0  0  0  0  0  0  0  0  0  0  0
   44.4630   32.0120   42.1040 C   0  0  0  0  0  0  0  0  0  0  0  0
   45.2280   33.2150   41.5780 C   0  0  1  0  0  0  0  0  0  0  0  0
   44.2040   34.1440   41.0400 C   0  0  0  0  0  0  0  0  0  0  0  0
   43.4790   32.5250   39.7870 H   0  0  0  0  0  0  0  0  0  0  0  0
   42.3730   31.4490   41.7770 H   0  0  0  0  0  0  0  0  0  0  0  0
   42.5970   33.0280   42.6610 H   0  0  0  0  0  0  0  0  0  0  0  0
   44.6590   31.8070   43.1740 H   0  0  0  0  0  0  0  0  0  0  0  0
   44.6720   31.1540   41.4330 H   0  0  0  0  0  0  0  0  0  0  0  0
   45.8920   32.9250   40.7380 H   0  0  0  0  0  0  0  0  0  0  0  0
   43.5960   34.7070   41.7630 H   0  0  0  0  0  0  0  0  0  0  0  0
   44.4480   34.6500   40.1040 H   0  0  0  0  0  0  0  0  0  0  0  0
   40.0740   34.3170   38.7230 C   0  0  0  0  0  0  0  0  0  0  0  0
   41.2300   33.5730   39.0090 C   0  0  0  0  0  0  0  0  0  0  0  0
   41.8810   33.8590   40.2130 C   0  0  0  0  0  0  0  0  0  0  0  0
   41.3840   34.8400   41.0670 N   0  0  0  0  0  0  0  0  0  0  0  0
   40.2610   35.5180   40.7250 C   0  0  0  0  0  0  0  0  0  0  0  0
   39.6180   35.2630   39.5740 N   0  0  0  0  0  0  0  0  0  0  0  0
   39.5440   34.1210   37.7990 H   0  0  0  0  0  0  0  0  0  0  0  0
   41.6240   32.8140   38.3570 H   0  0  0  0  0  0  0  0  0  0  0  0
   39.9880   36.2480   41.4770 H   0  0  0  0  0  0  0  0  0  0  0  0
   45.9820   33.9460   42.6220 C   0  0  2  0  0  0  0  0  0  0  0  0
   45.7540   35.4040   42.7350 C   0  0  0  0  0  0  0  0  0  0  0  0
   47.1120   34.8000   42.4690 C   0  0  2  0  0  0  0  0  0  0  0  0
   45.8470   33.3880   43.6030 H   0  0  0  0  0  0  0  0  0  0  0  0
   45.5070   35.8030   43.7650 H   0  0  0  0  0  0  0  0  0  0  0  0
   45.6060   36.1760   42.0170 H   0  0  0  0  0  0  0  0  0  0  0  0
   47.7570   34.8630   43.4140 H   0  0  0  0  0  0  0  0  0  0  0  0
   47.9650   35.1080   41.3170 C   0  0  0  0  0  3  0  0  0  0  0  0
   48.6330   33.8850   40.7750 C   0  0  0  0  0  2  0  0  0  0  0  0
   49.5580   33.5340   41.9500 C   0  0  0  0  0  2  0  0  0  0  0  0
   50.0040   34.8900   42.4790 C   0  0  0  0  0  2  0  0  0  0  0  0
   49.1780   35.9230   41.7460 C   0  0  0  0  0  2  0  0  0  0  0  0
  1  6  1  6  0  0  0
  1  5  1  0  0  0  0
  1  2  1  0  0  0  0
  2  3  1  0  0  0  0
  2  8  1  0  0  0  0
  3  9  1  0  0  0  0
  4 11  1  6  0  0  0
  4  3  1  0  0  0  0
  4 23  1  0  0  0  0
  5  4  1  0  0  0  0
  5 12  1  0  0  0  0
  7  2  1  0  0  0  0
 10  3  1  0  0  0  0
 13  5  1  0  0  0  0
 14 15  2  0  0  0  0
 14 19  1  0  0  0  0
 15 16  1  0  0  0  0
 16  1  1  0  0  0  0
 16 17  2  0  0  0  0
 18 17  1  0  0  0  0
 18 22  1  0  0  0  0
 19 18  2  0  0  0  0
 20 14  1  0  0  0  0
 21 15  1  0  0  0  0
 23 24  1  0  0  0  0
 23 26  1  1  0  0  0
 24 27  1  0  0  0  0
 25 23  1  0  0  0  0
 25 24  1  0  0  0  0
 25 29  1  1  0  0  0
 28 24  1  0  0  0  0
 30 34  1  0  0  0  0
 30 25  1  0  0  0  0
 31 30  1  0  0  0  0
 31 32  1  0  0  0  0
 32 33  1  0  0  0  0
 34 33  1  0  0  0  0
M  END
>  <minimizedAffinity>
-5.40615416

>  <minimizedRMSD>
4.97121572

$$$$
