
 OpenBabel03252509163D

 21 23  0  0  0  0  0  0  0  0999 V2000
   45.9500   32.9820   45.9200 C   0  0  0  0  0  0  0  0  0  0  0  0
   45.5030   32.7700   47.2550 C   0  0  0  0  0  0  0  0  0  0  0  0
   45.9180   31.6510   47.9010 C   0  0  0  0  0  0  0  0  0  0  0  0
   46.7760   30.7500   47.2160 C   0  0  0  0  0  0  0  0  0  0  0  0
   47.0030   31.5330   45.5680 S   0  0  0  0  0  0  0  0  0  0  0  0
   44.8530   33.4960   47.7150 H   0  0  0  0  0  0  0  0  0  0  0  0
   45.6410   31.4000   48.8900 H   0  0  0  0  0  0  0  0  0  0  0  0
   44.5070   36.1270   44.5820 C   0  0  0  0  0  0  0  0  0  0  0  0
   45.1360   36.1490   43.3090 C   0  0  0  0  0  0  0  0  0  0  0  0
   46.0090   35.1070   42.9710 C   0  0  0  0  0  0  0  0  0  0  0  0
   46.2040   34.1200   43.9030 N   0  0  0  0  0  0  0  0  0  0  0  0
   45.5820   34.1440   45.1020 C   0  0  0  0  0  0  0  0  0  0  0  0
   44.7330   35.1420   45.4490 N   0  0  0  0  0  0  0  0  0  0  0  0
   43.8350   36.9350   44.8350 H   0  0  0  0  0  0  0  0  0  0  0  0
   44.9770   36.9250   42.5890 H   0  0  0  0  0  0  0  0  0  0  0  0
   46.5250   35.0530   42.0230 H   0  0  0  0  0  0  0  0  0  0  0  0
   47.3880   29.5280   47.5650 C   0  0  0  0  0  3  0  0  0  0  0  0
   46.5460   28.2860   47.5040 C   0  0  0  0  0  2  0  0  0  0  0  0
   46.7030   27.7840   46.1150 C   0  0  0  0  0  2  0  0  0  0  0  0
   48.1360   28.1030   45.7620 C   0  0  0  0  0  2  0  0  0  0  0  0
   48.5580   29.2140   46.6730 C   0  0  0  0  0  2  0  0  0  0  0  0
  1  2  2  0  0  0  0
  2  6  1  0  0  0  0
  2  3  1  0  0  0  0
  3  7  1  0  0  0  0
  4 17  1  0  0  0  0
  4  3  2  0  0  0  0
  5  1  1  0  0  0  0
  5  4  1  0  0  0  0
  8 14  1  0  0  0  0
  8 13  1  0  0  0  0
  9  8  2  0  0  0  0
 10  9  1  0  0  0  0
 10 11  2  0  0  0  0
 11 12  1  0  0  0  0
 12 13  2  0  0  0  0
 12  1  1  0  0  0  0
 15  9  1  0  0  0  0
 16 10  1  0  0  0  0
 18 17  1  0  0  0  0
 19 18  1  0  0  0  0
 20 19  1  0  0  0  0
 20 21  1  0  0  0  0
 21 17  1  0  0  0  0
M  END
>  <minimizedAffinity>
-4.27168512

>  <minimizedRMSD>
1.78175914

$$$$
