
 OpenBabel03242520483D

 15 16  0  0  0  0  0  0  0  0999 V2000
   44.4400   36.0150   45.0550 C   0  0  0  0  0  0  0  0  0  0  0  0
   44.9560   36.0640   43.7580 C   0  0  0  0  0  0  0  0  0  0  0  0
   45.7510   35.0120   43.3120 C   0  0  0  0  0  0  0  0  0  0  0  0
   45.9970   33.9790   44.1520 N   0  0  0  0  0  0  0  0  0  0  0  0
   45.4790   33.9640   45.4100 C   0  0  0  0  0  0  0  0  0  0  0  0
   44.7010   34.9820   45.8580 N   0  0  0  0  0  0  0  0  0  0  0  0
   43.8230   36.8430   45.3840 H   0  0  0  0  0  0  0  0  0  0  0  0
   44.7830   36.8730   43.0530 H   0  0  0  0  0  0  0  0  0  0  0  0
   45.7020   33.1190   46.0440 H   0  0  0  0  0  0  0  0  0  0  0  0
   46.3270   34.9280   42.0570 O   0  0  0  0  0  0  0  0  0  0  0  0
   47.4860   34.2440   41.7250 C   0  0  0  0  0  0  0  0  0  0  0  0
   48.7370   34.8070   42.3490 C   0  0  0  0  0  0  0  0  0  0  0  0
   49.0240   35.9830   41.4650 C   0  0  0  0  0  0  0  0  0  0  0  0
   48.8740   35.3870   40.0880 C   0  0  0  0  0  0  0  0  0  0  0  0
   47.7630   34.3990   40.2310 C   0  0  0  0  0  0  0  0  0  0  0  0
  1  7  1  0  0  0  0
  1  6  1  0  0  0  0
  2  1  2  0  0  0  0
  3  2  1  0  0  0  0
  3  4  2  0  0  0  0
  4  5  1  0  0  0  0
  5  6  2  0  0  0  0
  5  9  1  0  0  0  0
  8  2  1  0  0  0  0
 10  3  1  0  0  0  0
 11 10  1  0  0  0  0
 11 12  1  0  0  0  0
 13 12  1  0  0  0  0
 14 15  1  0  0  0  0
 14 13  1  0  0  0  0
 15 11  1  0  0  0  0
M  END
>  <minimizedAffinity>
-4.46489859

>  <minimizedRMSD>
2.12729836

$$$$
