
 OpenBabel03242514283D

 24 26  0  0  0  0  0  0  0  0999 V2000
   37.3430   28.0310   43.6790 C   0  0  0  0  0  0  0  0  0  0  0  0
   37.1760   26.8520   42.9380 C   0  0  0  0  0  0  0  0  0  0  0  0
   37.5370   26.8640   41.5630 C   0  0  0  0  0  0  0  0  0  0  0  0
   38.0210   28.0290   41.0620 N   0  0  0  0  0  0  0  0  0  0  0  0
   38.1690   29.1410   41.7950 C   0  0  0  0  0  0  0  0  0  0  0  0
   37.8310   29.1500   43.1120 N   0  0  0  0  0  0  0  0  0  0  0  0
   37.0540   27.9610   44.7110 H   0  0  0  0  0  0  0  0  0  0  0  0
   36.8030   25.9210   43.2870 H   0  0  0  0  0  0  0  0  0  0  0  0
   36.1450   31.1240   40.6890 Cl  0  0  0  0  0  0  0  0  0  0  0  0
   37.8570   31.3340   40.6910 C   0  0  0  0  0  0  0  0  0  0  0  0
   38.6950   30.3770   41.2160 C   0  0  0  0  0  0  0  0  0  0  0  0
   40.0460   30.6360   41.1710 C   0  0  0  0  0  0  0  0  0  0  0  0
   40.6030   31.7810   40.6380 C   0  0  0  0  0  0  0  0  0  0  0  0
   39.7420   32.7290   40.1150 C   0  0  0  0  0  0  0  0  0  0  0  0
   40.5120   34.1610   39.4540 Cl  0  0  0  0  0  0  0  0  0  0  0  0
   38.3870   32.5130   40.1390 C   0  0  0  0  0  0  0  0  0  0  0  0
   40.7040   29.8820   41.5840 H   0  0  0  0  0  0  0  0  0  0  0  0
   41.6800   31.8930   40.6480 H   0  0  0  0  0  0  0  0  0  0  0  0
   37.7510   33.2730   39.7250 H   0  0  0  0  0  0  0  0  0  0  0  0
   37.3980   25.6700   40.6970 C   0  0  0  0  0  3  0  0  0  0  0  0
   36.6220   24.5630   41.3900 C   0  0  0  0  0  2  0  0  0  0  0  0
   36.3430   23.6170   40.2340 C   0  0  0  0  0  2  0  0  0  0  0  0
   36.2790   24.4820   38.9980 C   0  0  0  0  0  2  0  0  0  0  0  0
   36.5590   25.9020   39.4710 C   0  0  0  0  0  2  0  0  0  0  0  0
  1  7  1  0  0  0  0
  2  8  1  0  0  0  0
  2  1  2  0  0  0  0
  3  2  1  0  0  0  0
  4  3  2  0  0  0  0
  4  5  1  0  0  0  0
  5  6  2  0  0  0  0
  6  1  1  0  0  0  0
  9 10  1  0  0  0  0
 10 11  1  0  0  0  0
 11  5  1  0  0  0  0
 12 11  2  0  0  0  0
 12 17  1  0  0  0  0
 13 18  1  0  0  0  0
 13 12  1  0  0  0  0
 14 16  1  0  0  0  0
 14 13  2  0  0  0  0
 15 14  1  0  0  0  0
 16 10  2  0  0  0  0
 19 16  1  0  0  0  0
 20 21  1  0  0  0  0
 20  3  1  0  0  0  0
 22 21  1  0  0  0  0
 23 24  1  0  0  0  0
 23 22  1  0  0  0  0
 24 20  1  0  0  0  0
M  END
>  <minimizedAffinity>
-5.24075937

$$$$

 OpenBabel03242514283D

 24 26  0  0  0  0  0  0  0  0999 V2000
   37.2150   32.1620   39.5620 C   0  0  0  0  0  0  0  0  0  0  0  0
   37.3310   31.5280   40.8070 C   0  0  0  0  0  0  0  0  0  0  0  0
   37.0750   30.1310   40.8780 C   0  0  0  0  0  0  0  0  0  0  0  0
   36.7330   29.5070   39.7230 N   0  0  0  0  0  0  0  0  0  0  0  0
   36.6280   30.1390   38.5460 C   0  0  0  0  0  0  0  0  0  0  0  0
   36.8700   31.4750   38.4570 N   0  0  0  0  0  0  0  0  0  0  0  0
   37.4200   33.2160   39.5700 H   0  0  0  0  0  0  0  0  0  0  0  0
   37.5960   31.9740   41.7330 H   0  0  0  0  0  0  0  0  0  0  0  0
   33.8390   28.9320   38.4420 Cl  0  0  0  0  0  0  0  0  0  0  0  0
   35.0160   28.8490   37.1830 C   0  0  0  0  0  0  0  0  0  0  0  0
   36.2560   29.4280   37.3240 C   0  0  0  0  0  0  0  0  0  0  0  0
   37.1260   29.3090   36.2640 C   0  0  0  0  0  0  0  0  0  0  0  0
   36.8340   28.6510   35.0850 C   0  0  0  0  0  0  0  0  0  0  0  0
   35.5820   28.0760   34.9670 C   0  0  0  0  0  0  0  0  0  0  0  0
   35.2730   27.2560   33.4460 Cl  0  0  0  0  0  0  0  0  0  0  0  0
   34.6820   28.1710   35.9980 C   0  0  0  0  0  0  0  0  0  0  0  0
   38.1020   29.7650   36.3750 H   0  0  0  0  0  0  0  0  0  0  0  0
   37.5870   28.6100   34.3080 H   0  0  0  0  0  0  0  0  0  0  0  0
   33.7200   27.7120   35.8680 H   0  0  0  0  0  0  0  0  0  0  0  0
   37.1720   29.3710   42.1470 C   0  0  0  0  0  3  0  0  0  0  0  0
   36.4100   28.0600   42.0730 C   0  0  0  0  0  2  0  0  0  0  0  0
   36.9100   27.3470   43.3190 C   0  0  0  0  0  2  0  0  0  0  0  0
   38.3070   27.8660   43.5590 C   0  0  0  0  0  2  0  0  0  0  0  0
   38.5620   28.8930   42.4650 C   0  0  0  0  0  2  0  0  0  0  0  0
  1  7  1  0  0  0  0
  1  2  1  0  0  0  0
  2  3  2  0  0  0  0
  2  8  1  0  0  0  0
  3 20  1  0  0  0  0
  4  3  1  0  0  0  0
  5  4  2  0  0  0  0
  6  5  1  0  0  0  0
  6  1  2  0  0  0  0
 10 11  1  0  0  0  0
 10  9  1  0  0  0  0
 11  5  1  0  0  0  0
 12 17  1  0  0  0  0
 12 11  2  0  0  0  0
 13 12  1  0  0  0  0
 14 13  2  0  0  0  0
 14 16  1  0  0  0  0
 15 14  1  0  0  0  0
 16 10  2  0  0  0  0
 18 13  1  0  0  0  0
 19 16  1  0  0  0  0
 20 24  1  0  0  0  0
 21 20  1  0  0  0  0
 21 22  1  0  0  0  0
 22 23  1  0  0  0  0
 24 23  1  0  0  0  0
M  END
>  <minimizedAffinity>
-5.17953825

$$$$

 OpenBabel03242514283D

 24 26  0  0  0  0  0  0  0  0999 V2000
   36.5940   27.3690   43.6780 C   0  0  0  0  0  0  0  0  0  0  0  0
   36.7740   26.2070   42.9140 C   0  0  0  0  0  0  0  0  0  0  0  0
   37.3720   26.3310   41.6300 C   0  0  0  0  0  0  0  0  0  0  0  0
   37.7280   27.5790   41.2330 N   0  0  0  0  0  0  0  0  0  0  0  0
   37.5430   28.6720   41.9850 C   0  0  0  0  0  0  0  0  0  0  0  0
   36.9740   28.5740   43.2170 N   0  0  0  0  0  0  0  0  0  0  0  0
   36.1390   27.2130   44.6380 H   0  0  0  0  0  0  0  0  0  0  0  0
   36.5120   25.2140   43.1830 H   0  0  0  0  0  0  0  0  0  0  0  0
   40.4180   29.5180   42.5080 Cl  0  0  0  0  0  0  0  0  0  0  0  0
   39.2210   30.4700   41.7090 C   0  0  0  0  0  0  0  0  0  0  0  0
   37.9420   30.0000   41.5190 C   0  0  0  0  0  0  0  0  0  0  0  0
   37.0600   30.8330   40.8710 C   0  0  0  0  0  0  0  0  0  0  0  0
   37.3750   32.0960   40.4080 C   0  0  0  0  0  0  0  0  0  0  0  0
   38.6660   32.5480   40.6110 C   0  0  0  0  0  0  0  0  0  0  0  0
   39.0030   34.1580   40.0000 Cl  0  0  0  0  0  0  0  0  0  0  0  0
   39.5800   31.7500   41.2520 C   0  0  0  0  0  0  0  0  0  0  0  0
   36.0530   30.4620   40.7220 H   0  0  0  0  0  0  0  0  0  0  0  0
   36.6090   32.6770   39.9100 H   0  0  0  0  0  0  0  0  0  0  0  0
   40.5730   32.1360   41.3900 H   0  0  0  0  0  0  0  0  0  0  0  0
   37.6050   25.1620   40.7480 C   0  0  0  0  0  3  0  0  0  0  0  0
   38.6700   24.2390   41.3130 C   0  0  0  0  0  2  0  0  0  0  0  0
   38.5010   23.0090   40.4370 C   0  0  0  0  0  2  0  0  0  0  0  0
   37.0490   22.9910   40.0250 C   0  0  0  0  0  2  0  0  0  0  0  0
   36.4270   24.2340   40.6450 C   0  0  0  0  0  2  0  0  0  0  0  0
  1  7  1  0  0  0  0
  2  8  1  0  0  0  0
  2  1  2  0  0  0  0
  3  2  1  0  0  0  0
  4  3  2  0  0  0  0
  4  5  1  0  0  0  0
  5  6  2  0  0  0  0
  6  1  1  0  0  0  0
 10  9  1  0  0  0  0
 11 10  1  0  0  0  0
 11  5  1  0  0  0  0
 12 11  2  0  0  0  0
 13 14  2  0  0  0  0
 13 12  1  0  0  0  0
 14 16  1  0  0  0  0
 15 14  1  0  0  0  0
 16 19  1  0  0  0  0
 16 10  2  0  0  0  0
 17 12  1  0  0  0  0
 18 13  1  0  0  0  0
 20 21  1  0  0  0  0
 20  3  1  0  0  0  0
 22 21  1  0  0  0  0
 23 22  1  0  0  0  0
 23 24  1  0  0  0  0
 24 20  1  0  0  0  0
M  END
>  <minimizedAffinity>
-5.16771078

$$$$

 OpenBabel03242514283D

 24 26  0  0  0  0  0  0  0  0999 V2000
   36.2120   29.8650   37.9560 C   0  0  0  0  0  0  0  0  0  0  0  0
   35.8980   29.1330   39.1110 C   0  0  0  0  0  0  0  0  0  0  0  0
   36.7680   29.2360   40.2310 C   0  0  0  0  0  0  0  0  0  0  0  0
   37.8510   30.0420   40.1000 N   0  0  0  0  0  0  0  0  0  0  0  0
   38.1270   30.7300   38.9830 C   0  0  0  0  0  0  0  0  0  0  0  0
   37.3070   30.6460   37.9010 N   0  0  0  0  0  0  0  0  0  0  0  0
   35.5200   29.7480   37.1450 H   0  0  0  0  0  0  0  0  0  0  0  0
   35.0650   28.4920   39.2580 H   0  0  0  0  0  0  0  0  0  0  0  0
   37.8740   33.5590   40.0730 Cl  0  0  0  0  0  0  0  0  0  0  0  0
   39.2880   32.8850   39.3490 C   0  0  0  0  0  0  0  0  0  0  0  0
   39.3060   31.5900   38.8840 C   0  0  0  0  0  0  0  0  0  0  0  0
   40.4800   31.1430   38.3230 C   0  0  0  0  0  0  0  0  0  0  0  0
   41.6260   31.9050   38.2000 C   0  0  0  0  0  0  0  0  0  0  0  0
   41.5840   33.2030   38.6740 C   0  0  0  0  0  0  0  0  0  0  0  0
   43.0710   34.1180   38.4890 Cl  0  0  0  0  0  0  0  0  0  0  0  0
   40.4340   33.6910   39.2420 C   0  0  0  0  0  0  0  0  0  0  0  0
   40.4930   30.1240   37.9570 H   0  0  0  0  0  0  0  0  0  0  0  0
   42.5020   31.4630   37.7430 H   0  0  0  0  0  0  0  0  0  0  0  0
   40.4420   34.7040   39.5990 H   0  0  0  0  0  0  0  0  0  0  0  0
   36.5210   28.5020   41.4950 C   0  0  0  0  0  3  0  0  0  0  0  0
   37.0110   27.0670   41.4140 C   0  0  0  0  0  2  0  0  0  0  0  0
   36.9480   26.6410   42.8710 C   0  0  0  0  0  2  0  0  0  0  0  0
   37.1640   27.8980   43.6790 C   0  0  0  0  0  2  0  0  0  0  0  0
   37.3100   29.0230   42.6640 C   0  0  0  0  0  2  0  0  0  0  0  0
  1  2  1  0  0  0  0
  2  8  1  0  0  0  0
  2  3  2  0  0  0  0
  3 20  1  0  0  0  0
  4  3  1  0  0  0  0
  5  4  2  0  0  0  0
  6  1  2  0  0  0  0
  6  5  1  0  0  0  0
  7  1  1  0  0  0  0
 10  9  1  0  0  0  0
 11  5  1  0  0  0  0
 11 10  2  0  0  0  0
 12 11  1  0  0  0  0
 13 12  2  0  0  0  0
 13 14  1  0  0  0  0
 14 16  2  0  0  0  0
 15 14  1  0  0  0  0
 16 10  1  0  0  0  0
 16 19  1  0  0  0  0
 17 12  1  0  0  0  0
 18 13  1  0  0  0  0
 20 24  1  0  0  0  0
 21 20  1  0  0  0  0
 21 22  1  0  0  0  0
 22 23  1  0  0  0  0
 24 23  1  0  0  0  0
M  END
>  <minimizedAffinity>
-5.05674171

$$$$

 OpenBabel03242514283D

 24 26  0  0  0  0  0  0  0  0999 V2000
   34.9110   28.7830   35.8390 C   0  0  0  0  0  0  0  0  0  0  0  0
   33.5360   29.0510   35.7780 C   0  0  0  0  0  0  0  0  0  0  0  0
   32.8400   29.2780   36.9970 C   0  0  0  0  0  0  0  0  0  0  0  0
   33.5650   29.2170   38.1420 N   0  0  0  0  0  0  0  0  0  0  0  0
   34.8800   28.9580   38.1700 C   0  0  0  0  0  0  0  0  0  0  0  0
   35.5630   28.7390   37.0150 N   0  0  0  0  0  0  0  0  0  0  0  0
   35.3820   28.6200   34.8880 H   0  0  0  0  0  0  0  0  0  0  0  0
   32.9300   29.1090   34.9080 H   0  0  0  0  0  0  0  0  0  0  0  0
   36.0670   26.2710   38.9560 Cl  0  0  0  0  0  0  0  0  0  0  0  0
   36.1980   27.7300   39.8660 C   0  0  0  0  0  0  0  0  0  0  0  0
   35.6240   28.9010   39.4270 C   0  0  0  0  0  0  0  0  0  0  0  0
   35.7840   30.0120   40.2230 C   0  0  0  0  0  0  0  0  0  0  0  0
   36.4740   30.0240   41.4190 C   0  0  0  0  0  0  0  0  0  0  0  0
   37.0420   28.8350   41.8410 C   0  0  0  0  0  0  0  0  0  0  0  0
   37.9050   28.9150   43.3670 Cl  0  0  0  0  0  0  0  0  0  0  0  0
   36.9080   27.7020   41.0790 C   0  0  0  0  0  0  0  0  0  0  0  0
   35.3320   30.9340   39.8760 H   0  0  0  0  0  0  0  0  0  0  0  0
   36.5440   30.9500   41.9750 H   0  0  0  0  0  0  0  0  0  0  0  0
   37.3640   26.7980   41.4390 H   0  0  0  0  0  0  0  0  0  0  0  0
   31.3870   29.5700   37.0380 C   0  0  0  0  0  3  0  0  0  0  0  0
   30.9300   29.9430   38.4380 C   0  0  0  0  0  2  0  0  0  0  0  0
   29.5380   30.4890   38.1670 C   0  0  0  0  0  2  0  0  0  0  0  0
   29.5820   31.0590   36.7700 C   0  0  0  0  0  2  0  0  0  0  0  0
   30.9900   30.7920   36.2570 C   0  0  0  0  0  2  0  0  0  0  0  0
  1  6  1  0  0  0  0
  2  1  2  0  0  0  0
  2  3  1  0  0  0  0
  3 20  1  0  0  0  0
  3  4  2  0  0  0  0
  4  5  1  0  0  0  0
  5 11  1  0  0  0  0
  6  5  2  0  0  0  0
  7  1  1  0  0  0  0
  8  2  1  0  0  0  0
  9 10  1  0  0  0  0
 10 16  1  0  0  0  0
 11 10  2  0  0  0  0
 11 12  1  0  0  0  0
 12 13  2  0  0  0  0
 13 14  1  0  0  0  0
 13 18  1  0  0  0  0
 14 15  1  0  0  0  0
 16 19  1  0  0  0  0
 16 14  2  0  0  0  0
 17 12  1  0  0  0  0
 20 21  1  0  0  0  0
 22 21  1  0  0  0  0
 23 22  1  0  0  0  0
 24 23  1  0  0  0  0
 24 20  1  0  0  0  0
M  END
>  <minimizedAffinity>
-5.02389669

$$$$

 OpenBabel03242514283D

 24 26  0  0  0  0  0  0  0  0999 V2000
   36.1800   31.1130   40.9460 C   0  0  0  0  0  0  0  0  0  0  0  0
   37.2910   31.8660   40.5400 C   0  0  0  0  0  0  0  0  0  0  0  0
   38.4960   31.1770   40.2310 C   0  0  0  0  0  0  0  0  0  0  0  0
   38.4820   29.8260   40.3530 N   0  0  0  0  0  0  0  0  0  0  0  0
   37.4040   29.1310   40.7440 C   0  0  0  0  0  0  0  0  0  0  0  0
   36.2430   29.7720   41.0440 N   0  0  0  0  0  0  0  0  0  0  0  0
   35.3000   31.6870   41.1660 H   0  0  0  0  0  0  0  0  0  0  0  0
   37.3470   32.9210   40.4310 H   0  0  0  0  0  0  0  0  0  0  0  0
   37.8950   27.9760   43.5140 Cl  0  0  0  0  0  0  0  0  0  0  0  0
   37.6470   27.0590   42.0740 C   0  0  0  0  0  0  0  0  0  0  0  0
   37.4330   27.6740   40.8620 C   0  0  0  0  0  0  0  0  0  0  0  0
   37.2450   26.8570   39.7710 C   0  0  0  0  0  0  0  0  0  0  0  0
   37.2610   25.4770   39.8180 C   0  0  0  0  0  0  0  0  0  0  0  0
   37.4790   24.8810   41.0460 C   0  0  0  0  0  0  0  0  0  0  0  0
   37.4860   23.1250   41.0390 Cl  0  0  0  0  0  0  0  0  0  0  0  0
   37.6700   25.6560   42.1620 C   0  0  0  0  0  0  0  0  0  0  0  0
   37.0760   27.3420   38.8170 H   0  0  0  0  0  0  0  0  0  0  0  0
   37.1030   24.9200   38.9020 H   0  0  0  0  0  0  0  0  0  0  0  0
   37.8360   25.1570   43.0980 H   0  0  0  0  0  0  0  0  0  0  0  0
   39.7220   31.8840   39.7930 C   0  0  0  0  0  3  0  0  0  0  0  0
   39.9400   31.7510   38.2960 C   0  0  0  0  0  2  0  0  0  0  0  0
   41.0270   32.7860   38.0540 C   0  0  0  0  0  2  0  0  0  0  0  0
   40.8300   33.8470   39.1100 C   0  0  0  0  0  2  0  0  0  0  0  0
   39.6550   33.3770   39.9560 C   0  0  0  0  0  2  0  0  0  0  0  0
  1  6  1  0  0  0  0
  1  7  1  0  0  0  0
  2  1  2  0  0  0  0
  3  4  2  0  0  0  0
  3  2  1  0  0  0  0
  4  5  1  0  0  0  0
  5 11  1  0  0  0  0
  5  6  2  0  0  0  0
  8  2  1  0  0  0  0
 10 16  1  0  0  0  0
 10  9  1  0  0  0  0
 11 10  2  0  0  0  0
 12 13  2  0  0  0  0
 12 11  1  0  0  0  0
 13 14  1  0  0  0  0
 14 16  2  0  0  0  0
 15 14  1  0  0  0  0
 16 19  1  0  0  0  0
 17 12  1  0  0  0  0
 18 13  1  0  0  0  0
 20 24  1  0  0  0  0
 20  3  1  0  0  0  0
 21 20  1  0  0  0  0
 22 21  1  0  0  0  0
 22 23  1  0  0  0  0
 23 24  1  0  0  0  0
M  END
>  <minimizedAffinity>
-4.89989519

$$$$

 OpenBabel03242514283D

 24 26  0  0  0  0  0  0  0  0999 V2000
   37.2540   31.5170   38.5550 C   0  0  0  0  0  0  0  0  0  0  0  0
   36.7270   30.7290   39.5890 C   0  0  0  0  0  0  0  0  0  0  0  0
   37.5510   30.4580   40.7160 C   0  0  0  0  0  0  0  0  0  0  0  0
   38.8000   30.9870   40.7080 N   0  0  0  0  0  0  0  0  0  0  0  0
   39.2770   31.7370   39.7050 C   0  0  0  0  0  0  0  0  0  0  0  0
   38.5050   32.0090   38.6190 N   0  0  0  0  0  0  0  0  0  0  0  0
   36.5860   31.6880   37.7320 H   0  0  0  0  0  0  0  0  0  0  0  0
   35.7590   30.2950   39.6370 H   0  0  0  0  0  0  0  0  0  0  0  0
   41.4670   30.1130   38.3570 Cl  0  0  0  0  0  0  0  0  0  0  0  0
   41.6870   31.6270   39.1540 C   0  0  0  0  0  0  0  0  0  0  0  0
   40.6310   32.2890   39.7370 C   0  0  0  0  0  0  0  0  0  0  0  0
   40.9070   33.4900   40.3490 C   0  0  0  0  0  0  0  0  0  0  0  0
   42.1620   34.0630   40.4130 C   0  0  0  0  0  0  0  0  0  0  0  0
   43.2090   33.3800   39.8210 C   0  0  0  0  0  0  0  0  0  0  0  0
   44.7770   34.1600   39.9360 Cl  0  0  0  0  0  0  0  0  0  0  0  0
   42.9790   32.1790   39.1980 C   0  0  0  0  0  0  0  0  0  0  0  0
   40.0760   34.0110   40.8080 H   0  0  0  0  0  0  0  0  0  0  0  0
   42.2790   35.0140   40.9180 H   0  0  0  0  0  0  0  0  0  0  0  0
   43.8170   31.6780   38.7490 H   0  0  0  0  0  0  0  0  0  0  0  0
   37.0850   29.6360   41.8580 C   0  0  0  0  0  3  0  0  0  0  0  0
   36.6830   28.2400   41.4150 C   0  0  0  0  0  2  0  0  0  0  0  0
   36.5620   27.5220   42.7490 C   0  0  0  0  0  2  0  0  0  0  0  0
   37.5300   28.2110   43.6800 C   0  0  0  0  0  2  0  0  0  0  0  0
   38.1590   29.3340   42.8670 C   0  0  0  0  0  2  0  0  0  0  0  0
  1  6  2  0  0  0  0
  1  2  1  0  0  0  0
  2  8  1  0  0  0  0
  2  3  2  0  0  0  0
  3 20  1  0  0  0  0
  4  3  1  0  0  0  0
  5 11  1  0  0  0  0
  5  4  2  0  0  0  0
  6  5  1  0  0  0  0
  7  1  1  0  0  0  0
  9 10  1  0  0  0  0
 10 16  2  0  0  0  0
 10 11  1  0  0  0  0
 11 12  2  0  0  0  0
 12 13  1  0  0  0  0
 12 17  1  0  0  0  0
 13 18  1  0  0  0  0
 14 15  1  0  0  0  0
 14 13  2  0  0  0  0
 16 14  1  0  0  0  0
 19 16  1  0  0  0  0
 20 24  1  0  0  0  0
 21 20  1  0  0  0  0
 21 22  1  0  0  0  0
 22 23  1  0  0  0  0
 24 23  1  0  0  0  0
M  END
>  <minimizedAffinity>
-4.89923

$$$$

 OpenBabel03242514283D

 24 26  0  0  0  0  0  0  0  0999 V2000
   35.2110   28.6610   35.8690 C   0  0  0  0  0  0  0  0  0  0  0  0
   33.8300   28.8880   35.7950 C   0  0  0  0  0  0  0  0  0  0  0  0
   33.1350   29.2110   36.9930 C   0  0  0  0  0  0  0  0  0  0  0  0
   33.8690   29.2760   38.1330 N   0  0  0  0  0  0  0  0  0  0  0  0
   35.1900   29.0540   38.1740 C   0  0  0  0  0  0  0  0  0  0  0  0
   35.8720   28.7440   37.0380 N   0  0  0  0  0  0  0  0  0  0  0  0
   35.6810   28.4210   34.9330 H   0  0  0  0  0  0  0  0  0  0  0  0
   33.2170   28.8480   34.9290 H   0  0  0  0  0  0  0  0  0  0  0  0
   36.8780   31.5450   38.6140 Cl  0  0  0  0  0  0  0  0  0  0  0  0
   36.7350   30.2220   39.7130 C   0  0  0  0  0  0  0  0  0  0  0  0
   35.9430   29.1340   39.4240 C   0  0  0  0  0  0  0  0  0  0  0  0
   35.8930   28.1300   40.3640 C   0  0  0  0  0  0  0  0  0  0  0  0
   36.5800   28.1480   41.5620 C   0  0  0  0  0  0  0  0  0  0  0  0
   37.3700   29.2510   41.8300 C   0  0  0  0  0  0  0  0  0  0  0  0
   38.2160   29.2120   43.3680 Cl  0  0  0  0  0  0  0  0  0  0  0  0
   37.4490   30.2760   40.9230 C   0  0  0  0  0  0  0  0  0  0  0  0
   35.2700   27.2750   40.1360 H   0  0  0  0  0  0  0  0  0  0  0  0
   36.4770   27.3080   42.2370 H   0  0  0  0  0  0  0  0  0  0  0  0
   38.0720   31.1160   41.1680 H   0  0  0  0  0  0  0  0  0  0  0  0
   31.6760   29.4690   37.0190 C   0  0  0  0  0  3  0  0  0  0  0  0
   31.2100   29.9120   38.3950 C   0  0  0  0  0  2  0  0  0  0  0  0
   29.8050   30.4080   38.0950 C   0  0  0  0  0  2  0  0  0  0  0  0
   29.8350   30.8950   36.6660 C   0  0  0  0  0  2  0  0  0  0  0  0
   31.2490   30.6330   36.1670 C   0  0  0  0  0  2  0  0  0  0  0  0
  1  6  1  0  0  0  0
  2  1  2  0  0  0  0
  2  3  1  0  0  0  0
  3 20  1  0  0  0  0
  3  4  2  0  0  0  0
  4  5  1  0  0  0  0
  5 11  1  0  0  0  0
  6  5  2  0  0  0  0
  7  1  1  0  0  0  0
  8  2  1  0  0  0  0
  9 10  1  0  0  0  0
 10 16  1  0  0  0  0
 11 10  2  0  0  0  0
 11 12  1  0  0  0  0
 12 13  2  0  0  0  0
 13 14  1  0  0  0  0
 13 18  1  0  0  0  0
 14 15  1  0  0  0  0
 16 19  1  0  0  0  0
 16 14  2  0  0  0  0
 17 12  1  0  0  0  0
 20 21  1  0  0  0  0
 22 21  1  0  0  0  0
 23 22  1  0  0  0  0
 24 23  1  0  0  0  0
 24 20  1  0  0  0  0
M  END
>  <minimizedAffinity>
-4.77283287

$$$$

 OpenBabel03242514283D

 24 26  0  0  0  0  0  0  0  0999 V2000
   36.6600   30.0430   38.0710 C   0  0  0  0  0  0  0  0  0  0  0  0
   36.4910   29.7080   39.4220 C   0  0  0  0  0  0  0  0  0  0  0  0
   37.6490   29.4310   40.1990 C   0  0  0  0  0  0  0  0  0  0  0  0
   38.8480   29.5110   39.5680 N   0  0  0  0  0  0  0  0  0  0  0  0
   38.9800   29.8340   38.2740 C   0  0  0  0  0  0  0  0  0  0  0  0
   37.8840   30.1040   37.5150 N   0  0  0  0  0  0  0  0  0  0  0  0
   35.7510   30.2420   37.5370 H   0  0  0  0  0  0  0  0  0  0  0  0
   35.5760   29.6330   39.9550 H   0  0  0  0  0  0  0  0  0  0  0  0
   40.3140   32.5660   38.1700 Cl  0  0  0  0  0  0  0  0  0  0  0  0
   40.9740   31.1020   37.5380 C   0  0  0  0  0  0  0  0  0  0  0  0
   40.2930   29.9110   37.6330 C   0  0  0  0  0  0  0  0  0  0  0  0
   40.9010   28.7980   37.0990 C   0  0  0  0  0  0  0  0  0  0  0  0
   42.1370   28.8050   36.4820 C   0  0  0  0  0  0  0  0  0  0  0  0
   42.8030   30.0140   36.3980 C   0  0  0  0  0  0  0  0  0  0  0  0
   44.3670   29.9560   35.6030 Cl  0  0  0  0  0  0  0  0  0  0  0  0
   42.2340   31.1500   36.9170 C   0  0  0  0  0  0  0  0  0  0  0  0
   40.3650   27.8610   37.1740 H   0  0  0  0  0  0  0  0  0  0  0  0
   42.5330   27.8760   36.0920 H   0  0  0  0  0  0  0  0  0  0  0  0
   42.7830   32.0690   36.8330 H   0  0  0  0  0  0  0  0  0  0  0  0
   37.5740   29.0670   41.6330 C   0  0  0  0  0  3  0  0  0  0  0  0
   36.4800   28.0460   41.8950 C   0  0  0  0  0  2  0  0  0  0  0  0
   36.8040   27.6110   43.3140 C   0  0  0  0  0  2  0  0  0  0  0  0
   38.2970   27.7790   43.4680 C   0  0  0  0  0  2  0  0  0  0  0  0
   38.7890   28.3430   42.1420 C   0  0  0  0  0  2  0  0  0  0  0  0
  1  2  1  0  0  0  0
  2  8  1  0  0  0  0
  2  3  2  0  0  0  0
  3 20  1  0  0  0  0
  4  3  1  0  0  0  0
  5  4  2  0  0  0  0
  6  1  2  0  0  0  0
  6  5  1  0  0  0  0
  7  1  1  0  0  0  0
 10 11  1  0  0  0  0
 10  9  1  0  0  0  0
 11  5  1  0  0  0  0
 12 17  1  0  0  0  0
 12 11  2  0  0  0  0
 13 12  1  0  0  0  0
 14 13  2  0  0  0  0
 14 16  1  0  0  0  0
 15 14  1  0  0  0  0
 16 10  2  0  0  0  0
 18 13  1  0  0  0  0
 19 16  1  0  0  0  0
 20 21  1  0  0  0  0
 20 24  1  0  0  0  0
 21 22  1  0  0  0  0
 22 23  1  0  0  0  0
 24 23  1  0  0  0  0
M  END
>  <minimizedAffinity>
-4.77027321

$$$$
