
 OpenBabel03252505343D

 26 28  0  0  0  0  0  0  0  0999 V2000
   46.6440   34.7940   42.0740 C   0  0  0  0  0  0  0  0  0  0  0  0
   47.9110   35.2960   41.9720 C   0  0  0  0  0  0  0  0  0  0  0  0
   48.7140   35.1960   40.8440 C   0  0  0  0  0  0  0  0  0  0  0  0
   48.1940   34.5370   39.7340 C   0  0  0  0  0  0  0  0  0  0  0  0
   46.9150   34.0300   39.8350 C   0  0  0  0  0  0  0  0  0  0  0  0
   46.1390   34.1470   40.9740 C   0  0  0  0  0  0  0  0  0  0  0  0
   48.3800   35.8240   42.8050 H   0  0  0  0  0  0  0  0  0  0  0  0
   49.7120   35.6120   40.8170 H   0  0  0  0  0  0  0  0  0  0  0  0
   48.8220   34.4630   38.8610 H   0  0  0  0  0  0  0  0  0  0  0  0
   46.5530   33.5250   38.9430 H   0  0  0  0  0  0  0  0  0  0  0  0
   44.4660   36.1450   44.8200 C   0  0  0  0  0  0  0  0  0  0  0  0
   45.1220   36.0960   43.5650 C   0  0  0  0  0  0  0  0  0  0  0  0
   45.9200   34.9720   43.3120 C   0  0  0  0  0  0  0  0  0  0  0  0
   46.0400   33.9890   44.2500 N   0  0  0  0  0  0  0  0  0  0  0  0
   45.3770   34.1090   45.4360 C   0  0  0  0  0  0  0  0  0  0  0  0
   44.5990   35.1750   45.7180 N   0  0  0  0  0  0  0  0  0  0  0  0
   45.5010   33.1010   46.4250 N   0  0  0  0  0  0  0  0  0  0  0  0
   43.8760   37.0440   44.9240 H   0  0  0  0  0  0  0  0  0  0  0  0
   45.0570   36.8440   42.7970 H   0  0  0  0  0  0  0  0  0  0  0  0
   46.3590   33.2100   47.0110 H   0  0  0  0  0  0  0  0  0  0  0  0
   44.6520   32.4930   46.2880 H   0  0  0  0  0  0  0  0  0  0  0  0
   44.7660   33.5820   41.0290 C   0  0  0  0  0  3  0  0  0  0  0  0
   43.7560   34.5700   40.4380 C   0  0  0  0  0  2  0  0  0  0  0  0
   42.6760   33.5950   39.9860 C   0  0  0  0  0  2  0  0  0  0  0  0
   43.5490   32.6070   39.2070 C   0  0  0  0  0  2  0  0  0  0  0  0
   44.5960   32.3100   40.2670 C   0  0  0  0  0  2  0  0  0  0  0  0
  1 13  1  0  0  0  0
  2  1  1  0  0  0  0
  2  7  1  0  0  0  0
  3  2  2  0  0  0  0
  4  5  2  0  0  0  0
  4  3  1  0  0  0  0
  5  6  1  0  0  0  0
  6 22  1  0  0  0  0
  6  1  2  0  0  0  0
  8  3  1  0  0  0  0
  9  4  1  0  0  0  0
 10  5  1  0  0  0  0
 11 18  1  0  0  0  0
 11 16  1  0  0  0  0
 12 11  2  0  0  0  0
 13 12  1  0  0  0  0
 13 14  2  0  0  0  0
 14 15  1  0  0  0  0
 15 16  2  0  0  0  0
 15 17  1  0  0  0  0
 17 20  1  0  0  0  0
 19 12  1  0  0  0  0
 21 17  1  0  0  0  0
 23 22  1  0  0  0  0
 24 23  1  0  0  0  0
 25 24  1  0  0  0  0
 25 26  1  0  0  0  0
 26 22  1  0  0  0  0
M  END
>  <minimizedAffinity>
-5.95594883

>  <minimizedRMSD>
1.04781032

$$$$
