
 OpenBabel03252507523D

 27 29  0  0  1  0  0  0  0  0999 V2000
   37.1100   29.3210   42.0910 C   0  0  2  0  0  0  0  0  0  0  0  0
   37.8990   29.0520   43.3240 C   0  0  0  0  0  0  0  0  0  0  0  0
   37.3990   27.6600   43.6800 C   0  0  0  0  0  0  0  0  0  0  0  0
   36.9700   27.0370   42.3850 C   0  0  1  0  0  0  0  0  0  0  0  0
   37.3730   28.0320   41.2990 C   0  0  0  0  0  0  0  0  0  0  0  0
   36.0360   29.3240   42.3080 H   0  0  0  0  0  0  0  0  0  0  0  0
   38.9780   29.0990   43.1820 H   0  0  0  0  0  0  0  0  0  0  0  0
   37.5380   29.7350   44.1360 H   0  0  0  0  0  0  0  0  0  0  0  0
   36.5950   27.7020   44.4430 H   0  0  0  0  0  0  0  0  0  0  0  0
   38.2820   27.1130   44.0720 H   0  0  0  0  0  0  0  0  0  0  0  0
   35.8710   26.9030   42.3870 H   0  0  0  0  0  0  0  0  0  0  0  0
   38.4270   27.9100   41.0540 H   0  0  0  0  0  0  0  0  0  0  0  0
   36.6900   28.0570   40.4500 H   0  0  0  0  0  0  0  0  0  0  0  0
   37.1650   32.3020   39.7810 C   0  0  0  0  0  0  0  0  0  0  0  0
   36.6640   31.1820   40.4350 C   0  0  0  0  0  0  0  0  0  0  0  0
   37.4990   30.5120   41.3190 C   0  0  0  0  0  0  0  0  0  0  0  0
   38.7770   31.0000   41.4970 N   0  0  0  0  0  0  0  0  0  0  0  0
   39.2270   32.0860   40.8470 C   0  0  0  0  0  0  0  0  0  0  0  0
   38.4370   32.7430   39.9910 N   0  0  0  0  0  0  0  0  0  0  0  0
   36.4280   32.7550   39.1070 H   0  0  0  0  0  0  0  0  0  0  0  0
   35.6590   30.8060   40.2910 H   0  0  0  0  0  0  0  0  0  0  0  0
   40.2330   32.4480   41.0040 H   0  0  0  0  0  0  0  0  0  0  0  0
   37.6990   25.7440   42.0950 C   0  0  0  0  0  3  0  0  0  0  0  0
   36.8050   24.5520   42.1440 C   0  0  0  0  0  2  0  0  0  0  0  0
   36.5660   24.1220   40.7070 C   0  0  0  0  0  2  0  0  0  0  0  0
   37.9620   24.3520   40.1160 C   0  0  0  0  0  2  0  0  0  0  0  0
   38.2840   25.7240   40.7100 C   0  0  0  0  0  2  0  0  0  0  0  0
  1  6  1  1  0  0  0
  1  2  1  0  0  0  0
  2  3  1  0  0  0  0
  2  8  1  0  0  0  0
  3 10  1  0  0  0  0
  3  9  1  0  0  0  0
  4 11  1  6  0  0  0
  4  3  1  0  0  0  0
  5  1  1  0  0  0  0
  5  4  1  0  0  0  0
  7  2  1  0  0  0  0
 12  5  1  0  0  0  0
 13  5  1  0  0  0  0
 14 19  2  0  0  0  0
 14 15  1  0  0  0  0
 15 16  2  0  0  0  0
 16 17  1  0  0  0  0
 16  1  1  0  0  0  0
 18 22  1  0  0  0  0
 18 17  2  0  0  0  0
 19 18  1  0  0  0  0
 20 14  1  0  0  0  0
 21 15  1  0  0  0  0
 23 24  1  0  0  0  0
 23  4  1  0  0  0  0
 25 24  1  0  0  0  0
 26 25  1  0  0  0  0
 26 27  1  0  0  0  0
 27 23  1  0  0  0  0
M  END
>  <minimizedAffinity>
-5.18559217

$$$$

 OpenBabel03252507523D

 27 29  0  0  1  0  0  0  0  0999 V2000
   37.7030   28.9540   42.5480 C   0  0  2  0  0  0  0  0  0  0  0  0
   39.0100   28.2730   42.7630 C   0  0  0  0  0  0  0  0  0  0  0  0
   38.5450   26.9610   43.3780 C   0  0  0  0  0  0  0  0  0  0  0  0
   37.1580   26.7330   42.8550 C   0  0  1  0  0  0  0  0  0  0  0  0
   36.9180   27.8440   41.8350 C   0  0  0  0  0  0  0  0  0  0  0  0
   37.1880   29.1190   43.5010 H   0  0  0  0  0  0  0  0  0  0  0  0
   39.5970   28.1390   41.8560 H   0  0  0  0  0  0  0  0  0  0  0  0
   39.5700   28.8190   43.5660 H   0  0  0  0  0  0  0  0  0  0  0  0
   38.6050   26.9910   44.4860 H   0  0  0  0  0  0  0  0  0  0  0  0
   39.2210   26.1810   42.9710 H   0  0  0  0  0  0  0  0  0  0  0  0
   36.4330   26.8190   43.6870 H   0  0  0  0  0  0  0  0  0  0  0  0
   37.3660   27.5760   40.8790 H   0  0  0  0  0  0  0  0  0  0  0  0
   35.8850   28.1870   41.7940 H   0  0  0  0  0  0  0  0  0  0  0  0
   36.8430   31.8630   40.3050 C   0  0  0  0  0  0  0  0  0  0  0  0
   36.6670   30.6770   41.0120 C   0  0  0  0  0  0  0  0  0  0  0  0
   37.7390   30.1870   41.7450 C   0  0  0  0  0  0  0  0  0  0  0  0
   38.9170   30.9050   41.7290 N   0  0  0  0  0  0  0  0  0  0  0  0
   39.0510   32.0480   41.0350 C   0  0  0  0  0  0  0  0  0  0  0  0
   38.0290   32.5350   40.3230 N   0  0  0  0  0  0  0  0  0  0  0  0
   35.9400   32.1620   39.7620 H   0  0  0  0  0  0  0  0  0  0  0  0
   35.7400   30.1190   41.0200 H   0  0  0  0  0  0  0  0  0  0  0  0
   39.9840   32.5920   41.0390 H   0  0  0  0  0  0  0  0  0  0  0  0
   37.0270   25.4190   42.1200 C   0  0  0  0  0  3  0  0  0  0  0  0
   37.0310   25.5810   40.6380 C   0  0  0  0  0  2  0  0  0  0  0  0
   38.3900   25.1130   40.1480 C   0  0  0  0  0  2  0  0  0  0  0  0
   38.6080   23.9020   41.0620 C   0  0  0  0  0  2  0  0  0  0  0  0
   38.1790   24.4950   42.4040 C   0  0  0  0  0  2  0  0  0  0  0  0
  1  2  1  0  0  0  0
  1  6  1  1  0  0  0
  2  3  1  0  0  0  0
  2  8  1  0  0  0  0
  3  9  1  0  0  0  0
  4  3  1  0  0  0  0
  4 11  1  1  0  0  0
  5  1  1  0  0  0  0
  5  4  1  0  0  0  0
  7  2  1  0  0  0  0
 10  3  1  0  0  0  0
 12  5  1  0  0  0  0
 13  5  1  0  0  0  0
 14 19  2  0  0  0  0
 14 15  1  0  0  0  0
 15 21  1  0  0  0  0
 15 16  2  0  0  0  0
 16  1  1  0  0  0  0
 17 16  1  0  0  0  0
 18 22  1  0  0  0  0
 18 17  2  0  0  0  0
 19 18  1  0  0  0  0
 20 14  1  0  0  0  0
 23 27  1  0  0  0  0
 23  4  1  0  0  0  0
 24 23  1  0  0  0  0
 25 24  1  0  0  0  0
 25 26  1  0  0  0  0
 26 27  1  0  0  0  0
M  END
>  <minimizedAffinity>
-5.04323387

$$$$

 OpenBabel03252507523D

 27 29  0  0  1  0  0  0  0  0999 V2000
   39.2360   30.1150   42.7120 C   0  0  2  0  0  0  0  0  0  0  0  0
   39.9820   28.8300   42.6250 C   0  0  0  0  0  0  0  0  0  0  0  0
   39.0020   27.8900   43.3130 C   0  0  0  0  0  0  0  0  0  0  0  0
   37.6450   28.4930   43.1060 C   0  0  1  0  0  0  0  0  0  0  0  0
   37.8630   29.6840   42.1770 C   0  0  0  0  0  0  0  0  0  0  0  0
   39.0730   30.4020   43.7570 H   0  0  0  0  0  0  0  0  0  0  0  0
   40.2300   28.5260   41.6090 H   0  0  0  0  0  0  0  0  0  0  0  0
   40.8820   28.8920   43.2910 H   0  0  0  0  0  0  0  0  0  0  0  0
   39.2670   27.7420   44.3810 H   0  0  0  0  0  0  0  0  0  0  0  0
   39.0640   26.9310   42.7590 H   0  0  0  0  0  0  0  0  0  0  0  0
   37.2440   28.8390   44.0780 H   0  0  0  0  0  0  0  0  0  0  0  0
   37.9150   29.3460   41.1430 H   0  0  0  0  0  0  0  0  0  0  0  0
   37.1910   30.5200   42.3680 H   0  0  0  0  0  0  0  0  0  0  0  0
   41.5170   32.5970   41.0170 C   0  0  0  0  0  0  0  0  0  0  0  0
   41.1420   31.5040   41.7910 C   0  0  0  0  0  0  0  0  0  0  0  0
   39.7870   31.2370   41.9340 C   0  0  0  0  0  0  0  0  0  0  0  0
   38.8920   32.0730   41.2980 N   0  0  0  0  0  0  0  0  0  0  0  0
   39.2910   33.1210   40.5570 C   0  0  0  0  0  0  0  0  0  0  0  0
   40.5920   33.3930   40.4090 N   0  0  0  0  0  0  0  0  0  0  0  0
   42.6050   32.7190   40.9690 H   0  0  0  0  0  0  0  0  0  0  0  0
   41.8490   30.8520   42.2870 H   0  0  0  0  0  0  0  0  0  0  0  0
   38.5710   33.7610   40.0690 H   0  0  0  0  0  0  0  0  0  0  0  0
   36.6950   27.5490   42.4030 C   0  0  0  0  0  3  0  0  0  0  0  0
   36.5830   27.8230   40.9420 C   0  0  0  0  0  2  0  0  0  0  0  0
   37.3580   26.7280   40.2290 C   0  0  0  0  0  2  0  0  0  0  0  0
   36.9820   25.5190   41.0930 C   0  0  0  0  0  2  0  0  0  0  0  0
   37.1530   26.1200   42.4880 C   0  0  0  0  0  2  0  0  0  0  0  0
  1  6  1  1  0  0  0
  2  1  1  0  0  0  0
  2  8  1  0  0  0  0
  2  3  1  0  0  0  0
  3  9  1  0  0  0  0
  4  3  1  0  0  0  0
  4 11  1  1  0  0  0
  5 13  1  0  0  0  0
  5  1  1  0  0  0  0
  5  4  1  0  0  0  0
  7  2  1  0  0  0  0
 10  3  1  0  0  0  0
 12  5  1  0  0  0  0
 14 15  1  0  0  0  0
 15 16  2  0  0  0  0
 15 21  1  0  0  0  0
 16  1  1  0  0  0  0
 17 16  1  0  0  0  0
 18 17  2  0  0  0  0
 19 18  1  0  0  0  0
 19 14  2  0  0  0  0
 20 14  1  0  0  0  0
 22 18  1  0  0  0  0
 23 27  1  0  0  0  0
 23  4  1  0  0  0  0
 24 23  1  0  0  0  0
 25 24  1  0  0  0  0
 25 26  1  0  0  0  0
 26 27  1  0  0  0  0
M  END
>  <minimizedAffinity>
-4.9178977

$$$$

 OpenBabel03252507523D

 27 29  0  0  1  0  0  0  0  0999 V2000
   37.3180   30.0800   40.2690 C   0  0  2  0  0  0  0  0  0  0  0  0
   35.9090   29.8410   40.6860 C   0  0  0  0  0  0  0  0  0  0  0  0
   35.9070   28.3250   40.8150 C   0  0  0  0  0  0  0  0  0  0  0  0
   37.3220   27.9410   41.1330 C   0  0  1  0  0  0  0  0  0  0  0  0
   38.0700   29.2580   41.3260 C   0  0  0  0  0  0  0  0  0  0  0  0
   37.5290   29.5960   39.3090 H   0  0  0  0  0  0  0  0  0  0  0  0
   35.6230   30.3520   41.6040 H   0  0  0  0  0  0  0  0  0  0  0  0
   35.2350   30.0870   39.8240 H   0  0  0  0  0  0  0  0  0  0  0  0
   35.5090   27.8420   39.8990 H   0  0  0  0  0  0  0  0  0  0  0  0
   35.2630   28.0970   41.6890 H   0  0  0  0  0  0  0  0  0  0  0  0
   37.7520   27.3820   40.2790 H   0  0  0  0  0  0  0  0  0  0  0  0
   37.9040   29.6370   42.3330 H   0  0  0  0  0  0  0  0  0  0  0  0
   39.1090   29.2250   40.9970 H   0  0  0  0  0  0  0  0  0  0  0  0
   39.2190   33.2970   40.7900 C   0  0  0  0  0  0  0  0  0  0  0  0
   38.9180   31.9420   40.8860 C   0  0  0  0  0  0  0  0  0  0  0  0
   37.7640   31.4830   40.2650 C   0  0  0  0  0  0  0  0  0  0  0  0
   36.9850   32.3990   39.5890 N   0  0  0  0  0  0  0  0  0  0  0  0
   37.3080   33.7010   39.5170 C   0  0  0  0  0  0  0  0  0  0  0  0
   38.4140   34.1610   40.1100 N   0  0  0  0  0  0  0  0  0  0  0  0
   40.1470   33.5540   41.3140 H   0  0  0  0  0  0  0  0  0  0  0  0
   39.5340   31.2290   41.4170 H   0  0  0  0  0  0  0  0  0  0  0  0
   36.6800   34.3980   38.9810 H   0  0  0  0  0  0  0  0  0  0  0  0
   37.4340   27.1720   42.4300 C   0  0  0  0  0  3  0  0  0  0  0  0
   37.5310   25.6980   42.2230 C   0  0  0  0  0  2  0  0  0  0  0  0
   38.9760   25.3110   42.4840 C   0  0  0  0  0  2  0  0  0  0  0  0
   39.2910   26.2170   43.6790 C   0  0  0  0  0  2  0  0  0  0  0  0
   38.6790   27.5310   43.1930 C   0  0  0  0  0  2  0  0  0  0  0  0
  1  6  1  6  0  0  0
  1  2  1  0  0  0  0
  1  5  1  0  0  0  0
  2  3  1  0  0  0  0
  2  7  1  0  0  0  0
  3  4  1  0  0  0  0
  3 10  1  0  0  0  0
  4 11  1  6  0  0  0
  4  5  1  0  0  0  0
  4 23  1  0  0  0  0
  5 12  1  0  0  0  0
  8  2  1  0  0  0  0
  9  3  1  0  0  0  0
 13  5  1  0  0  0  0
 14 15  1  0  0  0  0
 14 20  1  0  0  0  0
 15 21  1  0  0  0  0
 16  1  1  0  0  0  0
 16 15  2  0  0  0  0
 17 16  1  0  0  0  0
 18 17  2  0  0  0  0
 18 19  1  0  0  0  0
 19 14  2  0  0  0  0
 22 18  1  0  0  0  0
 23 27  1  0  0  0  0
 24 23  1  0  0  0  0
 24 25  1  0  0  0  0
 25 26  1  0  0  0  0
 27 26  1  0  0  0  0
M  END
>  <minimizedAffinity>
-4.8511548

$$$$

 OpenBabel03252507523D

 27 29  0  0  1  0  0  0  0  0999 V2000
   36.9880   27.7010   41.9970 C   0  0  2  0  0  0  0  0  0  0  0  0
   36.5890   27.5860   40.5670 C   0  0  0  0  0  0  0  0  0  0  0  0
   35.8090   28.8800   40.3880 C   0  0  0  0  0  0  0  0  0  0  0  0
   36.3780   29.8410   41.3890 C   0  0  1  0  0  0  0  0  0  0  0  0
   37.5700   29.1220   42.0160 C   0  0  0  0  0  0  0  0  0  0  0  0
   36.1050   27.7310   42.6470 H   0  0  0  0  0  0  0  0  0  0  0  0
   37.4260   27.4870   39.8780 H   0  0  0  0  0  0  0  0  0  0  0  0
   35.8460   26.7520   40.4690 H   0  0  0  0  0  0  0  0  0  0  0  0
   34.7180   28.7130   40.4990 H   0  0  0  0  0  0  0  0  0  0  0  0
   36.0480   29.2360   39.3640 H   0  0  0  0  0  0  0  0  0  0  0  0
   35.6170   30.0590   42.1630 H   0  0  0  0  0  0  0  0  0  0  0  0
   38.4420   29.2140   41.3720 H   0  0  0  0  0  0  0  0  0  0  0  0
   37.7280   29.3660   43.0660 H   0  0  0  0  0  0  0  0  0  0  0  0
   39.8900   25.9750   43.6790 C   0  0  0  0  0  0  0  0  0  0  0  0
   39.0500   27.0150   43.2940 C   0  0  0  0  0  0  0  0  0  0  0  0
   37.9670   26.7140   42.4780 C   0  0  0  0  0  0  0  0  0  0  0  0
   37.7890   25.3990   42.0990 N   0  0  0  0  0  0  0  0  0  0  0  0
   38.6210   24.4200   42.4920 C   0  0  0  0  0  0  0  0  0  0  0  0
   39.6690   24.6920   43.2760 N   0  0  0  0  0  0  0  0  0  0  0  0
   40.7100   26.3190   44.3190 H   0  0  0  0  0  0  0  0  0  0  0  0
   39.1950   28.0440   43.5960 H   0  0  0  0  0  0  0  0  0  0  0  0
   38.4600   23.3980   42.1810 H   0  0  0  0  0  0  0  0  0  0  0  0
   36.9090   31.1010   40.7440 C   0  0  0  0  0  3  0  0  0  0  0  0
   38.3960   31.1950   40.7940 C   0  0  0  0  0  2  0  0  0  0  0  0
   38.9030   30.8970   39.3940 C   0  0  0  0  0  2  0  0  0  0  0  0
   37.8420   31.6230   38.5580 C   0  0  0  0  0  2  0  0  0  0  0  0
   36.5730   31.1700   39.2800 C   0  0  0  0  0  2  0  0  0  0  0  0
  1  5  1  0  0  0  0
  1 16  1  0  0  0  0
  1  6  1  1  0  0  0
  2  1  1  0  0  0  0
  3  9  1  0  0  0  0
  3  2  1  0  0  0  0
  3  4  1  0  0  0  0
  4  5  1  0  0  0  0
  4 11  1  1  0  0  0
  5 13  1  0  0  0  0
  7  2  1  0  0  0  0
  8  2  1  0  0  0  0
 10  3  1  0  0  0  0
 12  5  1  0  0  0  0
 14 20  1  0  0  0  0
 15 21  1  0  0  0  0
 15 14  1  0  0  0  0
 16 15  2  0  0  0  0
 17 16  1  0  0  0  0
 17 18  2  0  0  0  0
 18 19  1  0  0  0  0
 19 14  2  0  0  0  0
 22 18  1  0  0  0  0
 23 24  1  0  0  0  0
 23  4  1  0  0  0  0
 25 24  1  0  0  0  0
 26 27  1  0  0  0  0
 26 25  1  0  0  0  0
 27 23  1  0  0  0  0
M  END
>  <minimizedAffinity>
-4.83057547

$$$$

 OpenBabel03252507523D

 27 29  0  0  1  0  0  0  0  0999 V2000
   39.0640   30.4920   41.8980 C   0  0  2  0  0  0  0  0  0  0  0  0
   39.9270   29.4660   41.2500 C   0  0  0  0  0  0  0  0  0  0  0  0
   40.1120   28.4870   42.4010 C   0  0  0  0  0  0  0  0  0  0  0  0
   38.8980   28.6440   43.2690 C   0  0  1  0  0  0  0  0  0  0  0  0
   37.9770   29.6000   42.5150 C   0  0  0  0  0  0  0  0  0  0  0  0
   39.5820   30.9600   42.7430 H   0  0  0  0  0  0  0  0  0  0  0  0
   39.4890   29.0110   40.3630 H   0  0  0  0  0  0  0  0  0  0  0  0
   40.9340   29.9180   41.0540 H   0  0  0  0  0  0  0  0  0  0  0  0
   41.0680   28.6670   42.9340 H   0  0  0  0  0  0  0  0  0  0  0  0
   40.1040   27.4770   41.9420 H   0  0  0  0  0  0  0  0  0  0  0  0
   39.1950   29.0870   44.2380 H   0  0  0  0  0  0  0  0  0  0  0  0
   37.4150   29.0580   41.7570 H   0  0  0  0  0  0  0  0  0  0  0  0
   37.3910   30.2490   43.1650 H   0  0  0  0  0  0  0  0  0  0  0  0
   38.2190   33.6910   40.0860 C   0  0  0  0  0  0  0  0  0  0  0  0
   38.8500   32.8460   40.9930 C   0  0  0  0  0  0  0  0  0  0  0  0
   38.4830   31.5070   41.0050 C   0  0  0  0  0  0  0  0  0  0  0  0
   37.5130   31.0940   40.1150 N   0  0  0  0  0  0  0  0  0  0  0  0
   36.9250   31.9400   39.2510 C   0  0  0  0  0  0  0  0  0  0  0  0
   37.2660   33.2320   39.2270 N   0  0  0  0  0  0  0  0  0  0  0  0
   38.5800   34.7230   40.1590 H   0  0  0  0  0  0  0  0  0  0  0  0
   39.6100   33.1770   41.6890 H   0  0  0  0  0  0  0  0  0  0  0  0
   36.1680   31.5910   38.5640 H   0  0  0  0  0  0  0  0  0  0  0  0
   38.1430   27.3460   43.4440 C   0  0  0  0  0  3  0  0  0  0  0  0
   36.8820   27.2970   42.6500 C   0  0  0  0  0  2  0  0  0  0  0  0
   37.1400   26.3730   41.4720 C   0  0  0  0  0  2  0  0  0  0  0  0
   37.9820   25.2890   42.1540 C   0  0  0  0  0  2  0  0  0  0  0  0
   38.9370   26.1610   42.9690 C   0  0  0  0  0  2  0  0  0  0  0  0
  1  5  1  0  0  0  0
  1  6  1  1  0  0  0
  2  1  1  0  0  0  0
  2  3  1  0  0  0  0
  3  9  1  0  0  0  0
  3  4  1  0  0  0  0
  4 23  1  0  0  0  0
  4 11  1  1  0  0  0
  5 13  1  0  0  0  0
  5  4  1  0  0  0  0
  7  2  1  0  0  0  0
  8  2  1  0  0  0  0
 10  3  1  0  0  0  0
 12  5  1  0  0  0  0
 14 20  1  0  0  0  0
 14 15  1  0  0  0  0
 15 16  2  0  0  0  0
 15 21  1  0  0  0  0
 16  1  1  0  0  0  0
 17 16  1  0  0  0  0
 18 17  2  0  0  0  0
 19 18  1  0  0  0  0
 19 14  2  0  0  0  0
 22 18  1  0  0  0  0
 24 23  1  0  0  0  0
 25 26  1  0  0  0  0
 25 24  1  0  0  0  0
 26 27  1  0  0  0  0
 27 23  1  0  0  0  0
M  END
>  <minimizedAffinity>
-4.81645155

$$$$

 OpenBabel03252507523D

 27 29  0  0  1  0  0  0  0  0999 V2000
   36.5600   29.8390   39.6000 C   0  0  2  0  0  0  0  0  0  0  0  0
   37.9610   29.3410   39.5280 C   0  0  0  0  0  0  0  0  0  0  0  0
   38.4790   29.7580   40.8960 C   0  0  0  0  0  0  0  0  0  0  0  0
   37.2770   29.8000   41.7930 C   0  0  1  0  0  0  0  0  0  0  0  0
   36.1220   29.2600   40.9530 C   0  0  0  0  0  0  0  0  0  0  0  0
   36.5390   30.9280   39.7220 H   0  0  0  0  0  0  0  0  0  0  0  0
   38.0440   28.2710   39.3440 H   0  0  0  0  0  0  0  0  0  0  0  0
   38.5210   29.9560   38.7760 H   0  0  0  0  0  0  0  0  0  0  0  0
   39.0290   30.7200   40.8440 H   0  0  0  0  0  0  0  0  0  0  0  0
   39.1520   28.9400   41.2270 H   0  0  0  0  0  0  0  0  0  0  0  0
   37.0740   30.8470   42.0880 H   0  0  0  0  0  0  0  0  0  0  0  0
   36.1360   28.1710   40.9550 H   0  0  0  0  0  0  0  0  0  0  0  0
   35.1610   29.7210   41.1790 H   0  0  0  0  0  0  0  0  0  0  0  0
   33.6340   28.5710   37.5860 C   0  0  0  0  0  0  0  0  0  0  0  0
   34.3720   28.9330   38.7080 C   0  0  0  0  0  0  0  0  0  0  0  0
   35.6620   29.4100   38.5160 C   0  0  0  0  0  0  0  0  0  0  0  0
   36.1350   29.4960   37.2230 N   0  0  0  0  0  0  0  0  0  0  0  0
   35.3920   29.1380   36.1620 C   0  0  0  0  0  0  0  0  0  0  0  0
   34.1480   28.6760   36.3280 N   0  0  0  0  0  0  0  0  0  0  0  0
   32.6330   28.2080   37.8460 H   0  0  0  0  0  0  0  0  0  0  0  0
   33.9950   28.8630   39.7190 H   0  0  0  0  0  0  0  0  0  0  0  0
   35.7850   29.2150   35.1590 H   0  0  0  0  0  0  0  0  0  0  0  0
   37.4180   28.8890   42.9910 C   0  0  0  0  0  3  0  0  0  0  0  0
   36.6510   27.6180   42.8470 C   0  0  0  0  0  2  0  0  0  0  0  0
   37.6630   26.5230   42.5610 C   0  0  0  0  0  2  0  0  0  0  0  0
   38.8010   26.9500   43.4940 C   0  0  0  0  0  2  0  0  0  0  0  0
   38.8410   28.4510   43.2030 C   0  0  0  0  0  2  0  0  0  0  0  0
  1  6  1  1  0  0  0
  1  5  1  0  0  0  0
  2  1  1  0  0  0  0
  2  3  1  0  0  0  0
  3 10  1  0  0  0  0
  3  4  1  0  0  0  0
  4 11  1  1  0  0  0
  4 23  1  0  0  0  0
  5 12  1  0  0  0  0
  5 13  1  0  0  0  0
  5  4  1  0  0  0  0
  7  2  1  0  0  0  0
  8  2  1  0  0  0  0
  9  3  1  0  0  0  0
 14 20  1  0  0  0  0
 14 15  1  0  0  0  0
 15 21  1  0  0  0  0
 16 15  2  0  0  0  0
 16  1  1  0  0  0  0
 17 16  1  0  0  0  0
 18 19  1  0  0  0  0
 18 17  2  0  0  0  0
 19 14  2  0  0  0  0
 22 18  1  0  0  0  0
 23 27  1  0  0  0  0
 24 23  1  0  0  0  0
 25 24  1  0  0  0  0
 25 26  1  0  0  0  0
 27 26  1  0  0  0  0
M  END
>  <minimizedAffinity>
-4.62247705

$$$$

 OpenBabel03252507523D

 27 29  0  0  1  0  0  0  0  0999 V2000
   36.9800   25.3850   40.9310 C   0  0  2  0  0  0  0  0  0  0  0  0
   36.9800   26.6860   40.2080 C   0  0  0  0  0  0  0  0  0  0  0  0
   36.5150   27.6220   41.3140 C   0  0  0  0  0  0  0  0  0  0  0  0
   36.9390   26.9770   42.6000 C   0  0  1  0  0  0  0  0  0  0  0  0
   37.7680   25.7610   42.1940 C   0  0  0  0  0  0  0  0  0  0  0  0
   35.9700   25.1290   41.2740 H   0  0  0  0  0  0  0  0  0  0  0  0
   37.9460   26.9620   39.7880 H   0  0  0  0  0  0  0  0  0  0  0  0
   36.1610   26.6700   39.4420 H   0  0  0  0  0  0  0  0  0  0  0  0
   35.4240   27.8130   41.2500 H   0  0  0  0  0  0  0  0  0  0  0  0
   37.0860   28.5630   41.1730 H   0  0  0  0  0  0  0  0  0  0  0  0
   36.0420   26.6530   43.1620 H   0  0  0  0  0  0  0  0  0  0  0  0
   38.7880   26.0650   41.9630 H   0  0  0  0  0  0  0  0  0  0  0  0
   37.6690   24.9140   42.8720 H   0  0  0  0  0  0  0  0  0  0  0  0
   38.7820   23.1890   38.4490 C   0  0  0  0  0  0  0  0  0  0  0  0
   38.2270   24.3440   38.9910 C   0  0  0  0  0  0  0  0  0  0  0  0
   37.6030   24.2520   40.2270 C   0  0  0  0  0  0  0  0  0  0  0  0
   37.5700   23.0200   40.8460 N   0  0  0  0  0  0  0  0  0  0  0  0
   38.1170   21.9240   40.2920 C   0  0  0  0  0  0  0  0  0  0  0  0
   38.7220   21.9940   39.1020 N   0  0  0  0  0  0  0  0  0  0  0  0
   39.2480   23.3690   37.4740 H   0  0  0  0  0  0  0  0  0  0  0  0
   38.2570   25.3080   38.5000 H   0  0  0  0  0  0  0  0  0  0  0  0
   38.0780   20.9700   40.7970 H   0  0  0  0  0  0  0  0  0  0  0  0
   37.8360   27.8700   43.4270 C   0  0  0  0  0  3  0  0  0  0  0  0
   39.2740   27.4880   43.3380 C   0  0  0  0  0  2  0  0  0  0  0  0
   39.9500   28.5200   42.4540 C   0  0  0  0  0  2  0  0  0  0  0  0
   39.2400   29.7930   42.9260 C   0  0  0  0  0  2  0  0  0  0  0  0
   37.7930   29.2990   42.9610 C   0  0  0  0  0  2  0  0  0  0  0  0
  1  6  1  1  0  0  0
  1  5  1  0  0  0  0
  2  1  1  0  0  0  0
  2  3  1  0  0  0  0
  3  4  1  0  0  0  0
  4 11  1  1  0  0  0
  4 23  1  0  0  0  0
  5  4  1  0  0  0  0
  5 13  1  0  0  0  0
  7  2  1  0  0  0  0
  8  2  1  0  0  0  0
  9  3  1  0  0  0  0
 10  3  1  0  0  0  0
 12  5  1  0  0  0  0
 14 15  2  0  0  0  0
 14 19  1  0  0  0  0
 15 16  1  0  0  0  0
 16 17  2  0  0  0  0
 16  1  1  0  0  0  0
 18 22  1  0  0  0  0
 18 17  1  0  0  0  0
 19 18  2  0  0  0  0
 20 14  1  0  0  0  0
 21 15  1  0  0  0  0
 24 23  1  0  0  0  0
 25 26  1  0  0  0  0
 25 24  1  0  0  0  0
 26 27  1  0  0  0  0
 27 23  1  0  0  0  0
M  END
>  <minimizedAffinity>
-4.56200552

$$$$

 OpenBabel03252507523D

 27 29  0  0  1  0  0  0  0  0999 V2000
   36.0860   29.7920   39.5920 C   0  0  2  0  0  0  0  0  0  0  0  0
   37.4460   30.1630   40.0700 C   0  0  0  0  0  0  0  0  0  0  0  0
   37.2770   29.9770   41.5710 C   0  0  0  0  0  0  0  0  0  0  0  0
   36.2000   28.9470   41.7360 C   0  0  1  0  0  0  0  0  0  0  0  0
   35.8810   28.4590   40.3250 C   0  0  0  0  0  0  0  0  0  0  0  0
   35.3300   30.4750   39.9990 H   0  0  0  0  0  0  0  0  0  0  0  0
   38.2470   29.5580   39.6480 H   0  0  0  0  0  0  0  0  0  0  0  0
   37.5970   31.2610   39.9020 H   0  0  0  0  0  0  0  0  0  0  0  0
   37.0550   30.9410   42.0750 H   0  0  0  0  0  0  0  0  0  0  0  0
   38.2400   29.5590   41.9330 H   0  0  0  0  0  0  0  0  0  0  0  0
   35.3050   29.4200   42.1850 H   0  0  0  0  0  0  0  0  0  0  0  0
   36.6070   27.7080   40.0180 H   0  0  0  0  0  0  0  0  0  0  0  0
   34.8340   28.1930   40.1780 H   0  0  0  0  0  0  0  0  0  0  0  0
   36.6110   29.7710   35.8570 C   0  0  0  0  0  0  0  0  0  0  0  0
   36.8930   29.9860   37.2020 C   0  0  0  0  0  0  0  0  0  0  0  0
   35.9300   29.6340   38.1380 C   0  0  0  0  0  0  0  0  0  0  0  0
   34.7490   29.0900   37.6770 N   0  0  0  0  0  0  0  0  0  0  0  0
   34.5100   28.8960   36.3690 C   0  0  0  0  0  0  0  0  0  0  0  0
   35.4260   29.2300   35.4540 N   0  0  0  0  0  0  0  0  0  0  0  0
   37.4340   30.0830   35.2040 H   0  0  0  0  0  0  0  0  0  0  0  0
   37.8220   30.4130   37.5560 H   0  0  0  0  0  0  0  0  0  0  0  0
   33.5770   28.4690   36.0330 H   0  0  0  0  0  0  0  0  0  0  0  0
   36.6650   27.7460   42.5280 C   0  0  0  0  0  3  0  0  0  0  0  0
   37.3050   26.7040   41.6760 C   0  0  0  0  0  2  0  0  0  0  0  0
   38.8000   26.7860   41.9290 C   0  0  0  0  0  2  0  0  0  0  0  0
   38.8080   27.0440   43.4400 C   0  0  0  0  0  2  0  0  0  0  0  0
   37.7170   28.1090   43.5390 C   0  0  0  0  0  2  0  0  0  0  0  0
  1  6  1  1  0  0  0
  1  2  1  0  0  0  0
  1  5  1  0  0  0  0
  2  3  1  0  0  0  0
  3  4  1  0  0  0  0
  3 10  1  0  0  0  0
  3  9  1  0  0  0  0
  4 11  1  1  0  0  0
  4 23  1  0  0  0  0
  5  4  1  0  0  0  0
  7  2  1  0  0  0  0
  8  2  1  0  0  0  0
 12  5  1  0  0  0  0
 13  5  1  0  0  0  0
 14 15  1  0  0  0  0
 15 21  1  0  0  0  0
 15 16  2  0  0  0  0
 16  1  1  0  0  0  0
 17 16  1  0  0  0  0
 18 17  2  0  0  0  0
 19 14  2  0  0  0  0
 19 18  1  0  0  0  0
 20 14  1  0  0  0  0
 22 18  1  0  0  0  0
 23 27  1  0  0  0  0
 24 25  1  0  0  0  0
 24 23  1  0  0  0  0
 25 26  1  0  0  0  0
 26 27  1  0  0  0  0
M  END
>  <minimizedAffinity>
-4.53816414

$$$$
