
 OpenBabel03252507583D

 23 25  0  0  1  0  0  0  0  0999 V2000
   46.4860   32.6080   45.6920 C   0  0  1  0  0  0  0  0  0  0  0  0
   47.1260   32.9630   46.9970 C   0  0  0  0  0  0  0  0  0  0  0  0
   45.6540   32.7440   46.9280 C   0  0  2  0  0  0  0  0  0  0  0  0
   46.7150   31.6100   45.2710 H   0  0  0  0  0  0  0  0  0  0  0  0
   47.7710   32.1770   47.4350 H   0  0  0  0  0  0  0  0  0  0  0  0
   47.5790   33.9610   47.0160 H   0  0  0  0  0  0  0  0  0  0  0  0
   45.0410   33.6740   47.0690 H   0  0  0  0  0  0  0  0  0  0  0  0
   46.8360   34.7880   42.7590 C   0  0  0  0  0  0  0  0  0  0  0  0
   45.7300   35.6600   42.8750 C   0  0  0  0  0  0  0  0  0  0  0  0
   44.8530   35.4870   43.9750 C   0  0  0  0  0  0  0  0  0  0  0  0
   45.1410   34.4860   44.8500 N   0  0  0  0  0  0  0  0  0  0  0  0
   46.2280   33.6800   44.6740 C   0  0  0  0  0  0  0  0  0  0  0  0
   47.0600   33.8230   43.6540 N   0  0  0  0  0  0  0  0  0  0  0  0
   45.5040   36.4570   42.1770 H   0  0  0  0  0  0  0  0  0  0  0  0
   43.9910   36.1240   44.1170 H   0  0  0  0  0  0  0  0  0  0  0  0
   47.6490   35.0590   41.6240 C   0  0  0  0  0  0  0  0  0  0  0  0
   48.6730   35.8100   41.6190 O   0  0  0  0  0  0  0  0  0  0  0  0
   47.5460   34.6880   40.5930 H   0  0  0  0  0  0  0  0  0  0  0  0
   45.1410   31.5620   47.6690 C   0  0  0  0  0  3  0  0  0  0  0  0
   45.4600   31.5870   49.1440 C   0  0  0  0  0  2  0  0  0  0  0  0
   45.0580   30.1680   49.5570 C   0  0  0  0  0  2  0  0  0  0  0  0
   44.9610   29.3520   48.2940 C   0  0  0  0  0  2  0  0  0  0  0  0
   45.6730   30.2320   47.2550 C   0  0  0  0  0  2  0  0  0  0  0  0
  1  4  1  6  0  0  0
  1  3  1  0  0  0  0
  1  2  1  0  0  0  0
  2  6  1  0  0  0  0
  2  5  1  0  0  0  0
  3  2  1  0  0  0  0
  3  7  1  1  0  0  0
  3 19  1  0  0  0  0
  8  9  2  0  0  0  0
  8 13  1  0  0  0  0
  9 10  1  0  0  0  0
 10 15  1  0  0  0  0
 10 11  2  0  0  0  0
 12 11  1  0  0  0  0
 12  1  1  0  0  0  0
 13 12  2  0  0  0  0
 14  9  1  0  0  0  0
 16  8  1  0  0  0  0
 17 16  2  0  0  0  0
 18 16  1  0  0  0  0
 19 20  1  0  0  0  0
 20 21  1  0  0  0  0
 22 21  1  0  0  0  0
 23 19  1  0  0  0  0
 23 22  1  0  0  0  0
M  END
>  <minimizedAffinity>
-4.52065516

>  <minimizedRMSD>
0.895811021

$$$$
