
 OpenBabel03252506023D

 24 26  0  0  0  0  0  0  0  0999 V2000
   44.8340   36.2120   43.0000 Cl  0  0  0  0  0  0  0  0  0  0  0  0
   45.4950   34.9720   43.9960 C   0  0  0  0  0  0  0  0  0  0  0  0
   46.5280   34.1740   43.5600 C   0  0  0  0  0  0  0  0  0  0  0  0
   46.9850   33.2170   44.4260 C   0  0  0  0  0  0  0  0  0  0  0  0
   46.5040   32.9830   45.6900 C   0  0  0  0  0  0  0  0  0  0  0  0
   45.4580   33.8020   46.1110 C   0  0  0  0  0  0  0  0  0  0  0  0
   44.8370   33.4990   47.7260 Cl  0  0  0  0  0  0  0  0  0  0  0  0
   44.9580   34.7830   45.2810 C   0  0  0  0  0  0  0  0  0  0  0  0
   47.8000   32.6090   44.0360 H   0  0  0  0  0  0  0  0  0  0  0  0
   44.1470   35.4020   45.6350 H   0  0  0  0  0  0  0  0  0  0  0  0
   48.7420   35.3910   40.9150 C   0  0  0  0  0  0  0  0  0  0  0  0
   48.2570   34.7340   39.7620 C   0  0  0  0  0  0  0  0  0  0  0  0
   47.1630   33.8660   39.9080 C   0  0  0  0  0  0  0  0  0  0  0  0
   46.6320   33.7110   41.1560 N   0  0  0  0  0  0  0  0  0  0  0  0
   47.1130   34.3470   42.2240 C   0  0  0  0  0  0  0  0  0  0  0  0
   48.1760   35.1980   42.1200 N   0  0  0  0  0  0  0  0  0  0  0  0
   49.5820   36.0690   40.8600 H   0  0  0  0  0  0  0  0  0  0  0  0
   48.7070   34.8880   38.8120 H   0  0  0  0  0  0  0  0  0  0  0  0
   46.7420   33.3300   39.0580 H   0  0  0  0  0  0  0  0  0  0  0  0
   47.0380   31.9390   46.5650 C   0  0  0  0  0  0  0  0  0  0  0  0
   47.1840   32.2930   47.9940 C   0  0  0  0  0  0  0  0  0  0  0  0
   46.8700   30.9970   48.7140 C   0  0  0  0  0  0  0  0  0  0  0  0
   45.6840   30.4760   47.8960 C   0  0  0  0  0  0  0  0  0  0  0  0
   46.2360   30.6580   46.4960 C   0  0  0  0  0  0  0  0  0  0  0  0
  1  2  1  0  0  0  0
  2  8  1  0  0  0  0
  3  2  2  0  0  0  0
  3  4  1  0  0  0  0
  4  5  2  0  0  0  0
  5  6  1  0  0  0  0
  5 20  1  0  0  0  0
  6  7  1  0  0  0  0
  8 10  1  0  0  0  0
  8  6  2  0  0  0  0
  9  4  1  0  0  0  0
 11 16  1  0  0  0  0
 12 13  1  0  0  0  0
 12 11  2  0  0  0  0
 13 14  2  0  0  0  0
 14 15  1  0  0  0  0
 15  3  1  0  0  0  0
 16 15  2  0  0  0  0
 17 11  1  0  0  0  0
 18 12  1  0  0  0  0
 19 13  1  0  0  0  0
 20 21  1  0  0  0  0
 21 22  1  0  0  0  0
 23 22  1  0  0  0  0
 24 20  1  0  0  0  0
 24 23  1  0  0  0  0
M  END
>  <minimizedAffinity>
-5.95973969

>  <minimizedRMSD>
0.677925766

$$$$
