
 OpenBabel03252509303D

 17 18  0  0  0  0  0  0  0  0999 V2000
   44.5870   36.0620   44.5250 C   0  0  0  0  0  0  0  0  0  0  0  0
   45.3210   36.0480   43.3130 C   0  0  0  0  0  0  0  0  0  0  0  0
   46.1770   34.9650   43.1090 C   0  0  0  0  0  0  0  0  0  0  0  0
   46.2650   33.9870   44.0680 N   0  0  0  0  0  0  0  0  0  0  0  0
   45.5320   34.0630   45.2080 C   0  0  0  0  0  0  0  0  0  0  0  0
   44.7040   35.0860   45.4350 N   0  0  0  0  0  0  0  0  0  0  0  0
   43.9180   36.8830   44.7150 H   0  0  0  0  0  0  0  0  0  0  0  0
   45.2060   36.8510   42.5970 H   0  0  0  0  0  0  0  0  0  0  0  0
   45.6850   33.2370   45.8890 H   0  0  0  0  0  0  0  0  0  0  0  0
   46.9400   34.9360   41.8630 C   0  0  0  0  0  0  0  0  0  0  0  0
   47.8810   34.3780   41.9880 H   0  0  0  0  0  0  0  0  0  0  0  0
   47.0950   35.9740   41.4740 H   0  0  0  0  0  0  0  0  0  0  0  0
   46.0820   34.2300   40.8350 C   0  0  0  0  0  3  0  0  0  0  0  0
   46.1570   32.7330   41.0000 C   0  0  0  0  0  2  0  0  0  0  0  0
   44.7280   32.2190   40.9860 C   0  0  0  0  0  2  0  0  0  0  0  0
   44.0130   33.3520   40.2370 C   0  0  0  0  0  2  0  0  0  0  0  0
   44.6240   34.5220   40.9930 C   0  0  0  0  0  2  0  0  0  0  0  0
  1  7  1  0  0  0  0
  1  6  1  0  0  0  0
  2  1  2  0  0  0  0
  3  2  1  0  0  0  0
  3  4  2  0  0  0  0
  4  5  1  0  0  0  0
  5  6  2  0  0  0  0
  5  9  1  0  0  0  0
  8  2  1  0  0  0  0
 10 11  1  0  0  0  0
 10  3  1  0  0  0  0
 12 10  1  0  0  0  0
 13 17  1  0  0  0  0
 13 14  1  0  0  0  0
 13 10  1  0  0  0  0
 15 14  1  0  0  0  0
 16 15  1  0  0  0  0
 16 17  1  0  0  0  0
M  END
>  <minimizedAffinity>
-3.71841359

>  <minimizedRMSD>
2.734375

$$$$
