
 OpenBabel03242511553D

 30 32  0  0  1  0  0  0  0  0999 V2000
   46.5410   33.6010   43.1650 C   0  0  2  0  0  0  0  0  0  0  0  0
   45.8720   34.6260   42.3440 C   0  0  0  0  0  0  0  0  0  0  0  0
   45.4950   35.8620   43.1000 C   0  0  0  0  0  0  0  0  0  0  0  0
   44.6890   35.5800   44.3580 C   0  0  0  0  0  0  0  0  0  0  0  0
   45.1300   34.3520   45.0990 C   0  0  0  0  0  0  0  0  0  0  0  0
   46.4940   33.8880   44.6590 C   0  0  1  0  0  0  0  0  0  0  0  0
   46.0730   32.5780   43.0510 H   0  0  0  0  0  0  0  0  0  0  0  0
   46.3870   34.9310   41.4350 H   0  0  0  0  0  0  0  0  0  0  0  0
   44.8950   34.1830   41.9900 H   0  0  0  0  0  0  0  0  0  0  0  0
   44.7600   36.3980   42.4260 H   0  0  0  0  0  0  0  0  0  0  0  0
   46.2790   36.5910   43.2750 H   0  0  0  0  0  0  0  0  0  0  0  0
   44.7880   36.4820   44.9960 H   0  0  0  0  0  0  0  0  0  0  0  0
   43.5900   35.5120   44.1370 H   0  0  0  0  0  0  0  0  0  0  0  0
   44.3640   33.5610   44.9640 H   0  0  0  0  0  0  0  0  0  0  0  0
   45.1730   34.5710   46.1680 H   0  0  0  0  0  0  0  0  0  0  0  0
   47.2290   34.6630   44.8980 H   0  0  0  0  0  0  0  0  0  0  0  0
   47.9580   33.4190   42.7970 C   0  0  0  0  0  0  0  0  0  0  0  0
   48.7500   34.5830   42.8190 C   0  0  0  0  0  0  0  0  0  0  0  0
   50.1090   34.5220   42.4870 C   0  0  0  0  0  0  0  0  0  0  0  0
   50.5910   33.2840   42.1480 N   0  0  0  0  0  0  0  0  0  0  0  0
   49.8080   32.1770   42.1340 C   0  0  0  0  0  0  0  0  0  0  0  0
   48.4930   32.2470   42.4580 N   0  0  0  0  0  0  0  0  0  0  0  0
   48.4570   35.5910   43.0720 H   0  0  0  0  0  0  0  0  0  0  0  0
   50.7710   35.3640   42.4820 H   0  0  0  0  0  0  0  0  0  0  0  0
   50.3060   31.2580   41.8490 H   0  0  0  0  0  0  0  0  0  0  0  0
   46.8850   32.6380   45.3760 C   0  0  0  0  0  0  0  0  0  0  0  0
   46.9620   32.7800   46.8760 C   0  0  0  0  0  0  0  0  0  0  0  0
   45.7820   31.9520   47.3790 C   0  0  0  0  0  0  0  0  0  0  0  0
   45.7820   30.7740   46.4440 C   0  0  0  0  0  0  0  0  0  0  0  0
   46.0250   31.4490   45.1070 C   0  0  0  0  0  0  0  0  0  0  0  0
  1  7  1  6  0  0  0
  1  6  1  0  0  0  0
  2  3  1  0  0  0  0
  2  1  1  0  0  0  0
  3 11  1  0  0  0  0
  3  4  1  0  0  0  0
  4 12  1  0  0  0  0
  4  5  1  0  0  0  0
  5 15  1  0  0  0  0
  6 16  1  1  0  0  0
  6  5  1  0  0  0  0
  6 26  1  0  0  0  0
  8  2  1  0  0  0  0
  9  2  1  0  0  0  0
 10  3  1  0  0  0  0
 13  4  1  0  0  0  0
 14  5  1  0  0  0  0
 17 18  1  0  0  0  0
 17  1  1  0  0  0  0
 18 23  1  0  0  0  0
 19 18  2  0  0  0  0
 20 19  1  0  0  0  0
 21 20  2  0  0  0  0
 21 22  1  0  0  0  0
 22 17  2  0  0  0  0
 24 19  1  0  0  0  0
 25 21  1  0  0  0  0
 26 27  1  0  0  0  0
 27 28  1  0  0  0  0
 29 28  1  0  0  0  0
 30 26  1  0  0  0  0
 30 29  1  0  0  0  0
M  END
>  <minimizedAffinity>
-5.06067896

>  <minimizedRMSD>
1.6622175

$$$$
