
 OpenBabel03242512383D

 30 33  0  0  1  0  0  0  0  0999 V2000
   46.2100   33.6860   40.4510 C   0  0  0  0  0  0  0  0  0  0  0  0
   47.3610   34.4240   40.7580 C   0  0  0  0  0  0  0  0  0  0  0  0
   48.3040   34.5920   39.7790 C   0  0  0  0  0  0  0  0  0  0  0  0
   48.1950   34.0750   38.4890 C   0  0  0  0  0  0  0  0  0  0  0  0
   48.9770   34.1220   37.4040 N   0  0  0  0  0  0  0  0  0  0  0  0
   48.3900   33.4520   36.4100 C   0  0  0  0  0  0  0  0  0  0  0  0
   47.1880   32.9610   36.8840 C   0  0  0  0  0  0  0  0  0  0  0  0
   47.0550   33.3530   38.2100 C   0  0  0  0  0  0  0  0  0  0  0  0
   46.0890   33.1630   39.1640 C   0  0  0  0  0  0  0  0  0  0  0  0
   45.4820   33.5580   41.2150 H   0  0  0  0  0  0  0  0  0  0  0  0
   49.2420   35.1550   39.9220 H   0  0  0  0  0  0  0  0  0  0  0  0
   49.9190   34.6080   37.3240 H   0  0  0  0  0  0  0  0  0  0  0  0
   48.7470   33.2920   35.3980 H   0  0  0  0  0  0  0  0  0  0  0  0
   46.4640   32.3660   36.3150 H   0  0  0  0  0  0  0  0  0  0  0  0
   45.2160   32.5920   38.9030 H   0  0  0  0  0  0  0  0  0  0  0  0
   47.5870   35.0310   42.0750 C   0  0  0  0  0  0  0  0  0  0  0  0
   48.4720   35.9370   42.0500 O   0  0  0  0  0  0  0  0  0  0  0  0
   46.8500   34.5920   43.2230 C   0  0  0  0  0  0  0  0  0  0  0  0
   45.6640   35.2920   43.4870 C   0  0  0  0  0  0  0  0  0  0  0  0
   44.9360   34.8690   44.6080 C   0  0  0  0  0  0  0  0  0  0  0  0
   45.4240   33.8200   45.3560 N   0  0  0  0  0  0  0  0  0  0  0  0
   46.5700   33.1980   45.0400 C   0  0  0  0  0  0  0  0  0  0  0  0
   47.2860   33.5900   43.9640 N   0  0  0  0  0  0  0  0  0  0  0  0
   45.3210   36.1030   42.8780 H   0  0  0  0  0  0  0  0  0  0  0  0
   44.0190   35.3800   44.8470 H   0  0  0  0  0  0  0  0  0  0  0  0
   46.9680   32.0850   45.9410 C   0  0  2  0  0  0  0  0  0  0  0  0
   45.9730   30.9620   45.9820 C   0  0  0  0  0  0  0  0  0  0  0  0
   45.3360   30.9500   47.3530 C   0  0  0  0  0  0  0  0  0  0  0  0
   46.0870   31.9130   48.2080 C   0  0  0  0  0  0  0  0  0  0  0  0
   47.1240   32.5870   47.3570 C   0  0  0  0  0  0  0  0  0  0  0  0
  1  2  1  0  0  0  0
  1 10  1  0  0  0  0
  2 16  1  0  0  0  0
  3 11  1  0  0  0  0
  3  2  2  0  0  0  0
  4  3  1  0  0  0  0
  5  4  1  0  0  0  0
  6  7  2  0  0  0  0
  6  5  1  0  0  0  0
  7  8  1  0  0  0  0
  8  4  2  0  0  0  0
  8  9  1  0  0  0  0
  9  1  2  0  0  0  0
 12  5  1  0  0  0  0
 13  6  1  0  0  0  0
 14  7  1  0  0  0  0
 15  9  1  0  0  0  0
 16 18  1  0  0  0  0
 17 16  2  0  0  0  0
 18 19  2  0  0  0  0
 18 23  1  0  0  0  0
 19 20  1  0  0  0  0
 20 25  1  0  0  0  0
 20 21  2  0  0  0  0
 22 21  1  0  0  0  0
 23 22  2  0  0  0  0
 24 19  1  0  0  0  0
 26 22  1  6  0  0  0
 26 27  1  0  0  0  0
 26 30  1  0  0  0  0
 27 28  1  0  0  0  0
 28 29  2  0  0  0  0
 30 29  1  0  0  0  0
M  END
>  <minimizedAffinity>
-6.23014069

>  <minimizedRMSD>
0.638691843

$$$$
