
 OpenBabel03242514463D

 30 32  0  0  1  0  0  0  0  0999 V2000
   46.0370   34.4570   43.3990 C   0  0  0  0  0  0  0  0  0  0  0  0
   47.0250   33.4600   43.5000 C   0  0  0  0  0  0  0  0  0  0  0  0
   47.1730   32.8210   44.7240 C   0  0  0  0  0  0  0  0  0  0  0  0
   46.3710   33.1730   45.7710 N   0  0  0  0  0  0  0  0  0  0  0  0
   45.4360   34.1360   45.6270 C   0  0  0  0  0  0  0  0  0  0  0  0
   45.2590   34.7800   44.4590 N   0  0  0  0  0  0  0  0  0  0  0  0
   47.9090   32.0530   44.8650 H   0  0  0  0  0  0  0  0  0  0  0  0
   44.8120   34.3930   46.4810 H   0  0  0  0  0  0  0  0  0  0  0  0
   49.1100   33.9920   42.2290 C   0  0  2  0  0  0  0  0  0  0  0  0
   47.8820   33.0990   42.3370 C   0  0  1  0  0  0  0  0  0  0  0  0
   48.2970   31.8030   42.3320 O   0  0  0  0  0  0  0  0  0  0  0  0
   49.6430   31.7310   42.5590 C   0  0  0  0  0  0  0  0  0  0  0  0
   50.1780   32.9460   41.8620 C   0  0  1  0  0  0  0  0  0  0  0  0
   49.0850   34.6640   41.3450 H   0  0  0  0  0  0  0  0  0  0  0  0
   47.3420   33.2860   41.3950 H   0  0  0  0  0  0  0  0  0  0  0  0
   50.0190   30.8150   42.0190 H   0  0  0  0  0  0  0  0  0  0  0  0
   49.9610   31.6110   43.5980 H   0  0  0  0  0  0  0  0  0  0  0  0
   51.1670   33.2610   42.2200 H   0  0  0  0  0  0  0  0  0  0  0  0
   49.4700   34.6280   43.3790 O   0  0  0  0  0  0  0  0  0  0  0  0
   49.1630   35.5810   43.2880 H   0  0  0  0  0  0  0  0  0  0  0  0
   50.1600   32.6880   40.4970 O   0  0  0  0  0  0  0  0  0  0  0  0
   50.7450   31.9050   40.3630 H   0  0  0  0  0  0  0  0  0  0  0  0
   45.8600   35.1340   42.0940 C   0  0  0  0  0  0  0  0  0  0  0  0
   46.7940   35.1960   41.5090 H   0  0  0  0  0  0  0  0  0  0  0  0
   45.6620   36.2250   42.3290 H   0  0  0  0  0  0  0  0  0  0  0  0
   44.6750   34.6970   41.3040 C   0  0  0  0  0  0  0  0  0  0  0  0
   44.0100   33.4630   41.8940 C   0  0  0  0  0  0  0  0  0  0  0  0
   42.6720   33.4590   41.1480 C   0  0  0  0  0  0  0  0  0  0  0  0
   42.3780   34.8990   40.8320 C   0  0  0  0  0  0  0  0  0  0  0  0
   43.5250   35.6860   41.4150 C   0  0  0  0  0  0  0  0  0  0  0  0
  1  2  2  0  0  0  0
  1  6  1  0  0  0  0
  2  3  1  0  0  0  0
  3  7  1  0  0  0  0
  3  4  2  0  0  0  0
  5  4  1  0  0  0  0
  5  8  1  0  0  0  0
  6  5  2  0  0  0  0
  9 14  1  6  0  0  0
  9 10  1  0  0  0  0
  9 19  1  0  0  0  0
 10 15  1  6  0  0  0
 10  2  1  0  0  0  0
 11 10  1  0  0  0  0
 11 12  1  0  0  0  0
 12 17  1  0  0  0  0
 13 18  1  1  0  0  0
 13  9  1  0  0  0  0
 13 12  1  0  0  0  0
 16 12  1  0  0  0  0
 20 19  1  0  0  0  0
 21 13  1  0  0  0  0
 22 21  1  0  0  0  0
 23 25  1  0  0  0  0
 23  1  1  0  0  0  0
 24 23  1  0  0  0  0
 26 30  1  0  0  0  0
 26 27  1  0  0  0  0
 26 23  1  0  0  0  0
 28 27  1  0  0  0  0
 29 28  1  0  0  0  0
 29 30  1  0  0  0  0
M  END
>  <minimizedAffinity>
-5.21770096

>  <minimizedRMSD>
1.73797929

$$$$
