
 OpenBabel03252509213D

 21 23  0  0  0  0  0  0  0  0999 V2000
   45.4190   33.6770   45.9650 C   0  0  0  0  0  0  0  0  0  0  0  0
   45.8350   33.5640   44.5780 C   0  0  0  0  0  0  0  0  0  0  0  0
   46.8850   32.6650   44.4650 C   0  0  0  0  0  0  0  0  0  0  0  0
   47.4190   31.9960   45.5590 N   0  0  0  0  0  0  0  0  0  0  0  0
   46.9670   32.1650   46.8060 C   0  0  0  0  0  0  0  0  0  0  0  0
   45.9540   33.0150   47.0140 N   0  0  0  0  0  0  0  0  0  0  0  0
   44.6100   34.3360   46.2550 H   0  0  0  0  0  0  0  0  0  0  0  0
   47.5430   31.5380   47.4580 H   0  0  0  0  0  0  0  0  0  0  0  0
   47.3770   32.3570   43.0730 C   0  0  0  0  0  0  0  0  0  0  0  0
   48.6630   33.1460   42.7620 C   0  0  0  0  0  0  0  0  0  0  0  0
   48.5990   31.6140   42.9480 C   0  0  0  0  0  0  0  0  0  0  0  0
   46.6720   32.4650   42.2560 H   0  0  0  0  0  0  0  0  0  0  0  0
   48.8630   33.4890   41.7500 H   0  0  0  0  0  0  0  0  0  0  0  0
   49.1110   33.6760   43.5870 H   0  0  0  0  0  0  0  0  0  0  0  0
   49.1010   31.2090   43.8660 H   0  0  0  0  0  0  0  0  0  0  0  0
   48.9010   31.0250   42.0610 H   0  0  0  0  0  0  0  0  0  0  0  0
   45.1690   34.3000   43.5660 C   0  0  0  0  0  0  0  0  0  0  0  0
   45.7570   35.5260   42.9550 C   0  0  0  0  0  0  0  0  0  0  0  0
   44.5310   36.0610   42.2290 C   0  0  0  0  0  0  0  0  0  0  0  0
   43.6060   34.8840   41.9900 C   0  0  0  0  0  0  0  0  0  0  0  0
   44.4250   33.6560   42.4640 C   0  0  0  0  0  0  0  0  0  0  0  0
  1  7  1  0  0  0  0
  1  6  1  0  0  0  0
  2  1  2  0  0  0  0
  3  2  1  0  0  0  0
  3  4  2  0  0  0  0
  4  5  1  0  0  0  0
  5  6  2  0  0  0  0
  5  8  1  0  0  0  0
  9  3  1  0  0  0  0
 10 11  1  0  0  0  0
 10  9  1  0  0  0  0
 10 14  1  0  0  0  0
 11  9  1  0  0  0  0
 11 15  1  0  0  0  0
 12  9  1  0  0  0  0
 13 10  1  0  0  0  0
 16 11  1  0  0  0  0
 17  2  1  0  0  0  0
 18 17  1  0  0  0  0
 19 18  1  0  0  0  0
 20 19  1  0  0  0  0
 20 21  1  0  0  0  0
 21 17  1  0  0  0  0
M  END
>  <minimizedAffinity>
-3.55288911

>  <minimizedRMSD>
2.92876983

$$$$
