
 OpenBabel03252507583D

 23 25  0  0  1  0  0  0  0  0999 V2000
   46.4380   32.6360   45.6880 C   0  0  1  0  0  0  0  0  0  0  0  0
   47.1180   32.9580   46.9820 C   0  0  0  0  0  0  0  0  0  0  0  0
   45.6420   32.7580   46.9500 C   0  0  2  0  0  0  0  0  0  0  0  0
   46.6430   31.6440   45.2420 H   0  0  0  0  0  0  0  0  0  0  0  0
   47.7640   32.1550   47.3870 H   0  0  0  0  0  0  0  0  0  0  0  0
   47.5840   33.9490   47.0080 H   0  0  0  0  0  0  0  0  0  0  0  0
   45.0450   33.6930   47.1250 H   0  0  0  0  0  0  0  0  0  0  0  0
   46.7360   34.8670   42.7890 C   0  0  0  0  0  0  0  0  0  0  0  0
   45.6470   35.7520   42.9520 C   0  0  0  0  0  0  0  0  0  0  0  0
   44.8000   35.5710   44.0740 C   0  0  0  0  0  0  0  0  0  0  0  0
   45.0980   34.5490   44.9220 N   0  0  0  0  0  0  0  0  0  0  0  0
   46.1670   33.7310   44.6990 C   0  0  0  0  0  0  0  0  0  0  0  0
   46.9720   33.8820   43.6580 N   0  0  0  0  0  0  0  0  0  0  0  0
   45.4130   36.5660   42.2770 H   0  0  0  0  0  0  0  0  0  0  0  0
   43.9510   36.2170   44.2530 H   0  0  0  0  0  0  0  0  0  0  0  0
   47.5190   35.1480   41.6350 C   0  0  0  0  0  0  0  0  0  0  0  0
   48.6220   35.7780   41.6360 O   0  0  0  0  0  0  0  0  0  0  0  0
   47.3250   34.8860   40.5850 H   0  0  0  0  0  0  0  0  0  0  0  0
   45.1340   31.5690   47.6820 C   0  0  0  0  0  3  0  0  0  0  0  0
   45.4600   31.5800   49.1550 C   0  0  0  0  0  2  0  0  0  0  0  0
   45.0630   30.1570   49.5580 C   0  0  0  0  0  2  0  0  0  0  0  0
   44.9610   29.3540   48.2860 C   0  0  0  0  0  2  0  0  0  0  0  0
   45.6650   30.2450   47.2530 C   0  0  0  0  0  2  0  0  0  0  0  0
  1  4  1  6  0  0  0
  1  3  1  0  0  0  0
  1  2  1  0  0  0  0
  2  6  1  0  0  0  0
  2  5  1  0  0  0  0
  3  2  1  0  0  0  0
  3  7  1  1  0  0  0
  3 19  1  0  0  0  0
  8  9  2  0  0  0  0
  8 13  1  0  0  0  0
  9 10  1  0  0  0  0
 10 15  1  0  0  0  0
 10 11  2  0  0  0  0
 12 11  1  0  0  0  0
 12  1  1  0  0  0  0
 13 12  2  0  0  0  0
 14  9  1  0  0  0  0
 16 17  2  0  0  0  0
 16  8  1  0  0  0  0
 18 16  1  0  0  0  0
 19 20  1  0  0  0  0
 20 21  1  0  0  0  0
 22 21  1  0  0  0  0
 23 19  1  0  0  0  0
 23 22  1  0  0  0  0
M  END
>  <minimizedAffinity>
-4.53406906

>  <minimizedRMSD>
0.979332209

$$$$
