
 OpenBabel03252508223D

 30 32  0  0  0  0  0  0  0  0999 V2000
   35.7630   30.0220   40.4310 C   0  0  0  0  0  0  0  0  0  0  0  0
   34.9100   30.6310   40.7150 H   0  0  0  0  0  0  0  0  0  0  0  0
   36.6310   30.4150   41.0380 H   0  0  0  0  0  0  0  0  0  0  0  0
   36.1740   30.0900   39.0320 C   0  0  0  0  0  0  0  0  0  0  0  0
   35.6410   29.3030   38.0340 C   0  0  0  0  0  0  0  0  0  0  0  0
   36.0010   29.3390   36.7070 C   0  0  0  0  0  0  0  0  0  0  0  0
   36.9890   30.2520   36.3580 C   0  0  0  0  0  0  0  0  0  0  0  0
   37.5440   31.0610   37.3490 C   0  0  0  0  0  0  0  0  0  0  0  0
   37.1600   31.0020   38.6790 C   0  0  0  0  0  0  0  0  0  0  0  0
   34.8610   28.5790   38.2980 H   0  0  0  0  0  0  0  0  0  0  0  0
   35.5460   28.6910   35.9660 H   0  0  0  0  0  0  0  0  0  0  0  0
   37.2900   30.3030   35.3410 H   0  0  0  0  0  0  0  0  0  0  0  0
   38.3060   31.7400   36.9740 H   0  0  0  0  0  0  0  0  0  0  0  0
   37.7950   31.8920   39.6680 C   0  0  0  0  0  3  0  0  0  0  0  0
   37.3530   33.3170   39.6050 C   0  0  0  0  0  2  0  0  0  0  0  0
   38.5360   34.1470   40.1130 C   0  0  0  0  0  2  0  0  0  0  0  0
   39.5840   33.1140   40.5330 C   0  0  0  0  0  2  0  0  0  0  0  0
   39.2840   31.9980   39.5240 C   0  0  0  0  0  2  0  0  0  0  0  0
   35.5990   28.5820   40.9030 C   0  0  0  0  0  0  0  0  0  0  0  0
   35.5640   27.8850   40.0430 H   0  0  0  0  0  0  0  0  0  0  0  0
   34.6560   28.5110   41.5170 H   0  0  0  0  0  0  0  0  0  0  0  0
   38.5680   28.9340   43.1840 C   0  0  0  0  0  0  0  0  0  0  0  0
   37.4730   29.2730   42.3490 C   0  0  0  0  0  0  0  0  0  0  0  0
   36.7420   28.2430   41.7740 C   0  0  0  0  0  0  0  0  0  0  0  0
   37.1380   26.9700   42.0610 N   0  0  0  0  0  0  0  0  0  0  0  0
   38.1700   26.6680   42.8470 C   0  0  0  0  0  0  0  0  0  0  0  0
   38.8970   27.6550   43.4190 N   0  0  0  0  0  0  0  0  0  0  0  0
   39.1450   29.7390   43.6370 H   0  0  0  0  0  0  0  0  0  0  0  0
   37.2630   30.3080   42.2010 H   0  0  0  0  0  0  0  0  0  0  0  0
   38.4520   25.6340   43.0500 H   0  0  0  0  0  0  0  0  0  0  0  0
  1  2  1  0  0  0  0
  1 19  1  0  0  0  0
  1  3  1  0  0  0  0
  4  1  1  0  0  0  0
  5 10  1  0  0  0  0
  5  4  2  0  0  0  0
  6  5  1  0  0  0  0
  7  6  2  0  0  0  0
  7  8  1  0  0  0  0
  8  9  2  0  0  0  0
  9  4  1  0  0  0  0
  9 14  1  0  0  0  0
 11  6  1  0  0  0  0
 12  7  1  0  0  0  0
 13  8  1  0  0  0  0
 15 14  1  0  0  0  0
 15 16  1  0  0  0  0
 16 17  1  0  0  0  0
 18 14  1  0  0  0  0
 18 17  1  0  0  0  0
 19 21  1  0  0  0  0
 19 24  1  0  0  0  0
 20 19  1  0  0  0  0
 22 27  1  0  0  0  0
 22 28  1  0  0  0  0
 23 22  2  0  0  0  0
 24 25  2  0  0  0  0
 24 23  1  0  0  0  0
 25 26  1  0  0  0  0
 26 30  1  0  0  0  0
 26 27  2  0  0  0  0
 29 23  1  0  0  0  0
M  END
>  <minimizedAffinity>
-5.39645386

$$$$

 OpenBabel03252508223D

 30 32  0  0  0  0  0  0  0  0999 V2000
   39.4960   30.4030   41.0200 C   0  0  0  0  0  0  0  0  0  0  0  0
   40.5510   30.2780   40.7970 H   0  0  0  0  0  0  0  0  0  0  0  0
   38.9660   29.5840   40.4500 H   0  0  0  0  0  0  0  0  0  0  0  0
   38.8850   31.6600   40.5990 C   0  0  0  0  0  0  0  0  0  0  0  0
   39.4230   32.9020   40.8570 C   0  0  0  0  0  0  0  0  0  0  0  0
   38.8780   34.1070   40.4760 C   0  0  0  0  0  0  0  0  0  0  0  0
   37.6820   34.0490   39.7720 C   0  0  0  0  0  0  0  0  0  0  0  0
   37.1160   32.8040   39.4970 C   0  0  0  0  0  0  0  0  0  0  0  0
   37.6890   31.6070   39.8950 C   0  0  0  0  0  0  0  0  0  0  0  0
   40.3670   32.9590   41.4120 H   0  0  0  0  0  0  0  0  0  0  0  0
   39.3490   35.0550   40.7090 H   0  0  0  0  0  0  0  0  0  0  0  0
   37.2350   34.9610   39.4640 H   0  0  0  0  0  0  0  0  0  0  0  0
   36.1830   32.8670   38.9420 H   0  0  0  0  0  0  0  0  0  0  0  0
   37.0300   30.3300   39.5650 C   0  0  0  0  0  3  0  0  0  0  0  0
   36.5410   30.2210   38.1580 C   0  0  0  0  0  2  0  0  0  0  0  0
   35.3420   29.2680   38.2030 C   0  0  0  0  0  2  0  0  0  0  0  0
   35.2660   28.8050   39.6590 C   0  0  0  0  0  2  0  0  0  0  0  0
   35.7930   30.0590   40.3700 C   0  0  0  0  0  2  0  0  0  0  0  0
   39.1970   30.0910   42.4820 C   0  0  0  0  0  0  0  0  0  0  0  0
   38.6260   30.9150   42.9540 H   0  0  0  0  0  0  0  0  0  0  0  0
   40.1740   29.9210   43.0190 H   0  0  0  0  0  0  0  0  0  0  0  0
   36.7150   27.4920   43.5870 C   0  0  0  0  0  0  0  0  0  0  0  0
   37.4600   28.6970   43.5400 C   0  0  0  0  0  0  0  0  0  0  0  0
   38.4150   28.8410   42.5430 C   0  0  0  0  0  0  0  0  0  0  0  0
   38.5640   27.7980   41.6770 N   0  0  0  0  0  0  0  0  0  0  0  0
   37.8560   26.6710   41.7340 C   0  0  0  0  0  0  0  0  0  0  0  0
   36.9190   26.5090   42.6970 N   0  0  0  0  0  0  0  0  0  0  0  0
   35.9650   27.3750   44.3670 H   0  0  0  0  0  0  0  0  0  0  0  0
   37.2510   29.4400   44.2760 H   0  0  0  0  0  0  0  0  0  0  0  0
   38.0090   25.8620   41.0200 H   0  0  0  0  0  0  0  0  0  0  0  0
  1 19  1  0  0  0  0
  2  1  1  0  0  0  0
  3  1  1  0  0  0  0
  4  5  1  0  0  0  0
  4  1  1  0  0  0  0
  5 10  1  0  0  0  0
  6 11  1  0  0  0  0
  6  5  2  0  0  0  0
  7  6  1  0  0  0  0
  8  7  2  0  0  0  0
  8  9  1  0  0  0  0
  9  4  2  0  0  0  0
 12  7  1  0  0  0  0
 13  8  1  0  0  0  0
 14  9  1  0  0  0  0
 14 18  1  0  0  0  0
 15 16  1  0  0  0  0
 15 14  1  0  0  0  0
 16 17  1  0  0  0  0
 17 18  1  0  0  0  0
 19 24  1  0  0  0  0
 19 20  1  0  0  0  0
 19 21  1  0  0  0  0
 22 28  1  0  0  0  0
 23 22  1  0  0  0  0
 23 29  1  0  0  0  0
 24 23  2  0  0  0  0
 25 26  2  0  0  0  0
 25 24  1  0  0  0  0
 26 27  1  0  0  0  0
 27 22  2  0  0  0  0
 30 26  1  0  0  0  0
M  END
>  <minimizedAffinity>
-5.35018826

$$$$

 OpenBabel03252508223D

 30 32  0  0  0  0  0  0  0  0999 V2000
   37.1360   27.4600   38.9220 C   0  0  0  0  0  0  0  0  0  0  0  0
   37.7390   27.4840   38.0190 H   0  0  0  0  0  0  0  0  0  0  0  0
   37.7690   27.9450   39.7220 H   0  0  0  0  0  0  0  0  0  0  0  0
   36.7710   26.1400   39.4280 C   0  0  0  0  0  0  0  0  0  0  0  0
   36.2110   25.1470   38.6530 C   0  0  0  0  0  0  0  0  0  0  0  0
   35.8560   23.8930   39.0930 C   0  0  0  0  0  0  0  0  0  0  0  0
   36.0860   23.6200   40.4360 C   0  0  0  0  0  0  0  0  0  0  0  0
   36.6530   24.6080   41.2410 C   0  0  0  0  0  0  0  0  0  0  0  0
   37.0010   25.8630   40.7680 C   0  0  0  0  0  0  0  0  0  0  0  0
   36.0250   25.3520   37.5920 H   0  0  0  0  0  0  0  0  0  0  0  0
   35.4170   23.1520   38.4350 H   0  0  0  0  0  0  0  0  0  0  0  0
   35.8220   22.6610   40.8060 H   0  0  0  0  0  0  0  0  0  0  0  0
   36.7930   24.2950   42.2720 H   0  0  0  0  0  0  0  0  0  0  0  0
   37.5960   26.8540   41.6830 C   0  0  0  0  0  3  0  0  0  0  0  0
   38.8690   26.4220   42.3350 C   0  0  0  0  0  2  0  0  0  0  0  0
   38.9250   27.1600   43.6760 C   0  0  0  0  0  2  0  0  0  0  0  0
   37.6910   28.0650   43.6760 C   0  0  0  0  0  2  0  0  0  0  0  0
   36.7240   27.2030   42.8530 C   0  0  0  0  0  2  0  0  0  0  0  0
   35.9230   28.3760   38.8030 C   0  0  0  0  0  0  0  0  0  0  0  0
   35.1030   28.0340   39.4650 H   0  0  0  0  0  0  0  0  0  0  0  0
   35.5890   28.3900   37.7260 H   0  0  0  0  0  0  0  0  0  0  0  0
   36.6320   31.4480   40.8520 C   0  0  0  0  0  0  0  0  0  0  0  0
   36.2370   30.1300   40.5060 C   0  0  0  0  0  0  0  0  0  0  0  0
   36.3310   29.7440   39.1760 C   0  0  0  0  0  0  0  0  0  0  0  0
   36.8030   30.6730   38.2960 N   0  0  0  0  0  0  0  0  0  0  0  0
   37.1710   31.9060   38.6360 C   0  0  0  0  0  0  0  0  0  0  0  0
   37.0880   32.3060   39.9270 N   0  0  0  0  0  0  0  0  0  0  0  0
   36.5600   31.7550   41.8930 H   0  0  0  0  0  0  0  0  0  0  0  0
   35.8830   29.4960   41.2870 H   0  0  0  0  0  0  0  0  0  0  0  0
   37.5430   32.6170   37.8980 H   0  0  0  0  0  0  0  0  0  0  0  0
  1  4  1  0  0  0  0
  1  3  1  0  0  0  0
  2  1  1  0  0  0  0
  4  9  1  0  0  0  0
  5  6  1  0  0  0  0
  5  4  2  0  0  0  0
  6  7  2  0  0  0  0
  7 12  1  0  0  0  0
  7  8  1  0  0  0  0
  8 13  1  0  0  0  0
  9  8  2  0  0  0  0
  9 14  1  0  0  0  0
 10  5  1  0  0  0  0
 11  6  1  0  0  0  0
 14 15  1  0  0  0  0
 14 18  1  0  0  0  0
 15 16  1  0  0  0  0
 17 16  1  0  0  0  0
 18 17  1  0  0  0  0
 19  1  1  0  0  0  0
 19 24  1  0  0  0  0
 19 20  1  0  0  0  0
 21 19  1  0  0  0  0
 22 28  1  0  0  0  0
 23 22  1  0  0  0  0
 23 29  1  0  0  0  0
 24 23  2  0  0  0  0
 25 26  2  0  0  0  0
 25 24  1  0  0  0  0
 26 27  1  0  0  0  0
 27 22  2  0  0  0  0
 30 26  1  0  0  0  0
M  END
>  <minimizedAffinity>
-5.19747877

$$$$

 OpenBabel03252508223D

 30 32  0  0  0  0  0  0  0  0999 V2000
   36.1170   27.8660   40.0520 C   0  0  0  0  0  0  0  0  0  0  0  0
   35.4450   27.0500   39.8060 H   0  0  0  0  0  0  0  0  0  0  0  0
   36.8810   27.8920   39.2200 H   0  0  0  0  0  0  0  0  0  0  0  0
   36.8690   27.7390   41.2980 C   0  0  0  0  0  0  0  0  0  0  0  0
   37.0290   28.7610   42.2070 C   0  0  0  0  0  0  0  0  0  0  0  0
   37.7280   28.6790   43.3900 C   0  0  0  0  0  0  0  0  0  0  0  0
   38.3160   27.4540   43.6770 C   0  0  0  0  0  0  0  0  0  0  0  0
   38.1680   26.4020   42.7730 C   0  0  0  0  0  0  0  0  0  0  0  0
   37.4580   26.5160   41.5890 C   0  0  0  0  0  0  0  0  0  0  0  0
   36.5690   29.7330   41.9910 H   0  0  0  0  0  0  0  0  0  0  0  0
   37.8210   29.5210   44.0670 H   0  0  0  0  0  0  0  0  0  0  0  0
   38.8630   27.3580   44.5820 H   0  0  0  0  0  0  0  0  0  0  0  0
   38.6640   25.4880   43.0890 H   0  0  0  0  0  0  0  0  0  0  0  0
   37.3460   25.3560   40.6840 C   0  0  0  0  0  3  0  0  0  0  0  0
   36.9210   24.0850   41.3430 C   0  0  0  0  0  2  0  0  0  0  0  0
   37.5360   22.9550   40.5110 C   0  0  0  0  0  2  0  0  0  0  0  0
   38.2240   23.6620   39.3410 C   0  0  0  0  0  2  0  0  0  0  0  0
   38.6370   24.9740   40.0230 C   0  0  0  0  0  2  0  0  0  0  0  0
   35.4130   29.2140   39.9530 C   0  0  0  0  0  0  0  0  0  0  0  0
   35.3130   29.6840   40.9510 H   0  0  0  0  0  0  0  0  0  0  0  0
   34.4010   29.0560   39.4800 H   0  0  0  0  0  0  0  0  0  0  0  0
   37.2420   30.5110   36.9340 C   0  0  0  0  0  0  0  0  0  0  0  0
   36.4830   29.6600   37.7770 C   0  0  0  0  0  0  0  0  0  0  0  0
   36.2030   30.0900   39.0660 C   0  0  0  0  0  0  0  0  0  0  0  0
   36.6870   31.3130   39.4270 N   0  0  0  0  0  0  0  0  0  0  0  0
   37.4000   32.1020   38.6240 C   0  0  0  0  0  0  0  0  0  0  0  0
   37.6840   31.7040   37.3630 N   0  0  0  0  0  0  0  0  0  0  0  0
   37.4640   30.1780   35.9230 H   0  0  0  0  0  0  0  0  0  0  0  0
   36.1610   28.7250   37.3780 H   0  0  0  0  0  0  0  0  0  0  0  0
   37.7670   33.0740   38.9550 H   0  0  0  0  0  0  0  0  0  0  0  0
  1  4  1  0  0  0  0
  2  1  1  0  0  0  0
  3  1  1  0  0  0  0
  4  9  2  0  0  0  0
  4  5  1  0  0  0  0
  5  6  2  0  0  0  0
  6  7  1  0  0  0  0
  6 11  1  0  0  0  0
  7 12  1  0  0  0  0
  8 13  1  0  0  0  0
  8  7  2  0  0  0  0
  9  8  1  0  0  0  0
 10  5  1  0  0  0  0
 14 15  1  0  0  0  0
 14  9  1  0  0  0  0
 16 15  1  0  0  0  0
 17 18  1  0  0  0  0
 17 16  1  0  0  0  0
 18 14  1  0  0  0  0
 19  1  1  0  0  0  0
 19 20  1  0  0  0  0
 21 19  1  0  0  0  0
 22 27  2  0  0  0  0
 22 23  1  0  0  0  0
 23 24  2  0  0  0  0
 24 25  1  0  0  0  0
 24 19  1  0  0  0  0
 26 30  1  0  0  0  0
 26 25  2  0  0  0  0
 27 26  1  0  0  0  0
 28 22  1  0  0  0  0
 29 23  1  0  0  0  0
M  END
>  <minimizedAffinity>
-5.18181849

$$$$

 OpenBabel03252508223D

 30 32  0  0  0  0  0  0  0  0999 V2000
   36.9450   27.5630   42.9380 C   0  0  0  0  0  0  0  0  0  0  0  0
   36.3670   27.5160   43.8560 H   0  0  0  0  0  0  0  0  0  0  0  0
   36.2450   27.2160   42.1220 H   0  0  0  0  0  0  0  0  0  0  0  0
   38.1230   26.7040   42.8640 C   0  0  0  0  0  0  0  0  0  0  0  0
   39.2300   26.8450   43.6730 C   0  0  0  0  0  0  0  0  0  0  0  0
   40.3560   26.0550   43.6340 C   0  0  0  0  0  0  0  0  0  0  0  0
   40.3630   25.0330   42.6930 C   0  0  0  0  0  0  0  0  0  0  0  0
   39.2540   24.8680   41.8620 C   0  0  0  0  0  0  0  0  0  0  0  0
   38.1340   25.6810   41.9260 C   0  0  0  0  0  0  0  0  0  0  0  0
   39.2350   27.6490   44.4190 H   0  0  0  0  0  0  0  0  0  0  0  0
   41.1990   26.2160   44.2970 H   0  0  0  0  0  0  0  0  0  0  0  0
   41.2180   24.4070   42.6370 H   0  0  0  0  0  0  0  0  0  0  0  0
   39.3580   24.0430   41.1640 H   0  0  0  0  0  0  0  0  0  0  0  0
   37.0000   25.4420   41.0130 C   0  0  0  0  0  3  0  0  0  0  0  0
   36.5840   24.0130   40.8890 C   0  0  0  0  0  2  0  0  0  0  0  0
   35.9860   23.8700   39.4860 C   0  0  0  0  0  2  0  0  0  0  0  0
   36.0150   25.2850   38.9040 C   0  0  0  0  0  2  0  0  0  0  0  0
   37.2720   25.8350   39.5910 C   0  0  0  0  0  2  0  0  0  0  0  0
   37.2710   29.0030   42.5600 C   0  0  0  0  0  0  0  0  0  0  0  0
   38.3360   29.2340   42.7610 H   0  0  0  0  0  0  0  0  0  0  0  0
   36.5940   29.6890   43.1450 H   0  0  0  0  0  0  0  0  0  0  0  0
   35.4000   29.3110   39.3120 C   0  0  0  0  0  0  0  0  0  0  0  0
   35.6640   29.1330   40.6940 C   0  0  0  0  0  0  0  0  0  0  0  0
   36.9820   29.1870   41.1240 C   0  0  0  0  0  0  0  0  0  0  0  0
   37.9330   29.4090   40.1710 N   0  0  0  0  0  0  0  0  0  0  0  0
   37.6690   29.5740   38.8760 C   0  0  0  0  0  0  0  0  0  0  0  0
   36.3910   29.5270   38.4340 N   0  0  0  0  0  0  0  0  0  0  0  0
   34.3670   29.2700   38.9710 H   0  0  0  0  0  0  0  0  0  0  0  0
   34.8330   28.9650   41.3410 H   0  0  0  0  0  0  0  0  0  0  0  0
   38.4620   29.7500   38.1480 H   0  0  0  0  0  0  0  0  0  0  0  0
  1  2  1  0  0  0  0
  3  1  1  0  0  0  0
  4  1  1  0  0  0  0
  4  5  1  0  0  0  0
  5 10  1  0  0  0  0
  6  5  2  0  0  0  0
  6 11  1  0  0  0  0
  7  6  1  0  0  0  0
  8  9  1  0  0  0  0
  8  7  2  0  0  0  0
  9  4  2  0  0  0  0
 12  7  1  0  0  0  0
 13  8  1  0  0  0  0
 14  9  1  0  0  0  0
 15 14  1  0  0  0  0
 16 15  1  0  0  0  0
 17 16  1  0  0  0  0
 17 18  1  0  0  0  0
 18 14  1  0  0  0  0
 19 20  1  0  0  0  0
 19  1  1  0  0  0  0
 19 21  1  0  0  0  0
 22 23  1  0  0  0  0
 23 24  2  0  0  0  0
 23 29  1  0  0  0  0
 24 19  1  0  0  0  0
 25 24  1  0  0  0  0
 26 25  2  0  0  0  0
 27 26  1  0  0  0  0
 27 22  2  0  0  0  0
 28 22  1  0  0  0  0
 30 26  1  0  0  0  0
M  END
>  <minimizedAffinity>
-5.08348846

$$$$

 OpenBabel03252508223D

 30 32  0  0  0  0  0  0  0  0999 V2000
   36.6550   27.5150   42.9070 C   0  0  0  0  0  0  0  0  0  0  0  0
   36.8790   26.4790   43.1440 H   0  0  0  0  0  0  0  0  0  0  0  0
   35.7030   27.7550   43.4660 H   0  0  0  0  0  0  0  0  0  0  0  0
   36.3980   27.8210   41.5030 C   0  0  0  0  0  0  0  0  0  0  0  0
   35.8030   28.9850   41.0660 C   0  0  0  0  0  0  0  0  0  0  0  0
   35.5450   29.3100   39.7540 C   0  0  0  0  0  0  0  0  0  0  0  0
   35.9240   28.3730   38.8000 C   0  0  0  0  0  0  0  0  0  0  0  0
   36.5290   27.1880   39.2150 C   0  0  0  0  0  0  0  0  0  0  0  0
   36.7750   26.8890   40.5460 C   0  0  0  0  0  0  0  0  0  0  0  0
   35.5000   29.7300   41.8110 H   0  0  0  0  0  0  0  0  0  0  0  0
   35.0710   30.2430   39.4710 H   0  0  0  0  0  0  0  0  0  0  0  0
   35.7380   28.5940   37.7780 H   0  0  0  0  0  0  0  0  0  0  0  0
   36.7870   26.5240   38.3940 H   0  0  0  0  0  0  0  0  0  0  0  0
   37.4210   25.6130   40.9050 C   0  0  0  0  0  3  0  0  0  0  0  0
   38.7140   25.3450   40.2070 C   0  0  0  0  0  2  0  0  0  0  0  0
   38.8350   23.8200   40.1200 C   0  0  0  0  0  2  0  0  0  0  0  0
   37.6140   23.2880   40.8740 C   0  0  0  0  0  2  0  0  0  0  0  0
   36.6020   24.4020   40.5700 C   0  0  0  0  0  2  0  0  0  0  0  0
   37.6890   28.4580   43.5110 C   0  0  0  0  0  0  0  0  0  0  0  0
   37.5070   28.6030   44.5950 H   0  0  0  0  0  0  0  0  0  0  0  0
   37.6430   29.4400   42.9610 H   0  0  0  0  0  0  0  0  0  0  0  0
   41.2910   28.0780   42.5000 C   0  0  0  0  0  0  0  0  0  0  0  0
   40.0070   28.6480   42.6920 C   0  0  0  0  0  0  0  0  0  0  0  0
   39.0300   27.8760   43.3050 C   0  0  0  0  0  0  0  0  0  0  0  0
   39.3860   26.6140   43.6780 N   0  0  0  0  0  0  0  0  0  0  0  0
   40.5970   26.0920   43.4900 C   0  0  0  0  0  0  0  0  0  0  0  0
   41.5660   26.8260   42.8960 N   0  0  0  0  0  0  0  0  0  0  0  0
   42.0600   28.6800   42.0200 H   0  0  0  0  0  0  0  0  0  0  0  0
   39.8520   29.6480   42.3550 H   0  0  0  0  0  0  0  0  0  0  0  0
   40.8380   25.0760   43.8060 H   0  0  0  0  0  0  0  0  0  0  0  0
  1  2  1  0  0  0  0
  1  3  1  0  0  0  0
  1 19  1  0  0  0  0
  4  1  1  0  0  0  0
  5  4  1  0  0  0  0
  5 10  1  0  0  0  0
  6  5  2  0  0  0  0
  7  8  2  0  0  0  0
  7  6  1  0  0  0  0
  8  9  1  0  0  0  0
  9 14  1  0  0  0  0
  9  4  2  0  0  0  0
 11  6  1  0  0  0  0
 12  7  1  0  0  0  0
 13  8  1  0  0  0  0
 15 14  1  0  0  0  0
 16 15  1  0  0  0  0
 16 17  1  0  0  0  0
 18 17  1  0  0  0  0
 18 14  1  0  0  0  0
 19 20  1  0  0  0  0
 21 19  1  0  0  0  0
 22 23  2  0  0  0  0
 22 27  1  0  0  0  0
 23 24  1  0  0  0  0
 24 19  1  0  0  0  0
 24 25  2  0  0  0  0
 26 25  1  0  0  0  0
 26 30  1  0  0  0  0
 27 26  2  0  0  0  0
 28 22  1  0  0  0  0
 29 23  1  0  0  0  0
M  END
>  <minimizedAffinity>
-5.04657698

$$$$

 OpenBabel03252508223D

 30 32  0  0  0  0  0  0  0  0999 V2000
   38.3730   29.0740   38.5670 C   0  0  0  0  0  0  0  0  0  0  0  0
   38.8260   28.2080   38.0940 H   0  0  0  0  0  0  0  0  0  0  0  0
   38.7990   29.1060   39.6130 H   0  0  0  0  0  0  0  0  0  0  0  0
   36.9200   29.0510   38.7150 C   0  0  0  0  0  0  0  0  0  0  0  0
   36.0380   29.2310   37.6720 C   0  0  0  0  0  0  0  0  0  0  0  0
   34.6650   29.2140   37.7710 C   0  0  0  0  0  0  0  0  0  0  0  0
   34.1400   28.9970   39.0390 C   0  0  0  0  0  0  0  0  0  0  0  0
   35.0120   28.8110   40.1120 C   0  0  0  0  0  0  0  0  0  0  0  0
   36.3910   28.8330   39.9800 C   0  0  0  0  0  0  0  0  0  0  0  0
   36.4420   29.4030   36.6670 H   0  0  0  0  0  0  0  0  0  0  0  0
   34.0210   29.3630   36.9120 H   0  0  0  0  0  0  0  0  0  0  0  0
   33.0840   28.9790   39.1490 H   0  0  0  0  0  0  0  0  0  0  0  0
   34.5020   28.6490   41.0580 H   0  0  0  0  0  0  0  0  0  0  0  0
   37.2460   28.6280   41.1630 C   0  0  0  0  0  3  0  0  0  0  0  0
   36.7650   27.5780   42.1110 C   0  0  0  0  0  2  0  0  0  0  0  0
   37.2820   27.9910   43.4930 C   0  0  0  0  0  2  0  0  0  0  0  0
   38.1270   29.2410   43.2350 C   0  0  0  0  0  2  0  0  0  0  0  0
   37.3700   29.8380   42.0410 C   0  0  0  0  0  2  0  0  0  0  0  0
   38.8550   30.3720   37.9300 C   0  0  0  0  0  0  0  0  0  0  0  0
   38.2010   30.6650   37.0850 H   0  0  0  0  0  0  0  0  0  0  0  0
   39.9180   30.2270   37.5820 H   0  0  0  0  0  0  0  0  0  0  0  0
   37.8470   33.3990   39.9200 C   0  0  0  0  0  0  0  0  0  0  0  0
   37.8440   32.3880   38.9260 C   0  0  0  0  0  0  0  0  0  0  0  0
   38.8480   31.4300   38.9590 C   0  0  0  0  0  0  0  0  0  0  0  0
   39.7700   31.5370   39.9580 N   0  0  0  0  0  0  0  0  0  0  0  0
   39.7600   32.4920   40.8860 C   0  0  0  0  0  0  0  0  0  0  0  0
   38.7910   33.4370   40.8730 N   0  0  0  0  0  0  0  0  0  0  0  0
   37.0630   34.1520   39.8980 H   0  0  0  0  0  0  0  0  0  0  0  0
   37.0680   32.4120   38.1960 H   0  0  0  0  0  0  0  0  0  0  0  0
   40.5180   32.5390   41.6680 H   0  0  0  0  0  0  0  0  0  0  0  0
  1  4  1  0  0  0  0
  1  3  1  0  0  0  0
  2  1  1  0  0  0  0
  4  9  1  0  0  0  0
  5  6  1  0  0  0  0
  5  4  2  0  0  0  0
  6  7  2  0  0  0  0
  7 12  1  0  0  0  0
  7  8  1  0  0  0  0
  8 13  1  0  0  0  0
  9  8  2  0  0  0  0
  9 14  1  0  0  0  0
 10  5  1  0  0  0  0
 11  6  1  0  0  0  0
 14 18  1  0  0  0  0
 14 15  1  0  0  0  0
 15 16  1  0  0  0  0
 17 16  1  0  0  0  0
 18 17  1  0  0  0  0
 19  1  1  0  0  0  0
 19 24  1  0  0  0  0
 20 19  1  0  0  0  0
 21 19  1  0  0  0  0
 22 27  1  0  0  0  0
 23 24  1  0  0  0  0
 23 22  2  0  0  0  0
 24 25  2  0  0  0  0
 25 26  1  0  0  0  0
 26 30  1  0  0  0  0
 27 26  2  0  0  0  0
 28 22  1  0  0  0  0
 29 23  1  0  0  0  0
M  END
>  <minimizedAffinity>
-4.99810314

$$$$

 OpenBabel03252508223D

 30 32  0  0  0  0  0  0  0  0999 V2000
   37.0110   27.3560   43.0440 C   0  0  0  0  0  0  0  0  0  0  0  0
   36.2310   27.3170   43.7990 H   0  0  0  0  0  0  0  0  0  0  0  0
   36.9020   28.3640   42.5460 H   0  0  0  0  0  0  0  0  0  0  0  0
   36.9390   26.3590   41.9800 C   0  0  0  0  0  0  0  0  0  0  0  0
   37.0070   25.0000   42.1930 C   0  0  0  0  0  0  0  0  0  0  0  0
   36.9410   24.0310   41.2180 C   0  0  0  0  0  0  0  0  0  0  0  0
   36.7940   24.4790   39.9110 C   0  0  0  0  0  0  0  0  0  0  0  0
   36.7210   25.8510   39.6680 C   0  0  0  0  0  0  0  0  0  0  0  0
   36.7910   26.8020   40.6720 C   0  0  0  0  0  0  0  0  0  0  0  0
   37.1230   24.6350   43.2210 H   0  0  0  0  0  0  0  0  0  0  0  0
   37.0010   22.9730   41.4470 H   0  0  0  0  0  0  0  0  0  0  0  0
   36.7400   23.7570   39.1340 H   0  0  0  0  0  0  0  0  0  0  0  0
   36.6060   26.0970   38.6150 H   0  0  0  0  0  0  0  0  0  0  0  0
   36.7060   28.2350   40.3350 C   0  0  0  0  0  3  0  0  0  0  0  0
   35.5500   28.6090   39.4670 C   0  0  0  0  0  2  0  0  0  0  0  0
   36.0000   29.8390   38.6730 C   0  0  0  0  0  2  0  0  0  0  0  0
   37.3960   30.1610   39.2120 C   0  0  0  0  0  2  0  0  0  0  0  0
   37.8840   28.7480   39.5600 C   0  0  0  0  0  2  0  0  0  0  0  0
   38.3960   27.4050   43.6800 C   0  0  0  0  0  0  0  0  0  0  0  0
   38.9140   26.4310   43.5760 H   0  0  0  0  0  0  0  0  0  0  0  0
   38.2820   27.6850   44.7660 H   0  0  0  0  0  0  0  0  0  0  0  0
   41.1160   29.1400   41.7480 C   0  0  0  0  0  0  0  0  0  0  0  0
   40.3710   28.1170   42.3880 C   0  0  0  0  0  0  0  0  0  0  0  0
   39.1810   28.4610   43.0110 C   0  0  0  0  0  0  0  0  0  0  0  0
   38.8140   29.7740   42.9590 N   0  0  0  0  0  0  0  0  0  0  0  0
   39.5240   30.7250   42.3540 C   0  0  0  0  0  0  0  0  0  0  0  0
   40.6890   30.4120   41.7390 N   0  0  0  0  0  0  0  0  0  0  0  0
   42.0500   28.8750   41.2580 H   0  0  0  0  0  0  0  0  0  0  0  0
   40.7640   27.1260   42.3600 H   0  0  0  0  0  0  0  0  0  0  0  0
   39.1930   31.7640   42.3360 H   0  0  0  0  0  0  0  0  0  0  0  0
  1 19  1  0  0  0  0
  1  2  1  0  0  0  0
  3  1  1  0  0  0  0
  4  5  1  0  0  0  0
  4  1  1  0  0  0  0
  5 10  1  0  0  0  0
  6 11  1  0  0  0  0
  6  5  2  0  0  0  0
  7  6  1  0  0  0  0
  8  7  2  0  0  0  0
  8  9  1  0  0  0  0
  9  4  2  0  0  0  0
 12  7  1  0  0  0  0
 13  8  1  0  0  0  0
 14  9  1  0  0  0  0
 15 14  1  0  0  0  0
 16 17  1  0  0  0  0
 16 15  1  0  0  0  0
 17 18  1  0  0  0  0
 18 14  1  0  0  0  0
 19 21  1  0  0  0  0
 20 19  1  0  0  0  0
 22 23  1  0  0  0  0
 23 24  2  0  0  0  0
 24 19  1  0  0  0  0
 25 24  1  0  0  0  0
 26 25  2  0  0  0  0
 27 22  2  0  0  0  0
 27 26  1  0  0  0  0
 28 22  1  0  0  0  0
 29 23  1  0  0  0  0
 30 26  1  0  0  0  0
M  END
>  <minimizedAffinity>
-4.9850316

$$$$

 OpenBabel03252508223D

 30 32  0  0  0  0  0  0  0  0999 V2000
   36.6370   27.7940   39.0490 C   0  0  0  0  0  0  0  0  0  0  0  0
   37.1090   27.9720   38.0880 H   0  0  0  0  0  0  0  0  0  0  0  0
   37.3000   28.3000   39.8110 H   0  0  0  0  0  0  0  0  0  0  0  0
   36.5160   26.4010   39.4690 C   0  0  0  0  0  0  0  0  0  0  0  0
   36.0000   25.4000   38.6740 C   0  0  0  0  0  0  0  0  0  0  0  0
   35.8720   24.0780   39.0330 C   0  0  0  0  0  0  0  0  0  0  0  0
   36.3040   23.7390   40.3090 C   0  0  0  0  0  0  0  0  0  0  0  0
   36.8310   24.7330   41.1340 C   0  0  0  0  0  0  0  0  0  0  0  0
   36.9470   26.0570   40.7430 C   0  0  0  0  0  0  0  0  0  0  0  0
   35.6560   25.6570   37.6650 H   0  0  0  0  0  0  0  0  0  0  0  0
   35.4560   23.3340   38.3630 H   0  0  0  0  0  0  0  0  0  0  0  0
   36.2180   22.7260   40.6170 H   0  0  0  0  0  0  0  0  0  0  0  0
   37.1400   24.3660   42.1090 H   0  0  0  0  0  0  0  0  0  0  0  0
   37.5160   27.0510   41.6720 C   0  0  0  0  0  3  0  0  0  0  0  0
   38.7960   26.6400   42.3240 C   0  0  0  0  0  2  0  0  0  0  0  0
   38.8310   27.3630   43.6740 C   0  0  0  0  0  2  0  0  0  0  0  0
   37.5760   28.2390   43.6800 C   0  0  0  0  0  2  0  0  0  0  0  0
   36.6320   27.3650   42.8430 C   0  0  0  0  0  2  0  0  0  0  0  0
   35.3100   28.5350   39.1620 C   0  0  0  0  0  0  0  0  0  0  0  0
   35.4400   29.5040   39.6840 H   0  0  0  0  0  0  0  0  0  0  0  0
   34.5780   27.8780   39.7130 H   0  0  0  0  0  0  0  0  0  0  0  0
   32.9290   29.1520   36.3170 C   0  0  0  0  0  0  0  0  0  0  0  0
   33.4190   28.9290   37.6290 C   0  0  0  0  0  0  0  0  0  0  0  0
   34.7870   28.7680   37.8020 C   0  0  0  0  0  0  0  0  0  0  0  0
   35.5620   28.8380   36.6820 N   0  0  0  0  0  0  0  0  0  0  0  0
   35.0870   29.0480   35.4550 C   0  0  0  0  0  0  0  0  0  0  0  0
   33.7570   29.2080   35.2630 N   0  0  0  0  0  0  0  0  0  0  0  0
   31.8580   29.2780   36.1770 H   0  0  0  0  0  0  0  0  0  0  0  0
   32.7100   28.8940   38.4250 H   0  0  0  0  0  0  0  0  0  0  0  0
   35.7450   29.0970   34.5870 H   0  0  0  0  0  0  0  0  0  0  0  0
  1 19  1  0  0  0  0
  1  4  1  0  0  0  0
  1  3  1  0  0  0  0
  2  1  1  0  0  0  0
  4  9  1  0  0  0  0
  5  6  1  0  0  0  0
  5  4  2  0  0  0  0
  6  7  2  0  0  0  0
  7 12  1  0  0  0  0
  7  8  1  0  0  0  0
  8 13  1  0  0  0  0
  9  8  2  0  0  0  0
  9 14  1  0  0  0  0
 10  5  1  0  0  0  0
 11  6  1  0  0  0  0
 14 15  1  0  0  0  0
 14 18  1  0  0  0  0
 15 16  1  0  0  0  0
 16 17  1  0  0  0  0
 18 17  1  0  0  0  0
 19 20  1  0  0  0  0
 19 21  1  0  0  0  0
 22 23  1  0  0  0  0
 23 24  2  0  0  0  0
 23 29  1  0  0  0  0
 24 19  1  0  0  0  0
 25 24  1  0  0  0  0
 26 25  2  0  0  0  0
 27 26  1  0  0  0  0
 27 22  2  0  0  0  0
 28 22  1  0  0  0  0
 30 26  1  0  0  0  0
M  END
>  <minimizedAffinity>
-4.92707109

$$$$
