
 OpenBabel03252503473D

 40 43  0  0  1  0  0  0  0  0999 V2000
   45.0570   34.8720   44.8760 C   0  0  0  0  0  0  0  0  0  0  0  0
   45.9030   34.5980   43.8100 C   0  0  0  0  0  0  0  0  0  0  0  0
   46.7140   33.4740   43.9360 C   0  0  0  0  0  0  0  0  0  0  0  0
   46.6840   32.6850   45.0320 N   0  0  0  0  0  0  0  0  0  0  0  0
   45.8390   32.9930   46.0490 C   0  0  0  0  0  0  0  0  0  0  0  0
   45.0360   34.0680   45.9770 N   0  0  0  0  0  0  0  0  0  0  0  0
   44.4280   35.7390   44.7840 H   0  0  0  0  0  0  0  0  0  0  0  0
   47.4300   33.0950   43.2680 H   0  0  0  0  0  0  0  0  0  0  0  0
   47.2830   31.7790   47.6790 C   0  0  2  0  0  0  0  0  0  0  0  0
   45.8310   32.1120   47.2170 C   0  0  1  0  0  0  0  0  0  0  0  0
   45.3730   32.6620   48.3670 O   0  0  0  0  0  0  0  0  0  0  0  0
   45.7420   31.8360   49.3930 C   0  0  0  0  0  0  0  0  0  0  0  0
   46.9220   30.9940   48.9370 C   0  0  2  0  0  0  0  0  0  0  0  0
   47.7980   31.1550   46.9360 H   0  0  0  0  0  0  0  0  0  0  0  0
   45.3190   31.1430   47.0220 H   0  0  0  0  0  0  0  0  0  0  0  0
   46.1090   32.4860   50.2340 H   0  0  0  0  0  0  0  0  0  0  0  0
   44.9210   31.2250   49.8030 H   0  0  0  0  0  0  0  0  0  0  0  0
   46.5900   29.9570   48.6850 H   0  0  0  0  0  0  0  0  0  0  0  0
   47.9140   32.8980   48.0720 O   0  0  0  0  0  0  0  0  0  0  0  0
   48.4150   33.3320   47.3340 H   0  0  0  0  0  0  0  0  0  0  0  0
   47.9310   30.9140   49.8480 O   0  0  0  0  0  0  0  0  0  0  0  0
   47.9140   30.0870   50.3730 H   0  0  0  0  0  0  0  0  0  0  0  0
   45.9430   35.4360   42.6290 C   0  0  0  0  0  0  0  0  0  0  0  0
   45.8490   36.5030   42.9230 H   0  0  0  0  0  0  0  0  0  0  0  0
   46.9270   35.4260   42.0990 H   0  0  0  0  0  0  0  0  0  0  0  0
   44.8100   35.1460   41.7460 C   0  0  0  0  0  0  0  0  0  0  0  0
   43.5200   35.6330   41.9080 C   0  0  0  0  0  0  0  0  0  0  0  0
   42.4840   35.2900   41.0540 C   0  0  0  0  0  0  0  0  0  0  0  0
   42.7630   34.4250   40.0050 C   0  0  0  0  0  0  0  0  0  0  0  0
   44.0600   33.9300   39.8330 C   0  0  0  0  0  0  0  0  0  0  0  0
   45.1040   34.2910   40.7070 C   0  0  0  0  0  0  0  0  0  0  0  0
   43.4210   36.2970   42.7600 H   0  0  0  0  0  0  0  0  0  0  0  0
   41.5380   35.7390   41.2910 H   0  0  0  0  0  0  0  0  0  0  0  0
   41.8790   34.2360   39.4180 H   0  0  0  0  0  0  0  0  0  0  0  0
   44.0190   33.2880   38.9650 H   0  0  0  0  0  0  0  0  0  0  0  0
   46.3110   33.6920   40.1550 C   0  0  0  0  0  0  0  0  0  0  0  0
   46.5650   32.2870   40.7760 C   0  0  0  0  0  0  0  0  0  0  0  0
   47.9310   31.9820   40.2010 C   0  0  0  0  0  0  0  0  0  0  0  0
   48.6070   33.3200   39.9950 C   0  0  0  0  0  0  0  0  0  0  0  0
   47.6040   34.3800   40.4750 C   0  0  0  0  0  0  0  0  0  0  0  0
  1  6  1  0  0  0  0
  2  3  1  0  0  0  0
  2  1  2  0  0  0  0
  3  4  2  0  0  0  0
  4  5  1  0  0  0  0
  5 10  1  0  0  0  0
  6  5  2  0  0  0  0
  7  1  1  0  0  0  0
  8  3  1  0  0  0  0
  9 14  1  6  0  0  0
  9 19  1  0  0  0  0
  9 13  1  0  0  0  0
 10 15  1  6  0  0  0
 10  9  1  0  0  0  0
 10 11  1  0  0  0  0
 11 12  1  0  0  0  0
 12 17  1  0  0  0  0
 12 16  1  0  0  0  0
 13 18  1  6  0  0  0
 13 12  1  0  0  0  0
 13 21  1  0  0  0  0
 20 19  1  0  0  0  0
 21 22  1  0  0  0  0
 23 24  1  0  0  0  0
 23  2  1  0  0  0  0
 25 23  1  0  0  0  0
 26 27  1  0  0  0  0
 26 23  1  0  0  0  0
 27 32  1  0  0  0  0
 28 33  1  0  0  0  0
 28 27  2  0  0  0  0
 29 28  1  0  0  0  0
 30 29  2  0  0  0  0
 30 31  1  0  0  0  0
 31 26  2  0  0  0  0
 34 29  1  0  0  0  0
 35 30  1  0  0  0  0
 36 40  1  0  0  0  0
 36 31  1  0  0  0  0
 36 37  1  0  0  0  0
 38 37  1  0  0  0  0
 39 38  1  0  0  0  0
 39 40  1  0  0  0  0
M  END
>  <minimizedAffinity>
-6.95306063

>  <minimizedRMSD>
0.423292637

$$$$
