
 OpenBabel03252509303D

 17 18  0  0  0  0  0  0  0  0999 V2000
   44.5380   36.0700   44.4570 C   0  0  0  0  0  0  0  0  0  0  0  0
   45.3640   35.8590   43.3260 C   0  0  0  0  0  0  0  0  0  0  0  0
   46.2170   34.7540   43.3680 C   0  0  0  0  0  0  0  0  0  0  0  0
   46.2150   33.9450   44.4760 N   0  0  0  0  0  0  0  0  0  0  0  0
   45.3950   34.2060   45.5260 C   0  0  0  0  0  0  0  0  0  0  0  0
   44.5680   35.2540   45.5190 N   0  0  0  0  0  0  0  0  0  0  0  0
   43.8690   36.9130   44.4580 H   0  0  0  0  0  0  0  0  0  0  0  0
   45.3180   36.5350   42.4830 H   0  0  0  0  0  0  0  0  0  0  0  0
   45.4820   33.5010   46.3410 H   0  0  0  0  0  0  0  0  0  0  0  0
   47.0750   34.5220   42.2070 C   0  0  0  0  0  0  0  0  0  0  0  0
   47.2290   35.4520   41.6380 H   0  0  0  0  0  0  0  0  0  0  0  0
   46.6700   33.6870   41.5820 H   0  0  0  0  0  0  0  0  0  0  0  0
   48.4100   34.0400   42.7350 C   0  0  0  0  0  3  0  0  0  0  0  0
   48.7600   32.6870   42.1730 C   0  0  0  0  0  2  0  0  0  0  0  0
   50.1920   32.7770   41.6750 C   0  0  0  0  0  2  0  0  0  0  0  0
   50.7210   33.9510   42.5110 C   0  0  0  0  0  2  0  0  0  0  0  0
   49.5530   34.9020   42.3030 C   0  0  0  0  0  2  0  0  0  0  0  0
  1  7  1  0  0  0  0
  1  6  1  0  0  0  0
  2  3  1  0  0  0  0
  2  1  2  0  0  0  0
  3  4  2  0  0  0  0
  4  5  1  0  0  0  0
  5  9  1  0  0  0  0
  6  5  2  0  0  0  0
  8  2  1  0  0  0  0
 10 13  1  0  0  0  0
 10  3  1  0  0  0  0
 11 10  1  0  0  0  0
 12 10  1  0  0  0  0
 14 13  1  0  0  0  0
 15 14  1  0  0  0  0
 15 16  1  0  0  0  0
 17 16  1  0  0  0  0
 17 13  1  0  0  0  0
M  END
>  <minimizedAffinity>
-4.41875601

>  <minimizedRMSD>
1.58231699

$$$$
